QQH.pdb
     RDKit          3D

 29 29  0  0  1  0  0  0  0  0999 V2000
    6.5200  -18.6049   19.2084 N   0  0  0  0  0  0  0  0  0  0  0  0
    7.8736  -18.4747   19.6241 C   0  0  0  0  0  0  0  0  0  0  0  0
    8.7352  -19.3441   19.3386 O   0  0  0  0  0  0  0  0  0  0  0  0
    8.2442  -17.2716   20.4122 C   0  0  0  0  0  0  0  0  0  0  0  0
    7.0227  -16.4057   20.6052 C   0  0  0  0  0  0  0  0  0  0  0  0
    7.3695  -14.9721   20.8940 C   0  0  2  0  0  0  0  0  0  0  0  0
    8.1991  -14.4889   19.8258 N   0  0  0  0  0  0  0  0  0  0  0  0
    7.9410  -14.7591   22.2285 C   0  0  0  0  0  0  0  0  0  0  0  0
    9.1858  -14.6052   22.3320 O   0  0  0  0  0  0  0  0  0  0  0  0
    7.9679  -12.6311   27.6008 N   0  0  0  0  0  0  0  0  0  0  0  0
    6.9449  -12.0842   26.7913 C   0  0  0  0  0  0  0  0  0  0  0  0
    6.6846  -10.8579   26.9539 O   0  0  0  0  0  0  0  0  0  0  0  0
    6.1989  -12.8845   25.7946 C   0  0  0  0  0  0  0  0  0  0  0  0
    6.7202  -14.3060   25.8064 C   0  0  0  0  0  0  0  0  0  0  0  0
    7.7683  -14.5258   24.7419 C   0  0  2  0  0  0  0  0  0  0  0  0
    7.1909  -14.7115   23.4335 N   0  0  0  0  0  0  0  0  0  0  0  0
    8.4916  -15.7757   25.0957 C   0  0  0  0  0  0  0  0  0  0  0  0
    7.8221  -16.8459   25.0957 O   0  0  0  0  0  0  0  0  0  0  0  0
    9.8619  -15.8310   25.4258 N   0  0  0  0  0  0  0  0  0  0  0  0
   10.4213  -17.0411   26.0048 C   0  0  1  0  0  0  0  0  0  0  0  0
   11.8981  -17.0623   25.6842 C   0  0  0  0  0  0  0  0  0  0  0  0
   12.1270  -17.0537   24.2261 C   0  0  0  0  0  0  0  0  0  0  0  0
   11.2221  -17.0881   23.2103 C   0  0  0  0  0  0  0  0  0  0  0  0
   11.8401  -17.0722   22.0065 N   0  0  0  0  0  0  0  0  0  0  0  0
   13.1634  -17.0267   22.2842 C   0  0  0  0  0  0  0  0  0  0  0  0
   13.3440  -17.0153   23.6172 N   0  0  0  0  0  0  0  0  0  0  0  0
   10.1182  -17.1530   27.4407 C   0  0  0  0  0  0  0  0  0  0  0  0
   10.5344  -18.2668   28.1392 O   0  0  0  0  0  0  0  0  0  0  0  0
    9.4919  -16.2612   28.0422 O   0  0  0  0  0  0  0  0  0  0  0  0
  1  2  1  0
  2  3  2  0
  4  2  1  0
  4  5  1  0
  6  5  1  0
  6  7  1  6
  8  6  1  0
  9  8  2  0
 10 11  1  0
 11 12  2  0
 11 13  1  0
 13 14  1  0
 15 14  1  1
 15 16  1  0
 16  8  1  0
 17 15  1  0
 17 18  2  0
 19 17  1  0
 20 19  1  0
 20 21  1  1
 21 22  1  0
 22 23  2  0
 23 24  1  0
 25 24  1  0
 26 22  1  0
 26 25  2  0
 27 20  1  0
 28 27  1  0
 29 27  2  0
M  END
$$$$
