IKY.pdb
     RDKit          3D

 30 30  0  0  1  0  0  0  0  0999 V2000
    5.9666  -11.6039   27.3632 C   0  0  0  0  0  0  0  0  0  0  0  0
    5.6302  -12.7278   26.4560 C   0  0  0  0  0  0  0  0  0  0  0  0
    6.7129  -13.3101   25.6365 C   0  0  2  0  0  0  0  0  0  0  0  0
    7.4294  -12.1841   24.8797 C   0  0  0  0  0  0  0  0  0  0  0  0
    6.4493  -14.4759   24.7827 C   0  0  2  0  0  0  0  0  0  0  0  0
    5.8421  -15.5006   25.6597 N   0  0  0  0  0  0  0  0  0  0  0  0
    7.5016  -15.0400   23.9600 C   0  0  0  0  0  0  0  0  0  0  0  0
    8.1973  -16.0418   24.3498 O   0  0  0  0  0  0  0  0  0  0  0  0
    7.8775  -14.5740   22.6750 N   0  0  0  0  0  0  0  0  0  0  0  0
    9.0018  -15.1307   21.9006 C   0  0  1  0  0  0  0  0  0  0  0  0
    9.0517  -14.2709   20.6857 C   0  0  0  0  0  0  0  0  0  0  0  0
    7.9760  -14.4177   19.6813 C   0  0  0  0  0  0  0  0  0  0  0  0
    8.6052  -13.9592   18.3497 C   0  0  0  0  0  0  0  0  0  0  0  0
    7.6199  -14.0981   17.2188 C   0  0  0  0  0  0  0  0  0  0  0  0
    8.2162  -13.4984   16.0361 N   0  0  0  0  0  0  0  0  0  0  0  0
   10.2087  -15.2150   22.7043 C   0  0  0  0  0  0  0  0  0  0  0  0
   10.9164  -14.1940   22.9383 O   0  0  0  0  0  0  0  0  0  0  0  0
   11.7484  -15.7535   30.9474 O   0  0  0  0  0  0  0  0  0  0  0  0
   11.3253  -15.8423   29.6285 C   0  0  0  0  0  0  0  0  0  0  0  0
   11.3458  -14.6925   28.8758 C   0  0  0  0  0  0  0  0  0  0  0  0
   10.9291  -14.7630   27.5646 C   0  0  0  0  0  0  0  0  0  0  0  0
   10.4963  -15.9398   26.9898 C   0  0  0  0  0  0  0  0  0  0  0  0
   10.0508  -15.9409   25.5820 C   0  0  0  0  0  0  0  0  0  0  0  0
   11.0948  -16.5375   24.6483 C   0  0  2  0  0  0  0  0  0  0  0  0
   10.6467  -16.4382   23.2656 N   0  0  0  0  0  0  0  0  0  0  0  0
   11.4767  -17.9051   24.9804 C   0  0  0  0  0  0  0  0  0  0  0  0
   12.6631  -18.1545   25.6403 O   0  0  0  0  0  0  0  0  0  0  0  0
   10.4934  -17.0574   27.7770 C   0  0  0  0  0  0  0  0  0  0  0  0
   10.9055  -17.0345   29.1070 C   0  0  0  0  0  0  0  0  0  0  0  0
   10.7213  -18.8576   24.6634 O   0  0  0  0  0  0  0  0  0  0  0  0
  2  1  1  0
  3  2  1  0
  3  5  1  0
  3  4  1  6
  5  6  1  1
  7  5  1  0
  8  7  2  0
  9  7  1  0
 10 16  1  0
 10  9  1  0
 10 11  1  6
 12 11  1  0
 13 12  1  0
 13 14  1  0
 14 15  1  0
 16 17  2  0
 18 19  1  0
 19 20  2  0
 19 29  1  0
 20 21  1  0
 21 22  2  0
 22 23  1  0
 24 23  1  1
 25 16  1  0
 25 24  1  0
 26 27  1  0
 26 24  1  0
 28 22  1  0
 29 28  2  0
 30 26  2  0
M  END
$$$$
