IKY.pdb
     RDKit          3D

 30 30  0  0  1  0  0  0  0  0999 V2000
    5.6796  -10.3999   26.9848 C   0  0  0  0  0  0  0  0  0  0  0  0
    6.6804  -11.4860   26.8503 C   0  0  0  0  0  0  0  0  0  0  0  0
    6.4450  -12.5283   25.8300 C   0  0  2  0  0  0  0  0  0  0  0  0
    5.0533  -13.1368   26.0473 C   0  0  0  0  0  0  0  0  0  0  0  0
    7.4659  -13.5513   25.5680 C   0  0  2  0  0  0  0  0  0  0  0  0
    8.7733  -12.8935   25.7824 N   0  0  0  0  0  0  0  0  0  0  0  0
    7.4510  -14.3077   24.3312 C   0  0  0  0  0  0  0  0  0  0  0  0
    6.7510  -15.3720   24.2009 O   0  0  0  0  0  0  0  0  0  0  0  0
    8.1783  -13.9792   23.1594 N   0  0  0  0  0  0  0  0  0  0  0  0
    8.3603  -14.9028   22.0248 C   0  0  1  0  0  0  0  0  0  0  0  0
    8.2683  -14.0164   20.8317 C   0  0  0  0  0  0  0  0  0  0  0  0
    8.4378  -14.6250   19.4944 C   0  0  0  0  0  0  0  0  0  0  0  0
    8.2975  -13.4542   18.5001 C   0  0  0  0  0  0  0  0  0  0  0  0
    8.3226  -13.9552   17.0797 C   0  0  0  0  0  0  0  0  0  0  0  0
    8.1290  -12.8113   16.2034 N   0  0  0  0  0  0  0  0  0  0  0  0
    9.5700  -15.6929   22.1732 C   0  0  0  0  0  0  0  0  0  0  0  0
   10.6349  -15.3868   21.5646 O   0  0  0  0  0  0  0  0  0  0  0  0
   11.4371  -16.0220   30.3980 O   0  0  0  0  0  0  0  0  0  0  0  0
   11.2601  -15.9558   29.0229 C   0  0  0  0  0  0  0  0  0  0  0  0
   10.7720  -14.7819   28.5008 C   0  0  0  0  0  0  0  0  0  0  0  0
   10.5905  -14.6991   27.1377 C   0  0  0  0  0  0  0  0  0  0  0  0
   10.8804  -15.7475   26.2894 C   0  0  0  0  0  0  0  0  0  0  0  0
   10.6492  -15.5949   24.8391 C   0  0  0  0  0  0  0  0  0  0  0  0
   10.5382  -16.9372   24.1295 C   0  0  2  0  0  0  0  0  0  0  0  0
    9.6163  -16.8362   23.0060 N   0  0  0  0  0  0  0  0  0  0  0  0
   10.1786  -18.0451   25.0069 C   0  0  0  0  0  0  0  0  0  0  0  0
    8.8654  -18.4601   25.0994 O   0  0  0  0  0  0  0  0  0  0  0  0
   11.3635  -16.8949   26.8541 C   0  0  0  0  0  0  0  0  0  0  0  0
   11.5634  -17.0248   28.2261 C   0  0  0  0  0  0  0  0  0  0  0  0
   11.0691  -18.6217   25.6798 O   0  0  0  0  0  0  0  0  0  0  0  0
  2  1  1  0
  3  2  1  0
  3  5  1  0
  3  4  1  1
  5  6  1  6
  7  5  1  0
  8  7  2  0
  9  7  1  0
 10 16  1  0
 10  9  1  0
 10 11  1  6
 12 11  1  0
 13 12  1  0
 13 14  1  0
 14 15  1  0
 16 17  2  0
 18 19  1  0
 19 20  2  0
 19 29  1  0
 20 21  1  0
 21 22  2  0
 22 23  1  0
 24 23  1  1
 25 16  1  0
 25 24  1  0
 26 27  1  0
 26 24  1  0
 28 22  1  0
 29 28  2  0
 30 26  2  0
M  END
$$$$
