IKY.pdb
     RDKit          3D

 30 30  0  0  1  0  0  0  0  0999 V2000
    5.6928  -11.1546   26.6842 C   0  0  0  0  0  0  0  0  0  0  0  0
    5.3897  -12.4781   26.0877 C   0  0  0  0  0  0  0  0  0  0  0  0
    6.4829  -13.2029   25.4075 C   0  0  2  0  0  0  0  0  0  0  0  0
    7.1880  -12.2481   24.4352 C   0  0  0  0  0  0  0  0  0  0  0  0
    6.2373  -14.5233   24.8127 C   0  0  2  0  0  0  0  0  0  0  0  0
    5.5493  -15.3216   25.8506 N   0  0  0  0  0  0  0  0  0  0  0  0
    7.3203  -15.2698   24.2027 C   0  0  0  0  0  0  0  0  0  0  0  0
    8.0192  -16.1097   24.8703 O   0  0  0  0  0  0  0  0  0  0  0  0
    7.7254  -15.1688   22.8479 N   0  0  0  0  0  0  0  0  0  0  0  0
    8.7702  -16.0144   22.2422 C   0  0  1  0  0  0  0  0  0  0  0  0
    8.5229  -15.8854   20.7795 C   0  0  0  0  0  0  0  0  0  0  0  0
    8.5065  -17.1181   19.9622 C   0  0  0  0  0  0  0  0  0  0  0  0
    8.2001  -16.6438   18.5269 C   0  0  0  0  0  0  0  0  0  0  0  0
    8.1669  -17.8112   17.5754 C   0  0  0  0  0  0  0  0  0  0  0  0
    7.8969  -17.2904   16.2451 N   0  0  0  0  0  0  0  0  0  0  0  0
   10.0911  -15.6533   22.7266 C   0  0  0  0  0  0  0  0  0  0  0  0
   10.5146  -14.4641   22.6591 O   0  0  0  0  0  0  0  0  0  0  0  0
   11.9083  -15.7011   30.9579 O   0  0  0  0  0  0  0  0  0  0  0  0
   11.5052  -15.7573   29.6309 C   0  0  0  0  0  0  0  0  0  0  0  0
   11.2014  -16.9927   29.1109 C   0  0  0  0  0  0  0  0  0  0  0  0
   10.7994  -17.0664   27.7952 C   0  0  0  0  0  0  0  0  0  0  0  0
   10.6937  -15.9501   26.9920 C   0  0  0  0  0  0  0  0  0  0  0  0
   10.2694  -16.1032   25.5860 C   0  0  0  0  0  0  0  0  0  0  0  0
   11.4217  -16.5103   24.6780 C   0  0  2  0  0  0  0  0  0  0  0  0
   10.9627  -16.6102   23.2990 N   0  0  0  0  0  0  0  0  0  0  0  0
   12.1042  -17.7297   25.0948 C   0  0  0  0  0  0  0  0  0  0  0  0
   13.4526  -17.7055   25.3885 O   0  0  0  0  0  0  0  0  0  0  0  0
   11.0063  -14.7431   27.5527 C   0  0  0  0  0  0  0  0  0  0  0  0
   11.4170  -14.6197   28.8775 C   0  0  0  0  0  0  0  0  0  0  0  0
   11.4601  -18.8045   25.1857 O   0  0  0  0  0  0  0  0  0  0  0  0
  2  1  1  0
  3  2  1  0
  3  5  1  0
  3  4  1  6
  5  6  1  1
  7  5  1  0
  8  7  2  0
  9  7  1  0
 10 16  1  0
 10  9  1  0
 10 11  1  6
 12 11  1  0
 13 12  1  0
 13 14  1  0
 14 15  1  0
 16 17  2  0
 18 19  1  0
 19 20  2  0
 19 29  1  0
 20 21  1  0
 21 22  2  0
 22 23  1  0
 24 23  1  1
 25 16  1  0
 25 24  1  0
 26 27  1  0
 26 24  1  0
 28 22  1  0
 29 28  2  0
 30 26  2  0
M  END
$$$$
