IKY.pdb
     RDKit          3D

 30 30  0  0  1  0  0  0  0  0999 V2000
    7.4186  -11.6823   19.5375 C   0  0  0  0  0  0  0  0  0  0  0  0
    7.7292  -13.0161   18.9683 C   0  0  0  0  0  0  0  0  0  0  0  0
    8.1152  -14.0979   19.8977 C   0  0  2  0  0  0  0  0  0  0  0  0
    9.2573  -13.6035   20.7951 C   0  0  0  0  0  0  0  0  0  0  0  0
    8.3505  -15.4573   19.3938 C   0  0  2  0  0  0  0  0  0  0  0  0
    7.1841  -15.7912   18.5476 N   0  0  0  0  0  0  0  0  0  0  0  0
    8.6676  -16.5375   20.3075 C   0  0  0  0  0  0  0  0  0  0  0  0
    7.7541  -17.1796   20.9343 O   0  0  0  0  0  0  0  0  0  0  0  0
    9.9732  -16.9999   20.6100 N   0  0  0  0  0  0  0  0  0  0  0  0
   10.2518  -18.1119   21.5371 C   0  0  1  0  0  0  0  0  0  0  0  0
   11.3188  -18.8872   20.8456 C   0  0  0  0  0  0  0  0  0  0  0  0
   11.8888  -20.0629   21.5387 C   0  0  0  0  0  0  0  0  0  0  0  0
   11.0210  -21.2551   21.0862 C   0  0  0  0  0  0  0  0  0  0  0  0
   11.5202  -22.5392   21.6953 C   0  0  0  0  0  0  0  0  0  0  0  0
   10.6360  -23.6083   21.2604 N   0  0  0  0  0  0  0  0  0  0  0  0
   10.5445  -17.6265   22.8743 C   0  0  0  0  0  0  0  0  0  0  0  0
   10.7685  -18.4235   23.8296 O   0  0  0  0  0  0  0  0  0  0  0  0
   10.5671  -14.3049   30.7065 O   0  0  0  0  0  0  0  0  0  0  0  0
   10.3526  -14.7595   29.4127 C   0  0  0  0  0  0  0  0  0  0  0  0
   10.0588  -13.8230   28.4506 C   0  0  0  0  0  0  0  0  0  0  0  0
    9.8431  -14.2572   27.1611 C   0  0  0  0  0  0  0  0  0  0  0  0
    9.9122  -15.5892   26.8094 C   0  0  0  0  0  0  0  0  0  0  0  0
    9.6565  -15.9863   25.4104 C   0  0  0  0  0  0  0  0  0  0  0  0
   10.8651  -15.7508   24.5151 C   0  0  2  0  0  0  0  0  0  0  0  0
   10.5972  -16.2435   23.1705 N   0  0  0  0  0  0  0  0  0  0  0  0
   12.1092  -16.3024   25.0392 C   0  0  0  0  0  0  0  0  0  0  0  0
   12.2469  -17.6649   25.2115 O   0  0  0  0  0  0  0  0  0  0  0  0
   10.2073  -16.4840   27.7999 C   0  0  0  0  0  0  0  0  0  0  0  0
   10.4331  -16.0920   29.1169 C   0  0  0  0  0  0  0  0  0  0  0  0
   13.0570  -15.5323   25.3342 O   0  0  0  0  0  0  0  0  0  0  0  0
  2  1  1  0
  3  2  1  0
  3  5  1  0
  3  4  1  6
  5  6  1  1
  7  5  1  0
  8  7  2  0
  9  7  1  0
 10 16  1  0
 10  9  1  0
 10 11  1  6
 12 11  1  0
 13 12  1  0
 13 14  1  0
 14 15  1  0
 16 17  2  0
 18 19  1  0
 19 20  2  0
 19 29  1  0
 20 21  1  0
 21 22  2  0
 22 23  1  0
 24 23  1  1
 25 16  1  0
 25 24  1  0
 26 27  1  0
 26 24  1  0
 28 22  1  0
 29 28  2  0
 30 26  2  0
M  END
$$$$
