IKY.pdb
     RDKit          3D

 30 30  0  0  1  0  0  0  0  0999 V2000
    5.7169  -11.6619   26.9511 C   0  0  0  0  0  0  0  0  0  0  0  0
    5.4700  -12.9548   26.2678 C   0  0  0  0  0  0  0  0  0  0  0  0
    6.6129  -13.6291   25.6181 C   0  0  2  0  0  0  0  0  0  0  0  0
    7.3342  -12.6268   24.7075 C   0  0  0  0  0  0  0  0  0  0  0  0
    6.4318  -14.9369   24.9745 C   0  0  2  0  0  0  0  0  0  0  0  0
    5.7528  -15.7956   25.9693 N   0  0  0  0  0  0  0  0  0  0  0  0
    7.5560  -15.6206   24.3654 C   0  0  0  0  0  0  0  0  0  0  0  0
    8.2381  -16.4963   25.0037 O   0  0  0  0  0  0  0  0  0  0  0  0
    8.0227  -15.4150   23.0426 N   0  0  0  0  0  0  0  0  0  0  0  0
    9.1027  -16.2060   22.4249 C   0  0  1  0  0  0  0  0  0  0  0  0
    8.9544  -15.9274   20.9696 C   0  0  0  0  0  0  0  0  0  0  0  0
    7.7463  -16.4317   20.2812 C   0  0  0  0  0  0  0  0  0  0  0  0
    8.2768  -17.2275   19.0712 C   0  0  0  0  0  0  0  0  0  0  0  0
    7.1409  -17.8558   18.3069 C   0  0  0  0  0  0  0  0  0  0  0  0
    7.7078  -18.5469   17.1602 N   0  0  0  0  0  0  0  0  0  0  0  0
   10.3894  -15.9095   23.0299 C   0  0  0  0  0  0  0  0  0  0  0  0
   10.9526  -14.7900   22.8639 O   0  0  0  0  0  0  0  0  0  0  0  0
   10.0778  -16.0118   30.3216 O   0  0  0  0  0  0  0  0  0  0  0  0
   10.6186  -15.7795   29.0646 C   0  0  0  0  0  0  0  0  0  0  0  0
   10.9388  -16.8745   28.2983 C   0  0  0  0  0  0  0  0  0  0  0  0
   11.4765  -16.6618   27.0479 C   0  0  0  0  0  0  0  0  0  0  0  0
   11.7013  -15.3966   26.5465 C   0  0  0  0  0  0  0  0  0  0  0  0
   12.2933  -15.2413   25.2027 C   0  0  0  0  0  0  0  0  0  0  0  0
   12.3595  -16.5611   24.4468 C   0  0  2  0  0  0  0  0  0  0  0  0
   11.0702  -16.8538   23.8347 N   0  0  0  0  0  0  0  0  0  0  0  0
   12.8267  -17.6839   25.2515 C   0  0  0  0  0  0  0  0  0  0  0  0
   14.1001  -17.6746   25.7841 O   0  0  0  0  0  0  0  0  0  0  0  0
   11.3673  -14.3381   27.3446 C   0  0  0  0  0  0  0  0  0  0  0  0
   10.8214  -14.5043   28.6148 C   0  0  0  0  0  0  0  0  0  0  0  0
   12.0655  -18.6616   25.4588 O   0  0  0  0  0  0  0  0  0  0  0  0
  2  1  1  0
  3  2  1  0
  3  5  1  0
  3  4  1  6
  5  6  1  1
  7  5  1  0
  8  7  2  0
  9  7  1  0
 10 16  1  0
 10  9  1  0
 10 11  1  6
 12 11  1  0
 13 12  1  0
 13 14  1  0
 14 15  1  0
 16 17  2  0
 18 19  1  0
 19 20  2  0
 19 29  1  0
 20 21  1  0
 21 22  2  0
 22 23  1  0
 24 23  1  1
 25 16  1  0
 25 24  1  0
 26 27  1  0
 26 24  1  0
 28 22  1  0
 29 28  2  0
 30 26  2  0
M  END
$$$$
