IKY.pdb
     RDKit          3D

 30 30  0  0  1  0  0  0  0  0999 V2000
    7.5167  -11.6181   19.7175 C   0  0  0  0  0  0  0  0  0  0  0  0
    7.7868  -13.0585   19.4906 C   0  0  0  0  0  0  0  0  0  0  0  0
    7.9462  -13.9323   20.6714 C   0  0  2  0  0  0  0  0  0  0  0  0
    8.9650  -13.2999   21.6286 C   0  0  0  0  0  0  0  0  0  0  0  0
    8.1627  -15.3749   20.5004 C   0  0  2  0  0  0  0  0  0  0  0  0
    7.1434  -15.8330   19.5314 N   0  0  0  0  0  0  0  0  0  0  0  0
    8.2286  -16.2521   21.6530 C   0  0  0  0  0  0  0  0  0  0  0  0
    7.1721  -16.6578   22.2519 O   0  0  0  0  0  0  0  0  0  0  0  0
    9.4200  -16.7503   22.2380 N   0  0  0  0  0  0  0  0  0  0  0  0
    9.4433  -17.6369   23.4157 C   0  0  1  0  0  0  0  0  0  0  0  0
   10.2642  -18.7956   22.9674 C   0  0  0  0  0  0  0  0  0  0  0  0
    9.8239  -19.5415   21.7685 C   0  0  0  0  0  0  0  0  0  0  0  0
    9.7360  -21.0133   22.2215 C   0  0  0  0  0  0  0  0  0  0  0  0
    9.4055  -21.9104   21.0574 C   0  0  0  0  0  0  0  0  0  0  0  0
    9.4132  -23.2820   21.5396 N   0  0  0  0  0  0  0  0  0  0  0  0
    9.8873  -16.9287   24.6036 C   0  0  0  0  0  0  0  0  0  0  0  0
   10.8856  -16.1537   24.5733 O   0  0  0  0  0  0  0  0  0  0  0  0
    6.3537  -11.3699   25.0912 O   0  0  0  0  0  0  0  0  0  0  0  0
    6.8467  -12.4826   25.7587 C   0  0  0  0  0  0  0  0  0  0  0  0
    8.1337  -12.4184   26.2365 C   0  0  0  0  0  0  0  0  0  0  0  0
    8.6386  -13.5142   26.9016 C   0  0  0  0  0  0  0  0  0  0  0  0
    7.8999  -14.6619   27.1005 C   0  0  0  0  0  0  0  0  0  0  0  0
    8.5084  -15.8046   27.8107 C   0  0  0  0  0  0  0  0  0  0  0  0
    9.6891  -16.3923   27.0502 C   0  0  2  0  0  0  0  0  0  0  0  0
    9.2242  -17.0679   25.8461 N   0  0  0  0  0  0  0  0  0  0  0  0
   10.5351  -17.2689   27.8518 C   0  0  0  0  0  0  0  0  0  0  0  0
   11.2326  -16.7647   28.9309 O   0  0  0  0  0  0  0  0  0  0  0  0
    6.6249  -14.6795   26.6076 C   0  0  0  0  0  0  0  0  0  0  0  0
    6.0721  -13.5963   25.9291 C   0  0  0  0  0  0  0  0  0  0  0  0
   10.6274  -18.4865   27.5567 O   0  0  0  0  0  0  0  0  0  0  0  0
  2  1  1  0
  3  2  1  0
  3  5  1  0
  3  4  1  6
  5  6  1  6
  7  5  1  0
  8  7  2  0
  9  7  1  0
 10 16  1  0
 10  9  1  0
 10 11  1  6
 12 11  1  0
 13 12  1  0
 13 14  1  0
 14 15  1  0
 16 17  2  0
 18 19  1  0
 19 20  2  0
 19 29  1  0
 20 21  1  0
 21 22  2  0
 22 23  1  0
 24 23  1  1
 25 16  1  0
 25 24  1  0
 26 27  1  0
 26 24  1  0
 28 22  1  0
 29 28  2  0
 30 26  2  0
M  END
$$$$
