IKY.pdb
     RDKit          3D

 30 30  0  0  1  0  0  0  0  0999 V2000
    7.5272  -11.4926   18.5092 C   0  0  0  0  0  0  0  0  0  0  0  0
    7.9078  -12.8542   18.0616 C   0  0  0  0  0  0  0  0  0  0  0  0
    8.1699  -13.8791   19.0930 C   0  0  2  0  0  0  0  0  0  0  0  0
    9.2005  -13.3339   20.0904 C   0  0  0  0  0  0  0  0  0  0  0  0
    8.4521  -15.2667   18.7023 C   0  0  2  0  0  0  0  0  0  0  0  0
    7.3968  -15.6463   17.7378 N   0  0  0  0  0  0  0  0  0  0  0  0
    8.6414  -16.2921   19.7098 C   0  0  0  0  0  0  0  0  0  0  0  0
    7.6523  -16.8172   20.3306 O   0  0  0  0  0  0  0  0  0  0  0  0
    9.8920  -16.8206   20.1179 N   0  0  0  0  0  0  0  0  0  0  0  0
   10.0608  -17.7215   21.2726 C   0  0  1  0  0  0  0  0  0  0  0  0
   10.9550  -18.7936   20.7544 C   0  0  0  0  0  0  0  0  0  0  0  0
   11.4886  -19.7835   21.7151 C   0  0  0  0  0  0  0  0  0  0  0  0
   12.3558  -20.7374   20.8683 C   0  0  0  0  0  0  0  0  0  0  0  0
   12.8783  -21.8718   21.7104 C   0  0  0  0  0  0  0  0  0  0  0  0
   13.6071  -21.2941   22.8281 N   0  0  0  0  0  0  0  0  0  0  0  0
   10.5063  -16.9967   22.4498 C   0  0  0  0  0  0  0  0  0  0  0  0
   11.4658  -16.1755   22.3932 O   0  0  0  0  0  0  0  0  0  0  0  0
   10.9054  -14.3081   30.8728 O   0  0  0  0  0  0  0  0  0  0  0  0
   10.4955  -14.7994   29.6410 C   0  0  0  0  0  0  0  0  0  0  0  0
   10.2322  -13.8861   28.6484 C   0  0  0  0  0  0  0  0  0  0  0  0
    9.8244  -14.3567   27.4195 C   0  0  0  0  0  0  0  0  0  0  0  0
    9.6736  -15.7025   27.1575 C   0  0  0  0  0  0  0  0  0  0  0  0
    9.2199  -16.1370   25.8211 C   0  0  0  0  0  0  0  0  0  0  0  0
   10.3824  -16.5103   24.9117 C   0  0  2  0  0  0  0  0  0  0  0  0
    9.8880  -17.1706   23.7109 N   0  0  0  0  0  0  0  0  0  0  0  0
   11.4142  -17.3082   25.5638 C   0  0  0  0  0  0  0  0  0  0  0  0
   12.5769  -16.7115   26.0079 O   0  0  0  0  0  0  0  0  0  0  0  0
    9.9469  -16.5733   28.1753 C   0  0  0  0  0  0  0  0  0  0  0  0
   10.3618  -16.1442   29.4334 C   0  0  0  0  0  0  0  0  0  0  0  0
   11.2417  -18.5427   25.7201 O   0  0  0  0  0  0  0  0  0  0  0  0
  2  1  1  0
  3  2  1  0
  3  5  1  0
  3  4  1  6
  5  6  1  6
  7  5  1  0
  8  7  2  0
  9  7  1  0
 10 16  1  0
 10  9  1  0
 10 11  1  6
 12 11  1  0
 13 12  1  0
 13 14  1  0
 14 15  1  0
 16 17  2  0
 18 19  1  0
 19 20  2  0
 19 29  1  0
 20 21  1  0
 21 22  2  0
 22 23  1  0
 24 23  1  1
 25 16  1  0
 25 24  1  0
 26 27  1  0
 26 24  1  0
 28 22  1  0
 29 28  2  0
 30 26  2  0
M  END
$$$$
