IKY.pdb
     RDKit          3D

 30 30  0  0  1  0  0  0  0  0999 V2000
    7.5027  -12.3331   27.8670 C   0  0  0  0  0  0  0  0  0  0  0  0
    6.9460  -13.5197   27.1730 C   0  0  0  0  0  0  0  0  0  0  0  0
    7.0792  -13.5937   25.7034 C   0  0  2  0  0  0  0  0  0  0  0  0
    6.4561  -12.3378   25.0800 C   0  0  0  0  0  0  0  0  0  0  0  0
    6.6999  -14.8186   24.9869 C   0  0  2  0  0  0  0  0  0  0  0  0
    6.5250  -15.8630   26.0196 N   0  0  0  0  0  0  0  0  0  0  0  0
    7.4988  -15.3007   23.8771 C   0  0  0  0  0  0  0  0  0  0  0  0
    7.4601  -16.5239   23.5006 O   0  0  0  0  0  0  0  0  0  0  0  0
    8.3861  -14.5127   23.1014 N   0  0  0  0  0  0  0  0  0  0  0  0
    9.0569  -14.9986   21.8818 C   0  0  1  0  0  0  0  0  0  0  0  0
    9.0922  -13.8000   20.9987 C   0  0  0  0  0  0  0  0  0  0  0  0
    7.9684  -13.5903   20.0602 C   0  0  0  0  0  0  0  0  0  0  0  0
    8.5391  -13.9312   18.6684 C   0  0  0  0  0  0  0  0  0  0  0  0
    7.4938  -13.7364   17.6014 C   0  0  0  0  0  0  0  0  0  0  0  0
    8.0318  -14.2564   16.3547 N   0  0  0  0  0  0  0  0  0  0  0  0
   10.3264  -15.6324   22.1919 C   0  0  0  0  0  0  0  0  0  0  0  0
   11.3926  -15.2935   21.6033 O   0  0  0  0  0  0  0  0  0  0  0  0
   10.1217  -16.0004   30.5589 O   0  0  0  0  0  0  0  0  0  0  0  0
   10.3033  -15.7641   29.2032 C   0  0  0  0  0  0  0  0  0  0  0  0
   10.9822  -16.7139   28.4780 C   0  0  0  0  0  0  0  0  0  0  0  0
   11.1711  -16.4952   27.1311 C   0  0  0  0  0  0  0  0  0  0  0  0
   10.7049  -15.3639   26.4944 C   0  0  0  0  0  0  0  0  0  0  0  0
   10.9545  -15.1871   25.0498 C   0  0  0  0  0  0  0  0  0  0  0  0
   11.2637  -16.5052   24.3536 C   0  0  2  0  0  0  0  0  0  0  0  0
   10.4317  -16.6530   23.1667 N   0  0  0  0  0  0  0  0  0  0  0  0
   11.1570  -17.6738   25.2194 C   0  0  0  0  0  0  0  0  0  0  0  0
    9.9834  -18.3988   25.2664 O   0  0  0  0  0  0  0  0  0  0  0  0
   10.0356  -14.4472   27.2564 C   0  0  0  0  0  0  0  0  0  0  0  0
    9.8207  -14.6252   28.6206 C   0  0  0  0  0  0  0  0  0  0  0  0
   12.1381  -18.0192   25.9239 O   0  0  0  0  0  0  0  0  0  0  0  0
  2  1  1  0
  3  2  1  0
  3  5  1  0
  3  4  1  6
  5  6  1  1
  7  5  1  0
  8  7  2  0
  9  7  1  0
 10 16  1  0
 10  9  1  0
 10 11  1  6
 12 11  1  0
 13 12  1  0
 13 14  1  0
 14 15  1  0
 16 17  2  0
 18 19  1  0
 19 20  2  0
 19 29  1  0
 20 21  1  0
 21 22  2  0
 22 23  1  0
 24 23  1  1
 25 16  1  0
 25 24  1  0
 26 27  1  0
 26 24  1  0
 28 22  1  0
 29 28  2  0
 30 26  2  0
M  END
$$$$
