IKY.pdb
     RDKit          3D

 30 30  0  0  1  0  0  0  0  0999 V2000
    7.0913  -11.7222   19.7212 C   0  0  0  0  0  0  0  0  0  0  0  0
    7.2136  -13.1867   19.5220 C   0  0  0  0  0  0  0  0  0  0  0  0
    7.7443  -13.9997   20.6357 C   0  0  2  0  0  0  0  0  0  0  0  0
    9.0639  -13.3848   21.1203 C   0  0  0  0  0  0  0  0  0  0  0  0
    7.8221  -15.4613   20.5132 C   0  0  2  0  0  0  0  0  0  0  0  0
    6.5048  -15.9034   20.0060 N   0  0  0  0  0  0  0  0  0  0  0  0
    8.2570  -16.2728   21.6333 C   0  0  0  0  0  0  0  0  0  0  0  0
    7.4267  -16.7412   22.4882 O   0  0  0  0  0  0  0  0  0  0  0  0
    9.5990  -16.6349   21.9122 N   0  0  0  0  0  0  0  0  0  0  0  0
    9.9978  -17.4746   23.0565 C   0  0  1  0  0  0  0  0  0  0  0  0
   11.1628  -18.2442   22.5388 C   0  0  0  0  0  0  0  0  0  0  0  0
   10.9740  -19.0632   21.3217 C   0  0  0  0  0  0  0  0  0  0  0  0
   12.3599  -19.6742   21.0304 C   0  0  0  0  0  0  0  0  0  0  0  0
   12.3332  -20.4709   19.7523 C   0  0  0  0  0  0  0  0  0  0  0  0
   13.6982  -20.8721   19.4522 N   0  0  0  0  0  0  0  0  0  0  0  0
   10.2075  -16.6766   24.2518 C   0  0  0  0  0  0  0  0  0  0  0  0
   10.2103  -15.4132   24.2078 O   0  0  0  0  0  0  0  0  0  0  0  0
    6.8100  -11.1140   26.1863 O   0  0  0  0  0  0  0  0  0  0  0  0
    7.2103  -12.4402   26.2740 C   0  0  0  0  0  0  0  0  0  0  0  0
    6.3948  -13.3890   25.7051 C   0  0  0  0  0  0  0  0  0  0  0  0
    6.7773  -14.7102   25.7830 C   0  0  0  0  0  0  0  0  0  0  0  0
    7.9414  -15.1061   26.4081 C   0  0  0  0  0  0  0  0  0  0  0  0
    8.2838  -16.5412   26.4665 C   0  0  0  0  0  0  0  0  0  0  0  0
    9.7669  -16.7691   26.7238 C   0  0  2  0  0  0  0  0  0  0  0  0
   10.4137  -17.2720   25.5191 N   0  0  0  0  0  0  0  0  0  0  0  0
   10.0462  -17.6284   27.8684 C   0  0  0  0  0  0  0  0  0  0  0  0
   10.6766  -18.8430   27.6879 O   0  0  0  0  0  0  0  0  0  0  0  0
    8.7204  -14.1272   26.9594 C   0  0  0  0  0  0  0  0  0  0  0  0
    8.3747  -12.7794   26.9053 C   0  0  0  0  0  0  0  0  0  0  0  0
    9.7105  -17.2595   29.0214 O   0  0  0  0  0  0  0  0  0  0  0  0
  2  1  1  0
  3  2  1  0
  3  5  1  0
  3  4  1  6
  5  6  1  1
  7  5  1  0
  8  7  2  0
  9  7  1  0
 10 16  1  0
 10  9  1  0
 10 11  1  6
 12 11  1  0
 13 12  1  0
 13 14  1  0
 14 15  1  0
 16 17  2  0
 18 19  1  0
 19 20  2  0
 19 29  1  0
 20 21  1  0
 21 22  2  0
 22 23  1  0
 24 23  1  6
 25 16  1  0
 25 24  1  0
 26 27  1  0
 26 24  1  0
 28 22  1  0
 29 28  2  0
 30 26  2  0
M  END
$$$$
