IKY.pdb
     RDKit          3D

 30 30  0  0  1  0  0  0  0  0999 V2000
    5.8123  -11.6199   27.5629 C   0  0  0  0  0  0  0  0  0  0  0  0
    5.5712  -12.8829   26.8239 C   0  0  0  0  0  0  0  0  0  0  0  0
    6.6095  -13.3479   25.8811 C   0  0  2  0  0  0  0  0  0  0  0  0
    7.1070  -12.1543   25.0553 C   0  0  0  0  0  0  0  0  0  0  0  0
    6.3780  -14.5398   25.0546 C   0  0  2  0  0  0  0  0  0  0  0  0
    6.0315  -15.6306   25.9917 N   0  0  0  0  0  0  0  0  0  0  0  0
    7.3683  -14.9691   24.0864 C   0  0  0  0  0  0  0  0  0  0  0  0
    8.3357  -15.7429   24.4102 O   0  0  0  0  0  0  0  0  0  0  0  0
    7.3901  -14.6021   22.7172 N   0  0  0  0  0  0  0  0  0  0  0  0
    8.4470  -15.0172   21.7768 C   0  0  1  0  0  0  0  0  0  0  0  0
    8.1980  -14.1751   20.5741 C   0  0  0  0  0  0  0  0  0  0  0  0
    9.1447  -14.2762   19.4422 C   0  0  0  0  0  0  0  0  0  0  0  0
    8.2836  -14.0702   18.1793 C   0  0  0  0  0  0  0  0  0  0  0  0
    9.1454  -14.0496   16.9440 C   0  0  0  0  0  0  0  0  0  0  0  0
    8.2733  -13.8420   15.7993 N   0  0  0  0  0  0  0  0  0  0  0  0
    9.7625  -14.9314   22.3865 C   0  0  0  0  0  0  0  0  0  0  0  0
   10.3532  -13.8223   22.5243 O   0  0  0  0  0  0  0  0  0  0  0  0
   11.6970  -15.6345   30.5353 O   0  0  0  0  0  0  0  0  0  0  0  0
   11.2497  -15.7274   29.2246 C   0  0  0  0  0  0  0  0  0  0  0  0
   10.9546  -14.5559   28.5693 C   0  0  0  0  0  0  0  0  0  0  0  0
   10.5095  -14.6301   27.2677 C   0  0  0  0  0  0  0  0  0  0  0  0
   10.3522  -15.8316   26.6087 C   0  0  0  0  0  0  0  0  0  0  0  0
    9.8579  -15.8388   25.2173 C   0  0  0  0  0  0  0  0  0  0  0  0
   10.9572  -16.1698   24.2175 C   0  0  2  0  0  0  0  0  0  0  0  0
   10.4422  -16.0799   22.8576 N   0  0  0  0  0  0  0  0  0  0  0  0
   11.6049  -17.4553   24.4507 C   0  0  0  0  0  0  0  0  0  0  0  0
   11.0254  -18.6194   23.9879 O   0  0  0  0  0  0  0  0  0  0  0  0
   10.6580  -16.9702   27.3007 C   0  0  0  0  0  0  0  0  0  0  0  0
   11.1112  -16.9445   28.6171 C   0  0  0  0  0  0  0  0  0  0  0  0
   12.6939  -17.5003   25.0754 O   0  0  0  0  0  0  0  0  0  0  0  0
  2  1  1  0
  3  2  1  0
  3  5  1  0
  3  4  1  6
  5  6  1  1
  7  5  1  0
  8  7  2  0
  9  7  1  0
 10 16  1  0
 10  9  1  0
 10 11  1  6
 12 11  1  0
 13 12  1  0
 13 14  1  0
 14 15  1  0
 16 17  2  0
 18 19  1  0
 19 20  2  0
 19 29  1  0
 20 21  1  0
 21 22  2  0
 22 23  1  0
 24 23  1  1
 25 16  1  0
 25 24  1  0
 26 27  1  0
 26 24  1  0
 28 22  1  0
 29 28  2  0
 30 26  2  0
M  END
$$$$
