IKY.pdb
     RDKit          3D

 30 30  0  0  1  0  0  0  0  0999 V2000
    7.4568  -11.2259   19.4682 C   0  0  0  0  0  0  0  0  0  0  0  0
    7.3909  -12.6256   18.9824 C   0  0  0  0  0  0  0  0  0  0  0  0
    7.8903  -13.6958   19.8703 C   0  0  2  0  0  0  0  0  0  0  0  0
    9.3072  -13.3382   20.3379 C   0  0  0  0  0  0  0  0  0  0  0  0
    7.7743  -15.1040   19.4693 C   0  0  2  0  0  0  0  0  0  0  0  0
    6.3672  -15.3011   19.0580 N   0  0  0  0  0  0  0  0  0  0  0  0
    8.2194  -16.1618   20.3555 C   0  0  0  0  0  0  0  0  0  0  0  0
    7.5210  -16.5364   21.3612 O   0  0  0  0  0  0  0  0  0  0  0  0
    9.4322  -16.8844   20.2265 N   0  0  0  0  0  0  0  0  0  0  0  0
    9.9375  -17.8215   21.2463 C   0  0  1  0  0  0  0  0  0  0  0  0
   10.9320  -18.6453   20.5048 C   0  0  0  0  0  0  0  0  0  0  0  0
   10.4692  -19.4012   19.3207 C   0  0  0  0  0  0  0  0  0  0  0  0
   11.7321  -20.0924   18.7671 C   0  0  0  0  0  0  0  0  0  0  0  0
   11.3985  -20.9189   17.5528 C   0  0  0  0  0  0  0  0  0  0  0  0
   12.6362  -21.5016   17.0604 N   0  0  0  0  0  0  0  0  0  0  0  0
   10.4067  -17.1176   22.4269 C   0  0  0  0  0  0  0  0  0  0  0  0
   11.0256  -16.0191   22.3358 O   0  0  0  0  0  0  0  0  0  0  0  0
   10.5794  -14.1109   30.6409 O   0  0  0  0  0  0  0  0  0  0  0  0
   10.2682  -14.6229   29.3889 C   0  0  0  0  0  0  0  0  0  0  0  0
   10.1037  -15.9832   29.2816 C   0  0  0  0  0  0  0  0  0  0  0  0
    9.7944  -16.5080   28.0460 C   0  0  0  0  0  0  0  0  0  0  0  0
    9.6464  -15.7185   26.9247 C   0  0  0  0  0  0  0  0  0  0  0  0
    9.3273  -16.3490   25.6281 C   0  0  0  0  0  0  0  0  0  0  0  0
   10.5697  -16.8746   24.9224 C   0  0  2  0  0  0  0  0  0  0  0  0
   10.1912  -17.6231   23.7311 N   0  0  0  0  0  0  0  0  0  0  0  0
   11.4519  -17.6594   25.7783 C   0  0  0  0  0  0  0  0  0  0  0  0
   11.0798  -18.9247   26.1855 O   0  0  0  0  0  0  0  0  0  0  0  0
    9.8193  -14.3714   27.0798 C   0  0  0  0  0  0  0  0  0  0  0  0
   10.1325  -13.7958   28.3086 C   0  0  0  0  0  0  0  0  0  0  0  0
   12.5535  -17.1794   26.1449 O   0  0  0  0  0  0  0  0  0  0  0  0
  2  1  1  0
  3  2  1  0
  3  5  1  0
  3  4  1  6
  5  6  1  1
  7  5  1  0
  8  7  2  0
  9  7  1  0
 10 16  1  0
 10  9  1  0
 10 11  1  6
 12 11  1  0
 13 12  1  0
 13 14  1  0
 14 15  1  0
 16 17  2  0
 18 19  1  0
 19 20  2  0
 19 29  1  0
 20 21  1  0
 21 22  2  0
 22 23  1  0
 24 23  1  1
 25 16  1  0
 25 24  1  0
 26 27  1  0
 26 24  1  0
 28 22  1  0
 29 28  2  0
 30 26  2  0
M  END
$$$$
