HPC.pdb
     RDKit          3D

 24 25  0  0  1  0  0  0  0  0999 V2000
   21.6696  -12.4590  -18.4313 N   0  0  0  0  0  0  0  0  0  0  0  0
   20.6979  -11.4150  -18.2032 C   0  0  1  0  0  0  0  0  0  0  0  0
   19.9486  -11.7549  -16.9184 C   0  0  0  0  0  0  0  0  0  0  0  0
   19.1679  -13.0014  -17.0635 C   0  0  0  0  0  0  0  0  0  0  0  0
   17.8823  -13.0649  -17.5305 C   0  0  0  0  0  0  0  0  0  0  0  0
   17.5347  -14.3604  -17.5095 N   0  0  0  0  0  0  0  0  0  0  0  0
   18.5691  -15.0770  -17.0454 C   0  0  0  0  0  0  0  0  0  0  0  0
   19.5655  -14.2366  -16.7746 N   0  0  0  0  0  0  0  0  0  0  0  0
   21.3176  -10.0846  -17.9715 C   0  0  0  0  0  0  0  0  0  0  0  0
   22.2865  -10.0525  -17.1764 O   0  0  0  0  0  0  0  0  0  0  0  0
   20.8944   -8.8774  -18.5769 N   0  0  0  0  0  0  0  0  0  0  0  0
   19.8297   -8.7907  -19.5242 C   0  0  0  0  0  0  0  0  0  0  0  0
   19.6237   -7.3378  -19.8598 C   0  0  0  0  0  0  0  0  0  0  0  0
   20.9505   -6.7306  -19.4494 C   0  0  0  0  0  0  0  0  0  0  0  0
   21.4568   -7.5905  -18.3379 C   0  0  1  0  0  0  0  0  0  0  0  0
   21.1098   -7.0430  -17.0010 C   0  0  0  0  0  0  0  0  0  0  0  0
   19.9629   -7.3002  -16.5568 O   0  0  0  0  0  0  0  0  0  0  0  0
   22.0359   -6.2761  -16.2838 N   0  0  0  0  0  0  0  0  0  0  0  0
   21.7545   -5.7699  -14.9699 C   0  0  1  0  0  0  0  0  0  0  0  0
   22.3101   -6.6576  -13.8804 C   0  0  0  0  0  0  0  0  0  0  0  0
   22.1011   -5.9146  -12.2372 S   0  0  0  0  0  0  0  0  0  0  0  0
   22.3020   -4.4157  -14.7683 C   0  0  0  0  0  0  0  0  0  0  0  0
   21.5676   -3.4660  -14.1004 O   0  0  0  0  0  0  0  0  0  0  0  0
   23.4340   -4.1329  -15.2053 O   0  0  0  0  0  0  0  0  0  0  0  0
  2  1  1  1
  3  2  1  0
  4  3  1  0
  5  4  2  0
  6  5  1  0
  7  6  1  0
  7  8  2  0
  8  4  1  0
  9 10  2  0
  9  2  1  0
 11  9  1  0
 12 11  1  0
 13 12  1  0
 14 13  1  0
 14 15  1  0
 15 11  1  0
 16 17  2  0
 15 16  1  1
 18 16  1  0
 19 20  1  1
 19 18  1  0
 20 21  1  0
 22 19  1  0
 23 22  1  0
 24 22  2  0
M  END
$$$$
