HPC.pdb
     RDKit          3D

 24 25  0  0  1  0  0  0  0  0999 V2000
   23.0302  -17.8290  -18.4903 N   0  0  0  0  0  0  0  0  0  0  0  0
   23.9494  -17.1949  -17.5743 C   0  0  1  0  0  0  0  0  0  0  0  0
   23.1530  -16.1979  -16.7380 C   0  0  0  0  0  0  0  0  0  0  0  0
   21.7297  -16.5861  -16.6475 C   0  0  0  0  0  0  0  0  0  0  0  0
   20.8568  -16.5958  -17.7024 C   0  0  0  0  0  0  0  0  0  0  0  0
   19.6756  -17.0024  -17.2136 N   0  0  0  0  0  0  0  0  0  0  0  0
   19.8103  -17.2371  -15.8999 C   0  0  0  0  0  0  0  0  0  0  0  0
   21.0719  -16.9795  -15.5614 N   0  0  0  0  0  0  0  0  0  0  0  0
   24.5533  -18.1459  -16.6054 C   0  0  0  0  0  0  0  0  0  0  0  0
   23.7959  -19.0375  -16.1545 O   0  0  0  0  0  0  0  0  0  0  0  0
   25.8988  -18.1113  -16.1680 N   0  0  0  0  0  0  0  0  0  0  0  0
   26.8311  -17.0943  -16.5355 C   0  0  0  0  0  0  0  0  0  0  0  0
   28.1176  -17.3554  -15.7989 C   0  0  0  0  0  0  0  0  0  0  0  0
   27.9826  -18.8226  -15.4435 C   0  0  0  0  0  0  0  0  0  0  0  0
   26.5152  -19.0684  -15.3116 C   0  0  1  0  0  0  0  0  0  0  0  0
   26.0534  -18.9714  -13.9028 C   0  0  0  0  0  0  0  0  0  0  0  0
   25.8879  -17.8181  -13.4324 O   0  0  0  0  0  0  0  0  0  0  0  0
   25.8187  -20.1280  -13.1495 N   0  0  0  0  0  0  0  0  0  0  0  0
   25.9817  -20.1572  -11.7232 C   0  0  1  0  0  0  0  0  0  0  0  0
   24.6773  -20.4011  -11.0001 C   0  0  0  0  0  0  0  0  0  0  0  0
   24.8007  -19.9912   -9.2360 S   0  0  0  0  0  0  0  0  0  0  0  0
   26.9338  -21.1986  -11.2950 C   0  0  0  0  0  0  0  0  0  0  0  0
   27.3267  -21.2771   -9.9810 O   0  0  0  0  0  0  0  0  0  0  0  0
   27.3827  -22.0090  -12.1280 O   0  0  0  0  0  0  0  0  0  0  0  0
  2  1  1  6
  3  2  1  0
  4  3  1  0
  5  4  2  0
  6  5  1  0
  7  6  1  0
  7  8  2  0
  8  4  1  0
  9 10  2  0
  9  2  1  0
 11  9  1  0
 12 11  1  0
 13 12  1  0
 14 13  1  0
 14 15  1  0
 15 11  1  0
 16 17  2  0
 15 16  1  1
 18 16  1  0
 19 20  1  1
 19 18  1  0
 20 21  1  0
 22 19  1  0
 23 22  1  0
 24 22  2  0
M  END
$$$$
