HPC.pdb
     RDKit          3D

 24 25  0  0  1  0  0  0  0  0999 V2000
   23.0283  -20.5758  -16.9958 N   0  0  0  0  0  0  0  0  0  0  0  0
   23.8978  -19.6346  -16.3292 C   0  0  1  0  0  0  0  0  0  0  0  0
   23.0169  -18.5631  -15.6937 C   0  0  0  0  0  0  0  0  0  0  0  0
   22.3772  -17.7131  -16.7197 C   0  0  0  0  0  0  0  0  0  0  0  0
   22.9914  -16.6703  -17.3602 C   0  0  0  0  0  0  0  0  0  0  0  0
   22.0854  -16.1588  -18.2071 N   0  0  0  0  0  0  0  0  0  0  0  0
   20.9474  -16.8600  -18.0963 C   0  0  0  0  0  0  0  0  0  0  0  0
   21.1349  -17.8103  -17.1828 N   0  0  0  0  0  0  0  0  0  0  0  0
   24.6659  -20.2431  -15.2122 C   0  0  0  0  0  0  0  0  0  0  0  0
   24.0531  -21.0773  -14.5046 O   0  0  0  0  0  0  0  0  0  0  0  0
   26.0150  -19.9486  -14.9020 N   0  0  0  0  0  0  0  0  0  0  0  0
   26.8551  -19.1188  -15.7046 C   0  0  0  0  0  0  0  0  0  0  0  0
   28.1761  -18.9733  -14.9976 C   0  0  0  0  0  0  0  0  0  0  0  0
   28.1655  -20.1683  -14.0653 C   0  0  0  0  0  0  0  0  0  0  0  0
   26.7256  -20.4273  -13.7639 C   0  0  1  0  0  0  0  0  0  0  0  0
   26.2927  -19.7861  -12.4955 C   0  0  0  0  0  0  0  0  0  0  0  0
   25.8678  -18.6058  -12.5663 O   0  0  0  0  0  0  0  0  0  0  0  0
   26.3636  -20.4850  -11.2844 N   0  0  0  0  0  0  0  0  0  0  0  0
   25.8734  -19.9321  -10.0533 C   0  0  1  0  0  0  0  0  0  0  0  0
   24.3836  -19.6809  -10.0885 C   0  0  0  0  0  0  0  0  0  0  0  0
   23.4711  -21.1360  -10.6765 S   0  0  0  0  0  0  0  0  0  0  0  0
   26.1537  -20.8087   -8.9012 C   0  0  0  0  0  0  0  0  0  0  0  0
   26.6980  -22.0547   -9.0976 O   0  0  0  0  0  0  0  0  0  0  0  0
   25.8957  -20.4176   -7.7468 O   0  0  0  0  0  0  0  0  0  0  0  0
  2  1  1  1
  3  2  1  0
  4  3  1  0
  5  4  2  0
  6  5  1  0
  7  6  1  0
  7  8  2  0
  8  4  1  0
  9 10  2  0
  9  2  1  0
 11  9  1  0
 12 11  1  0
 13 12  1  0
 14 13  1  0
 14 15  1  0
 15 11  1  0
 16 17  2  0
 15 16  1  1
 18 16  1  0
 19 20  1  6
 19 18  1  0
 20 21  1  0
 22 19  1  0
 23 22  1  0
 24 22  2  0
M  END
$$$$
