HPC.pdb
     RDKit          3D

 24 25  0  0  1  0  0  0  0  0999 V2000
   16.7337  -18.2443  -17.1467 N   0  0  0  0  0  0  0  0  0  0  0  0
   16.8958  -17.9323  -15.7458 C   0  0  1  0  0  0  0  0  0  0  0  0
   18.3433  -17.4988  -15.5343 C   0  0  0  0  0  0  0  0  0  0  0  0
   19.2874  -18.5745  -15.9031 C   0  0  0  0  0  0  0  0  0  0  0  0
   19.4907  -19.7157  -15.1741 C   0  0  0  0  0  0  0  0  0  0  0  0
   20.4145  -20.4288  -15.8356 N   0  0  0  0  0  0  0  0  0  0  0  0
   20.7728  -19.7536  -16.9377 C   0  0  0  0  0  0  0  0  0  0  0  0
   20.0775  -18.6187  -16.9712 N   0  0  0  0  0  0  0  0  0  0  0  0
   16.0604  -16.7853  -15.3052 C   0  0  0  0  0  0  0  0  0  0  0  0
   16.1229  -15.7486  -16.0077 O   0  0  0  0  0  0  0  0  0  0  0  0
   15.2171  -16.7869  -14.1687 N   0  0  0  0  0  0  0  0  0  0  0  0
   15.0836  -17.8932  -13.2761 C   0  0  0  0  0  0  0  0  0  0  0  0
   14.1751  -17.4752  -12.1509 C   0  0  0  0  0  0  0  0  0  0  0  0
   13.4398  -16.2994  -12.7627 C   0  0  0  0  0  0  0  0  0  0  0  0
   14.3886  -15.7055  -13.7518 C   0  0  1  0  0  0  0  0  0  0  0  0
   15.1577  -14.5698  -13.1809 C   0  0  0  0  0  0  0  0  0  0  0  0
   16.2656  -14.8367  -12.6516 O   0  0  0  0  0  0  0  0  0  0  0  0
   14.6513  -13.2658  -13.2409 N   0  0  0  0  0  0  0  0  0  0  0  0
   15.4075  -12.1310  -12.7913 C   0  0  1  0  0  0  0  0  0  0  0  0
   15.4440  -11.0214  -13.8167 C   0  0  0  0  0  0  0  0  0  0  0  0
   16.2700   -9.5388  -13.1723 S   0  0  0  0  0  0  0  0  0  0  0  0
   14.8703  -11.5675  -11.5391 C   0  0  0  0  0  0  0  0  0  0  0  0
   15.7212  -11.0413  -10.5975 O   0  0  0  0  0  0  0  0  0  0  0  0
   13.6412  -11.5690  -11.3352 O   0  0  0  0  0  0  0  0  0  0  0  0
  2  1  1  6
  3  2  1  0
  4  3  1  0
  5  4  2  0
  6  5  1  0
  7  6  1  0
  7  8  2  0
  8  4  1  0
  9 10  2  0
  9  2  1  0
 11  9  1  0
 12 11  1  0
 13 12  1  0
 14 13  1  0
 14 15  1  0
 15 11  1  0
 16 17  2  0
 15 16  1  1
 18 16  1  0
 19 20  1  6
 19 18  1  0
 20 21  1  0
 22 19  1  0
 23 22  1  0
 24 22  2  0
M  END
$$$$
