HPC.pdb
     RDKit          3D

 24 25  0  0  1  0  0  0  0  0999 V2000
   14.1287  -21.1454   -8.7259 N   0  0  0  0  0  0  0  0  0  0  0  0
   13.5391  -22.1304   -7.8493 C   0  0  1  0  0  0  0  0  0  0  0  0
   13.2136  -23.3608   -8.6907 C   0  0  0  0  0  0  0  0  0  0  0  0
   12.0982  -23.0960   -9.6235 C   0  0  0  0  0  0  0  0  0  0  0  0
   10.7747  -23.2876   -9.3290 C   0  0  0  0  0  0  0  0  0  0  0  0
   10.0873  -22.9366  -10.4261 N   0  0  0  0  0  0  0  0  0  0  0  0
   10.9541  -22.5405  -11.3699 C   0  0  0  0  0  0  0  0  0  0  0  0
   12.1839  -22.6413  -10.8698 N   0  0  0  0  0  0  0  0  0  0  0  0
   14.4707  -22.5981   -6.7904 C   0  0  0  0  0  0  0  0  0  0  0  0
   15.6747  -22.7153   -7.1200 O   0  0  0  0  0  0  0  0  0  0  0  0
   14.0952  -22.9130   -5.4626 N   0  0  0  0  0  0  0  0  0  0  0  0
   12.7513  -22.8706   -4.9824 C   0  0  0  0  0  0  0  0  0  0  0  0
   12.7511  -23.3599   -3.5589 C   0  0  0  0  0  0  0  0  0  0  0  0
   14.2007  -23.1657   -3.1609 C   0  0  0  0  0  0  0  0  0  0  0  0
   14.9848  -23.3116   -4.4238 C   0  0  1  0  0  0  0  0  0  0  0  0
   15.5092  -24.6900   -4.6038 C   0  0  0  0  0  0  0  0  0  0  0  0
   14.7198  -25.5460   -5.0759 O   0  0  0  0  0  0  0  0  0  0  0  0
   16.8294  -25.0003   -4.2558 N   0  0  0  0  0  0  0  0  0  0  0  0
   17.3923  -26.3024   -4.4779 C   0  0  1  0  0  0  0  0  0  0  0  0
   18.7400  -26.2379   -5.1587 C   0  0  0  0  0  0  0  0  0  0  0  0
   18.6705  -25.2736   -6.6952 S   0  0  0  0  0  0  0  0  0  0  0  0
   17.5597  -27.0559   -3.2216 C   0  0  0  0  0  0  0  0  0  0  0  0
   17.8792  -28.3916   -3.2546 O   0  0  0  0  0  0  0  0  0  0  0  0
   17.4108  -26.4788   -2.1275 O   0  0  0  0  0  0  0  0  0  0  0  0
  2  1  1  6
  3  2  1  0
  4  3  1  0
  5  4  2  0
  6  5  1  0
  7  6  1  0
  7  8  2  0
  8  4  1  0
  9 10  2  0
  9  2  1  0
 11  9  1  0
 12 11  1  0
 13 12  1  0
 14 13  1  0
 14 15  1  0
 15 11  1  0
 16 17  2  0
 15 16  1  6
 18 16  1  0
 19 20  1  1
 19 18  1  0
 20 21  1  0
 22 19  1  0
 23 22  1  0
 24 22  2  0
M  END
$$$$
