HPC.pdb
     RDKit          3D

 24 25  0  0  1  0  0  0  0  0999 V2000
    8.4072  -12.5471   -0.9438 N   0  0  0  0  0  0  0  0  0  0  0  0
    8.5123  -12.1469    0.4400 C   0  0  1  0  0  0  0  0  0  0  0  0
    7.4935  -12.9592    1.2337 C   0  0  0  0  0  0  0  0  0  0  0  0
    6.1114  -12.6542    0.8078 C   0  0  0  0  0  0  0  0  0  0  0  0
    5.4837  -11.4531    1.0031 C   0  0  0  0  0  0  0  0  0  0  0  0
    4.2547  -11.5779    0.4801 N   0  0  0  0  0  0  0  0  0  0  0  0
    4.1236  -12.8144   -0.0228 C   0  0  0  0  0  0  0  0  0  0  0  0
    5.2658  -13.4670    0.1823 N   0  0  0  0  0  0  0  0  0  0  0  0
    9.8359  -12.4616    1.0373 C   0  0  0  0  0  0  0  0  0  0  0  0
   10.4514  -13.4366    0.5448 O   0  0  0  0  0  0  0  0  0  0  0  0
   10.4340  -11.7476    2.1030 N   0  0  0  0  0  0  0  0  0  0  0  0
    9.8179  -10.6458    2.7699 C   0  0  0  0  0  0  0  0  0  0  0  0
   10.7209  -10.2211    3.8969 C   0  0  0  0  0  0  0  0  0  0  0  0
   12.0527  -10.8034    3.4672 C   0  0  0  0  0  0  0  0  0  0  0  0
   11.7175  -12.0149    2.6603 C   0  0  1  0  0  0  0  0  0  0  0  0
   11.7519  -13.2584    3.4725 C   0  0  0  0  0  0  0  0  0  0  0  0
   10.6494  -13.7994    3.7385 O   0  0  0  0  0  0  0  0  0  0  0  0
   12.9711  -13.7877    3.9124 N   0  0  0  0  0  0  0  0  0  0  0  0
   13.0406  -14.9448    4.7599 C   0  0  1  0  0  0  0  0  0  0  0  0
   12.9552  -16.2357    3.9788 C   0  0  0  0  0  0  0  0  0  0  0  0
   13.3498  -17.6739    5.0138 S   0  0  0  0  0  0  0  0  0  0  0  0
   14.2851  -14.9796    5.5499 C   0  0  0  0  0  0  0  0  0  0  0  0
   14.2790  -15.4873    6.8264 O   0  0  0  0  0  0  0  0  0  0  0  0
   15.3448  -14.5472    5.0575 O   0  0  0  0  0  0  0  0  0  0  0  0
  2  1  1  6
  3  2  1  0
  4  3  1  0
  5  4  2  0
  6  5  1  0
  7  6  1  0
  7  8  2  0
  8  4  1  0
  9 10  2  0
  9  2  1  0
 11  9  1  0
 12 11  1  0
 13 12  1  0
 14 13  1  0
 14 15  1  0
 15 11  1  0
 16 17  2  0
 15 16  1  1
 18 16  1  0
 19 20  1  6
 19 18  1  0
 20 21  1  0
 22 19  1  0
 23 22  1  0
 24 22  2  0
M  END
$$$$
