HPC.pdb
     RDKit          3D

 24 25  0  0  1  0  0  0  0  0999 V2000
   23.9778  -19.7575  -18.1704 N   0  0  0  0  0  0  0  0  0  0  0  0
   24.6336  -18.8968  -17.2137 C   0  0  1  0  0  0  0  0  0  0  0  0
   23.6031  -17.8853  -16.7208 C   0  0  0  0  0  0  0  0  0  0  0  0
   23.2064  -16.9524  -17.7964 C   0  0  0  0  0  0  0  0  0  0  0  0
   24.0586  -16.0895  -18.4320 C   0  0  0  0  0  0  0  0  0  0  0  0
   23.3213  -15.4232  -19.3331 N   0  0  0  0  0  0  0  0  0  0  0  0
   22.0544  -15.8575  -19.2596 C   0  0  0  0  0  0  0  0  0  0  0  0
   21.9929  -16.7943  -18.3155 N   0  0  0  0  0  0  0  0  0  0  0  0
   25.1009  -19.6220  -16.0039 C   0  0  0  0  0  0  0  0  0  0  0  0
   24.2532  -20.3406  -15.4234 O   0  0  0  0  0  0  0  0  0  0  0  0
   26.4123  -19.5556  -15.4759 N   0  0  0  0  0  0  0  0  0  0  0  0
   27.4679  -18.7892  -16.0562 C   0  0  0  0  0  0  0  0  0  0  0  0
   28.6707  -18.9007  -15.1580 C   0  0  0  0  0  0  0  0  0  0  0  0
   28.3595  -20.1593  -14.3728 C   0  0  0  0  0  0  0  0  0  0  0  0
   26.8690  -20.2316  -14.3080 C   0  0  1  0  0  0  0  0  0  0  0  0
   26.3321  -19.6491  -13.0511 C   0  0  0  0  0  0  0  0  0  0  0  0
   25.8440  -18.4932  -13.1183 O   0  0  0  0  0  0  0  0  0  0  0  0
   26.3780  -20.3741  -11.8542 N   0  0  0  0  0  0  0  0  0  0  0  0
   25.3482  -20.2718  -10.8589 C   0  0  1  0  0  0  0  0  0  0  0  0
   23.9856  -20.6363  -11.4014 C   0  0  0  0  0  0  0  0  0  0  0  0
   22.7209  -20.6301  -10.0991 S   0  0  0  0  0  0  0  0  0  0  0  0
   25.6141  -21.1371   -9.6949 C   0  0  0  0  0  0  0  0  0  0  0  0
   25.5136  -20.6319   -8.4213 O   0  0  0  0  0  0  0  0  0  0  0  0
   25.9307  -22.3296   -9.8679 O   0  0  0  0  0  0  0  0  0  0  0  0
  2  1  1  6
  3  2  1  0
  4  3  1  0
  5  4  2  0
  6  5  1  0
  7  6  1  0
  7  8  2  0
  8  4  1  0
  9 10  2  0
  9  2  1  0
 11  9  1  0
 12 11  1  0
 13 12  1  0
 14 13  1  0
 14 15  1  0
 15 11  1  0
 16 17  2  0
 15 16  1  1
 18 16  1  0
 19 20  1  6
 19 18  1  0
 20 21  1  0
 22 19  1  0
 23 22  1  0
 24 22  2  0
M  END
$$$$
