YLQ.pdb
     RDKit          3D

 30 30  0  0  1  0  0  0  0  0999 V2000
   25.2695  -15.0636  -22.1959 O   0  0  0  0  0  0  0  0  0  0  0  0
   25.4600  -15.9021  -21.0901 C   0  0  0  0  0  0  0  0  0  0  0  0
   26.0917  -15.4468  -19.9486 C   0  0  0  0  0  0  0  0  0  0  0  0
   26.2549  -16.3132  -18.8856 C   0  0  0  0  0  0  0  0  0  0  0  0
   25.8168  -17.6127  -18.9097 C   0  0  0  0  0  0  0  0  0  0  0  0
   26.0043  -18.5231  -17.7548 C   0  0  0  0  0  0  0  0  0  0  0  0
   24.6306  -18.6515  -17.0847 C   0  0  2  0  0  0  0  0  0  0  0  0
   24.3480  -17.3864  -16.4740 N   0  0  0  0  0  0  0  0  0  0  0  0
   24.6264  -19.7712  -16.1115 C   0  0  0  0  0  0  0  0  0  0  0  0
   24.8494  -20.9451  -16.4702 O   0  0  0  0  0  0  0  0  0  0  0  0
   25.1872  -18.0545  -20.0571 C   0  0  0  0  0  0  0  0  0  0  0  0
   25.0108  -17.2023  -21.1399 C   0  0  0  0  0  0  0  0  0  0  0  0
   27.7084  -20.6507  -11.6923 C   0  0  0  0  0  0  0  0  0  0  0  0
   26.6305  -21.0857  -12.6041 C   0  0  2  0  0  0  0  0  0  0  0  0
   27.2729  -21.3005  -13.9977 C   0  0  0  0  0  0  0  0  0  0  0  0
   25.4642  -20.2294  -12.8141 C   0  0  0  0  0  0  0  0  0  0  0  0
   24.3602  -20.6036  -13.7217 C   0  0  2  0  0  0  0  0  0  0  0  0
   24.3644  -19.5021  -14.7505 N   0  0  0  0  0  0  0  0  0  0  0  0
   22.9982  -20.5868  -13.2152 C   0  0  0  0  0  0  0  0  0  0  0  0
   22.7406  -20.0535  -12.1070 O   0  0  0  0  0  0  0  0  0  0  0  0
   17.2704  -19.4324  -12.9757 N   0  0  0  0  0  0  0  0  0  0  0  0
   18.2851  -18.5033  -12.6217 C   0  0  0  0  0  0  0  0  0  0  0  0
   17.9588  -17.5202  -11.9241 O   0  0  0  0  0  0  0  0  0  0  0  0
   19.6594  -18.7634  -13.1050 C   0  0  0  0  0  0  0  0  0  0  0  0
   19.7952  -19.9653  -13.9862 C   0  0  0  0  0  0  0  0  0  0  0  0
   20.5672  -21.0993  -13.3259 C   0  0  2  0  0  0  0  0  0  0  0  0
   21.9151  -21.1422  -13.9240 N   0  0  0  0  0  0  0  0  0  0  0  0
   19.8548  -22.3565  -13.5283 C   0  0  0  0  0  0  0  0  0  0  0  0
   18.6659  -22.6729  -12.8672 O   0  0  0  0  0  0  0  0  0  0  0  0
   20.2686  -23.2442  -14.3146 O   0  0  0  0  0  0  0  0  0  0  0  0
  2  1  1  0
  3  2  2  0
  4  3  1  0
  5  4  2  0
  5 11  1  0
  6  7  1  0
  6  5  1  0
  7  9  1  0
  7  8  1  1
  9 10  2  0
 11 12  2  0
 12  2  1  0
 14 13  1  1
 15 14  1  0
 16 14  1  0
 17 16  1  1
 18 17  1  0
 18  9  1  0
 19 17  1  0
 19 20  2  0
 21 22  1  0
 22 24  1  0
 23 22  2  0
 24 25  1  0
 26 25  1  6
 26 28  1  0
 26 27  1  0
 27 19  1  0
 28 29  1  0
 30 28  2  0
M  END
$$$$
