YLQ.pdb
     RDKit          3D

 30 30  0  0  1  0  0  0  0  0999 V2000
   17.0019  -19.8192  -20.5619 O   0  0  0  0  0  0  0  0  0  0  0  0
   17.7342  -20.9452  -20.1646 C   0  0  0  0  0  0  0  0  0  0  0  0
   17.9501  -21.2221  -18.8282 C   0  0  0  0  0  0  0  0  0  0  0  0
   18.6788  -22.3450  -18.4886 C   0  0  0  0  0  0  0  0  0  0  0  0
   19.2018  -23.2039  -19.4214 C   0  0  0  0  0  0  0  0  0  0  0  0
   19.9808  -24.4032  -19.0308 C   0  0  0  0  0  0  0  0  0  0  0  0
   21.4062  -23.9129  -18.7469 C   0  0  2  0  0  0  0  0  0  0  0  0
   21.9762  -23.5441  -20.0088 N   0  0  0  0  0  0  0  0  0  0  0  0
   22.1900  -24.9611  -18.0485 C   0  0  0  0  0  0  0  0  0  0  0  0
   22.3740  -26.0841  -18.5595 O   0  0  0  0  0  0  0  0  0  0  0  0
   18.9782  -22.9150  -20.7536 C   0  0  0  0  0  0  0  0  0  0  0  0
   18.2483  -21.7914  -21.1208 C   0  0  0  0  0  0  0  0  0  0  0  0
   26.5387  -25.9729  -17.1985 C   0  0  0  0  0  0  0  0  0  0  0  0
   25.8756  -24.8012  -16.5902 C   0  0  2  0  0  0  0  0  0  0  0  0
   26.9651  -24.0091  -15.8243 C   0  0  0  0  0  0  0  0  0  0  0  0
   24.7699  -24.9949  -15.6534 C   0  0  0  0  0  0  0  0  0  0  0  0
   23.5348  -25.7156  -16.0244 C   0  0  2  0  0  0  0  0  0  0  0  0
   22.7391  -24.6811  -16.7783 N   0  0  0  0  0  0  0  0  0  0  0  0
   22.6262  -26.1395  -14.9726 C   0  0  0  0  0  0  0  0  0  0  0  0
   22.9979  -26.9778  -14.1135 O   0  0  0  0  0  0  0  0  0  0  0  0
   17.9117  -23.0023  -12.3191 N   0  0  0  0  0  0  0  0  0  0  0  0
   17.7876  -24.2723  -11.6950 C   0  0  0  0  0  0  0  0  0  0  0  0
   16.9307  -24.3995  -10.7955 O   0  0  0  0  0  0  0  0  0  0  0  0
   18.6835  -25.3578  -12.1526 C   0  0  0  0  0  0  0  0  0  0  0  0
   19.6510  -24.9602  -13.2228 C   0  0  0  0  0  0  0  0  0  0  0  0
   20.4542  -26.1362  -13.7613 C   0  0  2  0  0  0  0  0  0  0  0  0
   21.3149  -25.6395  -14.8516 N   0  0  0  0  0  0  0  0  0  0  0  0
   19.5429  -27.1735  -14.2330 C   0  0  0  0  0  0  0  0  0  0  0  0
   19.0861  -27.2439  -15.5509 O   0  0  0  0  0  0  0  0  0  0  0  0
   19.1044  -28.0766  -13.4783 O   0  0  0  0  0  0  0  0  0  0  0  0
  2  1  1  0
  3  2  2  0
  4  3  1  0
  5  4  2  0
  5 11  1  0
  6  7  1  0
  6  5  1  0
  7  9  1  0
  7  8  1  6
  9 10  2  0
 11 12  2  0
 12  2  1  0
 14 13  1  1
 15 14  1  0
 16 14  1  0
 17 16  1  1
 18 17  1  0
 18  9  1  0
 19 17  1  0
 19 20  2  0
 21 22  1  0
 22 24  1  0
 23 22  2  0
 24 25  1  0
 26 25  1  6
 26 28  1  0
 26 27  1  0
 27 19  1  0
 28 29  1  0
 30 28  2  0
M  END
$$$$
