YLQ.pdb
     RDKit          3D

 30 30  0  0  1  0  0  0  0  0999 V2000
   22.7586  -30.0953  -16.1627 O   0  0  0  0  0  0  0  0  0  0  0  0
   22.7883  -28.7411  -15.8058 C   0  0  0  0  0  0  0  0  0  0  0  0
   22.3789  -27.7603  -16.6889 C   0  0  0  0  0  0  0  0  0  0  0  0
   22.4275  -26.4395  -16.2887 C   0  0  0  0  0  0  0  0  0  0  0  0
   22.8658  -26.0528  -15.0478 C   0  0  0  0  0  0  0  0  0  0  0  0
   22.9083  -24.6275  -14.6421 C   0  0  0  0  0  0  0  0  0  0  0  0
   23.9051  -23.9441  -15.5867 C   0  0  2  0  0  0  0  0  0  0  0  0
   25.2143  -24.3577  -15.1766 N   0  0  0  0  0  0  0  0  0  0  0  0
   23.7324  -22.4711  -15.5518 C   0  0  0  0  0  0  0  0  0  0  0  0
   24.1461  -21.7905  -14.5916 O   0  0  0  0  0  0  0  0  0  0  0  0
   23.2720  -27.0436  -14.1752 C   0  0  0  0  0  0  0  0  0  0  0  0
   23.2326  -28.3795  -14.5542 C   0  0  0  0  0  0  0  0  0  0  0  0
   23.1828  -18.3616  -20.0395 C   0  0  0  0  0  0  0  0  0  0  0  0
   23.0886  -18.6236  -18.5886 C   0  0  2  0  0  0  0  0  0  0  0  0
   24.3036  -17.9308  -17.9217 C   0  0  0  0  0  0  0  0  0  0  0  0
   23.0763  -20.0003  -18.0963 C   0  0  0  0  0  0  0  0  0  0  0  0
   22.9295  -20.3274  -16.6631 C   0  0  2  0  0  0  0  0  0  0  0  0
   23.0859  -21.8261  -16.6286 N   0  0  0  0  0  0  0  0  0  0  0  0
   21.6448  -20.1074  -16.0206 C   0  0  0  0  0  0  0  0  0  0  0  0
   20.6607  -20.8348  -16.3057 O   0  0  0  0  0  0  0  0  0  0  0  0
   21.6419  -20.8319  -12.2490 N   0  0  0  0  0  0  0  0  0  0  0  0
   20.3304  -20.6899  -11.7220 C   0  0  0  0  0  0  0  0  0  0  0  0
   19.8807  -21.6179  -11.0175 O   0  0  0  0  0  0  0  0  0  0  0  0
   19.5859  -19.4524  -12.0451 C   0  0  0  0  0  0  0  0  0  0  0  0
   20.2824  -18.5355  -13.0011 C   0  0  0  0  0  0  0  0  0  0  0  0
   20.0993  -18.9469  -14.4555 C   0  0  2  0  0  0  0  0  0  0  0  0
   21.4373  -19.1004  -15.0578 N   0  0  0  0  0  0  0  0  0  0  0  0
   19.3145  -17.9340  -15.1534 C   0  0  0  0  0  0  0  0  0  0  0  0
   17.9246  -17.8433  -15.0505 O   0  0  0  0  0  0  0  0  0  0  0  0
   19.8413  -17.0722  -15.8999 O   0  0  0  0  0  0  0  0  0  0  0  0
  2  1  1  0
  3  2  2  0
  4  3  1  0
  5  4  2  0
  5 11  1  0
  6  7  1  0
  6  5  1  0
  7  9  1  0
  7  8  1  1
  9 10  2  0
 11 12  2  0
 12  2  1  0
 14 13  1  6
 15 14  1  0
 16 14  1  0
 17 16  1  6
 18 17  1  0
 18  9  1  0
 19 17  1  0
 19 20  2  0
 21 22  1  0
 22 24  1  0
 23 22  2  0
 24 25  1  0
 26 25  1  1
 26 28  1  0
 26 27  1  0
 27 19  1  0
 28 29  1  0
 30 28  2  0
M  END
$$$$
