YLQ.pdb
     RDKit          3D

 30 30  0  0  1  0  0  0  0  0999 V2000
   26.2844  -21.0582  -25.4157 O   0  0  0  0  0  0  0  0  0  0  0  0
   25.7210  -20.8803  -24.1457 C   0  0  0  0  0  0  0  0  0  0  0  0
   25.6907  -19.6361  -23.5454 C   0  0  0  0  0  0  0  0  0  0  0  0
   25.1240  -19.5135  -22.2920 C   0  0  0  0  0  0  0  0  0  0  0  0
   24.5863  -20.5755  -21.6105 C   0  0  0  0  0  0  0  0  0  0  0  0
   23.9834  -20.4175  -20.2654 C   0  0  0  0  0  0  0  0  0  0  0  0
   25.1499  -20.1688  -19.3010 C   0  0  2  0  0  0  0  0  0  0  0  0
   25.8890  -21.3937  -19.2205 N   0  0  0  0  0  0  0  0  0  0  0  0
   24.6486  -19.7141  -17.9808 C   0  0  0  0  0  0  0  0  0  0  0  0
   24.4975  -20.5112  -17.0331 O   0  0  0  0  0  0  0  0  0  0  0  0
   24.6234  -21.8133  -22.2224 C   0  0  0  0  0  0  0  0  0  0  0  0
   25.1880  -21.9626  -23.4829 C   0  0  0  0  0  0  0  0  0  0  0  0
   26.4563  -14.8851  -15.8660 C   0  0  0  0  0  0  0  0  0  0  0  0
   25.6781  -16.1081  -15.5806 C   0  0  2  0  0  0  0  0  0  0  0  0
   26.6631  -17.3018  -15.6561 C   0  0  0  0  0  0  0  0  0  0  0  0
   24.5374  -16.4593  -16.4252 C   0  0  0  0  0  0  0  0  0  0  0  0
   23.9497  -17.8146  -16.4385 C   0  0  2  0  0  0  0  0  0  0  0  0
   24.3359  -18.3501  -17.7935 N   0  0  0  0  0  0  0  0  0  0  0  0
   22.5032  -17.9531  -16.4209 C   0  0  0  0  0  0  0  0  0  0  0  0
   21.8627  -18.0511  -17.4975 O   0  0  0  0  0  0  0  0  0  0  0  0
   19.7042  -22.3546  -16.5290 N   0  0  0  0  0  0  0  0  0  0  0  0
   18.5511  -21.6118  -16.1593 C   0  0  0  0  0  0  0  0  0  0  0  0
   17.4490  -22.1989  -16.1739 O   0  0  0  0  0  0  0  0  0  0  0  0
   18.7347  -20.1922  -15.7835 C   0  0  0  0  0  0  0  0  0  0  0  0
   20.1512  -19.7117  -15.8294 C   0  0  0  0  0  0  0  0  0  0  0  0
   20.3138  -18.2963  -15.2925 C   0  0  2  0  0  0  0  0  0  0  0  0
   21.7567  -17.9963  -15.2272 N   0  0  0  0  0  0  0  0  0  0  0  0
   19.6899  -18.1993  -13.9771 C   0  0  0  0  0  0  0  0  0  0  0  0
   18.3071  -18.2420  -13.7852 O   0  0  0  0  0  0  0  0  0  0  0  0
   20.3606  -18.0676  -12.9234 O   0  0  0  0  0  0  0  0  0  0  0  0
  2  1  1  0
  3  2  2  0
  4  3  1  0
  5  4  2  0
  5 11  1  0
  6  7  1  0
  6  5  1  0
  7  9  1  0
  7  8  1  1
  9 10  2  0
 11 12  2  0
 12  2  1  0
 14 13  1  6
 15 14  1  0
 16 14  1  0
 17 16  1  6
 18 17  1  0
 18  9  1  0
 19 17  1  0
 19 20  2  0
 21 22  1  0
 22 24  1  0
 23 22  2  0
 24 25  1  0
 26 25  1  1
 26 28  1  0
 26 27  1  0
 27 19  1  0
 28 29  1  0
 30 28  2  0
M  END
$$$$
