YLQ.pdb
     RDKit          3D

 30 30  0  0  1  0  0  0  0  0999 V2000
   19.7576  -36.8048   -2.8190 O   0  0  0  0  0  0  0  0  0  0  0  0
   19.2928  -35.4960   -3.0004 C   0  0  0  0  0  0  0  0  0  0  0  0
   18.0254  -35.2496   -3.4927 C   0  0  0  0  0  0  0  0  0  0  0  0
   17.6145  -33.9409   -3.6531 C   0  0  0  0  0  0  0  0  0  0  0  0
   18.4104  -32.8672   -3.3447 C   0  0  0  0  0  0  0  0  0  0  0  0
   17.9455  -31.4712   -3.5261 C   0  0  0  0  0  0  0  0  0  0  0  0
   17.9556  -30.8330   -2.1312 C   0  0  2  0  0  0  0  0  0  0  0  0
   16.9030  -31.4549   -1.3838 N   0  0  0  0  0  0  0  0  0  0  0  0
   17.7969  -29.3612   -2.2288 C   0  0  0  0  0  0  0  0  0  0  0  0
   16.7462  -28.8480   -2.6632 O   0  0  0  0  0  0  0  0  0  0  0  0
   19.6748  -33.1281   -2.8536 C   0  0  0  0  0  0  0  0  0  0  0  0
   20.1114  -34.4358   -2.6832 C   0  0  0  0  0  0  0  0  0  0  0  0
   20.5609  -25.6988    1.2798 C   0  0  0  0  0  0  0  0  0  0  0  0
   19.4768  -26.1253    0.3714 C   0  0  2  0  0  0  0  0  0  0  0  0
   18.7679  -27.3285    1.0428 C   0  0  0  0  0  0  0  0  0  0  0  0
   19.7922  -26.5410   -0.9944 C   0  0  0  0  0  0  0  0  0  0  0  0
   18.7592  -27.0242   -1.9336 C   0  0  2  0  0  0  0  0  0  0  0  0
   18.8581  -28.5240   -1.8211 N   0  0  0  0  0  0  0  0  0  0  0  0
   18.9335  -26.7804   -3.3556 C   0  0  0  0  0  0  0  0  0  0  0  0
   19.8003  -27.4163   -4.0061 O   0  0  0  0  0  0  0  0  0  0  0  0
   16.8961  -29.5351   -7.0333 N   0  0  0  0  0  0  0  0  0  0  0  0
   15.9229  -28.6324   -6.5276 C   0  0  0  0  0  0  0  0  0  0  0  0
   14.7374  -29.0216   -6.4744 O   0  0  0  0  0  0  0  0  0  0  0  0
   16.3802  -27.2916   -6.0995 C   0  0  0  0  0  0  0  0  0  0  0  0
   17.8639  -27.0981   -6.1297 C   0  0  0  0  0  0  0  0  0  0  0  0
   18.2993  -25.7656   -5.5356 C   0  0  2  0  0  0  0  0  0  0  0  0
   18.1535  -25.8503   -4.0701 N   0  0  0  0  0  0  0  0  0  0  0  0
   17.4801  -24.6935   -6.0910 C   0  0  0  0  0  0  0  0  0  0  0  0
   17.5522  -24.2945   -7.4275 O   0  0  0  0  0  0  0  0  0  0  0  0
   16.6518  -24.0527   -5.3976 O   0  0  0  0  0  0  0  0  0  0  0  0
  2  1  1  0
  3  2  2  0
  4  3  1  0
  5  4  2  0
  5 11  1  0
  6  7  1  0
  6  5  1  0
  7  9  1  0
  7  8  1  1
  9 10  2  0
 11 12  2  0
 12  2  1  0
 14 13  1  1
 15 14  1  0
 16 14  1  0
 17 16  1  1
 18 17  1  0
 18  9  1  0
 19 17  1  0
 19 20  2  0
 21 22  1  0
 22 24  1  0
 23 22  2  0
 24 25  1  0
 26 25  1  6
 26 28  1  0
 26 27  1  0
 27 19  1  0
 28 29  1  0
 30 28  2  0
M  END
$$$$
