FYD.pdb
     RDKit          3D

 32 33  0  0  1  0  0  0  0  0999 V2000
    8.8150  -16.8746   26.5574 N   0  0  0  0  0  0  0  0  0  0  0  0
    7.4731  -16.9733   26.0833 C   0  0  1  0  0  0  0  0  0  0  0  0
    6.5414  -16.2981   27.0520 C   0  0  0  0  0  0  0  0  0  0  0  0
    6.9967  -14.8796   27.1630 C   0  0  0  0  0  0  0  0  0  0  0  0
    6.3796  -13.8671   26.4474 C   0  0  0  0  0  0  0  0  0  0  0  0
    6.7824  -12.5511   26.5334 C   0  0  0  0  0  0  0  0  0  0  0  0
    7.8335  -12.1915   27.3506 C   0  0  0  0  0  0  0  0  0  0  0  0
    8.4528  -13.1930   28.0660 C   0  0  0  0  0  0  0  0  0  0  0  0
    8.0480  -14.5160   27.9797 C   0  0  0  0  0  0  0  0  0  0  0  0
    7.3662  -16.3948   24.7038 C   0  0  0  0  0  0  0  0  0  0  0  0
    6.3182  -16.6246   24.0746 O   0  0  0  0  0  0  0  0  0  0  0  0
    7.8025  -12.7395   16.9379 O   0  0  0  0  0  0  0  0  0  0  0  0
    7.9972  -13.0030   18.2943 C   0  0  0  0  0  0  0  0  0  0  0  0
    6.9487  -13.4603   19.0539 C   0  0  0  0  0  0  0  0  0  0  0  0
    7.0938  -13.7346   20.3997 C   0  0  0  0  0  0  0  0  0  0  0  0
    8.3317  -13.5420   20.9953 C   0  0  0  0  0  0  0  0  0  0  0  0
    8.4866  -13.8382   22.4436 C   0  0  0  0  0  0  0  0  0  0  0  0
    8.4452  -15.2931   22.7486 C   0  0  2  0  0  0  0  0  0  0  0  0
    8.3965  -15.6260   24.1367 N   0  0  0  0  0  0  0  0  0  0  0  0
    9.3875  -16.1178   21.9354 C   0  0  0  0  0  0  0  0  0  0  0  0
    9.0032  -16.9768   21.1062 O   0  0  0  0  0  0  0  0  0  0  0  0
    9.3958  -13.0779   20.2247 C   0  0  0  0  0  0  0  0  0  0  0  0
    9.2422  -12.8063   18.8805 C   0  0  0  0  0  0  0  0  0  0  0  0
   10.7975  -15.9735   22.0574 N   0  0  0  0  0  0  0  0  0  0  0  0
   11.7392  -17.0124   21.6883 C   0  0  1  0  0  0  0  0  0  0  0  0
   12.9229  -16.4616   20.9369 C   0  0  0  0  0  0  0  0  0  0  0  0
   13.4641  -15.2576   21.5993 C   0  0  0  0  0  0  0  0  0  0  0  0
   13.0410  -14.7696   22.6765 O   0  0  0  0  0  0  0  0  0  0  0  0
   12.0812  -17.7742   22.8961 C   0  0  0  0  0  0  0  0  0  0  0  0
   11.6510  -19.0707   23.0475 O   0  0  0  0  0  0  0  0  0  0  0  0
   14.5271  -14.5903   21.0059 O   0  0  0  0  0  0  0  0  0  0  0  0
   12.7651  -17.2490   23.7932 O   0  0  0  0  0  0  0  0  0  0  0  0
  2  1  1  1
  2  3  1  0
  3  4  1  0
  4  5  2  0
  5  6  1  0
  7  6  2  0
  8  7  1  0
  9  8  2  0
  9  4  1  0
 10  2  1  0
 11 10  2  0
 13 23  2  0
 13 12  1  0
 14 13  1  0
 15 16  1  0
 15 14  2  0
 16 22  2  0
 17 16  1  0
 18 19  1  0
 18 17  1  1
 19 10  1  0
 20 18  1  0
 21 20  2  0
 22 23  1  0
 24 20  1  0
 25 29  1  0
 25 24  1  0
 26 27  1  0
 25 26  1  1
 27 28  2  0
 29 30  1  0
 31 27  1  0
 32 29  2  0
M  END
$$$$
