FYD.pdb
     RDKit          3D

 32 33  0  0  1  0  0  0  0  0999 V2000
    6.9987  -18.7669   27.2753 N   0  0  0  0  0  0  0  0  0  0  0  0
    7.5532  -17.4769   27.0230 C   0  0  1  0  0  0  0  0  0  0  0  0
    8.9120  -17.3748   27.6598 C   0  0  0  0  0  0  0  0  0  0  0  0
    9.0878  -15.9471   28.0629 C   0  0  0  0  0  0  0  0  0  0  0  0
    8.6976  -14.9108   27.2311 C   0  0  0  0  0  0  0  0  0  0  0  0
    8.8501  -13.5858   27.5813 C   0  0  0  0  0  0  0  0  0  0  0  0
    9.4069  -13.2410   28.7949 C   0  0  0  0  0  0  0  0  0  0  0  0
    9.7976  -14.2661   29.6284 C   0  0  0  0  0  0  0  0  0  0  0  0
    9.6444  -15.5983   29.2765 C   0  0  0  0  0  0  0  0  0  0  0  0
    7.6022  -17.2125   25.5476 C   0  0  0  0  0  0  0  0  0  0  0  0
    7.8552  -18.1803   24.8084 O   0  0  0  0  0  0  0  0  0  0  0  0
    8.0219  -13.1583   17.7445 O   0  0  0  0  0  0  0  0  0  0  0  0
    7.8301  -13.4348   19.0988 C   0  0  0  0  0  0  0  0  0  0  0  0
    8.5656  -12.7581   20.0402 C   0  0  0  0  0  0  0  0  0  0  0  0
    8.4103  -12.9978   21.3914 C   0  0  0  0  0  0  0  0  0  0  0  0
    7.4868  -13.9472   21.8038 C   0  0  0  0  0  0  0  0  0  0  0  0
    7.3203  -14.2038   23.2584 C   0  0  0  0  0  0  0  0  0  0  0  0
    7.5779  -15.6195   23.6338 C   0  0  2  0  0  0  0  0  0  0  0  0
    7.3743  -15.9336   25.0122 N   0  0  0  0  0  0  0  0  0  0  0  0
    8.8152  -16.1989   23.0315 C   0  0  0  0  0  0  0  0  0  0  0  0
    8.7933  -17.0414   22.1026 O   0  0  0  0  0  0  0  0  0  0  0  0
    6.7402  -14.6342   20.8487 C   0  0  0  0  0  0  0  0  0  0  0  0
    6.9017  -14.3884   19.5004 C   0  0  0  0  0  0  0  0  0  0  0  0
   10.1099  -15.8218   23.4847 N   0  0  0  0  0  0  0  0  0  0  0  0
   11.3368  -16.3241   22.8975 C   0  0  1  0  0  0  0  0  0  0  0  0
   12.3442  -15.2279   22.6684 C   0  0  0  0  0  0  0  0  0  0  0  0
   13.6081  -15.7673   22.1273 C   0  0  0  0  0  0  0  0  0  0  0  0
   14.5463  -16.2441   22.8127 O   0  0  0  0  0  0  0  0  0  0  0  0
   11.8206  -17.4374   23.7237 C   0  0  0  0  0  0  0  0  0  0  0  0
   11.3910  -17.5803   25.0214 O   0  0  0  0  0  0  0  0  0  0  0  0
   13.8026  -15.7597   20.7526 O   0  0  0  0  0  0  0  0  0  0  0  0
   12.6252  -18.2613   23.2526 O   0  0  0  0  0  0  0  0  0  0  0  0
  2  1  1  6
  2  3  1  0
  3  4  1  0
  4  5  2  0
  5  6  1  0
  7  6  2  0
  8  7  1  0
  9  8  2  0
  9  4  1  0
 10  2  1  0
 11 10  2  0
 13 23  2  0
 13 12  1  0
 14 13  1  0
 15 16  1  0
 15 14  2  0
 16 22  2  0
 17 16  1  0
 18 19  1  0
 18 17  1  1
 19 10  1  0
 20 18  1  0
 21 20  2  0
 22 23  1  0
 24 20  1  0
 25 29  1  0
 25 24  1  0
 26 27  1  0
 25 26  1  1
 27 28  2  0
 29 30  1  0
 31 27  1  0
 32 29  2  0
M  END
$$$$
