FYD.pdb
     RDKit          3D

 32 33  0  0  1  0  0  0  0  0999 V2000
    8.6395  -17.5803   27.1276 N   0  0  0  0  0  0  0  0  0  0  0  0
    7.4967  -17.0899   26.4285 C   0  0  1  0  0  0  0  0  0  0  0  0
    6.9433  -15.8865   27.1412 C   0  0  0  0  0  0  0  0  0  0  0  0
    8.1161  -15.1304   27.6747 C   0  0  0  0  0  0  0  0  0  0  0  0
    8.3261  -13.8015   27.3459 C   0  0  0  0  0  0  0  0  0  0  0  0
    9.4011  -13.0834   27.8256 C   0  0  0  0  0  0  0  0  0  0  0  0
   10.3212  -13.6753   28.6652 C   0  0  0  0  0  0  0  0  0  0  0  0
   10.1195  -14.9972   28.9972 C   0  0  0  0  0  0  0  0  0  0  0  0
    9.0388  -15.7192   28.5150 C   0  0  0  0  0  0  0  0  0  0  0  0
    7.8511  -16.7859   25.0034 C   0  0  0  0  0  0  0  0  0  0  0  0
    8.1849  -17.7464   24.2871 O   0  0  0  0  0  0  0  0  0  0  0  0
    7.8353  -12.9263   17.1198 O   0  0  0  0  0  0  0  0  0  0  0  0
    7.7782  -13.1520   18.4957 C   0  0  0  0  0  0  0  0  0  0  0  0
    8.7250  -12.5891   19.3154 C   0  0  0  0  0  0  0  0  0  0  0  0
    8.7091  -12.7844   20.6825 C   0  0  0  0  0  0  0  0  0  0  0  0
    7.7096  -13.5700   21.2377 C   0  0  0  0  0  0  0  0  0  0  0  0
    7.6933  -13.7789   22.7093 C   0  0  0  0  0  0  0  0  0  0  0  0
    7.9835  -15.1835   23.1018 C   0  0  2  0  0  0  0  0  0  0  0  0
    7.8115  -15.4791   24.4885 N   0  0  0  0  0  0  0  0  0  0  0  0
    9.2194  -15.7504   22.4852 C   0  0  0  0  0  0  0  0  0  0  0  0
    9.2116  -16.4023   21.4136 O   0  0  0  0  0  0  0  0  0  0  0  0
    6.7486  -14.1414   20.4061 C   0  0  0  0  0  0  0  0  0  0  0  0
    6.7719  -13.9411   19.0410 C   0  0  0  0  0  0  0  0  0  0  0  0
   10.4967  -15.5805   23.0882 N   0  0  0  0  0  0  0  0  0  0  0  0
   11.7082  -16.1871   22.5719 C   0  0  1  0  0  0  0  0  0  0  0  0
   12.7510  -15.1580   22.2219 C   0  0  0  0  0  0  0  0  0  0  0  0
   12.9537  -15.0769   20.7613 C   0  0  0  0  0  0  0  0  0  0  0  0
   13.7814  -14.3294   20.1836 O   0  0  0  0  0  0  0  0  0  0  0  0
   12.1538  -17.2102   23.5262 C   0  0  0  0  0  0  0  0  0  0  0  0
   12.3506  -16.8913   24.8486 O   0  0  0  0  0  0  0  0  0  0  0  0
   12.1806  -15.8808   19.9345 O   0  0  0  0  0  0  0  0  0  0  0  0
   12.3565  -18.3764   23.1426 O   0  0  0  0  0  0  0  0  0  0  0  0
  2  1  1  1
  2  3  1  0
  3  4  1  0
  4  5  2  0
  5  6  1  0
  7  6  2  0
  8  7  1  0
  9  8  2  0
  9  4  1  0
 10  2  1  0
 11 10  2  0
 13 23  2  0
 13 12  1  0
 14 13  1  0
 15 16  1  0
 15 14  2  0
 16 22  2  0
 17 16  1  0
 18 19  1  0
 18 17  1  1
 19 10  1  0
 20 18  1  0
 21 20  2  0
 22 23  1  0
 24 20  1  0
 25 29  1  0
 25 24  1  0
 26 27  1  0
 25 26  1  1
 27 28  2  0
 29 30  1  0
 31 27  1  0
 32 29  2  0
M  END
$$$$
