NQA.pdb
     RDKit          3D

 23 22  0  0  1  0  0  0  0  0999 V2000
   15.1585  -10.0888  -16.5298 N   0  0  0  0  0  0  0  0  0  0  0  0
   14.1636  -10.3847  -15.5469 C   0  0  0  0  0  0  0  0  0  0  0  0
   12.9509  -10.3610  -15.8665 O   0  0  0  0  0  0  0  0  0  0  0  0
   14.6586  -10.7065  -14.1838 C   0  0  0  0  0  0  0  0  0  0  0  0
   16.1648  -10.6140  -14.2070 C   0  0  2  0  0  0  0  0  0  0  0  0
   16.7785  -11.9097  -14.3608 N   0  0  0  0  0  0  0  0  0  0  0  0
   16.7003   -9.9104  -13.0173 C   0  0  0  0  0  0  0  0  0  0  0  0
   16.6874  -10.5227  -11.9079 O   0  0  0  0  0  0  0  0  0  0  0  0
   21.0096   -5.6517  -12.9831 N   0  0  0  0  0  0  0  0  0  0  0  0
   21.2743   -7.0304  -12.8444 C   0  0  0  0  0  0  0  0  0  0  0  0
   22.4353   -7.4443  -13.0221 O   0  0  0  0  0  0  0  0  0  0  0  0
   20.1732   -7.9481  -12.4929 C   0  0  0  0  0  0  0  0  0  0  0  0
   18.9273   -7.1465  -12.2903 C   0  0  0  0  0  0  0  0  0  0  0  0
   17.7278   -7.9336  -11.8316 C   0  0  2  0  0  0  0  0  0  0  0  0
   17.2254   -8.6107  -13.0169 N   0  0  0  0  0  0  0  0  0  0  0  0
   16.7044   -7.1686  -11.1335 C   0  0  0  0  0  0  0  0  0  0  0  0
   15.9318   -6.4221  -11.7594 O   0  0  0  0  0  0  0  0  0  0  0  0
   15.5098   -6.9684   -7.5488 C   0  0  0  0  0  0  0  0  0  0  0  0
   15.5473   -6.5196   -8.9938 C   0  0  2  0  0  0  0  0  0  0  0  0
   16.5643   -7.2552   -9.7332 N   0  0  0  0  0  0  0  0  0  0  0  0
   15.8041   -5.0685   -9.0021 C   0  0  0  0  0  0  0  0  0  0  0  0
   14.8501   -4.1905   -8.5438 O   0  0  0  0  0  0  0  0  0  0  0  0
   16.8916   -4.6388   -9.4270 O   0  0  0  0  0  0  0  0  0  0  0  0
  1  2  1  0
  2  3  2  0
  4  2  1  0
  4  5  1  0
  5  6  1  1
  7  8  2  0
  7  5  1  0
 10  9  1  0
 10 12  1  0
 11 10  2  0
 14 13  1  6
 13 12  1  0
 14 15  1  0
 15  7  1  0
 16 14  1  0
 17 16  2  0
 19 18  1  1
 19 20  1  0
 20 16  1  0
 21 19  1  0
 22 21  1  0
 23 21  2  0
M  END
$$$$
