NQA.pdb
     RDKit          3D

 23 22  0  0  1  0  0  0  0  0999 V2000
   24.1391  -15.2318  -18.3648 N   0  0  0  0  0  0  0  0  0  0  0  0
   24.7090  -14.1353  -17.6462 C   0  0  0  0  0  0  0  0  0  0  0  0
   25.6228  -14.3483  -16.8137 O   0  0  0  0  0  0  0  0  0  0  0  0
   24.1579  -12.7898  -17.9507 C   0  0  0  0  0  0  0  0  0  0  0  0
   23.9836  -12.0568  -16.6430 C   0  0  2  0  0  0  0  0  0  0  0  0
   23.0809  -12.7494  -15.7572 N   0  0  0  0  0  0  0  0  0  0  0  0
   23.5581  -10.6510  -16.8422 C   0  0  0  0  0  0  0  0  0  0  0  0
   24.3132   -9.8909  -17.5188 O   0  0  0  0  0  0  0  0  0  0  0  0
   17.8258   -9.0284  -17.1879 N   0  0  0  0  0  0  0  0  0  0  0  0
   18.5401   -8.5756  -18.3171 C   0  0  0  0  0  0  0  0  0  0  0  0
   17.9158   -8.3106  -19.3615 O   0  0  0  0  0  0  0  0  0  0  0  0
   20.0061   -8.4265  -18.2355 C   0  0  0  0  0  0  0  0  0  0  0  0
   20.4532   -8.8263  -16.8657 C   0  0  0  0  0  0  0  0  0  0  0  0
   21.9366   -8.7294  -16.6233 C   0  0  2  0  0  0  0  0  0  0  0  0
   22.3777  -10.0861  -16.3394 N   0  0  0  0  0  0  0  0  0  0  0  0
   22.3453   -7.7711  -15.6063 C   0  0  0  0  0  0  0  0  0  0  0  0
   22.4488   -8.1138  -14.4156 O   0  0  0  0  0  0  0  0  0  0  0  0
   23.4767   -4.1614  -15.6403 C   0  0  0  0  0  0  0  0  0  0  0  0
   23.0191   -5.4332  -14.9591 C   0  0  2  0  0  0  0  0  0  0  0  0
   22.6333   -6.4333  -15.9456 N   0  0  0  0  0  0  0  0  0  0  0  0
   21.9001   -5.0817  -14.0668 C   0  0  0  0  0  0  0  0  0  0  0  0
   20.6178   -5.4739  -14.3713 O   0  0  0  0  0  0  0  0  0  0  0  0
   22.1208   -4.4261  -13.0327 O   0  0  0  0  0  0  0  0  0  0  0  0
  1  2  1  0
  2  3  2  0
  4  2  1  0
  4  5  1  0
  5  6  1  1
  7  8  2  0
  7  5  1  0
 10  9  1  0
 10 12  1  0
 11 10  2  0
 14 13  1  1
 13 12  1  0
 14 15  1  0
 15  7  1  0
 16 14  1  0
 17 16  2  0
 19 18  1  6
 19 20  1  0
 20 16  1  0
 21 19  1  0
 22 21  1  0
 23 21  2  0
M  END
$$$$
