NQA.pdb
     RDKit          3D

 23 22  0  0  1  0  0  0  0  0999 V2000
   11.8028   -9.9930   -9.6028 N   0  0  0  0  0  0  0  0  0  0  0  0
   12.8578  -10.4972  -10.4252 C   0  0  0  0  0  0  0  0  0  0  0  0
   13.0256  -11.7361  -10.5270 O   0  0  0  0  0  0  0  0  0  0  0  0
   13.6974   -9.4844  -11.1151 C   0  0  0  0  0  0  0  0  0  0  0  0
   15.1328   -9.9439  -11.0341 C   0  0  2  0  0  0  0  0  0  0  0  0
   15.6099   -9.9723   -9.6737 N   0  0  0  0  0  0  0  0  0  0  0  0
   16.0284   -9.1345  -11.8944 C   0  0  0  0  0  0  0  0  0  0  0  0
   16.4134   -8.0084  -11.4594 O   0  0  0  0  0  0  0  0  0  0  0  0
   18.8396  -11.4071  -16.8074 N   0  0  0  0  0  0  0  0  0  0  0  0
   19.4233  -10.1241  -16.8679 C   0  0  0  0  0  0  0  0  0  0  0  0
   20.2852   -9.8922  -17.7364 O   0  0  0  0  0  0  0  0  0  0  0  0
   19.0009   -9.0894  -15.9042 C   0  0  0  0  0  0  0  0  0  0  0  0
   17.9727   -9.6762  -14.9907 C   0  0  0  0  0  0  0  0  0  0  0  0
   17.4099   -8.7259  -13.9666 C   0  0  2  0  0  0  0  0  0  0  0  0
   16.4899   -9.5149  -13.1622 N   0  0  0  0  0  0  0  0  0  0  0  0
   16.8066   -7.5130  -14.5002 C   0  0  0  0  0  0  0  0  0  0  0  0
   15.7067   -7.5520  -15.0786 O   0  0  0  0  0  0  0  0  0  0  0  0
   16.1795   -4.2081  -14.0492 C   0  0  0  0  0  0  0  0  0  0  0  0
   16.9688   -5.0557  -15.0236 C   0  0  2  0  0  0  0  0  0  0  0  0
   17.4535   -6.2665  -14.3746 N   0  0  0  0  0  0  0  0  0  0  0  0
   18.0744   -4.2282  -15.5382 C   0  0  0  0  0  0  0  0  0  0  0  0
   17.8162   -3.1503  -16.3520 O   0  0  0  0  0  0  0  0  0  0  0  0
   19.2471   -4.5097  -15.2325 O   0  0  0  0  0  0  0  0  0  0  0  0
  1  2  1  0
  2  3  2  0
  4  2  1  0
  4  5  1  0
  5  6  1  1
  7  8  2  0
  7  5  1  0
 10  9  1  0
 10 12  1  0
 11 10  2  0
 14 13  1  6
 13 12  1  0
 14 15  1  0
 15  7  1  0
 16 14  1  0
 17 16  2  0
 19 18  1  1
 19 20  1  0
 20 16  1  0
 21 19  1  0
 22 21  1  0
 23 21  2  0
M  END
$$$$
