NQA.pdb
     RDKit          3D

 23 22  0  0  1  0  0  0  0  0999 V2000
   14.5535  -13.1190  -11.1689 N   0  0  0  0  0  0  0  0  0  0  0  0
   13.5132  -12.1724  -11.4240 C   0  0  0  0  0  0  0  0  0  0  0  0
   12.3147  -12.5188  -11.2928 O   0  0  0  0  0  0  0  0  0  0  0  0
   13.9458  -10.8125  -11.8366 C   0  0  0  0  0  0  0  0  0  0  0  0
   15.4546  -10.7985  -11.8669 C   0  0  2  0  0  0  0  0  0  0  0  0
   16.0192  -11.2359  -10.6143 N   0  0  0  0  0  0  0  0  0  0  0  0
   15.9939   -9.4747  -12.2593 C   0  0  0  0  0  0  0  0  0  0  0  0
   15.7106   -9.0351  -13.4134 O   0  0  0  0  0  0  0  0  0  0  0  0
   15.8216   -4.3820   -9.5098 N   0  0  0  0  0  0  0  0  0  0  0  0
   16.3403   -5.4811   -8.7934 C   0  0  0  0  0  0  0  0  0  0  0  0
   16.3160   -5.4574   -7.5485 O   0  0  0  0  0  0  0  0  0  0  0  0
   16.8982   -6.6301   -9.5326 C   0  0  0  0  0  0  0  0  0  0  0  0
   16.8132   -6.3444  -10.9979 C   0  0  0  0  0  0  0  0  0  0  0  0
   17.3949   -7.4079  -11.8918 C   0  0  2  0  0  0  0  0  0  0  0  0
   16.7996   -8.6600  -11.4517 N   0  0  0  0  0  0  0  0  0  0  0  0
   18.8490   -7.4550  -11.9474 C   0  0  0  0  0  0  0  0  0  0  0  0
   19.5028   -7.9857  -11.0326 O   0  0  0  0  0  0  0  0  0  0  0  0
   21.5168   -7.2540  -14.4433 C   0  0  0  0  0  0  0  0  0  0  0  0
   21.0045   -6.8246  -13.0853 C   0  0  2  0  0  0  0  0  0  0  0  0
   19.5506   -6.9010  -13.0378 N   0  0  0  0  0  0  0  0  0  0  0  0
   21.4909   -5.4553  -12.8393 C   0  0  0  0  0  0  0  0  0  0  0  0
   22.7571   -5.2449  -12.3463 O   0  0  0  0  0  0  0  0  0  0  0  0
   20.7485   -4.4865  -13.0805 O   0  0  0  0  0  0  0  0  0  0  0  0
  1  2  1  0
  2  3  2  0
  4  2  1  0
  4  5  1  0
  5  6  1  1
  7  8  2  0
  7  5  1  0
 10  9  1  0
 10 12  1  0
 11 10  2  0
 14 13  1  1
 13 12  1  0
 14 15  1  0
 15  7  1  0
 16 14  1  0
 17 16  2  0
 19 18  1  6
 19 20  1  0
 20 16  1  0
 21 19  1  0
 22 21  1  0
 23 21  2  0
M  END
$$$$
