NQA.pdb
     RDKit          3D

 23 22  0  0  1  0  0  0  0  0999 V2000
   15.4173  -15.6222  -16.5802 N   0  0  0  0  0  0  0  0  0  0  0  0
   15.7760  -15.1050  -15.2968 C   0  0  0  0  0  0  0  0  0  0  0  0
   15.0232  -15.3089  -14.3143 O   0  0  0  0  0  0  0  0  0  0  0  0
   17.0498  -14.3440  -15.2250 C   0  0  0  0  0  0  0  0  0  0  0  0
   17.6405  -14.3029  -16.6132 C   0  0  2  0  0  0  0  0  0  0  0  0
   18.2195  -15.5696  -16.9864 N   0  0  0  0  0  0  0  0  0  0  0  0
   18.6217  -13.2031  -16.7711 C   0  0  0  0  0  0  0  0  0  0  0  0
   19.8460  -13.4655  -16.5767 O   0  0  0  0  0  0  0  0  0  0  0  0
   18.3264   -7.9574  -20.0878 N   0  0  0  0  0  0  0  0  0  0  0  0
   17.4948   -7.9440  -18.9482 C   0  0  0  0  0  0  0  0  0  0  0  0
   16.6312   -7.0533  -18.8401 O   0  0  0  0  0  0  0  0  0  0  0  0
   17.6664   -8.9821  -17.9134 C   0  0  0  0  0  0  0  0  0  0  0  0
   18.7501   -9.9167  -18.3471 C   0  0  0  0  0  0  0  0  0  0  0  0
   19.2863  -10.8195  -17.2672 C   0  0  2  0  0  0  0  0  0  0  0  0
   18.3050  -11.8831  -17.1212 N   0  0  0  0  0  0  0  0  0  0  0  0
   19.6128  -10.1664  -16.0076 C   0  0  0  0  0  0  0  0  0  0  0  0
   18.7619  -10.0616  -15.1072 O   0  0  0  0  0  0  0  0  0  0  0  0
   22.7699   -8.7700  -14.4684 C   0  0  0  0  0  0  0  0  0  0  0  0
   21.2719   -8.9762  -14.5347 C   0  0  2  0  0  0  0  0  0  0  0  0
   20.8995   -9.6376  -15.7781 N   0  0  0  0  0  0  0  0  0  0  0  0
   20.6349   -7.6537  -14.4040 C   0  0  0  0  0  0  0  0  0  0  0  0
   20.5499   -7.0407  -13.1760 O   0  0  0  0  0  0  0  0  0  0  0  0
   20.1723   -7.0915  -15.4129 O   0  0  0  0  0  0  0  0  0  0  0  0
  1  2  1  0
  2  3  2  0
  4  2  1  0
  4  5  1  0
  5  6  1  1
  7  8  2  0
  7  5  1  0
 10  9  1  0
 10 12  1  0
 11 10  2  0
 14 13  1  6
 13 12  1  0
 14 15  1  0
 15  7  1  0
 16 14  1  0
 17 16  2  0
 19 18  1  6
 19 20  1  0
 20 16  1  0
 21 19  1  0
 22 21  1  0
 23 21  2  0
M  END
$$$$
