NQA.pdb
     RDKit          3D

 23 22  0  0  1  0  0  0  0  0999 V2000
   15.4288  -12.2798  -15.2082 N   0  0  0  0  0  0  0  0  0  0  0  0
   16.5352  -13.0112  -14.6750 C   0  0  0  0  0  0  0  0  0  0  0  0
   16.3402  -14.1326  -14.1478 O   0  0  0  0  0  0  0  0  0  0  0  0
   17.8687  -12.3669  -14.7906 C   0  0  0  0  0  0  0  0  0  0  0  0
   17.6812  -11.0424  -15.4894 C   0  0  2  0  0  0  0  0  0  0  0  0
   17.3812  -11.2134  -16.8893 N   0  0  0  0  0  0  0  0  0  0  0  0
   18.8431  -10.1414  -15.3012 C   0  0  0  0  0  0  0  0  0  0  0  0
   19.1966   -9.8658  -14.1160 O   0  0  0  0  0  0  0  0  0  0  0  0
   22.7320   -8.8476  -19.8004 N   0  0  0  0  0  0  0  0  0  0  0  0
   23.3420   -8.0182  -18.8359 C   0  0  0  0  0  0  0  0  0  0  0  0
   24.3738   -7.3920  -19.1423 O   0  0  0  0  0  0  0  0  0  0  0  0
   22.7458   -7.9119  -17.4901 C   0  0  0  0  0  0  0  0  0  0  0  0
   21.4770   -8.7026  -17.4640 C   0  0  0  0  0  0  0  0  0  0  0  0
   20.7832   -8.7551  -16.1281 C   0  0  2  0  0  0  0  0  0  0  0  0
   19.5914   -9.5627  -16.3358 N   0  0  0  0  0  0  0  0  0  0  0  0
   20.4995   -7.4645  -15.5169 C   0  0  0  0  0  0  0  0  0  0  0  0
   19.5156   -6.7943  -15.8755 O   0  0  0  0  0  0  0  0  0  0  0  0
   21.9080   -5.4995  -12.6212 C   0  0  0  0  0  0  0  0  0  0  0  0
   21.1254   -5.6300  -13.9102 C   0  0  2  0  0  0  0  0  0  0  0  0
   21.3319   -6.9436  -14.5051 N   0  0  0  0  0  0  0  0  0  0  0  0
   21.5629   -4.5458  -14.8075 C   0  0  0  0  0  0  0  0  0  0  0  0
   21.2229   -3.2408  -14.5391 O   0  0  0  0  0  0  0  0  0  0  0  0
   22.2437   -4.8168  -15.8130 O   0  0  0  0  0  0  0  0  0  0  0  0
  1  2  1  0
  2  3  2  0
  4  2  1  0
  4  5  1  0
  5  6  1  6
  7  8  2  0
  7  5  1  0
 10  9  1  0
 10 12  1  0
 11 10  2  0
 14 13  1  6
 13 12  1  0
 14 15  1  0
 15  7  1  0
 16 14  1  0
 17 16  2  0
 19 18  1  1
 19 20  1  0
 20 16  1  0
 21 19  1  0
 22 21  1  0
 23 21  2  0
M  END
$$$$
