NQA.pdb
     RDKit          3D

 23 22  0  0  1  0  0  0  0  0999 V2000
   19.6540  -14.4668  -16.4529 N   0  0  0  0  0  0  0  0  0  0  0  0
   19.1880  -13.9052  -17.6821 C   0  0  0  0  0  0  0  0  0  0  0  0
   18.8211  -14.6649  -18.6104 O   0  0  0  0  0  0  0  0  0  0  0  0
   19.1742  -12.4222  -17.7662 C   0  0  0  0  0  0  0  0  0  0  0  0
   19.7244  -11.8822  -16.4687 C   0  0  2  0  0  0  0  0  0  0  0  0
   18.9234  -12.2842  -15.3391 N   0  0  0  0  0  0  0  0  0  0  0  0
   19.8939  -10.4100  -16.5028 C   0  0  0  0  0  0  0  0  0  0  0  0
   20.6709   -9.9205  -17.3758 O   0  0  0  0  0  0  0  0  0  0  0  0
   15.5042   -6.7396  -14.8553 N   0  0  0  0  0  0  0  0  0  0  0  0
   16.4534   -5.7091  -15.0210 C   0  0  0  0  0  0  0  0  0  0  0  0
   16.0963   -4.5267  -14.8622 O   0  0  0  0  0  0  0  0  0  0  0  0
   17.8432   -6.0542  -15.3776 C   0  0  0  0  0  0  0  0  0  0  0  0
   17.9613   -7.5425  -15.4610 C   0  0  0  0  0  0  0  0  0  0  0  0
   19.3418   -8.0583  -15.7721 C   0  0  2  0  0  0  0  0  0  0  0  0
   19.2598   -9.5046  -15.6407 N   0  0  0  0  0  0  0  0  0  0  0  0
   20.4215   -7.4737  -14.9896 C   0  0  0  0  0  0  0  0  0  0  0  0
   20.6344   -7.8467  -13.8228 O   0  0  0  0  0  0  0  0  0  0  0  0
   23.1280   -4.9145  -15.6627 C   0  0  0  0  0  0  0  0  0  0  0  0
   22.2981   -5.8100  -14.7681 C   0  0  2  0  0  0  0  0  0  0  0  0
   21.2509   -6.4721  -15.5344 N   0  0  0  0  0  0  0  0  0  0  0  0
   21.7433   -4.9711  -13.6909 C   0  0  0  0  0  0  0  0  0  0  0  0
   22.5054   -4.6591  -12.5896 O   0  0  0  0  0  0  0  0  0  0  0  0
   20.5782   -4.5444  -13.7819 O   0  0  0  0  0  0  0  0  0  0  0  0
  1  2  1  0
  2  3  2  0
  4  2  1  0
  4  5  1  0
  5  6  1  1
  7  8  2  0
  7  5  1  0
 10  9  1  0
 10 12  1  0
 11 10  2  0
 14 13  1  1
 13 12  1  0
 14 15  1  0
 15  7  1  0
 16 14  1  0
 17 16  2  0
 19 18  1  6
 19 20  1  0
 20 16  1  0
 21 19  1  0
 22 21  1  0
 23 21  2  0
M  END
$$$$
