CLW.pdb
     RDKit          3D

 29 30  0  0  1  0  0  0  0  0999 V2000
   26.0254  -20.2900  -19.9484 N   0  0  0  0  0  0  0  0  0  0  0  0
   24.9078  -19.4404  -19.6022 C   0  0  1  0  0  0  0  0  0  0  0  0
   23.6461  -20.1448  -20.0572 C   0  0  0  0  0  0  0  0  0  0  0  0
   22.1867  -19.1389  -19.6816 S   0  0  0  0  0  0  0  0  0  0  0  0
   24.9221  -19.2220  -18.1417 C   0  0  0  0  0  0  0  0  0  0  0  0
   25.2555  -20.1545  -17.3828 O   0  0  0  0  0  0  0  0  0  0  0  0
   26.6258  -14.5036  -15.9263 C   0  0  0  0  0  0  0  0  0  0  0  0
   26.2314  -15.8800  -16.5171 C   0  0  1  0  0  0  0  0  0  0  0  0
   27.4904  -16.7237  -16.3579 C   0  0  0  0  0  0  0  0  0  0  0  0
   25.0797  -16.4046  -15.7391 C   0  0  0  0  0  0  0  0  0  0  0  0
   24.5490  -17.7499  -16.1346 C   0  0  2  0  0  0  0  0  0  0  0  0
   24.5657  -17.9690  -17.5404 N   0  0  0  0  0  0  0  0  0  0  0  0
   23.2204  -18.0033  -15.4965 C   0  0  0  0  0  0  0  0  0  0  0  0
   23.1579  -18.0110  -14.2389 O   0  0  0  0  0  0  0  0  0  0  0  0
   22.0539  -18.2302  -16.2370 N   0  0  0  0  0  0  0  0  0  0  0  0
   20.7434  -18.4368  -15.6299 C   0  0  1  0  0  0  0  0  0  0  0  0
   19.8515  -17.2739  -16.0508 C   0  0  0  0  0  0  0  0  0  0  0  0
   19.6126  -17.3078  -17.5322 C   0  0  0  0  0  0  0  0  0  0  0  0
   19.3231  -18.4054  -18.3152 C   0  0  0  0  0  0  0  0  0  0  0  0
   19.1788  -18.0253  -19.5969 N   0  0  0  0  0  0  0  0  0  0  0  0
   19.3644  -16.6899  -19.7020 C   0  0  0  0  0  0  0  0  0  0  0  0
   19.3237  -15.8344  -20.7831 C   0  0  0  0  0  0  0  0  0  0  0  0
   19.5580  -14.4892  -20.5893 C   0  0  0  0  0  0  0  0  0  0  0  0
   19.8267  -14.0523  -19.3029 C   0  0  0  0  0  0  0  0  0  0  0  0
   19.8689  -14.9016  -18.2181 C   0  0  0  0  0  0  0  0  0  0  0  0
   19.6368  -16.2396  -18.4056 C   0  0  0  0  0  0  0  0  0  0  0  0
   20.1297  -19.6766  -16.1509 C   0  0  0  0  0  0  0  0  0  0  0  0
   18.9301  -20.1827  -15.6504 O   0  0  0  0  0  0  0  0  0  0  0  0
   20.7179  -20.2950  -17.0830 O   0  0  0  0  0  0  0  0  0  0  0  0
  2  1  1  1
  2  3  1  0
  2  5  1  0
  3  4  1  0
  5 12  1  0
  5  6  2  0
  8  7  1  1
  8  9  1  0
 10  8  1  0
 11 13  1  0
 11 10  1  6
 12 11  1  0
 13 14  2  0
 15 13  1  0
 16 15  1  0
 16 17  1  6
 17 18  1  0
 18 19  2  0
 19 20  1  0
 21 22  2  0
 21 20  1  0
 23 22  1  0
 24 23  2  0
 25 24  1  0
 25 26  2  0
 26 18  1  0
 26 21  1  0
 27 16  1  0
 28 27  1  0
 29 27  2  0
M  END
$$$$
