CLW.pdb
     RDKit          3D

 29 30  0  0  1  0  0  0  0  0999 V2000
   25.2052  -18.7259  -15.6110 N   0  0  0  0  0  0  0  0  0  0  0  0
   25.1605  -18.5437  -14.1772 C   0  0  1  0  0  0  0  0  0  0  0  0
   23.7090  -18.3444  -13.7917 C   0  0  0  0  0  0  0  0  0  0  0  0
   23.1492  -16.6866  -14.2620 S   0  0  0  0  0  0  0  0  0  0  0  0
   25.7426  -19.7400  -13.5360 C   0  0  0  0  0  0  0  0  0  0  0  0
   25.4489  -20.8737  -13.9661 O   0  0  0  0  0  0  0  0  0  0  0  0
   30.9535  -19.9709  -12.3671 C   0  0  0  0  0  0  0  0  0  0  0  0
   29.4790  -20.1542  -12.8045 C   0  0  1  0  0  0  0  0  0  0  0  0
   29.5597  -21.1300  -13.9723 C   0  0  0  0  0  0  0  0  0  0  0  0
   28.7173  -20.6944  -11.6492 C   0  0  0  0  0  0  0  0  0  0  0  0
   27.2304  -20.8042  -11.8072 C   0  0  2  0  0  0  0  0  0  0  0  0
   26.6454  -19.6629  -12.4235 N   0  0  0  0  0  0  0  0  0  0  0  0
   26.5878  -21.1918  -10.5136 C   0  0  0  0  0  0  0  0  0  0  0  0
   26.9801  -22.2465   -9.9487 O   0  0  0  0  0  0  0  0  0  0  0  0
   25.5758  -20.4337   -9.9120 N   0  0  0  0  0  0  0  0  0  0  0  0
   24.7872  -20.9018   -8.7772 C   0  0  1  0  0  0  0  0  0  0  0  0
   24.8013  -19.8023   -7.7208 C   0  0  0  0  0  0  0  0  0  0  0  0
   26.2122  -19.4037   -7.3999 C   0  0  0  0  0  0  0  0  0  0  0  0
   27.0124  -18.5106   -8.0809 C   0  0  0  0  0  0  0  0  0  0  0  0
   28.2126  -18.4250   -7.4808 N   0  0  0  0  0  0  0  0  0  0  0  0
   28.2454  -19.2425   -6.4041 C   0  0  0  0  0  0  0  0  0  0  0  0
   29.2309  -19.5085   -5.4765 C   0  0  0  0  0  0  0  0  0  0  0  0
   28.9788  -20.4083   -4.4621 C   0  0  0  0  0  0  0  0  0  0  0  0
   27.7330  -21.0117   -4.4197 C   0  0  0  0  0  0  0  0  0  0  0  0
   26.7437  -20.7506   -5.3433 C   0  0  0  0  0  0  0  0  0  0  0  0
   26.9894  -19.8570   -6.3534 C   0  0  0  0  0  0  0  0  0  0  0  0
   23.3809  -21.1074   -9.1836 C   0  0  0  0  0  0  0  0  0  0  0  0
   22.4184  -21.6143   -8.3106 O   0  0  0  0  0  0  0  0  0  0  0  0
   23.0454  -20.8113  -10.3656 O   0  0  0  0  0  0  0  0  0  0  0  0
  2  1  1  6
  2  3  1  0
  2  5  1  0
  3  4  1  0
  5 12  1  0
  5  6  2  0
  8  7  1  1
  8  9  1  0
 10  8  1  0
 11 13  1  0
 11 10  1  1
 12 11  1  0
 13 14  2  0
 15 13  1  0
 16 15  1  0
 16 17  1  1
 17 18  1  0
 18 19  2  0
 19 20  1  0
 21 22  2  0
 21 20  1  0
 23 22  1  0
 24 23  2  0
 25 24  1  0
 25 26  2  0
 26 18  1  0
 26 21  1  0
 27 16  1  0
 28 27  1  0
 29 27  2  0
M  END
$$$$
