CLW.pdb
     RDKit          3D

 29 30  0  0  1  0  0  0  0  0999 V2000
   25.3398  -16.2796  -17.4536 N   0  0  0  0  0  0  0  0  0  0  0  0
   24.6820  -17.5645  -17.5394 C   0  0  1  0  0  0  0  0  0  0  0  0
   25.7385  -18.5906  -17.8945 C   0  0  0  0  0  0  0  0  0  0  0  0
   26.9844  -18.6988  -16.5835 S   0  0  0  0  0  0  0  0  0  0  0  0
   24.0482  -17.8526  -16.2371 C   0  0  0  0  0  0  0  0  0  0  0  0
   23.9243  -16.9387  -15.3969 O   0  0  0  0  0  0  0  0  0  0  0  0
   19.3653  -19.3162  -15.7795 C   0  0  0  0  0  0  0  0  0  0  0  0
   20.6779  -18.5311  -16.0239 C   0  0  1  0  0  0  0  0  0  0  0  0
   20.2056  -17.1327  -16.4028 C   0  0  0  0  0  0  0  0  0  0  0  0
   21.4717  -18.5546  -14.7685 C   0  0  0  0  0  0  0  0  0  0  0  0
   22.7124  -19.3964  -14.7649 C   0  0  2  0  0  0  0  0  0  0  0  0
   23.5588  -19.1539  -15.8827 N   0  0  0  0  0  0  0  0  0  0  0  0
   22.3729  -20.8387  -14.5621 C   0  0  0  0  0  0  0  0  0  0  0  0
   21.5755  -21.3802  -15.3723 O   0  0  0  0  0  0  0  0  0  0  0  0
   22.9029  -21.6030  -13.5154 N   0  0  0  0  0  0  0  0  0  0  0  0
   23.8977  -22.6525  -13.7098 C   0  0  1  0  0  0  0  0  0  0  0  0
   24.7717  -22.6966  -12.4612 C   0  0  0  0  0  0  0  0  0  0  0  0
   25.4191  -21.3625  -12.2289 C   0  0  0  0  0  0  0  0  0  0  0  0
   25.1857  -20.4800  -11.1953 C   0  0  0  0  0  0  0  0  0  0  0  0
   25.9637  -19.3929  -11.3401 N   0  0  0  0  0  0  0  0  0  0  0  0
   26.7227  -19.5181  -12.4523 C   0  0  0  0  0  0  0  0  0  0  0  0
   27.6641  -18.6890  -13.0257 C   0  0  0  0  0  0  0  0  0  0  0  0
   28.2941  -19.0838  -14.1873 C   0  0  0  0  0  0  0  0  0  0  0  0
   27.9494  -20.3094  -14.7325 C   0  0  0  0  0  0  0  0  0  0  0  0
   27.0096  -21.1427  -14.1648 C   0  0  0  0  0  0  0  0  0  0  0  0
   26.3806  -20.7547  -13.0102 C   0  0  0  0  0  0  0  0  0  0  0  0
   23.2341  -23.9678  -13.8323 C   0  0  0  0  0  0  0  0  0  0  0  0
   23.9442  -25.1409  -14.0868 O   0  0  0  0  0  0  0  0  0  0  0  0
   21.9784  -24.0242  -13.7007 O   0  0  0  0  0  0  0  0  0  0  0  0
  2  1  1  1
  2  3  1  0
  2  5  1  0
  3  4  1  0
  5 12  1  0
  5  6  2  0
  8  7  1  1
  8  9  1  0
 10  8  1  0
 11 13  1  0
 11 10  1  6
 12 11  1  0
 13 14  2  0
 15 13  1  0
 16 15  1  0
 16 17  1  1
 17 18  1  0
 18 19  2  0
 19 20  1  0
 21 22  2  0
 21 20  1  0
 23 22  1  0
 24 23  2  0
 25 24  1  0
 25 26  2  0
 26 18  1  0
 26 21  1  0
 27 16  1  0
 28 27  1  0
 29 27  2  0
M  END
$$$$
