CLW.pdb
     RDKit          3D

 29 30  0  0  1  0  0  0  0  0999 V2000
   23.6356  -17.7203  -14.8850 N   0  0  0  0  0  0  0  0  0  0  0  0
   23.1642  -19.0829  -14.9947 C   0  0  1  0  0  0  0  0  0  0  0  0
   22.5804  -19.2492  -16.3827 C   0  0  0  0  0  0  0  0  0  0  0  0
   21.2428  -18.0580  -16.6558 S   0  0  0  0  0  0  0  0  0  0  0  0
   24.3049  -19.9918  -14.7630 C   0  0  0  0  0  0  0  0  0  0  0  0
   24.1166  -21.2250  -14.7482 O   0  0  0  0  0  0  0  0  0  0  0  0
   29.5188  -18.1605  -15.7168 C   0  0  0  0  0  0  0  0  0  0  0  0
   28.0962  -18.7706  -15.6615 C   0  0  1  0  0  0  0  0  0  0  0  0
   27.9015  -19.3771  -17.0460 C   0  0  0  0  0  0  0  0  0  0  0  0
   28.0691  -19.7839  -14.5756 C   0  0  0  0  0  0  0  0  0  0  0  0
   26.7349  -20.3742  -14.2303 C   0  0  2  0  0  0  0  0  0  0  0  0
   25.6430  -19.5198  -14.5504 N   0  0  0  0  0  0  0  0  0  0  0  0
   26.7245  -20.8697  -12.8192 C   0  0  0  0  0  0  0  0  0  0  0  0
   27.3939  -21.9010  -12.5475 O   0  0  0  0  0  0  0  0  0  0  0  0
   26.0055  -20.2366  -11.7980 N   0  0  0  0  0  0  0  0  0  0  0  0
   25.9188  -20.7533  -10.4363 C   0  0  1  0  0  0  0  0  0  0  0  0
   26.9164  -19.9767   -9.5839 C   0  0  0  0  0  0  0  0  0  0  0  0
   26.7060  -20.2773   -8.1285 C   0  0  0  0  0  0  0  0  0  0  0  0
   25.7272  -21.0672   -7.5631 C   0  0  0  0  0  0  0  0  0  0  0  0
   25.8739  -21.0875   -6.2266 N   0  0  0  0  0  0  0  0  0  0  0  0
   26.9338  -20.3268   -5.8709 C   0  0  0  0  0  0  0  0  0  0  0  0
   27.4874  -20.0312   -4.6426 C   0  0  0  0  0  0  0  0  0  0  0  0
   28.5923  -19.2081   -4.5799 C   0  0  0  0  0  0  0  0  0  0  0  0
   29.1025  -18.7093   -5.7669 C   0  0  0  0  0  0  0  0  0  0  0  0
   28.5544  -19.0005   -6.9975 C   0  0  0  0  0  0  0  0  0  0  0  0
   27.4561  -19.8182   -7.0651 C   0  0  0  0  0  0  0  0  0  0  0  0
   24.5721  -20.5026   -9.8806 C   0  0  0  0  0  0  0  0  0  0  0  0
   24.0663  -21.2212   -8.7974 O   0  0  0  0  0  0  0  0  0  0  0  0
   23.8589  -19.6037  -10.4104 O   0  0  0  0  0  0  0  0  0  0  0  0
  2  1  1  6
  2  3  1  0
  2  5  1  0
  3  4  1  0
  5 12  1  0
  5  6  2  0
  8  7  1  6
  8  9  1  0
 10  8  1  0
 11 13  1  0
 11 10  1  1
 12 11  1  0
 13 14  2  0
 15 13  1  0
 16 15  1  0
 16 17  1  1
 17 18  1  0
 18 19  2  0
 19 20  1  0
 21 22  2  0
 21 20  1  0
 23 22  1  0
 24 23  2  0
 25 24  1  0
 25 26  2  0
 26 18  1  0
 26 21  1  0
 27 16  1  0
 28 27  1  0
 29 27  2  0
M  END
$$$$
