CLW.pdb
     RDKit          3D

 29 30  0  0  1  0  0  0  0  0999 V2000
   30.2455  -22.3420  -11.9902 N   0  0  0  0  0  0  0  0  0  0  0  0
   30.4028  -21.1981  -11.1198 C   0  0  1  0  0  0  0  0  0  0  0  0
   30.0720  -19.9629  -11.9321 C   0  0  0  0  0  0  0  0  0  0  0  0
   28.4379  -20.1252  -12.6977 S   0  0  0  0  0  0  0  0  0  0  0  0
   29.4944  -21.3602   -9.9667 C   0  0  0  0  0  0  0  0  0  0  0  0
   28.5562  -22.1799  -10.0324 O   0  0  0  0  0  0  0  0  0  0  0  0
   28.1824  -21.0088   -4.5448 C   0  0  0  0  0  0  0  0  0  0  0  0
   28.1103  -19.7170   -5.3963 C   0  0  1  0  0  0  0  0  0  0  0  0
   28.4552  -18.6067   -4.4111 C   0  0  0  0  0  0  0  0  0  0  0  0
   29.0942  -19.8366   -6.5028 C   0  0  0  0  0  0  0  0  0  0  0  0
   28.6468  -20.5660   -7.7339 C   0  0  2  0  0  0  0  0  0  0  0  0
   29.6390  -20.6091   -8.7528 N   0  0  0  0  0  0  0  0  0  0  0  0
   27.3206  -20.0550   -8.1994 C   0  0  0  0  0  0  0  0  0  0  0  0
   27.2432  -18.8527   -8.5655 O   0  0  0  0  0  0  0  0  0  0  0  0
   26.1721  -20.8548   -8.2432 N   0  0  0  0  0  0  0  0  0  0  0  0
   24.9895  -20.5213   -9.0299 C   0  0  1  0  0  0  0  0  0  0  0  0
   25.2647  -20.9310  -10.4726 C   0  0  0  0  0  0  0  0  0  0  0  0
   24.0707  -20.6422  -11.3350 C   0  0  0  0  0  0  0  0  0  0  0  0
   22.8941  -20.0240  -10.9673 C   0  0  0  0  0  0  0  0  0  0  0  0
   22.0678  -19.9511  -12.0256 N   0  0  0  0  0  0  0  0  0  0  0  0
   22.6589  -20.5078  -13.1071 C   0  0  0  0  0  0  0  0  0  0  0  0
   22.2321  -20.6771  -14.4077 C   0  0  0  0  0  0  0  0  0  0  0  0
   23.0658  -21.2932  -15.3175 C   0  0  0  0  0  0  0  0  0  0  0  0
   24.3085  -21.7194  -14.8794 C   0  0  0  0  0  0  0  0  0  0  0  0
   24.7413  -21.5534  -13.5813 C   0  0  0  0  0  0  0  0  0  0  0  0
   23.9164  -20.9416  -12.6733 C   0  0  0  0  0  0  0  0  0  0  0  0
   23.8273  -21.3053   -8.5610 C   0  0  0  0  0  0  0  0  0  0  0  0
   22.5128  -20.9254   -8.8317 O   0  0  0  0  0  0  0  0  0  0  0  0
   24.0393  -22.3561   -7.8916 O   0  0  0  0  0  0  0  0  0  0  0  0
  2  1  1  6
  2  3  1  0
  2  5  1  0
  3  4  1  0
  5 12  1  0
  5  6  2  0
  8  7  1  1
  8  9  1  0
 10  8  1  0
 11 13  1  0
 11 10  1  1
 12 11  1  0
 13 14  2  0
 15 13  1  0
 16 15  1  0
 16 17  1  6
 17 18  1  0
 18 19  2  0
 19 20  1  0
 21 22  2  0
 21 20  1  0
 23 22  1  0
 24 23  2  0
 25 24  1  0
 25 26  2  0
 26 18  1  0
 26 21  1  0
 27 16  1  0
 28 27  1  0
 29 27  2  0
M  END
$$$$
