CLW.pdb
     RDKit          3D

 29 30  0  0  1  0  0  0  0  0999 V2000
   27.5328  -24.6082  -17.2847 N   0  0  0  0  0  0  0  0  0  0  0  0
   26.6366  -23.4736  -17.3108 C   0  0  1  0  0  0  0  0  0  0  0  0
   25.2252  -24.0144  -17.4125 C   0  0  0  0  0  0  0  0  0  0  0  0
   25.0099  -24.9410  -18.9545 S   0  0  0  0  0  0  0  0  0  0  0  0
   26.8398  -22.6897  -16.0758 C   0  0  0  0  0  0  0  0  0  0  0  0
   27.1648  -23.2735  -15.0222 O   0  0  0  0  0  0  0  0  0  0  0  0
   28.8031  -19.0264  -16.4994 C   0  0  0  0  0  0  0  0  0  0  0  0
   28.1552  -18.4171  -15.2312 C   0  0  1  0  0  0  0  0  0  0  0  0
   28.0960  -16.9238  -15.5290 C   0  0  0  0  0  0  0  0  0  0  0  0
   26.8120  -19.0277  -15.0589 C   0  0  0  0  0  0  0  0  0  0  0  0
   26.7635  -20.5076  -14.8238 C   0  0  2  0  0  0  0  0  0  0  0  0
   26.6795  -21.2647  -16.0256 N   0  0  0  0  0  0  0  0  0  0  0  0
   25.7122  -20.8493  -13.8164 C   0  0  0  0  0  0  0  0  0  0  0  0
   24.5153  -20.9054  -14.2035 O   0  0  0  0  0  0  0  0  0  0  0  0
   26.0051  -21.1069  -12.4716 N   0  0  0  0  0  0  0  0  0  0  0  0
   25.0121  -21.5651  -11.5058 C   0  0  1  0  0  0  0  0  0  0  0  0
   25.7629  -22.1314  -10.3056 C   0  0  0  0  0  0  0  0  0  0  0  0
   26.1844  -21.0251   -9.3831 C   0  0  0  0  0  0  0  0  0  0  0  0
   25.5016  -19.8628   -9.0922 C   0  0  0  0  0  0  0  0  0  0  0  0
   26.2100  -19.1245   -8.2198 N   0  0  0  0  0  0  0  0  0  0  0  0
   27.3621  -19.7615   -7.9107 C   0  0  0  0  0  0  0  0  0  0  0  0
   28.4084  -19.4248   -7.0774 C   0  0  0  0  0  0  0  0  0  0  0  0
   29.4780  -20.2867   -6.9539 C   0  0  0  0  0  0  0  0  0  0  0  0
   29.4535  -21.4655   -7.6805 C   0  0  0  0  0  0  0  0  0  0  0  0
   28.4113  -21.8081   -8.5149 C   0  0  0  0  0  0  0  0  0  0  0  0
   27.3459  -20.9547   -8.6412 C   0  0  0  0  0  0  0  0  0  0  0  0
   24.2044  -20.4242  -11.0248 C   0  0  0  0  0  0  0  0  0  0  0  0
   22.9266  -20.5876  -10.4899 O   0  0  0  0  0  0  0  0  0  0  0  0
   24.6951  -19.2622  -11.1037 O   0  0  0  0  0  0  0  0  0  0  0  0
  2  1  1  1
  2  3  1  0
  2  5  1  0
  3  4  1  0
  5 12  1  0
  5  6  2  0
  8  7  1  6
  8  9  1  0
 10  8  1  0
 11 13  1  0
 11 10  1  6
 12 11  1  0
 13 14  2  0
 15 13  1  0
 16 15  1  0
 16 17  1  1
 17 18  1  0
 18 19  2  0
 19 20  1  0
 21 22  2  0
 21 20  1  0
 23 22  1  0
 24 23  2  0
 25 24  1  0
 25 26  2  0
 26 18  1  0
 26 21  1  0
 27 16  1  0
 28 27  1  0
 29 27  2  0
M  END
$$$$
