CLW.pdb
     RDKit          3D

 29 30  0  0  1  0  0  0  0  0999 V2000
   25.6277  -20.9641  -19.2489 N   0  0  0  0  0  0  0  0  0  0  0  0
   25.0874  -20.0807  -18.2397 C   0  0  1  0  0  0  0  0  0  0  0  0
   23.7024  -19.6683  -18.6943 C   0  0  0  0  0  0  0  0  0  0  0  0
   23.1176  -18.2453  -17.7373 S   0  0  0  0  0  0  0  0  0  0  0  0
   25.0532  -20.8062  -16.9539 C   0  0  0  0  0  0  0  0  0  0  0  0
   24.8561  -22.0382  -16.9469 O   0  0  0  0  0  0  0  0  0  0  0  0
   28.1381  -20.1599  -14.9638 C   0  0  0  0  0  0  0  0  0  0  0  0
   27.5923  -20.8710  -13.7006 C   0  0  1  0  0  0  0  0  0  0  0  0
   28.5622  -20.4609  -12.5990 C   0  0  0  0  0  0  0  0  0  0  0  0
   26.2069  -20.3911  -13.4616 C   0  0  0  0  0  0  0  0  0  0  0  0
   25.1581  -20.8291  -14.4392 C   0  0  2  0  0  0  0  0  0  0  0  0
   25.2387  -20.1543  -15.6893 N   0  0  0  0  0  0  0  0  0  0  0  0
   23.8004  -20.7872  -13.8132 C   0  0  0  0  0  0  0  0  0  0  0  0
   23.6247  -21.4128  -12.7347 O   0  0  0  0  0  0  0  0  0  0  0  0
   22.7271  -20.0854  -14.3754 N   0  0  0  0  0  0  0  0  0  0  0  0
   21.4289  -19.9451  -13.7243 C   0  0  1  0  0  0  0  0  0  0  0  0
   21.0783  -18.4613  -13.7096 C   0  0  0  0  0  0  0  0  0  0  0  0
   21.1132  -17.9020  -15.1019 C   0  0  0  0  0  0  0  0  0  0  0  0
   20.1160  -17.9442  -16.0534 C   0  0  0  0  0  0  0  0  0  0  0  0
   20.5317  -17.3326  -17.1764 N   0  0  0  0  0  0  0  0  0  0  0  0
   21.7929  -16.8744  -17.0081 C   0  0  0  0  0  0  0  0  0  0  0  0
   22.6467  -16.1912  -17.8486 C   0  0  0  0  0  0  0  0  0  0  0  0
   23.9037  -15.8449  -17.3987 C   0  0  0  0  0  0  0  0  0  0  0  0
   24.2565  -16.2028  -16.1082 C   0  0  0  0  0  0  0  0  0  0  0  0
   23.4082  -16.8855  -15.2631 C   0  0  0  0  0  0  0  0  0  0  0  0
   22.1578  -17.2320  -15.7056 C   0  0  0  0  0  0  0  0  0  0  0  0
   20.3866  -20.6386  -14.5103 C   0  0  0  0  0  0  0  0  0  0  0  0
   19.0786  -20.7861  -14.0489 O   0  0  0  0  0  0  0  0  0  0  0  0
   20.6984  -21.1124  -15.6398 O   0  0  0  0  0  0  0  0  0  0  0  0
  2  1  1  6
  2  3  1  0
  2  5  1  0
  3  4  1  0
  5 12  1  0
  5  6  2  0
  8  7  1  6
  8  9  1  0
 10  8  1  0
 11 13  1  0
 11 10  1  1
 12 11  1  0
 13 14  2  0
 15 13  1  0
 16 15  1  0
 16 17  1  6
 17 18  1  0
 18 19  2  0
 19 20  1  0
 21 22  2  0
 21 20  1  0
 23 22  1  0
 24 23  2  0
 25 24  1  0
 25 26  2  0
 26 18  1  0
 26 21  1  0
 27 16  1  0
 28 27  1  0
 29 27  2  0
M  END
$$$$
