CLW.pdb
     RDKit          3D

 29 30  0  0  1  0  0  0  0  0999 V2000
   24.0191  -16.6362  -17.0561 N   0  0  0  0  0  0  0  0  0  0  0  0
   24.0587  -17.4044  -15.8316 C   0  0  1  0  0  0  0  0  0  0  0  0
   22.6302  -17.7623  -15.4758 C   0  0  0  0  0  0  0  0  0  0  0  0
   22.3269  -17.4851  -13.7112 S   0  0  0  0  0  0  0  0  0  0  0  0
   24.8880  -18.6048  -16.0600 C   0  0  0  0  0  0  0  0  0  0  0  0
   24.5506  -19.4294  -16.9334 O   0  0  0  0  0  0  0  0  0  0  0  0
   30.2883  -18.1378  -15.9847 C   0  0  0  0  0  0  0  0  0  0  0  0
   28.7546  -18.3074  -16.1192 C   0  0  1  0  0  0  0  0  0  0  0  0
   28.5005  -18.1855  -17.6169 C   0  0  0  0  0  0  0  0  0  0  0  0
   28.3870  -19.6400  -15.5754 C   0  0  0  0  0  0  0  0  0  0  0  0
   26.9296  -19.9918  -15.5669 C   0  0  2  0  0  0  0  0  0  0  0  0
   26.0839  -18.8756  -15.3149 N   0  0  0  0  0  0  0  0  0  0  0  0
   26.6727  -21.1622  -14.6719 C   0  0  0  0  0  0  0  0  0  0  0  0
   27.3573  -22.2045  -14.8469 O   0  0  0  0  0  0  0  0  0  0  0  0
   25.7091  -21.1436  -13.6562 N   0  0  0  0  0  0  0  0  0  0  0  0
   25.3041  -22.3303  -12.9102 C   0  0  1  0  0  0  0  0  0  0  0  0
   26.2882  -22.5099  -11.7595 C   0  0  0  0  0  0  0  0  0  0  0  0
   26.0387  -21.4835  -10.6932 C   0  0  0  0  0  0  0  0  0  0  0  0
   24.8529  -20.8446  -10.3981 C   0  0  0  0  0  0  0  0  0  0  0  0
   25.0370  -19.9928   -9.3740 N   0  0  0  0  0  0  0  0  0  0  0  0
   26.3254  -20.0393   -8.9659 C   0  0  0  0  0  0  0  0  0  0  0  0
   27.0029  -19.3685   -7.9692 C   0  0  0  0  0  0  0  0  0  0  0  0
   28.3447  -19.6225   -7.7755 C   0  0  0  0  0  0  0  0  0  0  0  0
   28.9589  -20.5504   -8.5999 C   0  0  0  0  0  0  0  0  0  0  0  0
   28.2879  -21.2242   -9.5977 C   0  0  0  0  0  0  0  0  0  0  0  0
   26.9542  -20.9753   -9.7943 C   0  0  0  0  0  0  0  0  0  0  0  0
   23.9641  -22.1286  -12.3195 C   0  0  0  0  0  0  0  0  0  0  0  0
   23.2554  -23.1621  -11.7071 O   0  0  0  0  0  0  0  0  0  0  0  0
   23.4481  -20.9762  -12.3746 O   0  0  0  0  0  0  0  0  0  0  0  0
  2  1  1  6
  2  3  1  0
  2  5  1  0
  3  4  1  0
  5 12  1  0
  5  6  2  0
  8  7  1  6
  8  9  1  0
 10  8  1  0
 11 13  1  0
 11 10  1  1
 12 11  1  0
 13 14  2  0
 15 13  1  0
 16 15  1  0
 16 17  1  1
 17 18  1  0
 18 19  2  0
 19 20  1  0
 21 22  2  0
 21 20  1  0
 23 22  1  0
 24 23  2  0
 25 24  1  0
 25 26  2  0
 26 18  1  0
 26 21  1  0
 27 16  1  0
 28 27  1  0
 29 27  2  0
M  END
$$$$
