QYI.pdb
     RDKit          3D

 30 30  0  0  1  0  0  0  0  0999 V2000
   29.1483  -20.0065  -19.2804 N   0  0  0  0  0  0  0  0  0  0  0  0
   28.4522  -21.2337  -19.4377 C   0  0  0  0  0  0  0  0  0  0  0  0
   29.0228  -22.1896  -20.0246 O   0  0  0  0  0  0  0  0  0  0  0  0
   27.0571  -21.3823  -18.9098 C   0  0  0  0  0  0  0  0  0  0  0  0
   27.0024  -22.4995  -17.8782 C   0  0  0  0  0  0  0  0  0  0  0  0
   27.7324  -22.0668  -16.6285 C   0  0  2  0  0  0  0  0  0  0  0  0
   28.8205  -22.9755  -16.3219 N   0  0  0  0  0  0  0  0  0  0  0  0
   26.8361  -22.0028  -15.4456 C   0  0  0  0  0  0  0  0  0  0  0  0
   26.3240  -23.0614  -14.9453 O   0  0  0  0  0  0  0  0  0  0  0  0
   30.2945  -21.9338   -9.4084 O   0  0  0  0  0  0  0  0  0  0  0  0
   29.3239  -21.3847  -10.2307 C   0  0  0  0  0  0  0  0  0  0  0  0
   29.6796  -20.8916  -11.4748 C   0  0  0  0  0  0  0  0  0  0  0  0
   28.6812  -20.3475  -12.2748 C   0  0  0  0  0  0  0  0  0  0  0  0
   27.3702  -20.2915  -11.8590 C   0  0  0  0  0  0  0  0  0  0  0  0
   26.2953  -19.7141  -12.6930 C   0  0  0  0  0  0  0  0  0  0  0  0
   25.6412  -20.7266  -13.6149 C   0  0  2  0  0  0  0  0  0  0  0  0
   26.4886  -20.7897  -14.7967 N   0  0  0  0  0  0  0  0  0  0  0  0
   24.2501  -20.3688  -13.9615 C   0  0  0  0  0  0  0  0  0  0  0  0
   23.9602  -19.3997  -14.7070 O   0  0  0  0  0  0  0  0  0  0  0  0
   27.0382  -20.7875  -10.6183 C   0  0  0  0  0  0  0  0  0  0  0  0
   28.0187  -21.3423   -9.7875 C   0  0  0  0  0  0  0  0  0  0  0  0
   19.0736  -22.5163  -15.8052 C   0  0  0  0  0  0  0  0  0  0  0  0
   19.6455  -21.4548  -14.8800 C   0  0  0  0  0  0  0  0  0  0  0  0
   21.0613  -21.8301  -14.5798 C   0  0  2  0  0  0  0  0  0  0  0  0
   21.0385  -23.0772  -13.7025 C   0  0  0  0  0  0  0  0  0  0  0  0
   21.7562  -20.7512  -13.7800 C   0  0  2  0  0  0  0  0  0  0  0  0
   23.1229  -21.1174  -13.4605 N   0  0  0  0  0  0  0  0  0  0  0  0
   20.9844  -20.5069  -12.5612 C   0  0  0  0  0  0  0  0  0  0  0  0
   19.8975  -19.8798  -12.5718 O   0  0  0  0  0  0  0  0  0  0  0  0
   21.4495  -20.9741  -11.3430 O   0  0  0  0  0  0  0  0  0  0  0  0
  1  2  1  0
  2  4  1  0
  3  2  2  0
  4  5  1  0
  5  6  1  0
  6  7  1  1
  6  8  1  0
  8  9  2  0
  8 17  1  0
 10 11  1  0
 11 12  2  0
 12 13  1  0
 14 13  2  0
 14 15  1  0
 16 18  1  0
 16 15  1  1
 17 16  1  0
 18 19  2  0
 20 14  1  0
 21 11  1  0
 21 20  2  0
 22 23  1  0
 23 24  1  0
 24 26  1  0
 24 25  1  1
 26 28  1  0
 27 18  1  0
 26 27  1  1
 28 29  2  0
 28 30  1  0
M  END
$$$$
