QYI.pdb
     RDKit          3D

 30 30  0  0  1  0  0  0  0  0999 V2000
   19.7572  -19.6230  -12.5676 N   0  0  0  0  0  0  0  0  0  0  0  0
   20.0079  -21.0062  -12.7653 C   0  0  0  0  0  0  0  0  0  0  0  0
   19.3257  -21.8488  -12.1261 O   0  0  0  0  0  0  0  0  0  0  0  0
   21.0716  -21.4504  -13.7234 C   0  0  0  0  0  0  0  0  0  0  0  0
   22.3238  -21.8624  -12.9636 C   0  0  0  0  0  0  0  0  0  0  0  0
   23.1706  -20.6419  -12.6894 C   0  0  2  0  0  0  0  0  0  0  0  0
   23.6224  -20.0349  -13.9267 N   0  0  0  0  0  0  0  0  0  0  0  0
   24.3659  -20.9584  -11.8661 C   0  0  0  0  0  0  0  0  0  0  0  0
   24.5875  -22.1465  -11.4506 O   0  0  0  0  0  0  0  0  0  0  0  0
   28.5789  -21.4969  -16.7014 O   0  0  0  0  0  0  0  0  0  0  0  0
   28.3643  -21.0415  -15.4106 C   0  0  0  0  0  0  0  0  0  0  0  0
   28.8328  -21.7803  -14.3372 C   0  0  0  0  0  0  0  0  0  0  0  0
   28.6004  -21.2948  -13.0553 C   0  0  0  0  0  0  0  0  0  0  0  0
   27.9253  -20.1147  -12.8392 C   0  0  0  0  0  0  0  0  0  0  0  0
   27.6655  -19.5837  -11.4847 C   0  0  0  0  0  0  0  0  0  0  0  0
   26.5481  -20.3102  -10.7591 C   0  0  2  0  0  0  0  0  0  0  0  0
   25.3296  -19.9883  -11.4874 N   0  0  0  0  0  0  0  0  0  0  0  0
   26.4480  -19.9278   -9.3353 C   0  0  0  0  0  0  0  0  0  0  0  0
   25.6419  -19.0593   -8.9170 O   0  0  0  0  0  0  0  0  0  0  0  0
   27.4681  -19.3958  -13.9208 C   0  0  0  0  0  0  0  0  0  0  0  0
   27.6850  -19.8558  -15.2248 C   0  0  0  0  0  0  0  0  0  0  0  0
   26.4504  -22.7034   -4.5671 C   0  0  0  0  0  0  0  0  0  0  0  0
   26.2199  -21.6059   -5.5928 C   0  0  0  0  0  0  0  0  0  0  0  0
   27.5515  -21.0183   -5.9351 C   0  0  2  0  0  0  0  0  0  0  0  0
   28.0907  -20.3247   -4.6887 C   0  0  0  0  0  0  0  0  0  0  0  0
   27.4227  -19.9537   -7.0012 C   0  0  2  0  0  0  0  0  0  0  0  0
   27.2786  -20.5337   -8.3229 N   0  0  0  0  0  0  0  0  0  0  0  0
   28.6010  -19.0886   -6.9382 C   0  0  0  0  0  0  0  0  0  0  0  0
   29.6561  -19.3481   -7.5661 O   0  0  0  0  0  0  0  0  0  0  0  0
   28.5743  -17.9390   -6.1660 O   0  0  0  0  0  0  0  0  0  0  0  0
  1  2  1  0
  2  4  1  0
  3  2  2  0
  4  5  1  0
  5  6  1  0
  6  7  1  6
  6  8  1  0
  8  9  2  0
  8 17  1  0
 10 11  1  0
 11 12  2  0
 12 13  1  0
 14 13  2  0
 14 15  1  0
 16 18  1  0
 16 15  1  6
 17 16  1  0
 18 19  2  0
 20 14  1  0
 21 11  1  0
 21 20  2  0
 22 23  1  0
 23 24  1  0
 24 26  1  0
 24 25  1  1
 26 28  1  0
 27 18  1  0
 26 27  1  6
 28 29  2  0
 28 30  1  0
M  END
$$$$
