QYI.pdb
     RDKit          3D

 30 30  0  0  1  0  0  0  0  0999 V2000
   27.6529  -16.1218  -19.8252 N   0  0  0  0  0  0  0  0  0  0  0  0
   28.7897  -16.9110  -20.1412 C   0  0  0  0  0  0  0  0  0  0  0  0
   29.1001  -17.0803  -21.3491 O   0  0  0  0  0  0  0  0  0  0  0  0
   29.6049  -17.5313  -19.0469 C   0  0  0  0  0  0  0  0  0  0  0  0
   29.0348  -17.1520  -17.6881 C   0  0  0  0  0  0  0  0  0  0  0  0
   28.6819  -18.4056  -16.9226 C   0  0  2  0  0  0  0  0  0  0  0  0
   28.6066  -19.5512  -17.8089 N   0  0  0  0  0  0  0  0  0  0  0  0
   27.3833  -18.2850  -16.2113 C   0  0  0  0  0  0  0  0  0  0  0  0
   27.2001  -17.3924  -15.3152 O   0  0  0  0  0  0  0  0  0  0  0  0
   18.6940  -18.6305  -14.8580 O   0  0  0  0  0  0  0  0  0  0  0  0
   19.9821  -18.7634  -15.3505 C   0  0  0  0  0  0  0  0  0  0  0  0
   20.5211  -20.0268  -15.5259 C   0  0  0  0  0  0  0  0  0  0  0  0
   21.8162  -20.1245  -16.0220 C   0  0  0  0  0  0  0  0  0  0  0  0
   22.5576  -19.0079  -16.3357 C   0  0  0  0  0  0  0  0  0  0  0  0
   23.9367  -19.0908  -16.8608 C   0  0  0  0  0  0  0  0  0  0  0  0
   24.9972  -19.0108  -15.7784 C   0  0  2  0  0  0  0  0  0  0  0  0
   26.2740  -19.1319  -16.4669 N   0  0  0  0  0  0  0  0  0  0  0  0
   24.8364  -20.0525  -14.7429 C   0  0  0  0  0  0  0  0  0  0  0  0
   24.9770  -21.2784  -14.9806 O   0  0  0  0  0  0  0  0  0  0  0  0
   22.0025  -17.7612  -16.1537 C   0  0  0  0  0  0  0  0  0  0  0  0
   20.7011  -17.6269  -15.6562 C   0  0  0  0  0  0  0  0  0  0  0  0
   27.0968  -20.2778   -9.9252 C   0  0  0  0  0  0  0  0  0  0  0  0
   26.4435  -20.6580  -11.2437 C   0  0  0  0  0  0  0  0  0  0  0  0
   24.9680  -20.4721  -11.0887 C   0  0  2  0  0  0  0  0  0  0  0  0
   24.4705  -21.5019  -10.0801 C   0  0  0  0  0  0  0  0  0  0  0  0
   24.2416  -20.7507  -12.3854 C   0  0  2  0  0  0  0  0  0  0  0  0
   24.5042  -19.7254  -13.3774 N   0  0  0  0  0  0  0  0  0  0  0  0
   22.8092  -20.8476  -12.1037 C   0  0  0  0  0  0  0  0  0  0  0  0
   22.0601  -19.8409  -12.0911 O   0  0  0  0  0  0  0  0  0  0  0  0
   22.2384  -22.0816  -11.8392 O   0  0  0  0  0  0  0  0  0  0  0  0
  1  2  1  0
  2  4  1  0
  3  2  2  0
  4  5  1  0
  5  6  1  0
  6  7  1  6
  6  8  1  0
  8  9  2  0
  8 17  1  0
 10 11  1  0
 11 12  2  0
 12 13  1  0
 14 13  2  0
 14 15  1  0
 16 18  1  0
 16 15  1  6
 17 16  1  0
 18 19  2  0
 20 14  1  0
 21 11  1  0
 21 20  2  0
 22 23  1  0
 23 24  1  0
 24 26  1  0
 24 25  1  1
 26 28  1  0
 27 18  1  0
 26 27  1  6
 28 29  2  0
 28 30  1  0
M  END
$$$$
