QYI.pdb
     RDKit          3D

 30 30  0  0  1  0  0  0  0  0999 V2000
   17.8555  -20.3676  -14.0634 N   0  0  0  0  0  0  0  0  0  0  0  0
   17.9739  -21.6134  -13.3931 C   0  0  0  0  0  0  0  0  0  0  0  0
   17.0468  -22.4574  -13.5030 O   0  0  0  0  0  0  0  0  0  0  0  0
   19.1886  -21.9131  -12.5676 C   0  0  0  0  0  0  0  0  0  0  0  0
   20.0863  -20.6870  -12.4901 C   0  0  0  0  0  0  0  0  0  0  0  0
   20.8004  -20.5019  -13.8084 C   0  0  2  0  0  0  0  0  0  0  0  0
   20.9926  -21.7741  -14.4778 N   0  0  0  0  0  0  0  0  0  0  0  0
   22.1301  -19.8603  -13.6440 C   0  0  0  0  0  0  0  0  0  0  0  0
   22.2596  -18.7595  -13.0077 O   0  0  0  0  0  0  0  0  0  0  0  0
   24.9185  -20.8499   -7.7104 O   0  0  0  0  0  0  0  0  0  0  0  0
   25.0461  -20.8556   -9.0900 C   0  0  0  0  0  0  0  0  0  0  0  0
   24.2009  -21.6439   -9.8526 C   0  0  0  0  0  0  0  0  0  0  0  0
   24.3559  -21.6262  -11.2341 C   0  0  0  0  0  0  0  0  0  0  0  0
   25.3172  -20.8532  -11.8450 C   0  0  0  0  0  0  0  0  0  0  0  0
   25.5000  -20.8232  -13.3113 C   0  0  0  0  0  0  0  0  0  0  0  0
   24.6347  -19.7862  -14.0032 C   0  0  2  0  0  0  0  0  0  0  0  0
   23.3292  -20.4081  -14.1688 N   0  0  0  0  0  0  0  0  0  0  0  0
   25.1955  -19.3455  -15.2973 C   0  0  0  0  0  0  0  0  0  0  0  0
   25.0023  -19.9675  -16.3720 O   0  0  0  0  0  0  0  0  0  0  0  0
   26.1472  -20.0767  -11.0680 C   0  0  0  0  0  0  0  0  0  0  0  0
   26.0182  -20.0709   -9.6742 C   0  0  0  0  0  0  0  0  0  0  0  0
   27.6168  -14.1683  -17.7238 C   0  0  0  0  0  0  0  0  0  0  0  0
   27.2431  -15.6285  -17.9193 C   0  0  0  0  0  0  0  0  0  0  0  0
   26.7867  -16.1604  -16.5985 C   0  0  2  0  0  0  0  0  0  0  0  0
   27.9644  -16.0866  -15.6326 C   0  0  0  0  0  0  0  0  0  0  0  0
   26.4006  -17.6189  -16.6993 C   0  0  2  0  0  0  0  0  0  0  0  0
   26.0098  -18.1599  -15.4113 N   0  0  0  0  0  0  0  0  0  0  0  0
   27.5326  -18.3617  -17.2539 C   0  0  0  0  0  0  0  0  0  0  0  0
   28.3404  -18.9907  -16.5282 O   0  0  0  0  0  0  0  0  0  0  0  0
   27.7397  -18.3857  -18.6233 O   0  0  0  0  0  0  0  0  0  0  0  0
  1  2  1  0
  2  4  1  0
  3  2  2  0
  4  5  1  0
  5  6  1  0
  6  7  1  1
  6  8  1  0
  8  9  2  0
  8 17  1  0
 10 11  1  0
 11 12  2  0
 12 13  1  0
 14 13  2  0
 14 15  1  0
 16 18  1  0
 16 15  1  6
 17 16  1  0
 18 19  2  0
 20 14  1  0
 21 11  1  0
 21 20  2  0
 22 23  1  0
 23 24  1  0
 24 26  1  0
 24 25  1  1
 26 28  1  0
 27 18  1  0
 26 27  1  1
 28 29  2  0
 28 30  1  0
M  END
$$$$
