QYI.pdb
     RDKit          3D

 30 30  0  0  1  0  0  0  0  0999 V2000
   29.8578  -17.5862  -17.8199 N   0  0  0  0  0  0  0  0  0  0  0  0
   29.3644  -18.9154  -17.8889 C   0  0  0  0  0  0  0  0  0  0  0  0
   30.1011  -19.8172  -18.3664 O   0  0  0  0  0  0  0  0  0  0  0  0
   27.9843  -19.2339  -17.3982 C   0  0  0  0  0  0  0  0  0  0  0  0
   27.9457  -19.1945  -15.8777 C   0  0  0  0  0  0  0  0  0  0  0  0
   27.1796  -20.3902  -15.3624 C   0  0  2  0  0  0  0  0  0  0  0  0
   26.2231  -20.8576  -16.3474 N   0  0  0  0  0  0  0  0  0  0  0  0
   26.4424  -20.0897  -14.1082 C   0  0  0  0  0  0  0  0  0  0  0  0
   26.1306  -18.8905  -13.7950 O   0  0  0  0  0  0  0  0  0  0  0  0
   20.4653  -18.9810  -15.7123 O   0  0  0  0  0  0  0  0  0  0  0  0
   21.3335  -19.6168  -14.8395 C   0  0  0  0  0  0  0  0  0  0  0  0
   22.0686  -20.7056  -15.2771 C   0  0  0  0  0  0  0  0  0  0  0  0
   22.9303  -21.3204  -14.3758 C   0  0  0  0  0  0  0  0  0  0  0  0
   23.0626  -20.8736  -13.0805 C   0  0  0  0  0  0  0  0  0  0  0  0
   23.9704  -21.5153  -12.1067 C   0  0  0  0  0  0  0  0  0  0  0  0
   25.3005  -20.7991  -11.9633 C   0  0  2  0  0  0  0  0  0  0  0  0
   26.0382  -21.0879  -13.1844 N   0  0  0  0  0  0  0  0  0  0  0  0
   26.0503  -21.2211  -10.7620 C   0  0  0  0  0  0  0  0  0  0  0  0
   26.4429  -22.4012  -10.5823 O   0  0  0  0  0  0  0  0  0  0  0  0
   22.3223  -19.7893  -12.6661 C   0  0  0  0  0  0  0  0  0  0  0  0
   21.4452  -19.1469  -13.5478 C   0  0  0  0  0  0  0  0  0  0  0  0
   28.9618  -19.2342   -5.7012 C   0  0  0  0  0  0  0  0  0  0  0  0
   28.0343  -20.2677   -6.3188 C   0  0  0  0  0  0  0  0  0  0  0  0
   27.5831  -19.7386   -7.6424 C   0  0  2  0  0  0  0  0  0  0  0  0
   26.7054  -18.5187   -7.3836 C   0  0  0  0  0  0  0  0  0  0  0  0
   26.7208  -20.7455   -8.3698 C   0  0  2  0  0  0  0  0  0  0  0  0
   26.3832  -20.2952   -9.7067 N   0  0  0  0  0  0  0  0  0  0  0  0
   25.5123  -20.9793   -7.5787 C   0  0  0  0  0  0  0  0  0  0  0  0
   25.5096  -21.7161   -6.5630 O   0  0  0  0  0  0  0  0  0  0  0  0
   24.3195  -20.3776   -7.9443 O   0  0  0  0  0  0  0  0  0  0  0  0
  1  2  1  0
  2  4  1  0
  3  2  2  0
  4  5  1  0
  5  6  1  0
  6  7  1  6
  6  8  1  0
  8  9  2  0
  8 17  1  0
 10 11  1  0
 11 12  2  0
 12 13  1  0
 14 13  2  0
 14 15  1  0
 16 18  1  0
 16 15  1  6
 17 16  1  0
 18 19  2  0
 20 14  1  0
 21 11  1  0
 21 20  2  0
 22 23  1  0
 23 24  1  0
 24 26  1  0
 24 25  1  1
 26 28  1  0
 27 18  1  0
 26 27  1  6
 28 29  2  0
 28 30  1  0
M  END
$$$$
