RIC.pdb
     RDKit          3D

 26 25  0  0  1  0  0  0  0  0999 V2000
    7.8198  -12.4281   17.9251 N   0  0  0  0  0  0  0  0  0  0  0  0
    8.2026  -13.7058   17.4548 C   0  0  0  0  0  0  0  0  0  0  0  0
    9.1247  -13.7737   16.5610 N   0  0  0  0  0  0  0  0  0  0  0  0
    7.5948  -14.8891   17.9449 N   0  0  0  0  0  0  0  0  0  0  0  0
    6.6248  -14.8065   19.0166 C   0  0  0  0  0  0  0  0  0  0  0  0
    7.0288  -15.6998   20.1466 C   0  0  0  0  0  0  0  0  0  0  0  0
    7.8462  -15.0031   21.1987 C   0  0  0  0  0  0  0  0  0  0  0  0
    8.1676  -15.9596   22.2975 C   0  0  2  0  0  0  0  0  0  0  0  0
    6.9451  -16.5310   22.8249 N   0  0  0  0  0  0  0  0  0  0  0  0
    8.8643  -15.2740   23.4405 C   0  0  0  0  0  0  0  0  0  0  0  0
    9.9300  -14.6783   23.2798 O   0  0  0  0  0  0  0  0  0  0  0  0
    9.3452  -14.6583   16.0976 C   0  0  0  0  0  0  0  0  0  0  0  0
    6.0612  -12.1561   26.2488 C   0  0  0  0  0  0  0  0  0  0  0  0
    7.2600  -12.8520   25.7398 C   0  0  2  0  0  0  0  0  0  0  0  0
    7.8287  -13.9490   26.5417 C   0  0  0  0  0  0  0  0  0  0  0  0
    8.1100  -13.5817   27.9802 C   0  0  2  0  0  0  0  0  0  0  0  0
    8.8924  -14.8051   25.9381 N   0  0  0  0  0  0  0  0  0  0  0  0
    8.2571  -15.3369   24.6963 C   0  0  0  0  0  0  0  0  0  0  0  0
    9.3428  -15.9707   26.6756 O   0  0  0  0  0  0  0  0  0  0  0  0
    8.4937  -16.8352   27.1053 N   0  0  0  0  0  0  0  0  0  0  0  0
   10.6920  -16.3129   27.0044 C   0  0  1  0  0  0  0  0  0  0  0  0
   11.0382  -17.4961   27.7612 C   0  0  0  0  0  0  0  0  0  0  0  0
   12.3685  -18.0717   27.2673 S   0  0  0  0  0  0  0  0  0  0  0  0
   12.4875  -18.0138   25.4607 C   0  0  0  0  0  0  0  0  0  0  0  0
   11.0229  -17.3484   29.2099 O   0  0  0  0  0  0  0  0  0  0  0  0
   10.8101  -16.2448   29.7594 O   0  0  0  0  0  0  0  0  0  0  0  0
  1  2  1  0
  2  3  2  0
  4  2  1  0
  5  4  1  0
  6  5  1  0
  7  6  1  0
  8  7  1  0
  8  9  1  1
 10 11  2  0
 10  8  1  0
 13 12  1  0
 14 13  1  0
 14 15  1  6
 16 17  1  6
 16 14  1  0
 17 10  1  0
 18 16  1  0
 19 18  2  0
 20 18  1  0
 21 20  1  0
 22 23  1  0
 21 22  1  1
 24 21  1  0
 24 26  1  0
 25 24  2  0
M  END
$$$$
