RIC.pdb
     RDKit          3D

 26 25  0  0  1  0  0  0  0  0999 V2000
    8.5777  -21.9363   14.5480 N   0  0  0  0  0  0  0  0  0  0  0  0
    7.2900  -22.2029   15.0687 C   0  0  0  0  0  0  0  0  0  0  0  0
    6.7660  -23.3539   14.8358 N   0  0  0  0  0  0  0  0  0  0  0  0
    6.5826  -21.2369   15.8279 N   0  0  0  0  0  0  0  0  0  0  0  0
    7.1520  -19.9200   16.0225 C   0  0  0  0  0  0  0  0  0  0  0  0
    8.3336  -20.0000   16.9366 C   0  0  0  0  0  0  0  0  0  0  0  0
    8.2519  -19.0580   18.1056 C   0  0  0  0  0  0  0  0  0  0  0  0
    8.5461  -17.6683   17.6498 C   0  0  2  0  0  0  0  0  0  0  0  0
    9.4187  -17.7045   16.4938 N   0  0  0  0  0  0  0  0  0  0  0  0
    9.2547  -16.8764   18.7141 C   0  0  0  0  0  0  0  0  0  0  0  0
   10.4838  -16.8522   18.7866 O   0  0  0  0  0  0  0  0  0  0  0  0
    5.8268  -23.5827   15.1696 C   0  0  0  0  0  0  0  0  0  0  0  0
    6.6292  -12.3142   19.8414 C   0  0  0  0  0  0  0  0  0  0  0  0
    7.7266  -13.2929   19.7074 C   0  0  2  0  0  0  0  0  0  0  0  0
    7.9915  -14.2092   20.8300 C   0  0  0  0  0  0  0  0  0  0  0  0
    8.0392  -13.5340   22.1810 C   0  0  2  0  0  0  0  0  0  0  0  0
    9.0347  -15.2647   20.6667 N   0  0  0  0  0  0  0  0  0  0  0  0
    8.4661  -16.1661   19.6213 C   0  0  0  0  0  0  0  0  0  0  0  0
    9.3345  -16.1211   21.7990 O   0  0  0  0  0  0  0  0  0  0  0  0
    8.4518  -16.9442   22.2423 N   0  0  0  0  0  0  0  0  0  0  0  0
   10.5614  -16.1815   22.5314 C   0  0  1  0  0  0  0  0  0  0  0  0
   10.7680  -17.0867   23.6408 C   0  0  0  0  0  0  0  0  0  0  0  0
   12.1824  -17.6717   23.5920 S   0  0  0  0  0  0  0  0  0  0  0  0
   12.6166  -18.2215   21.9215 C   0  0  0  0  0  0  0  0  0  0  0  0
   10.4531  -16.5549   24.9594 O   0  0  0  0  0  0  0  0  0  0  0  0
   10.0824  -15.3712   25.1232 O   0  0  0  0  0  0  0  0  0  0  0  0
  1  2  1  0
  2  3  2  0
  4  2  1  0
  5  4  1  0
  6  5  1  0
  7  6  1  0
  8  7  1  0
  8  9  1  6
 10 11  2  0
 10  8  1  0
 13 12  1  0
 14 13  1  0
 14 15  1  1
 16 17  1  6
 16 14  1  0
 17 10  1  0
 18 16  1  0
 19 18  2  0
 20 18  1  0
 21 20  1  0
 22 23  1  0
 21 22  1  1
 24 21  1  0
 24 26  1  0
 25 24  2  0
M  END
$$$$
