RIC.pdb
     RDKit          3D

 26 25  0  0  1  0  0  0  0  0999 V2000
    6.9402  -14.5622   15.8744 N   0  0  0  0  0  0  0  0  0  0  0  0
    8.2825  -14.4268   16.2988 C   0  0  0  0  0  0  0  0  0  0  0  0
    8.8926  -13.3237   16.0444 N   0  0  0  0  0  0  0  0  0  0  0  0
    8.9518  -15.4706   16.9863 N   0  0  0  0  0  0  0  0  0  0  0  0
    8.2717  -16.1811   18.0488 C   0  0  0  0  0  0  0  0  0  0  0  0
    8.4554  -15.4628   19.3483 C   0  0  0  0  0  0  0  0  0  0  0  0
    7.7699  -16.1336   20.5061 C   0  0  0  0  0  0  0  0  0  0  0  0
    7.1243  -15.1033   21.3705 C   0  0  2  0  0  0  0  0  0  0  0  0
    6.8654  -13.9055   20.5976 N   0  0  0  0  0  0  0  0  0  0  0  0
    8.0147  -14.7066   22.5158 C   0  0  0  0  0  0  0  0  0  0  0  0
    9.1552  -14.2825   22.3268 O   0  0  0  0  0  0  0  0  0  0  0  0
    9.8652  -13.1821   16.3269 C   0  0  0  0  0  0  0  0  0  0  0  0
    5.8128  -11.5969   25.9144 C   0  0  0  0  0  0  0  0  0  0  0  0
    6.8328  -12.3822   25.1910 C   0  0  2  0  0  0  0  0  0  0  0  0
    7.3343  -13.6213   25.8099 C   0  0  0  0  0  0  0  0  0  0  0  0
    7.7292  -13.4717   27.2608 C   0  0  2  0  0  0  0  0  0  0  0  0
    8.2739  -14.4840   25.0341 N   0  0  0  0  0  0  0  0  0  0  0  0
    7.5001  -14.8368   23.8073 C   0  0  0  0  0  0  0  0  0  0  0  0
    8.6873  -15.7492   25.6118 O   0  0  0  0  0  0  0  0  0  0  0  0
    7.8086  -16.6105   25.9851 N   0  0  0  0  0  0  0  0  0  0  0  0
   10.0272  -16.1991   25.8297 C   0  0  1  0  0  0  0  0  0  0  0  0
   10.3384  -17.5168   26.3393 C   0  0  0  0  0  0  0  0  0  0  0  0
   11.5916  -18.0686   25.6538 S   0  0  0  0  0  0  0  0  0  0  0  0
   12.9852  -16.9197   25.7927 C   0  0  0  0  0  0  0  0  0  0  0  0
   10.4256  -17.6312   27.7885 O   0  0  0  0  0  0  0  0  0  0  0  0
   10.4131  -16.6255   28.5326 O   0  0  0  0  0  0  0  0  0  0  0  0
  1  2  1  0
  2  3  2  0
  4  2  1  0
  5  4  1  0
  6  5  1  0
  7  6  1  0
  8  7  1  0
  8  9  1  6
 10 11  2  0
 10  8  1  0
 13 12  1  0
 14 13  1  0
 14 15  1  6
 16 17  1  6
 16 14  1  0
 17 10  1  0
 18 16  1  0
 19 18  2  0
 20 18  1  0
 21 20  1  0
 22 23  1  0
 21 22  1  1
 24 21  1  0
 24 26  1  0
 25 24  2  0
M  END
$$$$
