RIC.pdb
     RDKit          3D

 26 25  0  0  1  0  0  0  0  0999 V2000
    6.9108  -15.4428   15.5190 N   0  0  0  0  0  0  0  0  0  0  0  0
    8.1564  -14.7984   15.7021 C   0  0  0  0  0  0  0  0  0  0  0  0
    8.5083  -13.9017   14.8502 N   0  0  0  0  0  0  0  0  0  0  0  0
    9.0059  -15.1220   16.7901 N   0  0  0  0  0  0  0  0  0  0  0  0
    8.6162  -16.1609   17.7202 C   0  0  0  0  0  0  0  0  0  0  0  0
    7.6159  -15.6287   18.6970 C   0  0  0  0  0  0  0  0  0  0  0  0
    8.1400  -15.5399   20.1034 C   0  0  0  0  0  0  0  0  0  0  0  0
    7.6438  -14.2874   20.7441 C   0  0  2  0  0  0  0  0  0  0  0  0
    7.9144  -13.1542   19.8829 N   0  0  0  0  0  0  0  0  0  0  0  0
    8.3373  -14.0241   22.0524 C   0  0  0  0  0  0  0  0  0  0  0  0
    9.4438  -13.4854   22.0967 O   0  0  0  0  0  0  0  0  0  0  0  0
    9.4097  -13.4251   14.9288 C   0  0  0  0  0  0  0  0  0  0  0  0
    5.7809  -11.4756   25.6506 C   0  0  0  0  0  0  0  0  0  0  0  0
    6.8543  -12.1762   24.9175 C   0  0  2  0  0  0  0  0  0  0  0  0
    7.2310  -13.5328   25.3509 C   0  0  0  0  0  0  0  0  0  0  0  0
    7.3803  -13.6846   26.8469 C   0  0  2  0  0  0  0  0  0  0  0  0
    8.2765  -14.2697   24.5811 N   0  0  0  0  0  0  0  0  0  0  0  0
    7.6793  -14.4138   23.2206 C   0  0  0  0  0  0  0  0  0  0  0  0
    8.6228  -15.6153   24.9994 O   0  0  0  0  0  0  0  0  0  0  0  0
    7.7129  -16.5181   25.1010 N   0  0  0  0  0  0  0  0  0  0  0  0
    9.9251  -16.1060   25.3287 C   0  0  1  0  0  0  0  0  0  0  0  0
   10.1749  -17.4842   25.6908 C   0  0  0  0  0  0  0  0  0  0  0  0
   11.3182  -18.0557   24.8473 S   0  0  0  0  0  0  0  0  0  0  0  0
   12.0860  -16.7789   23.8170 C   0  0  0  0  0  0  0  0  0  0  0  0
   10.3764  -17.7397   27.1102 O   0  0  0  0  0  0  0  0  0  0  0  0
   10.3781  -16.8161   27.9541 O   0  0  0  0  0  0  0  0  0  0  0  0
  1  2  1  0
  2  3  2  0
  4  2  1  0
  5  4  1  0
  6  5  1  0
  7  6  1  0
  8  7  1  0
  8  9  1  6
 10 11  2  0
 10  8  1  0
 13 12  1  0
 14 13  1  0
 14 15  1  6
 16 17  1  1
 16 14  1  0
 17 10  1  0
 18 16  1  0
 19 18  2  0
 20 18  1  0
 21 20  1  0
 22 23  1  0
 21 22  1  1
 24 21  1  0
 24 26  1  0
 25 24  2  0
M  END
$$$$
