RIC.pdb
     RDKit          3D

 26 25  0  0  1  0  0  0  0  0999 V2000
    5.9556  -14.1346   16.8119 N   0  0  0  0  0  0  0  0  0  0  0  0
    6.9058  -14.9035   16.1004 C   0  0  0  0  0  0  0  0  0  0  0  0
    6.9903  -14.7401   14.8276 N   0  0  0  0  0  0  0  0  0  0  0  0
    7.7489  -15.8344   16.7581 N   0  0  0  0  0  0  0  0  0  0  0  0
    7.5966  -16.0602   18.1801 C   0  0  0  0  0  0  0  0  0  0  0  0
    7.9166  -14.8101   18.9371 C   0  0  0  0  0  0  0  0  0  0  0  0
    7.8371  -14.9760   20.4292 C   0  0  0  0  0  0  0  0  0  0  0  0
    8.0487  -13.6559   21.0914 C   0  0  2  0  0  0  0  0  0  0  0  0
    8.9811  -12.8618   20.3174 N   0  0  0  0  0  0  0  0  0  0  0  0
    8.6384  -13.8157   22.4657 C   0  0  0  0  0  0  0  0  0  0  0  0
    9.8563  -13.8629   22.6414 O   0  0  0  0  0  0  0  0  0  0  0  0
    7.5985  -15.3341   14.2593 C   0  0  0  0  0  0  0  0  0  0  0  0
    5.7051  -11.2079   26.0658 C   0  0  0  0  0  0  0  0  0  0  0  0
    6.9063  -11.8453   25.4903 C   0  0  2  0  0  0  0  0  0  0  0  0
    7.1111  -13.2871   25.7126 C   0  0  0  0  0  0  0  0  0  0  0  0
    7.0287  -13.7069   27.1618 C   0  0  2  0  0  0  0  0  0  0  0  0
    8.1983  -13.9834   24.9630 N   0  0  0  0  0  0  0  0  0  0  0  0
    7.7520  -13.9088   23.5405 C   0  0  0  0  0  0  0  0  0  0  0  0
    8.4269  -15.3919   25.2267 O   0  0  0  0  0  0  0  0  0  0  0  0
    7.4884  -16.2493   25.0339 N   0  0  0  0  0  0  0  0  0  0  0  0
    9.6360  -15.9945   25.6960 C   0  0  1  0  0  0  0  0  0  0  0  0
    9.7593  -17.4146   25.9428 C   0  0  0  0  0  0  0  0  0  0  0  0
   10.8852  -18.0058   25.0895 S   0  0  0  0  0  0  0  0  0  0  0  0
   11.1802  -19.7469   25.4928 C   0  0  0  0  0  0  0  0  0  0  0  0
    9.8833  -17.8065   27.3398 O   0  0  0  0  0  0  0  0  0  0  0  0
   10.3275  -17.0236   28.2087 O   0  0  0  0  0  0  0  0  0  0  0  0
  1  2  1  0
  2  3  2  0
  4  2  1  0
  5  4  1  0
  6  5  1  0
  7  6  1  0
  8  7  1  0
  8  9  1  6
 10 11  2  0
 10  8  1  0
 13 12  1  0
 14 13  1  0
 14 15  1  6
 16 17  1  1
 16 14  1  0
 17 10  1  0
 18 16  1  0
 19 18  2  0
 20 18  1  0
 21 20  1  0
 22 23  1  0
 21 22  1  1
 24 21  1  0
 24 26  1  0
 25 24  2  0
M  END
$$$$
