RIC.pdb
     RDKit          3D

 26 25  0  0  1  0  0  0  0  0999 V2000
    7.4004  -20.6937   20.0941 N   0  0  0  0  0  0  0  0  0  0  0  0
    7.0564  -20.1961   18.8157 C   0  0  0  0  0  0  0  0  0  0  0  0
    5.9724  -20.6203   18.2693 N   0  0  0  0  0  0  0  0  0  0  0  0
    7.8750  -19.2553   18.1414 N   0  0  0  0  0  0  0  0  0  0  0  0
    8.5636  -18.2309   18.8982 C   0  0  0  0  0  0  0  0  0  0  0  0
    7.5921  -17.4848   19.7571 C   0  0  0  0  0  0  0  0  0  0  0  0
    8.1729  -17.0379   21.0699 C   0  0  0  0  0  0  0  0  0  0  0  0
    8.0158  -15.5609   21.2096 C   0  0  2  0  0  0  0  0  0  0  0  0
    8.5928  -14.8944   20.0598 N   0  0  0  0  0  0  0  0  0  0  0  0
    8.7311  -15.0421   22.4266 C   0  0  0  0  0  0  0  0  0  0  0  0
    9.9477  -14.8518   22.4251 O   0  0  0  0  0  0  0  0  0  0  0  0
    5.7310  -20.3642   17.3091 C   0  0  0  0  0  0  0  0  0  0  0  0
    6.8064  -11.7276   27.1787 C   0  0  0  0  0  0  0  0  0  0  0  0
    7.8418  -12.6220   26.6233 C   0  0  2  0  0  0  0  0  0  0  0  0
    7.5473  -13.3477   25.3756 C   0  0  0  0  0  0  0  0  0  0  0  0
    6.1250  -13.8476   25.2723 C   0  0  2  0  0  0  0  0  0  0  0  0
    8.5497  -14.3254   24.8581 N   0  0  0  0  0  0  0  0  0  0  0  0
    7.9633  -14.7826   23.5636 C   0  0  0  0  0  0  0  0  0  0  0  0
    8.7956  -15.5336   25.6231 O   0  0  0  0  0  0  0  0  0  0  0  0
    7.8960  -16.4491   25.6979 N   0  0  0  0  0  0  0  0  0  0  0  0
    9.9833  -15.8676   26.3464 C   0  0  1  0  0  0  0  0  0  0  0  0
   10.1414  -17.1163   27.0596 C   0  0  0  0  0  0  0  0  0  0  0  0
   11.2576  -17.9517   26.4260 S   0  0  0  0  0  0  0  0  0  0  0  0
   12.6276  -16.9102   25.8608 C   0  0  0  0  0  0  0  0  0  0  0  0
   10.3078  -17.0053   28.5020 O   0  0  0  0  0  0  0  0  0  0  0  0
   10.3909  -15.8957   29.0741 O   0  0  0  0  0  0  0  0  0  0  0  0
  1  2  1  0
  2  3  2  0
  4  2  1  0
  5  4  1  0
  6  5  1  0
  7  6  1  0
  8  7  1  0
  8  9  1  6
 10 11  2  0
 10  8  1  0
 13 12  1  0
 14 13  1  0
 14 15  1  6
 16 17  1  1
 16 14  1  0
 17 10  1  0
 18 16  1  0
 19 18  2  0
 20 18  1  0
 21 20  1  0
 22 23  1  0
 21 22  1  1
 24 21  1  0
 24 26  1  0
 25 24  2  0
M  END
$$$$
