RIC.pdb
     RDKit          3D

 26 25  0  0  1  0  0  0  0  0999 V2000
    6.6972  -19.8622   18.3985 N   0  0  0  0  0  0  0  0  0  0  0  0
    8.1000  -19.9993   18.2815 C   0  0  0  0  0  0  0  0  0  0  0  0
    8.5747  -20.4846   17.1894 N   0  0  0  0  0  0  0  0  0  0  0  0
    8.9726  -19.6174   19.3317 N   0  0  0  0  0  0  0  0  0  0  0  0
    9.0466  -18.2285   19.7335 C   0  0  0  0  0  0  0  0  0  0  0  0
    7.6956  -17.7409   20.1521 C   0  0  0  0  0  0  0  0  0  0  0  0
    7.6585  -17.2126   21.5592 C   0  0  0  0  0  0  0  0  0  0  0  0
    7.7070  -15.7217   21.5353 C   0  0  2  0  0  0  0  0  0  0  0  0
    8.3014  -15.2691   20.2939 N   0  0  0  0  0  0  0  0  0  0  0  0
    8.5526  -15.1786   22.6542 C   0  0  0  0  0  0  0  0  0  0  0  0
    9.7766  -15.0916   22.5514 O   0  0  0  0  0  0  0  0  0  0  0  0
    9.5748  -20.6721   17.0869 C   0  0  0  0  0  0  0  0  0  0  0  0
    7.0708  -11.3382   27.1707 C   0  0  0  0  0  0  0  0  0  0  0  0
    8.0506  -12.3003   26.6277 C   0  0  2  0  0  0  0  0  0  0  0  0
    7.6303  -13.1855   25.5278 C   0  0  0  0  0  0  0  0  0  0  0  0
    6.2382  -13.7512   25.6871 C   0  0  2  0  0  0  0  0  0  0  0  0
    8.6068  -14.1784   24.9899 N   0  0  0  0  0  0  0  0  0  0  0  0
    7.8977  -14.7746   23.8194 C   0  0  0  0  0  0  0  0  0  0  0  0
    8.9854  -15.2998   25.8292 O   0  0  0  0  0  0  0  0  0  0  0  0
    8.2199  -16.3286   25.9224 N   0  0  0  0  0  0  0  0  0  0  0  0
   10.1756  -15.4259   26.6120 C   0  0  1  0  0  0  0  0  0  0  0  0
   10.4855  -16.6108   27.3819 C   0  0  0  0  0  0  0  0  0  0  0  0
   11.6607  -17.3621   26.7498 S   0  0  0  0  0  0  0  0  0  0  0  0
   11.2793  -17.8908   25.0598 C   0  0  0  0  0  0  0  0  0  0  0  0
   10.6867  -16.4042   28.8093 O   0  0  0  0  0  0  0  0  0  0  0  0
   10.5630  -15.2768   29.3376 O   0  0  0  0  0  0  0  0  0  0  0  0
  1  2  1  0
  2  3  2  0
  4  2  1  0
  5  4  1  0
  6  5  1  0
  7  6  1  0
  8  7  1  0
  8  9  1  6
 10 11  2  0
 10  8  1  0
 13 12  1  0
 14 13  1  0
 14 15  1  6
 16 17  1  1
 16 14  1  0
 17 10  1  0
 18 16  1  0
 19 18  2  0
 20 18  1  0
 21 20  1  0
 22 23  1  0
 21 22  1  1
 24 21  1  0
 24 26  1  0
 25 24  2  0
M  END
$$$$
