RIC.pdb
     RDKit          3D

 26 25  0  0  1  0  0  0  0  0999 V2000
    6.8248  -14.7576   15.8357 N   0  0  0  0  0  0  0  0  0  0  0  0
    7.5801  -15.9361   16.0381 C   0  0  0  0  0  0  0  0  0  0  0  0
    8.1810  -16.4547   15.0264 N   0  0  0  0  0  0  0  0  0  0  0  0
    7.6808  -16.5419   17.3159 N   0  0  0  0  0  0  0  0  0  0  0  0
    6.8974  -16.0254   18.4185 C   0  0  0  0  0  0  0  0  0  0  0  0
    7.4312  -14.6965   18.8512 C   0  0  0  0  0  0  0  0  0  0  0  0
    8.1367  -14.7372   20.1783 C   0  0  0  0  0  0  0  0  0  0  0  0
    7.7404  -13.5513   20.9921 C   0  0  2  0  0  0  0  0  0  0  0  0
    8.1451  -12.3347   20.3174 N   0  0  0  0  0  0  0  0  0  0  0  0
    8.4124  -13.5553   22.3376 C   0  0  0  0  0  0  0  0  0  0  0  0
    9.5990  -13.2515   22.4647 O   0  0  0  0  0  0  0  0  0  0  0  0
    8.7074  -17.3269   15.1163 C   0  0  0  0  0  0  0  0  0  0  0  0
    5.8092  -11.4021   26.4037 C   0  0  0  0  0  0  0  0  0  0  0  0
    6.8498  -11.9982   25.5422 C   0  0  2  0  0  0  0  0  0  0  0  0
    7.1435  -13.4345   25.6870 C   0  0  0  0  0  0  0  0  0  0  0  0
    7.2045  -13.9116   27.1194 C   0  0  2  0  0  0  0  0  0  0  0  0
    8.1965  -14.0443   24.8221 N   0  0  0  0  0  0  0  0  0  0  0  0
    7.6398  -13.9173   23.4429 C   0  0  0  0  0  0  0  0  0  0  0  0
    8.4999  -15.4531   24.9920 O   0  0  0  0  0  0  0  0  0  0  0  0
    7.5641  -16.3320   24.9211 N   0  0  0  0  0  0  0  0  0  0  0  0
    9.7837  -16.0336   25.2368 C   0  0  1  0  0  0  0  0  0  0  0  0
    9.9749  -17.4518   25.4492 C   0  0  0  0  0  0  0  0  0  0  0  0
   11.1089  -17.9732   24.5619 S   0  0  0  0  0  0  0  0  0  0  0  0
   11.0070  -17.2936   22.8859 C   0  0  0  0  0  0  0  0  0  0  0  0
   10.1437  -17.8678   26.8345 O   0  0  0  0  0  0  0  0  0  0  0  0
   10.1953  -17.0401   27.7714 O   0  0  0  0  0  0  0  0  0  0  0  0
  1  2  1  0
  2  3  2  0
  4  2  1  0
  5  4  1  0
  6  5  1  0
  7  6  1  0
  8  7  1  0
  8  9  1  6
 10 11  2  0
 10  8  1  0
 13 12  1  0
 14 13  1  0
 14 15  1  6
 16 17  1  1
 16 14  1  0
 17 10  1  0
 18 16  1  0
 19 18  2  0
 20 18  1  0
 21 20  1  0
 22 23  1  0
 21 22  1  1
 24 21  1  0
 24 26  1  0
 25 24  2  0
M  END
$$$$
