RIC.pdb
     RDKit          3D

 26 25  0  0  1  0  0  0  0  0999 V2000
    8.6607  -21.0203   21.5412 N   0  0  0  0  0  0  0  0  0  0  0  0
    8.0102  -21.2514   20.3068 C   0  0  0  0  0  0  0  0  0  0  0  0
    8.4721  -22.1740   19.5393 N   0  0  0  0  0  0  0  0  0  0  0  0
    6.8788  -20.4939   19.9116 N   0  0  0  0  0  0  0  0  0  0  0  0
    6.4791  -19.3414   20.6914 C   0  0  0  0  0  0  0  0  0  0  0  0
    7.5596  -18.3069   20.6721 C   0  0  0  0  0  0  0  0  0  0  0  0
    7.7988  -17.6649   22.0104 C   0  0  0  0  0  0  0  0  0  0  0  0
    7.7983  -16.1806   21.8605 C   0  0  2  0  0  0  0  0  0  0  0  0
    8.4345  -15.8125   20.6120 N   0  0  0  0  0  0  0  0  0  0  0  0
    8.5720  -15.5138   22.9645 C   0  0  0  0  0  0  0  0  0  0  0  0
    9.7682  -15.2483   22.8419 O   0  0  0  0  0  0  0  0  0  0  0  0
    8.0505  -22.3600   18.6263 C   0  0  0  0  0  0  0  0  0  0  0  0
    5.8527  -11.7864   25.4391 C   0  0  0  0  0  0  0  0  0  0  0  0
    6.9403  -12.6534   24.9432 C   0  0  2  0  0  0  0  0  0  0  0  0
    7.5174  -13.6506   25.8611 C   0  0  0  0  0  0  0  0  0  0  0  0
    7.8613  -13.1063   27.2282 C   0  0  2  0  0  0  0  0  0  0  0  0
    8.5397  -14.6042   25.3373 N   0  0  0  0  0  0  0  0  0  0  0  0
    7.8828  -15.2048   24.1389 C   0  0  0  0  0  0  0  0  0  0  0  0
    8.9301  -15.7256   26.1712 O   0  0  0  0  0  0  0  0  0  0  0  0
    8.0378  -16.4286   26.7735 N   0  0  0  0  0  0  0  0  0  0  0  0
   10.2595  -16.1884   26.4242 C   0  0  1  0  0  0  0  0  0  0  0  0
   10.5453  -17.3268   27.2699 C   0  0  0  0  0  0  0  0  0  0  0  0
   11.6982  -18.1469   26.6840 S   0  0  0  0  0  0  0  0  0  0  0  0
   11.8728  -17.8692   24.9025 C   0  0  0  0  0  0  0  0  0  0  0  0
   10.7602  -17.0307   28.6794 O   0  0  0  0  0  0  0  0  0  0  0  0
   10.9694  -17.9337   29.5198 O   0  0  0  0  0  0  0  0  0  0  0  0
  1  2  1  0
  2  3  2  0
  4  2  1  0
  5  4  1  0
  6  5  1  0
  7  6  1  0
  8  7  1  0
  8  9  1  6
 10 11  2  0
 10  8  1  0
 13 12  1  0
 14 13  1  0
 14 15  1  1
 16 17  1  6
 16 14  1  0
 17 10  1  0
 18 16  1  0
 19 18  2  0
 20 18  1  0
 21 20  1  0
 22 23  1  0
 21 22  1  1
 24 21  1  0
 24 26  1  0
 25 24  2  0
M  END
$$$$
