RIC.pdb
     RDKit          3D

 26 25  0  0  1  0  0  0  0  0999 V2000
    6.9049  -21.5209   21.5010 N   0  0  0  0  0  0  0  0  0  0  0  0
    6.6158  -21.1471   20.1679 C   0  0  0  0  0  0  0  0  0  0  0  0
    5.7813  -21.8643   19.5024 N   0  0  0  0  0  0  0  0  0  0  0  0
    7.2224  -20.0153   19.5670 N   0  0  0  0  0  0  0  0  0  0  0  0
    8.1960  -19.2437   20.3106 C   0  0  0  0  0  0  0  0  0  0  0  0
    7.8255  -17.7943   20.2942 C   0  0  0  0  0  0  0  0  0  0  0  0
    8.4085  -17.0136   21.4392 C   0  0  0  0  0  0  0  0  0  0  0  0
    7.8124  -15.6464   21.4674 C   0  0  2  0  0  0  0  0  0  0  0  0
    8.0915  -14.9626   20.2209 N   0  0  0  0  0  0  0  0  0  0  0  0
    8.3995  -14.8106   22.5713 C   0  0  0  0  0  0  0  0  0  0  0  0
    9.4626  -14.2066   22.4249 O   0  0  0  0  0  0  0  0  0  0  0  0
    5.5940  -21.6750   18.5151 C   0  0  0  0  0  0  0  0  0  0  0  0
    6.2693  -11.5963   27.2085 C   0  0  0  0  0  0  0  0  0  0  0  0
    7.2582  -12.6277   26.8360 C   0  0  2  0  0  0  0  0  0  0  0  0
    7.1025  -13.3153   25.5425 C   0  0  0  0  0  0  0  0  0  0  0  0
    5.7667  -13.9983   25.3623 C   0  0  2  0  0  0  0  0  0  0  0  0
    8.2451  -14.1159   25.0111 N   0  0  0  0  0  0  0  0  0  0  0  0
    7.6932  -14.7432   23.7740 C   0  0  0  0  0  0  0  0  0  0  0  0
    8.7513  -15.2143   25.8128 O   0  0  0  0  0  0  0  0  0  0  0  0
    8.0320  -16.2623   26.0063 N   0  0  0  0  0  0  0  0  0  0  0  0
   10.0278  -15.2961   26.4525 C   0  0  1  0  0  0  0  0  0  0  0  0
   10.4607  -16.4621   27.1913 C   0  0  0  0  0  0  0  0  0  0  0  0
   11.8249  -16.9366   26.6824 S   0  0  0  0  0  0  0  0  0  0  0  0
   12.2482  -16.1650   25.0991 C   0  0  0  0  0  0  0  0  0  0  0  0
   10.4444  -16.3349   28.6419 O   0  0  0  0  0  0  0  0  0  0  0  0
   10.1465  -15.2595   29.2076 O   0  0  0  0  0  0  0  0  0  0  0  0
  1  2  1  0
  2  3  2  0
  4  2  1  0
  5  4  1  0
  6  5  1  0
  7  6  1  0
  8  7  1  0
  8  9  1  6
 10 11  2  0
 10  8  1  0
 13 12  1  0
 14 13  1  0
 14 15  1  6
 16 17  1  1
 16 14  1  0
 17 10  1  0
 18 16  1  0
 19 18  2  0
 20 18  1  0
 21 20  1  0
 22 23  1  0
 21 22  1  1
 24 21  1  0
 24 26  1  0
 25 24  2  0
M  END
$$$$
