RIC.pdb
     RDKit          3D

 26 25  0  0  1  0  0  0  0  0999 V2000
    8.8394  -22.0806   15.9544 N   0  0  0  0  0  0  0  0  0  0  0  0
   10.2369  -21.9766   16.1455 C   0  0  0  0  0  0  0  0  0  0  0  0
   11.0103  -22.6067   15.3339 N   0  0  0  0  0  0  0  0  0  0  0  0
   10.7858  -21.2032   17.1993 N   0  0  0  0  0  0  0  0  0  0  0  0
    9.9060  -20.5844   18.1684 C   0  0  0  0  0  0  0  0  0  0  0  0
    9.1688  -19.4442   17.5402 C   0  0  0  0  0  0  0  0  0  0  0  0
   10.0658  -18.4701   16.8282 C   0  0  0  0  0  0  0  0  0  0  0  0
    9.4510  -17.1111   16.8563 C   0  0  2  0  0  0  0  0  0  0  0  0
    9.7970  -16.3900   15.6482 N   0  0  0  0  0  0  0  0  0  0  0  0
    9.9580  -16.2994   18.0164 C   0  0  0  0  0  0  0  0  0  0  0  0
   11.1415  -15.9702   18.1026 O   0  0  0  0  0  0  0  0  0  0  0  0
   12.0256  -22.5930   15.4559 C   0  0  0  0  0  0  0  0  0  0  0  0
    6.6267  -12.3818   19.6020 C   0  0  0  0  0  0  0  0  0  0  0  0
    7.8720  -13.1556   19.4263 C   0  0  2  0  0  0  0  0  0  0  0  0
    8.1640  -14.2419   20.3776 C   0  0  0  0  0  0  0  0  0  0  0  0
    7.9413  -13.8719   21.8256 C   0  0  2  0  0  0  0  0  0  0  0  0
    9.3862  -15.0730   20.1676 N   0  0  0  0  0  0  0  0  0  0  0  0
    9.0351  -15.9302   18.9970 C   0  0  0  0  0  0  0  0  0  0  0  0
    9.7861  -15.9914   21.2175 O   0  0  0  0  0  0  0  0  0  0  0  0
    9.1476  -17.0932   21.3943 N   0  0  0  0  0  0  0  0  0  0  0  0
   10.8692  -15.8284   22.1371 C   0  0  1  0  0  0  0  0  0  0  0  0
   11.2016  -16.8170   23.1395 C   0  0  0  0  0  0  0  0  0  0  0  0
   12.7040  -16.7891   23.4348 S   0  0  0  0  0  0  0  0  0  0  0  0
   13.1492  -17.9783   24.7267 C   0  0  0  0  0  0  0  0  0  0  0  0
   10.4138  -16.7680   24.3633 O   0  0  0  0  0  0  0  0  0  0  0  0
    9.8696  -15.7124   24.7570 O   0  0  0  0  0  0  0  0  0  0  0  0
  1  2  1  0
  2  3  2  0
  4  2  1  0
  5  4  1  0
  6  5  1  0
  7  6  1  0
  8  7  1  0
  8  9  1  6
 10 11  2  0
 10  8  1  0
 13 12  1  0
 14 13  1  0
 14 15  1  6
 16 17  1  1
 16 14  1  0
 17 10  1  0
 18 16  1  0
 19 18  2  0
 20 18  1  0
 21 20  1  0
 22 23  1  0
 21 22  1  1
 24 21  1  0
 24 26  1  0
 25 24  2  0
M  END
$$$$
