RIC.pdb
     RDKit          3D

 26 25  0  0  1  0  0  0  0  0999 V2000
    8.3012  -20.0310   17.8871 N   0  0  0  0  0  0  0  0  0  0  0  0
    8.6462  -19.1313   16.8518 C   0  0  0  0  0  0  0  0  0  0  0  0
    8.1735  -19.3474   15.6755 N   0  0  0  0  0  0  0  0  0  0  0  0
    9.4903  -18.0170   17.0883 N   0  0  0  0  0  0  0  0  0  0  0  0
   10.0028  -17.7754   18.4207 C   0  0  0  0  0  0  0  0  0  0  0  0
    8.8750  -17.4975   19.3636 C   0  0  0  0  0  0  0  0  0  0  0  0
    9.3281  -17.1528   20.7551 C   0  0  0  0  0  0  0  0  0  0  0  0
    8.1396  -16.9838   21.6408 C   0  0  2  0  0  0  0  0  0  0  0  0
    6.9450  -16.8277   20.8360 N   0  0  0  0  0  0  0  0  0  0  0  0
    8.2596  -15.7533   22.4973 C   0  0  0  0  0  0  0  0  0  0  0  0
    8.1402  -14.6241   22.0210 O   0  0  0  0  0  0  0  0  0  0  0  0
    8.4737  -18.7854   14.8755 C   0  0  0  0  0  0  0  0  0  0  0  0
    5.8265  -12.7855   26.4197 C   0  0  0  0  0  0  0  0  0  0  0  0
    7.1950  -13.2054   26.0572 C   0  0  2  0  0  0  0  0  0  0  0  0
    7.3619  -14.3950   25.2045 C   0  0  0  0  0  0  0  0  0  0  0  0
    6.4839  -15.5619   25.5926 C   0  0  2  0  0  0  0  0  0  0  0  0
    8.7405  -14.8074   24.8066 N   0  0  0  0  0  0  0  0  0  0  0  0
    8.5124  -15.9374   23.8581 C   0  0  0  0  0  0  0  0  0  0  0  0
    9.6278  -15.3295   25.8291 O   0  0  0  0  0  0  0  0  0  0  0  0
    9.8486  -16.5933   25.9136 N   0  0  0  0  0  0  0  0  0  0  0  0
   10.3413  -14.5783   26.8149 C   0  0  1  0  0  0  0  0  0  0  0  0
   11.1695  -15.1992   27.8255 C   0  0  0  0  0  0  0  0  0  0  0  0
   11.6829  -14.1460   28.8116 S   0  0  0  0  0  0  0  0  0  0  0  0
   11.4435  -12.4672   28.1747 C   0  0  0  0  0  0  0  0  0  0  0  0
   10.5798  -16.3377   28.5161 O   0  0  0  0  0  0  0  0  0  0  0  0
    9.3694  -16.6299   28.3942 O   0  0  0  0  0  0  0  0  0  0  0  0
  1  2  1  0
  2  3  2  0
  4  2  1  0
  5  4  1  0
  6  5  1  0
  7  6  1  0
  8  7  1  0
  8  9  1  6
 10 11  2  0
 10  8  1  0
 13 12  1  0
 14 13  1  0
 14 15  1  6
 16 17  1  1
 16 14  1  0
 17 10  1  0
 18 16  1  0
 19 18  2  0
 20 18  1  0
 21 20  1  0
 22 23  1  0
 21 22  1  1
 24 21  1  0
 24 26  1  0
 25 24  2  0
M  END
$$$$
