RIC.pdb
     RDKit          3D

 26 25  0  0  1  0  0  0  0  0999 V2000
    6.7877  -16.3909   17.4183 N   0  0  0  0  0  0  0  0  0  0  0  0
    5.7685  -17.3707   17.3822 C   0  0  0  0  0  0  0  0  0  0  0  0
    5.2323  -17.6491   16.2470 N   0  0  0  0  0  0  0  0  0  0  0  0
    5.3377  -18.0363   18.5575 N   0  0  0  0  0  0  0  0  0  0  0  0
    5.8383  -17.6103   19.8476 C   0  0  0  0  0  0  0  0  0  0  0  0
    7.3340  -17.5798   19.8349 C   0  0  0  0  0  0  0  0  0  0  0  0
    7.9377  -17.2273   21.1660 C   0  0  0  0  0  0  0  0  0  0  0  0
    8.1170  -15.7492   21.2583 C   0  0  2  0  0  0  0  0  0  0  0  0
    8.9379  -15.2840   20.1589 N   0  0  0  0  0  0  0  0  0  0  0  0
    8.8171  -15.3562   22.5301 C   0  0  0  0  0  0  0  0  0  0  0  0
   10.0397  -15.4475   22.6458 O   0  0  0  0  0  0  0  0  0  0  0  0
    4.5289  -18.3867   16.1631 C   0  0  0  0  0  0  0  0  0  0  0  0
    5.9940  -11.6685   25.5693 C   0  0  0  0  0  0  0  0  0  0  0  0
    7.1004  -12.4270   24.9520 C   0  0  2  0  0  0  0  0  0  0  0  0
    7.4835  -13.7192   25.5465 C   0  0  0  0  0  0  0  0  0  0  0  0
    7.5574  -13.7076   27.0557 C   0  0  2  0  0  0  0  0  0  0  0  0
    8.5839  -14.5046   24.9132 N   0  0  0  0  0  0  0  0  0  0  0  0
    8.0282  -14.8817   23.5799 C   0  0  0  0  0  0  0  0  0  0  0  0
    8.9884  -15.7521   25.5341 O   0  0  0  0  0  0  0  0  0  0  0  0
    8.1312  -16.6919   25.7219 N   0  0  0  0  0  0  0  0  0  0  0  0
   10.2985  -16.1023   25.9885 C   0  0  1  0  0  0  0  0  0  0  0  0
   10.5991  -17.3748   26.6076 C   0  0  0  0  0  0  0  0  0  0  0  0
   11.9090  -17.9397   26.0506 S   0  0  0  0  0  0  0  0  0  0  0  0
   12.4138  -19.4393   26.9325 C   0  0  0  0  0  0  0  0  0  0  0  0
   10.5851  -17.3899   28.0637 O   0  0  0  0  0  0  0  0  0  0  0  0
   10.9110  -16.3877   28.7381 O   0  0  0  0  0  0  0  0  0  0  0  0
  1  2  1  0
  2  3  2  0
  4  2  1  0
  5  4  1  0
  6  5  1  0
  7  6  1  0
  8  7  1  0
  8  9  1  6
 10 11  2  0
 10  8  1  0
 13 12  1  0
 14 13  1  0
 14 15  1  6
 16 17  1  1
 16 14  1  0
 17 10  1  0
 18 16  1  0
 19 18  2  0
 20 18  1  0
 21 20  1  0
 22 23  1  0
 21 22  1  1
 24 21  1  0
 24 26  1  0
 25 24  2  0
M  END
$$$$
