DPG.pdb
     RDKit          3D

 20 20  0  0  1  0  0  0  0  0999 V2000
    9.4758  -16.8980   16.2865 N   0  0  0  0  0  0  0  0  0  0  0  0
    8.4946  -16.5131   17.3025 C   0  0  1  0  0  0  0  0  0  0  0  0
    7.7851  -17.7832   17.7881 C   0  0  0  0  0  0  0  0  0  0  0  0
    7.1454  -18.5277   16.6898 C   0  0  0  0  0  0  0  0  0  0  0  0
    6.2440  -17.9776   16.0146 O   0  0  0  0  0  0  0  0  0  0  0  0
    9.1963  -15.8386   18.3905 C   0  0  0  0  0  0  0  0  0  0  0  0
   10.3851  -16.2395   18.6404 O   0  0  0  0  0  0  0  0  0  0  0  0
    7.5136  -19.8134   16.3868 O   0  0  0  0  0  0  0  0  0  0  0  0
    8.6903  -14.7793   19.1975 N   0  0  0  0  0  0  0  0  0  0  0  0
    7.3343  -14.2332   18.9897 C   0  0  0  0  0  0  0  0  0  0  0  0
    7.5855  -12.7533   19.1840 C   0  0  0  0  0  0  0  0  0  0  0  0
    8.3851  -12.8005   20.4887 C   0  0  0  0  0  0  0  0  0  0  0  0
    9.2445  -14.0554   20.2944 C   0  0  1  0  0  0  0  0  0  0  0  0
    9.1581  -14.8022   21.5798 C   0  0  0  0  0  0  0  0  0  0  0  0
    8.0586  -14.9198   22.1801 O   0  0  0  0  0  0  0  0  0  0  0  0
   10.2840  -15.4141   22.1946 N   0  0  0  0  0  0  0  0  0  0  0  0
   10.4207  -15.4120   23.6340 C   0  0  0  0  0  0  0  0  0  0  0  0
   11.6535  -16.0339   24.1098 C   0  0  0  0  0  0  0  0  0  0  0  0
   11.5786  -17.2099   24.5524 O   0  0  0  0  0  0  0  0  0  0  0  0
   12.9050  -15.4372   24.1156 O   0  0  0  0  0  0  0  0  0  0  0  0
  2  1  1  6
  2  3  1  0
  3  4  1  0
  4  8  1  0
  5  4  2  0
  6  7  2  0
  6  2  1  0
  9  6  1  0
 10  9  1  0
 11 12  1  0
 11 10  1  0
 12 13  1  0
 13 14  1  1
 13  9  1  0
 14 15  2  0
 16 17  1  0
 16 14  1  0
 17 18  1  0
 18 20  1  0
 19 18  2  0
M  END
$$$$
