DPG.pdb
     RDKit          3D

 20 20  0  0  1  0  0  0  0  0999 V2000
    8.2136  -14.0401   21.5681 N   0  0  0  0  0  0  0  0  0  0  0  0
    7.4329  -14.6057   22.6697 C   0  0  1  0  0  0  0  0  0  0  0  0
    7.2674  -16.1093   22.4164 C   0  0  0  0  0  0  0  0  0  0  0  0
    6.6279  -16.8054   23.5461 C   0  0  0  0  0  0  0  0  0  0  0  0
    7.3425  -17.3798   24.4009 O   0  0  0  0  0  0  0  0  0  0  0  0
    8.1407  -14.3449   23.9195 C   0  0  0  0  0  0  0  0  0  0  0  0
    9.3695  -14.6973   23.9658 O   0  0  0  0  0  0  0  0  0  0  0  0
    5.2644  -16.8402   23.6862 O   0  0  0  0  0  0  0  0  0  0  0  0
    7.6004  -13.7357   25.0885 N   0  0  0  0  0  0  0  0  0  0  0  0
    6.2253  -13.1982   25.1112 C   0  0  0  0  0  0  0  0  0  0  0  0
    6.4250  -11.9264   25.9072 C   0  0  0  0  0  0  0  0  0  0  0  0
    7.2300  -12.4864   27.0830 C   0  0  0  0  0  0  0  0  0  0  0  0
    8.1323  -13.5167   26.3936 C   0  0  1  0  0  0  0  0  0  0  0  0
    8.0764  -14.7336   27.2499 C   0  0  0  0  0  0  0  0  0  0  0  0
    6.9844  -15.1248   27.7374 O   0  0  0  0  0  0  0  0  0  0  0  0
    9.2244  -15.5110   27.5631 N   0  0  0  0  0  0  0  0  0  0  0  0
    9.6878  -15.6112   28.9290 C   0  0  0  0  0  0  0  0  0  0  0  0
   10.9114  -16.3941   29.0803 C   0  0  0  0  0  0  0  0  0  0  0  0
   11.3071  -16.6348   30.2507 O   0  0  0  0  0  0  0  0  0  0  0  0
   11.6778  -16.8975   28.0403 O   0  0  0  0  0  0  0  0  0  0  0  0
  2  1  1  6
  2  3  1  0
  3  4  1  0
  4  8  1  0
  5  4  2  0
  6  7  2  0
  6  2  1  0
  9  6  1  0
 10  9  1  0
 11 12  1  0
 11 10  1  0
 12 13  1  0
 13 14  1  1
 13  9  1  0
 14 15  2  0
 16 17  1  0
 16 14  1  0
 17 18  1  0
 18 20  1  0
 19 18  2  0
M  END
$$$$
