DPG.pdb
     RDKit          3D

 20 20  0  0  1  0  0  0  0  0999 V2000
    9.5424  -15.8408   15.0680 N   0  0  0  0  0  0  0  0  0  0  0  0
    8.6314  -15.7504   16.2103 C   0  0  1  0  0  0  0  0  0  0  0  0
    8.0961  -17.1565   16.5081 C   0  0  0  0  0  0  0  0  0  0  0  0
    7.4014  -17.7525   15.3540 C   0  0  0  0  0  0  0  0  0  0  0  0
    6.6465  -17.0389   14.6526 O   0  0  0  0  0  0  0  0  0  0  0  0
    9.3671  -15.2025   17.3460 C   0  0  0  0  0  0  0  0  0  0  0  0
   10.6201  -15.4559   17.3923 O   0  0  0  0  0  0  0  0  0  0  0  0
    7.5613  -19.0745   15.0268 O   0  0  0  0  0  0  0  0  0  0  0  0
    8.8295  -14.4134   18.4032 N   0  0  0  0  0  0  0  0  0  0  0  0
    7.3954  -14.0649   18.4515 C   0  0  0  0  0  0  0  0  0  0  0  0
    7.4625  -12.6287   18.9244 C   0  0  0  0  0  0  0  0  0  0  0  0
    8.4251  -12.7941   20.1034 C   0  0  0  0  0  0  0  0  0  0  0  0
    9.4171  -13.8324   19.5657 C   0  0  1  0  0  0  0  0  0  0  0  0
    9.6044  -14.8151   20.6687 C   0  0  0  0  0  0  0  0  0  0  0  0
    8.6312  -15.4831   21.1042 O   0  0  0  0  0  0  0  0  0  0  0  0
   10.8631  -15.0548   21.2840 N   0  0  0  0  0  0  0  0  0  0  0  0
   10.9448  -15.8321   22.5005 C   0  0  0  0  0  0  0  0  0  0  0  0
   12.3050  -15.9915   23.0077 C   0  0  0  0  0  0  0  0  0  0  0  0
   12.4499  -16.5877   24.1068 O   0  0  0  0  0  0  0  0  0  0  0  0
   13.4557  -15.5403   22.3793 O   0  0  0  0  0  0  0  0  0  0  0  0
  2  1  1  6
  2  3  1  0
  3  4  1  0
  4  8  1  0
  5  4  2  0
  6  7  2  0
  6  2  1  0
  9  6  1  0
 10  9  1  0
 11 12  1  0
 11 10  1  0
 12 13  1  0
 13 14  1  1
 13  9  1  0
 14 15  2  0
 16 17  1  0
 16 14  1  0
 17 18  1  0
 18 20  1  0
 19 18  2  0
M  END
$$$$
