DPG.pdb
     RDKit          3D

 20 20  0  0  1  0  0  0  0  0999 V2000
   10.1369  -15.6234   15.5552 N   0  0  0  0  0  0  0  0  0  0  0  0
    9.0247  -15.3396   16.4637 C   0  0  1  0  0  0  0  0  0  0  0  0
    8.1749  -16.6100   16.5914 C   0  0  0  0  0  0  0  0  0  0  0  0
    7.8658  -17.2163   15.2850 C   0  0  0  0  0  0  0  0  0  0  0  0
    7.9002  -16.5070   14.2521 O   0  0  0  0  0  0  0  0  0  0  0  0
    9.5739  -14.9272   17.7519 C   0  0  0  0  0  0  0  0  0  0  0  0
   10.8026  -15.2105   17.9675 O   0  0  0  0  0  0  0  0  0  0  0  0
    7.5401  -18.5434   15.1709 O   0  0  0  0  0  0  0  0  0  0  0  0
    8.8794  -14.2401   18.7887 N   0  0  0  0  0  0  0  0  0  0  0  0
    7.4686  -13.8332   18.6320 C   0  0  0  0  0  0  0  0  0  0  0  0
    7.4885  -12.4652   19.2793 C   0  0  0  0  0  0  0  0  0  0  0  0
    8.2243  -12.8090   20.5772 C   0  0  0  0  0  0  0  0  0  0  0  0
    9.2682  -13.8238   20.0963 C   0  0  1  0  0  0  0  0  0  0  0  0
    9.2333  -14.9339   21.0882 C   0  0  0  0  0  0  0  0  0  0  0  0
    8.2110  -15.6582   21.2040 O   0  0  0  0  0  0  0  0  0  0  0  0
   10.3253  -15.2380   21.9457 N   0  0  0  0  0  0  0  0  0  0  0  0
   10.2511  -16.3625   22.8515 C   0  0  0  0  0  0  0  0  0  0  0  0
   11.3937  -16.4678   23.7551 C   0  0  0  0  0  0  0  0  0  0  0  0
   12.3745  -15.7077   23.5437 O   0  0  0  0  0  0  0  0  0  0  0  0
   11.4908  -17.3372   24.8308 O   0  0  0  0  0  0  0  0  0  0  0  0
  2  1  1  6
  2  3  1  0
  3  4  1  0
  4  8  1  0
  5  4  2  0
  6  7  2  0
  6  2  1  0
  9  6  1  0
 10  9  1  0
 11 12  1  0
 11 10  1  0
 12 13  1  0
 13 14  1  1
 13  9  1  0
 14 15  2  0
 16 17  1  0
 16 14  1  0
 17 18  1  0
 18 20  1  0
 19 18  2  0
M  END
$$$$
