DPG.pdb
     RDKit          3D

 20 20  0  0  1  0  0  0  0  0999 V2000
    8.3448  -13.8309   21.2191 N   0  0  0  0  0  0  0  0  0  0  0  0
    7.3286  -13.7207   22.2671 C   0  0  1  0  0  0  0  0  0  0  0  0
    6.2722  -14.8060   22.0254 C   0  0  0  0  0  0  0  0  0  0  0  0
    6.8473  -16.0375   21.4575 C   0  0  0  0  0  0  0  0  0  0  0  0
    7.9601  -16.4443   21.8666 O   0  0  0  0  0  0  0  0  0  0  0  0
    7.9813  -13.8834   23.5627 C   0  0  0  0  0  0  0  0  0  0  0  0
    9.1240  -14.4583   23.5598 O   0  0  0  0  0  0  0  0  0  0  0  0
    6.1921  -16.7528   20.4883 O   0  0  0  0  0  0  0  0  0  0  0  0
    7.4741  -13.4640   24.8261 N   0  0  0  0  0  0  0  0  0  0  0  0
    6.1727  -12.7761   24.9435 C   0  0  0  0  0  0  0  0  0  0  0  0
    6.4923  -11.7288   25.9884 C   0  0  0  0  0  0  0  0  0  0  0  0
    7.1806  -12.6128   27.0319 C   0  0  0  0  0  0  0  0  0  0  0  0
    7.9792  -13.5842   26.1545 C   0  0  1  0  0  0  0  0  0  0  0  0
    7.7470  -14.9340   26.7389 C   0  0  0  0  0  0  0  0  0  0  0  0
    6.7128  -15.5890   26.4485 O   0  0  0  0  0  0  0  0  0  0  0  0
    8.6564  -15.5524   27.6394 N   0  0  0  0  0  0  0  0  0  0  0  0
    9.1418  -16.8900   27.3829 C   0  0  0  0  0  0  0  0  0  0  0  0
   10.5982  -16.9984   27.3823 C   0  0  0  0  0  0  0  0  0  0  0  0
   11.2013  -16.7263   26.3115 O   0  0  0  0  0  0  0  0  0  0  0  0
   11.3769  -17.3770   28.4651 O   0  0  0  0  0  0  0  0  0  0  0  0
  2  1  1  6
  2  3  1  0
  3  4  1  0
  4  8  1  0
  5  4  2  0
  6  7  2  0
  6  2  1  0
  9  6  1  0
 10  9  1  0
 11 12  1  0
 11 10  1  0
 12 13  1  0
 13 14  1  1
 13  9  1  0
 14 15  2  0
 16 17  1  0
 16 14  1  0
 17 18  1  0
 18 20  1  0
 19 18  2  0
M  END
$$$$
