DPG.pdb
     RDKit          3D

 20 20  0  0  1  0  0  0  0  0999 V2000
    7.9212  -15.9149   22.5145 N   0  0  0  0  0  0  0  0  0  0  0  0
    7.2647  -15.6287   23.7912 C   0  0  1  0  0  0  0  0  0  0  0  0
    7.1369  -16.9443   24.5692 C   0  0  0  0  0  0  0  0  0  0  0  0
    6.5225  -18.0168   23.7680 C   0  0  0  0  0  0  0  0  0  0  0  0
    5.7135  -17.7204   22.8576 O   0  0  0  0  0  0  0  0  0  0  0  0
    8.0701  -14.6504   24.5161 C   0  0  0  0  0  0  0  0  0  0  0  0
    9.2962  -14.5464   24.1662 O   0  0  0  0  0  0  0  0  0  0  0  0
    6.8154  -19.3370   23.9947 O   0  0  0  0  0  0  0  0  0  0  0  0
    7.6262  -13.8005   25.5696 N   0  0  0  0  0  0  0  0  0  0  0  0
    6.2737  -13.9324   26.1473 C   0  0  0  0  0  0  0  0  0  0  0  0
    5.8945  -12.4787   26.3309 C   0  0  0  0  0  0  0  0  0  0  0  0
    7.1620  -11.9710   27.0235 C   0  0  0  0  0  0  0  0  0  0  0  0
    8.2625  -12.7461   26.2891 C   0  0  1  0  0  0  0  0  0  0  0  0
    9.1778  -13.2451   27.3524 C   0  0  0  0  0  0  0  0  0  0  0  0
    9.7717  -12.4408   28.1163 O   0  0  0  0  0  0  0  0  0  0  0  0
    9.4321  -14.6271   27.5666 N   0  0  0  0  0  0  0  0  0  0  0  0
   10.2533  -15.0547   28.6771 C   0  0  0  0  0  0  0  0  0  0  0  0
   10.3948  -16.5046   28.7813 C   0  0  0  0  0  0  0  0  0  0  0  0
   10.8050  -16.9718   29.8758 O   0  0  0  0  0  0  0  0  0  0  0  0
   10.1146  -17.4145   27.7734 O   0  0  0  0  0  0  0  0  0  0  0  0
  2  1  1  6
  2  3  1  0
  3  4  1  0
  4  8  1  0
  5  4  2  0
  6  7  2  0
  6  2  1  0
  9  6  1  0
 10  9  1  0
 11 12  1  0
 11 10  1  0
 12 13  1  0
 13 14  1  1
 13  9  1  0
 14 15  2  0
 16 17  1  0
 16 14  1  0
 17 18  1  0
 18 20  1  0
 19 18  2  0
M  END
$$$$
