DPG.pdb
     RDKit          3D

 20 20  0  0  1  0  0  0  0  0999 V2000
   10.0538  -15.6716   15.1747 N   0  0  0  0  0  0  0  0  0  0  0  0
    8.9720  -15.4404   16.1334 C   0  0  1  0  0  0  0  0  0  0  0  0
    8.1426  -16.7263   16.2384 C   0  0  0  0  0  0  0  0  0  0  0  0
    7.6133  -17.1649   14.9356 C   0  0  0  0  0  0  0  0  0  0  0  0
    7.1706  -16.3120   14.1309 O   0  0  0  0  0  0  0  0  0  0  0  0
    9.5624  -15.0741   17.4173 C   0  0  0  0  0  0  0  0  0  0  0  0
   10.7684  -15.4493   17.6205 O   0  0  0  0  0  0  0  0  0  0  0  0
    7.5932  -18.4891   14.5803 O   0  0  0  0  0  0  0  0  0  0  0  0
    8.9311  -14.3398   18.4620 N   0  0  0  0  0  0  0  0  0  0  0  0
    7.5260  -13.8989   18.3531 C   0  0  0  0  0  0  0  0  0  0  0  0
    7.6094  -12.5146   18.9592 C   0  0  0  0  0  0  0  0  0  0  0  0
    8.3907  -12.8421   20.2344 C   0  0  0  0  0  0  0  0  0  0  0  0
    9.3863  -13.8981   19.7395 C   0  0  1  0  0  0  0  0  0  0  0  0
    9.3648  -14.9789   20.7637 C   0  0  0  0  0  0  0  0  0  0  0  0
    8.3365  -15.6848   20.9292 O   0  0  0  0  0  0  0  0  0  0  0  0
   10.4768  -15.2741   21.5984 N   0  0  0  0  0  0  0  0  0  0  0  0
   10.3941  -16.3359   22.5763 C   0  0  0  0  0  0  0  0  0  0  0  0
   11.6375  -16.5609   23.3084 C   0  0  0  0  0  0  0  0  0  0  0  0
   11.9685  -15.7049   24.1698 O   0  0  0  0  0  0  0  0  0  0  0  0
   12.4885  -17.6418   23.1351 O   0  0  0  0  0  0  0  0  0  0  0  0
  2  1  1  6
  2  3  1  0
  3  4  1  0
  4  8  1  0
  5  4  2  0
  6  7  2  0
  6  2  1  0
  9  6  1  0
 10  9  1  0
 11 12  1  0
 11 10  1  0
 12 13  1  0
 13 14  1  1
 13  9  1  0
 14 15  2  0
 16 17  1  0
 16 14  1  0
 17 18  1  0
 18 20  1  0
 19 18  2  0
M  END
$$$$
