DPG.pdb
     RDKit          3D

 20 20  0  0  1  0  0  0  0  0999 V2000
    9.3590  -15.0664   14.5409 N   0  0  0  0  0  0  0  0  0  0  0  0
    8.6177  -15.4929   15.7290 C   0  0  1  0  0  0  0  0  0  0  0  0
    8.5068  -17.0224   15.7004 C   0  0  0  0  0  0  0  0  0  0  0  0
    7.8554  -17.5186   14.4759 C   0  0  0  0  0  0  0  0  0  0  0  0
    8.4167  -18.4099   13.7964 O   0  0  0  0  0  0  0  0  0  0  0  0
    9.3338  -15.0269   16.9127 C   0  0  0  0  0  0  0  0  0  0  0  0
   10.6026  -15.1904   16.9154 O   0  0  0  0  0  0  0  0  0  0  0  0
    6.6448  -17.0273   14.0597 O   0  0  0  0  0  0  0  0  0  0  0  0
    8.7613  -14.4074   18.0606 N   0  0  0  0  0  0  0  0  0  0  0  0
    7.3180  -14.1041   18.1327 C   0  0  0  0  0  0  0  0  0  0  0  0
    7.3405  -12.7473   18.8031 C   0  0  0  0  0  0  0  0  0  0  0  0
    8.2912  -13.0532   19.9636 C   0  0  0  0  0  0  0  0  0  0  0  0
    9.3175  -13.9812   19.3029 C   0  0  1  0  0  0  0  0  0  0  0  0
    9.5159  -15.1041   20.2605 C   0  0  0  0  0  0  0  0  0  0  0  0
    8.7422  -16.0963   20.2540 O   0  0  0  0  0  0  0  0  0  0  0  0
   10.5656  -15.1258   21.2186 N   0  0  0  0  0  0  0  0  0  0  0  0
   10.8997  -16.3521   21.9078 C   0  0  0  0  0  0  0  0  0  0  0  0
   11.9094  -16.1861   22.9499 C   0  0  0  0  0  0  0  0  0  0  0  0
   13.1024  -16.0225   22.5832 O   0  0  0  0  0  0  0  0  0  0  0  0
   11.6653  -16.1933   24.3147 O   0  0  0  0  0  0  0  0  0  0  0  0
  2  1  1  6
  2  3  1  0
  3  4  1  0
  4  8  1  0
  5  4  2  0
  6  7  2  0
  6  2  1  0
  9  6  1  0
 10  9  1  0
 11 12  1  0
 11 10  1  0
 12 13  1  0
 13 14  1  1
 13  9  1  0
 14 15  2  0
 16 17  1  0
 16 14  1  0
 17 18  1  0
 18 20  1  0
 19 18  2  0
M  END
$$$$
