DPG.pdb
     RDKit          3D

 20 20  0  0  1  0  0  0  0  0999 V2000
    8.6176  -17.4850   16.7920 N   0  0  0  0  0  0  0  0  0  0  0  0
    7.7180  -16.8785   17.7748 C   0  0  1  0  0  0  0  0  0  0  0  0
    6.7086  -17.9436   18.2211 C   0  0  0  0  0  0  0  0  0  0  0  0
    6.2790  -18.8140   17.1131 C   0  0  0  0  0  0  0  0  0  0  0  0
    5.7156  -18.3083   16.1142 O   0  0  0  0  0  0  0  0  0  0  0  0
    8.5178  -16.3916   18.8949 C   0  0  0  0  0  0  0  0  0  0  0  0
    9.5755  -17.0547   19.1739 O   0  0  0  0  0  0  0  0  0  0  0  0
    6.4816  -20.1698   17.1479 O   0  0  0  0  0  0  0  0  0  0  0  0
    8.2389  -15.2527   19.7038 N   0  0  0  0  0  0  0  0  0  0  0  0
    7.1033  -14.3567   19.4068 C   0  0  0  0  0  0  0  0  0  0  0  0
    7.7205  -13.0040   19.6894 C   0  0  0  0  0  0  0  0  0  0  0  0
    8.3521  -13.2929   21.0538 C   0  0  0  0  0  0  0  0  0  0  0  0
    8.8602  -14.7286   20.8758 C   0  0  1  0  0  0  0  0  0  0  0  0
    8.4572  -15.4517   22.1135 C   0  0  0  0  0  0  0  0  0  0  0  0
    7.3792  -15.1704   22.6981 O   0  0  0  0  0  0  0  0  0  0  0  0
    9.2453  -16.4799   22.6985 N   0  0  0  0  0  0  0  0  0  0  0  0
   10.6410  -16.2494   22.9972 C   0  0  0  0  0  0  0  0  0  0  0  0
   10.9104  -16.0204   24.4142 C   0  0  0  0  0  0  0  0  0  0  0  0
   11.3162  -14.8778   24.7520 O   0  0  0  0  0  0  0  0  0  0  0  0
   10.7564  -16.9581   25.4239 O   0  0  0  0  0  0  0  0  0  0  0  0
  2  1  1  6
  2  3  1  0
  3  4  1  0
  4  8  1  0
  5  4  2  0
  6  7  2  0
  6  2  1  0
  9  6  1  0
 10  9  1  0
 11 12  1  0
 11 10  1  0
 12 13  1  0
 13 14  1  1
 13  9  1  0
 14 15  2  0
 16 17  1  0
 16 14  1  0
 17 18  1  0
 18 20  1  0
 19 18  2  0
M  END
$$$$
