DPG.pdb
     RDKit          3D

 20 20  0  0  1  0  0  0  0  0999 V2000
    9.4766  -16.3375   15.4209 N   0  0  0  0  0  0  0  0  0  0  0  0
    8.5384  -15.9563   16.4780 C   0  0  1  0  0  0  0  0  0  0  0  0
    7.7633  -17.2091   16.9046 C   0  0  0  0  0  0  0  0  0  0  0  0
    7.1152  -17.8865   15.7684 C   0  0  0  0  0  0  0  0  0  0  0  0
    6.3602  -17.2337   15.0102 O   0  0  0  0  0  0  0  0  0  0  0  0
    9.2982  -15.3890   17.5879 C   0  0  0  0  0  0  0  0  0  0  0  0
   10.5106  -15.7782   17.7097 O   0  0  0  0  0  0  0  0  0  0  0  0
    7.3187  -19.2194   15.5190 O   0  0  0  0  0  0  0  0  0  0  0  0
    8.8250  -14.4454   18.5445 N   0  0  0  0  0  0  0  0  0  0  0  0
    7.4762  -13.8536   18.4402 C   0  0  0  0  0  0  0  0  0  0  0  0
    7.7580  -12.4199   18.8351 C   0  0  0  0  0  0  0  0  0  0  0  0
    8.5773  -12.6627   20.1055 C   0  0  0  0  0  0  0  0  0  0  0  0
    9.4100  -13.8916   19.7215 C   0  0  1  0  0  0  0  0  0  0  0  0
    9.3302  -14.8099   20.8910 C   0  0  0  0  0  0  0  0  0  0  0  0
    8.2440  -15.3673   21.1955 O   0  0  0  0  0  0  0  0  0  0  0  0
   10.4480  -15.1076   21.7169 N   0  0  0  0  0  0  0  0  0  0  0  0
   10.3094  -16.0152   22.8339 C   0  0  0  0  0  0  0  0  0  0  0  0
   11.5559  -16.2560   23.5558 C   0  0  0  0  0  0  0  0  0  0  0  0
   11.5009  -16.9741   24.5881 O   0  0  0  0  0  0  0  0  0  0  0  0
   12.8003  -15.7590   23.1997 O   0  0  0  0  0  0  0  0  0  0  0  0
  2  1  1  6
  2  3  1  0
  3  4  1  0
  4  8  1  0
  5  4  2  0
  6  7  2  0
  6  2  1  0
  9  6  1  0
 10  9  1  0
 11 12  1  0
 11 10  1  0
 12 13  1  0
 13 14  1  1
 13  9  1  0
 14 15  2  0
 16 17  1  0
 16 14  1  0
 17 18  1  0
 18 20  1  0
 19 18  2  0
M  END
$$$$
