DPG.pdb
     RDKit          3D

 20 20  0  0  1  0  0  0  0  0999 V2000
    8.4313  -16.8051   16.0457 N   0  0  0  0  0  0  0  0  0  0  0  0
    7.6732  -16.2283   17.1573 C   0  0  1  0  0  0  0  0  0  0  0  0
    6.8157  -17.3378   17.7786 C   0  0  0  0  0  0  0  0  0  0  0  0
    7.5775  -18.5768   18.0117 C   0  0  0  0  0  0  0  0  0  0  0  0
    7.0436  -19.5199   18.6415 O   0  0  0  0  0  0  0  0  0  0  0  0
    8.6178  -15.6735   18.1222 C   0  0  0  0  0  0  0  0  0  0  0  0
    9.8203  -16.1053   18.0594 O   0  0  0  0  0  0  0  0  0  0  0  0
    8.8618  -18.7242   17.5544 O   0  0  0  0  0  0  0  0  0  0  0  0
    8.3342  -14.6994   19.1222 N   0  0  0  0  0  0  0  0  0  0  0  0
    6.9976  -14.0827   19.2394 C   0  0  0  0  0  0  0  0  0  0  0  0
    7.3672  -12.6466   19.5425 C   0  0  0  0  0  0  0  0  0  0  0  0
    8.3917  -12.8776   20.6565 C   0  0  0  0  0  0  0  0  0  0  0  0
    9.1246  -14.1315   20.1649 C   0  0  1  0  0  0  0  0  0  0  0  0
    9.2354  -15.0217   21.3534 C   0  0  0  0  0  0  0  0  0  0  0  0
    8.2447  -15.6888   21.7492 O   0  0  0  0  0  0  0  0  0  0  0  0
   10.4373  -15.1705   22.0975 N   0  0  0  0  0  0  0  0  0  0  0  0
   10.5401  -16.1843   23.1232 C   0  0  0  0  0  0  0  0  0  0  0  0
   11.8520  -16.2454   23.7620 C   0  0  0  0  0  0  0  0  0  0  0  0
   11.9998  -17.0595   24.7106 O   0  0  0  0  0  0  0  0  0  0  0  0
   12.9536  -15.4800   23.4114 O   0  0  0  0  0  0  0  0  0  0  0  0
  2  1  1  6
  2  3  1  0
  3  4  1  0
  4  8  1  0
  5  4  2  0
  6  7  2  0
  6  2  1  0
  9  6  1  0
 10  9  1  0
 11 12  1  0
 11 10  1  0
 12 13  1  0
 13 14  1  1
 13  9  1  0
 14 15  2  0
 16 17  1  0
 16 14  1  0
 17 18  1  0
 18 20  1  0
 19 18  2  0
M  END
$$$$
