HTP.pdb
     RDKit          3D

 25 26  0  0  1  0  0  0  0  0999 V2000
    7.7631  -16.6972   20.0564 N   0  0  0  0  0  0  0  0  0  0  0  0
    7.7836  -15.4313   20.7601 C   0  0  1  0  0  0  0  0  0  0  0  0
    6.9999  -14.4148   19.9584 C   0  0  0  0  0  0  0  0  0  0  0  0
    7.6878  -14.1237   18.6943 C   0  0  0  0  0  0  0  0  0  0  0  0
    8.5617  -13.1104   18.3585 C   0  0  0  0  0  0  0  0  0  0  0  0
    8.9239  -13.2657   17.0844 N   0  0  0  0  0  0  0  0  0  0  0  0
    8.3035  -14.3481   16.6063 C   0  0  0  0  0  0  0  0  0  0  0  0
    7.5495  -14.8773   17.5769 N   0  0  0  0  0  0  0  0  0  0  0  0
    7.1768  -15.5710   22.1261 C   0  0  0  0  0  0  0  0  0  0  0  0
    6.0349  -16.0500   22.2079 O   0  0  0  0  0  0  0  0  0  0  0  0
    6.1350  -17.1319   23.6128 C   0  0  0  0  0  0  0  0  0  0  0  0
    7.1479  -16.8645   24.7713 C   0  0  1  0  0  0  0  0  0  0  0  0
    8.2238  -17.6914   24.4848 O   0  0  0  0  0  0  0  0  0  0  0  0
    7.4956  -15.4248   24.6411 C   0  0  2  0  0  0  0  0  0  0  0  0
    7.9106  -15.1594   23.2667 N   0  0  0  0  0  0  0  0  0  0  0  0
    8.4784  -14.8853   25.5858 C   0  0  0  0  0  0  0  0  0  0  0  0
    9.7098  -15.2147   25.3363 O   0  0  0  0  0  0  0  0  0  0  0  0
    8.2137  -14.0692   26.6982 N   0  0  0  0  0  0  0  0  0  0  0  0
    6.8847  -13.5539   26.9719 C   0  0  0  0  0  0  0  0  0  0  0  0
    7.1902  -12.2059   27.5807 C   0  0  0  0  0  0  0  0  0  0  0  0
    8.2333  -12.6678   28.6163 C   0  0  0  0  0  0  0  0  0  0  0  0
    9.0897  -13.6024   27.7219 C   0  0  1  0  0  0  0  0  0  0  0  0
    9.5955  -14.6340   28.6410 C   0  0  0  0  0  0  0  0  0  0  0  0
    9.1443  -15.9371   28.6797 O   0  0  0  0  0  0  0  0  0  0  0  0
   10.5021  -14.2991   29.4467 O   0  0  0  0  0  0  0  0  0  0  0  0
  2  1  1  6
  3  4  1  0
  3  2  1  0
  4  8  1  0
  5  6  1  0
  5  4  2  0
  6  7  1  0
  7  8  2  0
  9 10  2  0
  9  2  1  0
 12 11  1  6
 12 14  1  0
 13 12  1  0
 14 15  1  6
 15  9  1  0
 16 17  2  0
 16 14  1  0
 18 19  1  0
 18 16  1  0
 19 20  1  0
 20 21  1  0
 22 18  1  0
 22 21  1  0
 22 23  1  1
 24 23  1  0
 25 23  2  0
M  END
$$$$
