HTP.pdb
     RDKit          3D

 25 26  0  0  1  0  0  0  0  0999 V2000
   11.5128  -16.8069   20.0349 N   0  0  0  0  0  0  0  0  0  0  0  0
   10.7977  -17.0836   21.2637 C   0  0  1  0  0  0  0  0  0  0  0  0
   11.7508  -17.7242   22.2493 C   0  0  0  0  0  0  0  0  0  0  0  0
   11.9878  -19.1279   21.8893 C   0  0  0  0  0  0  0  0  0  0  0  0
   11.1421  -20.2176   21.9133 C   0  0  0  0  0  0  0  0  0  0  0  0
   11.8164  -21.2887   21.4930 N   0  0  0  0  0  0  0  0  0  0  0  0
   13.0635  -20.9062   21.2044 C   0  0  0  0  0  0  0  0  0  0  0  0
   13.1784  -19.5943   21.4418 N   0  0  0  0  0  0  0  0  0  0  0  0
   10.2397  -15.8201   21.8519 C   0  0  0  0  0  0  0  0  0  0  0  0
   10.9697  -14.8166   21.8703 O   0  0  0  0  0  0  0  0  0  0  0  0
    7.2333  -13.9800   20.9529 C   0  0  0  0  0  0  0  0  0  0  0  0
    6.9573  -14.4251   22.4243 C   0  0  1  0  0  0  0  0  0  0  0  0
    6.2394  -15.6049   22.2976 O   0  0  0  0  0  0  0  0  0  0  0  0
    8.3064  -14.6484   23.0083 C   0  0  2  0  0  0  0  0  0  0  0  0
    8.9174  -15.8060   22.3619 N   0  0  0  0  0  0  0  0  0  0  0  0
    8.3926  -14.7716   24.4667 C   0  0  0  0  0  0  0  0  0  0  0  0
    9.0875  -15.7854   24.8863 O   0  0  0  0  0  0  0  0  0  0  0  0
    7.8106  -13.9166   25.4174 N   0  0  0  0  0  0  0  0  0  0  0  0
    7.0501  -12.7429   25.0290 C   0  0  0  0  0  0  0  0  0  0  0  0
    7.3751  -11.7759   26.1427 C   0  0  0  0  0  0  0  0  0  0  0  0
    7.0869  -12.7115   27.3324 C   0  0  0  0  0  0  0  0  0  0  0  0
    7.8197  -13.9878   26.8415 C   0  0  1  0  0  0  0  0  0  0  0  0
    7.0553  -15.1016   27.4244 C   0  0  0  0  0  0  0  0  0  0  0  0
    7.1911  -15.5496   28.7221 O   0  0  0  0  0  0  0  0  0  0  0  0
    6.2213  -15.6835   26.6833 O   0  0  0  0  0  0  0  0  0  0  0  0
  2  1  1  6
  3  4  1  0
  3  2  1  0
  4  8  1  0
  5  6  1  0
  5  4  2  0
  6  7  1  0
  7  8  2  0
  9 10  2  0
  9  2  1  0
 12 11  1  6
 12 14  1  0
 13 12  1  0
 14 15  1  6
 15  9  1  0
 16 17  2  0
 16 14  1  0
 18 19  1  0
 18 16  1  0
 19 20  1  0
 20 21  1  0
 22 18  1  0
 22 21  1  0
 22 23  1  6
 24 23  1  0
 25 23  2  0
M  END
$$$$
