HTP.pdb
     RDKit          3D

 25 26  0  0  1  0  0  0  0  0999 V2000
   11.5970  -17.1463   20.4454 N   0  0  0  0  0  0  0  0  0  0  0  0
   11.1879  -17.1842   21.8343 C   0  0  1  0  0  0  0  0  0  0  0  0
   12.4186  -17.3378   22.7015 C   0  0  0  0  0  0  0  0  0  0  0  0
   12.9022  -18.7236   22.6577 C   0  0  0  0  0  0  0  0  0  0  0  0
   12.2154  -19.9183   22.7218 C   0  0  0  0  0  0  0  0  0  0  0  0
   13.0936  -20.9188   22.6413 N   0  0  0  0  0  0  0  0  0  0  0  0
   14.3151  -20.3896   22.5283 C   0  0  0  0  0  0  0  0  0  0  0  0
   14.2102  -19.0557   22.5372 N   0  0  0  0  0  0  0  0  0  0  0  0
   10.4612  -15.9256   22.2105 C   0  0  0  0  0  0  0  0  0  0  0  0
   10.9950  -14.8410   21.9297 O   0  0  0  0  0  0  0  0  0  0  0  0
    7.3243  -14.7704   21.1816 C   0  0  0  0  0  0  0  0  0  0  0  0
    7.0859  -14.8960   22.7200 C   0  0  1  0  0  0  0  0  0  0  0  0
    6.4921  -16.1397   22.8755 O   0  0  0  0  0  0  0  0  0  0  0  0
    8.4470  -14.8448   23.3164 C   0  0  2  0  0  0  0  0  0  0  0  0
    9.2066  -16.0069   22.8650 N   0  0  0  0  0  0  0  0  0  0  0  0
    8.5348  -14.7103   24.7736 C   0  0  0  0  0  0  0  0  0  0  0  0
    9.3175  -15.5700   25.3526 O   0  0  0  0  0  0  0  0  0  0  0  0
    7.8705  -13.7634   25.5710 N   0  0  0  0  0  0  0  0  0  0  0  0
    7.1818  -12.6234   24.9940 C   0  0  0  0  0  0  0  0  0  0  0  0
    7.4034  -11.5595   26.0428 C   0  0  0  0  0  0  0  0  0  0  0  0
    6.9672  -12.3759   27.2745 C   0  0  0  0  0  0  0  0  0  0  0  0
    7.7224  -13.7004   26.9878 C   0  0  1  0  0  0  0  0  0  0  0  0
    6.8756  -14.7462   27.5827 C   0  0  0  0  0  0  0  0  0  0  0  0
    6.9334  -15.1432   28.9026 O   0  0  0  0  0  0  0  0  0  0  0  0
    6.0427  -15.3158   26.8309 O   0  0  0  0  0  0  0  0  0  0  0  0
  2  1  1  6
  3  4  1  0
  3  2  1  0
  4  8  1  0
  5  6  1  0
  5  4  2  0
  6  7  1  0
  7  8  2  0
  9 10  2  0
  9  2  1  0
 12 11  1  6
 12 14  1  0
 13 12  1  0
 14 15  1  1
 15  9  1  0
 16 17  2  0
 16 14  1  0
 18 19  1  0
 18 16  1  0
 19 20  1  0
 20 21  1  0
 22 18  1  0
 22 21  1  0
 22 23  1  6
 24 23  1  0
 25 23  2  0
M  END
$$$$
