HTP.pdb
     RDKit          3D

 25 26  0  0  1  0  0  0  0  0999 V2000
    8.4370  -16.5247   19.6177 N   0  0  0  0  0  0  0  0  0  0  0  0
    8.5382  -15.3192   20.4144 C   0  0  1  0  0  0  0  0  0  0  0  0
    8.1747  -14.1313   19.5502 C   0  0  0  0  0  0  0  0  0  0  0  0
    9.2996  -13.7745   18.6764 C   0  0  0  0  0  0  0  0  0  0  0  0
   10.2333  -12.7642   18.7796 C   0  0  0  0  0  0  0  0  0  0  0  0
   11.0628  -12.8434   17.7383 N   0  0  0  0  0  0  0  0  0  0  0  0
   10.6792  -13.8749   16.9807 C   0  0  0  0  0  0  0  0  0  0  0  0
    9.6082  -14.4479   17.5420 N   0  0  0  0  0  0  0  0  0  0  0  0
    7.6151  -15.3826   21.5966 C   0  0  0  0  0  0  0  0  0  0  0  0
    6.4804  -15.8541   21.4226 O   0  0  0  0  0  0  0  0  0  0  0  0
    6.1783  -16.7681   22.7591 C   0  0  0  0  0  0  0  0  0  0  0  0
    6.8622  -16.5455   24.1455 C   0  0  1  0  0  0  0  0  0  0  0  0
    7.9124  -17.4512   24.1600 O   0  0  0  0  0  0  0  0  0  0  0  0
    7.3359  -15.1366   24.1085 C   0  0  2  0  0  0  0  0  0  0  0  0
    8.0555  -14.9107   22.8585 N   0  0  0  0  0  0  0  0  0  0  0  0
    8.1297  -14.6671   25.2482 C   0  0  0  0  0  0  0  0  0  0  0  0
    9.3725  -15.0444   25.2372 O   0  0  0  0  0  0  0  0  0  0  0  0
    7.6793  -13.8699   26.3137 N   0  0  0  0  0  0  0  0  0  0  0  0
    6.3032  -13.4170   26.4038 C   0  0  0  0  0  0  0  0  0  0  0  0
    6.4612  -12.0600   27.0475 C   0  0  0  0  0  0  0  0  0  0  0  0
    7.3740  -12.4797   28.2156 C   0  0  0  0  0  0  0  0  0  0  0  0
    8.3859  -13.3695   27.4466 C   0  0  1  0  0  0  0  0  0  0  0  0
    8.8087  -14.3820   28.4267 C   0  0  0  0  0  0  0  0  0  0  0  0
    9.7493  -14.1712   29.4137 O   0  0  0  0  0  0  0  0  0  0  0  0
    8.2729  -15.5183   28.3551 O   0  0  0  0  0  0  0  0  0  0  0  0
  2  1  1  6
  3  4  1  0
  3  2  1  0
  4  8  1  0
  5  6  1  0
  5  4  2  0
  6  7  1  0
  7  8  2  0
  9 10  2  0
  9  2  1  0
 12 11  1  6
 12 14  1  0
 13 12  1  0
 14 15  1  6
 15  9  1  0
 16 17  2  0
 16 14  1  0
 18 19  1  0
 18 16  1  0
 19 20  1  0
 20 21  1  0
 22 18  1  0
 22 21  1  0
 22 23  1  1
 24 23  1  0
 25 23  2  0
M  END
$$$$
