HTP.pdb
     RDKit          3D

 25 26  0  0  1  0  0  0  0  0999 V2000
    7.7918  -16.5992   19.7657 N   0  0  0  0  0  0  0  0  0  0  0  0
    7.8127  -15.3790   20.5458 C   0  0  1  0  0  0  0  0  0  0  0  0
    7.0964  -14.2931   19.7725 C   0  0  0  0  0  0  0  0  0  0  0  0
    7.9258  -13.8358   18.6504 C   0  0  0  0  0  0  0  0  0  0  0  0
    8.8309  -12.7982   18.5654 C   0  0  0  0  0  0  0  0  0  0  0  0
    9.3387  -12.7765   17.3323 N   0  0  0  0  0  0  0  0  0  0  0  0
    8.7799  -13.7708   16.6367 C   0  0  0  0  0  0  0  0  0  0  0  0
    7.9194  -14.4212   17.4285 N   0  0  0  0  0  0  0  0  0  0  0  0
    7.1373  -15.5820   21.8711 C   0  0  0  0  0  0  0  0  0  0  0  0
    6.0528  -16.1852   21.8836 O   0  0  0  0  0  0  0  0  0  0  0  0
    6.1889  -17.2037   23.2604 C   0  0  0  0  0  0  0  0  0  0  0  0
    6.9968  -16.8154   24.5394 C   0  0  1  0  0  0  0  0  0  0  0  0
    8.1650  -17.5572   24.4465 O   0  0  0  0  0  0  0  0  0  0  0  0
    7.2451  -15.3562   24.3980 C   0  0  2  0  0  0  0  0  0  0  0  0
    7.7447  -15.0883   23.0527 N   0  0  0  0  0  0  0  0  0  0  0  0
    8.1085  -14.7239   25.4001 C   0  0  0  0  0  0  0  0  0  0  0  0
    9.3776  -14.9538   25.2470 O   0  0  0  0  0  0  0  0  0  0  0  0
    7.6969  -13.9165   26.4737 N   0  0  0  0  0  0  0  0  0  0  0  0
    6.3108  -13.5237   26.6499 C   0  0  0  0  0  0  0  0  0  0  0  0
    6.4495  -12.1424   27.2446 C   0  0  0  0  0  0  0  0  0  0  0  0
    7.4608  -12.4856   28.3551 C   0  0  0  0  0  0  0  0  0  0  0  0
    8.4569  -13.3513   27.5395 C   0  0  1  0  0  0  0  0  0  0  0  0
    8.9948  -14.3142   28.5133 C   0  0  0  0  0  0  0  0  0  0  0  0
    8.6604  -15.6518   28.5579 O   0  0  0  0  0  0  0  0  0  0  0  0
    9.8160  -13.8824   29.3633 O   0  0  0  0  0  0  0  0  0  0  0  0
  2  1  1  6
  3  4  1  0
  3  2  1  0
  4  8  1  0
  5  6  1  0
  5  4  2  0
  6  7  1  0
  7  8  2  0
  9 10  2  0
  9  2  1  0
 12 11  1  6
 12 14  1  0
 13 12  1  0
 14 15  1  6
 15  9  1  0
 16 17  2  0
 16 14  1  0
 18 19  1  0
 18 16  1  0
 19 20  1  0
 20 21  1  0
 22 18  1  0
 22 21  1  0
 22 23  1  1
 24 23  1  0
 25 23  2  0
M  END
$$$$
