HTP.pdb
     RDKit          3D

 25 26  0  0  1  0  0  0  0  0999 V2000
   10.2455  -16.2612   19.1275 N   0  0  0  0  0  0  0  0  0  0  0  0
   10.5458  -15.4969   20.3207 C   0  0  1  0  0  0  0  0  0  0  0  0
   11.2868  -14.2393   19.9210 C   0  0  0  0  0  0  0  0  0  0  0  0
   12.7246  -14.5122   19.8013 C   0  0  0  0  0  0  0  0  0  0  0  0
   13.6239  -15.0157   20.7183 C   0  0  0  0  0  0  0  0  0  0  0  0
   14.8250  -15.0842   20.1428 N   0  0  0  0  0  0  0  0  0  0  0  0
   14.7096  -14.6382   18.8887 C   0  0  0  0  0  0  0  0  0  0  0  0
   13.4367  -14.2879   18.6707 N   0  0  0  0  0  0  0  0  0  0  0  0
    9.2857  -15.1285   21.0489 C   0  0  0  0  0  0  0  0  0  0  0  0
    8.2366  -15.0501   20.3907 O   0  0  0  0  0  0  0  0  0  0  0  0
    7.2048  -16.1725   21.5443 C   0  0  0  0  0  0  0  0  0  0  0  0
    7.3120  -16.0127   23.0943 C   0  0  1  0  0  0  0  0  0  0  0  0
    7.9655  -17.1618   23.5139 O   0  0  0  0  0  0  0  0  0  0  0  0
    8.1392  -14.7928   23.2897 C   0  0  2  0  0  0  0  0  0  0  0  0
    9.3261  -14.8841   22.4445 N   0  0  0  0  0  0  0  0  0  0  0  0
    8.5153  -14.4521   24.6652 C   0  0  0  0  0  0  0  0  0  0  0  0
    9.7108  -14.8245   25.0098 O   0  0  0  0  0  0  0  0  0  0  0  0
    7.7229  -13.7790   25.6100 N   0  0  0  0  0  0  0  0  0  0  0  0
    6.3720  -13.3435   25.3066 C   0  0  0  0  0  0  0  0  0  0  0  0
    6.2679  -12.0653   26.1043 C   0  0  0  0  0  0  0  0  0  0  0  0
    6.7830  -12.6083   27.4510 C   0  0  0  0  0  0  0  0  0  0  0  0
    8.0183  -13.4043   26.9537 C   0  0  1  0  0  0  0  0  0  0  0  0
    8.1502  -14.5175   27.9067 C   0  0  0  0  0  0  0  0  0  0  0  0
    8.7941  -14.4336   29.1239 O   0  0  0  0  0  0  0  0  0  0  0  0
    7.6392  -15.6211   27.5841 O   0  0  0  0  0  0  0  0  0  0  0  0
  2  1  1  6
  3  4  1  0
  3  2  1  0
  4  8  1  0
  5  6  1  0
  5  4  2  0
  6  7  1  0
  7  8  2  0
  9 10  2  0
  9  2  1  0
 12 11  1  6
 12 14  1  0
 13 12  1  0
 14 15  1  6
 15  9  1  0
 16 17  2  0
 16 14  1  0
 18 19  1  0
 18 16  1  0
 19 20  1  0
 20 21  1  0
 22 18  1  0
 22 21  1  0
 22 23  1  1
 24 23  1  0
 25 23  2  0
M  END
$$$$
