HTP.pdb
     RDKit          3D

 25 26  0  0  1  0  0  0  0  0999 V2000
   10.1389  -15.7476   18.9594 N   0  0  0  0  0  0  0  0  0  0  0  0
   10.5302  -15.0929   20.1908 C   0  0  1  0  0  0  0  0  0  0  0  0
   11.3653  -13.8769   19.8528 C   0  0  0  0  0  0  0  0  0  0  0  0
   12.7550  -14.2712   19.5892 C   0  0  0  0  0  0  0  0  0  0  0  0
   13.7815  -14.5823   20.4567 C   0  0  0  0  0  0  0  0  0  0  0  0
   14.8670  -14.8808   19.7417 N   0  0  0  0  0  0  0  0  0  0  0  0
   14.5549  -14.7670   18.4477 C   0  0  0  0  0  0  0  0  0  0  0  0
   13.2732  -14.3969   18.3438 N   0  0  0  0  0  0  0  0  0  0  0  0
    9.3230  -14.6715   20.9774 C   0  0  0  0  0  0  0  0  0  0  0  0
    8.3235  -14.2913   20.3477 O   0  0  0  0  0  0  0  0  0  0  0  0
    7.1143  -15.6404   21.3525 C   0  0  0  0  0  0  0  0  0  0  0  0
    7.2102  -15.6576   22.9113 C   0  0  1  0  0  0  0  0  0  0  0  0
    7.7124  -16.9152   23.2109 O   0  0  0  0  0  0  0  0  0  0  0  0
    8.1745  -14.5747   23.2401 C   0  0  2  0  0  0  0  0  0  0  0  0
    9.3553  -14.7179   22.3936 N   0  0  0  0  0  0  0  0  0  0  0  0
    8.5664  -14.4312   24.6455 C   0  0  0  0  0  0  0  0  0  0  0  0
    9.7125  -14.9625   24.9471 O   0  0  0  0  0  0  0  0  0  0  0  0
    7.8362  -13.7890   25.6594 N   0  0  0  0  0  0  0  0  0  0  0  0
    6.5542  -13.1598   25.3997 C   0  0  0  0  0  0  0  0  0  0  0  0
    6.5826  -11.9864   26.3502 C   0  0  0  0  0  0  0  0  0  0  0  0
    6.9963  -12.7492   27.6232 C   0  0  0  0  0  0  0  0  0  0  0  0
    8.1405  -13.6209   27.0423 C   0  0  1  0  0  0  0  0  0  0  0  0
    8.1162  -14.8507   27.8497 C   0  0  0  0  0  0  0  0  0  0  0  0
    8.7279  -14.9928   29.0780 O   0  0  0  0  0  0  0  0  0  0  0  0
    7.4934  -15.8392   27.3825 O   0  0  0  0  0  0  0  0  0  0  0  0
  2  1  1  6
  3  4  1  0
  3  2  1  0
  4  8  1  0
  5  6  1  0
  5  4  2  0
  6  7  1  0
  7  8  2  0
  9 10  2  0
  9  2  1  0
 12 11  1  6
 12 14  1  0
 13 12  1  0
 14 15  1  6
 15  9  1  0
 16 17  2  0
 16 14  1  0
 18 19  1  0
 18 16  1  0
 19 20  1  0
 20 21  1  0
 22 18  1  0
 22 21  1  0
 22 23  1  1
 24 23  1  0
 25 23  2  0
M  END
$$$$
