HTP.pdb
     RDKit          3D

 25 26  0  0  1  0  0  0  0  0999 V2000
    8.0262  -16.6100   20.4993 N   0  0  0  0  0  0  0  0  0  0  0  0
    8.0258  -15.3290   21.1754 C   0  0  1  0  0  0  0  0  0  0  0  0
    7.1028  -14.3863   20.4340 C   0  0  0  0  0  0  0  0  0  0  0  0
    7.6622  -14.0578   19.1167 C   0  0  0  0  0  0  0  0  0  0  0  0
    8.2090  -12.8849   18.6389 C   0  0  0  0  0  0  0  0  0  0  0  0
    8.5819  -13.0742   17.3725 N   0  0  0  0  0  0  0  0  0  0  0  0
    8.2860  -14.3331   17.0373 C   0  0  0  0  0  0  0  0  0  0  0  0
    7.7264  -14.9400   18.0904 N   0  0  0  0  0  0  0  0  0  0  0  0
    7.5605  -15.4758   22.5952 C   0  0  0  0  0  0  0  0  0  0  0  0
    6.3496  -15.6620   22.7929 O   0  0  0  0  0  0  0  0  0  0  0  0
    6.2436  -16.7090   24.0431 C   0  0  0  0  0  0  0  0  0  0  0  0
    7.3529  -16.9081   25.1244 C   0  0  1  0  0  0  0  0  0  0  0  0
    8.0517  -18.0275   24.6977 O   0  0  0  0  0  0  0  0  0  0  0  0
    8.1747  -15.6712   25.0513 C   0  0  2  0  0  0  0  0  0  0  0  0
    8.4994  -15.3992   23.6542 N   0  0  0  0  0  0  0  0  0  0  0  0
    9.3851  -15.6219   25.8771 C   0  0  0  0  0  0  0  0  0  0  0  0
   10.3657  -16.3579   25.4487 O   0  0  0  0  0  0  0  0  0  0  0  0
    9.5711  -14.8717   27.0503 N   0  0  0  0  0  0  0  0  0  0  0  0
    8.6230  -13.8555   27.4687 C   0  0  0  0  0  0  0  0  0  0  0  0
    9.5253  -12.8331   28.1180 C   0  0  0  0  0  0  0  0  0  0  0  0
   10.3159  -13.7906   29.0301 C   0  0  0  0  0  0  0  0  0  0  0  0
   10.6203  -14.9232   28.0145 C   0  0  1  0  0  0  0  0  0  0  0  0
   10.6719  -16.1474   28.8290 C   0  0  0  0  0  0  0  0  0  0  0  0
   11.7378  -16.5140   29.6244 O   0  0  0  0  0  0  0  0  0  0  0  0
    9.6720  -16.9105   28.7934 O   0  0  0  0  0  0  0  0  0  0  0  0
  2  1  1  6
  3  4  1  0
  3  2  1  0
  4  8  1  0
  5  6  1  0
  5  4  2  0
  6  7  1  0
  7  8  2  0
  9 10  2  0
  9  2  1  0
 12 11  1  6
 12 14  1  0
 13 12  1  0
 14 15  1  6
 15  9  1  0
 16 17  2  0
 16 14  1  0
 18 19  1  0
 18 16  1  0
 19 20  1  0
 20 21  1  0
 22 18  1  0
 22 21  1  0
 22 23  1  1
 24 23  1  0
 25 23  2  0
M  END
$$$$
