HTP.pdb
     RDKit          3D

 25 26  0  0  1  0  0  0  0  0999 V2000
   10.8800  -16.7551   20.0414 N   0  0  0  0  0  0  0  0  0  0  0  0
   11.0006  -15.4111   20.5679 C   0  0  1  0  0  0  0  0  0  0  0  0
   11.3586  -14.4736   19.4351 C   0  0  0  0  0  0  0  0  0  0  0  0
   12.7613  -14.6610   19.0435 C   0  0  0  0  0  0  0  0  0  0  0  0
   13.9211  -14.1349   19.5738 C   0  0  0  0  0  0  0  0  0  0  0  0
   14.9576  -14.5997   18.8750 N   0  0  0  0  0  0  0  0  0  0  0  0
   14.4851  -15.4042   17.9188 C   0  0  0  0  0  0  0  0  0  0  0  0
   13.1510  -15.4485   18.0122 N   0  0  0  0  0  0  0  0  0  0  0  0
    9.7127  -14.9684   21.1995 C   0  0  0  0  0  0  0  0  0  0  0  0
    8.7179  -14.8491   20.4673 O   0  0  0  0  0  0  0  0  0  0  0  0
    7.3650  -15.3046   21.3550 C   0  0  0  0  0  0  0  0  0  0  0  0
    7.3915  -15.3887   22.9143 C   0  0  1  0  0  0  0  0  0  0  0  0
    7.7601  -16.6988   23.1816 O   0  0  0  0  0  0  0  0  0  0  0  0
    8.4381  -14.4158   23.3251 C   0  0  2  0  0  0  0  0  0  0  0  0
    9.6670  -14.7028   22.5910 N   0  0  0  0  0  0  0  0  0  0  0  0
    8.7149  -14.2962   24.7599 C   0  0  0  0  0  0  0  0  0  0  0  0
    9.8020  -14.8871   25.1548 O   0  0  0  0  0  0  0  0  0  0  0  0
    7.9345  -13.6193   25.7120 N   0  0  0  0  0  0  0  0  0  0  0  0
    6.7570  -12.8582   25.3368 C   0  0  0  0  0  0  0  0  0  0  0  0
    6.7840  -11.7259   26.3358 C   0  0  0  0  0  0  0  0  0  0  0  0
    6.9716  -12.5681   27.6122 C   0  0  0  0  0  0  0  0  0  0  0  0
    8.0889  -13.5287   27.1266 C   0  0  1  0  0  0  0  0  0  0  0  0
    7.8541  -14.7763   27.8701 C   0  0  0  0  0  0  0  0  0  0  0  0
    8.3405  -15.0373   29.1345 O   0  0  0  0  0  0  0  0  0  0  0  0
    7.1617  -15.6646   27.3091 O   0  0  0  0  0  0  0  0  0  0  0  0
  2  1  1  6
  3  4  1  0
  3  2  1  0
  4  8  1  0
  5  6  1  0
  5  4  2  0
  6  7  1  0
  7  8  2  0
  9 10  2  0
  9  2  1  0
 12 11  1  6
 12 14  1  0
 13 12  1  0
 14 15  1  6
 15  9  1  0
 16 17  2  0
 16 14  1  0
 18 19  1  0
 18 16  1  0
 19 20  1  0
 20 21  1  0
 22 18  1  0
 22 21  1  0
 22 23  1  1
 24 23  1  0
 25 23  2  0
M  END
$$$$
