HTP.pdb
     RDKit          3D

 25 26  0  0  1  0  0  0  0  0999 V2000
    7.5564  -16.3362   19.4626 N   0  0  0  0  0  0  0  0  0  0  0  0
    7.9350  -15.1779   20.2457 C   0  0  1  0  0  0  0  0  0  0  0  0
    7.5984  -13.9279   19.4619 C   0  0  0  0  0  0  0  0  0  0  0  0
    8.2764  -13.9457   18.1596 C   0  0  0  0  0  0  0  0  0  0  0  0
    7.8560  -13.5080   16.9207 C   0  0  0  0  0  0  0  0  0  0  0  0
    8.8273  -13.7380   16.0361 N   0  0  0  0  0  0  0  0  0  0  0  0
    9.8486  -14.3085   16.6813 C   0  0  0  0  0  0  0  0  0  0  0  0
    9.5242  -14.4393   17.9729 N   0  0  0  0  0  0  0  0  0  0  0  0
    7.2063  -15.1605   21.5581 C   0  0  0  0  0  0  0  0  0  0  0  0
    5.9718  -15.2858   21.5384 O   0  0  0  0  0  0  0  0  0  0  0  0
    5.9587  -16.6992   22.8655 C   0  0  0  0  0  0  0  0  0  0  0  0
    6.7434  -16.5095   24.2025 C   0  0  1  0  0  0  0  0  0  0  0  0
    7.6989  -17.5145   24.1859 O   0  0  0  0  0  0  0  0  0  0  0  0
    7.3495  -15.1562   24.0934 C   0  0  2  0  0  0  0  0  0  0  0  0
    7.9341  -15.0041   22.7643 N   0  0  0  0  0  0  0  0  0  0  0  0
    8.3170  -14.7707   25.1253 C   0  0  0  0  0  0  0  0  0  0  0  0
    9.5107  -15.2547   24.9591 O   0  0  0  0  0  0  0  0  0  0  0  0
    8.0742  -13.9496   26.2391 N   0  0  0  0  0  0  0  0  0  0  0  0
    6.8120  -13.2560   26.4195 C   0  0  0  0  0  0  0  0  0  0  0  0
    7.2499  -11.9790   27.0967 C   0  0  0  0  0  0  0  0  0  0  0  0
    8.1244  -12.6075   28.1985 C   0  0  0  0  0  0  0  0  0  0  0  0
    8.9153  -13.6350   27.3467 C   0  0  1  0  0  0  0  0  0  0  0  0
    9.1899  -14.7480   28.2690 C   0  0  0  0  0  0  0  0  0  0  0  0
   10.1959  -14.7521   29.2131 O   0  0  0  0  0  0  0  0  0  0  0  0
    8.4538  -15.7651   28.1864 O   0  0  0  0  0  0  0  0  0  0  0  0
  2  1  1  6
  3  4  1  0
  3  2  1  0
  4  8  1  0
  5  6  1  0
  5  4  2  0
  6  7  1  0
  7  8  2  0
  9 10  2  0
  9  2  1  0
 12 11  1  6
 12 14  1  0
 13 12  1  0
 14 15  1  6
 15  9  1  0
 16 17  2  0
 16 14  1  0
 18 19  1  0
 18 16  1  0
 19 20  1  0
 20 21  1  0
 22 18  1  0
 22 21  1  0
 22 23  1  1
 24 23  1  0
 25 23  2  0
M  END
$$$$
