HTP.pdb
     RDKit          3D

 25 26  0  0  1  0  0  0  0  0999 V2000
    6.9204  -16.4075   19.9190 N   0  0  0  0  0  0  0  0  0  0  0  0
    7.6710  -15.4892   20.7505 C   0  0  1  0  0  0  0  0  0  0  0  0
    7.4424  -14.0795   20.2500 C   0  0  0  0  0  0  0  0  0  0  0  0
    7.9971  -13.9227   18.8995 C   0  0  0  0  0  0  0  0  0  0  0  0
    7.4446  -13.3803   17.7577 C   0  0  0  0  0  0  0  0  0  0  0  0
    8.3391  -13.4623   16.7719 N   0  0  0  0  0  0  0  0  0  0  0  0
    9.4403  -14.0410   17.2588 C   0  0  0  0  0  0  0  0  0  0  0  0
    9.2431  -14.3249   18.5515 N   0  0  0  0  0  0  0  0  0  0  0  0
    7.2363  -15.5910   22.1838 C   0  0  0  0  0  0  0  0  0  0  0  0
    6.0356  -15.8058   22.4124 O   0  0  0  0  0  0  0  0  0  0  0  0
    6.0980  -16.9488   23.7164 C   0  0  0  0  0  0  0  0  0  0  0  0
    7.1984  -16.9230   24.8245 C   0  0  1  0  0  0  0  0  0  0  0  0
    8.0185  -17.9990   24.5196 O   0  0  0  0  0  0  0  0  0  0  0  0
    7.8890  -15.6196   24.6376 C   0  0  2  0  0  0  0  0  0  0  0  0
    8.1913  -15.4418   23.2204 N   0  0  0  0  0  0  0  0  0  0  0  0
    9.0835  -15.3721   25.4508 C   0  0  0  0  0  0  0  0  0  0  0  0
   10.1477  -16.0060   25.0603 O   0  0  0  0  0  0  0  0  0  0  0  0
    9.1748  -14.5359   26.5760 N   0  0  0  0  0  0  0  0  0  0  0  0
    8.0792  -13.6748   26.9820 C   0  0  0  0  0  0  0  0  0  0  0  0
    8.8115  -12.4779   27.5409 C   0  0  0  0  0  0  0  0  0  0  0  0
    9.7851  -13.2328   28.4662 C   0  0  0  0  0  0  0  0  0  0  0  0
   10.2478  -14.3523   27.4970 C   0  0  1  0  0  0  0  0  0  0  0  0
   10.5369  -15.5015   28.3691 C   0  0  0  0  0  0  0  0  0  0  0  0
   11.6763  -15.6354   29.1353 O   0  0  0  0  0  0  0  0  0  0  0  0
    9.6828  -16.4243   28.4151 O   0  0  0  0  0  0  0  0  0  0  0  0
  2  1  1  6
  3  4  1  0
  3  2  1  0
  4  8  1  0
  5  6  1  0
  5  4  2  0
  6  7  1  0
  7  8  2  0
  9 10  2  0
  9  2  1  0
 12 11  1  6
 12 14  1  0
 13 12  1  0
 14 15  1  6
 15  9  1  0
 16 17  2  0
 16 14  1  0
 18 19  1  0
 18 16  1  0
 19 20  1  0
 20 21  1  0
 22 18  1  0
 22 21  1  0
 22 23  1  1
 24 23  1  0
 25 23  2  0
M  END
$$$$
