AFW.pdb
     RDKit          3D

 31 33  0  0  1  0  0  0  0  0999 V2000
   25.4006  -14.9869  -15.4979 C   0  0  0  0  0  0  0  0  0  0  0  0
   25.8699  -15.3219  -16.8921 C   0  0  2  0  0  0  0  0  0  0  0  0
   24.9609  -14.8054  -17.8793 N   0  0  0  0  0  0  0  0  0  0  0  0
   25.9655  -16.8131  -16.9554 C   0  0  0  0  0  0  0  0  0  0  0  0
   25.0007  -17.5139  -17.3045 O   0  0  0  0  0  0  0  0  0  0  0  0
   27.1723  -17.5026  -16.6167 N   0  0  0  0  0  0  0  0  0  0  0  0
   27.2803  -18.9514  -16.7714 C   0  0  1  0  0  0  0  0  0  0  0  0
   28.6609  -19.2921  -17.3498 C   0  0  0  0  0  0  0  0  0  0  0  0
   28.7081  -19.0352  -18.7969 C   0  0  0  0  0  0  0  0  0  0  0  0
   28.1552  -19.9299  -19.6801 C   0  0  0  0  0  0  0  0  0  0  0  0
   28.1693  -19.7237  -21.0544 C   0  0  0  0  0  0  0  0  0  0  0  0
   28.7406  -18.6101  -21.5890 C   0  0  0  0  0  0  0  0  0  0  0  0
   29.3114  -17.6842  -20.7076 C   0  0  0  0  0  0  0  0  0  0  0  0
   29.2835  -17.9126  -19.3528 C   0  0  0  0  0  0  0  0  0  0  0  0
   27.2446  -19.5730  -15.4260 C   0  0  0  0  0  0  0  0  0  0  0  0
   28.1720  -19.2571  -14.6413 O   0  0  0  0  0  0  0  0  0  0  0  0
   26.2700  -20.4682  -14.9659 N   0  0  0  0  0  0  0  0  0  0  0  0
   26.0950  -20.9211  -13.6057 C   0  0  1  0  0  0  0  0  0  0  0  0
   26.0108  -19.7548  -12.6439 C   0  0  0  0  0  0  0  0  0  0  0  0
   25.8695  -20.2742  -11.2686 C   0  0  0  0  0  0  0  0  0  0  0  0
   26.9338  -20.6947  -10.4569 C   0  0  0  0  0  0  0  0  0  0  0  0
   26.4659  -21.1188   -9.2827 N   0  0  0  0  0  0  0  0  0  0  0  0
   25.1157  -20.9978   -9.2758 C   0  0  0  0  0  0  0  0  0  0  0  0
   24.1805  -21.2929   -8.3148 C   0  0  0  0  0  0  0  0  0  0  0  0
   22.8437  -21.0606   -8.5873 C   0  0  0  0  0  0  0  0  0  0  0  0
   22.4372  -20.5373   -9.8077 C   0  0  0  0  0  0  0  0  0  0  0  0
   23.3925  -20.2430  -10.7715 C   0  0  0  0  0  0  0  0  0  0  0  0
   24.7377  -20.4699  -10.5146 C   0  0  0  0  0  0  0  0  0  0  0  0
   25.0036  -21.8426  -13.3705 C   0  0  0  0  0  0  0  0  0  0  0  0
   25.0624  -22.9662  -12.5716 O   0  0  0  0  0  0  0  0  0  0  0  0
   23.8833  -21.6279  -13.9359 O   0  0  0  0  0  0  0  0  0  0  0  0
  2  1  1  1
  2  3  1  0
  4  5  2  0
  4  2  1  0
  6  4  1  0
  7  6  1  0
  7  8  1  1
  9 14  1  0
  9  8  1  0
 10  9  2  0
 11 12  2  0
 11 10  1  0
 12 13  1  0
 13 14  2  0
 15 17  1  0
 15  7  1  0
 16 15  2  0
 18 17  1  0
 18 29  1  0
 19 20  1  0
 18 19  1  1
 20 21  2  0
 22 21  1  0
 23 22  1  0
 24 23  2  0
 25 24  1  0
 26 27  1  0
 26 25  2  0
 27 28  2  0
 28 23  1  0
 28 20  1  0
 29 30  1  0
 31 29  2  0
M  END
$$$$
