AFW.pdb
     RDKit          3D

 31 33  0  0  1  0  0  0  0  0999 V2000
   27.1925  -20.1556  -17.4750 C   0  0  0  0  0  0  0  0  0  0  0  0
   27.8694  -21.2340  -16.6655 C   0  0  2  0  0  0  0  0  0  0  0  0
   27.9678  -22.4563  -17.4166 N   0  0  0  0  0  0  0  0  0  0  0  0
   27.0459  -21.4098  -15.4295 C   0  0  0  0  0  0  0  0  0  0  0  0
   26.0206  -22.1118  -15.4237 O   0  0  0  0  0  0  0  0  0  0  0  0
   27.3998  -20.7777  -14.1960 N   0  0  0  0  0  0  0  0  0  0  0  0
   26.5968  -20.9750  -12.9914 C   0  0  1  0  0  0  0  0  0  0  0  0
   27.2888  -20.2826  -11.8089 C   0  0  0  0  0  0  0  0  0  0  0  0
   26.4560  -20.3411  -10.5984 C   0  0  0  0  0  0  0  0  0  0  0  0
   25.7302  -21.4704  -10.3080 C   0  0  0  0  0  0  0  0  0  0  0  0
   24.9370  -21.5727   -9.1714 C   0  0  0  0  0  0  0  0  0  0  0  0
   24.8453  -20.5425   -8.2869 C   0  0  0  0  0  0  0  0  0  0  0  0
   25.5760  -19.3806   -8.5630 C   0  0  0  0  0  0  0  0  0  0  0  0
   26.3529  -19.3058   -9.6941 C   0  0  0  0  0  0  0  0  0  0  0  0
   25.3034  -20.2722  -13.1669 C   0  0  0  0  0  0  0  0  0  0  0  0
   25.3631  -19.0933  -13.5936 O   0  0  0  0  0  0  0  0  0  0  0  0
   24.0381  -20.8127  -12.9026 N   0  0  0  0  0  0  0  0  0  0  0  0
   22.7718  -20.3019  -13.3731 C   0  0  1  0  0  0  0  0  0  0  0  0
   22.7633  -20.1549  -14.8800 C   0  0  0  0  0  0  0  0  0  0  0  0
   21.5181  -19.4751  -15.2904 C   0  0  0  0  0  0  0  0  0  0  0  0
   21.1004  -18.2184  -14.8272 C   0  0  0  0  0  0  0  0  0  0  0  0
   19.9303  -17.8991  -15.3808 N   0  0  0  0  0  0  0  0  0  0  0  0
   19.5436  -18.9032  -16.2054 C   0  0  0  0  0  0  0  0  0  0  0  0
   18.4313  -19.0541  -16.9961 C   0  0  0  0  0  0  0  0  0  0  0  0
   18.2963  -20.2071  -17.7495 C   0  0  0  0  0  0  0  0  0  0  0  0
   19.2613  -21.2053  -17.7188 C   0  0  0  0  0  0  0  0  0  0  0  0
   20.3817  -21.0411  -16.9151 C   0  0  0  0  0  0  0  0  0  0  0  0
   20.5327  -19.8907  -16.1529 C   0  0  0  0  0  0  0  0  0  0  0  0
   21.5891  -21.0117  -12.9336 C   0  0  0  0  0  0  0  0  0  0  0  0
   21.3551  -22.3608  -13.1047 O   0  0  0  0  0  0  0  0  0  0  0  0
   20.6679  -20.3649  -12.3389 O   0  0  0  0  0  0  0  0  0  0  0  0
  2  1  1  6
  2  3  1  0
  4  5  2  0
  4  2  1  0
  6  4  1  0
  7  6  1  0
  7  8  1  1
  9 14  1  0
  9  8  1  0
 10  9  2  0
 11 12  2  0
 11 10  1  0
 12 13  1  0
 13 14  2  0
 15 17  1  0
 15  7  1  0
 16 15  2  0
 18 17  1  0
 18 29  1  0
 19 20  1  0
 18 19  1  6
 20 21  2  0
 22 21  1  0
 23 22  1  0
 24 23  2  0
 25 24  1  0
 26 27  1  0
 26 25  2  0
 27 28  2  0
 28 23  1  0
 28 20  1  0
 29 30  1  0
 31 29  2  0
M  END
$$$$
