AFW.pdb
     RDKit          3D

 31 33  0  0  1  0  0  0  0  0999 V2000
   27.6691  -20.2662  -15.3945 C   0  0  0  0  0  0  0  0  0  0  0  0
   28.6178  -21.2170  -14.7071 C   0  0  2  0  0  0  0  0  0  0  0  0
   28.6940  -22.4678  -15.4124 N   0  0  0  0  0  0  0  0  0  0  0  0
   28.0966  -21.3973  -13.3169 C   0  0  0  0  0  0  0  0  0  0  0  0
   27.2089  -22.2267  -13.0560 O   0  0  0  0  0  0  0  0  0  0  0  0
   28.5954  -20.6232  -12.2222 N   0  0  0  0  0  0  0  0  0  0  0  0
   28.0469  -20.7803  -10.8772 C   0  0  1  0  0  0  0  0  0  0  0  0
   28.9585  -20.0563   -9.8765 C   0  0  0  0  0  0  0  0  0  0  0  0
   28.3527  -20.0195   -8.5372 C   0  0  0  0  0  0  0  0  0  0  0  0
   27.7205  -18.8847   -8.0912 C   0  0  0  0  0  0  0  0  0  0  0  0
   27.1270  -18.8083   -6.8368 C   0  0  0  0  0  0  0  0  0  0  0  0
   27.1488  -19.8706   -5.9864 C   0  0  0  0  0  0  0  0  0  0  0  0
   27.7886  -21.0381   -6.4196 C   0  0  0  0  0  0  0  0  0  0  0  0
   28.3673  -21.0870   -7.6650 C   0  0  0  0  0  0  0  0  0  0  0  0
   26.7437  -20.0765  -10.8146 C   0  0  0  0  0  0  0  0  0  0  0  0
   26.7363  -18.8819  -11.1997 O   0  0  0  0  0  0  0  0  0  0  0  0
   25.5364  -20.6319  -10.3707 N   0  0  0  0  0  0  0  0  0  0  0  0
   24.2700  -19.9479  -10.2519 C   0  0  1  0  0  0  0  0  0  0  0  0
   23.8377  -19.3561  -11.5768 C   0  0  0  0  0  0  0  0  0  0  0  0
   23.8011  -20.4267  -12.5934 C   0  0  0  0  0  0  0  0  0  0  0  0
   23.5063  -21.7729  -12.3300 C   0  0  0  0  0  0  0  0  0  0  0  0
   23.5708  -22.4786  -13.4593 N   0  0  0  0  0  0  0  0  0  0  0  0
   23.9009  -21.6493  -14.4797 C   0  0  0  0  0  0  0  0  0  0  0  0
   24.0876  -21.8846  -15.8195 C   0  0  0  0  0  0  0  0  0  0  0  0
   24.4250  -20.8262  -16.6448 C   0  0  0  0  0  0  0  0  0  0  0  0
   24.5757  -19.5402  -16.1427 C   0  0  0  0  0  0  0  0  0  0  0  0
   24.3843  -19.3150  -14.7860 C   0  0  0  0  0  0  0  0  0  0  0  0
   24.0456  -20.3654  -13.9440 C   0  0  0  0  0  0  0  0  0  0  0  0
   23.1840  -20.7035   -9.6641 C   0  0  0  0  0  0  0  0  0  0  0  0
   23.2790  -21.9872   -9.1669 O   0  0  0  0  0  0  0  0  0  0  0  0
   22.0316  -20.1679   -9.5876 O   0  0  0  0  0  0  0  0  0  0  0  0
  2  1  1  6
  2  3  1  0
  4  5  2  0
  4  2  1  0
  6  4  1  0
  7  6  1  0
  7  8  1  1
  9 14  1  0
  9  8  1  0
 10  9  2  0
 11 12  2  0
 11 10  1  0
 12 13  1  0
 13 14  2  0
 15 17  1  0
 15  7  1  0
 16 15  2  0
 18 17  1  0
 18 29  1  0
 19 20  1  0
 18 19  1  6
 20 21  2  0
 22 21  1  0
 23 22  1  0
 24 23  2  0
 25 24  1  0
 26 27  1  0
 26 25  2  0
 27 28  2  0
 28 23  1  0
 28 20  1  0
 29 30  1  0
 31 29  2  0
M  END
$$$$
