AFW.pdb
     RDKit          3D

 31 33  0  0  1  0  0  0  0  0999 V2000
   27.8475  -21.9743  -19.2354 C   0  0  0  0  0  0  0  0  0  0  0  0
   28.7226  -22.4754  -18.1131 C   0  0  2  0  0  0  0  0  0  0  0  0
   29.1885  -23.8094  -18.3799 N   0  0  0  0  0  0  0  0  0  0  0  0
   27.8877  -22.4193  -16.8735 C   0  0  0  0  0  0  0  0  0  0  0  0
   27.0572  -23.3041  -16.6063 O   0  0  0  0  0  0  0  0  0  0  0  0
   28.0060  -21.3442  -15.9372 N   0  0  0  0  0  0  0  0  0  0  0  0
   27.1833  -21.3028  -14.7305 C   0  0  1  0  0  0  0  0  0  0  0  0
   27.8850  -20.4364  -13.6751 C   0  0  0  0  0  0  0  0  0  0  0  0
   27.0304  -20.2422  -12.4945 C   0  0  0  0  0  0  0  0  0  0  0  0
   26.4523  -19.0209  -12.2481 C   0  0  0  0  0  0  0  0  0  0  0  0
   25.6312  -18.7946  -11.1500 C   0  0  0  0  0  0  0  0  0  0  0  0
   25.3628  -19.7889  -10.2603 C   0  0  0  0  0  0  0  0  0  0  0  0
   25.9420  -21.0425  -10.4907 C   0  0  0  0  0  0  0  0  0  0  0  0
   26.7501  -21.2393  -11.5847 C   0  0  0  0  0  0  0  0  0  0  0  0
   25.9165  -20.6012  -15.0477 C   0  0  0  0  0  0  0  0  0  0  0  0
   26.0050  -19.6092  -15.8117 O   0  0  0  0  0  0  0  0  0  0  0  0
   24.6466  -20.9547  -14.5732 N   0  0  0  0  0  0  0  0  0  0  0  0
   23.4025  -20.2838  -14.8701 C   0  0  1  0  0  0  0  0  0  0  0  0
   22.2211  -21.2157  -14.7026 C   0  0  0  0  0  0  0  0  0  0  0  0
   21.6390  -21.0187  -13.3596 C   0  0  0  0  0  0  0  0  0  0  0  0
   21.6587  -19.8107  -12.6464 C   0  0  0  0  0  0  0  0  0  0  0  0
   21.0626  -19.9740  -11.4651 N   0  0  0  0  0  0  0  0  0  0  0  0
   20.6401  -21.2576  -11.3576 C   0  0  0  0  0  0  0  0  0  0  0  0
   19.9795  -21.9170  -10.3506 C   0  0  0  0  0  0  0  0  0  0  0  0
   19.6674  -23.2548  -10.5179 C   0  0  0  0  0  0  0  0  0  0  0  0
   20.0087  -23.9348  -11.6796 C   0  0  0  0  0  0  0  0  0  0  0  0
   20.6767  -23.2570  -12.6908 C   0  0  0  0  0  0  0  0  0  0  0  0
   20.9975  -21.9150  -12.5393 C   0  0  0  0  0  0  0  0  0  0  0  0
   23.1605  -19.0394  -14.1709 C   0  0  0  0  0  0  0  0  0  0  0  0
   22.2527  -18.0716  -14.5498 O   0  0  0  0  0  0  0  0  0  0  0  0
   23.8269  -18.7857  -13.1163 O   0  0  0  0  0  0  0  0  0  0  0  0
  2  1  1  6
  2  3  1  0
  4  5  2  0
  4  2  1  0
  6  4  1  0
  7  6  1  0
  7  8  1  1
  9 14  1  0
  9  8  1  0
 10  9  2  0
 11 12  2  0
 11 10  1  0
 12 13  1  0
 13 14  2  0
 15 17  1  0
 15  7  1  0
 16 15  2  0
 18 17  1  0
 18 29  1  0
 19 20  1  0
 18 19  1  1
 20 21  2  0
 22 21  1  0
 23 22  1  0
 24 23  2  0
 25 24  1  0
 26 27  1  0
 26 25  2  0
 27 28  2  0
 28 23  1  0
 28 20  1  0
 29 30  1  0
 31 29  2  0
M  END
$$$$
