AFW.pdb
     RDKit          3D

 31 33  0  0  1  0  0  0  0  0999 V2000
   27.9706  -18.6310  -13.7591 C   0  0  0  0  0  0  0  0  0  0  0  0
   28.5109  -19.7354  -12.8846 C   0  0  2  0  0  0  0  0  0  0  0  0
   29.3975  -20.5916  -13.6253 N   0  0  0  0  0  0  0  0  0  0  0  0
   27.3218  -20.4830  -12.3709 C   0  0  0  0  0  0  0  0  0  0  0  0
   26.8795  -21.4858  -12.9564 O   0  0  0  0  0  0  0  0  0  0  0  0
   26.6377  -20.0788  -11.1814 N   0  0  0  0  0  0  0  0  0  0  0  0
   25.5536  -20.8850  -10.6254 C   0  0  1  0  0  0  0  0  0  0  0  0
   25.3892  -20.5460   -9.1372 C   0  0  0  0  0  0  0  0  0  0  0  0
   26.6940  -20.4670   -8.4638 C   0  0  0  0  0  0  0  0  0  0  0  0
   27.6300  -21.4558   -8.6436 C   0  0  0  0  0  0  0  0  0  0  0  0
   28.8784  -21.4179   -8.0341 C   0  0  0  0  0  0  0  0  0  0  0  0
   29.2294  -20.3840   -7.2216 C   0  0  0  0  0  0  0  0  0  0  0  0
   28.2905  -19.3646   -7.0230 C   0  0  0  0  0  0  0  0  0  0  0  0
   27.0631  -19.4267   -7.6380 C   0  0  0  0  0  0  0  0  0  0  0  0
   24.2835  -20.4773  -11.2723 C   0  0  0  0  0  0  0  0  0  0  0  0
   24.0120  -19.2521  -11.2443 O   0  0  0  0  0  0  0  0  0  0  0  0
   23.3778  -21.3374  -11.9070 N   0  0  0  0  0  0  0  0  0  0  0  0
   22.2144  -20.9474  -12.6689 C   0  0  1  0  0  0  0  0  0  0  0  0
   22.5620  -19.9025  -13.7080 C   0  0  0  0  0  0  0  0  0  0  0  0
   23.5409  -20.4727  -14.6555 C   0  0  0  0  0  0  0  0  0  0  0  0
   23.4841  -21.7718  -15.1823 C   0  0  0  0  0  0  0  0  0  0  0  0
   24.5221  -21.9758  -15.9937 N   0  0  0  0  0  0  0  0  0  0  0  0
   25.2802  -20.8526  -16.0315 C   0  0  0  0  0  0  0  0  0  0  0  0
   26.4371  -20.5579  -16.7098 C   0  0  0  0  0  0  0  0  0  0  0  0
   27.0019  -19.3037  -16.5577 C   0  0  0  0  0  0  0  0  0  0  0  0
   26.4207  -18.3463  -15.7366 C   0  0  0  0  0  0  0  0  0  0  0  0
   25.2509  -18.6564  -15.0559 C   0  0  0  0  0  0  0  0  0  0  0  0
   24.6711  -19.9097  -15.1971 C   0  0  0  0  0  0  0  0  0  0  0  0
   21.4531  -22.0198  -13.2738 C   0  0  0  0  0  0  0  0  0  0  0  0
   20.1971  -21.8944  -13.8315 O   0  0  0  0  0  0  0  0  0  0  0  0
   21.9554  -23.1891  -13.3072 O   0  0  0  0  0  0  0  0  0  0  0  0
  2  1  1  6
  2  3  1  0
  4  5  2  0
  4  2  1  0
  6  4  1  0
  7  6  1  0
  7  8  1  1
  9 14  1  0
  9  8  1  0
 10  9  2  0
 11 12  2  0
 11 10  1  0
 12 13  1  0
 13 14  2  0
 15 17  1  0
 15  7  1  0
 16 15  2  0
 18 17  1  0
 18 29  1  0
 19 20  1  0
 18 19  1  6
 20 21  2  0
 22 21  1  0
 23 22  1  0
 24 23  2  0
 25 24  1  0
 26 27  1  0
 26 25  2  0
 27 28  2  0
 28 23  1  0
 28 20  1  0
 29 30  1  0
 31 29  2  0
M  END
$$$$
