AFW.pdb
     RDKit          3D

 31 33  0  0  1  0  0  0  0  0999 V2000
   27.4039  -21.3665  -11.4839 C   0  0  0  0  0  0  0  0  0  0  0  0
   28.0101  -20.5671  -12.6108 C   0  0  2  0  0  0  0  0  0  0  0  0
   29.0287  -19.6779  -12.1213 N   0  0  0  0  0  0  0  0  0  0  0  0
   26.8826  -19.8187  -13.2477 C   0  0  0  0  0  0  0  0  0  0  0  0
   26.2656  -18.9281  -12.6395 O   0  0  0  0  0  0  0  0  0  0  0  0
   26.4616  -20.0933  -14.5870 N   0  0  0  0  0  0  0  0  0  0  0  0
   25.4211  -19.2927  -15.2282 C   0  0  1  0  0  0  0  0  0  0  0  0
   25.9628  -18.7339  -16.5514 C   0  0  0  0  0  0  0  0  0  0  0  0
   26.8171  -17.5594  -16.3212 C   0  0  0  0  0  0  0  0  0  0  0  0
   26.3603  -16.5040  -15.5704 C   0  0  0  0  0  0  0  0  0  0  0  0
   27.1360  -15.3784  -15.3203 C   0  0  0  0  0  0  0  0  0  0  0  0
   28.3988  -15.2743  -15.8171 C   0  0  0  0  0  0  0  0  0  0  0  0
   28.8854  -16.3380  -16.5863 C   0  0  0  0  0  0  0  0  0  0  0  0
   28.0973  -17.4397  -16.8182 C   0  0  0  0  0  0  0  0  0  0  0  0
   24.2996  -20.1882  -15.6000 C   0  0  0  0  0  0  0  0  0  0  0  0
   24.6115  -21.3408  -15.9869 O   0  0  0  0  0  0  0  0  0  0  0  0
   22.9393  -19.8567  -15.5504 N   0  0  0  0  0  0  0  0  0  0  0  0
   21.9420  -20.4523  -14.6921 C   0  0  1  0  0  0  0  0  0  0  0  0
   22.4366  -20.5586  -13.2651 C   0  0  0  0  0  0  0  0  0  0  0  0
   21.3899  -21.1930  -12.4387 C   0  0  0  0  0  0  0  0  0  0  0  0
   21.0682  -22.5585  -12.4613 C   0  0  0  0  0  0  0  0  0  0  0  0
   20.0721  -22.8019  -11.6092 N   0  0  0  0  0  0  0  0  0  0  0  0
   19.7098  -21.6408  -11.0105 C   0  0  0  0  0  0  0  0  0  0  0  0
   18.7496  -21.3634  -10.0690 C   0  0  0  0  0  0  0  0  0  0  0  0
   18.5997  -20.0598   -9.6291 C   0  0  0  0  0  0  0  0  0  0  0  0
   19.3996  -19.0366  -10.1208 C   0  0  0  0  0  0  0  0  0  0  0  0
   20.3671  -19.3299  -11.0727 C   0  0  0  0  0  0  0  0  0  0  0  0
   20.5307  -20.6320  -11.5250 C   0  0  0  0  0  0  0  0  0  0  0  0
   20.6261  -19.8497  -14.7213 C   0  0  0  0  0  0  0  0  0  0  0  0
   20.3640  -18.4960  -14.6673 O   0  0  0  0  0  0  0  0  0  0  0  0
   19.6043  -20.6050  -14.7999 O   0  0  0  0  0  0  0  0  0  0  0  0
  2  1  1  1
  2  3  1  0
  4  5  2  0
  4  2  1  0
  6  4  1  0
  7  6  1  0
  7  8  1  6
  9 14  1  0
  9  8  1  0
 10  9  2  0
 11 12  2  0
 11 10  1  0
 12 13  1  0
 13 14  2  0
 15 17  1  0
 15  7  1  0
 16 15  2  0
 18 17  1  0
 18 29  1  0
 19 20  1  0
 18 19  1  1
 20 21  2  0
 22 21  1  0
 23 22  1  0
 24 23  2  0
 25 24  1  0
 26 27  1  0
 26 25  2  0
 27 28  2  0
 28 23  1  0
 28 20  1  0
 29 30  1  0
 31 29  2  0
M  END
$$$$
