AFW.pdb
     RDKit          3D

 31 33  0  0  1  0  0  0  0  0999 V2000
   28.0338  -19.7160  -13.4714 C   0  0  0  0  0  0  0  0  0  0  0  0
   28.6661  -20.9733  -12.9276 C   0  0  2  0  0  0  0  0  0  0  0  0
   28.3748  -22.1019  -13.7698 N   0  0  0  0  0  0  0  0  0  0  0  0
   28.1167  -21.1564  -11.5487 C   0  0  0  0  0  0  0  0  0  0  0  0
   27.1455  -21.8992  -11.3273 O   0  0  0  0  0  0  0  0  0  0  0  0
   28.6834  -20.4849  -10.4199 N   0  0  0  0  0  0  0  0  0  0  0  0
   28.1679  -20.7119   -9.0718 C   0  0  1  0  0  0  0  0  0  0  0  0
   29.1525  -20.1217   -8.0526 C   0  0  0  0  0  0  0  0  0  0  0  0
   28.5897  -20.1476   -6.6945 C   0  0  0  0  0  0  0  0  0  0  0  0
   28.6645  -21.2880   -5.9327 C   0  0  0  0  0  0  0  0  0  0  0  0
   28.1539  -21.3549   -4.6418 C   0  0  0  0  0  0  0  0  0  0  0  0
   27.5496  -20.2770   -4.0716 C   0  0  0  0  0  0  0  0  0  0  0  0
   27.4611  -19.1036   -4.8300 C   0  0  0  0  0  0  0  0  0  0  0  0
   27.9744  -19.0644   -6.1042 C   0  0  0  0  0  0  0  0  0  0  0  0
   26.9129  -19.9393   -8.9109 C   0  0  0  0  0  0  0  0  0  0  0  0
   27.0084  -18.6923   -9.0182 O   0  0  0  0  0  0  0  0  0  0  0  0
   25.6467  -20.4825   -8.6570 N   0  0  0  0  0  0  0  0  0  0  0  0
   24.4624  -20.3126   -9.4660 C   0  0  1  0  0  0  0  0  0  0  0  0
   24.7318  -20.6579  -10.9154 C   0  0  0  0  0  0  0  0  0  0  0  0
   23.5138  -20.3938  -11.7077 C   0  0  0  0  0  0  0  0  0  0  0  0
   22.5769  -19.3879  -11.4269 C   0  0  0  0  0  0  0  0  0  0  0  0
   21.5909  -19.4262  -12.3235 N   0  0  0  0  0  0  0  0  0  0  0  0
   21.8329  -20.4289  -13.2031 C   0  0  0  0  0  0  0  0  0  0  0  0
   21.1287  -20.8706  -14.2959 C   0  0  0  0  0  0  0  0  0  0  0  0
   21.6244  -21.9363  -15.0264 C   0  0  0  0  0  0  0  0  0  0  0  0
   22.8140  -22.5604  -14.6742 C   0  0  0  0  0  0  0  0  0  0  0  0
   23.5170  -22.1046  -13.5670 C   0  0  0  0  0  0  0  0  0  0  0  0
   23.0339  -21.0367  -12.8231 C   0  0  0  0  0  0  0  0  0  0  0  0
   23.2671  -20.9871   -9.0055 C   0  0  0  0  0  0  0  0  0  0  0  0
   23.0770  -22.3536   -8.9834 O   0  0  0  0  0  0  0  0  0  0  0  0
   22.2903  -20.2891   -8.5820 O   0  0  0  0  0  0  0  0  0  0  0  0
  2  1  1  6
  2  3  1  0
  4  5  2  0
  4  2  1  0
  6  4  1  0
  7  6  1  0
  7  8  1  1
  9 14  1  0
  9  8  1  0
 10  9  2  0
 11 12  2  0
 11 10  1  0
 12 13  1  0
 13 14  2  0
 15 17  1  0
 15  7  1  0
 16 15  2  0
 18 17  1  0
 18 29  1  0
 19 20  1  0
 18 19  1  6
 20 21  2  0
 22 21  1  0
 23 22  1  0
 24 23  2  0
 25 24  1  0
 26 27  1  0
 26 25  2  0
 27 28  2  0
 28 23  1  0
 28 20  1  0
 29 30  1  0
 31 29  2  0
M  END
$$$$
