WGG.pdb
     RDKit          3D

 23 24  0  0  1  0  0  0  0  0999 V2000
   27.7320  -20.8067  -12.8530 N   0  0  0  0  0  0  0  0  0  0  0  0
   26.5430  -21.5454  -12.5170 C   0  0  1  0  0  0  0  0  0  0  0  0
   26.7646  -22.2499  -11.1977 C   0  0  0  0  0  0  0  0  0  0  0  0
   27.7210  -21.5902  -10.3048 C   0  0  0  0  0  0  0  0  0  0  0  0
   29.0719  -21.4615  -10.5594 C   0  0  0  0  0  0  0  0  0  0  0  0
   29.6330  -20.7873   -9.5607 N   0  0  0  0  0  0  0  0  0  0  0  0
   28.6971  -20.4610   -8.6438 C   0  0  0  0  0  0  0  0  0  0  0  0
   28.7696  -19.7854   -7.4549 C   0  0  0  0  0  0  0  0  0  0  0  0
   27.6527  -19.5752   -6.6644 C   0  0  0  0  0  0  0  0  0  0  0  0
   26.4663  -20.0789   -7.1322 C   0  0  0  0  0  0  0  0  0  0  0  0
   26.3608  -20.7677   -8.3331 C   0  0  0  0  0  0  0  0  0  0  0  0
   27.4846  -20.9596   -9.0957 C   0  0  0  0  0  0  0  0  0  0  0  0
   25.4278  -20.5940  -12.2918 C   0  0  0  0  0  0  0  0  0  0  0  0
   25.6912  -19.4856  -11.7673 O   0  0  0  0  0  0  0  0  0  0  0  0
   24.0737  -20.9345  -12.6662 N   0  0  0  0  0  0  0  0  0  0  0  0
   23.0548  -20.4571  -11.7863 C   0  0  0  0  0  0  0  0  0  0  0  0
   21.6856  -20.8280  -12.1280 C   0  0  0  0  0  0  0  0  0  0  0  0
   20.7608  -20.1836  -11.5451 O   0  0  0  0  0  0  0  0  0  0  0  0
   21.2911  -21.8321  -13.0423 N   0  0  0  0  0  0  0  0  0  0  0  0
   19.9415  -21.8271  -13.6066 C   0  0  0  0  0  0  0  0  0  0  0  0
   18.9606  -22.3095  -12.6132 C   0  0  0  0  0  0  0  0  0  0  0  0
   18.2089  -21.5044  -12.0337 O   0  0  0  0  0  0  0  0  0  0  0  0
   18.8710  -23.6526  -12.3212 O   0  0  0  0  0  0  0  0  0  0  0  0
  2 13  1  0
  2  1  1  1
  3  2  1  0
  4  5  2  0
  4  3  1  0
  6  5  1  0
  7 12  2  0
  7  6  1  0
  8  7  1  0
  9 10  1  0
  9  8  2  0
 10 11  2  0
 11 12  1  0
 12  4  1  0
 13 15  1  0
 14 13  2  0
 15 16  1  0
 16 17  1  0
 17 19  1  0
 17 18  2  0
 19 20  1  0
 20 21  1  0
 21 22  2  0
 21 23  1  0
M  END
$$$$
