WGG.pdb
     RDKit          3D

 23 24  0  0  1  0  0  0  0  0999 V2000
   22.7821  -19.6056  -15.1558 N   0  0  0  0  0  0  0  0  0  0  0  0
   23.9909  -19.5246  -14.3783 C   0  0  1  0  0  0  0  0  0  0  0  0
   24.2001  -20.8416  -13.6658 C   0  0  0  0  0  0  0  0  0  0  0  0
   23.7944  -20.8468  -12.2577 C   0  0  0  0  0  0  0  0  0  0  0  0
   22.4898  -20.9502  -11.8176 C   0  0  0  0  0  0  0  0  0  0  0  0
   22.4859  -20.9535  -10.4884 N   0  0  0  0  0  0  0  0  0  0  0  0
   23.7502  -20.8548  -10.0251 C   0  0  0  0  0  0  0  0  0  0  0  0
   24.2649  -20.8111   -8.7569 C   0  0  0  0  0  0  0  0  0  0  0  0
   25.6247  -20.6970   -8.5235 C   0  0  0  0  0  0  0  0  0  0  0  0
   26.4334  -20.6292   -9.6287 C   0  0  0  0  0  0  0  0  0  0  0  0
   25.9417  -20.6712  -10.9265 C   0  0  0  0  0  0  0  0  0  0  0  0
   24.5896  -20.7859  -11.1267 C   0  0  0  0  0  0  0  0  0  0  0  0
   25.1470  -19.3653  -15.2937 C   0  0  0  0  0  0  0  0  0  0  0  0
   24.9792  -19.6202  -16.5102 O   0  0  0  0  0  0  0  0  0  0  0  0
   26.4326  -18.9284  -14.7978 N   0  0  0  0  0  0  0  0  0  0  0  0
   27.4919  -18.9259  -15.7560 C   0  0  0  0  0  0  0  0  0  0  0  0
   28.0079  -20.2337  -16.1463 C   0  0  0  0  0  0  0  0  0  0  0  0
   28.9799  -20.2398  -16.9620 O   0  0  0  0  0  0  0  0  0  0  0  0
   27.5316  -21.4899  -15.7052 N   0  0  0  0  0  0  0  0  0  0  0  0
   28.2209  -22.7194  -16.0968 C   0  0  0  0  0  0  0  0  0  0  0  0
   27.6911  -23.2269  -17.3788 C   0  0  0  0  0  0  0  0  0  0  0  0
   28.0237  -24.3529  -17.7916 O   0  0  0  0  0  0  0  0  0  0  0  0
   26.8260  -22.4583  -18.1257 O   0  0  0  0  0  0  0  0  0  0  0  0
  2 13  1  0
  2  1  1  6
  3  2  1  0
  4  5  2  0
  4  3  1  0
  6  5  1  0
  7 12  2  0
  7  6  1  0
  8  7  1  0
  9 10  1  0
  9  8  2  0
 10 11  2  0
 11 12  1  0
 12  4  1  0
 13 15  1  0
 14 13  2  0
 15 16  1  0
 16 17  1  0
 17 19  1  0
 17 18  2  0
 19 20  1  0
 20 21  1  0
 21 22  2  0
 21 23  1  0
M  END
$$$$
