WGG.pdb
     RDKit          3D

 23 24  0  0  1  0  0  0  0  0999 V2000
   24.8434  -19.7599  -12.1064 N   0  0  0  0  0  0  0  0  0  0  0  0
   26.2472  -20.0777  -12.1289 C   0  0  1  0  0  0  0  0  0  0  0  0
   26.5010  -21.2270  -11.1798 C   0  0  0  0  0  0  0  0  0  0  0  0
   26.3246  -20.9006   -9.7623 C   0  0  0  0  0  0  0  0  0  0  0  0
   25.1228  -20.9667   -9.0857 C   0  0  0  0  0  0  0  0  0  0  0  0
   25.3285  -20.6344   -7.8152 N   0  0  0  0  0  0  0  0  0  0  0  0
   26.6334  -20.3471   -7.6210 C   0  0  0  0  0  0  0  0  0  0  0  0
   27.3341  -19.9541   -6.5121 C   0  0  0  0  0  0  0  0  0  0  0  0
   28.6950  -19.7042   -6.5581 C   0  0  0  0  0  0  0  0  0  0  0  0
   29.3086  -19.8699   -7.7730 C   0  0  0  0  0  0  0  0  0  0  0  0
   28.6256  -20.2674   -8.9146 C   0  0  0  0  0  0  0  0  0  0  0  0
   27.2776  -20.5089   -8.8383 C   0  0  0  0  0  0  0  0  0  0  0  0
   26.6115  -20.5724  -13.4788 C   0  0  0  0  0  0  0  0  0  0  0  0
   25.6855  -20.8571  -14.2754 O   0  0  0  0  0  0  0  0  0  0  0  0
   27.9959  -20.7227  -13.8665 N   0  0  0  0  0  0  0  0  0  0  0  0
   28.2233  -20.9414  -15.2595 C   0  0  0  0  0  0  0  0  0  0  0  0
   27.8924  -22.2702  -15.7634 C   0  0  0  0  0  0  0  0  0  0  0  0
   26.9656  -22.8916  -15.1591 O   0  0  0  0  0  0  0  0  0  0  0  0
   28.5021  -22.9297  -16.8556 N   0  0  0  0  0  0  0  0  0  0  0  0
   29.8432  -22.5444  -17.2950 C   0  0  0  0  0  0  0  0  0  0  0  0
   30.7415  -23.7167  -17.3129 C   0  0  0  0  0  0  0  0  0  0  0  0
   31.0342  -24.2972  -16.2516 O   0  0  0  0  0  0  0  0  0  0  0  0
   31.2611  -24.1755  -18.5031 O   0  0  0  0  0  0  0  0  0  0  0  0
  2 13  1  0
  2  1  1  6
  3  2  1  0
  4  5  2  0
  4  3  1  0
  6  5  1  0
  7 12  2  0
  7  6  1  0
  8  7  1  0
  9 10  1  0
  9  8  2  0
 10 11  2  0
 11 12  1  0
 12  4  1  0
 13 15  1  0
 14 13  2  0
 15 16  1  0
 16 17  1  0
 17 19  1  0
 17 18  2  0
 19 20  1  0
 20 21  1  0
 21 22  2  0
 21 23  1  0
M  END
$$$$
