WGG.pdb
     RDKit          3D

 23 24  0  0  1  0  0  0  0  0999 V2000
   27.7980  -21.7615  -10.5953 N   0  0  0  0  0  0  0  0  0  0  0  0
   26.6199  -21.1571  -10.0304 C   0  0  1  0  0  0  0  0  0  0  0  0
   27.0404  -20.0029   -9.1489 C   0  0  0  0  0  0  0  0  0  0  0  0
   28.0923  -20.3239   -8.1806 C   0  0  0  0  0  0  0  0  0  0  0  0
   29.2697  -20.9759   -8.4887 C   0  0  0  0  0  0  0  0  0  0  0  0
   30.0047  -21.0753   -7.3857 N   0  0  0  0  0  0  0  0  0  0  0  0
   29.3536  -20.5090   -6.3472 C   0  0  0  0  0  0  0  0  0  0  0  0
   29.6804  -20.3627   -5.0255 C   0  0  0  0  0  0  0  0  0  0  0  0
   28.8306  -19.7405   -4.1270 C   0  0  0  0  0  0  0  0  0  0  0  0
   27.6413  -19.2768   -4.6276 C   0  0  0  0  0  0  0  0  0  0  0  0
   27.2819  -19.4099   -5.9621 C   0  0  0  0  0  0  0  0  0  0  0  0
   28.1449  -20.0299   -6.8293 C   0  0  0  0  0  0  0  0  0  0  0  0
   25.8072  -20.5656  -11.1209 C   0  0  0  0  0  0  0  0  0  0  0  0
   26.3086  -19.6348  -11.7956 O   0  0  0  0  0  0  0  0  0  0  0  0
   24.4732  -21.0481  -11.3990 N   0  0  0  0  0  0  0  0  0  0  0  0
   23.4392  -20.0647  -11.3373 C   0  0  0  0  0  0  0  0  0  0  0  0
   22.0727  -20.5611  -11.4613 C   0  0  0  0  0  0  0  0  0  0  0  0
   21.1509  -19.6890  -11.4717 O   0  0  0  0  0  0  0  0  0  0  0  0
   21.6778  -21.9145  -11.5708 N   0  0  0  0  0  0  0  0  0  0  0  0
   20.7222  -22.3233  -12.6003 C   0  0  0  0  0  0  0  0  0  0  0  0
   19.3380  -22.0516  -12.1624 C   0  0  0  0  0  0  0  0  0  0  0  0
   19.0645  -21.9972  -10.9494 O   0  0  0  0  0  0  0  0  0  0  0  0
   18.3410  -21.8566  -13.0924 O   0  0  0  0  0  0  0  0  0  0  0  0
  2 13  1  0
  2  1  1  6
  3  2  1  0
  4  5  2  0
  4  3  1  0
  6  5  1  0
  7 12  2  0
  7  6  1  0
  8  7  1  0
  9 10  1  0
  9  8  2  0
 10 11  2  0
 11 12  1  0
 12  4  1  0
 13 15  1  0
 14 13  2  0
 15 16  1  0
 16 17  1  0
 17 19  1  0
 17 18  2  0
 19 20  1  0
 20 21  1  0
 21 22  2  0
 21 23  1  0
M  END
$$$$
