WGG.pdb
     RDKit          3D

 23 24  0  0  1  0  0  0  0  0999 V2000
   25.1129  -21.8324  -13.2495 N   0  0  0  0  0  0  0  0  0  0  0  0
   24.8760  -20.9942  -12.1033 C   0  0  1  0  0  0  0  0  0  0  0  0
   25.8021  -19.8012  -12.1734 C   0  0  0  0  0  0  0  0  0  0  0  0
   27.2262  -20.1360  -12.2582 C   0  0  0  0  0  0  0  0  0  0  0  0
   27.9885  -20.0366  -13.4051 C   0  0  0  0  0  0  0  0  0  0  0  0
   29.2381  -20.3885  -13.1197 N   0  0  0  0  0  0  0  0  0  0  0  0
   29.3351  -20.7212  -11.8148 C   0  0  0  0  0  0  0  0  0  0  0  0
   30.3872  -21.1487  -11.0497 C   0  0  0  0  0  0  0  0  0  0  0  0
   30.2409  -21.4433   -9.7049 C   0  0  0  0  0  0  0  0  0  0  0  0
   28.9861  -21.2860   -9.1753 C   0  0  0  0  0  0  0  0  0  0  0  0
   27.9000  -20.8543   -9.9249 C   0  0  0  0  0  0  0  0  0  0  0  0
   28.0756  -20.5686  -11.2549 C   0  0  0  0  0  0  0  0  0  0  0  0
   23.4986  -20.4492  -12.1769 C   0  0  0  0  0  0  0  0  0  0  0  0
   23.2791  -19.3230  -11.6703 O   0  0  0  0  0  0  0  0  0  0  0  0
   22.4374  -21.1953  -12.8147 N   0  0  0  0  0  0  0  0  0  0  0  0
   21.1602  -20.5560  -12.8293 C   0  0  0  0  0  0  0  0  0  0  0  0
   20.1205  -21.2162  -13.6116 C   0  0  0  0  0  0  0  0  0  0  0  0
   18.9599  -20.7058  -13.5583 O   0  0  0  0  0  0  0  0  0  0  0  0
   20.2803  -22.3653  -14.4201 N   0  0  0  0  0  0  0  0  0  0  0  0
   20.5514  -23.6662  -13.8082 C   0  0  0  0  0  0  0  0  0  0  0  0
   19.3143  -24.2436  -13.2443 C   0  0  0  0  0  0  0  0  0  0  0  0
   18.9129  -23.8879  -12.1212 O   0  0  0  0  0  0  0  0  0  0  0  0
   18.5969  -25.1788  -13.9568 O   0  0  0  0  0  0  0  0  0  0  0  0
  2 13  1  0
  2  1  1  6
  3  2  1  0
  4  5  2  0
  4  3  1  0
  6  5  1  0
  7 12  2  0
  7  6  1  0
  8  7  1  0
  9 10  1  0
  9  8  2  0
 10 11  2  0
 11 12  1  0
 12  4  1  0
 13 15  1  0
 14 13  2  0
 15 16  1  0
 16 17  1  0
 17 19  1  0
 17 18  2  0
 19 20  1  0
 20 21  1  0
 21 22  2  0
 21 23  1  0
M  END
$$$$
