WGG.pdb
     RDKit          3D

 23 24  0  0  1  0  0  0  0  0999 V2000
   24.5409  -20.5704   -9.5667 N   0  0  0  0  0  0  0  0  0  0  0  0
   25.8508  -20.0704   -9.8929 C   0  0  1  0  0  0  0  0  0  0  0  0
   26.8671  -20.7546   -9.0069 C   0  0  0  0  0  0  0  0  0  0  0  0
   26.6722  -20.5371   -7.5710 C   0  0  0  0  0  0  0  0  0  0  0  0
   25.4726  -20.7038   -6.9080 C   0  0  0  0  0  0  0  0  0  0  0  0
   25.6595  -20.4533   -5.6161 N   0  0  0  0  0  0  0  0  0  0  0  0
   26.9498  -20.1230   -5.3943 C   0  0  0  0  0  0  0  0  0  0  0  0
   27.6291  -19.7788   -4.2562 C   0  0  0  0  0  0  0  0  0  0  0  0
   28.9777  -19.4665   -4.2762 C   0  0  0  0  0  0  0  0  0  0  0  0
   29.6016  -19.5187   -5.4960 C   0  0  0  0  0  0  0  0  0  0  0  0
   28.9403  -19.8644   -6.6669 C   0  0  0  0  0  0  0  0  0  0  0  0
   27.6041  -20.1699   -6.6160 C   0  0  0  0  0  0  0  0  0  0  0  0
   26.1880  -20.4630  -11.2829 C   0  0  0  0  0  0  0  0  0  0  0  0
   26.8821  -21.4932  -11.4558 O   0  0  0  0  0  0  0  0  0  0  0  0
   25.7296  -19.6798  -12.4081 N   0  0  0  0  0  0  0  0  0  0  0  0
   26.7512  -19.2248  -13.2966 C   0  0  0  0  0  0  0  0  0  0  0  0
   26.9764  -20.0385  -14.4866 C   0  0  0  0  0  0  0  0  0  0  0  0
   27.7783  -19.5697  -15.3512 O   0  0  0  0  0  0  0  0  0  0  0  0
   26.3898  -21.2939  -14.7686 N   0  0  0  0  0  0  0  0  0  0  0  0
   26.5482  -21.9023  -16.0896 C   0  0  0  0  0  0  0  0  0  0  0  0
   27.8934  -22.4958  -16.2309 C   0  0  0  0  0  0  0  0  0  0  0  0
   28.8708  -21.7739  -16.5001 O   0  0  0  0  0  0  0  0  0  0  0  0
   28.0754  -23.8511  -16.0660 O   0  0  0  0  0  0  0  0  0  0  0  0
  2 13  1  0
  2  1  1  1
  3  2  1  0
  4  5  2  0
  4  3  1  0
  6  5  1  0
  7 12  2  0
  7  6  1  0
  8  7  1  0
  9 10  1  0
  9  8  2  0
 10 11  2  0
 11 12  1  0
 12  4  1  0
 13 15  1  0
 14 13  2  0
 15 16  1  0
 16 17  1  0
 17 19  1  0
 17 18  2  0
 19 20  1  0
 20 21  1  0
 21 22  2  0
 21 23  1  0
M  END
$$$$
