WGG.pdb
     RDKit          3D

 23 24  0  0  1  0  0  0  0  0999 V2000
   26.7843  -18.6546   -9.9661 N   0  0  0  0  0  0  0  0  0  0  0  0
   26.9971  -20.0780   -9.9371 C   0  0  1  0  0  0  0  0  0  0  0  0
   26.5549  -20.6086   -8.5921 C   0  0  0  0  0  0  0  0  0  0  0  0
   27.1437  -19.9217   -7.4395 C   0  0  0  0  0  0  0  0  0  0  0  0
   26.7642  -18.6713   -6.9934 C   0  0  0  0  0  0  0  0  0  0  0  0
   27.4787  -18.3670   -5.9148 N   0  0  0  0  0  0  0  0  0  0  0  0
   28.3265  -19.3772   -5.6253 C   0  0  0  0  0  0  0  0  0  0  0  0
   29.2577  -19.5419   -4.6350 C   0  0  0  0  0  0  0  0  0  0  0  0
   30.0322  -20.6858   -4.5430 C   0  0  0  0  0  0  0  0  0  0  0  0
   29.8202  -21.6486   -5.4959 C   0  0  0  0  0  0  0  0  0  0  0  0
   28.8837  -21.5108   -6.5116 C   0  0  0  0  0  0  0  0  0  0  0  0
   28.1300  -20.3667   -6.5767 C   0  0  0  0  0  0  0  0  0  0  0  0
   26.1158  -20.7213  -10.9417 C   0  0  0  0  0  0  0  0  0  0  0  0
   25.0765  -20.1138  -11.2938 O   0  0  0  0  0  0  0  0  0  0  0  0
   26.4450  -22.0133  -11.5002 N   0  0  0  0  0  0  0  0  0  0  0  0
   25.8521  -22.3039  -12.7668 C   0  0  0  0  0  0  0  0  0  0  0  0
   24.4053  -22.4931  -12.7703 C   0  0  0  0  0  0  0  0  0  0  0  0
   23.9405  -23.2995  -13.6328 O   0  0  0  0  0  0  0  0  0  0  0  0
   23.4747  -21.8671  -11.9090 N   0  0  0  0  0  0  0  0  0  0  0  0
   22.0427  -22.1280  -12.0553 C   0  0  0  0  0  0  0  0  0  0  0  0
   21.5139  -21.4638  -13.2640 C   0  0  0  0  0  0  0  0  0  0  0  0
   20.3186  -21.6019  -13.5819 O   0  0  0  0  0  0  0  0  0  0  0  0
   22.3393  -20.6875  -14.0472 O   0  0  0  0  0  0  0  0  0  0  0  0
  2 13  1  0
  2  1  1  1
  3  2  1  0
  4  5  2  0
  4  3  1  0
  6  5  1  0
  7 12  2  0
  7  6  1  0
  8  7  1  0
  9 10  1  0
  9  8  2  0
 10 11  2  0
 11 12  1  0
 12  4  1  0
 13 15  1  0
 14 13  2  0
 15 16  1  0
 16 17  1  0
 17 19  1  0
 17 18  2  0
 19 20  1  0
 20 21  1  0
 21 22  2  0
 21 23  1  0
M  END
$$$$
