NNA.pdb
     RDKit          3D

 22 21  0  0  1  0  0  0  0  0999 V2000
   13.4798   -5.5049   -8.4435 N   0  0  0  0  0  0  0  0  0  0  0  0
   14.8466   -5.1630   -8.2617 C   0  0  0  0  0  0  0  0  0  0  0  0
   15.0955   -4.1046   -7.6077 O   0  0  0  0  0  0  0  0  0  0  0  0
   15.9229   -6.0123   -8.8156 C   0  0  0  0  0  0  0  0  0  0  0  0
   15.2673   -7.2143   -9.4794 C   0  0  2  0  0  0  0  0  0  0  0  0
   14.9101   -8.1409   -8.4534 N   0  0  0  0  0  0  0  0  0  0  0  0
   16.2254   -7.8411  -10.4516 C   0  0  0  0  0  0  0  0  0  0  0  0
   17.1761   -8.4707   -9.9760 O   0  0  0  0  0  0  0  0  0  0  0  0
   17.9956   -9.8263  -14.8292 N   0  0  0  0  0  0  0  0  0  0  0  0
   16.7082   -9.2851  -15.1703 C   0  0  0  0  0  0  0  0  0  0  0  0
   16.2418   -9.5512  -16.3177 O   0  0  0  0  0  0  0  0  0  0  0  0
   15.9673   -8.4418  -14.1888 C   0  0  0  0  0  0  0  0  0  0  0  0
   16.7699   -8.3561  -12.8985 C   0  0  2  0  0  0  0  0  0  0  0  0
   16.0302   -7.7038  -11.8358 N   0  0  0  0  0  0  0  0  0  0  0  0
   18.0868   -7.7414  -13.0995 C   0  0  0  0  0  0  0  0  0  0  0  0
   18.2442   -6.4705  -13.1492 O   0  0  0  0  0  0  0  0  0  0  0  0
   21.7408   -8.7870  -13.4418 C   0  0  0  0  0  0  0  0  0  0  0  0
   20.5721   -7.8251  -13.4908 C   0  0  2  0  0  0  0  0  0  0  0  0
   19.3133   -8.4660  -13.2586 N   0  0  0  0  0  0  0  0  0  0  0  0
   20.5734   -7.0181  -14.7468 C   0  0  0  0  0  0  0  0  0  0  0  0
   19.9092   -7.3776  -15.7519 O   0  0  0  0  0  0  0  0  0  0  0  0
   21.2995   -5.8439  -14.8667 O   0  0  0  0  0  0  0  0  0  0  0  0
  1  2  1  0
  2  3  2  0
  2  4  1  0
  4  5  1  0
  5  7  1  0
  5  6  1  1
  7  8  2  0
  9 10  1  0
 10 12  1  0
 11 10  2  0
 13 12  1  6
 13 15  1  0
 14  7  1  0
 14 13  1  0
 15 19  1  0
 16 15  2  0
 18 17  1  6
 19 18  1  0
 20 22  1  0
 20 18  1  0
 21 20  2  0
M  END
$$$$
