NNA.pdb
     RDKit          3D

 22 21  0  0  1  0  0  0  0  0999 V2000
   16.6337  -12.2199  -18.3319 N   0  0  0  0  0  0  0  0  0  0  0  0
   17.7465  -11.3531  -18.1634 C   0  0  0  0  0  0  0  0  0  0  0  0
   18.6457  -11.3863  -19.0580 O   0  0  0  0  0  0  0  0  0  0  0  0
   17.8405  -10.4559  -16.9918 C   0  0  0  0  0  0  0  0  0  0  0  0
   19.2997  -10.4063  -16.5638 C   0  0  2  0  0  0  0  0  0  0  0  0
   19.6304  -11.6698  -15.9865 N   0  0  0  0  0  0  0  0  0  0  0  0
   19.4983   -9.2990  -15.5686 C   0  0  0  0  0  0  0  0  0  0  0  0
   18.8450   -9.3612  -14.5218 O   0  0  0  0  0  0  0  0  0  0  0  0
   22.8601   -4.6253  -14.1135 N   0  0  0  0  0  0  0  0  0  0  0  0
   22.1597   -5.7816  -13.6247 C   0  0  0  0  0  0  0  0  0  0  0  0
   21.6708   -5.7252  -12.4573 O   0  0  0  0  0  0  0  0  0  0  0  0
   22.0271   -6.9941  -14.4825 C   0  0  0  0  0  0  0  0  0  0  0  0
   20.6136   -7.0565  -15.0433 C   0  0  2  0  0  0  0  0  0  0  0  0
   20.3917   -8.2489  -15.8374 N   0  0  0  0  0  0  0  0  0  0  0  0
   20.2500   -5.8397  -15.7781 C   0  0  0  0  0  0  0  0  0  0  0  0
   20.7867   -5.5374  -16.9019 O   0  0  0  0  0  0  0  0  0  0  0  0
   17.4859   -3.4381  -16.1953 C   0  0  0  0  0  0  0  0  0  0  0  0
   18.9747   -3.6904  -16.0801 C   0  0  2  0  0  0  0  0  0  0  0  0
   19.2828   -4.8766  -15.3403 N   0  0  0  0  0  0  0  0  0  0  0  0
   19.6989   -2.4937  -15.5584 C   0  0  0  0  0  0  0  0  0  0  0  0
   20.0372   -2.4134  -14.3503 O   0  0  0  0  0  0  0  0  0  0  0  0
   20.0313   -1.4219  -16.3717 O   0  0  0  0  0  0  0  0  0  0  0  0
  1  2  1  0
  2  3  2  0
  2  4  1  0
  4  5  1  0
  5  7  1  0
  5  6  1  1
  7  8  2  0
  9 10  1  0
 10 12  1  0
 11 10  2  0
 13 12  1  6
 13 15  1  0
 14  7  1  0
 14 13  1  0
 15 19  1  0
 16 15  2  0
 18 17  1  1
 19 18  1  0
 20 22  1  0
 20 18  1  0
 21 20  2  0
M  END
$$$$
