NNA.pdb
     RDKit          3D

 22 21  0  0  1  0  0  0  0  0999 V2000
   16.0723  -11.4681  -16.8298 N   0  0  0  0  0  0  0  0  0  0  0  0
   15.3808  -10.2296  -16.7508 C   0  0  0  0  0  0  0  0  0  0  0  0
   14.2547  -10.1585  -17.3311 O   0  0  0  0  0  0  0  0  0  0  0  0
   15.9593   -9.0813  -16.0207 C   0  0  0  0  0  0  0  0  0  0  0  0
   17.2780   -9.5368  -15.4136 C   0  0  2  0  0  0  0  0  0  0  0  0
   16.9802  -10.3805  -14.3008 N   0  0  0  0  0  0  0  0  0  0  0  0
   18.0739   -8.3406  -14.9756 C   0  0  0  0  0  0  0  0  0  0  0  0
   17.6559   -7.7168  -13.9945 O   0  0  0  0  0  0  0  0  0  0  0  0
   22.4806   -9.3966  -14.8674 N   0  0  0  0  0  0  0  0  0  0  0  0
   21.9782   -8.0970  -14.5134 C   0  0  0  0  0  0  0  0  0  0  0  0
   21.9070   -7.8076  -13.2821 O   0  0  0  0  0  0  0  0  0  0  0  0
   21.5612   -7.1404  -15.5785 C   0  0  0  0  0  0  0  0  0  0  0  0
   20.0838   -6.8167  -15.4080 C   0  0  2  0  0  0  0  0  0  0  0  0
   19.2382   -7.9656  -15.6663 N   0  0  0  0  0  0  0  0  0  0  0  0
   19.6724   -5.6513  -16.1987 C   0  0  0  0  0  0  0  0  0  0  0  0
   19.6639   -5.6670  -17.4801 O   0  0  0  0  0  0  0  0  0  0  0  0
   17.3504   -2.9208  -16.1565 C   0  0  0  0  0  0  0  0  0  0  0  0
   18.7824   -3.3108  -16.4573 C   0  0  2  0  0  0  0  0  0  0  0  0
   19.2449   -4.3983  -15.6493 N   0  0  0  0  0  0  0  0  0  0  0  0
   19.6990   -2.1336  -16.4006 C   0  0  0  0  0  0  0  0  0  0  0  0
   20.6903   -2.1176  -15.6275 O   0  0  0  0  0  0  0  0  0  0  0  0
   19.5049   -1.0108  -17.1893 O   0  0  0  0  0  0  0  0  0  0  0  0
  1  2  1  0
  2  3  2  0
  2  4  1  0
  4  5  1  0
  5  7  1  0
  5  6  1  1
  7  8  2  0
  9 10  1  0
 10 12  1  0
 11 10  2  0
 13 12  1  6
 13 15  1  0
 14  7  1  0
 14 13  1  0
 15 19  1  0
 16 15  2  0
 18 17  1  1
 19 18  1  0
 20 22  1  0
 20 18  1  0
 21 20  2  0
M  END
$$$$
