HGW.pdb
     RDKit          3D

 29 31  0  0  1  0  0  0  0  0999 V2000
    9.3267  -16.1045   19.2396 N   0  0  0  0  0  0  0  0  0  0  0  0
    8.5954  -15.2185   20.1175 C   0  0  1  0  0  0  0  0  0  0  0  0
    7.3350  -14.7929   19.3910 C   0  0  0  0  0  0  0  0  0  0  0  0
    7.7337  -14.2090   18.0795 C   0  0  0  0  0  0  0  0  0  0  0  0
    8.2895  -12.9748   17.8624 C   0  0  0  0  0  0  0  0  0  0  0  0
    8.5087  -12.8138   16.5357 N   0  0  0  0  0  0  0  0  0  0  0  0
    8.0921  -13.9451   15.9116 C   0  0  0  0  0  0  0  0  0  0  0  0
    7.6247  -14.7837   16.8541 N   0  0  0  0  0  0  0  0  0  0  0  0
    8.2944  -15.9164   21.3787 C   0  0  0  0  0  0  0  0  0  0  0  0
    7.3653  -15.5059   22.1312 O   0  0  0  0  0  0  0  0  0  0  0  0
    9.0080  -17.0732   21.8315 N   0  0  0  0  0  0  0  0  0  0  0  0
   10.1635  -16.9493   22.6828 C   0  0  0  0  0  0  0  0  0  0  0  0
    9.7892  -16.3914   24.0219 C   0  0  0  0  0  0  0  0  0  0  0  0
    9.0343  -15.4111   24.0646 O   0  0  0  0  0  0  0  0  0  0  0  0
   10.2733  -16.9528   25.2330 N   0  0  0  0  0  0  0  0  0  0  0  0
    9.9448  -16.4511   26.5368 C   0  0  1  0  0  0  0  0  0  0  0  0
    8.5062  -16.6714   26.9050 C   0  0  0  0  0  0  0  0  0  0  0  0
    7.5745  -15.6246   26.5067 C   0  0  0  0  0  0  0  0  0  0  0  0
    6.3624  -15.7875   25.8753 C   0  0  0  0  0  0  0  0  0  0  0  0
    5.7850  -14.5955   25.6465 N   0  0  0  0  0  0  0  0  0  0  0  0
    6.6142  -13.6622   26.1256 C   0  0  0  0  0  0  0  0  0  0  0  0
    6.4622  -12.2937   26.1329 C   0  0  0  0  0  0  0  0  0  0  0  0
    7.4263  -11.4609   26.6840 C   0  0  0  0  0  0  0  0  0  0  0  0
    8.5395  -12.0682   27.2222 C   0  0  0  0  0  0  0  0  0  0  0  0
    8.6933  -13.4362   27.2155 C   0  0  0  0  0  0  0  0  0  0  0  0
    7.7332  -14.2691   26.6657 C   0  0  0  0  0  0  0  0  0  0  0  0
   10.7972  -17.0030   27.6046 C   0  0  0  0  0  0  0  0  0  0  0  0
   11.4630  -18.0371   27.3472 O   0  0  0  0  0  0  0  0  0  0  0  0
   10.9219  -16.4668   28.8772 O   0  0  0  0  0  0  0  0  0  0  0  0
  2  1  1  6
  2  9  1  0
  3  4  1  0
  3  2  1  0
  4  5  2  0
  5  6  1  0
  7  6  1  0
  8  4  1  0
  8  7  2  0
  9 11  1  0
  9 10  2  0
 11 12  1  0
 12 13  1  0
 13 14  2  0
 15 16  1  0
 15 13  1  0
 16 27  1  0
 16 17  1  1
 18 19  2  0
 18 17  1  0
 20 19  1  0
 21 26  2  0
 21 20  1  0
 22 21  1  0
 23 24  1  0
 23 22  2  0
 24 25  2  0
 25 26  1  0
 26 18  1  0
 27 29  1  0
 28 27  2  0
M  END
$$$$
