HGW.pdb
     RDKit          3D

 29 31  0  0  1  0  0  0  0  0999 V2000
    8.5857  -16.9368   18.7357 N   0  0  0  0  0  0  0  0  0  0  0  0
    8.7259  -16.2215   19.9843 C   0  0  1  0  0  0  0  0  0  0  0  0
    7.6599  -15.1444   20.0163 C   0  0  0  0  0  0  0  0  0  0  0  0
    7.9163  -14.2082   18.8860 C   0  0  0  0  0  0  0  0  0  0  0  0
    8.6496  -13.0506   18.9256 C   0  0  0  0  0  0  0  0  0  0  0  0
    8.6490  -12.4825   17.6963 N   0  0  0  0  0  0  0  0  0  0  0  0
    7.9157  -13.2791   16.8774 C   0  0  0  0  0  0  0  0  0  0  0  0
    7.4765  -14.3210   17.6063 N   0  0  0  0  0  0  0  0  0  0  0  0
    8.5895  -17.1641   21.1074 C   0  0  0  0  0  0  0  0  0  0  0  0
    7.5098  -17.7974   21.2837 O   0  0  0  0  0  0  0  0  0  0  0  0
    9.6348  -17.4244   22.0519 N   0  0  0  0  0  0  0  0  0  0  0  0
    9.3410  -17.9418   23.3638 C   0  0  0  0  0  0  0  0  0  0  0  0
    9.8090  -17.0008   24.4317 C   0  0  0  0  0  0  0  0  0  0  0  0
   10.4606  -16.0028   24.0970 O   0  0  0  0  0  0  0  0  0  0  0  0
    9.5270  -17.2217   25.8057 N   0  0  0  0  0  0  0  0  0  0  0  0
   10.0810  -16.4394   26.8736 C   0  0  1  0  0  0  0  0  0  0  0  0
    9.0331  -15.8166   27.7497 C   0  0  0  0  0  0  0  0  0  0  0  0
    7.8468  -15.3118   27.0712 C   0  0  0  0  0  0  0  0  0  0  0  0
    6.7733  -16.0450   26.6190 C   0  0  0  0  0  0  0  0  0  0  0  0
    5.8718  -15.2449   26.0243 N   0  0  0  0  0  0  0  0  0  0  0  0
    6.3536  -13.9992   26.0886 C   0  0  0  0  0  0  0  0  0  0  0  0
    5.7917  -12.8310   25.6242 C   0  0  0  0  0  0  0  0  0  0  0  0
    6.4291  -11.6081   25.7822 C   0  0  0  0  0  0  0  0  0  0  0  0
    7.6476  -11.6195   26.4248 C   0  0  0  0  0  0  0  0  0  0  0  0
    8.2108  -12.7865   26.8895 C   0  0  0  0  0  0  0  0  0  0  0  0
    7.5773  -14.0078   26.7324 C   0  0  0  0  0  0  0  0  0  0  0  0
   11.0201  -17.1945   27.7217 C   0  0  0  0  0  0  0  0  0  0  0  0
   11.0614  -18.4427   27.5828 O   0  0  0  0  0  0  0  0  0  0  0  0
   11.8657  -16.6314   28.6654 O   0  0  0  0  0  0  0  0  0  0  0  0
  2  1  1  6
  2  9  1  0
  3  4  1  0
  3  2  1  0
  4  5  2  0
  5  6  1  0
  7  6  1  0
  8  4  1  0
  8  7  2  0
  9 11  1  0
  9 10  2  0
 11 12  1  0
 12 13  1  0
 13 14  2  0
 15 16  1  0
 15 13  1  0
 16 27  1  0
 16 17  1  1
 18 19  2  0
 18 17  1  0
 20 19  1  0
 21 26  2  0
 21 20  1  0
 22 21  1  0
 23 24  1  0
 23 22  2  0
 24 25  2  0
 25 26  1  0
 26 18  1  0
 27 29  1  0
 28 27  2  0
M  END
$$$$
