HGW.pdb
     RDKit          3D

 29 31  0  0  1  0  0  0  0  0999 V2000
    7.3996  -18.7940   20.9994 N   0  0  0  0  0  0  0  0  0  0  0  0
    8.6630  -18.2177   20.5969 C   0  0  1  0  0  0  0  0  0  0  0  0
    8.6442  -18.0843   19.0871 C   0  0  0  0  0  0  0  0  0  0  0  0
    8.4093  -19.4366   18.5076 C   0  0  0  0  0  0  0  0  0  0  0  0
    8.2569  -20.6124   19.1959 C   0  0  0  0  0  0  0  0  0  0  0  0
    8.0613  -21.6211   18.3136 N   0  0  0  0  0  0  0  0  0  0  0  0
    8.0896  -21.0855   17.0665 C   0  0  0  0  0  0  0  0  0  0  0  0
    8.3007  -19.7630   17.1940 N   0  0  0  0  0  0  0  0  0  0  0  0
    8.8425  -16.9163   21.2619 C   0  0  0  0  0  0  0  0  0  0  0  0
    7.8391  -16.2496   21.6450 O   0  0  0  0  0  0  0  0  0  0  0  0
   10.1242  -16.3287   21.5155 N   0  0  0  0  0  0  0  0  0  0  0  0
   10.2409  -15.0481   22.1649 C   0  0  0  0  0  0  0  0  0  0  0  0
   10.3265  -15.2037   23.6525 C   0  0  0  0  0  0  0  0  0  0  0  0
   10.8914  -14.3187   24.3086 O   0  0  0  0  0  0  0  0  0  0  0  0
    9.7813  -16.3298   24.3240 N   0  0  0  0  0  0  0  0  0  0  0  0
    9.9756  -16.6026   25.7194 C   0  0  1  0  0  0  0  0  0  0  0  0
    8.6944  -16.6001   26.5019 C   0  0  0  0  0  0  0  0  0  0  0  0
    7.6835  -15.6422   26.0743 C   0  0  0  0  0  0  0  0  0  0  0  0
    6.6445  -15.8656   25.1997 C   0  0  0  0  0  0  0  0  0  0  0  0
    5.9234  -14.7446   25.0266 N   0  0  0  0  0  0  0  0  0  0  0  0
    6.4877  -13.7973   25.7831 C   0  0  0  0  0  0  0  0  0  0  0  0
    6.1087  -12.4838   25.9473 C   0  0  0  0  0  0  0  0  0  0  0  0
    6.8083  -11.6277   26.7865 C   0  0  0  0  0  0  0  0  0  0  0  0
    7.8972  -12.1544   27.4458 C   0  0  0  0  0  0  0  0  0  0  0  0
    8.2777  -13.4673   27.2826 C   0  0  0  0  0  0  0  0  0  0  0  0
    7.5817  -14.3232   26.4454 C   0  0  0  0  0  0  0  0  0  0  0  0
   10.6825  -17.8707   25.9716 C   0  0  0  0  0  0  0  0  0  0  0  0
   11.0437  -18.1160   27.1499 O   0  0  0  0  0  0  0  0  0  0  0  0
   10.9810  -18.8187   25.0046 O   0  0  0  0  0  0  0  0  0  0  0  0
  2  1  1  1
  2  9  1  0
  3  4  1  0
  3  2  1  0
  4  5  2  0
  5  6  1  0
  7  6  1  0
  8  4  1  0
  8  7  2  0
  9 11  1  0
  9 10  2  0
 11 12  1  0
 12 13  1  0
 13 14  2  0
 15 16  1  0
 15 13  1  0
 16 27  1  0
 16 17  1  1
 18 19  2  0
 18 17  1  0
 20 19  1  0
 21 26  2  0
 21 20  1  0
 22 21  1  0
 23 24  1  0
 23 22  2  0
 24 25  2  0
 25 26  1  0
 26 18  1  0
 27 29  1  0
 28 27  2  0
M  END
$$$$
