HGW.pdb
     RDKit          3D

 29 31  0  0  1  0  0  0  0  0999 V2000
    8.9225  -18.3649   20.8780 N   0  0  0  0  0  0  0  0  0  0  0  0
   10.1757  -18.0489   20.2298 C   0  0  1  0  0  0  0  0  0  0  0  0
    9.8659  -17.6732   18.7944 C   0  0  0  0  0  0  0  0  0  0  0  0
    9.4295  -18.9053   18.0793 C   0  0  0  0  0  0  0  0  0  0  0  0
    9.7401  -20.2002   18.4049 C   0  0  0  0  0  0  0  0  0  0  0  0
    9.1533  -21.0349   17.5144 N   0  0  0  0  0  0  0  0  0  0  0  0
    8.4710  -20.2699   16.6244 C   0  0  0  0  0  0  0  0  0  0  0  0
    8.6439  -18.9825   16.9744 N   0  0  0  0  0  0  0  0  0  0  0  0
   10.8397  -16.9523   20.9543 C   0  0  0  0  0  0  0  0  0  0  0  0
   11.9230  -16.4640   20.5232 O   0  0  0  0  0  0  0  0  0  0  0  0
   10.3248  -16.3769   22.1611 N   0  0  0  0  0  0  0  0  0  0  0  0
   11.0351  -15.3288   22.8484 C   0  0  0  0  0  0  0  0  0  0  0  0
   10.8775  -15.4544   24.3330 C   0  0  0  0  0  0  0  0  0  0  0  0
   11.4505  -14.6328   25.0605 O   0  0  0  0  0  0  0  0  0  0  0  0
   10.0946  -16.4821   24.9224 N   0  0  0  0  0  0  0  0  0  0  0  0
    9.9155  -16.6418   26.3373 C   0  0  1  0  0  0  0  0  0  0  0  0
    8.5021  -16.3993   26.7810 C   0  0  0  0  0  0  0  0  0  0  0  0
    7.7206  -15.4828   25.9613 C   0  0  0  0  0  0  0  0  0  0  0  0
    7.0989  -15.7619   24.7654 C   0  0  0  0  0  0  0  0  0  0  0  0
    6.4857  -14.6665   24.2851 N   0  0  0  0  0  0  0  0  0  0  0  0
    6.7055  -13.6807   25.1613 C   0  0  0  0  0  0  0  0  0  0  0  0
    6.2766  -12.3730   25.1154 C   0  0  0  0  0  0  0  0  0  0  0  0
    6.5907  -11.4720   26.1235 C   0  0  0  0  0  0  0  0  0  0  0  0
    7.3500  -11.9482   27.1697 C   0  0  0  0  0  0  0  0  0  0  0  0
    7.7799  -13.2551   27.2170 C   0  0  0  0  0  0  0  0  0  0  0  0
    7.4684  -14.1557   26.2122 C   0  0  0  0  0  0  0  0  0  0  0  0
   10.3486  -17.9599   26.8336 C   0  0  0  0  0  0  0  0  0  0  0  0
   10.6783  -18.8261   25.9851 O   0  0  0  0  0  0  0  0  0  0  0  0
   10.4207  -18.3198   28.1708 O   0  0  0  0  0  0  0  0  0  0  0  0
  2  1  1  1
  2  9  1  0
  3  4  1  0
  3  2  1  0
  4  5  2  0
  5  6  1  0
  7  6  1  0
  8  4  1  0
  8  7  2  0
  9 11  1  0
  9 10  2  0
 11 12  1  0
 12 13  1  0
 13 14  2  0
 15 16  1  0
 15 13  1  0
 16 27  1  0
 16 17  1  6
 18 19  2  0
 18 17  1  0
 20 19  1  0
 21 26  2  0
 21 20  1  0
 22 21  1  0
 23 24  1  0
 23 22  2  0
 24 25  2  0
 25 26  1  0
 26 18  1  0
 27 29  1  0
 28 27  2  0
M  END
$$$$
