HGW.pdb
     RDKit          3D

 29 31  0  0  1  0  0  0  0  0999 V2000
    9.4186  -19.6189   19.0380 N   0  0  0  0  0  0  0  0  0  0  0  0
    8.9378  -18.2560   19.0804 C   0  0  1  0  0  0  0  0  0  0  0  0
    7.7054  -18.1785   18.2014 C   0  0  0  0  0  0  0  0  0  0  0  0
    8.1242  -18.4415   16.7959 C   0  0  0  0  0  0  0  0  0  0  0  0
    8.9961  -17.6978   16.0435 C   0  0  0  0  0  0  0  0  0  0  0  0
    9.1175  -18.2615   14.8182 N   0  0  0  0  0  0  0  0  0  0  0  0
    8.3231  -19.3621   14.7933 C   0  0  0  0  0  0  0  0  0  0  0  0
    7.7260  -19.4628   15.9946 N   0  0  0  0  0  0  0  0  0  0  0  0
    8.6438  -17.8829   20.4741 C   0  0  0  0  0  0  0  0  0  0  0  0
    8.8406  -18.7069   21.4124 O   0  0  0  0  0  0  0  0  0  0  0  0
    8.1298  -16.6017   20.8575 N   0  0  0  0  0  0  0  0  0  0  0  0
    9.0034  -15.4684   21.0237 C   0  0  0  0  0  0  0  0  0  0  0  0
    9.5284  -15.3931   22.4249 C   0  0  0  0  0  0  0  0  0  0  0  0
   10.2436  -14.4323   22.7381 O   0  0  0  0  0  0  0  0  0  0  0  0
    9.2295  -16.3862   23.3948 N   0  0  0  0  0  0  0  0  0  0  0  0
    9.7985  -16.4172   24.7120 C   0  0  1  0  0  0  0  0  0  0  0  0
    8.7709  -16.6004   25.7909 C   0  0  0  0  0  0  0  0  0  0  0  0
    7.6386  -15.6842   25.7607 C   0  0  0  0  0  0  0  0  0  0  0  0
    6.3295  -15.9908   25.4663 C   0  0  0  0  0  0  0  0  0  0  0  0
    5.5631  -14.8878   25.5172 N   0  0  0  0  0  0  0  0  0  0  0  0
    6.3664  -13.8695   25.8427 C   0  0  0  0  0  0  0  0  0  0  0  0
    6.0481  -12.5419   26.0221 C   0  0  0  0  0  0  0  0  0  0  0  0
    7.0128  -11.6067   26.3706 C   0  0  0  0  0  0  0  0  0  0  0  0
    8.3006  -12.0698   26.5282 C   0  0  0  0  0  0  0  0  0  0  0  0
    8.6206  -13.3967   26.3490 C   0  0  0  0  0  0  0  0  0  0  0  0
    7.6601  -14.3315   26.0006 C   0  0  0  0  0  0  0  0  0  0  0  0
   10.8415  -17.4458   24.8713 C   0  0  0  0  0  0  0  0  0  0  0  0
   10.9290  -18.3337   23.9866 O   0  0  0  0  0  0  0  0  0  0  0  0
   11.7382  -17.5096   25.9271 O   0  0  0  0  0  0  0  0  0  0  0  0
  2  1  1  1
  2  9  1  0
  3  4  1  0
  3  2  1  0
  4  5  2  0
  5  6  1  0
  7  6  1  0
  8  4  1  0
  8  7  2  0
  9 11  1  0
  9 10  2  0
 11 12  1  0
 12 13  1  0
 13 14  2  0
 15 16  1  0
 15 13  1  0
 16 27  1  0
 16 17  1  1
 18 19  2  0
 18 17  1  0
 20 19  1  0
 21 26  2  0
 21 20  1  0
 22 21  1  0
 23 24  1  0
 23 22  2  0
 24 25  2  0
 25 26  1  0
 26 18  1  0
 27 29  1  0
 28 27  2  0
M  END
$$$$
