HGW.pdb
     RDKit          3D

 29 31  0  0  1  0  0  0  0  0999 V2000
    8.5620  -19.0847   20.1314 N   0  0  0  0  0  0  0  0  0  0  0  0
    9.8842  -18.5485   19.8976 C   0  0  1  0  0  0  0  0  0  0  0  0
   10.1260  -18.5647   18.4013 C   0  0  0  0  0  0  0  0  0  0  0  0
   10.3648  -19.9761   17.9881 C   0  0  0  0  0  0  0  0  0  0  0  0
   10.5178  -21.0609   18.8123 C   0  0  0  0  0  0  0  0  0  0  0  0
   10.7157  -22.1676   18.0573 N   0  0  0  0  0  0  0  0  0  0  0  0
   10.6883  -21.7852   16.7551 C   0  0  0  0  0  0  0  0  0  0  0  0
   10.4754  -20.4572   16.7232 N   0  0  0  0  0  0  0  0  0  0  0  0
    9.9668  -17.1875   20.4535 C   0  0  0  0  0  0  0  0  0  0  0  0
   11.0124  -16.4945   20.2967 O   0  0  0  0  0  0  0  0  0  0  0  0
    8.9043  -16.5684   21.1886 N   0  0  0  0  0  0  0  0  0  0  0  0
    8.9931  -15.1938   21.6104 C   0  0  0  0  0  0  0  0  0  0  0  0
    9.3937  -15.0967   23.0508 C   0  0  0  0  0  0  0  0  0  0  0  0
    9.7360  -13.9936   23.4967 O   0  0  0  0  0  0  0  0  0  0  0  0
    9.3907  -16.2267   23.9106 N   0  0  0  0  0  0  0  0  0  0  0  0
    9.9342  -16.2249   25.2388 C   0  0  1  0  0  0  0  0  0  0  0  0
    8.8875  -16.3945   26.3014 C   0  0  0  0  0  0  0  0  0  0  0  0
    7.6727  -15.6074   26.1368 C   0  0  0  0  0  0  0  0  0  0  0  0
    6.4522  -16.0493   25.6790 C   0  0  0  0  0  0  0  0  0  0  0  0
    5.5674  -15.0381   25.6419 N   0  0  0  0  0  0  0  0  0  0  0  0
    6.2061  -13.9451   26.0726 C   0  0  0  0  0  0  0  0  0  0  0  0
    5.7224  -12.6644   26.2207 C   0  0  0  0  0  0  0  0  0  0  0  0
    6.5267  -11.6368   26.6938 C   0  0  0  0  0  0  0  0  0  0  0  0
    7.8287  -11.9593   27.0076 C   0  0  0  0  0  0  0  0  0  0  0  0
    8.3140  -13.2391   26.8599 C   0  0  0  0  0  0  0  0  0  0  0  0
    7.5138  -14.2659   26.3875 C   0  0  0  0  0  0  0  0  0  0  0  0
   10.9828  -17.2405   25.4400 C   0  0  0  0  0  0  0  0  0  0  0  0
   11.1487  -18.0982   24.5369 O   0  0  0  0  0  0  0  0  0  0  0  0
   11.8043  -17.3229   26.5540 O   0  0  0  0  0  0  0  0  0  0  0  0
  2  1  1  6
  2  9  1  0
  3  4  1  0
  3  2  1  0
  4  5  2  0
  5  6  1  0
  7  6  1  0
  8  4  1  0
  8  7  2  0
  9 11  1  0
  9 10  2  0
 11 12  1  0
 12 13  1  0
 13 14  2  0
 15 16  1  0
 15 13  1  0
 16 27  1  0
 16 17  1  1
 18 19  2  0
 18 17  1  0
 20 19  1  0
 21 26  2  0
 21 20  1  0
 22 21  1  0
 23 24  1  0
 23 22  2  0
 24 25  2  0
 25 26  1  0
 26 18  1  0
 27 29  1  0
 28 27  2  0
M  END
$$$$
