HGW.pdb
     RDKit          3D

 29 31  0  0  1  0  0  0  0  0999 V2000
    8.2980  -18.7381   20.4973 N   0  0  0  0  0  0  0  0  0  0  0  0
    8.4617  -17.6844   19.5208 C   0  0  1  0  0  0  0  0  0  0  0  0
    7.0804  -17.2936   19.0341 C   0  0  0  0  0  0  0  0  0  0  0  0
    6.5229  -18.4387   18.2610 C   0  0  0  0  0  0  0  0  0  0  0  0
    7.1013  -19.0684   17.1894 C   0  0  0  0  0  0  0  0  0  0  0  0
    6.2845  -20.0613   16.7640 N   0  0  0  0  0  0  0  0  0  0  0  0
    5.1886  -20.0614   17.5652 C   0  0  0  0  0  0  0  0  0  0  0  0
    5.3419  -19.0760   18.4681 N   0  0  0  0  0  0  0  0  0  0  0  0
    9.1690  -16.5498   20.1377 C   0  0  0  0  0  0  0  0  0  0  0  0
    9.4499  -15.5234   19.4554 O   0  0  0  0  0  0  0  0  0  0  0  0
    9.5778  -16.5256   21.5106 N   0  0  0  0  0  0  0  0  0  0  0  0
   10.2306  -15.3711   22.0729 C   0  0  0  0  0  0  0  0  0  0  0  0
   10.4914  -15.5585   23.5363 C   0  0  0  0  0  0  0  0  0  0  0  0
   11.3307  -14.8328   24.0855 O   0  0  0  0  0  0  0  0  0  0  0  0
    9.8069  -16.5380   24.3032 N   0  0  0  0  0  0  0  0  0  0  0  0
   10.1006  -16.8293   25.6775 C   0  0  1  0  0  0  0  0  0  0  0  0
    9.4820  -15.8481   26.6304 C   0  0  0  0  0  0  0  0  0  0  0  0
    8.2136  -15.2635   26.2158 C   0  0  0  0  0  0  0  0  0  0  0  0
    7.1240  -15.9253   25.6970 C   0  0  0  0  0  0  0  0  0  0  0  0
    6.1374  -15.0586   25.4106 N   0  0  0  0  0  0  0  0  0  0  0  0
    6.5801  -13.8408   25.7407 C   0  0  0  0  0  0  0  0  0  0  0  0
    5.9322  -12.6299   25.6403 C   0  0  0  0  0  0  0  0  0  0  0  0
    6.5402  -11.4479   26.0402 C   0  0  0  0  0  0  0  0  0  0  0  0
    7.8198  -11.5446   26.5413 C   0  0  0  0  0  0  0  0  0  0  0  0
    8.4691  -12.7543   26.6421 C   0  0  0  0  0  0  0  0  0  0  0  0
    7.8649  -13.9348   26.2432 C   0  0  0  0  0  0  0  0  0  0  0  0
    9.7097  -18.1918   26.0800 C   0  0  0  0  0  0  0  0  0  0  0  0
    8.9739  -18.8452   25.2987 O   0  0  0  0  0  0  0  0  0  0  0  0
   10.0930  -18.8114   27.2598 O   0  0  0  0  0  0  0  0  0  0  0  0
  2  1  1  1
  2  9  1  0
  3  4  1  0
  3  2  1  0
  4  5  2  0
  5  6  1  0
  7  6  1  0
  8  4  1  0
  8  7  2  0
  9 11  1  0
  9 10  2  0
 11 12  1  0
 12 13  1  0
 13 14  2  0
 15 16  1  0
 15 13  1  0
 16 27  1  0
 16 17  1  1
 18 19  2  0
 18 17  1  0
 20 19  1  0
 21 26  2  0
 21 20  1  0
 22 21  1  0
 23 24  1  0
 23 22  2  0
 24 25  2  0
 25 26  1  0
 26 18  1  0
 27 29  1  0
 28 27  2  0
M  END
$$$$
