HGW.pdb
     RDKit          3D

 29 31  0  0  1  0  0  0  0  0999 V2000
    8.6238  -15.2758   22.2184 N   0  0  0  0  0  0  0  0  0  0  0  0
    9.4840  -15.9766   21.2913 C   0  0  1  0  0  0  0  0  0  0  0  0
    9.8337  -15.0131   20.1746 C   0  0  0  0  0  0  0  0  0  0  0  0
    8.5619  -14.4810   19.6096 C   0  0  0  0  0  0  0  0  0  0  0  0
    7.3970  -15.1748   19.4066 C   0  0  0  0  0  0  0  0  0  0  0  0
    6.4703  -14.3412   18.8772 N   0  0  0  0  0  0  0  0  0  0  0  0
    7.0469  -13.1194   18.7444 C   0  0  0  0  0  0  0  0  0  0  0  0
    8.3127  -13.2138   19.1903 N   0  0  0  0  0  0  0  0  0  0  0  0
   10.6825  -16.4551   22.0004 C   0  0  0  0  0  0  0  0  0  0  0  0
   11.7045  -16.8229   21.3537 O   0  0  0  0  0  0  0  0  0  0  0  0
   10.7762  -16.5369   23.4277 N   0  0  0  0  0  0  0  0  0  0  0  0
   11.9599  -17.0508   24.0679 C   0  0  0  0  0  0  0  0  0  0  0  0
   11.8345  -16.9926   25.5597 C   0  0  0  0  0  0  0  0  0  0  0  0
   12.7934  -17.3640   26.2492 O   0  0  0  0  0  0  0  0  0  0  0  0
   10.6549  -16.5265   26.1981 N   0  0  0  0  0  0  0  0  0  0  0  0
   10.4091  -16.6371   27.6076 C   0  0  1  0  0  0  0  0  0  0  0  0
    9.4266  -15.6210   28.1135 C   0  0  0  0  0  0  0  0  0  0  0  0
    8.3393  -15.2738   27.2082 C   0  0  0  0  0  0  0  0  0  0  0  0
    7.4688  -16.1389   26.5850 C   0  0  0  0  0  0  0  0  0  0  0  0
    6.6071  -15.4624   25.8064 N   0  0  0  0  0  0  0  0  0  0  0  0
    6.9129  -14.1657   25.9214 C   0  0  0  0  0  0  0  0  0  0  0  0
    6.3125  -13.0805   25.3231 C   0  0  0  0  0  0  0  0  0  0  0  0
    6.7548  -11.7863   25.5601 C   0  0  0  0  0  0  0  0  0  0  0  0
    7.8204  -11.6404   26.4208 C   0  0  0  0  0  0  0  0  0  0  0  0
    8.4221  -12.7242   27.0195 C   0  0  0  0  0  0  0  0  0  0  0  0
    7.9831  -14.0164   26.7842 C   0  0  0  0  0  0  0  0  0  0  0  0
    9.9561  -17.9785   28.0159 C   0  0  0  0  0  0  0  0  0  0  0  0
    9.5437  -18.7559   27.1190 O   0  0  0  0  0  0  0  0  0  0  0  0
    9.9499  -18.4514   29.3195 O   0  0  0  0  0  0  0  0  0  0  0  0
  2  1  1  1
  2  9  1  0
  3  4  1  0
  3  2  1  0
  4  5  2  0
  5  6  1  0
  7  6  1  0
  8  4  1  0
  8  7  2  0
  9 11  1  0
  9 10  2  0
 11 12  1  0
 12 13  1  0
 13 14  2  0
 15 16  1  0
 15 13  1  0
 16 27  1  0
 16 17  1  6
 18 19  2  0
 18 17  1  0
 20 19  1  0
 21 26  2  0
 21 20  1  0
 22 21  1  0
 23 24  1  0
 23 22  2  0
 24 25  2  0
 25 26  1  0
 26 18  1  0
 27 29  1  0
 28 27  2  0
M  END
$$$$
