HGW.pdb
     RDKit          3D

 29 31  0  0  1  0  0  0  0  0999 V2000
    7.0959  -16.4040   20.2726 N   0  0  0  0  0  0  0  0  0  0  0  0
    8.4068  -16.0227   20.7486 C   0  0  1  0  0  0  0  0  0  0  0  0
    8.4357  -14.5104   20.8460 C   0  0  0  0  0  0  0  0  0  0  0  0
    8.2322  -13.9563   19.4780 C   0  0  0  0  0  0  0  0  0  0  0  0
    8.0427  -14.6672   18.3213 C   0  0  0  0  0  0  0  0  0  0  0  0
    7.8948  -13.8036   17.2886 N   0  0  0  0  0  0  0  0  0  0  0  0
    7.9905  -12.5457   17.7899 C   0  0  0  0  0  0  0  0  0  0  0  0
    8.1946  -12.6482   19.1157 N   0  0  0  0  0  0  0  0  0  0  0  0
    8.6612  -16.6628   22.0501 C   0  0  0  0  0  0  0  0  0  0  0  0
    7.7498  -16.7198   22.9243 O   0  0  0  0  0  0  0  0  0  0  0  0
    9.9181  -17.2484   22.4103 N   0  0  0  0  0  0  0  0  0  0  0  0
   10.0751  -17.9729   23.6455 C   0  0  0  0  0  0  0  0  0  0  0  0
   10.5579  -17.0723   24.7412 C   0  0  0  0  0  0  0  0  0  0  0  0
   11.5567  -16.3709   24.5338 O   0  0  0  0  0  0  0  0  0  0  0  0
    9.9053  -17.0027   26.0004 N   0  0  0  0  0  0  0  0  0  0  0  0
   10.4492  -16.3365   27.1493 C   0  0  1  0  0  0  0  0  0  0  0  0
    9.4487  -15.4638   27.8500 C   0  0  0  0  0  0  0  0  0  0  0  0
    8.2850  -15.0670   27.0685 C   0  0  0  0  0  0  0  0  0  0  0  0
    7.3274  -15.8936   26.5260 C   0  0  0  0  0  0  0  0  0  0  0  0
    6.4116  -15.1768   25.8522 N   0  0  0  0  0  0  0  0  0  0  0  0
    6.7690  -13.8923   25.9548 C   0  0  0  0  0  0  0  0  0  0  0  0
    6.1447  -12.7785   25.4395 C   0  0  0  0  0  0  0  0  0  0  0  0
    6.6503  -11.5029   25.6492 C   0  0  0  0  0  0  0  0  0  0  0  0
    7.8036  -11.4054   26.3962 C   0  0  0  0  0  0  0  0  0  0  0  0
    8.4291  -12.5179   26.9120 C   0  0  0  0  0  0  0  0  0  0  0  0
    7.9271  -13.7916   26.7036 C   0  0  0  0  0  0  0  0  0  0  0  0
   11.0418  -17.2611   28.1318 C   0  0  0  0  0  0  0  0  0  0  0  0
   10.8583  -18.4926   27.9625 O   0  0  0  0  0  0  0  0  0  0  0  0
   11.7898  -16.8753   29.2338 O   0  0  0  0  0  0  0  0  0  0  0  0
  2  1  1  1
  2  9  1  0
  3  4  1  0
  3  2  1  0
  4  5  2  0
  5  6  1  0
  7  6  1  0
  8  4  1  0
  8  7  2  0
  9 11  1  0
  9 10  2  0
 11 12  1  0
 12 13  1  0
 13 14  2  0
 15 16  1  0
 15 13  1  0
 16 27  1  0
 16 17  1  1
 18 19  2  0
 18 17  1  0
 20 19  1  0
 21 26  2  0
 21 20  1  0
 22 21  1  0
 23 24  1  0
 23 22  2  0
 24 25  2  0
 25 26  1  0
 26 18  1  0
 27 29  1  0
 28 27  2  0
M  END
$$$$
