CYL.pdb
     RDKit          3D

 27 27  0  0  1  0  0  0  0  0999 V2000
    6.6160  -20.9060   23.5282 N   0  0  0  0  0  0  0  0  0  0  0  0
    6.4364  -19.6212   24.1484 C   0  0  1  0  0  0  0  0  0  0  0  0
    7.0161  -19.6067   25.5667 C   0  0  0  0  0  0  0  0  0  0  0  0
    6.5427  -18.0120   26.3039 S   0  0  0  0  0  0  0  0  0  0  0  0
    7.2037  -18.6144   23.3695 C   0  0  0  0  0  0  0  0  0  0  0  0
    8.3784  -18.8401   22.9793 O   0  0  0  0  0  0  0  0  0  0  0  0
    8.5936  -12.0889   17.7208 O   0  0  0  0  0  0  0  0  0  0  0  0
    8.0431  -12.9745   18.6175 C   0  0  0  0  0  0  0  0  0  0  0  0
    7.5764  -12.4883   19.8209 C   0  0  0  0  0  0  0  0  0  0  0  0
    7.0275  -13.3920   20.7075 C   0  0  0  0  0  0  0  0  0  0  0  0
    6.9372  -14.7543   20.4189 C   0  0  0  0  0  0  0  0  0  0  0  0
    6.3758  -15.6522   21.4141 C   0  0  0  0  0  0  0  0  0  0  0  0
    7.3411  -16.3077   22.3211 C   0  0  2  0  0  0  0  0  0  0  0  0
    6.6066  -17.3731   23.0560 N   0  0  0  0  0  0  0  0  0  0  0  0
    8.0532  -15.5058   23.2949 C   0  0  0  0  0  0  0  0  0  0  0  0
    8.2877  -14.2832   22.9961 O   0  0  0  0  0  0  0  0  0  0  0  0
    7.4089  -15.1933   19.2215 C   0  0  0  0  0  0  0  0  0  0  0  0
    7.9669  -14.3184   18.3043 C   0  0  0  0  0  0  0  0  0  0  0  0
    8.2664  -13.1988   28.1025 C   0  0  0  0  0  0  0  0  0  0  0  0
    8.0954  -12.7730   26.6847 C   0  0  2  0  0  0  0  0  0  0  0  0
    6.8678  -11.8403   26.5854 C   0  0  0  0  0  0  0  0  0  0  0  0
    7.9848  -13.8313   25.6556 C   0  0  0  0  0  0  0  0  0  0  0  0
    8.9952  -14.9226   25.5852 C   0  0  2  0  0  0  0  0  0  0  0  0
    8.5301  -15.9119   24.5702 N   0  0  0  0  0  0  0  0  0  0  0  0
    9.3964  -15.5991   26.8043 C   0  0  0  0  0  0  0  0  0  0  0  0
    8.6474  -16.4323   27.6068 O   0  0  0  0  0  0  0  0  0  0  0  0
   10.5999  -15.4176   27.2290 O   0  0  0  0  0  0  0  0  0  0  0  0
  2  1  1  6
  3  2  1  0
  4  3  1  0
  5  2  1  0
  5  6  2  0
  7  8  1  0
  8 18  2  0
  9  8  1  0
  9 10  2  0
 10 11  1  0
 11 17  2  0
 11 12  1  0
 13 12  1  1
 13 14  1  0
 14  5  1  0
 15 13  1  0
 16 15  2  0
 18 17  1  0
 20 19  1  1
 21 20  1  0
 23 22  1  1
 22 20  1  0
 23 24  1  0
 24 15  1  0
 25 26  1  0
 25 23  1  0
 27 25  2  0
M  END
$$$$
