CYL.pdb
     RDKit          3D

 27 27  0  0  1  0  0  0  0  0999 V2000
    7.0733  -15.2532   18.3843 N   0  0  0  0  0  0  0  0  0  0  0  0
    7.8810  -14.5497   19.3438 C   0  0  1  0  0  0  0  0  0  0  0  0
    7.1801  -13.2759   19.8275 C   0  0  0  0  0  0  0  0  0  0  0  0
    8.4111  -12.3388   20.7853 S   0  0  0  0  0  0  0  0  0  0  0  0
    8.0498  -15.4172   20.5388 C   0  0  0  0  0  0  0  0  0  0  0  0
    7.0929  -16.0877   21.0058 O   0  0  0  0  0  0  0  0  0  0  0  0
   12.1735  -21.0312   25.8250 O   0  0  0  0  0  0  0  0  0  0  0  0
   11.8549  -20.0540   24.9112 C   0  0  0  0  0  0  0  0  0  0  0  0
   10.5397  -19.9254   24.5164 C   0  0  0  0  0  0  0  0  0  0  0  0
   10.2395  -18.9394   23.5989 C   0  0  0  0  0  0  0  0  0  0  0  0
   11.2154  -18.0905   23.0751 C   0  0  0  0  0  0  0  0  0  0  0  0
   10.8309  -17.0952   22.0884 C   0  0  0  0  0  0  0  0  0  0  0  0
    9.5558  -16.3898   22.3347 C   0  0  2  0  0  0  0  0  0  0  0  0
    9.3110  -15.4960   21.1702 N   0  0  0  0  0  0  0  0  0  0  0  0
    9.4055  -15.6008   23.5402 C   0  0  0  0  0  0  0  0  0  0  0  0
    9.5684  -14.3348   23.4421 O   0  0  0  0  0  0  0  0  0  0  0  0
   12.5003  -18.2500   23.4902 C   0  0  0  0  0  0  0  0  0  0  0  0
   12.8426  -19.2277   24.4095 C   0  0  0  0  0  0  0  0  0  0  0  0
    8.0707  -12.2278   26.7378 C   0  0  0  0  0  0  0  0  0  0  0  0
    7.4079  -12.9572   25.6199 C   0  0  2  0  0  0  0  0  0  0  0  0
    5.9244  -12.5315   25.5529 C   0  0  0  0  0  0  0  0  0  0  0  0
    7.4889  -14.4353   25.6172 C   0  0  0  0  0  0  0  0  0  0  0  0
    8.7667  -15.1206   25.9556 C   0  0  2  0  0  0  0  0  0  0  0  0
    9.0879  -16.0637   24.8454 N   0  0  0  0  0  0  0  0  0  0  0  0
    8.8983  -15.7855   27.2383 C   0  0  0  0  0  0  0  0  0  0  0  0
    9.4162  -15.2841   28.4128 O   0  0  0  0  0  0  0  0  0  0  0  0
    8.4963  -17.0068   27.3308 O   0  0  0  0  0  0  0  0  0  0  0  0
  2  1  1  6
  3  2  1  0
  4  3  1  0
  5  2  1  0
  5  6  2  0
  7  8  1  0
  8 18  2  0
  9  8  1  0
  9 10  2  0
 10 11  1  0
 11 17  2  0
 11 12  1  0
 13 12  1  6
 13 14  1  0
 14  5  1  0
 15 13  1  0
 16 15  2  0
 18 17  1  0
 20 19  1  1
 21 20  1  0
 23 22  1  6
 22 20  1  0
 23 24  1  0
 24 15  1  0
 25 26  1  0
 25 23  1  0
 27 25  2  0
M  END
$$$$
