CYL.pdb
     RDKit          3D

 27 27  0  0  1  0  0  0  0  0999 V2000
    9.1325  -16.3540   18.1469 N   0  0  0  0  0  0  0  0  0  0  0  0
    8.0304  -16.4026   19.0693 C   0  0  1  0  0  0  0  0  0  0  0  0
    7.6173  -17.8491   19.3605 C   0  0  0  0  0  0  0  0  0  0  0  0
    9.1554  -18.7835   19.6284 S   0  0  0  0  0  0  0  0  0  0  0  0
    8.4774  -15.8236   20.3631 C   0  0  0  0  0  0  0  0  0  0  0  0
    9.6981  -15.6929   20.6389 O   0  0  0  0  0  0  0  0  0  0  0  0
    7.1912  -12.0061   28.3269 O   0  0  0  0  0  0  0  0  0  0  0  0
    7.0872  -12.5364   27.0622 C   0  0  0  0  0  0  0  0  0  0  0  0
    7.4183  -11.7408   25.9854 C   0  0  0  0  0  0  0  0  0  0  0  0
    7.3076  -12.2904   24.7245 C   0  0  0  0  0  0  0  0  0  0  0  0
    6.8781  -13.6025   24.5214 C   0  0  0  0  0  0  0  0  0  0  0  0
    6.7554  -14.1040   23.1630 C   0  0  0  0  0  0  0  0  0  0  0  0
    7.9007  -14.8836   22.6485 C   0  0  2  0  0  0  0  0  0  0  0  0
    7.5151  -15.4081   21.3102 N   0  0  0  0  0  0  0  0  0  0  0  0
    8.4103  -15.9915   23.4304 C   0  0  0  0  0  0  0  0  0  0  0  0
    8.1271  -17.1750   23.0331 O   0  0  0  0  0  0  0  0  0  0  0  0
    6.5613  -14.3539   25.6095 C   0  0  0  0  0  0  0  0  0  0  0  0
    6.6589  -13.8393   26.8915 C   0  0  0  0  0  0  0  0  0  0  0  0
   13.3727  -17.9623   23.0668 C   0  0  0  0  0  0  0  0  0  0  0  0
   12.0595  -18.2873   23.6918 C   0  0  2  0  0  0  0  0  0  0  0  0
   11.4854  -19.5557   23.0223 C   0  0  0  0  0  0  0  0  0  0  0  0
   11.0211  -17.2323   23.7024 C   0  0  0  0  0  0  0  0  0  0  0  0
   10.2126  -16.9829   24.9275 C   0  0  2  0  0  0  0  0  0  0  0  0
    9.2068  -15.9295   24.6053 N   0  0  0  0  0  0  0  0  0  0  0  0
   10.8880  -16.6733   26.1736 C   0  0  0  0  0  0  0  0  0  0  0  0
   11.3640  -15.4556   26.6093 O   0  0  0  0  0  0  0  0  0  0  0  0
   11.0947  -17.6363   27.0053 O   0  0  0  0  0  0  0  0  0  0  0  0
  2  1  1  6
  3  2  1  0
  4  3  1  0
  5  2  1  0
  5  6  2  0
  7  8  1  0
  8 18  2  0
  9  8  1  0
  9 10  2  0
 10 11  1  0
 11 17  2  0
 11 12  1  0
 13 12  1  1
 13 14  1  0
 14  5  1  0
 15 13  1  0
 16 15  2  0
 18 17  1  0
 20 19  1  6
 21 20  1  0
 23 22  1  6
 22 20  1  0
 23 24  1  0
 24 15  1  0
 25 26  1  0
 25 23  1  0
 27 25  2  0
M  END
$$$$
