CYL.pdb
     RDKit          3D

 27 27  0  0  1  0  0  0  0  0999 V2000
    4.4626  -16.9250   22.4814 N   0  0  0  0  0  0  0  0  0  0  0  0
    5.3414  -17.8826   21.8662 C   0  0  1  0  0  0  0  0  0  0  0  0
    4.9752  -18.1027   20.3947 C   0  0  0  0  0  0  0  0  0  0  0  0
    3.1890  -18.4466   20.3510 S   0  0  0  0  0  0  0  0  0  0  0  0
    6.7202  -17.3277   21.8787 C   0  0  0  0  0  0  0  0  0  0  0  0
    7.6971  -17.9823   21.4311 O   0  0  0  0  0  0  0  0  0  0  0  0
    7.5550  -14.2160   16.2536 O   0  0  0  0  0  0  0  0  0  0  0  0
    7.7386  -14.2180   17.6166 C   0  0  0  0  0  0  0  0  0  0  0  0
    7.1485  -13.2187   18.3619 C   0  0  0  0  0  0  0  0  0  0  0  0
    7.3441  -13.2375   19.7277 C   0  0  0  0  0  0  0  0  0  0  0  0
    8.1080  -14.2226   20.3551 C   0  0  0  0  0  0  0  0  0  0  0  0
    8.2971  -14.1607   21.7946 C   0  0  0  0  0  0  0  0  0  0  0  0
    8.3130  -15.4551   22.5076 C   0  0  2  0  0  0  0  0  0  0  0  0
    6.9467  -16.0359   22.4036 N   0  0  0  0  0  0  0  0  0  0  0  0
    8.7060  -15.4899   23.9014 C   0  0  0  0  0  0  0  0  0  0  0  0
    9.9451  -15.3141   24.1708 O   0  0  0  0  0  0  0  0  0  0  0  0
    8.6728  -15.1901   19.5845 C   0  0  0  0  0  0  0  0  0  0  0  0
    8.5004  -15.2065   18.2104 C   0  0  0  0  0  0  0  0  0  0  0  0
    8.7420  -12.2131   27.0574 C   0  0  0  0  0  0  0  0  0  0  0  0
    7.6402  -13.1013   26.5905 C   0  0  2  0  0  0  0  0  0  0  0  0
    6.2860  -12.4211   26.8906 C   0  0  0  0  0  0  0  0  0  0  0  0
    7.6096  -14.4897   27.1032 C   0  0  0  0  0  0  0  0  0  0  0  0
    8.3902  -15.5609   26.4249 C   0  0  2  0  0  0  0  0  0  0  0  0
    7.8710  -15.6936   25.0328 N   0  0  0  0  0  0  0  0  0  0  0  0
    8.4991  -16.8652   27.0507 C   0  0  0  0  0  0  0  0  0  0  0  0
    9.2106  -17.2170   28.1773 O   0  0  0  0  0  0  0  0  0  0  0  0
    7.8688  -17.8508   26.5091 O   0  0  0  0  0  0  0  0  0  0  0  0
  2  1  1  6
  3  2  1  0
  4  3  1  0
  5  2  1  0
  5  6  2  0
  7  8  1  0
  8 18  2  0
  9  8  1  0
  9 10  2  0
 10 11  1  0
 11 17  2  0
 11 12  1  0
 13 12  1  1
 13 14  1  0
 14  5  1  0
 15 13  1  0
 16 15  2  0
 18 17  1  0
 20 19  1  1
 21 20  1  0
 23 22  1  1
 22 20  1  0
 23 24  1  0
 24 15  1  0
 25 26  1  0
 25 23  1  0
 27 25  2  0
M  END
$$$$
