CYL.pdb
     RDKit          3D

 27 27  0  0  1  0  0  0  0  0999 V2000
   12.2652  -16.6790   19.7645 N   0  0  0  0  0  0  0  0  0  0  0  0
   11.0403  -17.1682   20.3373 C   0  0  1  0  0  0  0  0  0  0  0  0
   11.1575  -18.6501   20.7087 C   0  0  0  0  0  0  0  0  0  0  0  0
   12.6167  -18.8009   21.7852 S   0  0  0  0  0  0  0  0  0  0  0  0
   10.7913  -16.4345   21.6057 C   0  0  0  0  0  0  0  0  0  0  0  0
   11.6862  -15.7363   22.1487 O   0  0  0  0  0  0  0  0  0  0  0  0
    5.4814  -11.9488   27.0821 O   0  0  0  0  0  0  0  0  0  0  0  0
    6.0369  -12.7688   26.1278 C   0  0  0  0  0  0  0  0  0  0  0  0
    6.8980  -12.2145   25.2040 C   0  0  0  0  0  0  0  0  0  0  0  0
    7.4453  -13.0530   24.2545 C   0  0  0  0  0  0  0  0  0  0  0  0
    7.1526  -14.4167   24.2108 C   0  0  0  0  0  0  0  0  0  0  0  0
    7.7414  -15.2330   23.1624 C   0  0  0  0  0  0  0  0  0  0  0  0
    9.1442  -15.6495   23.3692 C   0  0  2  0  0  0  0  0  0  0  0  0
    9.5229  -16.5183   22.2217 N   0  0  0  0  0  0  0  0  0  0  0  0
    9.5035  -16.3427   24.5893 C   0  0  0  0  0  0  0  0  0  0  0  0
    9.8763  -17.5632   24.4879 O   0  0  0  0  0  0  0  0  0  0  0  0
    6.2988  -14.9240   25.1395 C   0  0  0  0  0  0  0  0  0  0  0  0
    5.7285  -14.1159   26.1089 C   0  0  0  0  0  0  0  0  0  0  0  0
   12.0378  -14.1734   27.7993 C   0  0  0  0  0  0  0  0  0  0  0  0
   10.5832  -14.3599   28.0642 C   0  0  2  0  0  0  0  0  0  0  0  0
   10.1842  -13.5119   29.2924 C   0  0  0  0  0  0  0  0  0  0  0  0
   10.0877  -15.7426   28.2479 C   0  0  0  0  0  0  0  0  0  0  0  0
    9.9357  -16.6504   27.0776 C   0  0  2  0  0  0  0  0  0  0  0  0
    9.4998  -15.8264   25.9130 N   0  0  0  0  0  0  0  0  0  0  0  0
    9.1051  -17.8336   27.1994 C   0  0  0  0  0  0  0  0  0  0  0  0
    9.4117  -19.0365   27.7978 O   0  0  0  0  0  0  0  0  0  0  0  0
    7.9220  -17.7976   26.6885 O   0  0  0  0  0  0  0  0  0  0  0  0
  2  1  1  1
  3  2  1  0
  4  3  1  0
  5  2  1  0
  5  6  2  0
  7  8  1  0
  8 18  2  0
  9  8  1  0
  9 10  2  0
 10 11  1  0
 11 17  2  0
 11 12  1  0
 13 12  1  1
 13 14  1  0
 14  5  1  0
 15 13  1  0
 16 15  2  0
 18 17  1  0
 20 19  1  1
 21 20  1  0
 23 22  1  1
 22 20  1  0
 23 24  1  0
 24 15  1  0
 25 26  1  0
 25 23  1  0
 27 25  2  0
M  END
$$$$
