CYL.pdb
     RDKit          3D

 27 27  0  0  1  0  0  0  0  0999 V2000
    8.0840  -19.2447   20.3614 N   0  0  0  0  0  0  0  0  0  0  0  0
    7.4412  -18.4613   21.3816 C   0  0  1  0  0  0  0  0  0  0  0  0
    7.1376  -19.3102   22.6206 C   0  0  0  0  0  0  0  0  0  0  0  0
    6.0498  -18.3089   23.6811 S   0  0  0  0  0  0  0  0  0  0  0  0
    8.3841  -17.3991   21.8194 C   0  0  0  0  0  0  0  0  0  0  0  0
    9.6029  -17.6416   22.0168 O   0  0  0  0  0  0  0  0  0  0  0  0
    7.8237  -13.0185   16.4665 O   0  0  0  0  0  0  0  0  0  0  0  0
    7.9364  -13.1941   17.8259 C   0  0  0  0  0  0  0  0  0  0  0  0
    6.8188  -13.5833   18.5343 C   0  0  0  0  0  0  0  0  0  0  0  0
    6.9515  -13.7544   19.8971 C   0  0  0  0  0  0  0  0  0  0  0  0
    8.1634  -13.5468   20.5571 C   0  0  0  0  0  0  0  0  0  0  0  0
    8.2209  -13.7153   21.9994 C   0  0  0  0  0  0  0  0  0  0  0  0
    8.7978  -14.9859   22.4861 C   0  0  2  0  0  0  0  0  0  0  0  0
    7.9081  -16.0844   22.0206 N   0  0  0  0  0  0  0  0  0  0  0  0
    9.0183  -15.1642   23.9067 C   0  0  0  0  0  0  0  0  0  0  0  0
   10.2163  -15.3946   24.2946 O   0  0  0  0  0  0  0  0  0  0  0  0
    9.2415  -13.1637   19.8224 C   0  0  0  0  0  0  0  0  0  0  0  0
    9.1496  -12.9812   18.4526 C   0  0  0  0  0  0  0  0  0  0  0  0
    8.4141  -11.7530   26.9997 C   0  0  0  0  0  0  0  0  0  0  0  0
    7.3755  -12.7480   26.6098 C   0  0  2  0  0  0  0  0  0  0  0  0
    5.9888  -12.2212   27.0415 C   0  0  0  0  0  0  0  0  0  0  0  0
    7.5375  -14.1383   27.0916 C   0  0  0  0  0  0  0  0  0  0  0  0
    8.4499  -15.0792   26.3851 C   0  0  2  0  0  0  0  0  0  0  0  0
    8.0527  -15.1089   24.9476 N   0  0  0  0  0  0  0  0  0  0  0  0
    8.6115  -16.4284   26.8933 C   0  0  0  0  0  0  0  0  0  0  0  0
    8.3910  -17.6213   26.2394 O   0  0  0  0  0  0  0  0  0  0  0  0
    9.0042  -16.5727   28.1127 O   0  0  0  0  0  0  0  0  0  0  0  0
  2  1  1  6
  3  2  1  0
  4  3  1  0
  5  2  1  0
  5  6  2  0
  7  8  1  0
  8 18  2  0
  9  8  1  0
  9 10  2  0
 10 11  1  0
 11 17  2  0
 11 12  1  0
 13 12  1  1
 13 14  1  0
 14  5  1  0
 15 13  1  0
 16 15  2  0
 18 17  1  0
 20 19  1  1
 21 20  1  0
 23 22  1  1
 22 20  1  0
 23 24  1  0
 24 15  1  0
 25 26  1  0
 25 23  1  0
 27 25  2  0
M  END
$$$$
