CYL.pdb
     RDKit          3D

 27 27  0  0  1  0  0  0  0  0999 V2000
    8.5782  -15.5698   19.7818 N   0  0  0  0  0  0  0  0  0  0  0  0
    8.2178  -14.3880   20.5173 C   0  0  1  0  0  0  0  0  0  0  0  0
    6.9589  -13.7373   19.9345 C   0  0  0  0  0  0  0  0  0  0  0  0
    7.3811  -13.2140   18.2438 S   0  0  0  0  0  0  0  0  0  0  0  0
    7.8799  -14.7876   21.9084 C   0  0  0  0  0  0  0  0  0  0  0  0
    7.2951  -13.9996   22.6959 O   0  0  0  0  0  0  0  0  0  0  0  0
    7.5260  -20.6472   28.6447 O   0  0  0  0  0  0  0  0  0  0  0  0
    7.6386  -19.9937   27.4398 C   0  0  0  0  0  0  0  0  0  0  0  0
    6.5013  -19.8107   26.6813 C   0  0  0  0  0  0  0  0  0  0  0  0
    6.6341  -19.1530   25.4756 C   0  0  0  0  0  0  0  0  0  0  0  0
    7.8654  -18.6807   25.0190 C   0  0  0  0  0  0  0  0  0  0  0  0
    7.9349  -18.0250   23.7240 C   0  0  0  0  0  0  0  0  0  0  0  0
    7.8820  -16.5481   23.7359 C   0  0  2  0  0  0  0  0  0  0  0  0
    8.2201  -16.0808   22.3641 N   0  0  0  0  0  0  0  0  0  0  0  0
    8.7128  -15.8183   24.6717 C   0  0  0  0  0  0  0  0  0  0  0  0
    9.5417  -14.9702   24.1894 O   0  0  0  0  0  0  0  0  0  0  0  0
    8.9626  -18.8814   25.7966 C   0  0  0  0  0  0  0  0  0  0  0  0
    8.8712  -19.5369   27.0132 C   0  0  0  0  0  0  0  0  0  0  0  0
    8.4378  -11.7770   25.9342 C   0  0  0  0  0  0  0  0  0  0  0  0
    7.4175  -12.8621   25.9851 C   0  0  2  0  0  0  0  0  0  0  0  0
    6.0271  -12.2327   26.2242 C   0  0  0  0  0  0  0  0  0  0  0  0
    7.6264  -13.9597   26.9562 C   0  0  0  0  0  0  0  0  0  0  0  0
    8.9019  -14.7278   26.9625 C   0  0  2  0  0  0  0  0  0  0  0  0
    8.7205  -15.9230   26.0886 N   0  0  0  0  0  0  0  0  0  0  0  0
    9.4931  -15.1129   28.2301 C   0  0  0  0  0  0  0  0  0  0  0  0
    9.6633  -16.3798   28.7452 O   0  0  0  0  0  0  0  0  0  0  0  0
    9.9208  -14.1775   29.0073 O   0  0  0  0  0  0  0  0  0  0  0  0
  2  1  1  6
  3  2  1  0
  4  3  1  0
  5  2  1  0
  5  6  2  0
  7  8  1  0
  8 18  2  0
  9  8  1  0
  9 10  2  0
 10 11  1  0
 11 17  2  0
 11 12  1  0
 13 12  1  6
 13 14  1  0
 14  5  1  0
 15 13  1  0
 16 15  2  0
 18 17  1  0
 20 19  1  1
 21 20  1  0
 23 22  1  1
 22 20  1  0
 23 24  1  0
 24 15  1  0
 25 26  1  0
 25 23  1  0
 27 25  2  0
M  END
$$$$
