CYL.pdb
     RDKit          3D

 27 27  0  0  1  0  0  0  0  0999 V2000
    6.6203  -19.4525   21.5521 N   0  0  0  0  0  0  0  0  0  0  0  0
    6.6561  -18.5375   22.6607 C   0  0  1  0  0  0  0  0  0  0  0  0
    6.6896  -19.2885   23.9959 C   0  0  0  0  0  0  0  0  0  0  0  0
    6.3518  -18.0570   25.2920 S   0  0  0  0  0  0  0  0  0  0  0  0
    7.9196  -17.7585   22.5837 C   0  0  0  0  0  0  0  0  0  0  0  0
    8.9870  -18.2758   22.1641 O   0  0  0  0  0  0  0  0  0  0  0  0
    7.2664  -13.1911   17.2681 O   0  0  0  0  0  0  0  0  0  0  0  0
    7.6398  -13.4465   18.5669 C   0  0  0  0  0  0  0  0  0  0  0  0
    6.6576  -13.5175   19.5325 C   0  0  0  0  0  0  0  0  0  0  0  0
    7.0516  -13.7745   20.8297 C   0  0  0  0  0  0  0  0  0  0  0  0
    8.3907  -13.9595   21.1762 C   0  0  0  0  0  0  0  0  0  0  0  0
    8.7347  -14.1950   22.5684 C   0  0  0  0  0  0  0  0  0  0  0  0
    9.1580  -15.5684   22.9133 C   0  0  2  0  0  0  0  0  0  0  0  0
    7.9298  -16.4054   22.9894 N   0  0  0  0  0  0  0  0  0  0  0  0
    9.9226  -15.7897   24.1235 C   0  0  0  0  0  0  0  0  0  0  0  0
   11.0171  -15.1395   24.2585 O   0  0  0  0  0  0  0  0  0  0  0  0
    9.3284  -13.8815   20.1946 C   0  0  0  0  0  0  0  0  0  0  0  0
    8.9738  -13.6254   18.8806 C   0  0  0  0  0  0  0  0  0  0  0  0
    8.5515  -13.1566   28.5168 C   0  0  0  0  0  0  0  0  0  0  0  0
    9.4491  -14.3051   28.2069 C   0  0  2  0  0  0  0  0  0  0  0  0
   10.9147  -13.8718   28.4329 C   0  0  0  0  0  0  0  0  0  0  0  0
    9.3295  -14.9329   26.8717 C   0  0  0  0  0  0  0  0  0  0  0  0
    9.9044  -16.2830   26.6194 C   0  0  2  0  0  0  0  0  0  0  0  0
    9.6019  -16.6522   25.2061 N   0  0  0  0  0  0  0  0  0  0  0  0
    9.5677  -17.3765   27.5112 C   0  0  0  0  0  0  0  0  0  0  0  0
    8.7953  -18.4874   27.2494 O   0  0  0  0  0  0  0  0  0  0  0  0
   10.0254  -17.3378   28.7157 O   0  0  0  0  0  0  0  0  0  0  0  0
  2  1  1  6
  3  2  1  0
  4  3  1  0
  5  2  1  0
  5  6  2  0
  7  8  1  0
  8 18  2  0
  9  8  1  0
  9 10  2  0
 10 11  1  0
 11 17  2  0
 11 12  1  0
 13 12  1  1
 13 14  1  0
 14  5  1  0
 15 13  1  0
 16 15  2  0
 18 17  1  0
 20 19  1  6
 21 20  1  0
 23 22  1  1
 22 20  1  0
 23 24  1  0
 24 15  1  0
 25 26  1  0
 25 23  1  0
 27 25  2  0
M  END
$$$$
