KYG.pdb
     RDKit          3D

 26 26  0  0  1  0  0  0  0  0999 V2000
   11.0235  -16.4097   20.2747 N   0  0  0  0  0  0  0  0  0  0  0  0
    9.7662  -16.7424   20.9157 C   0  0  1  0  0  0  0  0  0  0  0  0
    9.8470  -18.1778   21.3942 C   0  0  0  0  0  0  0  0  0  0  0  0
    9.5967  -19.0629   20.2154 C   0  0  0  0  0  0  0  0  0  0  0  0
    9.6182  -20.5118   20.5894 C   0  0  0  0  0  0  0  0  0  0  0  0
    9.2521  -21.3775   19.4153 C   0  0  0  0  0  0  0  0  0  0  0  0
    9.2299  -22.7572   19.8524 N   0  0  0  0  0  0  0  0  0  0  0  0
    9.5492  -15.8553   22.0824 C   0  0  0  0  0  0  0  0  0  0  0  0
   10.4919  -15.2393   22.6488 O   0  0  0  0  0  0  0  0  0  0  0  0
    6.3033  -10.5403   28.1522 O   0  0  0  0  0  0  0  0  0  0  0  0
    6.4346  -11.3600   27.0180 C   0  0  0  0  0  0  0  0  0  0  0  0
    7.4430  -11.1571   26.0967 C   0  0  0  0  0  0  0  0  0  0  0  0
    7.5967  -11.9437   24.9758 C   0  0  0  0  0  0  0  0  0  0  0  0
    6.7111  -12.9732   24.7641 C   0  0  0  0  0  0  0  0  0  0  0  0
    6.7796  -13.8826   23.5970 C   0  0  0  0  0  0  0  0  0  0  0  0
    8.0350  -14.6611   23.6742 C   0  0  2  0  0  0  0  0  0  0  0  0
    8.2767  -15.6236   22.6586 N   0  0  0  0  0  0  0  0  0  0  0  0
    8.1772  -15.3834   24.9812 C   0  0  0  0  0  0  0  0  0  0  0  0
    8.0816  -14.8331   26.0873 O   0  0  0  0  0  0  0  0  0  0  0  0
    5.7054  -13.1750   25.6837 C   0  0  0  0  0  0  0  0  0  0  0  0
    5.5495  -12.3919   26.8027 C   0  0  0  0  0  0  0  0  0  0  0  0
    8.4373  -16.7854   24.9465 N   0  0  0  0  0  0  0  0  0  0  0  0
    8.5264  -17.5889   26.1420 C   0  0  0  0  0  0  0  0  0  0  0  0
    8.7175  -19.0128   25.7793 C   0  0  0  0  0  0  0  0  0  0  0  0
    8.7757  -19.4894   24.4795 O   0  0  0  0  0  0  0  0  0  0  0  0
    8.8351  -19.8480   26.7122 O   0  0  0  0  0  0  0  0  0  0  0  0
  2  1  1  1
  3  2  1  0
  4  3  1  0
  5  4  1  0
  5  6  1  0
  7  6  1  0
  8  9  2  0
  8  2  1  0
 10 11  1  0
 11 12  2  0
 12 13  1  0
 14 13  2  0
 14 15  1  0
 16 15  1  6
 16 17  1  0
 17  8  1  0
 18 16  1  0
 19 18  2  0
 20 14  1  0
 21 11  1  0
 21 20  2  0
 22 18  1  0
 23 22  1  0
 24 23  1  0
 24 25  1  0
 26 24  2  0
M  END
$$$$
