KYG.pdb
     RDKit          3D

 26 26  0  0  1  0  0  0  0  0999 V2000
    6.1673  -15.0319   21.1670 N   0  0  0  0  0  0  0  0  0  0  0  0
    7.6168  -15.0595   21.1802 C   0  0  1  0  0  0  0  0  0  0  0  0
    8.1166  -14.0128   20.2053 C   0  0  0  0  0  0  0  0  0  0  0  0
    7.7529  -14.4665   18.8279 C   0  0  0  0  0  0  0  0  0  0  0  0
    8.1804  -13.4831   17.7840 C   0  0  0  0  0  0  0  0  0  0  0  0
    7.6825  -13.8890   16.4241 C   0  0  0  0  0  0  0  0  0  0  0  0
    7.9683  -12.8185   15.4928 N   0  0  0  0  0  0  0  0  0  0  0  0
    8.1112  -14.7309   22.5378 C   0  0  0  0  0  0  0  0  0  0  0  0
    7.8299  -13.6469   23.1165 O   0  0  0  0  0  0  0  0  0  0  0  0
    5.6165  -10.8234   27.0328 O   0  0  0  0  0  0  0  0  0  0  0  0
    6.3307  -11.9909   26.7128 C   0  0  0  0  0  0  0  0  0  0  0  0
    7.7068  -12.0432   26.8155 C   0  0  0  0  0  0  0  0  0  0  0  0
    8.4339  -13.1729   26.5089 C   0  0  0  0  0  0  0  0  0  0  0  0
    7.7640  -14.2950   26.0831 C   0  0  0  0  0  0  0  0  0  0  0  0
    8.4397  -15.5641   25.7278 C   0  0  0  0  0  0  0  0  0  0  0  0
    9.3792  -15.3068   24.6146 C   0  0  2  0  0  0  0  0  0  0  0  0
    8.9349  -15.5965   23.2974 N   0  0  0  0  0  0  0  0  0  0  0  0
   10.6805  -16.0324   24.7890 C   0  0  0  0  0  0  0  0  0  0  0  0
   11.3893  -15.9436   25.8015 O   0  0  0  0  0  0  0  0  0  0  0  0
    6.3912  -14.2420   25.9810 C   0  0  0  0  0  0  0  0  0  0  0  0
    5.6632  -13.1165   26.2861 C   0  0  0  0  0  0  0  0  0  0  0  0
   11.1259  -16.8733   23.7265 N   0  0  0  0  0  0  0  0  0  0  0  0
   12.3371  -17.6537   23.8088 C   0  0  0  0  0  0  0  0  0  0  0  0
   12.1434  -18.7882   24.7420 C   0  0  0  0  0  0  0  0  0  0  0  0
   10.9660  -19.0492   25.4246 O   0  0  0  0  0  0  0  0  0  0  0  0
   13.1113  -19.5690   24.9295 O   0  0  0  0  0  0  0  0  0  0  0  0
  2  1  1  1
  3  2  1  0
  4  3  1  0
  5  4  1  0
  5  6  1  0
  7  6  1  0
  8  9  2  0
  8  2  1  0
 10 11  1  0
 11 12  2  0
 12 13  1  0
 14 13  2  0
 14 15  1  0
 16 15  1  1
 16 17  1  0
 17  8  1  0
 18 16  1  0
 19 18  2  0
 20 14  1  0
 21 11  1  0
 21 20  2  0
 22 18  1  0
 23 22  1  0
 24 23  1  0
 24 25  1  0
 26 24  2  0
M  END
$$$$
