KYG.pdb
     RDKit          3D

 26 26  0  0  1  0  0  0  0  0999 V2000
    9.8531  -17.8814   19.3439 N   0  0  0  0  0  0  0  0  0  0  0  0
    8.8437  -18.0424   20.3722 C   0  0  1  0  0  0  0  0  0  0  0  0
    8.9650  -19.4435   20.9359 C   0  0  0  0  0  0  0  0  0  0  0  0
    8.9932  -20.3947   19.7827 C   0  0  0  0  0  0  0  0  0  0  0  0
    8.9054  -21.8199   20.2309 C   0  0  0  0  0  0  0  0  0  0  0  0
    8.8643  -22.7544   19.0532 C   0  0  0  0  0  0  0  0  0  0  0  0
    8.7853  -24.1123   19.5480 N   0  0  0  0  0  0  0  0  0  0  0  0
    9.0757  -17.0623   21.4589 C   0  0  0  0  0  0  0  0  0  0  0  0
   10.2257  -16.6383   21.7538 O   0  0  0  0  0  0  0  0  0  0  0  0
    8.0801  -12.5220   17.6631 O   0  0  0  0  0  0  0  0  0  0  0  0
    7.9505  -12.9377   18.9995 C   0  0  0  0  0  0  0  0  0  0  0  0
    8.8897  -12.5974   19.9530 C   0  0  0  0  0  0  0  0  0  0  0  0
    8.7897  -12.9902   21.2700 C   0  0  0  0  0  0  0  0  0  0  0  0
    7.7116  -13.7521   21.6526 C   0  0  0  0  0  0  0  0  0  0  0  0
    7.4996  -14.2297   23.0385 C   0  0  0  0  0  0  0  0  0  0  0  0
    8.2353  -15.5000   23.2212 C   0  0  2  0  0  0  0  0  0  0  0  0
    8.0370  -16.5209   22.2543 N   0  0  0  0  0  0  0  0  0  0  0  0
    7.9652  -16.1269   24.5569 C   0  0  0  0  0  0  0  0  0  0  0  0
    6.8516  -16.1401   25.1001 O   0  0  0  0  0  0  0  0  0  0  0  0
    6.7751  -14.0911   20.7009 C   0  0  0  0  0  0  0  0  0  0  0  0
    6.8722  -13.7008   19.3863 C   0  0  0  0  0  0  0  0  0  0  0  0
    9.0551  -16.7438   25.2396 N   0  0  0  0  0  0  0  0  0  0  0  0
    8.9263  -17.3018   26.5642 C   0  0  0  0  0  0  0  0  0  0  0  0
   10.2459  -17.7781   27.0411 C   0  0  0  0  0  0  0  0  0  0  0  0
   10.5125  -18.1748   28.3418 O   0  0  0  0  0  0  0  0  0  0  0  0
   11.1900  -17.8267   26.2117 O   0  0  0  0  0  0  0  0  0  0  0  0
  2  1  1  6
  3  2  1  0
  4  3  1  0
  5  4  1  0
  5  6  1  0
  7  6  1  0
  8  9  2  0
  8  2  1  0
 10 11  1  0
 11 12  2  0
 12 13  1  0
 14 13  2  0
 14 15  1  0
 16 15  1  6
 16 17  1  0
 17  8  1  0
 18 16  1  0
 19 18  2  0
 20 14  1  0
 21 11  1  0
 21 20  2  0
 22 18  1  0
 23 22  1  0
 24 23  1  0
 24 25  1  0
 26 24  2  0
M  END
$$$$
