KYG.pdb
     RDKit          3D

 26 26  0  0  1  0  0  0  0  0999 V2000
    7.0788  -16.6260   19.3529 N   0  0  0  0  0  0  0  0  0  0  0  0
    8.0676  -15.5900   19.5790 C   0  0  1  0  0  0  0  0  0  0  0  0
    7.9301  -14.5593   18.4769 C   0  0  0  0  0  0  0  0  0  0  0  0
    8.3933  -15.1927   17.2042 C   0  0  0  0  0  0  0  0  0  0  0  0
    8.2098  -14.2849   16.0287 C   0  0  0  0  0  0  0  0  0  0  0  0
    8.7614  -14.9069   14.7753 C   0  0  0  0  0  0  0  0  0  0  0  0
    8.4598  -14.0352   13.6598 N   0  0  0  0  0  0  0  0  0  0  0  0
    7.8186  -14.9370   20.8855 C   0  0  0  0  0  0  0  0  0  0  0  0
    6.8829  -14.1109   21.0617 O   0  0  0  0  0  0  0  0  0  0  0  0
    6.4815  -11.4398   28.3982 O   0  0  0  0  0  0  0  0  0  0  0  0
    6.6075  -12.3009   27.2943 C   0  0  0  0  0  0  0  0  0  0  0  0
    6.5029  -13.6706   27.4349 C   0  0  0  0  0  0  0  0  0  0  0  0
    6.6221  -14.5393   26.3719 C   0  0  0  0  0  0  0  0  0  0  0  0
    6.8546  -14.0235   25.1193 C   0  0  0  0  0  0  0  0  0  0  0  0
    6.9986  -14.8597   23.9054 C   0  0  0  0  0  0  0  0  0  0  0  0
    8.3299  -14.6095   23.3111 C   0  0  2  0  0  0  0  0  0  0  0  0
    8.6016  -15.1806   22.0397 N   0  0  0  0  0  0  0  0  0  0  0  0
    9.4466  -15.0424   24.2144 C   0  0  0  0  0  0  0  0  0  0  0  0
    9.5331  -14.7196   25.4076 O   0  0  0  0  0  0  0  0  0  0  0  0
    6.9587  -12.6569   24.9800 C   0  0  0  0  0  0  0  0  0  0  0  0
    6.8404  -11.7878   26.0385 C   0  0  0  0  0  0  0  0  0  0  0  0
   10.4672  -15.8743   23.6659 N   0  0  0  0  0  0  0  0  0  0  0  0
   11.8403  -15.8117   24.1054 C   0  0  0  0  0  0  0  0  0  0  0  0
   12.6411  -16.8436   23.4059 C   0  0  0  0  0  0  0  0  0  0  0  0
   13.9140  -16.6371   22.8985 O   0  0  0  0  0  0  0  0  0  0  0  0
   12.1341  -17.9854   23.2613 O   0  0  0  0  0  0  0  0  0  0  0  0
  2  1  1  6
  3  2  1  0
  4  3  1  0
  5  4  1  0
  5  6  1  0
  7  6  1  0
  8  9  2  0
  8  2  1  0
 10 11  1  0
 11 12  2  0
 12 13  1  0
 14 13  2  0
 14 15  1  0
 16 15  1  1
 16 17  1  0
 17  8  1  0
 18 16  1  0
 19 18  2  0
 20 14  1  0
 21 11  1  0
 21 20  2  0
 22 18  1  0
 23 22  1  0
 24 23  1  0
 24 25  1  0
 26 24  2  0
M  END
$$$$
