KYG.pdb
     RDKit          3D

 26 26  0  0  1  0  0  0  0  0999 V2000
    5.7758  -15.7040   21.4927 N   0  0  0  0  0  0  0  0  0  0  0  0
    7.0902  -15.0965   21.4196 C   0  0  1  0  0  0  0  0  0  0  0  0
    6.9572  -13.7719   20.6960 C   0  0  0  0  0  0  0  0  0  0  0  0
    6.6491  -14.0676   19.2631 C   0  0  0  0  0  0  0  0  0  0  0  0
    7.6700  -13.4813   18.3391 C   0  0  0  0  0  0  0  0  0  0  0  0
    7.3005  -13.7260   16.9019 C   0  0  0  0  0  0  0  0  0  0  0  0
    8.2562  -13.0388   16.0595 N   0  0  0  0  0  0  0  0  0  0  0  0
    7.6046  -14.8508   22.7872 C   0  0  0  0  0  0  0  0  0  0  0  0
    6.9259  -14.2592   23.6695 O   0  0  0  0  0  0  0  0  0  0  0  0
   11.3063  -15.0703   30.5620 O   0  0  0  0  0  0  0  0  0  0  0  0
   10.6122  -15.1759   29.3444 C   0  0  0  0  0  0  0  0  0  0  0  0
   10.1379  -14.0577   28.6874 C   0  0  0  0  0  0  0  0  0  0  0  0
    9.4543  -14.1300   27.4932 C   0  0  0  0  0  0  0  0  0  0  0  0
    9.2344  -15.3647   26.9308 C   0  0  0  0  0  0  0  0  0  0  0  0
    8.5142  -15.5632   25.6519 C   0  0  0  0  0  0  0  0  0  0  0  0
    9.3679  -15.0783   24.5455 C   0  0  2  0  0  0  0  0  0  0  0  0
    8.8910  -15.2545   23.2197 N   0  0  0  0  0  0  0  0  0  0  0  0
   10.7421  -15.6787   24.5819 C   0  0  0  0  0  0  0  0  0  0  0  0
   11.6480  -15.2833   25.3292 O   0  0  0  0  0  0  0  0  0  0  0  0
    9.7080  -16.4797   27.5868 C   0  0  0  0  0  0  0  0  0  0  0  0
   10.3903  -16.4108   28.7783 C   0  0  0  0  0  0  0  0  0  0  0  0
   11.0200  -16.7686   23.7047 N   0  0  0  0  0  0  0  0  0  0  0  0
   12.3134  -17.4056   23.6425 C   0  0  0  0  0  0  0  0  0  0  0  0
   12.4366  -18.4040   24.7305 C   0  0  0  0  0  0  0  0  0  0  0  0
   13.3757  -19.4225   24.7567 O   0  0  0  0  0  0  0  0  0  0  0  0
   11.6360  -18.3241   25.6971 O   0  0  0  0  0  0  0  0  0  0  0  0
  2  1  1  1
  3  2  1  0
  4  3  1  0
  5  4  1  0
  5  6  1  0
  7  6  1  0
  8  9  2  0
  8  2  1  0
 10 11  1  0
 11 12  2  0
 12 13  1  0
 14 13  2  0
 14 15  1  0
 16 15  1  1
 16 17  1  0
 17  8  1  0
 18 16  1  0
 19 18  2  0
 20 14  1  0
 21 11  1  0
 21 20  2  0
 22 18  1  0
 23 22  1  0
 24 23  1  0
 24 25  1  0
 26 24  2  0
M  END
$$$$
