KYG.pdb
     RDKit          3D

 26 26  0  0  1  0  0  0  0  0999 V2000
    7.7599  -16.5958   21.2249 N   0  0  0  0  0  0  0  0  0  0  0  0
    8.6548  -15.4565   21.1684 C   0  0  1  0  0  0  0  0  0  0  0  0
    7.8711  -14.2674   20.6510 C   0  0  0  0  0  0  0  0  0  0  0  0
    8.5702  -13.7609   19.4302 C   0  0  0  0  0  0  0  0  0  0  0  0
    7.6423  -13.6458   18.2617 C   0  0  0  0  0  0  0  0  0  0  0  0
    8.3897  -13.2583   17.0154 C   0  0  0  0  0  0  0  0  0  0  0  0
    7.4420  -13.1537   15.9263 N   0  0  0  0  0  0  0  0  0  0  0  0
    9.1593  -15.1487   22.5271 C   0  0  0  0  0  0  0  0  0  0  0  0
    9.9547  -14.1974   22.7543 O   0  0  0  0  0  0  0  0  0  0  0  0
    5.6028  -10.4497   26.0892 O   0  0  0  0  0  0  0  0  0  0  0  0
    6.2478  -11.6985   26.0841 C   0  0  0  0  0  0  0  0  0  0  0  0
    7.5480  -11.8384   26.5279 C   0  0  0  0  0  0  0  0  0  0  0  0
    8.2062  -13.0490   26.5347 C   0  0  0  0  0  0  0  0  0  0  0  0
    7.5433  -14.1645   26.0816 C   0  0  0  0  0  0  0  0  0  0  0  0
    8.1489  -15.5156   26.0440 C   0  0  0  0  0  0  0  0  0  0  0  0
    9.1933  -15.5393   24.9967 C   0  0  2  0  0  0  0  0  0  0  0  0
    8.7966  -15.8883   23.6787 N   0  0  0  0  0  0  0  0  0  0  0  0
   10.3317  -16.4504   25.3489 C   0  0  0  0  0  0  0  0  0  0  0  0
   11.3001  -16.1080   26.0420 O   0  0  0  0  0  0  0  0  0  0  0  0
    6.2462  -14.0242   25.6391 C   0  0  0  0  0  0  0  0  0  0  0  0
    5.5870  -12.8178   25.6311 C   0  0  0  0  0  0  0  0  0  0  0  0
   10.2952  -17.7886   24.8566 N   0  0  0  0  0  0  0  0  0  0  0  0
   11.3150  -18.7602   25.1710 C   0  0  0  0  0  0  0  0  0  0  0  0
   11.0947  -19.2994   26.5334 C   0  0  0  0  0  0  0  0  0  0  0  0
   12.0920  -19.4657   27.4810 O   0  0  0  0  0  0  0  0  0  0  0  0
    9.9244  -19.6295   26.8546 O   0  0  0  0  0  0  0  0  0  0  0  0
  2  1  1  1
  3  2  1  0
  4  3  1  0
  5  4  1  0
  5  6  1  0
  7  6  1  0
  8  9  2  0
  8  2  1  0
 10 11  1  0
 11 12  2  0
 12 13  1  0
 14 13  2  0
 14 15  1  0
 16 15  1  1
 16 17  1  0
 17  8  1  0
 18 16  1  0
 19 18  2  0
 20 14  1  0
 21 11  1  0
 21 20  2  0
 22 18  1  0
 23 22  1  0
 24 23  1  0
 24 25  1  0
 26 24  2  0
M  END
$$$$
