KYG.pdb
     RDKit          3D

 26 26  0  0  1  0  0  0  0  0999 V2000
    7.2555  -14.8451   19.9637 N   0  0  0  0  0  0  0  0  0  0  0  0
    7.4094  -15.8855   20.9618 C   0  0  1  0  0  0  0  0  0  0  0  0
    8.1996  -17.0199   20.3417 C   0  0  0  0  0  0  0  0  0  0  0  0
    7.2239  -18.0645   19.9032 C   0  0  0  0  0  0  0  0  0  0  0  0
    7.9036  -19.2216   19.2406 C   0  0  0  0  0  0  0  0  0  0  0  0
    6.8979  -20.1844   18.6717 C   0  0  0  0  0  0  0  0  0  0  0  0
    7.6116  -21.2427   17.9892 N   0  0  0  0  0  0  0  0  0  0  0  0
    8.1572  -15.3554   22.1260 C   0  0  0  0  0  0  0  0  0  0  0  0
    8.8588  -14.3101   22.0608 O   0  0  0  0  0  0  0  0  0  0  0  0
    6.0661   -9.9507   26.7770 O   0  0  0  0  0  0  0  0  0  0  0  0
    6.4828  -11.2681   26.5192 C   0  0  0  0  0  0  0  0  0  0  0  0
    7.8181  -11.5821   26.3598 C   0  0  0  0  0  0  0  0  0  0  0  0
    8.2564  -12.8636   26.1062 C   0  0  0  0  0  0  0  0  0  0  0  0
    7.3283  -13.8725   26.0076 C   0  0  0  0  0  0  0  0  0  0  0  0
    7.6829  -15.2854   25.7397 C   0  0  0  0  0  0  0  0  0  0  0  0
    8.6069  -15.3328   24.5856 C   0  0  2  0  0  0  0  0  0  0  0  0
    8.1499  -15.9697   23.4017 N   0  0  0  0  0  0  0  0  0  0  0  0
    9.9167  -15.9770   24.9315 C   0  0  0  0  0  0  0  0  0  0  0  0
   10.6280  -15.6257   25.8835 O   0  0  0  0  0  0  0  0  0  0  0  0
    5.9964  -13.5585   26.1669 C   0  0  0  0  0  0  0  0  0  0  0  0
    5.5561  -12.2810   26.4199 C   0  0  0  0  0  0  0  0  0  0  0  0
   10.3677  -17.0568   24.1161 N   0  0  0  0  0  0  0  0  0  0  0  0
   11.5977  -17.7656   24.3760 C   0  0  0  0  0  0  0  0  0  0  0  0
   11.3908  -18.7534   25.4608 C   0  0  0  0  0  0  0  0  0  0  0  0
   12.2931  -19.7505   25.7953 O   0  0  0  0  0  0  0  0  0  0  0  0
   10.3249  -18.6850   26.1249 O   0  0  0  0  0  0  0  0  0  0  0  0
  2  1  1  6
  3  2  1  0
  4  3  1  0
  5  4  1  0
  5  6  1  0
  7  6  1  0
  8  9  2  0
  8  2  1  0
 10 11  1  0
 11 12  2  0
 12 13  1  0
 14 13  2  0
 14 15  1  0
 16 15  1  1
 16 17  1  0
 17  8  1  0
 18 16  1  0
 19 18  2  0
 20 14  1  0
 21 11  1  0
 21 20  2  0
 22 18  1  0
 23 22  1  0
 24 23  1  0
 24 25  1  0
 26 24  2  0
M  END
$$$$
