KYG.pdb
     RDKit          3D

 26 26  0  0  1  0  0  0  0  0999 V2000
    8.3625  -16.7012   21.1720 N   0  0  0  0  0  0  0  0  0  0  0  0
    9.2626  -15.5961   21.4381 C   0  0  1  0  0  0  0  0  0  0  0  0
    8.6403  -14.3354   20.8732 C   0  0  0  0  0  0  0  0  0  0  0  0
    8.2750  -14.6095   19.4494 C   0  0  0  0  0  0  0  0  0  0  0  0
    8.2874  -13.3644   18.6193 C   0  0  0  0  0  0  0  0  0  0  0  0
    8.0499  -13.6809   17.1683 C   0  0  0  0  0  0  0  0  0  0  0  0
    7.8675  -12.4367   16.4515 N   0  0  0  0  0  0  0  0  0  0  0  0
    9.4386  -15.4350   22.9004 C   0  0  0  0  0  0  0  0  0  0  0  0
   10.1206  -14.5005   23.4011 O   0  0  0  0  0  0  0  0  0  0  0  0
    6.5116  -10.7163   26.8802 O   0  0  0  0  0  0  0  0  0  0  0  0
    6.8429  -12.0687   26.6880 C   0  0  0  0  0  0  0  0  0  0  0  0
    6.0144  -12.9190   25.9827 C   0  0  0  0  0  0  0  0  0  0  0  0
    6.3124  -14.2488   25.7783 C   0  0  0  0  0  0  0  0  0  0  0  0
    7.4817  -14.7516   26.2968 C   0  0  0  0  0  0  0  0  0  0  0  0
    7.9053  -16.1620   26.1390 C   0  0  0  0  0  0  0  0  0  0  0  0
    9.0891  -16.2065   25.2532 C   0  0  2  0  0  0  0  0  0  0  0  0
    8.8622  -16.3075   23.8551 N   0  0  0  0  0  0  0  0  0  0  0  0
   10.0249  -17.3233   25.6096 C   0  0  0  0  0  0  0  0  0  0  0  0
   10.3935  -17.5717   26.7662 O   0  0  0  0  0  0  0  0  0  0  0  0
    8.3077  -13.9026   27.0003 C   0  0  0  0  0  0  0  0  0  0  0  0
    8.0132  -12.5756   27.2058 C   0  0  0  0  0  0  0  0  0  0  0  0
   10.5177  -18.1465   24.5541 N   0  0  0  0  0  0  0  0  0  0  0  0
   11.3692  -19.2873   24.7913 C   0  0  0  0  0  0  0  0  0  0  0  0
   12.7889  -18.8632   24.8014 C   0  0  0  0  0  0  0  0  0  0  0  0
   13.7706  -19.3924   23.9789 O   0  0  0  0  0  0  0  0  0  0  0  0
   13.1292  -17.9622   25.6101 O   0  0  0  0  0  0  0  0  0  0  0  0
  2  1  1  1
  3  2  1  0
  4  3  1  0
  5  4  1  0
  5  6  1  0
  7  6  1  0
  8  9  2  0
  8  2  1  0
 10 11  1  0
 11 12  2  0
 12 13  1  0
 14 13  2  0
 14 15  1  0
 16 15  1  1
 16 17  1  0
 17  8  1  0
 18 16  1  0
 19 18  2  0
 20 14  1  0
 21 11  1  0
 21 20  2  0
 22 18  1  0
 23 22  1  0
 24 23  1  0
 24 25  1  0
 26 24  2  0
M  END
$$$$
