KYG.pdb
     RDKit          3D

 26 26  0  0  1  0  0  0  0  0999 V2000
    7.2858  -15.9328   21.3786 N   0  0  0  0  0  0  0  0  0  0  0  0
    8.3891  -14.9922   21.3711 C   0  0  1  0  0  0  0  0  0  0  0  0
    7.8575  -13.6463   20.9221 C   0  0  0  0  0  0  0  0  0  0  0  0
    7.2931  -13.8178   19.5482 C   0  0  0  0  0  0  0  0  0  0  0  0
    8.3035  -13.5147   18.4867 C   0  0  0  0  0  0  0  0  0  0  0  0
    7.7526  -13.8070   17.1181 C   0  0  0  0  0  0  0  0  0  0  0  0
    8.8227  -13.6664   16.1535 N   0  0  0  0  0  0  0  0  0  0  0  0
    8.9442  -14.8609   22.7386 C   0  0  0  0  0  0  0  0  0  0  0  0
    9.7091  -13.9156   23.0707 O   0  0  0  0  0  0  0  0  0  0  0  0
    5.7322  -10.6064   26.4512 O   0  0  0  0  0  0  0  0  0  0  0  0
    6.3884  -11.8484   26.4007 C   0  0  0  0  0  0  0  0  0  0  0  0
    7.7504  -11.9511   26.6038 C   0  0  0  0  0  0  0  0  0  0  0  0
    8.4210  -13.1542   26.5603 C   0  0  0  0  0  0  0  0  0  0  0  0
    7.7069  -14.3003   26.3045 C   0  0  0  0  0  0  0  0  0  0  0  0
    8.3203  -15.6466   26.2355 C   0  0  0  0  0  0  0  0  0  0  0  0
    9.2412  -15.6906   25.0787 C   0  0  2  0  0  0  0  0  0  0  0  0
    8.6673  -15.7763   23.7827 N   0  0  0  0  0  0  0  0  0  0  0  0
   10.2264  -16.8173   25.1782 C   0  0  0  0  0  0  0  0  0  0  0  0
   10.8500  -17.0991   26.2113 O   0  0  0  0  0  0  0  0  0  0  0  0
    6.3481  -14.1970   26.1020 C   0  0  0  0  0  0  0  0  0  0  0  0
    5.6764  -12.9983   26.1448 C   0  0  0  0  0  0  0  0  0  0  0  0
   10.4571  -17.6097   24.0149 N   0  0  0  0  0  0  0  0  0  0  0  0
   11.6146  -17.4329   23.1714 C   0  0  0  0  0  0  0  0  0  0  0  0
   12.8208  -17.9565   23.8543 C   0  0  0  0  0  0  0  0  0  0  0  0
   13.7153  -18.8510   23.2888 O   0  0  0  0  0  0  0  0  0  0  0  0
   13.0512  -17.5645   25.0269 O   0  0  0  0  0  0  0  0  0  0  0  0
  2  1  1  1
  3  2  1  0
  4  3  1  0
  5  4  1  0
  5  6  1  0
  7  6  1  0
  8  9  2  0
  8  2  1  0
 10 11  1  0
 11 12  2  0
 12 13  1  0
 14 13  2  0
 14 15  1  0
 16 15  1  1
 16 17  1  0
 17  8  1  0
 18 16  1  0
 19 18  2  0
 20 14  1  0
 21 11  1  0
 21 20  2  0
 22 18  1  0
 23 22  1  0
 24 23  1  0
 24 25  1  0
 26 24  2  0
M  END
$$$$
