CLK.pdb
     RDKit          3D

 24 23  0  0  1  0  0  0  0  0999 V2000
    9.0526  -15.0195   20.6752 N   0  0  0  0  0  0  0  0  0  0  0  0
    8.2103  -15.4620   21.7665 C   0  0  1  0  0  0  0  0  0  0  0  0
    8.1483  -16.9629   21.7279 C   0  0  0  0  0  0  0  0  0  0  0  0
    6.9957  -17.4459   20.4231 S   0  0  0  0  0  0  0  0  0  0  0  0
    8.7734  -15.0123   23.0851 C   0  0  0  0  0  0  0  0  0  0  0  0
   10.0105  -14.8455   23.1735 O   0  0  0  0  0  0  0  0  0  0  0  0
    5.4449  -12.3498   26.6903 C   0  0  0  0  0  0  0  0  0  0  0  0
    6.5335  -12.7227   25.6828 C   0  0  1  0  0  0  0  0  0  0  0  0
    7.2600  -11.4553   25.3376 C   0  0  0  0  0  0  0  0  0  0  0  0
    7.4032  -13.7472   26.3344 C   0  0  0  0  0  0  0  0  0  0  0  0
    8.4627  -14.3066   25.4333 C   0  0  2  0  0  0  0  0  0  0  0  0
    7.9253  -14.7878   24.1834 N   0  0  0  0  0  0  0  0  0  0  0  0
    9.0851  -15.4625   26.1522 C   0  0  0  0  0  0  0  0  0  0  0  0
    9.4853  -15.3464   27.3386 O   0  0  0  0  0  0  0  0  0  0  0  0
    9.2428  -16.7330   25.5103 N   0  0  0  0  0  0  0  0  0  0  0  0
    9.8053  -17.8420   26.2394 C   0  0  1  0  0  0  0  0  0  0  0  0
    9.8740  -19.0530   25.2948 C   0  0  0  0  0  0  0  0  0  0  0  0
   10.3279  -20.2581   26.0477 C   0  0  0  0  0  0  0  0  0  0  0  0
   10.5076  -21.5053   25.2544 C   0  0  0  0  0  0  0  0  0  0  0  0
   10.9987  -22.6966   26.0220 C   0  0  0  0  0  0  0  0  0  0  0  0
   11.2936  -23.8191   25.1826 N   0  0  0  0  0  0  0  0  0  0  0  0
   11.1594  -17.5020   26.7455 C   0  0  0  0  0  0  0  0  0  0  0  0
   12.1084  -16.9670   25.8842 O   0  0  0  0  0  0  0  0  0  0  0  0
   11.4866  -17.6799   27.9329 O   0  0  0  0  0  0  0  0  0  0  0  0
  2  3  1  0
  2  1  1  6
  4  3  1  0
  5  6  2  0
  5  2  1  0
  8  7  1  1
  8  9  1  0
  8 10  1  0
 11 10  1  1
 11 12  1  0
 12  5  1  0
 13 14  2  0
 13 11  1  0
 15 13  1  0
 16 15  1  0
 16 17  1  6
 18 17  1  0
 19 18  1  0
 20 21  1  0
 20 19  1  0
 22 16  1  0
 23 22  1  0
 24 22  2  0
M  END
$$$$
