CLK.pdb
     RDKit          3D

 24 23  0  0  1  0  0  0  0  0999 V2000
    9.3743  -15.3852   20.3769 N   0  0  0  0  0  0  0  0  0  0  0  0
    8.3223  -15.7413   21.3057 C   0  0  1  0  0  0  0  0  0  0  0  0
    8.0639  -17.2158   21.1737 C   0  0  0  0  0  0  0  0  0  0  0  0
    7.3053  -17.5129   19.5612 S   0  0  0  0  0  0  0  0  0  0  0  0
    8.7319  -15.4233   22.7160 C   0  0  0  0  0  0  0  0  0  0  0  0
    9.9516  -15.4418   22.9956 O   0  0  0  0  0  0  0  0  0  0  0  0
    5.3651  -12.5772   26.3057 C   0  0  0  0  0  0  0  0  0  0  0  0
    6.6070  -12.9178   25.4805 C   0  0  1  0  0  0  0  0  0  0  0  0
    7.6347  -11.8673   25.7868 C   0  0  0  0  0  0  0  0  0  0  0  0
    7.0308  -14.2953   25.8722 C   0  0  0  0  0  0  0  0  0  0  0  0
    8.1581  -14.8413   25.0485 C   0  0  2  0  0  0  0  0  0  0  0  0
    7.7639  -15.1148   23.6875 N   0  0  0  0  0  0  0  0  0  0  0  0
    8.5810  -16.1298   25.6822 C   0  0  0  0  0  0  0  0  0  0  0  0
    7.8485  -17.1501   25.6234 O   0  0  0  0  0  0  0  0  0  0  0  0
    9.8308  -16.2376   26.3730 N   0  0  0  0  0  0  0  0  0  0  0  0
   10.2698  -17.5178   26.8692 C   0  0  1  0  0  0  0  0  0  0  0  0
   11.5928  -17.8755   26.1727 C   0  0  0  0  0  0  0  0  0  0  0  0
   12.1104  -19.1706   26.7018 C   0  0  0  0  0  0  0  0  0  0  0  0
   13.4003  -19.6498   26.1329 C   0  0  0  0  0  0  0  0  0  0  0  0
   13.9049  -20.9527   26.6781 C   0  0  0  0  0  0  0  0  0  0  0  0
   15.1185  -21.3871   26.0536 N   0  0  0  0  0  0  0  0  0  0  0  0
   10.4553  -17.4721   28.3419 C   0  0  0  0  0  0  0  0  0  0  0  0
   10.3158  -16.2694   29.0222 O   0  0  0  0  0  0  0  0  0  0  0  0
   10.7363  -18.4864   29.0060 O   0  0  0  0  0  0  0  0  0  0  0  0
  2  3  1  0
  2  1  1  6
  4  3  1  0
  5  6  2  0
  5  2  1  0
  8  7  1  1
  8  9  1  0
  8 10  1  0
 11 10  1  1
 11 12  1  0
 12  5  1  0
 13 14  2  0
 13 11  1  0
 15 13  1  0
 16 15  1  0
 16 17  1  6
 18 17  1  0
 19 18  1  0
 20 21  1  0
 20 19  1  0
 22 16  1  0
 23 22  1  0
 24 22  2  0
M  END
$$$$
