CLK.pdb
     RDKit          3D

 24 23  0  0  1  0  0  0  0  0999 V2000
   11.3709  -15.1998   26.1794 N   0  0  0  0  0  0  0  0  0  0  0  0
   10.7807  -16.1055   27.1424 C   0  0  1  0  0  0  0  0  0  0  0  0
   11.0603  -15.5696   28.5181 C   0  0  0  0  0  0  0  0  0  0  0  0
   12.1893  -14.1682   28.3583 S   0  0  0  0  0  0  0  0  0  0  0  0
    9.2965  -16.2084   26.9311 C   0  0  0  0  0  0  0  0  0  0  0  0
    8.6515  -17.0070   27.6468 O   0  0  0  0  0  0  0  0  0  0  0  0
    6.9741  -11.7497   26.0763 C   0  0  0  0  0  0  0  0  0  0  0  0
    7.4414  -13.1164   26.5795 C   0  0  1  0  0  0  0  0  0  0  0  0
    7.3193  -13.0945   28.0755 C   0  0  0  0  0  0  0  0  0  0  0  0
    6.5756  -14.1442   25.9279 C   0  0  0  0  0  0  0  0  0  0  0  0
    7.2270  -15.4872   25.7884 C   0  0  2  0  0  0  0  0  0  0  0  0
    8.6593  -15.4246   25.9534 N   0  0  0  0  0  0  0  0  0  0  0  0
    6.9354  -15.9749   24.4036 C   0  0  0  0  0  0  0  0  0  0  0  0
    5.7520  -16.1468   24.0145 O   0  0  0  0  0  0  0  0  0  0  0  0
    7.9945  -16.2596   23.4827 N   0  0  0  0  0  0  0  0  0  0  0  0
    7.6950  -16.8538   22.2040 C   0  0  1  0  0  0  0  0  0  0  0  0
    8.4973  -16.1060   21.1267 C   0  0  0  0  0  0  0  0  0  0  0  0
    7.9402  -14.7348   20.9402 C   0  0  0  0  0  0  0  0  0  0  0  0
    8.5579  -13.9100   19.8653 C   0  0  0  0  0  0  0  0  0  0  0  0
    7.9439  -12.5583   19.6519 C   0  0  0  0  0  0  0  0  0  0  0  0
    8.5813  -11.8140   18.6072 N   0  0  0  0  0  0  0  0  0  0  0  0
    8.0458  -18.2968   22.2030 C   0  0  0  0  0  0  0  0  0  0  0  0
    7.6802  -19.0994   21.1302 O   0  0  0  0  0  0  0  0  0  0  0  0
    8.6660  -18.8283   23.1419 O   0  0  0  0  0  0  0  0  0  0  0  0
  2  3  1  0
  2  1  1  6
  4  3  1  0
  5  6  2  0
  5  2  1  0
  8  7  1  6
  8  9  1  0
  8 10  1  0
 11 10  1  6
 11 12  1  0
 12  5  1  0
 13 14  2  0
 13 11  1  0
 15 13  1  0
 16 15  1  0
 16 17  1  6
 18 17  1  0
 19 18  1  0
 20 21  1  0
 20 19  1  0
 22 16  1  0
 23 22  1  0
 24 22  2  0
M  END
$$$$
