CLK.pdb
     RDKit          3D

 24 23  0  0  1  0  0  0  0  0999 V2000
    6.7943  -16.8133   22.2452 N   0  0  0  0  0  0  0  0  0  0  0  0
    7.6760  -15.8521   21.6168 C   0  0  1  0  0  0  0  0  0  0  0  0
    6.8430  -14.9586   20.7416 C   0  0  0  0  0  0  0  0  0  0  0  0
    5.6853  -15.9941   19.8188 S   0  0  0  0  0  0  0  0  0  0  0  0
    8.3845  -15.0273   22.6539 C   0  0  0  0  0  0  0  0  0  0  0  0
    9.4302  -14.4272   22.3186 O   0  0  0  0  0  0  0  0  0  0  0  0
    5.8532  -12.1242   26.6454 C   0  0  0  0  0  0  0  0  0  0  0  0
    6.7731  -12.5314   25.4934 C   0  0  1  0  0  0  0  0  0  0  0  0
    7.5119  -11.2956   25.0686 C   0  0  0  0  0  0  0  0  0  0  0  0
    7.6680  -13.6116   26.0061 C   0  0  0  0  0  0  0  0  0  0  0  0
    8.5861  -14.1835   24.9682 C   0  0  2  0  0  0  0  0  0  0  0  0
    7.8785  -14.9385   23.9624 N   0  0  0  0  0  0  0  0  0  0  0  0
    9.5255  -15.1098   25.6754 C   0  0  0  0  0  0  0  0  0  0  0  0
   10.1084  -14.7566   26.7322 O   0  0  0  0  0  0  0  0  0  0  0  0
    9.7872  -16.4238   25.1695 N   0  0  0  0  0  0  0  0  0  0  0  0
   10.7352  -17.2771   25.8412 C   0  0  1  0  0  0  0  0  0  0  0  0
   10.1667  -18.7054   25.8607 C   0  0  0  0  0  0  0  0  0  0  0  0
   11.1497  -19.6337   26.4909 C   0  0  0  0  0  0  0  0  0  0  0  0
   10.8273  -21.0857   26.4215 C   0  0  0  0  0  0  0  0  0  0  0  0
   11.7417  -21.9903   27.1929 C   0  0  0  0  0  0  0  0  0  0  0  0
   11.4576  -22.0066   28.5967 N   0  0  0  0  0  0  0  0  0  0  0  0
   12.0469  -17.2509   25.1454 C   0  0  0  0  0  0  0  0  0  0  0  0
   13.2139  -17.5053   25.8539 O   0  0  0  0  0  0  0  0  0  0  0  0
   12.1468  -17.0055   23.9295 O   0  0  0  0  0  0  0  0  0  0  0  0
  2  3  1  0
  2  1  1  1
  4  3  1  0
  5  6  2  0
  5  2  1  0
  8  7  1  1
  8  9  1  0
  8 10  1  0
 11 10  1  1
 11 12  1  0
 12  5  1  0
 13 14  2  0
 13 11  1  0
 15 13  1  0
 16 15  1  0
 16 17  1  6
 18 17  1  0
 19 18  1  0
 20 21  1  0
 20 19  1  0
 22 16  1  0
 23 22  1  0
 24 22  2  0
M  END
$$$$
