CLK.pdb
     RDKit          3D

 24 23  0  0  1  0  0  0  0  0999 V2000
    8.7237  -15.2372   20.4208 N   0  0  0  0  0  0  0  0  0  0  0  0
    7.7901  -15.2940   21.5259 C   0  0  1  0  0  0  0  0  0  0  0  0
    7.3152  -16.7132   21.6619 C   0  0  0  0  0  0  0  0  0  0  0  0
    8.7036  -17.7200   22.2300 S   0  0  0  0  0  0  0  0  0  0  0  0
    8.4534  -14.8576   22.8015 C   0  0  0  0  0  0  0  0  0  0  0  0
    9.6924  -14.6819   22.7934 O   0  0  0  0  0  0  0  0  0  0  0  0
    5.6150  -11.8734   26.5553 C   0  0  0  0  0  0  0  0  0  0  0  0
    6.6002  -12.3775   25.4996 C   0  0  1  0  0  0  0  0  0  0  0  0
    7.4784  -11.2163   25.1339 C   0  0  0  0  0  0  0  0  0  0  0  0
    7.3475  -13.5197   26.1057 C   0  0  0  0  0  0  0  0  0  0  0  0
    8.3233  -14.1708   25.1723 C   0  0  2  0  0  0  0  0  0  0  0  0
    7.6941  -14.6548   23.9671 N   0  0  0  0  0  0  0  0  0  0  0  0
    8.9103  -15.3414   25.8973 C   0  0  0  0  0  0  0  0  0  0  0  0
    9.2642  -15.2456   27.1001 O   0  0  0  0  0  0  0  0  0  0  0  0
    9.0857  -16.6030   25.2427 N   0  0  0  0  0  0  0  0  0  0  0  0
    9.7116  -17.6959   25.9440 C   0  0  1  0  0  0  0  0  0  0  0  0
    9.5791  -18.9605   25.0798 C   0  0  0  0  0  0  0  0  0  0  0  0
   10.2142  -20.1179   25.7742 C   0  0  0  0  0  0  0  0  0  0  0  0
   10.2364  -21.4063   25.0281 C   0  0  0  0  0  0  0  0  0  0  0  0
   10.9427  -22.5391   25.7118 C   0  0  0  0  0  0  0  0  0  0  0  0
   11.1140  -23.6824   24.8660 N   0  0  0  0  0  0  0  0  0  0  0  0
   11.1420  -17.3966   26.2086 C   0  0  0  0  0  0  0  0  0  0  0  0
   11.7034  -17.7204   27.4368 O   0  0  0  0  0  0  0  0  0  0  0  0
   11.8738  -16.8569   25.3590 O   0  0  0  0  0  0  0  0  0  0  0  0
  2  3  1  0
  2  1  1  6
  4  3  1  0
  5  6  2  0
  5  2  1  0
  8  7  1  1
  8  9  1  0
  8 10  1  0
 11 10  1  1
 11 12  1  0
 12  5  1  0
 13 14  2  0
 13 11  1  0
 15 13  1  0
 16 15  1  0
 16 17  1  6
 18 17  1  0
 19 18  1  0
 20 21  1  0
 20 19  1  0
 22 16  1  0
 23 22  1  0
 24 22  2  0
M  END
$$$$
