CLK.pdb
     RDKit          3D

 24 23  0  0  1  0  0  0  0  0999 V2000
    8.0360  -18.7736   18.1409 N   0  0  0  0  0  0  0  0  0  0  0  0
    9.4536  -18.4926   18.0546 C   0  0  1  0  0  0  0  0  0  0  0  0
    9.7678  -18.1146   16.6345 C   0  0  0  0  0  0  0  0  0  0  0  0
    8.6492  -16.7829   16.1452 S   0  0  0  0  0  0  0  0  0  0  0  0
    9.8258  -17.3634   18.9734 C   0  0  0  0  0  0  0  0  0  0  0  0
   11.0267  -17.0152   19.0255 O   0  0  0  0  0  0  0  0  0  0  0  0
    6.5079  -13.1017   20.3024 C   0  0  0  0  0  0  0  0  0  0  0  0
    7.7381  -13.9060   19.8794 C   0  0  1  0  0  0  0  0  0  0  0  0
    8.8006  -12.9130   19.5075 C   0  0  0  0  0  0  0  0  0  0  0  0
    8.1145  -14.7739   21.0351 C   0  0  0  0  0  0  0  0  0  0  0  0
    9.2223  -15.7383   20.7351 C   0  0  2  0  0  0  0  0  0  0  0  0
    8.8445  -16.7220   19.7491 N   0  0  0  0  0  0  0  0  0  0  0  0
    9.5408  -16.4521   22.0116 C   0  0  0  0  0  0  0  0  0  0  0  0
    8.6749  -17.1546   22.5929 O   0  0  0  0  0  0  0  0  0  0  0  0
   10.8396  -16.3559   22.6072 N   0  0  0  0  0  0  0  0  0  0  0  0
   11.2063  -17.2460   23.6801 C   0  0  1  0  0  0  0  0  0  0  0  0
   12.6769  -17.6506   23.4878 C   0  0  0  0  0  0  0  0  0  0  0  0
   13.1184  -18.5117   24.6230 C   0  0  0  0  0  0  0  0  0  0  0  0
   13.7480  -19.8118   24.2617 C   0  0  0  0  0  0  0  0  0  0  0  0
   14.1616  -20.6748   25.4165 C   0  0  0  0  0  0  0  0  0  0  0  0
   14.5988  -21.9774   25.0120 N   0  0  0  0  0  0  0  0  0  0  0  0
   11.0189  -16.5836   24.9960 C   0  0  0  0  0  0  0  0  0  0  0  0
   10.9453  -17.3474   26.1535 O   0  0  0  0  0  0  0  0  0  0  0  0
   10.9231  -15.3479   25.1079 O   0  0  0  0  0  0  0  0  0  0  0  0
  2  3  1  0
  2  1  1  6
  4  3  1  0
  5  6  2  0
  5  2  1  0
  8  7  1  1
  8  9  1  0
  8 10  1  0
 11 10  1  1
 11 12  1  0
 12  5  1  0
 13 14  2  0
 13 11  1  0
 15 13  1  0
 16 15  1  0
 16 17  1  6
 18 17  1  0
 19 18  1  0
 20 21  1  0
 20 19  1  0
 22 16  1  0
 23 22  1  0
 24 22  2  0
M  END
$$$$
