CLK.pdb
     RDKit          3D

 24 23  0  0  1  0  0  0  0  0999 V2000
    8.4994  -15.9808   20.6572 N   0  0  0  0  0  0  0  0  0  0  0  0
    7.6160  -16.0389   21.8028 C   0  0  1  0  0  0  0  0  0  0  0  0
    7.1742  -17.4644   21.9785 C   0  0  0  0  0  0  0  0  0  0  0  0
    8.6487  -18.4951   22.1442 S   0  0  0  0  0  0  0  0  0  0  0  0
    8.3260  -15.5725   23.0423 C   0  0  0  0  0  0  0  0  0  0  0  0
    9.5773  -15.5924   23.0496 O   0  0  0  0  0  0  0  0  0  0  0  0
    5.7415  -12.0997   26.5470 C   0  0  0  0  0  0  0  0  0  0  0  0
    6.7645  -12.6807   25.5697 C   0  0  1  0  0  0  0  0  0  0  0  0
    7.7394  -11.5831   25.2564 C   0  0  0  0  0  0  0  0  0  0  0  0
    7.3918  -13.8592   26.2391 C   0  0  0  0  0  0  0  0  0  0  0  0
    8.2808  -14.6659   25.3412 C   0  0  2  0  0  0  0  0  0  0  0  0
    7.5956  -15.1279   24.1580 N   0  0  0  0  0  0  0  0  0  0  0  0
    8.7252  -15.8624   26.1230 C   0  0  0  0  0  0  0  0  0  0  0  0
    7.9184  -16.7832   26.4103 O   0  0  0  0  0  0  0  0  0  0  0  0
   10.0808  -15.9931   26.5660 N   0  0  0  0  0  0  0  0  0  0  0  0
   10.4902  -17.1703   27.2902 C   0  0  1  0  0  0  0  0  0  0  0  0
   11.8552  -17.6201   26.7443 C   0  0  0  0  0  0  0  0  0  0  0  0
   11.7213  -18.0240   25.3146 C   0  0  0  0  0  0  0  0  0  0  0  0
   12.9559  -18.5258   24.6502 C   0  0  0  0  0  0  0  0  0  0  0  0
   12.8011  -18.9277   23.2135 C   0  0  0  0  0  0  0  0  0  0  0  0
   14.0199  -19.4064   22.6330 N   0  0  0  0  0  0  0  0  0  0  0  0
   10.5825  -16.8839   28.7444 C   0  0  0  0  0  0  0  0  0  0  0  0
   10.8043  -17.9190   29.6433 O   0  0  0  0  0  0  0  0  0  0  0  0
   10.4671  -15.7320   29.2012 O   0  0  0  0  0  0  0  0  0  0  0  0
  2  3  1  0
  2  1  1  6
  4  3  1  0
  5  6  2  0
  5  2  1  0
  8  7  1  1
  8  9  1  0
  8 10  1  0
 11 10  1  1
 11 12  1  0
 12  5  1  0
 13 14  2  0
 13 11  1  0
 15 13  1  0
 16 15  1  0
 16 17  1  6
 18 17  1  0
 19 18  1  0
 20 21  1  0
 20 19  1  0
 22 16  1  0
 23 22  1  0
 24 22  2  0
M  END
$$$$
