CLK.pdb
     RDKit          3D

 24 23  0  0  1  0  0  0  0  0999 V2000
    8.5724  -16.0729   19.9605 N   0  0  0  0  0  0  0  0  0  0  0  0
    7.6789  -16.1994   21.0926 C   0  0  1  0  0  0  0  0  0  0  0  0
    7.5000  -17.6629   21.3834 C   0  0  0  0  0  0  0  0  0  0  0  0
    6.6946  -18.4264   19.9577 S   0  0  0  0  0  0  0  0  0  0  0  0
    8.2521  -15.5100   22.2984 C   0  0  0  0  0  0  0  0  0  0  0  0
    9.4892  -15.3261   22.3418 O   0  0  0  0  0  0  0  0  0  0  0  0
    6.2533  -11.7284   26.6800 C   0  0  0  0  0  0  0  0  0  0  0  0
    7.4171  -12.5931   26.1930 C   0  0  1  0  0  0  0  0  0  0  0  0
    7.8944  -13.3864   27.3746 C   0  0  0  0  0  0  0  0  0  0  0  0
    6.8982  -13.4413   25.0785 C   0  0  0  0  0  0  0  0  0  0  0  0
    7.9432  -14.2991   24.4308 C   0  0  2  0  0  0  0  0  0  0  0  0
    7.4132  -15.0870   23.3441 N   0  0  0  0  0  0  0  0  0  0  0  0
    8.4567  -15.2339   25.4809 C   0  0  0  0  0  0  0  0  0  0  0  0
    7.6660  -15.9128   26.1847 O   0  0  0  0  0  0  0  0  0  0  0  0
    9.8618  -15.3821   25.7144 N   0  0  0  0  0  0  0  0  0  0  0  0
   10.3601  -16.5613   26.3770 C   0  0  1  0  0  0  0  0  0  0  0  0
   11.7325  -16.9066   25.7762 C   0  0  0  0  0  0  0  0  0  0  0  0
   11.5653  -17.3898   24.3748 C   0  0  0  0  0  0  0  0  0  0  0  0
   12.8085  -17.7921   23.6608 C   0  0  0  0  0  0  0  0  0  0  0  0
   12.6228  -18.2535   22.2458 C   0  0  0  0  0  0  0  0  0  0  0  0
   13.8622  -18.4546   21.5566 N   0  0  0  0  0  0  0  0  0  0  0  0
   10.4780  -16.3292   27.8390 C   0  0  0  0  0  0  0  0  0  0  0  0
   10.1046  -15.1059   28.3801 O   0  0  0  0  0  0  0  0  0  0  0  0
   10.9060  -17.2021   28.6159 O   0  0  0  0  0  0  0  0  0  0  0  0
  2  3  1  0
  2  1  1  6
  4  3  1  0
  5  6  2  0
  5  2  1  0
  8  7  1  1
  8  9  1  0
  8 10  1  0
 11 10  1  1
 11 12  1  0
 12  5  1  0
 13 14  2  0
 13 11  1  0
 15 13  1  0
 16 15  1  0
 16 17  1  6
 18 17  1  0
 19 18  1  0
 20 21  1  0
 20 19  1  0
 22 16  1  0
 23 22  1  0
 24 22  2  0
M  END
$$$$
