FHW.pdb
     RDKit          3D

 36 39  0  0  1  0  0  0  0  0999 V2000
    8.9391  -16.4336   18.7616 N   0  0  0  0  0  0  0  0  0  0  0  0
    8.9693  -16.3515   20.1904 C   0  0  1  0  0  0  0  0  0  0  0  0
    7.7739  -15.5124   20.6520 C   0  0  0  0  0  0  0  0  0  0  0  0
    7.9094  -14.1504   20.0732 C   0  0  0  0  0  0  0  0  0  0  0  0
    8.9756  -13.3337   20.3907 C   0  0  0  0  0  0  0  0  0  0  0  0
    9.0949  -12.0735   19.8500 C   0  0  0  0  0  0  0  0  0  0  0  0
    8.1618  -11.5675   18.9703 C   0  0  0  0  0  0  0  0  0  0  0  0
    7.0932  -12.3853   18.6517 C   0  0  0  0  0  0  0  0  0  0  0  0
    6.9684  -13.6515   19.1916 C   0  0  0  0  0  0  0  0  0  0  0  0
    8.9079  -17.6832   20.8457 C   0  0  0  0  0  0  0  0  0  0  0  0
    9.0569  -18.6881   20.0895 O   0  0  0  0  0  0  0  0  0  0  0  0
    8.6996  -17.8840   22.2188 N   0  0  0  0  0  0  0  0  0  0  0  0
    9.8076  -18.4304   23.0528 C   0  0  1  0  0  0  0  0  0  0  0  0
   10.9613  -18.6452   22.1384 C   0  0  0  0  0  0  0  0  0  0  0  0
   10.8168  -19.8295   21.2999 C   0  0  0  0  0  0  0  0  0  0  0  0
    9.7459  -20.7327   21.3575 C   0  0  0  0  0  0  0  0  0  0  0  0
    9.9907  -21.6744   20.4348 N   0  0  0  0  0  0  0  0  0  0  0  0
   11.1478  -21.4175   19.8028 C   0  0  0  0  0  0  0  0  0  0  0  0
   11.6309  -20.2920   20.3457 N   0  0  0  0  0  0  0  0  0  0  0  0
   10.0933  -17.4471   24.1052 C   0  0  0  0  0  0  0  0  0  0  0  0
   10.7806  -16.4246   23.7759 O   0  0  0  0  0  0  0  0  0  0  0  0
    9.6893  -17.5000   25.4402 N   0  0  0  0  0  0  0  0  0  0  0  0
   10.5074  -16.9458   26.5127 C   0  0  1  0  0  0  0  0  0  0  0  0
   10.2461  -15.4805   26.6670 C   0  0  0  0  0  0  0  0  0  0  0  0
    8.8181  -15.1522   26.5952 C   0  0  0  0  0  0  0  0  0  0  0  0
    7.7517  -16.0380   26.4417 C   0  0  0  0  0  0  0  0  0  0  0  0
    6.6003  -15.3596   26.3854 N   0  0  0  0  0  0  0  0  0  0  0  0
    6.8300  -14.0467   26.4944 C   0  0  0  0  0  0  0  0  0  0  0  0
    5.9694  -12.9620   26.5061 C   0  0  0  0  0  0  0  0  0  0  0  0
    6.5163  -11.7148   26.6551 C   0  0  0  0  0  0  0  0  0  0  0  0
    7.8953  -11.5343   26.7914 C   0  0  0  0  0  0  0  0  0  0  0  0
    8.7237  -12.6315   26.7749 C   0  0  0  0  0  0  0  0  0  0  0  0
    8.1982  -13.8950   26.6257 C   0  0  0  0  0  0  0  0  0  0  0  0
   10.5214  -17.7418   27.7368 C   0  0  0  0  0  0  0  0  0  0  0  0
    9.6962  -18.8815   27.7675 O   0  0  0  0  0  0  0  0  0  0  0  0
   11.1893  -17.5138   28.7730 O   0  0  0  0  0  0  0  0  0  0  0  0
  2  1  1  6
  3  2  1  0
  3  4  1  0
  4  5  2  0
  4  9  1  0
  5  6  1  0
  6  7  2  0
  8  7  1  0
  9  8  2  0
 10  2  1  0
 11 10  2  0
 12 10  1  0
 13 12  1  0
 13 14  1  6
 14 15  1  0
 15 19  1  0
 15 16  2  0
 16 17  1  0
 18 17  1  0
 19 18  2  0
 20 21  2  0
 20 13  1  0
 22 20  1  0
 23 22  1  0
 23 24  1  1
 24 25  1  0
 25 26  2  0
 25 33  1  0
 26 27  1  0
 27 28  1  0
 28 29  2  0
 29 30  1  0
 31 30  2  0
 32 31  1  0
 33 32  2  0
 33 28  1  0
 34 23  1  0
 35 34  1  0
 36 34  2  0
M  END
$$$$
