FHW.pdb
     RDKit          3D

 36 39  0  0  1  0  0  0  0  0999 V2000
    9.9780  -17.6303   17.3269 N   0  0  0  0  0  0  0  0  0  0  0  0
    9.7920  -18.1405   18.6514 C   0  0  1  0  0  0  0  0  0  0  0  0
   10.9116  -19.1438   18.9448 C   0  0  0  0  0  0  0  0  0  0  0  0
   10.6974  -19.6955   20.3079 C   0  0  0  0  0  0  0  0  0  0  0  0
    9.7193  -20.6356   20.5609 C   0  0  0  0  0  0  0  0  0  0  0  0
    9.5272  -21.1428   21.8260 C   0  0  0  0  0  0  0  0  0  0  0  0
   10.2969  -20.7399   22.8964 C   0  0  0  0  0  0  0  0  0  0  0  0
   11.2772  -19.7979   22.6437 C   0  0  0  0  0  0  0  0  0  0  0  0
   11.4745  -19.2853   21.3754 C   0  0  0  0  0  0  0  0  0  0  0  0
    9.8123  -17.0760   19.6874 C   0  0  0  0  0  0  0  0  0  0  0  0
   10.7691  -16.2488   19.6233 O   0  0  0  0  0  0  0  0  0  0  0  0
    8.8560  -16.9399   20.7052 N   0  0  0  0  0  0  0  0  0  0  0  0
    8.9131  -15.7540   21.6064 C   0  0  1  0  0  0  0  0  0  0  0  0
    7.6955  -14.9471   21.3243 C   0  0  0  0  0  0  0  0  0  0  0  0
    7.7468  -14.2601   20.0391 C   0  0  0  0  0  0  0  0  0  0  0  0
    7.1020  -14.6877   18.8698 C   0  0  0  0  0  0  0  0  0  0  0  0
    7.4000  -13.7899   17.9194 N   0  0  0  0  0  0  0  0  0  0  0  0
    8.1911  -12.8267   18.4202 C   0  0  0  0  0  0  0  0  0  0  0  0
    8.3877  -13.1342   19.7093 N   0  0  0  0  0  0  0  0  0  0  0  0
    8.9567  -16.2514   22.9872 C   0  0  0  0  0  0  0  0  0  0  0  0
    8.5781  -17.4529   23.1858 O   0  0  0  0  0  0  0  0  0  0  0  0
    9.3756  -15.5540   24.1214 N   0  0  0  0  0  0  0  0  0  0  0  0
    9.7048  -16.2389   25.3662 C   0  0  1  0  0  0  0  0  0  0  0  0
    9.2922  -15.4127   26.5436 C   0  0  0  0  0  0  0  0  0  0  0  0
    7.9267  -14.8920   26.4156 C   0  0  0  0  0  0  0  0  0  0  0  0
    6.7606  -15.6204   26.1809 C   0  0  0  0  0  0  0  0  0  0  0  0
    5.7149  -14.7908   26.0938 N   0  0  0  0  0  0  0  0  0  0  0  0
    6.1125  -13.5248   26.2595 C   0  0  0  0  0  0  0  0  0  0  0  0
    5.4055  -12.3343   26.2684 C   0  0  0  0  0  0  0  0  0  0  0  0
    6.1061  -11.1775   26.4868 C   0  0  0  0  0  0  0  0  0  0  0  0
    7.4880  -11.1894   26.6945 C   0  0  0  0  0  0  0  0  0  0  0  0
    8.1616  -12.3879   26.6789 C   0  0  0  0  0  0  0  0  0  0  0  0
    7.4801  -13.5638   26.4607 C   0  0  0  0  0  0  0  0  0  0  0  0
    9.3374  -17.6518   25.3955 C   0  0  0  0  0  0  0  0  0  0  0  0
    9.9339  -18.4468   26.3920 O   0  0  0  0  0  0  0  0  0  0  0  0
    8.5471  -18.2382   24.6189 O   0  0  0  0  0  0  0  0  0  0  0  0
  2  1  1  6
  3  2  1  0
  3  4  1  0
  4  5  2  0
  4  9  1  0
  5  6  1  0
  6  7  2  0
  8  7  1  0
  9  8  2  0
 10  2  1  0
 11 10  2  0
 12 10  1  0
 13 12  1  0
 13 14  1  1
 14 15  1  0
 15 19  1  0
 15 16  2  0
 16 17  1  0
 18 17  1  0
 19 18  2  0
 20 21  2  0
 20 13  1  0
 22 20  1  0
 23 22  1  0
 23 24  1  1
 24 25  1  0
 25 26  2  0
 25 33  1  0
 26 27  1  0
 27 28  1  0
 28 29  2  0
 29 30  1  0
 31 30  2  0
 32 31  1  0
 33 32  2  0
 33 28  1  0
 34 23  1  0
 35 34  1  0
 36 34  2  0
M  END
$$$$
