FHW.pdb
     RDKit          3D

 36 39  0  0  1  0  0  0  0  0999 V2000
    8.4916  -17.9314   19.0087 N   0  0  0  0  0  0  0  0  0  0  0  0
    8.0877  -17.0144   20.0310 C   0  0  1  0  0  0  0  0  0  0  0  0
    7.1180  -16.0008   19.4159 C   0  0  0  0  0  0  0  0  0  0  0  0
    7.6708  -14.6381   19.6298 C   0  0  0  0  0  0  0  0  0  0  0  0
    7.0152  -13.5130   19.1727 C   0  0  0  0  0  0  0  0  0  0  0  0
    7.5330  -12.2538   19.3753 C   0  0  0  0  0  0  0  0  0  0  0  0
    8.7240  -12.0547   20.0403 C   0  0  0  0  0  0  0  0  0  0  0  0
    9.3815  -13.1816   20.4986 C   0  0  0  0  0  0  0  0  0  0  0  0
    8.8662  -14.4484   20.2981 C   0  0  0  0  0  0  0  0  0  0  0  0
    7.4234  -17.6855   21.1778 C   0  0  0  0  0  0  0  0  0  0  0  0
    6.4095  -18.3929   20.9033 O   0  0  0  0  0  0  0  0  0  0  0  0
    7.8457  -17.5820   22.5120 N   0  0  0  0  0  0  0  0  0  0  0  0
    6.9013  -17.9447   23.6066 C   0  0  1  0  0  0  0  0  0  0  0  0
    6.5543  -19.3780   23.4107 C   0  0  0  0  0  0  0  0  0  0  0  0
    7.7030  -20.2686   23.5300 C   0  0  0  0  0  0  0  0  0  0  0  0
    8.4066  -20.5226   24.7159 C   0  0  0  0  0  0  0  0  0  0  0  0
    9.3843  -21.3850   24.4023 N   0  0  0  0  0  0  0  0  0  0  0  0
    9.3371  -21.6870   23.0942 C   0  0  0  0  0  0  0  0  0  0  0  0
    8.3075  -20.9967   22.5859 N   0  0  0  0  0  0  0  0  0  0  0  0
    7.5871  -17.6961   24.8809 C   0  0  0  0  0  0  0  0  0  0  0  0
    6.8628  -17.3670   25.8776 O   0  0  0  0  0  0  0  0  0  0  0  0
    8.9572  -17.7853   25.1320 N   0  0  0  0  0  0  0  0  0  0  0  0
    9.7515  -16.6138   25.4834 C   0  0  1  0  0  0  0  0  0  0  0  0
    9.2935  -16.0428   26.7885 C   0  0  0  0  0  0  0  0  0  0  0  0
    8.0018  -15.3557   26.6806 C   0  0  0  0  0  0  0  0  0  0  0  0
    6.7436  -15.9366   26.5234 C   0  0  0  0  0  0  0  0  0  0  0  0
    5.8101  -14.9833   26.4295 N   0  0  0  0  0  0  0  0  0  0  0  0
    6.3728  -13.7732   26.5164 C   0  0  0  0  0  0  0  0  0  0  0  0
    5.8249  -12.5019   26.4882 C   0  0  0  0  0  0  0  0  0  0  0  0
    6.6761  -11.4369   26.6229 C   0  0  0  0  0  0  0  0  0  0  0  0
    8.0524  -11.6185   26.7838 C   0  0  0  0  0  0  0  0  0  0  0  0
    8.5659  -12.8938   26.8068 C   0  0  0  0  0  0  0  0  0  0  0  0
    7.7311  -13.9800   26.6726 C   0  0  0  0  0  0  0  0  0  0  0  0
   11.1914  -16.7846   25.3117 C   0  0  0  0  0  0  0  0  0  0  0  0
   12.0007  -15.6561   25.5406 O   0  0  0  0  0  0  0  0  0  0  0  0
   11.7879  -17.8342   24.9736 O   0  0  0  0  0  0  0  0  0  0  0  0
  2  1  1  6
  3  2  1  0
  3  4  1  0
  4  5  2  0
  4  9  1  0
  5  6  1  0
  6  7  2  0
  8  7  1  0
  9  8  2  0
 10  2  1  0
 11 10  2  0
 12 10  1  0
 13 12  1  0
 13 14  1  6
 14 15  1  0
 15 19  1  0
 15 16  2  0
 16 17  1  0
 18 17  1  0
 19 18  2  0
 20 21  2  0
 20 13  1  0
 22 20  1  0
 23 22  1  0
 23 24  1  1
 24 25  1  0
 25 26  2  0
 25 33  1  0
 26 27  1  0
 27 28  1  0
 28 29  2  0
 29 30  1  0
 31 30  2  0
 32 31  1  0
 33 32  2  0
 33 28  1  0
 34 23  1  0
 35 34  1  0
 36 34  2  0
M  END
$$$$
