FHW.pdb
     RDKit          3D

 36 39  0  0  1  0  0  0  0  0999 V2000
    8.0085  -17.1296   17.5859 N   0  0  0  0  0  0  0  0  0  0  0  0
    8.3611  -16.3179   18.7110 C   0  0  1  0  0  0  0  0  0  0  0  0
    7.1658  -15.4248   19.0566 C   0  0  0  0  0  0  0  0  0  0  0  0
    7.5643  -14.5225   20.1681 C   0  0  0  0  0  0  0  0  0  0  0  0
    7.1654  -14.7583   21.4680 C   0  0  0  0  0  0  0  0  0  0  0  0
    7.5391  -13.9185   22.4926 C   0  0  0  0  0  0  0  0  0  0  0  0
    8.3252  -12.8076   22.2732 C   0  0  0  0  0  0  0  0  0  0  0  0
    8.7254  -12.5706   20.9710 C   0  0  0  0  0  0  0  0  0  0  0  0
    8.3531  -13.4105   19.9383 C   0  0  0  0  0  0  0  0  0  0  0  0
    8.7288  -17.1187   19.9069 C   0  0  0  0  0  0  0  0  0  0  0  0
    7.9214  -18.0367   20.2374 O   0  0  0  0  0  0  0  0  0  0  0  0
    9.8897  -16.9199   20.6698 N   0  0  0  0  0  0  0  0  0  0  0  0
   10.2692  -17.9302   21.6980 C   0  0  1  0  0  0  0  0  0  0  0  0
   11.7477  -18.0770   21.6237 C   0  0  0  0  0  0  0  0  0  0  0  0
   12.1906  -18.8543   20.4721 C   0  0  0  0  0  0  0  0  0  0  0  0
   11.4153  -19.8069   19.7959 C   0  0  0  0  0  0  0  0  0  0  0  0
   12.1824  -20.2922   18.8088 N   0  0  0  0  0  0  0  0  0  0  0  0
   13.3894  -19.7030   18.8244 C   0  0  0  0  0  0  0  0  0  0  0  0
   13.3702  -18.8336   19.8435 N   0  0  0  0  0  0  0  0  0  0  0  0
    9.8138  -17.4265   22.9999 C   0  0  0  0  0  0  0  0  0  0  0  0
   10.6870  -17.3281   23.9241 O   0  0  0  0  0  0  0  0  0  0  0  0
    8.5202  -17.0323   23.3455 N   0  0  0  0  0  0  0  0  0  0  0  0
    8.0466  -17.0757   24.7241 C   0  0  1  0  0  0  0  0  0  0  0  0
    7.0387  -15.9965   24.9659 C   0  0  0  0  0  0  0  0  0  0  0  0
    7.5952  -14.8630   25.7127 C   0  0  0  0  0  0  0  0  0  0  0  0
    8.8580  -14.7717   26.2979 C   0  0  0  0  0  0  0  0  0  0  0  0
    8.9876  -13.5952   26.9208 N   0  0  0  0  0  0  0  0  0  0  0  0
    7.8690  -12.8745   26.7879 C   0  0  0  0  0  0  0  0  0  0  0  0
    7.5339  -11.6082   27.2369 C   0  0  0  0  0  0  0  0  0  0  0  0
    6.2924  -11.1254   26.9173 C   0  0  0  0  0  0  0  0  0  0  0  0
    5.3882  -11.8788   26.1638 C   0  0  0  0  0  0  0  0  0  0  0  0
    5.7504  -13.1333   25.7332 C   0  0  0  0  0  0  0  0  0  0  0  0
    6.9921  -13.6409   26.0422 C   0  0  0  0  0  0  0  0  0  0  0  0
    7.7053  -18.4114   25.2055 C   0  0  0  0  0  0  0  0  0  0  0  0
    7.4111  -18.5410   26.5757 O   0  0  0  0  0  0  0  0  0  0  0  0
    7.6522  -19.4634   24.5259 O   0  0  0  0  0  0  0  0  0  0  0  0
  2  1  1  6
  3  2  1  0
  3  4  1  0
  4  5  2  0
  4  9  1  0
  5  6  1  0
  6  7  2  0
  8  7  1  0
  9  8  2  0
 10  2  1  0
 11 10  2  0
 12 10  1  0
 13 12  1  0
 13 14  1  1
 14 15  1  0
 15 19  1  0
 15 16  2  0
 16 17  1  0
 18 17  1  0
 19 18  2  0
 20 21  2  0
 20 13  1  0
 22 20  1  0
 23 22  1  0
 23 24  1  6
 24 25  1  0
 25 26  2  0
 25 33  1  0
 26 27  1  0
 27 28  1  0
 28 29  2  0
 29 30  1  0
 31 30  2  0
 32 31  1  0
 33 32  2  0
 33 28  1  0
 34 23  1  0
 35 34  1  0
 36 34  2  0
M  END
$$$$
