FHW.pdb
     RDKit          3D

 36 39  0  0  1  0  0  0  0  0999 V2000
    8.0904  -17.0204   16.9747 N   0  0  0  0  0  0  0  0  0  0  0  0
    8.4450  -16.0691   17.9839 C   0  0  1  0  0  0  0  0  0  0  0  0
    7.1983  -15.2530   18.3385 C   0  0  0  0  0  0  0  0  0  0  0  0
    7.4768  -14.4954   19.5863 C   0  0  0  0  0  0  0  0  0  0  0  0
    7.1089  -14.9823   20.8240 C   0  0  0  0  0  0  0  0  0  0  0  0
    7.3709  -14.2754   21.9757 C   0  0  0  0  0  0  0  0  0  0  0  0
    8.0096  -13.0539   21.9506 C   0  0  0  0  0  0  0  0  0  0  0  0
    8.3787  -12.5654   20.7107 C   0  0  0  0  0  0  0  0  0  0  0  0
    8.1181  -13.2710   19.5511 C   0  0  0  0  0  0  0  0  0  0  0  0
    8.9730  -16.7069   19.2172 C   0  0  0  0  0  0  0  0  0  0  0  0
    8.2765  -17.6448   19.7062 O   0  0  0  0  0  0  0  0  0  0  0  0
   10.1682  -16.3379   19.8531 N   0  0  0  0  0  0  0  0  0  0  0  0
   10.7030  -17.1900   20.9530 C   0  0  1  0  0  0  0  0  0  0  0  0
   12.0963  -17.5479   20.5739 C   0  0  0  0  0  0  0  0  0  0  0  0
   12.7650  -18.3825   21.5653 C   0  0  0  0  0  0  0  0  0  0  0  0
   13.4423  -17.9052   22.6964 C   0  0  0  0  0  0  0  0  0  0  0  0
   13.9135  -18.9821   23.3417 N   0  0  0  0  0  0  0  0  0  0  0  0
   13.5736  -20.1039   22.6857 C   0  0  0  0  0  0  0  0  0  0  0  0
   12.8765  -19.7139   21.6101 N   0  0  0  0  0  0  0  0  0  0  0  0
   10.6362  -16.4042   22.1915 C   0  0  0  0  0  0  0  0  0  0  0  0
   10.7097  -15.1359   22.0813 O   0  0  0  0  0  0  0  0  0  0  0  0
   10.4936  -16.8911   23.4919 N   0  0  0  0  0  0  0  0  0  0  0  0
    9.6514  -16.2199   24.4753 C   0  0  1  0  0  0  0  0  0  0  0  0
    8.3441  -15.8256   23.8633 C   0  0  0  0  0  0  0  0  0  0  0  0
    7.4541  -15.1561   24.8183 C   0  0  0  0  0  0  0  0  0  0  0  0
    6.4026  -15.7234   25.5378 C   0  0  0  0  0  0  0  0  0  0  0  0
    5.8020  -14.7877   26.2813 N   0  0  0  0  0  0  0  0  0  0  0  0
    6.3962  -13.6028   26.1040 C   0  0  0  0  0  0  0  0  0  0  0  0
    6.1470  -12.3587   26.6585 C   0  0  0  0  0  0  0  0  0  0  0  0
    6.9578  -11.3195   26.2853 C   0  0  0  0  0  0  0  0  0  0  0  0
    8.0037  -11.5001   25.3762 C   0  0  0  0  0  0  0  0  0  0  0  0
    8.2251  -12.7477   24.8424 C   0  0  0  0  0  0  0  0  0  0  0  0
    7.4235  -13.8077   25.2012 C   0  0  0  0  0  0  0  0  0  0  0  0
    9.5937  -16.8816   25.7756 C   0  0  0  0  0  0  0  0  0  0  0  0
   10.2974  -16.2754   26.8330 O   0  0  0  0  0  0  0  0  0  0  0  0
    8.9857  -17.9426   26.0517 O   0  0  0  0  0  0  0  0  0  0  0  0
  2  1  1  6
  3  2  1  0
  3  4  1  0
  4  5  2  0
  4  9  1  0
  5  6  1  0
  6  7  2  0
  8  7  1  0
  9  8  2  0
 10  2  1  0
 11 10  2  0
 12 10  1  0
 13 12  1  0
 13 14  1  6
 14 15  1  0
 15 19  1  0
 15 16  2  0
 16 17  1  0
 18 17  1  0
 19 18  2  0
 20 21  2  0
 20 13  1  0
 22 20  1  0
 23 22  1  0
 23 24  1  6
 24 25  1  0
 25 26  2  0
 25 33  1  0
 26 27  1  0
 27 28  1  0
 28 29  2  0
 29 30  1  0
 31 30  2  0
 32 31  1  0
 33 32  2  0
 33 28  1  0
 34 23  1  0
 35 34  1  0
 36 34  2  0
M  END
$$$$
