FHW.pdb
     RDKit          3D

 36 39  0  0  1  0  0  0  0  0999 V2000
    9.4923  -15.4259   20.2768 N   0  0  0  0  0  0  0  0  0  0  0  0
    8.9250  -15.1402   21.5597 C   0  0  1  0  0  0  0  0  0  0  0  0
    7.4372  -14.8288   21.3721 C   0  0  0  0  0  0  0  0  0  0  0  0
    7.3080  -13.7900   20.3172 C   0  0  0  0  0  0  0  0  0  0  0  0
    6.6802  -14.0538   19.1170 C   0  0  0  0  0  0  0  0  0  0  0  0
    6.5636  -13.0863   18.1448 C   0  0  0  0  0  0  0  0  0  0  0  0
    7.0648  -11.8141   18.3202 C   0  0  0  0  0  0  0  0  0  0  0  0
    7.6940  -11.5489   19.5226 C   0  0  0  0  0  0  0  0  0  0  0  0
    7.8139  -12.5166   20.5023 C   0  0  0  0  0  0  0  0  0  0  0  0
    9.0666  -16.2677   22.5166 C   0  0  0  0  0  0  0  0  0  0  0  0
    8.1027  -16.4479   23.3180 O   0  0  0  0  0  0  0  0  0  0  0  0
   10.1789  -17.1209   22.5799 N   0  0  0  0  0  0  0  0  0  0  0  0
   10.2323  -18.1733   23.6341 C   0  0  1  0  0  0  0  0  0  0  0  0
   11.3986  -19.0387   23.3116 C   0  0  0  0  0  0  0  0  0  0  0  0
   11.6163  -20.0976   24.2904 C   0  0  0  0  0  0  0  0  0  0  0  0
   12.6375  -20.1101   25.2511 C   0  0  0  0  0  0  0  0  0  0  0  0
   12.4939  -21.2479   25.9459 N   0  0  0  0  0  0  0  0  0  0  0  0
   11.4466  -21.9488   25.4807 C   0  0  0  0  0  0  0  0  0  0  0  0
   10.9298  -21.2297   24.4754 N   0  0  0  0  0  0  0  0  0  0  0  0
   10.3707  -17.4940   24.9285 C   0  0  0  0  0  0  0  0  0  0  0  0
   11.2051  -16.5319   24.9951 O   0  0  0  0  0  0  0  0  0  0  0  0
    9.6811  -17.7794   26.1080 N   0  0  0  0  0  0  0  0  0  0  0  0
   10.0838  -17.2117   27.3896 C   0  0  1  0  0  0  0  0  0  0  0  0
    8.9094  -16.5936   28.0808 C   0  0  0  0  0  0  0  0  0  0  0  0
    8.0410  -15.8507   27.1609 C   0  0  0  0  0  0  0  0  0  0  0  0
    7.0229  -16.3630   26.3570 C   0  0  0  0  0  0  0  0  0  0  0  0
    6.4782  -15.3809   25.6304 N   0  0  0  0  0  0  0  0  0  0  0  0
    7.0777  -14.2166   25.9013 C   0  0  0  0  0  0  0  0  0  0  0  0
    6.8577  -12.9369   25.4202 C   0  0  0  0  0  0  0  0  0  0  0  0
    7.6389  -11.9261   25.9147 C   0  0  0  0  0  0  0  0  0  0  0  0
    8.6269  -12.1692   26.8727 C   0  0  0  0  0  0  0  0  0  0  0  0
    8.8215  -13.4512   27.3299 C   0  0  0  0  0  0  0  0  0  0  0  0
    8.0497  -14.4841   26.8478 C   0  0  0  0  0  0  0  0  0  0  0  0
   10.9364  -18.0807   28.1959 C   0  0  0  0  0  0  0  0  0  0  0  0
   11.4970  -17.5239   29.3606 O   0  0  0  0  0  0  0  0  0  0  0  0
   11.2301  -19.2758   27.9569 O   0  0  0  0  0  0  0  0  0  0  0  0
  2  1  1  6
  3  2  1  0
  3  4  1  0
  4  5  2  0
  4  9  1  0
  5  6  1  0
  6  7  2  0
  8  7  1  0
  9  8  2  0
 10  2  1  0
 11 10  2  0
 12 10  1  0
 13 12  1  0
 13 14  1  6
 14 15  1  0
 15 19  1  0
 15 16  2  0
 16 17  1  0
 18 17  1  0
 19 18  2  0
 20 21  2  0
 20 13  1  0
 22 20  1  0
 23 22  1  0
 23 24  1  1
 24 25  1  0
 25 26  2  0
 25 33  1  0
 26 27  1  0
 27 28  1  0
 28 29  2  0
 29 30  1  0
 31 30  2  0
 32 31  1  0
 33 32  2  0
 33 28  1  0
 34 23  1  0
 35 34  1  0
 36 34  2  0
M  END
$$$$
