FHW.pdb
     RDKit          3D

 36 39  0  0  1  0  0  0  0  0999 V2000
    6.2136  -18.0027   21.2822 N   0  0  0  0  0  0  0  0  0  0  0  0
    7.1201  -16.8971   21.3527 C   0  0  1  0  0  0  0  0  0  0  0  0
    6.3483  -15.6697   21.8465 C   0  0  0  0  0  0  0  0  0  0  0  0
    7.0509  -14.4523   21.3640 C   0  0  0  0  0  0  0  0  0  0  0  0
    7.6742  -13.5844   22.2373 C   0  0  0  0  0  0  0  0  0  0  0  0
    8.3238  -12.4591   21.7830 C   0  0  0  0  0  0  0  0  0  0  0  0
    8.3840  -12.1448   20.4421 C   0  0  0  0  0  0  0  0  0  0  0  0
    7.7597  -13.0141   19.5663 C   0  0  0  0  0  0  0  0  0  0  0  0
    7.1060  -14.1454   20.0170 C   0  0  0  0  0  0  0  0  0  0  0  0
    8.2654  -17.1479   22.2648 C   0  0  0  0  0  0  0  0  0  0  0  0
    8.0277  -17.8681   23.2791 O   0  0  0  0  0  0  0  0  0  0  0  0
    9.5609  -16.6450   22.0701 N   0  0  0  0  0  0  0  0  0  0  0  0
   10.6796  -17.1667   22.9056 C   0  0  1  0  0  0  0  0  0  0  0  0
   11.9403  -16.7181   22.2556 C   0  0  0  0  0  0  0  0  0  0  0  0
   12.2252  -17.4198   21.0094 C   0  0  0  0  0  0  0  0  0  0  0  0
   12.0894  -18.8013   20.8126 C   0  0  0  0  0  0  0  0  0  0  0  0
   12.4502  -19.0435   19.5440 N   0  0  0  0  0  0  0  0  0  0  0  0
   12.8034  -17.9001   18.9339 C   0  0  0  0  0  0  0  0  0  0  0  0
   12.6584  -16.9279   19.8442 N   0  0  0  0  0  0  0  0  0  0  0  0
   10.5124  -16.6190   24.2577 C   0  0  0  0  0  0  0  0  0  0  0  0
   10.6714  -15.3618   24.4006 O   0  0  0  0  0  0  0  0  0  0  0  0
   10.1896  -17.3237   25.4185 N   0  0  0  0  0  0  0  0  0  0  0  0
   10.4055  -16.7582   26.7453 C   0  0  1  0  0  0  0  0  0  0  0  0
    9.1364  -16.7821   27.5377 C   0  0  0  0  0  0  0  0  0  0  0  0
    8.0617  -16.0108   26.9036 C   0  0  0  0  0  0  0  0  0  0  0  0
    7.0308  -16.4967   26.0995 C   0  0  0  0  0  0  0  0  0  0  0  0
    6.2650  -15.4839   25.6789 N   0  0  0  0  0  0  0  0  0  0  0  0
    6.7249  -14.3240   26.1602 C   0  0  0  0  0  0  0  0  0  0  0  0
    6.2676  -13.0249   26.0172 C   0  0  0  0  0  0  0  0  0  0  0  0
    6.9561  -12.0313   26.6616 C   0  0  0  0  0  0  0  0  0  0  0  0
    8.0831  -12.3105   27.4394 C   0  0  0  0  0  0  0  0  0  0  0  0
    8.5128  -13.6109   27.5611 C   0  0  0  0  0  0  0  0  0  0  0  0
    7.8382  -14.6268   26.9225 C   0  0  0  0  0  0  0  0  0  0  0  0
   11.6087  -17.2377   27.4196 C   0  0  0  0  0  0  0  0  0  0  0  0
   12.3102  -18.2906   26.8029 O   0  0  0  0  0  0  0  0  0  0  0  0
   12.0837  -16.8137   28.4994 O   0  0  0  0  0  0  0  0  0  0  0  0
  2  1  1  1
  3  2  1  0
  3  4  1  0
  4  5  2  0
  4  9  1  0
  5  6  1  0
  6  7  2  0
  8  7  1  0
  9  8  2  0
 10  2  1  0
 11 10  2  0
 12 10  1  0
 13 12  1  0
 13 14  1  6
 14 15  1  0
 15 19  1  0
 15 16  2  0
 16 17  1  0
 18 17  1  0
 19 18  2  0
 20 21  2  0
 20 13  1  0
 22 20  1  0
 23 22  1  0
 23 24  1  1
 24 25  1  0
 25 26  2  0
 25 33  1  0
 26 27  1  0
 27 28  1  0
 28 29  2  0
 29 30  1  0
 31 30  2  0
 32 31  1  0
 33 32  2  0
 33 28  1  0
 34 23  1  0
 35 34  1  0
 36 34  2  0
M  END
$$$$
