FHW.pdb
     RDKit          3D

 36 39  0  0  1  0  0  0  0  0999 V2000
    7.0283  -16.2948   25.1232 N   0  0  0  0  0  0  0  0  0  0  0  0
    6.8013  -16.4715   23.7209 C   0  0  1  0  0  0  0  0  0  0  0  0
    6.0268  -15.2573   23.1995 C   0  0  0  0  0  0  0  0  0  0  0  0
    6.1989  -14.1437   24.1685 C   0  0  0  0  0  0  0  0  0  0  0  0
    7.1751  -13.1833   23.9987 C   0  0  0  0  0  0  0  0  0  0  0  0
    7.3281  -12.1542   24.9001 C   0  0  0  0  0  0  0  0  0  0  0  0
    6.5194  -12.0323   26.0098 C   0  0  0  0  0  0  0  0  0  0  0  0
    5.5409  -12.9943   26.1806 C   0  0  0  0  0  0  0  0  0  0  0  0
    5.3828  -14.0298   25.2787 C   0  0  0  0  0  0  0  0  0  0  0  0
    8.0611  -16.6111   22.9462 C   0  0  0  0  0  0  0  0  0  0  0  0
    7.9374  -16.9270   21.7260 O   0  0  0  0  0  0  0  0  0  0  0  0
    9.3456  -16.4176   23.4769 N   0  0  0  0  0  0  0  0  0  0  0  0
   10.5293  -16.5107   22.5758 C   0  0  1  0  0  0  0  0  0  0  0  0
   10.3119  -15.5221   21.4856 C   0  0  0  0  0  0  0  0  0  0  0  0
   11.3988  -15.4903   20.5138 C   0  0  0  0  0  0  0  0  0  0  0  0
   12.5246  -14.6581   20.5901 C   0  0  0  0  0  0  0  0  0  0  0  0
   13.2750  -14.9314   19.5129 N   0  0  0  0  0  0  0  0  0  0  0  0
   12.6896  -15.8827   18.7667 C   0  0  0  0  0  0  0  0  0  0  0  0
   11.5515  -16.2062   19.3952 N   0  0  0  0  0  0  0  0  0  0  0  0
   11.7208  -16.2144   23.3810 C   0  0  0  0  0  0  0  0  0  0  0  0
   12.8358  -16.1420   22.7666 O   0  0  0  0  0  0  0  0  0  0  0  0
   11.7737  -15.9941   24.7583 N   0  0  0  0  0  0  0  0  0  0  0  0
   12.4554  -16.9173   25.6582 C   0  0  1  0  0  0  0  0  0  0  0  0
   11.4620  -17.7542   26.4010 C   0  0  0  0  0  0  0  0  0  0  0  0
   10.5623  -16.9517   27.2369 C   0  0  0  0  0  0  0  0  0  0  0  0
    9.2104  -17.1827   27.4907 C   0  0  0  0  0  0  0  0  0  0  0  0
    8.7216  -16.2139   28.2727 N   0  0  0  0  0  0  0  0  0  0  0  0
    9.6794  -15.3285   28.5675 C   0  0  0  0  0  0  0  0  0  0  0  0
    9.6623  -14.1818   29.3436 C   0  0  0  0  0  0  0  0  0  0  0  0
   10.8325  -13.4814   29.4733 C   0  0  0  0  0  0  0  0  0  0  0  0
   12.0086  -13.9029   28.8471 C   0  0  0  0  0  0  0  0  0  0  0  0
   11.9929  -15.0454   28.0823 C   0  0  0  0  0  0  0  0  0  0  0  0
   10.8292  -15.7661   27.9361 C   0  0  0  0  0  0  0  0  0  0  0  0
   13.5882  -17.6192   25.0613 C   0  0  0  0  0  0  0  0  0  0  0  0
   13.3264  -18.8705   24.4725 O   0  0  0  0  0  0  0  0  0  0  0  0
   14.7783  -17.2273   25.0224 O   0  0  0  0  0  0  0  0  0  0  0  0
  2  1  1  1
  3  2  1  0
  3  4  1  0
  4  5  2  0
  4  9  1  0
  5  6  1  0
  6  7  2  0
  8  7  1  0
  9  8  2  0
 10  2  1  0
 11 10  2  0
 12 10  1  0
 13 12  1  0
 13 14  1  6
 14 15  1  0
 15 19  1  0
 15 16  2  0
 16 17  1  0
 18 17  1  0
 19 18  2  0
 20 21  2  0
 20 13  1  0
 22 20  1  0
 23 22  1  0
 23 24  1  6
 24 25  1  0
 25 26  2  0
 25 33  1  0
 26 27  1  0
 27 28  1  0
 28 29  2  0
 29 30  1  0
 31 30  2  0
 32 31  1  0
 33 32  2  0
 33 28  1  0
 34 23  1  0
 35 34  1  0
 36 34  2  0
M  END
$$$$
