FHW.pdb
     RDKit          3D

 36 39  0  0  1  0  0  0  0  0999 V2000
    5.6948  -17.7511   25.4521 N   0  0  0  0  0  0  0  0  0  0  0  0
    6.4617  -16.6629   24.9259 C   0  0  1  0  0  0  0  0  0  0  0  0
    7.0528  -15.8758   26.0995 C   0  0  0  0  0  0  0  0  0  0  0  0
    6.7180  -14.4399   25.9132 C   0  0  0  0  0  0  0  0  0  0  0  0
    7.1358  -13.7396   24.7999 C   0  0  0  0  0  0  0  0  0  0  0  0
    6.8211  -12.4099   24.6337 C   0  0  0  0  0  0  0  0  0  0  0  0
    6.0780  -11.7159   25.5647 C   0  0  0  0  0  0  0  0  0  0  0  0
    5.6589  -12.4170   26.6805 C   0  0  0  0  0  0  0  0  0  0  0  0
    5.9720  -13.7522   26.8525 C   0  0  0  0  0  0  0  0  0  0  0  0
    7.5657  -17.1115   24.0390 C   0  0  0  0  0  0  0  0  0  0  0  0
    8.1810  -18.1595   24.3953 O   0  0  0  0  0  0  0  0  0  0  0  0
    7.9539  -16.4563   22.8604 N   0  0  0  0  0  0  0  0  0  0  0  0
    9.0589  -17.0267   22.0385 C   0  0  1  0  0  0  0  0  0  0  0  0
    8.9245  -16.4377   20.6790 C   0  0  0  0  0  0  0  0  0  0  0  0
    9.9683  -16.8734   19.7584 C   0  0  0  0  0  0  0  0  0  0  0  0
   11.2958  -16.4225   19.7729 C   0  0  0  0  0  0  0  0  0  0  0  0
   11.9254  -17.0574   18.7735 N   0  0  0  0  0  0  0  0  0  0  0  0
   11.0753  -17.8777   18.1341 C   0  0  0  0  0  0  0  0  0  0  0  0
    9.8929  -17.7484   18.7506 N   0  0  0  0  0  0  0  0  0  0  0  0
   10.3243  -16.6664   22.6903 C   0  0  0  0  0  0  0  0  0  0  0  0
   10.7960  -15.5071   22.4457 O   0  0  0  0  0  0  0  0  0  0  0  0
   11.0772  -17.4541   23.5625 N   0  0  0  0  0  0  0  0  0  0  0  0
   12.4724  -17.1516   23.8605 C   0  0  1  0  0  0  0  0  0  0  0  0
   12.5747  -15.9005   24.6750 C   0  0  0  0  0  0  0  0  0  0  0  0
   12.0871  -16.0800   26.0469 C   0  0  0  0  0  0  0  0  0  0  0  0
   12.1710  -17.2295   26.8325 C   0  0  0  0  0  0  0  0  0  0  0  0
   11.5838  -17.0169   28.0153 N   0  0  0  0  0  0  0  0  0  0  0  0
   11.1013  -15.7711   28.0761 C   0  0  0  0  0  0  0  0  0  0  0  0
   10.4361  -15.0925   29.0832 C   0  0  0  0  0  0  0  0  0  0  0  0
   10.0792  -13.7909   28.8480 C   0  0  0  0  0  0  0  0  0  0  0  0
   10.3728  -13.1615   27.6353 C   0  0  0  0  0  0  0  0  0  0  0  0
   11.0338  -13.8627   26.6546 C   0  0  0  0  0  0  0  0  0  0  0  0
   11.4022  -15.1719   26.8667 C   0  0  0  0  0  0  0  0  0  0  0  0
   13.2565  -18.2963   24.3156 C   0  0  0  0  0  0  0  0  0  0  0  0
   14.6434  -18.1045   24.4588 O   0  0  0  0  0  0  0  0  0  0  0  0
   12.8248  -19.4413   24.5880 O   0  0  0  0  0  0  0  0  0  0  0  0
  2  1  1  1
  3  2  1  0
  3  4  1  0
  4  5  2  0
  4  9  1  0
  5  6  1  0
  6  7  2  0
  8  7  1  0
  9  8  2  0
 10  2  1  0
 11 10  2  0
 12 10  1  0
 13 12  1  0
 13 14  1  6
 14 15  1  0
 15 19  1  0
 15 16  2  0
 16 17  1  0
 18 17  1  0
 19 18  2  0
 20 21  2  0
 20 13  1  0
 22 20  1  0
 23 22  1  0
 23 24  1  1
 24 25  1  0
 25 26  2  0
 25 33  1  0
 26 27  1  0
 27 28  1  0
 28 29  2  0
 29 30  1  0
 31 30  2  0
 32 31  1  0
 33 32  2  0
 33 28  1  0
 34 23  1  0
 35 34  1  0
 36 34  2  0
M  END
$$$$
