FHW.pdb
     RDKit          3D

 36 39  0  0  1  0  0  0  0  0999 V2000
    5.5789  -18.3485   25.0269 N   0  0  0  0  0  0  0  0  0  0  0  0
    6.0853  -17.0807   24.5965 C   0  0  1  0  0  0  0  0  0  0  0  0
    6.3529  -16.2210   25.8356 C   0  0  0  0  0  0  0  0  0  0  0  0
    6.2541  -14.7916   25.4411 C   0  0  0  0  0  0  0  0  0  0  0  0
    6.9717  -14.2851   24.3767 C   0  0  0  0  0  0  0  0  0  0  0  0
    6.8746  -12.9601   24.0166 C   0  0  0  0  0  0  0  0  0  0  0  0
    6.0612  -12.0787   24.6964 C   0  0  0  0  0  0  0  0  0  0  0  0
    5.3418  -12.5856   25.7631 C   0  0  0  0  0  0  0  0  0  0  0  0
    5.4355  -13.9151   26.1291 C   0  0  0  0  0  0  0  0  0  0  0  0
    7.3394  -17.1982   23.8089 C   0  0  0  0  0  0  0  0  0  0  0  0
    8.2380  -17.9477   24.2931 O   0  0  0  0  0  0  0  0  0  0  0  0
    7.5769  -16.5425   22.5912 N   0  0  0  0  0  0  0  0  0  0  0  0
    8.8585  -16.7850   21.8696 C   0  0  1  0  0  0  0  0  0  0  0  0
    8.7626  -16.0554   20.5767 C   0  0  0  0  0  0  0  0  0  0  0  0
    9.8940  -16.3047   19.6911 C   0  0  0  0  0  0  0  0  0  0  0  0
   10.0438  -17.4330   18.8724 C   0  0  0  0  0  0  0  0  0  0  0  0
   11.2088  -17.2832   18.2254 N   0  0  0  0  0  0  0  0  0  0  0  0
   11.7980  -16.1316   18.5877 C   0  0  0  0  0  0  0  0  0  0  0  0
   10.9803  -15.5550   19.4787 N   0  0  0  0  0  0  0  0  0  0  0  0
    9.9454  -16.2876   22.7224 C   0  0  0  0  0  0  0  0  0  0  0  0
   10.0297  -15.0251   22.8815 O   0  0  0  0  0  0  0  0  0  0  0  0
   10.9057  -17.0472   23.3926 N   0  0  0  0  0  0  0  0  0  0  0  0
   12.2179  -16.5053   23.7261 C   0  0  1  0  0  0  0  0  0  0  0  0
   12.0890  -15.3969   24.7230 C   0  0  0  0  0  0  0  0  0  0  0  0
   11.6124  -15.8661   26.0287 C   0  0  0  0  0  0  0  0  0  0  0  0
   11.6162  -17.1745   26.5120 C   0  0  0  0  0  0  0  0  0  0  0  0
   11.0690  -17.2112   27.7319 N   0  0  0  0  0  0  0  0  0  0  0  0
   10.6907  -15.9848   28.1074 C   0  0  0  0  0  0  0  0  0  0  0  0
   10.1006  -15.5223   29.2716 C   0  0  0  0  0  0  0  0  0  0  0  0
    9.8468  -14.1796   29.3687 C   0  0  0  0  0  0  0  0  0  0  0  0
   10.1693  -13.2991   28.3325 C   0  0  0  0  0  0  0  0  0  0  0  0
   10.7538  -13.7895   27.1887 C   0  0  0  0  0  0  0  0  0  0  0  0
   11.0181  -15.1349   27.0669 C   0  0  0  0  0  0  0  0  0  0  0  0
   13.2391  -17.5137   23.9952 C   0  0  0  0  0  0  0  0  0  0  0  0
   12.8421  -18.8618   23.9172 O   0  0  0  0  0  0  0  0  0  0  0  0
   14.4380  -17.3063   24.2967 O   0  0  0  0  0  0  0  0  0  0  0  0
  2  1  1  1
  3  2  1  0
  3  4  1  0
  4  5  2  0
  4  9  1  0
  5  6  1  0
  6  7  2  0
  8  7  1  0
  9  8  2  0
 10  2  1  0
 11 10  2  0
 12 10  1  0
 13 12  1  0
 13 14  1  6
 14 15  1  0
 15 19  1  0
 15 16  2  0
 16 17  1  0
 18 17  1  0
 19 18  2  0
 20 21  2  0
 20 13  1  0
 22 20  1  0
 23 22  1  0
 23 24  1  1
 24 25  1  0
 25 26  2  0
 25 33  1  0
 26 27  1  0
 27 28  1  0
 28 29  2  0
 29 30  1  0
 31 30  2  0
 32 31  1  0
 33 32  2  0
 33 28  1  0
 34 23  1  0
 35 34  1  0
 36 34  2  0
M  END
$$$$
