FHW.pdb
     RDKit          3D

 36 39  0  0  1  0  0  0  0  0999 V2000
    6.0156  -17.5867   22.0872 N   0  0  0  0  0  0  0  0  0  0  0  0
    7.1137  -17.1629   21.2726 C   0  0  1  0  0  0  0  0  0  0  0  0
    6.9268  -15.6788   20.9431 C   0  0  0  0  0  0  0  0  0  0  0  0
    7.1389  -14.8949   22.1877 C   0  0  0  0  0  0  0  0  0  0  0  0
    6.4328  -15.1673   23.3417 C   0  0  0  0  0  0  0  0  0  0  0  0
    6.6352  -14.4374   24.4911 C   0  0  0  0  0  0  0  0  0  0  0  0
    7.5471  -13.4050   24.5467 C   0  0  0  0  0  0  0  0  0  0  0  0
    8.2550  -13.1315   23.3908 C   0  0  0  0  0  0  0  0  0  0  0  0
    8.0559  -13.8611   22.2338 C   0  0  0  0  0  0  0  0  0  0  0  0
    8.4295  -17.3494   21.9363 C   0  0  0  0  0  0  0  0  0  0  0  0
    8.4412  -18.0960   22.9592 O   0  0  0  0  0  0  0  0  0  0  0  0
    9.6276  -16.7603   21.5044 N   0  0  0  0  0  0  0  0  0  0  0  0
   10.9084  -17.1435   22.1637 C   0  0  1  0  0  0  0  0  0  0  0  0
   12.0026  -16.6595   21.2795 C   0  0  0  0  0  0  0  0  0  0  0  0
   12.0233  -17.3175   19.9783 C   0  0  0  0  0  0  0  0  0  0  0  0
   12.5479  -18.5935   19.7283 C   0  0  0  0  0  0  0  0  0  0  0  0
   12.3779  -18.8262   18.4187 N   0  0  0  0  0  0  0  0  0  0  0  0
   11.7796  -17.7758   17.8329 C   0  0  0  0  0  0  0  0  0  0  0  0
   11.5743  -16.8723   18.8005 N   0  0  0  0  0  0  0  0  0  0  0  0
   10.9284  -16.5115   23.4888 C   0  0  0  0  0  0  0  0  0  0  0  0
   10.0048  -15.6710   23.7472 O   0  0  0  0  0  0  0  0  0  0  0  0
   11.8499  -16.7317   24.5138 N   0  0  0  0  0  0  0  0  0  0  0  0
   11.4634  -17.3590   25.7724 C   0  0  1  0  0  0  0  0  0  0  0  0
    9.9856  -17.5904   25.8102 C   0  0  0  0  0  0  0  0  0  0  0  0
    9.2481  -16.4375   26.3386 C   0  0  0  0  0  0  0  0  0  0  0  0
    7.9008  -16.1327   26.1458 C   0  0  0  0  0  0  0  0  0  0  0  0
    7.6021  -14.9812   26.7573 N   0  0  0  0  0  0  0  0  0  0  0  0
    8.6856  -14.4829   27.3623 C   0  0  0  0  0  0  0  0  0  0  0  0
    8.8688  -13.3397   28.1219 C   0  0  0  0  0  0  0  0  0  0  0  0
   10.1182  -13.1063   28.6329 C   0  0  0  0  0  0  0  0  0  0  0  0
   11.1780  -13.9871   28.4003 C   0  0  0  0  0  0  0  0  0  0  0  0
   10.9643  -15.1133   27.6412 C   0  0  0  0  0  0  0  0  0  0  0  0
    9.7179  -15.3695   27.1161 C   0  0  0  0  0  0  0  0  0  0  0  0
   12.3125  -18.4754   26.1785 C   0  0  0  0  0  0  0  0  0  0  0  0
   12.2819  -18.8402   27.5375 O   0  0  0  0  0  0  0  0  0  0  0  0
   13.0760  -19.1442   25.4428 O   0  0  0  0  0  0  0  0  0  0  0  0
  2  1  1  1
  3  2  1  0
  3  4  1  0
  4  5  2  0
  4  9  1  0
  5  6  1  0
  6  7  2  0
  8  7  1  0
  9  8  2  0
 10  2  1  0
 11 10  2  0
 12 10  1  0
 13 12  1  0
 13 14  1  6
 14 15  1  0
 15 19  1  0
 15 16  2  0
 16 17  1  0
 18 17  1  0
 19 18  2  0
 20 21  2  0
 20 13  1  0
 22 20  1  0
 23 22  1  0
 23 24  1  6
 24 25  1  0
 25 26  2  0
 25 33  1  0
 26 27  1  0
 27 28  1  0
 28 29  2  0
 29 30  1  0
 31 30  2  0
 32 31  1  0
 33 32  2  0
 33 28  1  0
 34 23  1  0
 35 34  1  0
 36 34  2  0
M  END
$$$$
