FDG.pdb
     RDKit          3D

 24 24  0  0  1  0  0  0  0  0999 V2000
    6.1329  -17.0499   23.4759 N   0  0  0  0  0  0  0  0  0  0  0  0
    7.0847  -16.1742   24.1303 C   0  0  1  0  0  0  0  0  0  0  0  0
    6.5646  -15.9548   25.5377 C   0  0  0  0  0  0  0  0  0  0  0  0
    6.9694  -14.5745   25.9554 C   0  0  0  0  0  0  0  0  0  0  0  0
    8.2170  -14.3339   26.4852 C   0  0  0  0  0  0  0  0  0  0  0  0
    8.6070  -13.0749   26.8758 C   0  0  0  0  0  0  0  0  0  0  0  0
    7.7283  -12.0214   26.7351 C   0  0  0  0  0  0  0  0  0  0  0  0
    6.4859  -12.2224   26.2151 C   0  0  0  0  0  0  0  0  0  0  0  0
    6.1122  -13.4921   25.8285 C   0  0  0  0  0  0  0  0  0  0  0  0
    8.4168  -16.8249   24.1422 C   0  0  0  0  0  0  0  0  0  0  0  0
    8.4722  -18.0649   24.2581 O   0  0  0  0  0  0  0  0  0  0  0  0
    9.5776  -16.0352   24.0236 N   0  0  0  0  0  0  0  0  0  0  0  0
   10.9474  -16.4774   23.9983 C   0  0  1  0  0  0  0  0  0  0  0  0
   11.7666  -15.6789   23.0306 C   0  0  0  0  0  0  0  0  0  0  0  0
   13.1108  -16.2131   22.8117 C   0  0  0  0  0  0  0  0  0  0  0  0
   13.2722  -17.3360   22.2849 O   0  0  0  0  0  0  0  0  0  0  0  0
   11.5655  -16.7813   25.2816 C   0  0  0  0  0  0  0  0  0  0  0  0
   12.6272  -17.4268   25.3701 O   0  0  0  0  0  0  0  0  0  0  0  0
   14.2293  -15.4898   23.1845 O   0  0  0  0  0  0  0  0  0  0  0  0
   10.9633  -16.3419   26.4976 N   0  0  0  0  0  0  0  0  0  0  0  0
   10.2876  -17.2442   27.4015 C   0  0  0  0  0  0  0  0  0  0  0  0
   11.2516  -17.9916   28.2568 C   0  0  0  0  0  0  0  0  0  0  0  0
   12.4737  -17.7602   28.1007 O   0  0  0  0  0  0  0  0  0  0  0  0
   10.8524  -18.9065   29.1904 O   0  0  0  0  0  0  0  0  0  0  0  0
  2  1  1  6
  2 10  1  0
  3  2  1  0
  4  3  1  0
  5  4  2  0
  6  5  1  0
  7  6  2  0
  7  8  1  0
  8  9  2  0
  9  4  1  0
 10 11  2  0
 10 12  1  0
 12 13  1  0
 13 17  1  0
 14 15  1  0
 13 14  1  1
 15 16  2  0
 17 18  2  0
 17 20  1  0
 19 15  1  0
 20 21  1  0
 21 22  1  0
 22 24  1  0
 23 22  2  0
M  END
$$$$
