FDG.pdb
     RDKit          3D

 24 24  0  0  1  0  0  0  0  0999 V2000
    8.9507  -14.4937   23.3992 N   0  0  0  0  0  0  0  0  0  0  0  0
    8.6858  -15.3207   24.5598 C   0  0  1  0  0  0  0  0  0  0  0  0
    7.2058  -15.1775   24.8568 C   0  0  0  0  0  0  0  0  0  0  0  0
    6.9999  -13.8261   25.4692 C   0  0  0  0  0  0  0  0  0  0  0  0
    7.0312  -12.6877   24.6959 C   0  0  0  0  0  0  0  0  0  0  0  0
    6.8460  -11.4385   25.2391 C   0  0  0  0  0  0  0  0  0  0  0  0
    6.6225  -11.3175   26.5944 C   0  0  0  0  0  0  0  0  0  0  0  0
    6.5851  -12.4220   27.3901 C   0  0  0  0  0  0  0  0  0  0  0  0
    6.7728  -13.6668   26.8277 C   0  0  0  0  0  0  0  0  0  0  0  0
    9.0405  -16.7260   24.2475 C   0  0  0  0  0  0  0  0  0  0  0  0
    8.4952  -17.2739   23.2694 O   0  0  0  0  0  0  0  0  0  0  0  0
    9.9757  -17.4031   25.0550 N   0  0  0  0  0  0  0  0  0  0  0  0
   10.6950  -18.6120   24.7486 C   0  0  1  0  0  0  0  0  0  0  0  0
   11.2625  -18.5794   23.3623 C   0  0  0  0  0  0  0  0  0  0  0  0
   12.2188  -17.4948   23.1399 C   0  0  0  0  0  0  0  0  0  0  0  0
   12.6715  -16.8371   24.1028 O   0  0  0  0  0  0  0  0  0  0  0  0
   11.5551  -19.1498   25.7938 C   0  0  0  0  0  0  0  0  0  0  0  0
   12.1947  -20.2086   25.6469 O   0  0  0  0  0  0  0  0  0  0  0  0
   12.6396  -17.1730   21.8622 O   0  0  0  0  0  0  0  0  0  0  0  0
   11.6935  -18.4688   27.0395 N   0  0  0  0  0  0  0  0  0  0  0  0
   12.0305  -19.1529   28.2667 C   0  0  0  0  0  0  0  0  0  0  0  0
   10.8173  -19.6678   28.9615 C   0  0  0  0  0  0  0  0  0  0  0  0
   10.3913  -20.8000   28.6330 O   0  0  0  0  0  0  0  0  0  0  0  0
   10.1651  -18.9565   29.9293 O   0  0  0  0  0  0  0  0  0  0  0  0
  2  1  1  6
  2 10  1  0
  3  2  1  0
  4  3  1  0
  5  4  2  0
  6  5  1  0
  7  6  2  0
  7  8  1  0
  8  9  2  0
  9  4  1  0
 10 11  2  0
 10 12  1  0
 12 13  1  0
 13 17  1  0
 14 15  1  0
 13 14  1  6
 15 16  2  0
 17 18  2  0
 17 20  1  0
 19 15  1  0
 20 21  1  0
 21 22  1  0
 22 24  1  0
 23 22  2  0
M  END
$$$$
