FDG.pdb
     RDKit          3D

 24 24  0  0  1  0  0  0  0  0999 V2000
    6.0318  -16.5612   24.3212 N   0  0  0  0  0  0  0  0  0  0  0  0
    7.2816  -15.8399   24.4583 C   0  0  1  0  0  0  0  0  0  0  0  0
    7.4242  -15.5099   25.9314 C   0  0  0  0  0  0  0  0  0  0  0  0
    7.0852  -14.0609   26.1014 C   0  0  0  0  0  0  0  0  0  0  0  0
    8.0071  -13.0807   25.8110 C   0  0  0  0  0  0  0  0  0  0  0  0
    7.7159  -11.7457   25.9617 C   0  0  0  0  0  0  0  0  0  0  0  0
    6.4682  -11.3734   26.4157 C   0  0  0  0  0  0  0  0  0  0  0  0
    5.5313  -12.3159   26.7130 C   0  0  0  0  0  0  0  0  0  0  0  0
    5.8412  -13.6502   26.5554 C   0  0  0  0  0  0  0  0  0  0  0  0
    8.3941  -16.6992   23.9871 C   0  0  0  0  0  0  0  0  0  0  0  0
    8.2532  -17.9367   24.0394 O   0  0  0  0  0  0  0  0  0  0  0  0
    9.5730  -16.1037   23.4964 N   0  0  0  0  0  0  0  0  0  0  0  0
   10.7566  -16.7613   23.0072 C   0  0  1  0  0  0  0  0  0  0  0  0
   11.5621  -15.8597   22.1222 C   0  0  0  0  0  0  0  0  0  0  0  0
   11.4593  -16.1820   20.6989 C   0  0  0  0  0  0  0  0  0  0  0  0
   10.5112  -16.8759   20.2696 O   0  0  0  0  0  0  0  0  0  0  0  0
   11.4995  -17.5751   23.9597 C   0  0  0  0  0  0  0  0  0  0  0  0
   12.4476  -18.3042   23.6115 O   0  0  0  0  0  0  0  0  0  0  0  0
   12.4081  -15.7289   19.8002 O   0  0  0  0  0  0  0  0  0  0  0  0
   11.1580  -17.5622   25.3445 N   0  0  0  0  0  0  0  0  0  0  0  0
   11.8734  -18.3406   26.3294 C   0  0  0  0  0  0  0  0  0  0  0  0
   11.3506  -18.1042   27.7043 C   0  0  0  0  0  0  0  0  0  0  0  0
   11.8797  -18.7370   28.6482 O   0  0  0  0  0  0  0  0  0  0  0  0
   10.3293  -17.2341   27.9645 O   0  0  0  0  0  0  0  0  0  0  0  0
  2  1  1  1
  2 10  1  0
  3  2  1  0
  4  3  1  0
  5  4  2  0
  6  5  1  0
  7  6  2  0
  7  8  1  0
  8  9  2  0
  9  4  1  0
 10 11  2  0
 10 12  1  0
 12 13  1  0
 13 17  1  0
 14 15  1  0
 13 14  1  1
 15 16  2  0
 17 18  2  0
 17 20  1  0
 19 15  1  0
 20 21  1  0
 21 22  1  0
 22 24  1  0
 23 22  2  0
M  END
$$$$
