FDG.pdb
     RDKit          3D

 24 24  0  0  1  0  0  0  0  0999 V2000
    5.3448  -18.2374   21.0027 N   0  0  0  0  0  0  0  0  0  0  0  0
    6.3996  -17.2480   20.9047 C   0  0  1  0  0  0  0  0  0  0  0  0
    6.2387  -16.3330   22.1031 C   0  0  0  0  0  0  0  0  0  0  0  0
    6.9433  -15.0499   21.7856 C   0  0  0  0  0  0  0  0  0  0  0  0
    7.3644  -14.2078   22.7898 C   0  0  0  0  0  0  0  0  0  0  0  0
    8.0113  -13.0254   22.5191 C   0  0  0  0  0  0  0  0  0  0  0  0
    8.2469  -12.6690   21.2080 C   0  0  0  0  0  0  0  0  0  0  0  0
    7.8442  -13.4775   20.1890 C   0  0  0  0  0  0  0  0  0  0  0  0
    7.1969  -14.6598   20.4796 C   0  0  0  0  0  0  0  0  0  0  0  0
    7.7139  -17.9340   20.9216 C   0  0  0  0  0  0  0  0  0  0  0  0
    7.8437  -18.9537   21.6269 O   0  0  0  0  0  0  0  0  0  0  0  0
    8.7750  -17.4229   20.1484 N   0  0  0  0  0  0  0  0  0  0  0  0
   10.1329  -17.8975   20.0896 C   0  0  1  0  0  0  0  0  0  0  0  0
   10.7785  -17.5604   18.7802 C   0  0  0  0  0  0  0  0  0  0  0  0
   10.1464  -18.2009   17.6268 C   0  0  0  0  0  0  0  0  0  0  0  0
    9.6026  -19.3217   17.7391 O   0  0  0  0  0  0  0  0  0  0  0  0
   10.9463  -17.7169   21.2842 C   0  0  0  0  0  0  0  0  0  0  0  0
   11.9725  -18.3905   21.4960 O   0  0  0  0  0  0  0  0  0  0  0  0
   10.1391  -17.5825   16.3895 O   0  0  0  0  0  0  0  0  0  0  0  0
   10.5862  -16.7464   22.2656 N   0  0  0  0  0  0  0  0  0  0  0  0
   11.3320  -16.5642   23.4897 C   0  0  0  0  0  0  0  0  0  0  0  0
   12.6972  -16.0282   23.2285 C   0  0  0  0  0  0  0  0  0  0  0  0
   13.0440  -15.8671   22.0347 O   0  0  0  0  0  0  0  0  0  0  0  0
   13.5690  -15.7120   24.2325 O   0  0  0  0  0  0  0  0  0  0  0  0
  2  1  1  1
  2 10  1  0
  3  2  1  0
  4  3  1  0
  5  4  2  0
  6  5  1  0
  7  6  2  0
  7  8  1  0
  8  9  2  0
  9  4  1  0
 10 11  2  0
 10 12  1  0
 12 13  1  0
 13 17  1  0
 14 15  1  0
 13 14  1  6
 15 16  2  0
 17 18  2  0
 17 20  1  0
 19 15  1  0
 20 21  1  0
 21 22  1  0
 22 24  1  0
 23 22  2  0
M  END
$$$$
