FDG.pdb
     RDKit          3D

 24 24  0  0  1  0  0  0  0  0999 V2000
    7.2776  -15.9440   26.0593 N   0  0  0  0  0  0  0  0  0  0  0  0
    6.9122  -16.0465   24.6604 C   0  0  1  0  0  0  0  0  0  0  0  0
    6.5574  -14.6433   24.2083 C   0  0  0  0  0  0  0  0  0  0  0  0
    7.0147  -13.6986   25.2769 C   0  0  0  0  0  0  0  0  0  0  0  0
    6.2288  -13.4432   26.3778 C   0  0  0  0  0  0  0  0  0  0  0  0
    6.6299  -12.5787   27.3686 C   0  0  0  0  0  0  0  0  0  0  0  0
    7.8514  -11.9479   27.2610 C   0  0  0  0  0  0  0  0  0  0  0  0
    8.6550  -12.1764   26.1857 C   0  0  0  0  0  0  0  0  0  0  0  0
    8.2363  -13.0471   25.2019 C   0  0  0  0  0  0  0  0  0  0  0  0
    8.0618  -16.5860   23.8951 C   0  0  0  0  0  0  0  0  0  0  0  0
    8.5351  -17.6893   24.2312 O   0  0  0  0  0  0  0  0  0  0  0  0
    8.5877  -15.8471   22.8169 N   0  0  0  0  0  0  0  0  0  0  0  0
    9.6674  -16.2143   21.9382 C   0  0  1  0  0  0  0  0  0  0  0  0
    9.4106  -15.7656   20.5320 C   0  0  0  0  0  0  0  0  0  0  0  0
    8.3329  -16.4965   19.8653 C   0  0  0  0  0  0  0  0  0  0  0  0
    8.1716  -17.7200   20.0694 O   0  0  0  0  0  0  0  0  0  0  0  0
   11.0206  -16.0315   22.4451 C   0  0  0  0  0  0  0  0  0  0  0  0
   12.0257  -16.3551   21.7843 O   0  0  0  0  0  0  0  0  0  0  0  0
    7.4729  -15.8515   18.9949 O   0  0  0  0  0  0  0  0  0  0  0  0
   11.2400  -15.4667   23.7364 N   0  0  0  0  0  0  0  0  0  0  0  0
   12.5610  -15.1714   24.2420 C   0  0  0  0  0  0  0  0  0  0  0  0
   13.1712  -16.3534   24.9128 C   0  0  0  0  0  0  0  0  0  0  0  0
   12.5513  -17.4416   24.8584 O   0  0  0  0  0  0  0  0  0  0  0  0
   14.3652  -16.2898   25.5748 O   0  0  0  0  0  0  0  0  0  0  0  0
  2  1  1  1
  2 10  1  0
  3  2  1  0
  4  3  1  0
  5  4  2  0
  6  5  1  0
  7  6  2  0
  7  8  1  0
  8  9  2  0
  9  4  1  0
 10 11  2  0
 10 12  1  0
 12 13  1  0
 13 17  1  0
 14 15  1  0
 13 14  1  6
 15 16  2  0
 17 18  2  0
 17 20  1  0
 19 15  1  0
 20 21  1  0
 21 22  1  0
 22 24  1  0
 23 22  2  0
M  END
$$$$
