FDG.pdb
     RDKit          3D

 24 24  0  0  1  0  0  0  0  0999 V2000
    6.4472  -16.9843   25.7275 N   0  0  0  0  0  0  0  0  0  0  0  0
    7.2045  -15.9563   25.0414 C   0  0  1  0  0  0  0  0  0  0  0  0
    7.9517  -15.1889   26.1148 C   0  0  0  0  0  0  0  0  0  0  0  0
    7.3155  -13.8373   26.2251 C   0  0  0  0  0  0  0  0  0  0  0  0
    6.2833  -13.6121   27.1076 C   0  0  0  0  0  0  0  0  0  0  0  0
    5.6854  -12.3796   27.2227 C   0  0  0  0  0  0  0  0  0  0  0  0
    6.1280  -11.3378   26.4351 C   0  0  0  0  0  0  0  0  0  0  0  0
    7.1468  -11.5242   25.5509 C   0  0  0  0  0  0  0  0  0  0  0  0
    7.7347  -12.7674   25.4494 C   0  0  0  0  0  0  0  0  0  0  0  0
    8.1396  -16.5965   24.0853 C   0  0  0  0  0  0  0  0  0  0  0  0
    8.5907  -17.7257   24.3602 O   0  0  0  0  0  0  0  0  0  0  0  0
    8.4933  -15.9210   22.9005 N   0  0  0  0  0  0  0  0  0  0  0  0
    9.3709  -16.3754   21.8537 C   0  0  1  0  0  0  0  0  0  0  0  0
    8.8145  -16.0698   20.4965 C   0  0  0  0  0  0  0  0  0  0  0  0
    7.6391  -16.8671   20.1458 C   0  0  0  0  0  0  0  0  0  0  0  0
    7.5156  -18.0389   20.5656 O   0  0  0  0  0  0  0  0  0  0  0  0
   10.7965  -16.1438   22.0422 C   0  0  0  0  0  0  0  0  0  0  0  0
   11.6415  -16.4818   21.1917 O   0  0  0  0  0  0  0  0  0  0  0  0
    6.6426  -16.3433   19.3421 O   0  0  0  0  0  0  0  0  0  0  0  0
   11.2770  -15.5123   23.2275 N   0  0  0  0  0  0  0  0  0  0  0  0
   12.6759  -15.2201   23.4408 C   0  0  0  0  0  0  0  0  0  0  0  0
   13.4125  -16.4044   23.9647 C   0  0  0  0  0  0  0  0  0  0  0  0
   12.7781  -17.4779   24.0936 O   0  0  0  0  0  0  0  0  0  0  0  0
   14.7356  -16.3581   24.3038 O   0  0  0  0  0  0  0  0  0  0  0  0
  2  1  1  1
  2 10  1  0
  3  2  1  0
  4  3  1  0
  5  4  2  0
  6  5  1  0
  7  6  2  0
  7  8  1  0
  8  9  2  0
  9  4  1  0
 10 11  2  0
 10 12  1  0
 12 13  1  0
 13 17  1  0
 14 15  1  0
 13 14  1  6
 15 16  2  0
 17 18  2  0
 17 20  1  0
 19 15  1  0
 20 21  1  0
 21 22  1  0
 22 24  1  0
 23 22  2  0
M  END
$$$$
