FDG.pdb
     RDKit          3D

 24 24  0  0  1  0  0  0  0  0999 V2000
    5.7617  -17.3260   23.7015 N   0  0  0  0  0  0  0  0  0  0  0  0
    6.6793  -16.3121   24.1822 C   0  0  1  0  0  0  0  0  0  0  0  0
    6.2425  -15.9770   25.5951 C   0  0  0  0  0  0  0  0  0  0  0  0
    6.6188  -14.5506   25.8546 C   0  0  0  0  0  0  0  0  0  0  0  0
    7.7904  -14.2361   26.5054 C   0  0  0  0  0  0  0  0  0  0  0  0
    8.1529  -12.9336   26.7542 C   0  0  0  0  0  0  0  0  0  0  0  0
    7.3240  -11.9112   26.3428 C   0  0  0  0  0  0  0  0  0  0  0  0
    6.1572  -12.1851   25.6964 C   0  0  0  0  0  0  0  0  0  0  0  0
    5.8101  -13.4976   25.4552 C   0  0  0  0  0  0  0  0  0  0  0  0
    8.0594  -16.8533   24.1577 C   0  0  0  0  0  0  0  0  0  0  0  0
    8.2232  -18.0740   24.3507 O   0  0  0  0  0  0  0  0  0  0  0  0
    9.1428  -15.9847   23.9193 N   0  0  0  0  0  0  0  0  0  0  0  0
   10.5364  -16.3246   23.7966 C   0  0  1  0  0  0  0  0  0  0  0  0
   11.2695  -15.3424   22.9348 C   0  0  0  0  0  0  0  0  0  0  0  0
   11.4568  -15.7906   21.5549 C   0  0  0  0  0  0  0  0  0  0  0  0
   11.8487  -14.9939   20.6738 O   0  0  0  0  0  0  0  0  0  0  0  0
   11.2160  -16.7659   25.0070 C   0  0  0  0  0  0  0  0  0  0  0  0
   12.3114  -17.3581   24.9741 O   0  0  0  0  0  0  0  0  0  0  0  0
   11.2026  -17.1020   21.1959 O   0  0  0  0  0  0  0  0  0  0  0  0
   10.6377  -16.5297   26.2893 N   0  0  0  0  0  0  0  0  0  0  0  0
   10.2493  -17.6017   27.1768 C   0  0  0  0  0  0  0  0  0  0  0  0
   11.4056  -18.1084   27.9678 C   0  0  0  0  0  0  0  0  0  0  0  0
   12.0492  -19.0801   27.5062 O   0  0  0  0  0  0  0  0  0  0  0  0
   11.7803  -17.5568   29.1607 O   0  0  0  0  0  0  0  0  0  0  0  0
  2  1  1  1
  2 10  1  0
  3  2  1  0
  4  3  1  0
  5  4  2  0
  6  5  1  0
  7  6  2  0
  7  8  1  0
  8  9  2  0
  9  4  1  0
 10 11  2  0
 10 12  1  0
 12 13  1  0
 13 17  1  0
 14 15  1  0
 13 14  1  1
 15 16  2  0
 17 18  2  0
 17 20  1  0
 19 15  1  0
 20 21  1  0
 21 22  1  0
 22 24  1  0
 23 22  2  0
M  END
$$$$
