FDG.pdb
     RDKit          3D

 24 24  0  0  1  0  0  0  0  0999 V2000
    6.1635  -16.1539   23.6196 N   0  0  0  0  0  0  0  0  0  0  0  0
    7.3434  -15.5951   24.2496 C   0  0  1  0  0  0  0  0  0  0  0  0
    7.0229  -15.4780   25.7271 C   0  0  0  0  0  0  0  0  0  0  0  0
    6.9529  -14.0185   26.0566 C   0  0  0  0  0  0  0  0  0  0  0  0
    5.7650  -13.3292   25.9632 C   0  0  0  0  0  0  0  0  0  0  0  0
    5.6803  -11.9896   26.2598 C   0  0  0  0  0  0  0  0  0  0  0  0
    6.8130  -11.3137   26.6619 C   0  0  0  0  0  0  0  0  0  0  0  0
    8.0054  -11.9634   26.7652 C   0  0  0  0  0  0  0  0  0  0  0  0
    8.0712  -13.3073   26.4639 C   0  0  0  0  0  0  0  0  0  0  0  0
    8.4945  -16.5000   24.0168 C   0  0  0  0  0  0  0  0  0  0  0  0
    8.4165  -17.6775   24.4188 O   0  0  0  0  0  0  0  0  0  0  0  0
    9.6384  -16.0135   23.3534 N   0  0  0  0  0  0  0  0  0  0  0  0
   10.9199  -16.6553   23.2175 C   0  0  1  0  0  0  0  0  0  0  0  0
   11.7867  -15.9496   22.2197 C   0  0  0  0  0  0  0  0  0  0  0  0
   13.0327  -16.6535   21.9160 C   0  0  0  0  0  0  0  0  0  0  0  0
   13.9509  -16.0814   21.2882 O   0  0  0  0  0  0  0  0  0  0  0  0
   11.5665  -17.1018   24.4439 C   0  0  0  0  0  0  0  0  0  0  0  0
   12.1348  -16.3104   25.2201 O   0  0  0  0  0  0  0  0  0  0  0  0
   13.2199  -17.9649   22.3139 O   0  0  0  0  0  0  0  0  0  0  0  0
   11.5692  -18.4831   24.7996 N   0  0  0  0  0  0  0  0  0  0  0  0
   11.8741  -18.9417   26.1355 C   0  0  0  0  0  0  0  0  0  0  0  0
   13.3433  -19.0083   26.3733 C   0  0  0  0  0  0  0  0  0  0  0  0
   14.1025  -18.6063   25.4604 O   0  0  0  0  0  0  0  0  0  0  0  0
   13.8804  -19.4860   27.5356 O   0  0  0  0  0  0  0  0  0  0  0  0
  2  1  1  6
  2 10  1  0
  3  2  1  0
  4  3  1  0
  5  4  2  0
  6  5  1  0
  7  6  2  0
  7  8  1  0
  8  9  2  0
  9  4  1  0
 10 11  2  0
 10 12  1  0
 12 13  1  0
 13 17  1  0
 14 15  1  0
 13 14  1  1
 15 16  2  0
 17 18  2  0
 17 20  1  0
 19 15  1  0
 20 21  1  0
 21 22  1  0
 22 24  1  0
 23 22  2  0
M  END
$$$$
