CNL.pdb
     RDKit          3D

 23 22  0  0  1  0  0  0  0  0999 V2000
   26.3764  -18.0852  -16.9016 N   0  0  0  0  0  0  0  0  0  0  0  0
   27.0640  -18.4680  -15.6968 C   0  0  1  0  0  0  0  0  0  0  0  0
   27.8825  -17.2453  -15.2604 C   0  0  0  0  0  0  0  0  0  0  0  0
   29.4489  -17.3282  -16.1699 S   0  0  0  0  0  0  0  0  0  0  0  0
   26.1031  -18.7269  -14.5980 C   0  0  0  0  0  0  0  0  0  0  0  0
   25.3065  -17.8280  -14.2075 O   0  0  0  0  0  0  0  0  0  0  0  0
   22.8531  -21.1110  -11.4228 N   0  0  0  0  0  0  0  0  0  0  0  0
   23.1376  -21.8308  -12.6072 C   0  0  0  0  0  0  0  0  0  0  0  0
   22.3885  -22.8302  -12.8792 O   0  0  0  0  0  0  0  0  0  0  0  0
   24.2446  -21.4655  -13.5043 C   0  0  0  0  0  0  0  0  0  0  0  0
   25.1236  -20.4013  -12.9682 C   0  0  2  0  0  0  0  0  0  0  0  0
   26.1022  -20.0089  -13.9982 N   0  0  0  0  0  0  0  0  0  0  0  0
   25.7968  -20.7598  -11.7297 C   0  0  0  0  0  0  0  0  0  0  0  0
   26.7157  -21.6516  -11.7553 O   0  0  0  0  0  0  0  0  0  0  0  0
   28.5873  -20.9564   -7.3084 C   0  0  0  0  0  0  0  0  0  0  0  0
   27.4289  -20.0209   -7.2514 C   0  0  1  0  0  0  0  0  0  0  0  0
   27.8806  -18.7151   -6.6200 C   0  0  0  0  0  0  0  0  0  0  0  0
   26.8577  -19.6779   -8.5944 C   0  0  0  0  0  0  0  0  0  0  0  0
   26.0709  -20.7923   -9.2379 C   0  0  2  0  0  0  0  0  0  0  0  0
   25.5300  -20.2060  -10.4814 N   0  0  0  0  0  0  0  0  0  0  0  0
   24.9386  -21.2715   -8.4485 C   0  0  0  0  0  0  0  0  0  0  0  0
   23.7981  -20.7866   -8.5457 O   0  0  0  0  0  0  0  0  0  0  0  0
   25.0907  -22.3212   -7.5276 O   0  0  0  0  0  0  0  0  0  0  0  0
  2  1  1  6
  2  3  1  0
  2  5  1  0
  4  3  1  0
  5  6  2  0
  7  8  1  0
  8  9  2  0
  8 10  1  0
 11 10  1  6
 11 13  1  0
 12  5  1  0
 12 11  1  0
 13 20  1  0
 13 14  2  0
 16 17  1  6
 16 15  1  0
 18 16  1  0
 19 18  1  1
 19 21  1  0
 20 19  1  0
 21 23  1  0
 22 21  2  0
M  END
$$$$
