CNL.pdb
     RDKit          3D

 23 22  0  0  1  0  0  0  0  0999 V2000
   26.5771  -17.1719  -18.0269 N   0  0  0  0  0  0  0  0  0  0  0  0
   26.6970  -17.8962  -16.7893 C   0  0  1  0  0  0  0  0  0  0  0  0
   26.5015  -16.8676  -15.6671 C   0  0  0  0  0  0  0  0  0  0  0  0
   28.0529  -15.9361  -15.5522 S   0  0  0  0  0  0  0  0  0  0  0  0
   25.5941  -18.8753  -16.6396 C   0  0  0  0  0  0  0  0  0  0  0  0
   24.3887  -18.4984  -16.6306 O   0  0  0  0  0  0  0  0  0  0  0  0
   26.4764  -24.4490  -15.8835 N   0  0  0  0  0  0  0  0  0  0  0  0
   26.5439  -23.1565  -16.4550 C   0  0  0  0  0  0  0  0  0  0  0  0
   27.6655  -22.5465  -16.3924 O   0  0  0  0  0  0  0  0  0  0  0  0
   25.3855  -22.5185  -17.0989 C   0  0  0  0  0  0  0  0  0  0  0  0
   24.9075  -21.3026  -16.4021 C   0  0  2  0  0  0  0  0  0  0  0  0
   25.9281  -20.2443  -16.5070 N   0  0  0  0  0  0  0  0  0  0  0  0
   24.5386  -21.5249  -15.0128 C   0  0  0  0  0  0  0  0  0  0  0  0
   25.4596  -21.7513  -14.1519 O   0  0  0  0  0  0  0  0  0  0  0  0
   26.0545  -20.0060  -11.3627 C   0  0  0  0  0  0  0  0  0  0  0  0
   25.2147  -21.0191  -12.0617 C   0  0  1  0  0  0  0  0  0  0  0  0
   24.9895  -22.1989  -11.1316 C   0  0  0  0  0  0  0  0  0  0  0  0
   23.8596  -20.5160  -12.4592 C   0  0  0  0  0  0  0  0  0  0  0  0
   22.9606  -21.5646  -13.0651 C   0  0  2  0  0  0  0  0  0  0  0  0
   23.2394  -21.5118  -14.5149 N   0  0  0  0  0  0  0  0  0  0  0  0
   21.5317  -21.3196  -12.8824 C   0  0  0  0  0  0  0  0  0  0  0  0
   20.8603  -20.6363  -13.6747 O   0  0  0  0  0  0  0  0  0  0  0  0
   20.8401  -21.8551  -11.7835 O   0  0  0  0  0  0  0  0  0  0  0  0
  2  1  1  6
  2  3  1  0
  2  5  1  0
  4  3  1  0
  5  6  2  0
  7  8  1  0
  8  9  2  0
  8 10  1  0
 11 10  1  1
 11 13  1  0
 12  5  1  0
 12 11  1  0
 13 20  1  0
 13 14  2  0
 16 17  1  1
 16 15  1  0
 18 16  1  0
 19 18  1  1
 19 21  1  0
 20 19  1  0
 21 23  1  0
 22 21  2  0
M  END
$$$$
