CNL.pdb
     RDKit          3D

 23 22  0  0  1  0  0  0  0  0999 V2000
   28.4442  -19.8360  -16.9803 N   0  0  0  0  0  0  0  0  0  0  0  0
   28.0719  -19.0739  -15.8178 C   0  0  1  0  0  0  0  0  0  0  0  0
   27.3487  -17.8231  -16.3357 C   0  0  0  0  0  0  0  0  0  0  0  0
   28.6422  -16.6328  -16.7804 S   0  0  0  0  0  0  0  0  0  0  0  0
   27.0779  -19.8081  -14.9991 C   0  0  0  0  0  0  0  0  0  0  0  0
   26.2381  -20.5823  -15.5382 O   0  0  0  0  0  0  0  0  0  0  0  0
   24.7824  -21.7716  -10.7010 N   0  0  0  0  0  0  0  0  0  0  0  0
   25.7967  -20.8644  -10.3138 C   0  0  0  0  0  0  0  0  0  0  0  0
   26.0425  -20.7597   -9.0638 O   0  0  0  0  0  0  0  0  0  0  0  0
   26.5505  -20.0623  -11.2895 C   0  0  0  0  0  0  0  0  0  0  0  0
   26.1413  -20.2885  -12.6944 C   0  0  2  0  0  0  0  0  0  0  0  0
   27.0950  -19.6184  -13.5966 N   0  0  0  0  0  0  0  0  0  0  0  0
   24.7785  -19.8728  -12.9866 C   0  0  0  0  0  0  0  0  0  0  0  0
   24.5729  -18.7032  -13.4665 O   0  0  0  0  0  0  0  0  0  0  0  0
   20.8898  -18.5883  -15.5176 C   0  0  0  0  0  0  0  0  0  0  0  0
   21.3044  -20.0129  -15.6557 C   0  0  1  0  0  0  0  0  0  0  0  0
   21.6389  -20.2897  -17.1115 C   0  0  0  0  0  0  0  0  0  0  0  0
   22.5203  -20.3726  -14.8559 C   0  0  0  0  0  0  0  0  0  0  0  0
   22.3327  -20.2756  -13.3625 C   0  0  2  0  0  0  0  0  0  0  0  0
   23.6419  -20.6511  -12.7903 N   0  0  0  0  0  0  0  0  0  0  0  0
   21.3341  -21.1907  -12.8145 C   0  0  0  0  0  0  0  0  0  0  0  0
   21.5661  -22.3947  -12.6099 O   0  0  0  0  0  0  0  0  0  0  0  0
   20.0434  -20.7427  -12.4880 O   0  0  0  0  0  0  0  0  0  0  0  0
  2  1  1  6
  2  3  1  0
  2  5  1  0
  4  3  1  0
  5  6  2  0
  7  8  1  0
  8  9  2  0
  8 10  1  0
 11 10  1  1
 11 13  1  0
 12  5  1  0
 12 11  1  0
 13 20  1  0
 13 14  2  0
 16 17  1  6
 16 15  1  0
 18 16  1  0
 19 18  1  6
 19 21  1  0
 20 19  1  0
 21 23  1  0
 22 21  2  0
M  END
$$$$
