CNL.pdb
     RDKit          3D

 23 22  0  0  1  0  0  0  0  0999 V2000
   25.4648  -13.5081  -16.3536 N   0  0  0  0  0  0  0  0  0  0  0  0
   25.8981  -12.2740  -15.7536 C   0  0  1  0  0  0  0  0  0  0  0  0
   27.3576  -12.0743  -16.1843 C   0  0  0  0  0  0  0  0  0  0  0  0
   27.9612  -10.6203  -15.2846 S   0  0  0  0  0  0  0  0  0  0  0  0
   25.1489  -11.1225  -16.3106 C   0  0  0  0  0  0  0  0  0  0  0  0
   24.9539  -11.0155  -17.5538 O   0  0  0  0  0  0  0  0  0  0  0  0
   21.4739   -9.5648  -13.1533 N   0  0  0  0  0  0  0  0  0  0  0  0
   21.8865   -9.2471  -14.4689 C   0  0  0  0  0  0  0  0  0  0  0  0
   21.1708   -9.6914  -15.4303 O   0  0  0  0  0  0  0  0  0  0  0  0
   23.0861   -8.4421  -14.7454 C   0  0  0  0  0  0  0  0  0  0  0  0
   23.9094   -8.9586  -15.8625 C   0  0  2  0  0  0  0  0  0  0  0  0
   24.6577  -10.1458  -15.4117 N   0  0  0  0  0  0  0  0  0  0  0  0
   24.8096   -7.9717  -16.4379 C   0  0  0  0  0  0  0  0  0  0  0  0
   25.9256   -7.7320  -15.8566 O   0  0  0  0  0  0  0  0  0  0  0  0
   28.7345   -6.1809  -18.8206 C   0  0  0  0  0  0  0  0  0  0  0  0
   27.6833   -6.8400  -19.6458 C   0  0  1  0  0  0  0  0  0  0  0  0
   28.3158   -7.9723  -20.4369 C   0  0  0  0  0  0  0  0  0  0  0  0
   26.5689   -7.4418  -18.8436 C   0  0  0  0  0  0  0  0  0  0  0  0
   25.6201   -6.4340  -18.2445 C   0  0  2  0  0  0  0  0  0  0  0  0
   24.5664   -7.2425  -17.5977 N   0  0  0  0  0  0  0  0  0  0  0  0
   24.9690   -5.5591  -19.2170 C   0  0  0  0  0  0  0  0  0  0  0  0
   23.9209   -5.8728  -19.8073 O   0  0  0  0  0  0  0  0  0  0  0  0
   25.5078   -4.3013  -19.5340 O   0  0  0  0  0  0  0  0  0  0  0  0
  2  1  1  6
  2  3  1  0
  2  5  1  0
  4  3  1  0
  5  6  2  0
  7  8  1  0
  8  9  2  0
  8 10  1  0
 11 10  1  1
 11 13  1  0
 12  5  1  0
 12 11  1  0
 13 20  1  0
 13 14  2  0
 16 17  1  1
 16 15  1  0
 18 16  1  0
 19 18  1  6
 19 21  1  0
 20 19  1  0
 21 23  1  0
 22 21  2  0
M  END
$$$$
