CNL.pdb
     RDKit          3D

 23 22  0  0  1  0  0  0  0  0999 V2000
   18.2420  -11.5710  -16.0835 N   0  0  0  0  0  0  0  0  0  0  0  0
   19.3331  -10.7203  -16.4790 C   0  0  1  0  0  0  0  0  0  0  0  0
   19.0793  -10.3476  -17.9461 C   0  0  0  0  0  0  0  0  0  0  0  0
   17.4370   -9.5810  -18.0015 S   0  0  0  0  0  0  0  0  0  0  0  0
   19.3096   -9.4439  -15.7256 C   0  0  0  0  0  0  0  0  0  0  0  0
   18.2395   -9.0142  -15.2104 O   0  0  0  0  0  0  0  0  0  0  0  0
   22.7893   -5.0620  -13.5978 N   0  0  0  0  0  0  0  0  0  0  0  0
   21.8879   -6.1072  -13.2866 C   0  0  0  0  0  0  0  0  0  0  0  0
   21.1417   -5.9508  -12.2606 O   0  0  0  0  0  0  0  0  0  0  0  0
   21.7952   -7.3337  -14.0933 C   0  0  0  0  0  0  0  0  0  0  0  0
   20.5872   -7.3992  -14.9470 C   0  0  2  0  0  0  0  0  0  0  0  0
   20.5188   -8.7192  -15.5991 N   0  0  0  0  0  0  0  0  0  0  0  0
   20.5030   -6.3337  -15.9335 C   0  0  0  0  0  0  0  0  0  0  0  0
   21.1793   -6.4323  -17.0168 O   0  0  0  0  0  0  0  0  0  0  0  0
   18.1834   -3.0743  -19.3285 C   0  0  0  0  0  0  0  0  0  0  0  0
   18.0860   -2.5637  -17.9320 C   0  0  1  0  0  0  0  0  0  0  0  0
   16.6838   -2.0273  -17.7001 C   0  0  0  0  0  0  0  0  0  0  0  0
   18.3291   -3.6081  -16.8843 C   0  0  0  0  0  0  0  0  0  0  0  0
   19.7472   -4.1193  -16.8338 C   0  0  2  0  0  0  0  0  0  0  0  0
   19.7310   -5.1827  -15.8086 N   0  0  0  0  0  0  0  0  0  0  0  0
   20.7370   -3.1263  -16.4224 C   0  0  0  0  0  0  0  0  0  0  0  0
   20.9120   -2.8037  -15.2347 O   0  0  0  0  0  0  0  0  0  0  0  0
   21.5504   -2.4801  -17.3678 O   0  0  0  0  0  0  0  0  0  0  0  0
  2  1  1  1
  2  3  1  0
  2  5  1  0
  4  3  1  0
  5  6  2  0
  7  8  1  0
  8  9  2  0
  8 10  1  0
 11 10  1  6
 11 13  1  0
 12  5  1  0
 12 11  1  0
 13 20  1  0
 13 14  2  0
 16 17  1  1
 16 15  1  0
 18 16  1  0
 19 18  1  1
 19 21  1  0
 20 19  1  0
 21 23  1  0
 22 21  2  0
M  END
$$$$
