SML.pdb
     RDKit          3D

 23 22  0  0  1  0  0  0  0  0999 V2000
   20.0941  -17.3224  -16.6400 O   0  0  0  0  0  0  0  0  0  0  0  0
   21.1193  -18.1517  -17.1033 C   0  0  0  0  0  0  0  0  0  0  0  0
   22.1391  -18.3905  -16.0242 C   0  0  2  0  0  0  0  0  0  0  0  0
   21.4939  -19.0210  -14.8904 N   0  0  0  0  0  0  0  0  0  0  0  0
   22.8411  -17.1899  -15.5834 C   0  0  0  0  0  0  0  0  0  0  0  0
   22.2374  -16.3407  -14.8774 O   0  0  0  0  0  0  0  0  0  0  0  0
   26.4880  -19.6431  -15.3534 C   0  0  0  0  0  0  0  0  0  0  0  0
   27.5904  -18.1953  -15.1985 S   0  0  0  0  0  0  0  0  0  0  0  0
   26.7160  -16.8435  -14.3202 C   0  0  0  0  0  0  0  0  0  0  0  0
   26.3302  -15.7954  -15.3252 C   0  0  0  0  0  0  0  0  0  0  0  0
   24.8623  -15.6539  -15.5278 C   0  0  2  0  0  0  0  0  0  0  0  0
   24.1943  -16.8836  -15.8914 N   0  0  0  0  0  0  0  0  0  0  0  0
   24.5003  -14.5322  -16.4291 C   0  0  0  0  0  0  0  0  0  0  0  0
   24.9586  -13.3607  -16.2710 O   0  0  0  0  0  0  0  0  0  0  0  0
   22.3151  -14.1647  -22.1708 C   0  0  0  0  0  0  0  0  0  0  0  0
   22.7171  -13.4644  -20.9342 C   0  0  2  0  0  0  0  0  0  0  0  0
   23.9371  -12.5710  -21.2811 C   0  0  0  0  0  0  0  0  0  0  0  0
   23.0982  -14.2301  -19.7448 C   0  0  0  0  0  0  0  0  0  0  0  0
   23.2116  -13.5924  -18.4122 C   0  0  2  0  0  0  0  0  0  0  0  0
   23.6145  -14.7325  -17.5173 N   0  0  0  0  0  0  0  0  0  0  0  0
   21.9444  -13.1028  -17.8941 C   0  0  0  0  0  0  0  0  0  0  0  0
   21.5047  -11.7870  -17.8541 O   0  0  0  0  0  0  0  0  0  0  0  0
   21.1148  -13.9446  -17.4061 O   0  0  0  0  0  0  0  0  0  0  0  0
  1  2  1  0
  3  2  1  0
  3  5  1  0
  3  4  1  1
  5 12  1  0
  6  5  2  0
  8  9  1  0
  8  7  1  0
 10  9  1  0
 11 10  1  6
 11 13  1  0
 12 11  1  0
 13 14  2  0
 16 18  1  0
 16 15  1  6
 17 16  1  0
 19 18  1  6
 20 13  1  0
 20 19  1  0
 21 22  1  0
 21 19  1  0
 23 21  2  0
M  END
$$$$
