SML.pdb
     RDKit          3D

 23 22  0  0  1  0  0  0  0  0999 V2000
   26.2372  -18.8648  -15.9013 O   0  0  0  0  0  0  0  0  0  0  0  0
   27.1393  -19.8222  -16.3733 C   0  0  0  0  0  0  0  0  0  0  0  0
   27.9686  -20.3732  -15.2463 C   0  0  2  0  0  0  0  0  0  0  0  0
   28.8661  -21.3850  -15.7660 N   0  0  0  0  0  0  0  0  0  0  0  0
   27.1917  -20.9274  -14.1428 C   0  0  0  0  0  0  0  0  0  0  0  0
   26.8105  -22.1259  -14.1911 O   0  0  0  0  0  0  0  0  0  0  0  0
   27.2298  -21.0352   -7.2349 C   0  0  0  0  0  0  0  0  0  0  0  0
   25.8373  -20.0609   -7.9036 S   0  0  0  0  0  0  0  0  0  0  0  0
   25.3154  -20.7562   -9.5184 C   0  0  0  0  0  0  0  0  0  0  0  0
   26.2231  -20.2129  -10.5853 C   0  0  0  0  0  0  0  0  0  0  0  0
   25.9198  -20.7079  -11.9560 C   0  0  2  0  0  0  0  0  0  0  0  0
   26.8139  -20.2083  -12.9766 N   0  0  0  0  0  0  0  0  0  0  0  0
   24.4937  -20.5494  -12.3343 C   0  0  0  0  0  0  0  0  0  0  0  0
   23.9996  -19.4283  -12.6605 O   0  0  0  0  0  0  0  0  0  0  0  0
   22.7936  -23.0444  -15.5029 C   0  0  0  0  0  0  0  0  0  0  0  0
   21.6680  -23.2616  -14.5716 C   0  0  2  0  0  0  0  0  0  0  0  0
   20.4520  -22.4684  -15.1184 C   0  0  0  0  0  0  0  0  0  0  0  0
   21.7968  -22.8881  -13.1609 C   0  0  0  0  0  0  0  0  0  0  0  0
   22.1766  -21.5159  -12.7509 C   0  0  2  0  0  0  0  0  0  0  0  0
   23.6176  -21.6635  -12.3449 N   0  0  0  0  0  0  0  0  0  0  0  0
   21.4715  -21.0480  -11.5685 C   0  0  0  0  0  0  0  0  0  0  0  0
   20.3421  -20.2425  -11.5271 O   0  0  0  0  0  0  0  0  0  0  0  0
   21.9110  -21.3889  -10.4171 O   0  0  0  0  0  0  0  0  0  0  0  0
  1  2  1  0
  3  2  1  0
  3  5  1  0
  3  4  1  6
  5 12  1  0
  6  5  2  0
  8  9  1  0
  8  7  1  0
 10  9  1  0
 11 10  1  1
 11 13  1  0
 12 11  1  0
 13 14  2  0
 16 18  1  0
 16 15  1  6
 17 16  1  0
 19 18  1  1
 20 13  1  0
 20 19  1  0
 21 22  1  0
 21 19  1  0
 23 21  2  0
M  END
$$$$
