SML.pdb
     RDKit          3D

 23 22  0  0  1  0  0  0  0  0999 V2000
   17.3008   -8.9092  -18.3365 O   0  0  0  0  0  0  0  0  0  0  0  0
   16.6489   -9.7217  -17.4047 C   0  0  0  0  0  0  0  0  0  0  0  0
   17.6065  -10.7101  -16.7984 C   0  0  2  0  0  0  0  0  0  0  0  0
   16.8991  -11.5287  -15.8346 N   0  0  0  0  0  0  0  0  0  0  0  0
   18.7740  -10.1062  -16.1654 C   0  0  0  0  0  0  0  0  0  0  0  0
   18.6357   -9.4597  -15.0944 O   0  0  0  0  0  0  0  0  0  0  0  0
   26.4934  -10.4894  -14.6357 C   0  0  0  0  0  0  0  0  0  0  0  0
   25.1143  -10.9625  -15.7356 S   0  0  0  0  0  0  0  0  0  0  0  0
   23.6929   -9.8356  -15.4649 C   0  0  0  0  0  0  0  0  0  0  0  0
   22.5246  -10.3449  -16.2606 C   0  0  0  0  0  0  0  0  0  0  0  0
   21.2580   -9.5964  -16.0337 C   0  0  2  0  0  0  0  0  0  0  0  0
   20.1006  -10.1863  -16.6686 N   0  0  0  0  0  0  0  0  0  0  0  0
   21.3752   -8.1452  -16.3202 C   0  0  0  0  0  0  0  0  0  0  0  0
   21.2133   -7.6688  -17.4840 O   0  0  0  0  0  0  0  0  0  0  0  0
   20.2063   -2.8702  -15.2686 C   0  0  0  0  0  0  0  0  0  0  0  0
   19.9065   -4.0278  -16.1354 C   0  0  2  0  0  0  0  0  0  0  0  0
   18.3683   -4.0771  -16.3304 C   0  0  0  0  0  0  0  0  0  0  0  0
   20.3088   -5.3764  -15.7283 C   0  0  0  0  0  0  0  0  0  0  0  0
   21.7335   -5.7445  -15.5555 C   0  0  2  0  0  0  0  0  0  0  0  0
   21.6775   -7.2235  -15.2866 N   0  0  0  0  0  0  0  0  0  0  0  0
   22.3489   -5.1454  -14.3823 C   0  0  0  0  0  0  0  0  0  0  0  0
   22.9910   -3.9174  -14.3044 O   0  0  0  0  0  0  0  0  0  0  0  0
   22.3234   -5.7911  -13.2789 O   0  0  0  0  0  0  0  0  0  0  0  0
  1  2  1  0
  3  2  1  0
  3  5  1  0
  3  4  1  1
  5 12  1  0
  6  5  2  0
  8  9  1  0
  8  7  1  0
 10  9  1  0
 11 10  1  6
 11 13  1  0
 12 11  1  0
 13 14  2  0
 16 18  1  0
 16 15  1  1
 17 16  1  0
 19 18  1  1
 20 13  1  0
 20 19  1  0
 21 22  1  0
 21 19  1  0
 23 21  2  0
M  END
$$$$
