SML.pdb
     RDKit          3D

 23 22  0  0  1  0  0  0  0  0999 V2000
   26.6860  -18.7789  -15.5562 O   0  0  0  0  0  0  0  0  0  0  0  0
   27.7403  -18.8145  -14.6395 C   0  0  0  0  0  0  0  0  0  0  0  0
   28.0140  -20.2256  -14.1978 C   0  0  2  0  0  0  0  0  0  0  0  0
   28.3413  -21.0321  -15.3561 N   0  0  0  0  0  0  0  0  0  0  0  0
   26.9198  -20.8482  -13.4605 C   0  0  0  0  0  0  0  0  0  0  0  0
   26.1920  -21.7018  -14.0312 O   0  0  0  0  0  0  0  0  0  0  0  0
   26.9514  -19.1534   -7.2106 C   0  0  0  0  0  0  0  0  0  0  0  0
   26.1439  -20.7753   -7.4413 S   0  0  0  0  0  0  0  0  0  0  0  0
   26.3332  -21.3180   -9.1829 C   0  0  0  0  0  0  0  0  0  0  0  0
   25.2940  -20.6199  -10.0137 C   0  0  0  0  0  0  0  0  0  0  0  0
   25.3523  -20.9452  -11.4651 C   0  0  2  0  0  0  0  0  0  0  0  0
   26.5914  -20.5663  -12.1068 N   0  0  0  0  0  0  0  0  0  0  0  0
   24.1643  -20.4749  -12.2196 C   0  0  0  0  0  0  0  0  0  0  0  0
   24.0526  -19.2814  -12.6328 O   0  0  0  0  0  0  0  0  0  0  0  0
   22.5878  -20.5747  -16.3796 C   0  0  0  0  0  0  0  0  0  0  0  0
   22.5809  -21.7768  -15.5218 C   0  0  2  0  0  0  0  0  0  0  0  0
   22.1770  -22.9814  -16.4120 C   0  0  0  0  0  0  0  0  0  0  0  0
   21.7150  -21.8343  -14.3414 C   0  0  0  0  0  0  0  0  0  0  0  0
   21.8597  -20.8737  -13.2227 C   0  0  2  0  0  0  0  0  0  0  0  0
   23.0935  -21.3568  -12.5105 N   0  0  0  0  0  0  0  0  0  0  0  0
   20.7799  -20.9476  -12.2518 C   0  0  0  0  0  0  0  0  0  0  0  0
   20.8047  -21.5731  -11.0131 O   0  0  0  0  0  0  0  0  0  0  0  0
   19.6629  -20.3923  -12.5331 O   0  0  0  0  0  0  0  0  0  0  0  0
  1  2  1  0
  3  2  1  0
  3  5  1  0
  3  4  1  6
  5 12  1  0
  6  5  2  0
  8  9  1  0
  8  7  1  0
 10  9  1  0
 11 10  1  1
 11 13  1  0
 12 11  1  0
 13 14  2  0
 16 18  1  0
 16 15  1  6
 17 16  1  0
 19 18  1  6
 20 13  1  0
 20 19  1  0
 21 22  1  0
 21 19  1  0
 23 21  2  0
M  END
$$$$
