SML.pdb
     RDKit          3D

 23 22  0  0  1  0  0  0  0  0999 V2000
   24.8901  -24.3858  -17.1357 O   0  0  0  0  0  0  0  0  0  0  0  0
   25.8914  -24.2757  -18.1045 C   0  0  0  0  0  0  0  0  0  0  0  0
   27.2451  -24.1599  -17.4599 C   0  0  2  0  0  0  0  0  0  0  0  0
   27.6547  -25.4625  -16.9754 N   0  0  0  0  0  0  0  0  0  0  0  0
   27.3129  -23.1891  -16.3730 C   0  0  0  0  0  0  0  0  0  0  0  0
   27.7638  -23.5415  -15.2520 O   0  0  0  0  0  0  0  0  0  0  0  0
   25.6714  -16.6815  -16.7039 C   0  0  0  0  0  0  0  0  0  0  0  0
   27.0195  -16.7632  -15.4745 S   0  0  0  0  0  0  0  0  0  0  0  0
   27.0891  -18.4440  -14.7441 C   0  0  0  0  0  0  0  0  0  0  0  0
   26.9355  -19.4494  -15.8500 C   0  0  0  0  0  0  0  0  0  0  0  0
   26.9870  -20.8670  -15.3987 C   0  0  2  0  0  0  0  0  0  0  0  0
   26.9004  -21.8327  -16.4713 N   0  0  0  0  0  0  0  0  0  0  0  0
   26.0385  -21.1665  -14.2976 C   0  0  0  0  0  0  0  0  0  0  0  0
   24.8962  -21.6753  -14.5066 O   0  0  0  0  0  0  0  0  0  0  0  0
   24.2932  -20.1747   -9.0073 C   0  0  0  0  0  0  0  0  0  0  0  0
   25.5816  -20.8417   -9.2832 C   0  0  2  0  0  0  0  0  0  0  0  0
   26.6335  -20.2413   -8.3137 C   0  0  0  0  0  0  0  0  0  0  0  0
   26.1749  -20.7730  -10.6210 C   0  0  0  0  0  0  0  0  0  0  0  0
   25.4170  -21.1728  -11.8297 C   0  0  2  0  0  0  0  0  0  0  0  0
   26.3804  -20.8902  -12.9500 N   0  0  0  0  0  0  0  0  0  0  0  0
   24.2505  -20.3429  -12.0834 C   0  0  0  0  0  0  0  0  0  0  0  0
   22.9228  -20.6594  -11.8311 O   0  0  0  0  0  0  0  0  0  0  0  0
   24.4212  -19.1864  -12.6016 O   0  0  0  0  0  0  0  0  0  0  0  0
  1  2  1  0
  3  2  1  0
  3  5  1  0
  3  4  1  1
  5 12  1  0
  6  5  2  0
  8  9  1  0
  8  7  1  0
 10  9  1  0
 11 10  1  6
 11 13  1  0
 12 11  1  0
 13 14  2  0
 16 18  1  0
 16 15  1  6
 17 16  1  0
 19 18  1  1
 20 13  1  0
 20 19  1  0
 21 22  1  0
 21 19  1  0
 23 21  2  0
M  END
$$$$
