SML.pdb
     RDKit          3D

 23 22  0  0  1  0  0  0  0  0999 V2000
   25.2184  -22.1491  -12.8846 O   0  0  0  0  0  0  0  0  0  0  0  0
   25.5093  -21.8712  -11.5461 C   0  0  0  0  0  0  0  0  0  0  0  0
   25.7297  -20.3974  -11.3443 C   0  0  2  0  0  0  0  0  0  0  0  0
   26.2697  -19.8257  -12.5613 N   0  0  0  0  0  0  0  0  0  0  0  0
   26.5990  -20.0674  -10.2201 C   0  0  0  0  0  0  0  0  0  0  0  0
   27.8420  -19.9839  -10.3989 O   0  0  0  0  0  0  0  0  0  0  0  0
   29.4594  -17.7488   -4.1733 C   0  0  0  0  0  0  0  0  0  0  0  0
   27.7649  -17.6557   -4.8483 S   0  0  0  0  0  0  0  0  0  0  0  0
   27.1704  -19.3408   -5.2611 C   0  0  0  0  0  0  0  0  0  0  0  0
   26.3292  -19.2569   -6.5033 C   0  0  0  0  0  0  0  0  0  0  0  0
   27.0142  -19.7276   -7.7382 C   0  0  2  0  0  0  0  0  0  0  0  0
   26.1506  -19.8230   -8.8938 N   0  0  0  0  0  0  0  0  0  0  0  0
   27.8121  -20.9616   -7.5319 C   0  0  0  0  0  0  0  0  0  0  0  0
   27.2790  -22.1100   -7.4644 O   0  0  0  0  0  0  0  0  0  0  0  0
   31.0621  -23.1077   -9.8427 C   0  0  0  0  0  0  0  0  0  0  0  0
   31.4214  -21.9109   -9.0555 C   0  0  2  0  0  0  0  0  0  0  0  0
   32.9006  -21.5702   -9.3755 C   0  0  0  0  0  0  0  0  0  0  0  0
   31.3151  -21.9312   -7.5945 C   0  0  0  0  0  0  0  0  0  0  0  0
   30.0094  -22.0855   -6.9113 C   0  0  2  0  0  0  0  0  0  0  0  0
   29.2220  -20.9007   -7.4005 N   0  0  0  0  0  0  0  0  0  0  0  0
   30.0910  -21.9455   -5.4665 C   0  0  0  0  0  0  0  0  0  0  0  0
   30.4905  -22.9082   -4.5499 O   0  0  0  0  0  0  0  0  0  0  0  0
   29.7614  -20.8284   -4.9387 O   0  0  0  0  0  0  0  0  0  0  0  0
  1  2  1  0
  3  2  1  0
  3  5  1  0
  3  4  1  6
  5 12  1  0
  6  5  2  0
  8  9  1  0
  8  7  1  0
 10  9  1  0
 11 10  1  1
 11 13  1  0
 12 11  1  0
 13 14  2  0
 16 18  1  0
 16 15  1  1
 17 16  1  0
 19 18  1  6
 20 13  1  0
 20 19  1  0
 21 22  1  0
 21 19  1  0
 23 21  2  0
M  END
$$$$
