SML.pdb
     RDKit          3D

 23 22  0  0  1  0  0  0  0  0999 V2000
   12.5749  -12.5077  -12.2787 O   0  0  0  0  0  0  0  0  0  0  0  0
   13.3370  -11.4306  -11.8178 C   0  0  0  0  0  0  0  0  0  0  0  0
   14.7933  -11.7994  -11.7503 C   0  0  2  0  0  0  0  0  0  0  0  0
   14.9412  -13.0152  -10.9762 N   0  0  0  0  0  0  0  0  0  0  0  0
   15.6526  -10.7584  -11.1968 C   0  0  0  0  0  0  0  0  0  0  0  0
   15.6464  -10.5411   -9.9571 O   0  0  0  0  0  0  0  0  0  0  0  0
   21.6967   -5.6210  -12.1529 C   0  0  0  0  0  0  0  0  0  0  0  0
   20.7489   -7.0639  -12.7488 S   0  0  0  0  0  0  0  0  0  0  0  0
   19.2880   -7.3313  -11.6727 C   0  0  0  0  0  0  0  0  0  0  0  0
   18.5188   -8.5094  -12.1999 C   0  0  0  0  0  0  0  0  0  0  0  0
   17.2848   -8.8273  -11.4304 C   0  0  2  0  0  0  0  0  0  0  0  0
   16.5273   -9.9390  -11.9605 N   0  0  0  0  0  0  0  0  0  0  0  0
   16.4321   -7.6404  -11.1734 C   0  0  0  0  0  0  0  0  0  0  0  0
   15.6292   -7.1820  -12.0410 O   0  0  0  0  0  0  0  0  0  0  0  0
   12.8451   -5.0621   -8.3366 C   0  0  0  0  0  0  0  0  0  0  0  0
   13.8472   -6.0261   -7.8391 C   0  0  2  0  0  0  0  0  0  0  0  0
   13.8388   -5.9483   -6.2897 C   0  0  0  0  0  0  0  0  0  0  0  0
   15.2497   -5.9059   -8.2451 C   0  0  0  0  0  0  0  0  0  0  0  0
   15.6376   -5.7497   -9.6666 C   0  0  2  0  0  0  0  0  0  0  0  0
   16.4849   -6.9649   -9.9285 N   0  0  0  0  0  0  0  0  0  0  0  0
   16.4952   -4.6013   -9.9106 C   0  0  0  0  0  0  0  0  0  0  0  0
   16.1006   -3.3147  -10.2503 O   0  0  0  0  0  0  0  0  0  0  0  0
   17.7618   -4.7507   -9.8182 O   0  0  0  0  0  0  0  0  0  0  0  0
  1  2  1  0
  3  2  1  0
  3  5  1  0
  3  4  1  1
  5 12  1  0
  6  5  2  0
  8  9  1  0
  8  7  1  0
 10  9  1  0
 11 10  1  6
 11 13  1  0
 12 11  1  0
 13 14  2  0
 16 18  1  0
 16 15  1  6
 17 16  1  0
 19 18  1  1
 20 13  1  0
 20 19  1  0
 21 22  1  0
 21 19  1  0
 23 21  2  0
M  END
$$$$
