SML.pdb
     RDKit          3D

 23 22  0  0  1  0  0  0  0  0999 V2000
   26.0605  -20.1502  -17.3916 O   0  0  0  0  0  0  0  0  0  0  0  0
   27.1092  -20.2008  -16.4692 C   0  0  0  0  0  0  0  0  0  0  0  0
   27.1722  -21.5502  -15.8085 C   0  0  2  0  0  0  0  0  0  0  0  0
   26.9427  -22.5785  -16.8032 N   0  0  0  0  0  0  0  0  0  0  0  0
   26.2380  -21.7223  -14.7012 C   0  0  0  0  0  0  0  0  0  0  0  0
   25.2045  -22.4221  -14.8628 O   0  0  0  0  0  0  0  0  0  0  0  0
   23.5735  -21.7392   -7.8274 C   0  0  0  0  0  0  0  0  0  0  0  0
   24.9443  -21.6364   -9.0299 S   0  0  0  0  0  0  0  0  0  0  0  0
   24.6790  -20.2080  -10.1492 C   0  0  0  0  0  0  0  0  0  0  0  0
   25.7331  -20.2408  -11.2194 C   0  0  0  0  0  0  0  0  0  0  0  0
   25.3287  -20.9687  -12.4533 C   0  0  2  0  0  0  0  0  0  0  0  0
   26.3973  -21.1494  -13.4104 N   0  0  0  0  0  0  0  0  0  0  0  0
   24.1010  -20.4209  -13.0814 C   0  0  0  0  0  0  0  0  0  0  0  0
   24.1239  -19.4089  -13.8447 O   0  0  0  0  0  0  0  0  0  0  0  0
   20.4620  -21.5832  -17.0439 C   0  0  0  0  0  0  0  0  0  0  0  0
   20.6698  -20.6817  -15.8927 C   0  0  2  0  0  0  0  0  0  0  0  0
   21.0389  -19.2843  -16.4566 C   0  0  0  0  0  0  0  0  0  0  0  0
   21.6862  -20.9957  -14.8855 C   0  0  0  0  0  0  0  0  0  0  0  0
   21.5913  -20.4837  -13.4983 C   0  0  2  0  0  0  0  0  0  0  0  0
   22.8373  -21.0187  -12.8471 N   0  0  0  0  0  0  0  0  0  0  0  0
   20.4757  -21.0402  -12.7501 C   0  0  0  0  0  0  0  0  0  0  0  0
   19.2451  -20.4453  -12.5091 O   0  0  0  0  0  0  0  0  0  0  0  0
   20.6022  -22.2034  -12.2343 O   0  0  0  0  0  0  0  0  0  0  0  0
  1  2  1  0
  3  2  1  0
  3  5  1  0
  3  4  1  6
  5 12  1  0
  6  5  2  0
  8  9  1  0
  8  7  1  0
 10  9  1  0
 11 10  1  1
 11 13  1  0
 12 11  1  0
 13 14  2  0
 16 18  1  0
 16 15  1  6
 17 16  1  0
 19 18  1  6
 20 13  1  0
 20 19  1  0
 21 22  1  0
 21 19  1  0
 23 21  2  0
M  END
$$$$
