SML.pdb
     RDKit          3D

 23 22  0  0  1  0  0  0  0  0999 V2000
   13.7342  -10.8536  -14.5332 O   0  0  0  0  0  0  0  0  0  0  0  0
   13.8175  -10.3856  -15.8475 C   0  0  0  0  0  0  0  0  0  0  0  0
   14.7085  -11.2726  -16.6727 C   0  0  2  0  0  0  0  0  0  0  0  0
   14.6988  -12.6094  -16.1140 N   0  0  0  0  0  0  0  0  0  0  0  0
   16.0840  -10.8009  -16.7911 C   0  0  0  0  0  0  0  0  0  0  0  0
   17.0129  -11.4493  -16.2428 O   0  0  0  0  0  0  0  0  0  0  0  0
   15.2066   -8.7261  -21.0021 C   0  0  0  0  0  0  0  0  0  0  0  0
   16.9108   -8.1401  -21.2987 S   0  0  0  0  0  0  0  0  0  0  0  0
   18.0687   -9.0115  -20.1747 C   0  0  0  0  0  0  0  0  0  0  0  0
   18.0604   -8.3092  -18.8464 C   0  0  0  0  0  0  0  0  0  0  0  0
   17.8525   -9.2103  -17.6800 C   0  0  2  0  0  0  0  0  0  0  0  0
   16.4820   -9.6328  -17.4960 N   0  0  0  0  0  0  0  0  0  0  0  0
   18.4523   -8.6929  -16.4252 C   0  0  0  0  0  0  0  0  0  0  0  0
   17.7505   -8.1994  -15.4917 O   0  0  0  0  0  0  0  0  0  0  0  0
   23.6978   -9.8505  -13.4720 C   0  0  0  0  0  0  0  0  0  0  0  0
   22.5105   -8.9796  -13.5861 C   0  0  2  0  0  0  0  0  0  0  0  0
   21.7114   -9.1066  -12.2624 C   0  0  0  0  0  0  0  0  0  0  0  0
   21.5441   -9.1898  -14.6668 C   0  0  0  0  0  0  0  0  0  0  0  0
   20.4704   -8.2094  -14.9522 C   0  0  2  0  0  0  0  0  0  0  0  0
   19.8544   -8.7321  -16.2212 N   0  0  0  0  0  0  0  0  0  0  0  0
   20.9679   -6.8795  -15.2646 C   0  0  0  0  0  0  0  0  0  0  0  0
   21.0976   -5.8050  -14.3957 O   0  0  0  0  0  0  0  0  0  0  0  0
   21.3321   -6.6267  -16.4640 O   0  0  0  0  0  0  0  0  0  0  0  0
  1  2  1  0
  3  2  1  0
  3  5  1  0
  3  4  1  1
  5 12  1  0
  6  5  2  0
  8  9  1  0
  8  7  1  0
 10  9  1  0
 11 10  1  6
 11 13  1  0
 12 11  1  0
 13 14  2  0
 16 18  1  0
 16 15  1  1
 17 16  1  0
 19 18  1  6
 20 13  1  0
 20 19  1  0
 21 22  1  0
 21 19  1  0
 23 21  2  0
M  END
$$$$
