SML.pdb
     RDKit          3D

 23 22  0  0  1  0  0  0  0  0999 V2000
   26.1793  -16.1093  -13.6153 O   0  0  0  0  0  0  0  0  0  0  0  0
   27.0142  -16.4953  -14.6675 C   0  0  0  0  0  0  0  0  0  0  0  0
   26.4291  -17.6652  -15.4094 C   0  0  2  0  0  0  0  0  0  0  0  0
   25.2210  -17.2424  -16.0884 N   0  0  0  0  0  0  0  0  0  0  0  0
   26.1407  -18.8250  -14.5727 C   0  0  0  0  0  0  0  0  0  0  0  0
   24.9531  -19.0669  -14.2333 O   0  0  0  0  0  0  0  0  0  0  0  0
   24.7367  -24.1087  -16.5603 C   0  0  0  0  0  0  0  0  0  0  0  0
   25.4913  -23.6679  -14.9566 S   0  0  0  0  0  0  0  0  0  0  0  0
   26.9682  -22.6173  -15.2362 C   0  0  0  0  0  0  0  0  0  0  0  0
   27.4898  -22.1658  -13.9014 C   0  0  0  0  0  0  0  0  0  0  0  0
   26.8185  -20.9516  -13.3620 C   0  0  2  0  0  0  0  0  0  0  0  0
   27.1166  -19.7384  -14.0898 N   0  0  0  0  0  0  0  0  0  0  0  0
   26.9965  -20.7848  -11.8983 C   0  0  0  0  0  0  0  0  0  0  0  0
   28.1297  -20.5641  -11.3742 O   0  0  0  0  0  0  0  0  0  0  0  0
   27.2923  -18.2562   -7.1975 C   0  0  0  0  0  0  0  0  0  0  0  0
   26.9985  -19.6277   -7.6600 C   0  0  2  0  0  0  0  0  0  0  0  0
   28.1890  -20.5271   -7.2350 C   0  0  0  0  0  0  0  0  0  0  0  0
   26.7756  -19.8930   -9.0834 C   0  0  0  0  0  0  0  0  0  0  0  0
   26.0804  -21.1165   -9.5473 C   0  0  2  0  0  0  0  0  0  0  0  0
   25.8884  -20.8674  -11.0184 N   0  0  0  0  0  0  0  0  0  0  0  0
   24.7473  -21.2730   -8.9885 C   0  0  0  0  0  0  0  0  0  0  0  0
   24.3920  -21.9766   -7.8461 O   0  0  0  0  0  0  0  0  0  0  0  0
   23.7619  -20.7215   -9.5885 O   0  0  0  0  0  0  0  0  0  0  0  0
  1  2  1  0
  3  2  1  0
  3  5  1  0
  3  4  1  1
  5 12  1  0
  6  5  2  0
  8  9  1  0
  8  7  1  0
 10  9  1  0
 11 10  1  6
 11 13  1  0
 12 11  1  0
 13 14  2  0
 16 18  1  0
 16 15  1  6
 17 16  1  0
 19 18  1  1
 20 13  1  0
 20 19  1  0
 21 22  1  0
 21 19  1  0
 23 21  2  0
M  END
$$$$
