NLS.pdb
     RDKit          3D

 23 22  0  0  1  0  0  0  0  0999 V2000
   30.3595  -40.8500   -6.5289 N   0  0  0  0  0  0  0  0  0  0  0  0
   30.6217  -39.4648   -6.6575 C   0  0  0  0  0  0  0  0  0  0  0  0
   31.2039  -39.1244   -7.7424 O   0  0  0  0  0  0  0  0  0  0  0  0
   30.2616  -38.4405   -5.6234 C   0  0  0  0  0  0  0  0  0  0  0  0
   30.3499  -37.0825   -6.2801 C   0  0  2  0  0  0  0  0  0  0  0  0
   31.7076  -36.6223   -6.2317 N   0  0  0  0  0  0  0  0  0  0  0  0
   29.3502  -36.1234   -5.8354 C   0  0  0  0  0  0  0  0  0  0  0  0
   29.6204  -35.5052   -4.7485 O   0  0  0  0  0  0  0  0  0  0  0  0
   26.8292  -31.8790   -6.3941 C   0  0  0  0  0  0  0  0  0  0  0  0
   26.7166  -32.9316   -7.4458 C   0  0  2  0  0  0  0  0  0  0  0  0
   25.7316  -32.4982   -8.5127 C   0  0  0  0  0  0  0  0  0  0  0  0
   26.2984  -34.2650   -6.9200 C   0  0  0  0  0  0  0  0  0  0  0  0
   27.2751  -34.8243   -5.8714 C   0  0  2  0  0  0  0  0  0  0  0  0
   28.1145  -35.8247   -6.4978 N   0  0  0  0  0  0  0  0  0  0  0  0
   26.4204  -35.4692   -4.8619 C   0  0  0  0  0  0  0  0  0  0  0  0
   25.7057  -36.4618   -5.1475 O   0  0  0  0  0  0  0  0  0  0  0  0
   25.6544  -36.2728   -0.2303 O   0  0  0  0  0  0  0  0  0  0  0  0
   26.3128  -35.4524   -1.1441 C   0  0  0  0  0  0  0  0  0  0  0  0
   25.6793  -35.6902   -2.5154 C   0  0  2  0  0  0  0  0  0  0  0  0
   26.4195  -34.9543   -3.5294 N   0  0  0  0  0  0  0  0  0  0  0  0
   24.2695  -35.2777   -2.5485 C   0  0  0  0  0  0  0  0  0  0  0  0
   23.9688  -34.1503   -2.9889 O   0  0  0  0  0  0  0  0  0  0  0  0
   23.2753  -36.1230   -2.0983 O   0  0  0  0  0  0  0  0  0  0  0  0
  2  3  2  0
  2  1  1  0
  4  2  1  0
  5  4  1  0
  5  6  1  1
  7  5  1  0
  7  8  2  0
 10  9  1  1
 10 11  1  0
 10 12  1  0
 13 12  1  6
 13 15  1  0
 13 14  1  0
 14  7  1  0
 15 20  1  0
 16 15  2  0
 18 17  1  0
 19 18  1  1
 19 21  1  0
 20 19  1  0
 21 22  2  0
 21 23  1  0
M  END
$$$$
