NLS.pdb
     RDKit          3D

 23 22  0  0  1  0  0  0  0  0999 V2000
   20.6052  -16.2578  -16.0699 N   0  0  0  0  0  0  0  0  0  0  0  0
   19.2910  -15.7858  -16.3031 C   0  0  0  0  0  0  0  0  0  0  0  0
   18.3596  -16.5766  -15.9302 O   0  0  0  0  0  0  0  0  0  0  0  0
   18.9712  -14.4655  -16.9374 C   0  0  0  0  0  0  0  0  0  0  0  0
   18.3911  -13.5749  -15.8634 C   0  0  2  0  0  0  0  0  0  0  0  0
   17.2141  -14.1919  -15.3235 N   0  0  0  0  0  0  0  0  0  0  0  0
   18.2447  -12.1777  -16.2424 C   0  0  0  0  0  0  0  0  0  0  0  0
   18.5951  -11.8883  -17.4381 O   0  0  0  0  0  0  0  0  0  0  0  0
   14.6429   -8.9710  -17.2701 C   0  0  0  0  0  0  0  0  0  0  0  0
   15.1112   -9.6820  -16.0447 C   0  0  2  0  0  0  0  0  0  0  0  0
   14.0344   -9.6471  -14.9791 C   0  0  0  0  0  0  0  0  0  0  0  0
   16.3722   -9.1253  -15.4710 C   0  0  0  0  0  0  0  0  0  0  0  0
   17.6318   -9.8177  -16.0188 C   0  0  2  0  0  0  0  0  0  0  0  0
   17.7555  -11.1231  -15.4036 N   0  0  0  0  0  0  0  0  0  0  0  0
   18.7519   -8.9675  -15.5850 C   0  0  0  0  0  0  0  0  0  0  0  0
   19.2512   -9.0783  -14.4378 O   0  0  0  0  0  0  0  0  0  0  0  0
   22.0678   -5.6886  -16.7965 O   0  0  0  0  0  0  0  0  0  0  0  0
   20.9491   -6.3890  -17.2433 C   0  0  0  0  0  0  0  0  0  0  0  0
   20.4201   -7.2098  -16.0666 C   0  0  2  0  0  0  0  0  0  0  0  0
   19.2821   -8.0067  -16.4996 N   0  0  0  0  0  0  0  0  0  0  0  0
   20.0157   -6.3580  -14.9398 C   0  0  0  0  0  0  0  0  0  0  0  0
   18.8439   -5.9356  -14.8778 O   0  0  0  0  0  0  0  0  0  0  0  0
   20.9171   -6.0204  -13.9503 O   0  0  0  0  0  0  0  0  0  0  0  0
  2  3  2  0
  2  1  1  0
  4  2  1  0
  5  4  1  0
  5  6  1  6
  7  5  1  0
  7  8  2  0
 10  9  1  6
 10 11  1  0
 10 12  1  0
 13 12  1  1
 13 15  1  0
 13 14  1  0
 14  7  1  0
 15 20  1  0
 16 15  2  0
 18 17  1  0
 19 18  1  6
 19 21  1  0
 20 19  1  0
 21 22  2  0
 21 23  1  0
M  END
$$$$
