NLS.pdb
     RDKit          3D

 23 22  0  0  1  0  0  0  0  0999 V2000
   20.0312  -13.6141  -20.6333 N   0  0  0  0  0  0  0  0  0  0  0  0
   20.2215  -14.1336  -19.3303 C   0  0  0  0  0  0  0  0  0  0  0  0
   19.6481  -15.2531  -19.1068 O   0  0  0  0  0  0  0  0  0  0  0  0
   21.0260  -13.4546  -18.2627 C   0  0  0  0  0  0  0  0  0  0  0  0
   21.4087  -12.0885  -18.7828 C   0  0  2  0  0  0  0  0  0  0  0  0
   21.9821  -12.2250  -20.0905 N   0  0  0  0  0  0  0  0  0  0  0  0
   22.1702  -11.2716  -17.8502 C   0  0  0  0  0  0  0  0  0  0  0  0
   21.5618  -10.9478  -16.7725 O   0  0  0  0  0  0  0  0  0  0  0  0
   27.8098   -9.3507  -16.4671 C   0  0  0  0  0  0  0  0  0  0  0  0
   26.3814   -9.6709  -16.1781 C   0  0  2  0  0  0  0  0  0  0  0  0
   26.2657  -11.0736  -15.6163 C   0  0  0  0  0  0  0  0  0  0  0  0
   25.4863   -9.5552  -17.3676 C   0  0  0  0  0  0  0  0  0  0  0  0
   24.0193   -9.8844  -17.0428 C   0  0  2  0  0  0  0  0  0  0  0  0
   23.5135  -10.8075  -18.0378 N   0  0  0  0  0  0  0  0  0  0  0  0
   23.3068   -8.6023  -17.1620 C   0  0  0  0  0  0  0  0  0  0  0  0
   23.1745   -8.0281  -18.2713 O   0  0  0  0  0  0  0  0  0  0  0  0
   19.9424   -7.7372  -16.4764 O   0  0  0  0  0  0  0  0  0  0  0  0
   20.6200   -6.8824  -15.6094 C   0  0  0  0  0  0  0  0  0  0  0  0
   22.0519   -6.7425  -16.1273 C   0  0  2  0  0  0  0  0  0  0  0  0
   22.7481   -8.0126  -15.9869 N   0  0  0  0  0  0  0  0  0  0  0  0
   22.7966   -5.6989  -15.4095 C   0  0  0  0  0  0  0  0  0  0  0  0
   22.4025   -4.5168  -15.4605 O   0  0  0  0  0  0  0  0  0  0  0  0
   23.9261   -6.0119  -14.6802 O   0  0  0  0  0  0  0  0  0  0  0  0
  2  3  2  0
  2  1  1  0
  4  2  1  0
  5  4  1  0
  5  6  1  6
  7  5  1  0
  7  8  2  0
 10  9  1  6
 10 11  1  0
 10 12  1  0
 13 12  1  6
 13 15  1  0
 13 14  1  0
 14  7  1  0
 15 20  1  0
 16 15  2  0
 18 17  1  0
 19 18  1  1
 19 21  1  0
 20 19  1  0
 21 22  2  0
 21 23  1  0
M  END
$$$$
