NLS.pdb
     RDKit          3D

 23 22  0  0  1  0  0  0  0  0999 V2000
   21.6859  -12.2660  -22.5596 N   0  0  0  0  0  0  0  0  0  0  0  0
   20.4756  -12.4841  -21.8584 C   0  0  0  0  0  0  0  0  0  0  0  0
   19.6084  -13.1835  -22.4836 O   0  0  0  0  0  0  0  0  0  0  0  0
   20.1905  -11.9524  -20.4858 C   0  0  0  0  0  0  0  0  0  0  0  0
   20.9528  -12.8077  -19.5007 C   0  0  2  0  0  0  0  0  0  0  0  0
   20.1565  -13.9483  -19.1509 N   0  0  0  0  0  0  0  0  0  0  0  0
   21.5281  -12.0812  -18.3789 C   0  0  0  0  0  0  0  0  0  0  0  0
   20.8110  -12.0379  -17.3205 O   0  0  0  0  0  0  0  0  0  0  0  0
   26.6062   -9.9416  -15.6001 C   0  0  0  0  0  0  0  0  0  0  0  0
   25.1237   -9.9806  -15.7650 C   0  0  2  0  0  0  0  0  0  0  0  0
   24.4815  -10.6198  -14.5504 C   0  0  0  0  0  0  0  0  0  0  0  0
   24.6732  -10.7117  -16.9865 C   0  0  0  0  0  0  0  0  0  0  0  0
   23.1436  -10.7125  -17.1493 C   0  0  2  0  0  0  0  0  0  0  0  0
   22.8010  -11.4219  -18.3647 N   0  0  0  0  0  0  0  0  0  0  0  0
   22.7761   -9.2949  -17.2936 C   0  0  0  0  0  0  0  0  0  0  0  0
   23.2817   -8.5760  -18.1909 O   0  0  0  0  0  0  0  0  0  0  0  0
   19.5657   -7.7552  -17.8918 O   0  0  0  0  0  0  0  0  0  0  0  0
   19.9463   -7.1947  -16.6742 C   0  0  0  0  0  0  0  0  0  0  0  0
   21.4646   -7.3345  -16.5580 C   0  0  2  0  0  0  0  0  0  0  0  0
   21.8148   -8.7376  -16.3958 N   0  0  0  0  0  0  0  0  0  0  0  0
   22.0025   -6.5660  -15.4270 C   0  0  0  0  0  0  0  0  0  0  0  0
   22.5705   -7.1643  -14.4917 O   0  0  0  0  0  0  0  0  0  0  0  0
   21.8863   -5.1910  -15.3883 O   0  0  0  0  0  0  0  0  0  0  0  0
  2  3  2  0
  2  1  1  0
  4  2  1  0
  5  4  1  0
  5  6  1  1
  7  5  1  0
  7  8  2  0
 10  9  1  1
 10 11  1  0
 10 12  1  0
 13 12  1  6
 13 15  1  0
 13 14  1  0
 14  7  1  0
 15 20  1  0
 16 15  2  0
 18 17  1  0
 19 18  1  1
 19 21  1  0
 20 19  1  0
 21 22  2  0
 21 23  1  0
M  END
$$$$
