NLS.pdb
     RDKit          3D

 23 22  0  0  1  0  0  0  0  0999 V2000
   28.9187  -20.1346  -19.2547 N   0  0  0  0  0  0  0  0  0  0  0  0
   28.2031  -19.7497  -18.0954 C   0  0  0  0  0  0  0  0  0  0  0  0
   28.5861  -18.6527  -17.5644 O   0  0  0  0  0  0  0  0  0  0  0  0
   27.0759  -20.5397  -17.5011 C   0  0  0  0  0  0  0  0  0  0  0  0
   27.6290  -21.3000  -16.3182 C   0  0  2  0  0  0  0  0  0  0  0  0
   28.2891  -22.4846  -16.7855 N   0  0  0  0  0  0  0  0  0  0  0  0
   26.6875  -21.5001  -15.2270 C   0  0  0  0  0  0  0  0  0  0  0  0
   25.9106  -22.5096  -15.3435 O   0  0  0  0  0  0  0  0  0  0  0  0
   25.1988  -20.1547   -9.3526 C   0  0  0  0  0  0  0  0  0  0  0  0
   24.9341  -20.8223  -10.6605 C   0  0  2  0  0  0  0  0  0  0  0  0
   24.9155  -22.3271  -10.4825 C   0  0  0  0  0  0  0  0  0  0  0  0
   25.9242  -20.4771  -11.7235 C   0  0  0  0  0  0  0  0  0  0  0  0
   25.5658  -21.0845  -13.0905 C   0  0  2  0  0  0  0  0  0  0  0  0
   26.5597  -20.6752  -14.0614 N   0  0  0  0  0  0  0  0  0  0  0  0
   24.2674  -20.4881  -13.4427 C   0  0  0  0  0  0  0  0  0  0  0  0
   24.1428  -19.2512  -13.6224 O   0  0  0  0  0  0  0  0  0  0  0  0
   21.2614  -22.7867  -15.0125 O   0  0  0  0  0  0  0  0  0  0  0  0
   21.3796  -21.4252  -15.2844 C   0  0  0  0  0  0  0  0  0  0  0  0
   21.8761  -20.7429  -14.0093 C   0  0  2  0  0  0  0  0  0  0  0  0
   23.1336  -21.3443  -13.5916 N   0  0  0  0  0  0  0  0  0  0  0  0
   20.9012  -20.8468  -12.9149 C   0  0  0  0  0  0  0  0  0  0  0  0
   21.1864  -21.5103  -11.8981 O   0  0  0  0  0  0  0  0  0  0  0  0
   19.6746  -20.2191  -12.9995 O   0  0  0  0  0  0  0  0  0  0  0  0
  2  3  2  0
  2  1  1  0
  4  2  1  0
  5  4  1  0
  5  6  1  6
  7  5  1  0
  7  8  2  0
 10  9  1  1
 10 11  1  0
 10 12  1  0
 13 12  1  1
 13 15  1  0
 13 14  1  0
 14  7  1  0
 15 20  1  0
 16 15  2  0
 18 17  1  0
 19 18  1  6
 19 21  1  0
 20 19  1  0
 21 22  2  0
 21 23  1  0
M  END
$$$$
