NLS.pdb
     RDKit          3D

 23 22  0  0  1  0  0  0  0  0999 V2000
   17.3682  -13.0066  -12.9863 N   0  0  0  0  0  0  0  0  0  0  0  0
   17.6923  -11.8835  -13.7849 C   0  0  0  0  0  0  0  0  0  0  0  0
   18.5797  -12.0955  -14.6791 O   0  0  0  0  0  0  0  0  0  0  0  0
   17.0673  -10.5299  -13.6270 C   0  0  0  0  0  0  0  0  0  0  0  0
   16.1615  -10.5866  -12.4189 C   0  0  2  0  0  0  0  0  0  0  0  0
   15.1471  -11.5773  -12.6357 N   0  0  0  0  0  0  0  0  0  0  0  0
   15.6815   -9.2939  -11.9547 C   0  0  0  0  0  0  0  0  0  0  0  0
   14.6299   -8.8526  -12.5341 O   0  0  0  0  0  0  0  0  0  0  0  0
   13.3369   -6.8889   -8.7636 C   0  0  0  0  0  0  0  0  0  0  0  0
   14.6678   -7.3889   -8.3104 C   0  0  2  0  0  0  0  0  0  0  0  0
   14.9135   -6.9838   -6.8710 C   0  0  0  0  0  0  0  0  0  0  0  0
   15.8078   -6.9070   -9.1457 C   0  0  0  0  0  0  0  0  0  0  0  0
   15.6293   -7.2294  -10.6391 C   0  0  2  0  0  0  0  0  0  0  0  0
   16.2791   -8.4912  -10.9281 N   0  0  0  0  0  0  0  0  0  0  0  0
   16.3310   -6.1474  -11.3479 C   0  0  0  0  0  0  0  0  0  0  0  0
   17.5851   -6.0779  -11.3585 O   0  0  0  0  0  0  0  0  0  0  0  0
   16.2871   -2.8939  -14.7885 O   0  0  0  0  0  0  0  0  0  0  0  0
   15.5871   -3.9032  -14.1305 C   0  0  0  0  0  0  0  0  0  0  0  0
   16.2755   -4.1389  -12.7856 C   0  0  2  0  0  0  0  0  0  0  0  0
   15.5603   -5.1669  -12.0445 N   0  0  0  0  0  0  0  0  0  0  0  0
   16.3382   -2.9131  -11.9779 C   0  0  0  0  0  0  0  0  0  0  0  0
   15.4193   -2.6587  -11.1740 O   0  0  0  0  0  0  0  0  0  0  0  0
   17.4014   -2.0410  -12.0989 O   0  0  0  0  0  0  0  0  0  0  0  0
  2  3  2  0
  2  1  1  0
  4  2  1  0
  5  4  1  0
  5  6  1  6
  7  5  1  0
  7  8  2  0
 10  9  1  6
 10 11  1  0
 10 12  1  0
 13 12  1  1
 13 15  1  0
 13 14  1  0
 14  7  1  0
 15 20  1  0
 16 15  2  0
 18 17  1  0
 19 18  1  6
 19 21  1  0
 20 19  1  0
 21 22  2  0
 21 23  1  0
M  END
$$$$
