FTY.pdb
     RDKit          3D

 31 32  0  0  1  0  0  0  0  0999 V2000
   22.3628  -13.6130  -18.1243 N   0  0  0  0  0  0  0  0  0  0  0  0
   22.1747  -12.2680  -18.6281 C   0  0  1  0  0  0  0  0  0  0  0  0
   20.9005  -12.2689  -19.4369 C   0  0  0  0  0  0  0  0  0  0  0  0
   21.1964  -12.9445  -20.7241 C   0  0  0  0  0  0  0  0  0  0  0  0
   20.8707  -14.2688  -20.9029 C   0  0  0  0  0  0  0  0  0  0  0  0
   21.1332  -14.9356  -22.0969 C   0  0  0  0  0  0  0  0  0  0  0  0
   21.7357  -14.2696  -23.1423 C   0  0  0  0  0  0  0  0  0  0  0  0
   22.0644  -12.9329  -22.9617 C   0  0  0  0  0  0  0  0  0  0  0  0
   21.7984  -12.2779  -21.7678 C   0  0  0  0  0  0  0  0  0  0  0  0
   22.1634  -11.3258  -17.5163 C   0  0  0  0  0  0  0  0  0  0  0  0
   21.7244  -11.6882  -16.3968 O   0  0  0  0  0  0  0  0  0  0  0  0
   24.3647  -10.3774  -15.1707 C   0  0  0  0  0  0  0  0  0  0  0  0
   23.9944   -9.0522  -15.7943 C   0  0  1  0  0  0  0  0  0  0  0  0
   24.9031   -8.6401  -16.7609 O   0  0  0  0  0  0  0  0  0  0  0  0
   22.6220   -9.0934  -16.4295 C   0  0  2  0  0  0  0  0  0  0  0  0
   22.6254   -9.9804  -17.5970 N   0  0  0  0  0  0  0  0  0  0  0  0
   22.1326   -7.7640  -16.8619 C   0  0  0  0  0  0  0  0  0  0  0  0
   22.5128   -7.3023  -17.9901 O   0  0  0  0  0  0  0  0  0  0  0  0
   18.2241   -8.1465  -21.9605 O   0  0  0  0  0  0  0  0  0  0  0  0
   18.4804   -7.5661  -20.7193 C   0  0  0  0  0  0  0  0  0  0  0  0
   18.4665   -8.3291  -19.5661 C   0  0  0  0  0  0  0  0  0  0  0  0
   18.7182   -7.7681  -18.3320 C   0  0  0  0  0  0  0  0  0  0  0  0
   18.9936   -6.4314  -18.1890 C   0  0  0  0  0  0  0  0  0  0  0  0
   19.2654   -5.8220  -16.8669 C   0  0  0  0  0  0  0  0  0  0  0  0
   20.7686   -5.6632  -16.6152 C   0  0  2  0  0  0  0  0  0  0  0  0
   21.2580   -6.9443  -16.1119 N   0  0  0  0  0  0  0  0  0  0  0  0
   20.9669   -4.6256  -15.5893 C   0  0  0  0  0  0  0  0  0  0  0  0
   21.3848   -4.9619  -14.4443 O   0  0  0  0  0  0  0  0  0  0  0  0
   19.0116   -5.6452  -19.3456 C   0  0  0  0  0  0  0  0  0  0  0  0
   18.7573   -6.2273  -20.5673 C   0  0  0  0  0  0  0  0  0  0  0  0
   20.6991   -3.2947  -15.8737 O   0  0  0  0  0  0  0  0  0  0  0  0
  2  1  1  1
  2 10  1  0
  3  2  1  0
  3  4  1  0
  4  9  1  0
  4  5  2  0
  5  6  1  0
  7  6  2  0
  8  7  1  0
  9  8  2  0
 10 11  2  0
 13 12  1  6
 13 15  1  0
 14 13  1  0
 15 17  1  0
 15 16  1  6
 16 10  1  0
 17 26  1  0
 17 18  2  0
 19 20  1  0
 20 30  2  0
 20 21  1  0
 21 22  2  0
 22 23  1  0
 23 24  1  0
 25 24  1  1
 25 27  1  0
 26 25  1  0
 27 28  2  0
 27 31  1  0
 29 23  2  0
 30 29  1  0
M  END
$$$$
