FTY.pdb
     RDKit          3D

 31 32  0  0  1  0  0  0  0  0999 V2000
   22.0437  -14.8484  -17.6552 N   0  0  0  0  0  0  0  0  0  0  0  0
   21.0008  -14.0171  -17.0900 C   0  0  1  0  0  0  0  0  0  0  0  0
   20.6775  -14.5737  -15.7249 C   0  0  0  0  0  0  0  0  0  0  0  0
   19.9950  -15.8748  -15.9302 C   0  0  0  0  0  0  0  0  0  0  0  0
   18.7195  -15.9152  -16.4435 C   0  0  0  0  0  0  0  0  0  0  0  0
   18.0479  -17.1174  -16.6498 C   0  0  0  0  0  0  0  0  0  0  0  0
   18.6591  -18.3127  -16.3380 C   0  0  0  0  0  0  0  0  0  0  0  0
   19.9465  -18.2718  -15.8199 C   0  0  0  0  0  0  0  0  0  0  0  0
   20.6068  -17.0683  -15.6183 C   0  0  0  0  0  0  0  0  0  0  0  0
   21.4402  -12.6276  -17.0683 C   0  0  0  0  0  0  0  0  0  0  0  0
   22.6547  -12.3609  -16.8917 O   0  0  0  0  0  0  0  0  0  0  0  0
   21.4520  -10.0533  -19.7551 C   0  0  0  0  0  0  0  0  0  0  0  0
   20.7063   -9.4668  -18.5795 C   0  0  1  0  0  0  0  0  0  0  0  0
   19.3270   -9.5584  -18.7178 O   0  0  0  0  0  0  0  0  0  0  0  0
   21.0916  -10.1358  -17.2785 C   0  0  2  0  0  0  0  0  0  0  0  0
   20.5757  -11.5076  -17.2366 N   0  0  0  0  0  0  0  0  0  0  0  0
   20.5978   -9.4206  -16.0793 C   0  0  0  0  0  0  0  0  0  0  0  0
   19.5855   -9.8861  -15.4551 O   0  0  0  0  0  0  0  0  0  0  0  0
   25.2007   -3.6721  -16.6209 O   0  0  0  0  0  0  0  0  0  0  0  0
   24.3893   -4.5230  -15.8721 C   0  0  0  0  0  0  0  0  0  0  0  0
   23.3807   -4.0160  -15.0735 C   0  0  0  0  0  0  0  0  0  0  0  0
   22.5708   -4.8460  -14.3278 C   0  0  0  0  0  0  0  0  0  0  0  0
   22.7257   -6.2094  -14.3418 C   0  0  0  0  0  0  0  0  0  0  0  0
   21.8594   -7.1072  -13.5440 C   0  0  0  0  0  0  0  0  0  0  0  0
   20.6503   -7.5914  -14.3513 C   0  0  2  0  0  0  0  0  0  0  0  0
   21.1677   -8.2376  -15.5549 N   0  0  0  0  0  0  0  0  0  0  0  0
   19.8402   -6.4223  -14.7325 C   0  0  0  0  0  0  0  0  0  0  0  0
   19.8107   -6.0605  -15.9437 O   0  0  0  0  0  0  0  0  0  0  0  0
   23.7415   -6.7388  -15.1445 C   0  0  0  0  0  0  0  0  0  0  0  0
   24.5380   -5.8905  -15.8806 C   0  0  0  0  0  0  0  0  0  0  0  0
   19.1173   -5.7250  -13.7758 O   0  0  0  0  0  0  0  0  0  0  0  0
  2  1  1  1
  2 10  1  0
  3  2  1  0
  3  4  1  0
  4  9  1  0
  4  5  2  0
  5  6  1  0
  7  6  2  0
  8  7  1  0
  9  8  2  0
 10 11  2  0
 13 12  1  6
 13 15  1  0
 14 13  1  0
 15 17  1  0
 15 16  1  6
 16 10  1  0
 17 26  1  0
 17 18  2  0
 19 20  1  0
 20 30  2  0
 20 21  1  0
 21 22  2  0
 22 23  1  0
 23 24  1  0
 25 24  1  1
 25 27  1  0
 26 25  1  0
 27 28  2  0
 27 31  1  0
 29 23  2  0
 30 29  1  0
M  END
$$$$
