FTY.pdb
     RDKit          3D

 31 32  0  0  1  0  0  0  0  0999 V2000
   34.6672  -29.5736  -18.9414 N   0  0  0  0  0  0  0  0  0  0  0  0
   33.4262  -29.8501  -19.6354 C   0  0  1  0  0  0  0  0  0  0  0  0
   33.4417  -31.3115  -20.0119 C   0  0  0  0  0  0  0  0  0  0  0  0
   33.9751  -31.4047  -21.3932 C   0  0  0  0  0  0  0  0  0  0  0  0
   35.2706  -31.8126  -21.6099 C   0  0  0  0  0  0  0  0  0  0  0  0
   35.8052  -31.9120  -22.8919 C   0  0  0  0  0  0  0  0  0  0  0  0
   35.0325  -31.5979  -23.9890 C   0  0  0  0  0  0  0  0  0  0  0  0
   33.7248  -31.1862  -23.7700 C   0  0  0  0  0  0  0  0  0  0  0  0
   33.2020  -31.0905  -22.4884 C   0  0  0  0  0  0  0  0  0  0  0  0
   32.2991  -29.4734  -18.7916 C   0  0  0  0  0  0  0  0  0  0  0  0
   32.4873  -29.2245  -17.5751 O   0  0  0  0  0  0  0  0  0  0  0  0
   27.7422  -27.6491  -18.1919 C   0  0  0  0  0  0  0  0  0  0  0  0
   28.9747  -27.9418  -19.0149 C   0  0  1  0  0  0  0  0  0  0  0  0
   29.7369  -26.8073  -19.2638 O   0  0  0  0  0  0  0  0  0  0  0  0
   29.8655  -28.9672  -18.3488 C   0  0  2  0  0  0  0  0  0  0  0  0
   30.9544  -29.3601  -19.2487 N   0  0  0  0  0  0  0  0  0  0  0  0
   29.1450  -30.1930  -17.9341 C   0  0  0  0  0  0  0  0  0  0  0  0
   28.8068  -31.0426  -18.8254 O   0  0  0  0  0  0  0  0  0  0  0  0
   24.9436  -36.2725  -12.9648 O   0  0  0  0  0  0  0  0  0  0  0  0
   25.6675  -35.1616  -13.3950 C   0  0  0  0  0  0  0  0  0  0  0  0
   26.9849  -35.2887  -13.7955 C   0  0  0  0  0  0  0  0  0  0  0  0
   27.7126  -34.1985  -14.2233 C   0  0  0  0  0  0  0  0  0  0  0  0
   27.1672  -32.9402  -14.2722 C   0  0  0  0  0  0  0  0  0  0  0  0
   27.9425  -31.7648  -14.7310 C   0  0  0  0  0  0  0  0  0  0  0  0
   28.0487  -31.7183  -16.2589 C   0  0  2  0  0  0  0  0  0  0  0  0
   28.7929  -30.5088  -16.6016 N   0  0  0  0  0  0  0  0  0  0  0  0
   26.6910  -31.6345  -16.8227 C   0  0  0  0  0  0  0  0  0  0  0  0
   26.1484  -32.6797  -17.2831 O   0  0  0  0  0  0  0  0  0  0  0  0
   25.8355  -32.7943  -13.8704 C   0  0  0  0  0  0  0  0  0  0  0  0
   25.1283  -33.8972  -13.4470 C   0  0  0  0  0  0  0  0  0  0  0  0
   26.0136  -30.4244  -16.8494 O   0  0  0  0  0  0  0  0  0  0  0  0
  2  1  1  1
  2 10  1  0
  3  2  1  0
  3  4  1  0
  4  9  1  0
  4  5  2  0
  5  6  1  0
  7  6  2  0
  8  7  1  0
  9  8  2  0
 10 11  2  0
 13 12  1  1
 13 15  1  0
 14 13  1  0
 15 17  1  0
 15 16  1  6
 16 10  1  0
 17 26  1  0
 17 18  2  0
 19 20  1  0
 20 30  2  0
 20 21  1  0
 21 22  2  0
 22 23  1  0
 23 24  1  0
 25 24  1  1
 25 27  1  0
 26 25  1  0
 27 28  2  0
 27 31  1  0
 29 23  2  0
 30 29  1  0
M  END
$$$$
