FTY.pdb
     RDKit          3D

 31 32  0  0  1  0  0  0  0  0999 V2000
   28.0581  -21.1726  -17.9629 N   0  0  0  0  0  0  0  0  0  0  0  0
   27.6391  -21.7765  -16.7148 C   0  0  1  0  0  0  0  0  0  0  0  0
   28.8879  -22.2202  -15.9926 C   0  0  0  0  0  0  0  0  0  0  0  0
   29.3893  -23.4329  -16.6846 C   0  0  0  0  0  0  0  0  0  0  0  0
   30.5568  -23.3843  -17.4101 C   0  0  0  0  0  0  0  0  0  0  0  0
   31.0578  -24.5020  -18.0724 C   0  0  0  0  0  0  0  0  0  0  0  0
   30.3813  -25.7013  -18.0130 C   0  0  0  0  0  0  0  0  0  0  0  0
   29.2029  -25.7502  -17.2806 C   0  0  0  0  0  0  0  0  0  0  0  0
   28.7124  -24.6305  -16.6244 C   0  0  0  0  0  0  0  0  0  0  0  0
   26.8299  -20.8284  -15.9595 C   0  0  0  0  0  0  0  0  0  0  0  0
   26.9938  -19.5949  -16.1300 O   0  0  0  0  0  0  0  0  0  0  0  0
   25.0105  -18.8659  -16.5267 C   0  0  0  0  0  0  0  0  0  0  0  0
   24.1252  -19.5129  -15.4877 C   0  0  1  0  0  0  0  0  0  0  0  0
   23.2475  -20.4419  -16.0323 O   0  0  0  0  0  0  0  0  0  0  0  0
   24.9333  -20.2065  -14.4132 C   0  0  2  0  0  0  0  0  0  0  0  0
   25.8335  -21.1979  -15.0104 N   0  0  0  0  0  0  0  0  0  0  0  0
   24.0996  -20.8925  -13.3993 C   0  0  0  0  0  0  0  0  0  0  0  0
   23.8843  -22.1453  -13.5210 O   0  0  0  0  0  0  0  0  0  0  0  0
   28.4590  -20.3197   -8.2631 O   0  0  0  0  0  0  0  0  0  0  0  0
   27.1272  -20.3141   -8.6745 C   0  0  0  0  0  0  0  0  0  0  0  0
   26.3150  -19.2232   -8.4245 C   0  0  0  0  0  0  0  0  0  0  0  0
   24.9960  -19.2043   -8.8257 C   0  0  0  0  0  0  0  0  0  0  0  0
   24.4279  -20.2624   -9.4896 C   0  0  0  0  0  0  0  0  0  0  0  0
   23.0122  -20.2490   -9.9241 C   0  0  0  0  0  0  0  0  0  0  0  0
   22.8160  -21.0133  -11.2376 C   0  0  2  0  0  0  0  0  0  0  0  0
   23.5089  -20.2608  -12.2806 N   0  0  0  0  0  0  0  0  0  0  0  0
   21.3764  -21.0623  -11.5431 C   0  0  0  0  0  0  0  0  0  0  0  0
   20.8916  -20.2335  -12.3658 O   0  0  0  0  0  0  0  0  0  0  0  0
   25.2357  -21.3740   -9.7505 C   0  0  0  0  0  0  0  0  0  0  0  0
   26.5501  -21.3704   -9.3403 C   0  0  0  0  0  0  0  0  0  0  0  0
   20.5601  -22.0057  -10.9366 O   0  0  0  0  0  0  0  0  0  0  0  0
  2  1  1  6
  2 10  1  0
  3  2  1  0
  3  4  1  0
  4  9  1  0
  4  5  2  0
  5  6  1  0
  7  6  2  0
  8  7  1  0
  9  8  2  0
 10 11  2  0
 13 12  1  6
 13 15  1  0
 14 13  1  0
 15 17  1  0
 15 16  1  6
 16 10  1  0
 17 26  1  0
 17 18  2  0
 19 20  1  0
 20 30  2  0
 20 21  1  0
 21 22  2  0
 22 23  1  0
 23 24  1  0
 25 24  1  1
 25 27  1  0
 26 25  1  0
 27 28  2  0
 27 31  1  0
 29 23  2  0
 30 29  1  0
M  END
$$$$
