RVG.pdb
     RDKit          3D

 23 22  0  0  1  0  0  0  0  0999 V2000
    9.7444  -14.5472   17.6593 N   0  0  0  0  0  0  0  0  0  0  0  0
    8.6302  -13.8021   17.2074 C   0  0  0  0  0  0  0  0  0  0  0  0
    8.3153  -13.6993   15.9410 N   0  0  0  0  0  0  0  0  0  0  0  0
    7.7692  -13.1087   18.1030 N   0  0  0  0  0  0  0  0  0  0  0  0
    8.1539  -12.8519   19.4763 C   0  0  0  0  0  0  0  0  0  0  0  0
    8.2671  -14.1733   20.1849 C   0  0  0  0  0  0  0  0  0  0  0  0
    7.0775  -14.4732   21.0610 C   0  0  0  0  0  0  0  0  0  0  0  0
    7.3688  -15.5729   22.0582 C   0  0  2  0  0  0  0  0  0  0  0  0
    6.0707  -15.9708   22.6175 N   0  0  0  0  0  0  0  0  0  0  0  0
    8.2034  -14.9607   23.1570 C   0  0  0  0  0  0  0  0  0  0  0  0
    9.3738  -14.5690   22.9234 O   0  0  0  0  0  0  0  0  0  0  0  0
    7.4636  -13.1429   15.7273 C   0  0  0  0  0  0  0  0  0  0  0  0
    7.3025  -12.2200   25.2336 C   0  0  2  0  0  0  0  0  0  0  0  0
    7.6181  -13.2688   26.2449 C   0  0  0  0  0  0  0  0  0  0  0  0
    6.3413  -13.9482   26.7483 C   0  0  2  0  0  0  0  0  0  0  0  0
    8.4403  -14.3711   25.6215 N   0  0  0  0  0  0  0  0  0  0  0  0
    7.6864  -14.8200   24.4527 C   0  0  0  0  0  0  0  0  0  0  0  0
    8.7626  -15.4908   26.5073 O   0  0  0  0  0  0  0  0  0  0  0  0
    7.8019  -16.2835   26.8182 N   0  0  0  0  0  0  0  0  0  0  0  0
   10.0066  -15.8194   27.0681 C   0  0  0  0  0  0  0  0  0  0  0  0
   10.2475  -17.0371   27.8237 C   0  0  0  0  0  0  0  0  0  0  0  0
   10.6275  -16.6507   29.2035 O   0  0  0  0  0  0  0  0  0  0  0  0
   10.6978  -15.4459   29.5722 O   0  0  0  0  0  0  0  0  0  0  0  0
  2  1  1  0
  2  4  1  0
  3  2  2  0
  5  4  1  0
  6  5  1  0
  7  6  1  0
  7  8  1  0
  8  9  1  1
  8 10  1  0
 10 11  2  0
 13 14  1  6
 13 15  1  0
 13 12  1  0
 16 10  1  0
 15 16  1  1
 17 15  1  0
 17 18  2  0
 19 20  1  0
 19 17  1  0
 20 21  1  0
 21 22  2  0
 21 23  1  0
M  END
$$$$
