RVG.pdb
     RDKit          3D

 23 22  0  0  1  0  0  0  0  0999 V2000
    8.1604  -15.7067   16.2461 N   0  0  0  0  0  0  0  0  0  0  0  0
    8.3533  -14.3068   16.3072 C   0  0  0  0  0  0  0  0  0  0  0  0
    8.1584  -13.5209   15.2786 N   0  0  0  0  0  0  0  0  0  0  0  0
    8.7749  -13.6516   17.4977 N   0  0  0  0  0  0  0  0  0  0  0  0
    9.3164  -14.3933   18.6185 C   0  0  0  0  0  0  0  0  0  0  0  0
    8.1763  -14.7730   19.5225 C   0  0  0  0  0  0  0  0  0  0  0  0
    8.2353  -14.0843   20.8623 C   0  0  0  0  0  0  0  0  0  0  0  0
    7.3889  -14.7873   21.9004 C   0  0  2  0  0  0  0  0  0  0  0  0
    5.9984  -14.6644   21.4447 N   0  0  0  0  0  0  0  0  0  0  0  0
    7.5464  -14.0188   23.1901 C   0  0  0  0  0  0  0  0  0  0  0  0
    7.2458  -12.8004   23.2452 O   0  0  0  0  0  0  0  0  0  0  0  0
    8.3465  -12.5106   15.4354 C   0  0  0  0  0  0  0  0  0  0  0  0
    6.8305  -13.1699   27.5115 C   0  0  2  0  0  0  0  0  0  0  0  0
    6.8295  -13.5566   26.0717 C   0  0  0  0  0  0  0  0  0  0  0  0
    6.5104  -12.3531   25.1801 C   0  0  1  0  0  0  0  0  0  0  0  0
    8.2041  -14.0161   25.6489 N   0  0  0  0  0  0  0  0  0  0  0  0
    8.0295  -14.6516   24.3444 C   0  0  0  0  0  0  0  0  0  0  0  0
    8.8831  -14.9102   26.5880 O   0  0  0  0  0  0  0  0  0  0  0  0
    9.3121  -14.3909   27.6808 N   0  0  0  0  0  0  0  0  0  0  0  0
    9.1274  -16.2854   26.4498 C   0  0  0  0  0  0  0  0  0  0  0  0
    9.7808  -17.0888   27.4694 C   0  0  0  0  0  0  0  0  0  0  0  0
   11.2412  -17.0454   27.2187 O   0  0  0  0  0  0  0  0  0  0  0  0
   11.7452  -16.3706   26.2789 O   0  0  0  0  0  0  0  0  0  0  0  0
  2  1  1  0
  2  4  1  0
  3  2  2  0
  5  4  1  0
  6  5  1  0
  7  6  1  0
  7  8  1  0
  8  9  1  6
  8 10  1  0
 10 11  2  0
 13 14  1  1
 13 15  1  0
 13 12  1  0
 16 10  1  0
 15 16  1  6
 17 15  1  0
 17 18  2  0
 19 20  1  0
 19 17  1  0
 20 21  1  0
 21 22  2  0
 21 23  1  0
M  END
$$$$
