RVG.pdb
     RDKit          3D

 23 22  0  0  1  0  0  0  0  0999 V2000
    6.5865  -21.4854   24.0138 N   0  0  0  0  0  0  0  0  0  0  0  0
    6.6149  -20.0852   24.2112 C   0  0  0  0  0  0  0  0  0  0  0  0
    7.3709  -19.5139   25.1144 N   0  0  0  0  0  0  0  0  0  0  0  0
    5.8194  -19.1948   23.4373 N   0  0  0  0  0  0  0  0  0  0  0  0
    5.6619  -19.3690   22.0074 C   0  0  0  0  0  0  0  0  0  0  0  0
    6.9109  -18.8697   21.3353 C   0  0  0  0  0  0  0  0  0  0  0  0
    6.8443  -18.9594   19.8319 C   0  0  0  0  0  0  0  0  0  0  0  0
    6.6308  -17.6061   19.1906 C   0  0  2  0  0  0  0  0  0  0  0  0
    6.6946  -17.8272   17.7403 N   0  0  0  0  0  0  0  0  0  0  0  0
    7.7947  -16.7366   19.6004 C   0  0  0  0  0  0  0  0  0  0  0  0
    8.9476  -16.9672   19.1581 O   0  0  0  0  0  0  0  0  0  0  0  0
    7.3899  -18.4746   25.1011 C   0  0  0  0  0  0  0  0  0  0  0  0
    7.5077  -13.0886   19.6005 C   0  0  2  0  0  0  0  0  0  0  0  0
    8.0821  -13.3838   20.9441 C   0  0  0  0  0  0  0  0  0  0  0  0
    6.9937  -13.3723   22.0213 C   0  0  2  0  0  0  0  0  0  0  0  0
    8.6621  -14.7775   20.9743 N   0  0  0  0  0  0  0  0  0  0  0  0
    7.6077  -15.6601   20.4792 C   0  0  0  0  0  0  0  0  0  0  0  0
    9.1582  -15.2223   22.2775 O   0  0  0  0  0  0  0  0  0  0  0  0
    8.2850  -15.4187   23.1976 N   0  0  0  0  0  0  0  0  0  0  0  0
   10.4861  -15.4702   22.6585 C   0  0  0  0  0  0  0  0  0  0  0  0
   10.8743  -15.8522   24.0058 C   0  0  0  0  0  0  0  0  0  0  0  0
   12.3490  -16.0010   24.0314 O   0  0  0  0  0  0  0  0  0  0  0  0
   13.0537  -15.9218   22.9876 O   0  0  0  0  0  0  0  0  0  0  0  0
  2  1  1  0
  2  4  1  0
  3  2  2  0
  5  4  1  0
  6  5  1  0
  7  6  1  0
  7  8  1  0
  8  9  1  6
  8 10  1  0
 10 11  2  0
 13 14  1  6
 13 15  1  0
 13 12  1  0
 16 10  1  0
 15 16  1  1
 17 15  1  0
 17 18  2  0
 19 20  1  0
 19 17  1  0
 20 21  1  0
 21 22  2  0
 21 23  1  0
M  END
$$$$
