RVG.pdb
     RDKit          3D

 23 22  0  0  1  0  0  0  0  0999 V2000
    7.6998  -14.9107   16.7621 N   0  0  0  0  0  0  0  0  0  0  0  0
    8.0676  -13.7367   17.4600 C   0  0  0  0  0  0  0  0  0  0  0  0
    8.2057  -12.5769   16.8688 N   0  0  0  0  0  0  0  0  0  0  0  0
    8.3143  -13.7344   18.8613 N   0  0  0  0  0  0  0  0  0  0  0  0
    8.5561  -14.9639   19.5891 C   0  0  0  0  0  0  0  0  0  0  0  0
    7.2283  -15.5154   20.0293 C   0  0  0  0  0  0  0  0  0  0  0  0
    6.9332  -15.2450   21.4827 C   0  0  0  0  0  0  0  0  0  0  0  0
    8.0371  -15.7432   22.3891 C   0  0  2  0  0  0  0  0  0  0  0  0
    7.5521  -17.0021   22.9689 N   0  0  0  0  0  0  0  0  0  0  0  0
    8.1904  -14.7272   23.4949 C   0  0  0  0  0  0  0  0  0  0  0  0
    8.0655  -13.5008   23.2536 O   0  0  0  0  0  0  0  0  0  0  0  0
    8.5356  -11.7957   17.4701 C   0  0  0  0  0  0  0  0  0  0  0  0
    6.8628  -12.9266   27.2727 C   0  0  1  0  0  0  0  0  0  0  0  0
    7.1771  -13.5019   25.9339 C   0  0  0  0  0  0  0  0  0  0  0  0
    7.3939  -12.3953   24.8977 C   0  0  1  0  0  0  0  0  0  0  0  0
    8.4776  -14.2674   25.9817 N   0  0  0  0  0  0  0  0  0  0  0  0
    8.4741  -15.1355   24.8060 C   0  0  0  0  0  0  0  0  0  0  0  0
    8.7095  -15.0340   27.2068 O   0  0  0  0  0  0  0  0  0  0  0  0
    8.9302  -14.3654   28.2801 N   0  0  0  0  0  0  0  0  0  0  0  0
    8.7187  -16.4286   27.3654 C   0  0  0  0  0  0  0  0  0  0  0  0
    9.0237  -17.0892   28.6234 C   0  0  0  0  0  0  0  0  0  0  0  0
   10.4023  -17.6267   28.5345 O   0  0  0  0  0  0  0  0  0  0  0  0
   11.1363  -17.4391   27.5253 O   0  0  0  0  0  0  0  0  0  0  0  0
  2  1  1  0
  2  4  1  0
  3  2  2  0
  5  4  1  0
  6  5  1  0
  7  6  1  0
  7  8  1  0
  8  9  1  1
  8 10  1  0
 10 11  2  0
 13 14  1  1
 13 15  1  0
 13 12  1  0
 16 10  1  0
 15 16  1  6
 17 15  1  0
 17 18  2  0
 19 20  1  0
 19 17  1  0
 20 21  1  0
 21 22  2  0
 21 23  1  0
M  END
$$$$
