RVG.pdb
     RDKit          3D

 23 22  0  0  1  0  0  0  0  0999 V2000
    7.3695  -14.8222   16.4447 N   0  0  0  0  0  0  0  0  0  0  0  0
    8.1506  -13.9406   17.2277 C   0  0  0  0  0  0  0  0  0  0  0  0
    7.9932  -12.6414   17.1987 N   0  0  0  0  0  0  0  0  0  0  0  0
    9.1677  -14.4072   18.1066 N   0  0  0  0  0  0  0  0  0  0  0  0
    8.9426  -15.5278   18.9972 C   0  0  0  0  0  0  0  0  0  0  0  0
    7.6411  -15.3003   19.7152 C   0  0  0  0  0  0  0  0  0  0  0  0
    7.8172  -14.6139   21.0459 C   0  0  0  0  0  0  0  0  0  0  0  0
    8.2301  -15.5804   22.1338 C   0  0  2  0  0  0  0  0  0  0  0  0
    7.0326  -16.3660   22.4579 N   0  0  0  0  0  0  0  0  0  0  0  0
    8.6075  -14.7522   23.3381 C   0  0  0  0  0  0  0  0  0  0  0  0
    9.6563  -14.0609   23.3311 O   0  0  0  0  0  0  0  0  0  0  0  0
    8.6584  -12.0891   17.7760 C   0  0  0  0  0  0  0  0  0  0  0  0
    7.0745  -12.5388   27.3747 C   0  0  2  0  0  0  0  0  0  0  0  0
    6.9111  -13.1952   26.0462 C   0  0  0  0  0  0  0  0  0  0  0  0
    6.8594  -12.1558   24.9228 C   0  0  1  0  0  0  0  0  0  0  0  0
    8.1079  -14.0620   25.7364 N   0  0  0  0  0  0  0  0  0  0  0  0
    7.7951  -14.7415   24.4808 C   0  0  0  0  0  0  0  0  0  0  0  0
    8.4762  -15.0193   26.7805 O   0  0  0  0  0  0  0  0  0  0  0  0
    7.6571  -15.9821   27.0040 N   0  0  0  0  0  0  0  0  0  0  0  0
    9.6293  -15.0250   27.5806 C   0  0  0  0  0  0  0  0  0  0  0  0
    9.8338  -15.9488   28.6837 C   0  0  0  0  0  0  0  0  0  0  0  0
   10.6919  -17.0561   28.1990 O   0  0  0  0  0  0  0  0  0  0  0  0
   10.8304  -17.3154   26.9718 O   0  0  0  0  0  0  0  0  0  0  0  0
  2  1  1  0
  2  4  1  0
  3  2  2  0
  5  4  1  0
  6  5  1  0
  7  6  1  0
  7  8  1  0
  8  9  1  1
  8 10  1  0
 10 11  2  0
 13 14  1  1
 13 15  1  0
 13 12  1  0
 16 10  1  0
 15 16  1  1
 17 15  1  0
 17 18  2  0
 19 20  1  0
 19 17  1  0
 20 21  1  0
 21 22  2  0
 21 23  1  0
M  END
$$$$
