RVG.pdb
     RDKit          3D

 23 22  0  0  1  0  0  0  0  0999 V2000
    8.6262  -19.0792   21.0659 N   0  0  0  0  0  0  0  0  0  0  0  0
    7.8313  -18.8165   19.9258 C   0  0  0  0  0  0  0  0  0  0  0  0
    7.9699  -19.4721   18.8013 N   0  0  0  0  0  0  0  0  0  0  0  0
    6.8199  -17.8158   19.9218 N   0  0  0  0  0  0  0  0  0  0  0  0
    6.6791  -16.8779   21.0174 C   0  0  0  0  0  0  0  0  0  0  0  0
    7.9587  -16.0964   21.1313 C   0  0  0  0  0  0  0  0  0  0  0  0
    7.9470  -14.8292   20.3148 C   0  0  0  0  0  0  0  0  0  0  0  0
    7.2757  -13.6879   21.0462 C   0  0  2  0  0  0  0  0  0  0  0  0
    7.5068  -12.4886   20.2310 N   0  0  0  0  0  0  0  0  0  0  0  0
    7.9953  -13.5254   22.3631 C   0  0  0  0  0  0  0  0  0  0  0  0
    9.1712  -13.0848   22.3951 O   0  0  0  0  0  0  0  0  0  0  0  0
    7.3444  -19.1803   18.0240 C   0  0  0  0  0  0  0  0  0  0  0  0
    7.3527  -12.7832   27.1171 C   0  0  2  0  0  0  0  0  0  0  0  0
    6.8890  -12.9668   25.7122 C   0  0  0  0  0  0  0  0  0  0  0  0
    6.6982  -11.6162   25.0159 C   0  0  1  0  0  0  0  0  0  0  0  0
    7.9371  -13.6915   24.9022 N   0  0  0  0  0  0  0  0  0  0  0  0
    7.3639  -13.8629   23.5687 C   0  0  0  0  0  0  0  0  0  0  0  0
    8.3843  -14.9704   25.4559 O   0  0  0  0  0  0  0  0  0  0  0  0
    7.5063  -15.9015   25.5557 N   0  0  0  0  0  0  0  0  0  0  0  0
    9.6705  -15.3195   25.8963 C   0  0  0  0  0  0  0  0  0  0  0  0
   10.0672  -16.6822   26.2088 C   0  0  0  0  0  0  0  0  0  0  0  0
   10.1537  -16.8060   27.6834 O   0  0  0  0  0  0  0  0  0  0  0  0
    9.7448  -15.9009   28.4620 O   0  0  0  0  0  0  0  0  0  0  0  0
  2  1  1  0
  2  4  1  0
  3  2  2  0
  5  4  1  0
  6  5  1  0
  7  6  1  0
  7  8  1  0
  8  9  1  6
  8 10  1  0
 10 11  2  0
 13 14  1  6
 13 15  1  0
 13 12  1  0
 16 10  1  0
 15 16  1  1
 17 15  1  0
 17 18  2  0
 19 20  1  0
 19 17  1  0
 20 21  1  0
 21 22  2  0
 21 23  1  0
M  END
$$$$
