RVG.pdb
     RDKit          3D

 23 22  0  0  1  0  0  0  0  0999 V2000
    8.4361  -19.1489   21.9453 N   0  0  0  0  0  0  0  0  0  0  0  0
    8.3925  -18.9403   20.5470 C   0  0  0  0  0  0  0  0  0  0  0  0
    9.0733  -19.6720   19.7017 N   0  0  0  0  0  0  0  0  0  0  0  0
    7.6009  -17.9149   19.9585 N   0  0  0  0  0  0  0  0  0  0  0  0
    6.7264  -17.0809   20.7583 C   0  0  0  0  0  0  0  0  0  0  0  0
    7.5732  -16.0599   21.4665 C   0  0  0  0  0  0  0  0  0  0  0  0
    7.8642  -14.8483   20.6180 C   0  0  0  0  0  0  0  0  0  0  0  0
    7.3600  -13.5729   21.2563 C   0  0  2  0  0  0  0  0  0  0  0  0
    7.7868  -12.4790   20.3746 N   0  0  0  0  0  0  0  0  0  0  0  0
    8.0700  -13.4334   22.5811 C   0  0  0  0  0  0  0  0  0  0  0  0
    9.2792  -13.0957   22.6221 O   0  0  0  0  0  0  0  0  0  0  0  0
    9.0012  -19.3981   18.7015 C   0  0  0  0  0  0  0  0  0  0  0  0
    7.1515  -11.2175   25.1327 C   0  0  2  0  0  0  0  0  0  0  0  0
    7.1066  -12.5296   25.8389 C   0  0  0  0  0  0  0  0  0  0  0  0
    5.6906  -13.1128   25.8245 C   0  0  2  0  0  0  0  0  0  0  0  0
    7.9655  -13.5433   25.1217 N   0  0  0  0  0  0  0  0  0  0  0  0
    7.3924  -13.6780   23.7840 C   0  0  0  0  0  0  0  0  0  0  0  0
    8.0838  -14.8443   25.7818 O   0  0  0  0  0  0  0  0  0  0  0  0
    7.1027  -15.6603   25.6422 N   0  0  0  0  0  0  0  0  0  0  0  0
    9.1494  -15.3265   26.5577 C   0  0  0  0  0  0  0  0  0  0  0  0
    9.1764  -16.6569   27.1420 C   0  0  0  0  0  0  0  0  0  0  0  0
   10.4077  -17.3365   26.6735 O   0  0  0  0  0  0  0  0  0  0  0  0
   10.6649  -17.4990   25.4488 O   0  0  0  0  0  0  0  0  0  0  0  0
  2  1  1  0
  2  4  1  0
  3  2  2  0
  5  4  1  0
  6  5  1  0
  7  6  1  0
  7  8  1  0
  8  9  1  6
  8 10  1  0
 10 11  2  0
 13 14  1  6
 13 15  1  0
 13 12  1  0
 16 10  1  0
 15 16  1  1
 17 15  1  0
 17 18  2  0
 19 20  1  0
 19 17  1  0
 20 21  1  0
 21 22  2  0
 21 23  1  0
M  END
$$$$
