ILD.pdb
     RDKit          3D

 25 24  0  0  1  0  0  0  0  0999 V2000
    7.7284  -19.4909   19.3101 C   0  0  0  0  0  0  0  0  0  0  0  0
    7.8044  -17.9960   19.4338 C   0  0  0  0  0  0  0  0  0  0  0  0
    8.1427  -17.5013   20.8033 C   0  0  2  0  0  0  0  0  0  0  0  0
    7.1443  -18.1103   21.7703 C   0  0  0  0  0  0  0  0  0  0  0  0
    8.1258  -15.9942   20.8686 C   0  0  2  0  0  0  0  0  0  0  0  0
    9.1949  -15.4889   19.9573 N   0  0  0  0  0  0  0  0  0  0  0  0
    8.4844  -15.4433   22.1934 C   0  0  0  0  0  0  0  0  0  0  0  0
    9.7104  -15.4389   22.5778 O   0  0  0  0  0  0  0  0  0  0  0  0
    5.5943  -12.4774   26.7292 C   0  0  0  0  0  0  0  0  0  0  0  0
    6.9528  -13.1020   26.3539 C   0  0  2  0  0  0  0  0  0  0  0  0
    7.9943  -12.0805   26.6466 C   0  0  0  0  0  0  0  0  0  0  0  0
    6.8935  -13.5885   24.9631 C   0  0  0  0  0  0  0  0  0  0  0  0
    8.0615  -14.3602   24.4452 C   0  0  2  0  0  0  0  0  0  0  0  0
    7.5943  -14.8898   23.1357 N   0  0  0  0  0  0  0  0  0  0  0  0
    8.4503  -15.5196   25.2846 C   0  0  0  0  0  0  0  0  0  0  0  0
    7.6013  -16.4412   25.4971 O   0  0  0  0  0  0  0  0  0  0  0  0
    9.7020  -15.6998   25.8799 N   0  0  0  0  0  0  0  0  0  0  0  0
   10.0784  -16.9529   26.5569 C   0  0  1  0  0  0  0  0  0  0  0  0
   11.2250  -17.6133   25.8796 C   0  0  0  0  0  0  0  0  0  0  0  0
   10.9485  -19.0448   25.6930 C   0  0  0  0  0  0  0  0  0  0  0  0
    9.8080  -19.4993   25.4605 O   0  0  0  0  0  0  0  0  0  0  0  0
   10.4338  -16.6425   27.9586 C   0  0  0  0  0  0  0  0  0  0  0  0
   10.4117  -17.5885   28.9546 O   0  0  0  0  0  0  0  0  0  0  0  0
   12.0013  -19.9367   25.7784 O   0  0  0  0  0  0  0  0  0  0  0  0
   10.7739  -15.4713   28.2866 O   0  0  0  0  0  0  0  0  0  0  0  0
  2  1  1  0
  3  2  1  0
  3  4  1  1
  3  5  1  0
  5  6  1  6
  7  8  2  0
  7  5  1  0
 10  9  1  6
 10 12  1  0
 11 10  1  0
 13 12  1  1
 13 14  1  0
 14  7  1  0
 15 13  1  0
 16 15  2  0
 17 15  1  0
 18 22  1  0
 18 17  1  0
 19 20  1  0
 18 19  1  6
 20 24  1  0
 21 20  2  0
 22 23  1  0
 25 22  2  0
M  END
$$$$
