ILD.pdb
     RDKit          3D

 25 24  0  0  1  0  0  0  0  0999 V2000
    7.3898  -12.0904   19.8971 C   0  0  0  0  0  0  0  0  0  0  0  0
    7.4834  -13.2470   20.8508 C   0  0  0  0  0  0  0  0  0  0  0  0
    8.2792  -14.4073   20.3457 C   0  0  2  0  0  0  0  0  0  0  0  0
    7.6313  -14.8817   19.0582 C   0  0  0  0  0  0  0  0  0  0  0  0
    8.3541  -15.5151   21.3670 C   0  0  2  0  0  0  0  0  0  0  0  0
    6.9651  -16.0078   21.6043 N   0  0  0  0  0  0  0  0  0  0  0  0
    8.8192  -15.0763   22.7005 C   0  0  0  0  0  0  0  0  0  0  0  0
   10.0148  -14.6304   22.8501 O   0  0  0  0  0  0  0  0  0  0  0  0
    7.7365  -11.8144   25.9273 C   0  0  0  0  0  0  0  0  0  0  0  0
    6.7539  -12.9781   25.6892 C   0  0  2  0  0  0  0  0  0  0  0  0
    5.5300  -12.6799   26.4811 C   0  0  0  0  0  0  0  0  0  0  0  0
    7.4303  -14.2523   25.9951 C   0  0  0  0  0  0  0  0  0  0  0  0
    8.6305  -14.6151   25.1853 C   0  0  2  0  0  0  0  0  0  0  0  0
    8.0663  -15.0866   23.8919 N   0  0  0  0  0  0  0  0  0  0  0  0
    9.4395  -15.7219   25.7515 C   0  0  0  0  0  0  0  0  0  0  0  0
    9.9469  -15.5872   26.9089 O   0  0  0  0  0  0  0  0  0  0  0  0
    9.7018  -16.9370   25.1126 N   0  0  0  0  0  0  0  0  0  0  0  0
   10.5790  -17.9632   25.7024 C   0  0  1  0  0  0  0  0  0  0  0  0
    9.8714  -19.2617   25.8528 C   0  0  0  0  0  0  0  0  0  0  0  0
    9.4270  -19.4398   27.2425 C   0  0  0  0  0  0  0  0  0  0  0  0
    9.6514  -18.6077   28.1471 O   0  0  0  0  0  0  0  0  0  0  0  0
   11.7597  -18.1326   24.8281 C   0  0  0  0  0  0  0  0  0  0  0  0
   12.9143  -18.7436   25.2536 O   0  0  0  0  0  0  0  0  0  0  0  0
    8.7247  -20.5849   27.5689 O   0  0  0  0  0  0  0  0  0  0  0  0
   11.7393  -17.7088   23.6385 O   0  0  0  0  0  0  0  0  0  0  0  0
  2  1  1  0
  3  2  1  0
  3  4  1  6
  3  5  1  0
  5  6  1  1
  7  8  2  0
  7  5  1  0
 10  9  1  1
 10 12  1  0
 11 10  1  0
 13 12  1  1
 13 14  1  0
 14  7  1  0
 15 13  1  0
 16 15  2  0
 17 15  1  0
 18 22  1  0
 18 17  1  0
 19 20  1  0
 18 19  1  6
 20 24  1  0
 21 20  2  0
 22 23  1  0
 25 22  2  0
M  END
$$$$
