ILD.pdb
     RDKit          3D

 25 24  0  0  1  0  0  0  0  0999 V2000
    8.7580  -19.5584   21.8068 C   0  0  0  0  0  0  0  0  0  0  0  0
    8.8120  -18.0619   21.6903 C   0  0  0  0  0  0  0  0  0  0  0  0
    7.4764  -17.3905   21.6725 C   0  0  2  0  0  0  0  0  0  0  0  0
    6.6986  -17.9483   20.4950 C   0  0  0  0  0  0  0  0  0  0  0  0
    7.6108  -15.8904   21.5848 C   0  0  2  0  0  0  0  0  0  0  0  0
    8.5308  -15.5832   20.4500 N   0  0  0  0  0  0  0  0  0  0  0  0
    8.2617  -15.2729   22.7605 C   0  0  0  0  0  0  0  0  0  0  0  0
    9.4674  -14.8376   22.6733 O   0  0  0  0  0  0  0  0  0  0  0  0
    7.4181  -11.5716   25.4382 C   0  0  0  0  0  0  0  0  0  0  0  0
    6.4980  -12.7902   25.6502 C   0  0  2  0  0  0  0  0  0  0  0  0
    5.4384  -12.3711   26.6071 C   0  0  0  0  0  0  0  0  0  0  0  0
    7.3158  -13.9490   26.0540 C   0  0  0  0  0  0  0  0  0  0  0  0
    8.4034  -14.3888   25.1313 C   0  0  2  0  0  0  0  0  0  0  0  0
    7.6859  -15.0923   24.0341 N   0  0  0  0  0  0  0  0  0  0  0  0
    9.3620  -15.3501   25.7287 C   0  0  0  0  0  0  0  0  0  0  0  0
   10.1785  -14.9405   26.6123 O   0  0  0  0  0  0  0  0  0  0  0  0
    9.4523  -16.7062   25.4025 N   0  0  0  0  0  0  0  0  0  0  0  0
   10.5632  -17.5551   25.8666 C   0  0  1  0  0  0  0  0  0  0  0  0
   11.8656  -16.8445   25.7739 C   0  0  0  0  0  0  0  0  0  0  0  0
   12.6732  -17.4054   24.6813 C   0  0  0  0  0  0  0  0  0  0  0  0
   12.2407  -18.2553   23.8740 O   0  0  0  0  0  0  0  0  0  0  0  0
   10.3030  -17.9463   27.2690 C   0  0  0  0  0  0  0  0  0  0  0  0
    9.2080  -17.5027   27.9702 O   0  0  0  0  0  0  0  0  0  0  0  0
   13.9782  -16.9728   24.5365 O   0  0  0  0  0  0  0  0  0  0  0  0
   11.1000  -18.7157   27.8754 O   0  0  0  0  0  0  0  0  0  0  0  0
  2  1  1  0
  3  2  1  0
  3  4  1  6
  3  5  1  0
  5  6  1  6
  7  8  2  0
  7  5  1  0
 10  9  1  1
 10 12  1  0
 11 10  1  0
 13 12  1  1
 13 14  1  0
 14  7  1  0
 15 13  1  0
 16 15  2  0
 17 15  1  0
 18 22  1  0
 18 17  1  0
 19 20  1  0
 18 19  1  1
 20 24  1  0
 21 20  2  0
 22 23  1  0
 25 22  2  0
M  END
$$$$
