ILD.pdb
     RDKit          3D

 25 24  0  0  1  0  0  0  0  0999 V2000
    7.1443  -12.5536   17.7829 C   0  0  0  0  0  0  0  0  0  0  0  0
    7.5011  -13.8123   18.5206 C   0  0  0  0  0  0  0  0  0  0  0  0
    7.9093  -13.6051   19.9436 C   0  0  2  0  0  0  0  0  0  0  0  0
    9.1180  -12.6878   19.9449 C   0  0  0  0  0  0  0  0  0  0  0  0
    8.2090  -14.9142   20.6310 C   0  0  2  0  0  0  0  0  0  0  0  0
    6.9384  -15.6955   20.6922 N   0  0  0  0  0  0  0  0  0  0  0  0
    8.6199  -14.7735   22.0447 C   0  0  0  0  0  0  0  0  0  0  0  0
    9.8463  -14.5247   22.3363 O   0  0  0  0  0  0  0  0  0  0  0  0
    6.0429  -12.8020   27.1109 C   0  0  0  0  0  0  0  0  0  0  0  0
    7.3473  -13.4471   26.6022 C   0  0  2  0  0  0  0  0  0  0  0  0
    8.4377  -12.4627   26.8384 C   0  0  0  0  0  0  0  0  0  0  0  0
    7.1584  -13.8839   25.2064 C   0  0  0  0  0  0  0  0  0  0  0  0
    8.2767  -14.6240   24.5512 C   0  0  2  0  0  0  0  0  0  0  0  0
    7.7815  -14.8829   23.1723 N   0  0  0  0  0  0  0  0  0  0  0  0
    8.5881  -15.9358   25.1693 C   0  0  0  0  0  0  0  0  0  0  0  0
    7.6372  -16.7380   25.4290 O   0  0  0  0  0  0  0  0  0  0  0  0
    9.8688  -16.3869   25.5007 N   0  0  0  0  0  0  0  0  0  0  0  0
   10.1098  -17.7252   26.0672 C   0  0  1  0  0  0  0  0  0  0  0  0
   11.3880  -18.3020   25.5741 C   0  0  0  0  0  0  0  0  0  0  0  0
   11.4748  -18.1687   24.1129 C   0  0  0  0  0  0  0  0  0  0  0  0
   10.6920  -18.7392   23.3236 O   0  0  0  0  0  0  0  0  0  0  0  0
   10.1448  -17.6133   27.5416 C   0  0  0  0  0  0  0  0  0  0  0  0
   10.1692  -18.7114   28.3668 O   0  0  0  0  0  0  0  0  0  0  0  0
   12.4720  -17.3726   23.5811 O   0  0  0  0  0  0  0  0  0  0  0  0
   10.1517  -16.4785   28.0956 O   0  0  0  0  0  0  0  0  0  0  0  0
  2  1  1  0
  3  2  1  0
  3  4  1  6
  3  5  1  0
  5  6  1  1
  7  8  2  0
  7  5  1  0
 10  9  1  6
 10 12  1  0
 11 10  1  0
 13 12  1  1
 13 14  1  0
 14  7  1  0
 15 13  1  0
 16 15  2  0
 17 15  1  0
 18 22  1  0
 18 17  1  0
 19 20  1  0
 18 19  1  6
 20 24  1  0
 21 20  2  0
 22 23  1  0
 25 22  2  0
M  END
$$$$
