ILD.pdb
     RDKit          3D

 25 24  0  0  1  0  0  0  0  0999 V2000
    8.0592  -21.4193   24.4076 C   0  0  0  0  0  0  0  0  0  0  0  0
    7.3692  -20.2161   23.8314 C   0  0  0  0  0  0  0  0  0  0  0  0
    6.1994  -19.7300   24.6251 C   0  0  2  0  0  0  0  0  0  0  0  0
    5.1951  -20.8649   24.7034 C   0  0  0  0  0  0  0  0  0  0  0  0
    5.5888  -18.4937   24.0130 C   0  0  2  0  0  0  0  0  0  0  0  0
    5.2588  -18.8073   22.5913 N   0  0  0  0  0  0  0  0  0  0  0  0
    6.5134  -17.3425   23.9282 C   0  0  0  0  0  0  0  0  0  0  0  0
    7.1118  -17.0783   22.8223 O   0  0  0  0  0  0  0  0  0  0  0  0
    6.8194  -12.4341   24.7486 C   0  0  0  0  0  0  0  0  0  0  0  0
    6.4666  -13.4608   25.8431 C   0  0  2  0  0  0  0  0  0  0  0  0
    6.1515  -12.6886   27.0753 C   0  0  0  0  0  0  0  0  0  0  0  0
    7.5605  -14.4434   25.9549 C   0  0  0  0  0  0  0  0  0  0  0  0
    7.8099  -15.3429   24.7902 C   0  0  2  0  0  0  0  0  0  0  0  0
    6.8326  -16.4499   24.9712 N   0  0  0  0  0  0  0  0  0  0  0  0
    9.1660  -15.9428   24.7591 C   0  0  0  0  0  0  0  0  0  0  0  0
    9.4293  -16.9160   25.5329 O   0  0  0  0  0  0  0  0  0  0  0  0
   10.2125  -15.5268   23.9312 N   0  0  0  0  0  0  0  0  0  0  0  0
   11.4523  -16.3075   23.7772 C   0  0  1  0  0  0  0  0  0  0  0  0
   12.2641  -15.8179   22.6323 C   0  0  0  0  0  0  0  0  0  0  0  0
   13.4901  -16.6179   22.5004 C   0  0  0  0  0  0  0  0  0  0  0  0
   14.1114  -17.0884   23.4770 O   0  0  0  0  0  0  0  0  0  0  0  0
   12.2336  -16.2024   25.0286 C   0  0  0  0  0  0  0  0  0  0  0  0
   11.9035  -15.3286   26.0361 O   0  0  0  0  0  0  0  0  0  0  0  0
   13.9838  -16.8643   21.2329 O   0  0  0  0  0  0  0  0  0  0  0  0
   13.2507  -16.9290   25.2091 O   0  0  0  0  0  0  0  0  0  0  0  0
  2  1  1  0
  3  2  1  0
  3  4  1  6
  3  5  1  0
  5  6  1  6
  7  8  2  0
  7  5  1  0
 10  9  1  6
 10 12  1  0
 11 10  1  0
 13 12  1  1
 13 14  1  0
 14  7  1  0
 15 13  1  0
 16 15  2  0
 17 15  1  0
 18 22  1  0
 18 17  1  0
 19 20  1  0
 18 19  1  6
 20 24  1  0
 21 20  2  0
 22 23  1  0
 25 22  2  0
M  END
$$$$
