ILD.pdb
     RDKit          3D

 25 24  0  0  1  0  0  0  0  0999 V2000
    7.4781  -11.1293   26.8961 C   0  0  0  0  0  0  0  0  0  0  0  0
    7.7235  -12.6109   26.8755 C   0  0  0  0  0  0  0  0  0  0  0  0
    7.0529  -13.3372   25.7541 C   0  0  2  0  0  0  0  0  0  0  0  0
    5.5551  -13.1683   25.9293 C   0  0  0  0  0  0  0  0  0  0  0  0
    7.4445  -14.7938   25.7238 C   0  0  2  0  0  0  0  0  0  0  0  0
    8.8430  -14.8980   26.2354 N   0  0  0  0  0  0  0  0  0  0  0  0
    7.5083  -15.3735   24.3647 C   0  0  0  0  0  0  0  0  0  0  0  0
    6.6759  -16.2879   24.0158 O   0  0  0  0  0  0  0  0  0  0  0  0
    6.3919  -13.5332   20.8334 C   0  0  0  0  0  0  0  0  0  0  0  0
    7.8531  -13.3179   21.2752 C   0  0  2  0  0  0  0  0  0  0  0  0
    8.3482  -12.1110   20.5595 C   0  0  0  0  0  0  0  0  0  0  0  0
    8.6136  -14.5617   21.0531 C   0  0  0  0  0  0  0  0  0  0  0  0
    8.4104  -15.6833   22.0168 C   0  0  2  0  0  0  0  0  0  0  0  0
    8.4210  -15.0225   23.3497 N   0  0  0  0  0  0  0  0  0  0  0  0
    9.4914  -16.6988   22.0113 C   0  0  0  0  0  0  0  0  0  0  0  0
    9.7190  -17.3535   20.9461 O   0  0  0  0  0  0  0  0  0  0  0  0
   10.3097  -17.0107   23.1006 N   0  0  0  0  0  0  0  0  0  0  0  0
   11.4329  -17.9582   22.9955 C   0  0  1  0  0  0  0  0  0  0  0  0
   12.7359  -17.2485   22.9048 C   0  0  0  0  0  0  0  0  0  0  0  0
   13.8347  -18.2176   22.7875 C   0  0  0  0  0  0  0  0  0  0  0  0
   14.8183  -18.0527   22.0348 O   0  0  0  0  0  0  0  0  0  0  0  0
   11.4209  -18.8366   24.1853 C   0  0  0  0  0  0  0  0  0  0  0  0
   11.8540  -20.1399   24.1475 O   0  0  0  0  0  0  0  0  0  0  0  0
   13.7806  -19.3715   23.5470 O   0  0  0  0  0  0  0  0  0  0  0  0
   11.0008  -18.4031   25.2946 O   0  0  0  0  0  0  0  0  0  0  0  0
  2  1  1  0
  3  2  1  0
  3  4  1  1
  3  5  1  0
  5  6  1  6
  7  8  2  0
  7  5  1  0
 10  9  1  6
 10 12  1  0
 11 10  1  0
 13 12  1  6
 13 14  1  0
 14  7  1  0
 15 13  1  0
 16 15  2  0
 17 15  1  0
 18 22  1  0
 18 17  1  0
 19 20  1  0
 18 19  1  1
 20 24  1  0
 21 20  2  0
 22 23  1  0
 25 22  2  0
M  END
$$$$
