ILD.pdb
     RDKit          3D

 25 24  0  0  1  0  0  0  0  0999 V2000
   11.5464  -14.7994   30.4392 C   0  0  0  0  0  0  0  0  0  0  0  0
   10.6396  -15.8621   29.8877 C   0  0  0  0  0  0  0  0  0  0  0  0
    9.9981  -15.5168   28.5823 C   0  0  2  0  0  0  0  0  0  0  0  0
    9.3583  -14.1491   28.7335 C   0  0  0  0  0  0  0  0  0  0  0  0
    8.9865  -16.5569   28.1690 C   0  0  2  0  0  0  0  0  0  0  0  0
    9.7053  -17.8578   28.0287 N   0  0  0  0  0  0  0  0  0  0  0  0
    8.3905  -16.3230   26.8359 C   0  0  0  0  0  0  0  0  0  0  0  0
    7.8791  -17.3019   26.1793 O   0  0  0  0  0  0  0  0  0  0  0  0
    5.4813  -13.2862   26.2432 C   0  0  0  0  0  0  0  0  0  0  0  0
    6.9171  -12.8417   25.9009 C   0  0  2  0  0  0  0  0  0  0  0  0
    6.9079  -11.3548   25.8445 C   0  0  0  0  0  0  0  0  0  0  0  0
    7.3588  -13.5348   24.6765 C   0  0  0  0  0  0  0  0  0  0  0  0
    7.7458  -14.9717   24.7911 C   0  0  2  0  0  0  0  0  0  0  0  0
    8.3093  -15.0871   26.1632 N   0  0  0  0  0  0  0  0  0  0  0  0
    8.7972  -15.4009   23.8372 C   0  0  0  0  0  0  0  0  0  0  0  0
    8.5264  -15.4418   22.5961 O   0  0  0  0  0  0  0  0  0  0  0  0
   10.0984  -15.7734   24.1859 N   0  0  0  0  0  0  0  0  0  0  0  0
   11.1081  -16.1428   23.1787 C   0  0  1  0  0  0  0  0  0  0  0  0
   12.4146  -15.4894   23.4539 C   0  0  0  0  0  0  0  0  0  0  0  0
   13.3672  -15.7845   22.3741 C   0  0  0  0  0  0  0  0  0  0  0  0
   13.0175  -16.0742   21.2101 O   0  0  0  0  0  0  0  0  0  0  0  0
   11.2691  -17.6130   23.1904 C   0  0  0  0  0  0  0  0  0  0  0  0
   11.9908  -18.2861   22.2347 O   0  0  0  0  0  0  0  0  0  0  0  0
   14.7196  -15.7401   22.6571 O   0  0  0  0  0  0  0  0  0  0  0  0
   10.7337  -18.3066   24.0999 O   0  0  0  0  0  0  0  0  0  0  0  0
  2  1  1  0
  3  2  1  0
  3  4  1  1
  3  5  1  0
  5  6  1  6
  7  8  2  0
  7  5  1  0
 10  9  1  6
 10 12  1  0
 11 10  1  0
 13 12  1  6
 13 14  1  0
 14  7  1  0
 15 13  1  0
 16 15  2  0
 17 15  1  0
 18 22  1  0
 18 17  1  0
 19 20  1  0
 18 19  1  1
 20 24  1  0
 21 20  2  0
 22 23  1  0
 25 22  2  0
M  END
$$$$
