ILD.pdb
     RDKit          3D

 25 24  0  0  1  0  0  0  0  0999 V2000
    7.4103  -18.9265   19.1721 C   0  0  0  0  0  0  0  0  0  0  0  0
    7.4876  -17.4678   19.5214 C   0  0  0  0  0  0  0  0  0  0  0  0
    7.9541  -17.1850   20.9132 C   0  0  2  0  0  0  0  0  0  0  0  0
    7.1278  -18.0397   21.8562 C   0  0  0  0  0  0  0  0  0  0  0  0
    7.8367  -15.7192   21.2505 C   0  0  2  0  0  0  0  0  0  0  0  0
    8.7349  -14.9676   20.3248 N   0  0  0  0  0  0  0  0  0  0  0  0
    8.3281  -15.3693   22.6008 C   0  0  0  0  0  0  0  0  0  0  0  0
    9.5909  -15.3021   22.8282 O   0  0  0  0  0  0  0  0  0  0  0  0
    7.9059  -11.9019   25.7470 C   0  0  0  0  0  0  0  0  0  0  0  0
    6.6891  -12.8131   25.4908 C   0  0  2  0  0  0  0  0  0  0  0  0
    5.5399  -12.2166   26.2240 C   0  0  0  0  0  0  0  0  0  0  0  0
    7.0393  -14.1997   25.8506 C   0  0  0  0  0  0  0  0  0  0  0  0
    8.1276  -14.8661   25.0765 C   0  0  2  0  0  0  0  0  0  0  0  0
    7.5342  -15.0825   23.7294 N   0  0  0  0  0  0  0  0  0  0  0  0
    8.5329  -16.1910   25.6059 C   0  0  0  0  0  0  0  0  0  0  0  0
    7.7000  -17.1504   25.5739 O   0  0  0  0  0  0  0  0  0  0  0  0
    9.7840  -16.4926   26.1510 N   0  0  0  0  0  0  0  0  0  0  0  0
   10.1522  -17.8563   26.5695 C   0  0  1  0  0  0  0  0  0  0  0  0
   11.3333  -18.3553   25.8176 C   0  0  0  0  0  0  0  0  0  0  0  0
   11.7613  -19.6567   26.3500 C   0  0  0  0  0  0  0  0  0  0  0  0
   10.9658  -20.5140   26.7898 O   0  0  0  0  0  0  0  0  0  0  0  0
   10.4489  -17.8403   28.0183 C   0  0  0  0  0  0  0  0  0  0  0  0
   10.3588  -16.7004   28.7798 O   0  0  0  0  0  0  0  0  0  0  0  0
   13.1120  -19.9507   26.3666 O   0  0  0  0  0  0  0  0  0  0  0  0
   10.8032  -18.8989   28.6091 O   0  0  0  0  0  0  0  0  0  0  0  0
  2  1  1  0
  3  2  1  0
  3  4  1  1
  3  5  1  0
  5  6  1  6
  7  8  2  0
  7  5  1  0
 10  9  1  1
 10 12  1  0
 11 10  1  0
 13 12  1  1
 13 14  1  0
 14  7  1  0
 15 13  1  0
 16 15  2  0
 17 15  1  0
 18 22  1  0
 18 17  1  0
 19 20  1  0
 18 19  1  6
 20 24  1  0
 21 20  2  0
 22 23  1  0
 25 22  2  0
M  END
$$$$
