ILD.pdb
     RDKit          3D

 25 24  0  0  1  0  0  0  0  0999 V2000
    7.3534  -13.1909   17.6872 C   0  0  0  0  0  0  0  0  0  0  0  0
    7.6292  -14.2613   18.7041 C   0  0  0  0  0  0  0  0  0  0  0  0
    8.0589  -13.7523   20.0424 C   0  0  2  0  0  0  0  0  0  0  0  0
    9.2618  -12.8530   19.8262 C   0  0  0  0  0  0  0  0  0  0  0  0
    8.3777  -14.8826   20.9895 C   0  0  2  0  0  0  0  0  0  0  0  0
    7.1375  -15.6963   21.1581 N   0  0  0  0  0  0  0  0  0  0  0  0
    8.7161  -14.4438   22.3607 C   0  0  0  0  0  0  0  0  0  0  0  0
    9.9120  -14.0645   22.6378 O   0  0  0  0  0  0  0  0  0  0  0  0
    5.7514  -12.5740   27.3602 C   0  0  0  0  0  0  0  0  0  0  0  0
    7.1631  -12.8662   26.8141 C   0  0  2  0  0  0  0  0  0  0  0  0
    7.9509  -11.6122   26.9580 C   0  0  0  0  0  0  0  0  0  0  0  0
    7.0501  -13.4084   25.4474 C   0  0  0  0  0  0  0  0  0  0  0  0
    8.2859  -13.9494   24.8088 C   0  0  2  0  0  0  0  0  0  0  0  0
    7.8356  -14.3860   23.4597 N   0  0  0  0  0  0  0  0  0  0  0  0
    8.8617  -15.1323   25.4937 C   0  0  0  0  0  0  0  0  0  0  0  0
    9.1528  -15.0507   26.7282 O   0  0  0  0  0  0  0  0  0  0  0  0
    9.1196  -16.3665   24.8907 N   0  0  0  0  0  0  0  0  0  0  0  0
    9.7716  -17.4737   25.6113 C   0  0  1  0  0  0  0  0  0  0  0  0
    9.1859  -18.7869   25.2344 C   0  0  0  0  0  0  0  0  0  0  0  0
    9.9029  -19.8760   25.9128 C   0  0  0  0  0  0  0  0  0  0  0  0
   10.2582  -19.8235   27.1095 O   0  0  0  0  0  0  0  0  0  0  0  0
   11.2157  -17.4575   25.2926 C   0  0  0  0  0  0  0  0  0  0  0  0
   11.6887  -17.3991   24.0041 O   0  0  0  0  0  0  0  0  0  0  0  0
   10.2010  -21.0182   25.1933 O   0  0  0  0  0  0  0  0  0  0  0  0
   12.0741  -17.4994   26.2180 O   0  0  0  0  0  0  0  0  0  0  0  0
  2  1  1  0
  3  2  1  0
  3  4  1  6
  3  5  1  0
  5  6  1  1
  7  8  2  0
  7  5  1  0
 10  9  1  6
 10 12  1  0
 11 10  1  0
 13 12  1  1
 13 14  1  0
 14  7  1  0
 15 13  1  0
 16 15  2  0
 17 15  1  0
 18 22  1  0
 18 17  1  0
 19 20  1  0
 18 19  1  6
 20 24  1  0
 21 20  2  0
 22 23  1  0
 25 22  2  0
M  END
$$$$
