ILD.pdb
     RDKit          3D

 25 24  0  0  1  0  0  0  0  0999 V2000
    6.8901  -20.4364   23.0532 C   0  0  0  0  0  0  0  0  0  0  0  0
    6.9242  -19.0196   22.5558 C   0  0  0  0  0  0  0  0  0  0  0  0
    5.6958  -18.2237   22.8596 C   0  0  2  0  0  0  0  0  0  0  0  0
    4.5456  -18.8431   22.0876 C   0  0  0  0  0  0  0  0  0  0  0  0
    5.8768  -16.7680   22.5073 C   0  0  2  0  0  0  0  0  0  0  0  0
    6.2982  -16.6967   21.0770 N   0  0  0  0  0  0  0  0  0  0  0  0
    6.9712  -16.1001   23.2445 C   0  0  0  0  0  0  0  0  0  0  0  0
    8.1395  -16.0088   22.7176 O   0  0  0  0  0  0  0  0  0  0  0  0
    7.5229  -11.8947   25.1856 C   0  0  0  0  0  0  0  0  0  0  0  0
    6.6428  -12.9546   25.8773 C   0  0  2  0  0  0  0  0  0  0  0  0
    5.9025  -12.2595   26.9648 C   0  0  0  0  0  0  0  0  0  0  0  0
    7.4881  -14.0901   26.2904 C   0  0  0  0  0  0  0  0  0  0  0  0
    8.0690  -14.9516   25.2189 C   0  0  2  0  0  0  0  0  0  0  0  0
    6.8810  -15.5174   24.5246 N   0  0  0  0  0  0  0  0  0  0  0  0
    8.8795  -16.0885   25.7192 C   0  0  0  0  0  0  0  0  0  0  0  0
    8.2931  -17.0636   26.2855 O   0  0  0  0  0  0  0  0  0  0  0  0
   10.2698  -16.1920   25.6208 N   0  0  0  0  0  0  0  0  0  0  0  0
   11.0181  -17.3206   26.2011 C   0  0  1  0  0  0  0  0  0  0  0  0
   12.3733  -17.4394   25.6020 C   0  0  0  0  0  0  0  0  0  0  0  0
   12.2865  -17.3882   24.1357 C   0  0  0  0  0  0  0  0  0  0  0  0
   11.5461  -18.1387   23.4650 O   0  0  0  0  0  0  0  0  0  0  0  0
   11.1306  -17.1104   27.6607 C   0  0  0  0  0  0  0  0  0  0  0  0
   11.7449  -18.0141   28.4935 O   0  0  0  0  0  0  0  0  0  0  0  0
   13.0620  -16.4640   23.4608 O   0  0  0  0  0  0  0  0  0  0  0  0
   10.6523  -16.0707   28.1946 O   0  0  0  0  0  0  0  0  0  0  0  0
  2  1  1  0
  3  2  1  0
  3  4  1  6
  3  5  1  0
  5  6  1  6
  7  8  2  0
  7  5  1  0
 10  9  1  1
 10 12  1  0
 11 10  1  0
 13 12  1  1
 13 14  1  0
 14  7  1  0
 15 13  1  0
 16 15  2  0
 17 15  1  0
 18 22  1  0
 18 17  1  0
 19 20  1  0
 18 19  1  6
 20 24  1  0
 21 20  2  0
 22 23  1  0
 25 22  2  0
M  END
$$$$
