ILD.pdb
     RDKit          3D

 25 24  0  0  1  0  0  0  0  0999 V2000
    7.7296  -18.0020   18.9891 C   0  0  0  0  0  0  0  0  0  0  0  0
    7.5129  -16.6092   19.5074 C   0  0  0  0  0  0  0  0  0  0  0  0
    8.0109  -16.3781   20.8979 C   0  0  2  0  0  0  0  0  0  0  0  0
    7.4904  -17.5092   21.7651 C   0  0  0  0  0  0  0  0  0  0  0  0
    7.5774  -15.0330   21.4260 C   0  0  2  0  0  0  0  0  0  0  0  0
    8.0471  -13.9946   20.4618 N   0  0  0  0  0  0  0  0  0  0  0  0
    8.2112  -14.6550   22.7076 C   0  0  0  0  0  0  0  0  0  0  0  0
    9.4010  -14.1701   22.7185 O   0  0  0  0  0  0  0  0  0  0  0  0
    7.6314  -11.5160   25.8751 C   0  0  0  0  0  0  0  0  0  0  0  0
    6.6092  -12.6698   25.8601 C   0  0  2  0  0  0  0  0  0  0  0  0
    5.5115  -12.2875   26.7891 C   0  0  0  0  0  0  0  0  0  0  0  0
    7.3038  -13.9351   26.1621 C   0  0  0  0  0  0  0  0  0  0  0  0
    8.3729  -14.3838   25.2222 C   0  0  2  0  0  0  0  0  0  0  0  0
    7.6342  -14.7663   23.9887 N   0  0  0  0  0  0  0  0  0  0  0  0
    9.1297  -15.5747   25.6790 C   0  0  0  0  0  0  0  0  0  0  0  0
    9.7125  -15.5411   26.8079 O   0  0  0  0  0  0  0  0  0  0  0  0
    9.2639  -16.7677   24.9632 N   0  0  0  0  0  0  0  0  0  0  0  0
   10.0679  -17.8976   25.4602 C   0  0  1  0  0  0  0  0  0  0  0  0
    9.6597  -19.1770   24.8229 C   0  0  0  0  0  0  0  0  0  0  0  0
    9.9023  -19.1227   23.3743 C   0  0  0  0  0  0  0  0  0  0  0  0
   11.0035  -18.8095   22.8738 O   0  0  0  0  0  0  0  0  0  0  0  0
   11.4926  -17.6248   25.1719 C   0  0  0  0  0  0  0  0  0  0  0  0
   12.5090  -18.4175   25.6474 O   0  0  0  0  0  0  0  0  0  0  0  0
    8.8616  -19.4332   22.5190 O   0  0  0  0  0  0  0  0  0  0  0  0
   11.8220  -16.6313   24.4652 O   0  0  0  0  0  0  0  0  0  0  0  0
  2  1  1  0
  3  2  1  0
  3  4  1  1
  3  5  1  0
  5  6  1  6
  7  8  2  0
  7  5  1  0
 10  9  1  1
 10 12  1  0
 11 10  1  0
 13 12  1  1
 13 14  1  0
 14  7  1  0
 15 13  1  0
 16 15  2  0
 17 15  1  0
 18 22  1  0
 18 17  1  0
 19 20  1  0
 18 19  1  6
 20 24  1  0
 21 20  2  0
 22 23  1  0
 25 22  2  0
M  END
$$$$
