KGE.pdb
     RDKit          3D

 23 22  0  0  1  0  0  0  0  0999 V2000
    5.0153  -16.6934   22.8299 N   0  0  0  0  0  0  0  0  0  0  0  0
    5.8263  -17.5388   22.0057 C   0  0  1  0  0  0  0  0  0  0  0  0
    6.5881  -16.7544   20.9632 C   0  0  0  0  0  0  0  0  0  0  0  0
    6.9571  -15.3718   21.3746 C   0  0  0  0  0  0  0  0  0  0  0  0
    7.5437  -14.5088   20.3060 C   0  0  0  0  0  0  0  0  0  0  0  0
    7.7273  -13.0816   20.7266 C   0  0  0  0  0  0  0  0  0  0  0  0
    8.3590  -12.3715   19.6317 N   0  0  0  0  0  0  0  0  0  0  0  0
    6.8175  -18.3229   22.7774 C   0  0  0  0  0  0  0  0  0  0  0  0
    7.9412  -18.5359   22.2537 O   0  0  0  0  0  0  0  0  0  0  0  0
    6.5858  -18.8537   24.0742 N   0  0  0  0  0  0  0  0  0  0  0  0
    7.5592  -19.6212   24.7995 C   0  0  0  0  0  0  0  0  0  0  0  0
    8.6115  -18.7744   25.4127 C   0  0  0  0  0  0  0  0  0  0  0  0
    9.8143  -19.1110   25.2864 O   0  0  0  0  0  0  0  0  0  0  0  0
    8.3016  -17.5958   26.1377 N   0  0  0  0  0  0  0  0  0  0  0  0
    9.3313  -16.7577   26.7466 C   0  0  1  0  0  0  0  0  0  0  0  0
    8.7074  -15.4001   26.9155 C   0  0  0  0  0  0  0  0  0  0  0  0
    8.3585  -14.6923   25.6465 C   0  0  0  0  0  0  0  0  0  0  0  0
    7.7459  -13.3874   25.8678 C   0  0  0  0  0  0  0  0  0  0  0  0
    7.7578  -12.7440   26.9405 O   0  0  0  0  0  0  0  0  0  0  0  0
    9.8531  -17.3502   27.9813 C   0  0  0  0  0  0  0  0  0  0  0  0
   11.0165  -16.8272   28.5352 O   0  0  0  0  0  0  0  0  0  0  0  0
    7.0755  -12.7777   24.7924 O   0  0  0  0  0  0  0  0  0  0  0  0
    9.3226  -18.3090   28.5876 O   0  0  0  0  0  0  0  0  0  0  0  0
  2  8  1  0
  2  1  1  1
  3  2  1  0
  4  3  1  0
  5  6  1  0
  5  4  1  0
  7  6  1  0
  8  9  2  0
 10 11  1  0
 10  8  1  0
 12 11  1  0
 12 14  1  0
 13 12  2  0
 15 14  1  0
 15 16  1  1
 16 17  1  0
 18 17  1  0
 18 22  1  0
 19 18  2  0
 20 15  1  0
 21 20  1  0
 23 20  2  0
M  END
$$$$
