KGE.pdb
     RDKit          3D

 23 22  0  0  1  0  0  0  0  0999 V2000
    7.7059  -16.9441   18.4154 N   0  0  0  0  0  0  0  0  0  0  0  0
    8.8384  -16.0809   18.2606 C   0  0  1  0  0  0  0  0  0  0  0  0
    8.5024  -14.8391   17.4686 C   0  0  0  0  0  0  0  0  0  0  0  0
    7.7149  -15.0881   16.2296 C   0  0  0  0  0  0  0  0  0  0  0  0
    7.5146  -13.9077   15.3368 C   0  0  0  0  0  0  0  0  0  0  0  0
    6.8355  -14.2470   14.0439 C   0  0  0  0  0  0  0  0  0  0  0  0
    6.6539  -13.0164   13.2990 N   0  0  0  0  0  0  0  0  0  0  0  0
    9.4104  -15.6373   19.5525 C   0  0  0  0  0  0  0  0  0  0  0  0
   10.4247  -14.8937   19.5267 O   0  0  0  0  0  0  0  0  0  0  0  0
    8.8903  -15.9951   20.8248 N   0  0  0  0  0  0  0  0  0  0  0  0
    9.4866  -15.5864   22.0657 C   0  0  0  0  0  0  0  0  0  0  0  0
   10.5887  -16.4834   22.4915 C   0  0  0  0  0  0  0  0  0  0  0  0
   10.5573  -17.6910   22.1500 O   0  0  0  0  0  0  0  0  0  0  0  0
   11.6773  -16.0197   23.2729 N   0  0  0  0  0  0  0  0  0  0  0  0
   12.7445  -16.9049   23.7321 C   0  0  1  0  0  0  0  0  0  0  0  0
   14.0245  -16.1420   23.5311 C   0  0  0  0  0  0  0  0  0  0  0  0
   15.2690  -16.8560   23.9489 C   0  0  0  0  0  0  0  0  0  0  0  0
   16.4775  -16.0635   23.7532 C   0  0  0  0  0  0  0  0  0  0  0  0
   17.0191  -15.3285   24.6083 O   0  0  0  0  0  0  0  0  0  0  0  0
   12.5147  -17.3654   25.1044 C   0  0  0  0  0  0  0  0  0  0  0  0
   13.2754  -18.4226   25.5919 O   0  0  0  0  0  0  0  0  0  0  0  0
   17.1088  -16.1144   22.4976 O   0  0  0  0  0  0  0  0  0  0  0  0
   11.6707  -16.8715   25.8866 O   0  0  0  0  0  0  0  0  0  0  0  0
  2  8  1  0
  2  1  1  1
  3  2  1  0
  4  3  1  0
  5  6  1  0
  5  4  1  0
  7  6  1  0
  8  9  2  0
 10 11  1  0
 10  8  1  0
 12 11  1  0
 12 14  1  0
 13 12  2  0
 15 14  1  0
 15 16  1  1
 16 17  1  0
 18 17  1  0
 18 22  1  0
 19 18  2  0
 20 15  1  0
 21 20  1  0
 23 20  2  0
M  END
$$$$
