KGE.pdb
     RDKit          3D

 23 22  0  0  1  0  0  0  0  0999 V2000
    5.5022  -16.2165   20.9149 N   0  0  0  0  0  0  0  0  0  0  0  0
    6.8279  -15.6743   20.9354 C   0  0  1  0  0  0  0  0  0  0  0  0
    6.8346  -14.2024   21.2759 C   0  0  0  0  0  0  0  0  0  0  0  0
    7.9018  -13.4144   20.5996 C   0  0  0  0  0  0  0  0  0  0  0  0
    7.8500  -13.3944   19.1071 C   0  0  0  0  0  0  0  0  0  0  0  0
    8.9003  -12.5232   18.4861 C   0  0  0  0  0  0  0  0  0  0  0  0
    8.7517  -12.6025   17.0461 N   0  0  0  0  0  0  0  0  0  0  0  0
    7.7176  -16.3541   21.9045 C   0  0  0  0  0  0  0  0  0  0  0  0
    7.3673  -16.3802   23.1123 O   0  0  0  0  0  0  0  0  0  0  0  0
    8.9450  -16.9815   21.5627 N   0  0  0  0  0  0  0  0  0  0  0  0
    9.7811  -17.6546   22.5168 C   0  0  0  0  0  0  0  0  0  0  0  0
   10.8099  -16.7616   23.1037 C   0  0  0  0  0  0  0  0  0  0  0  0
   11.2604  -15.8151   22.4128 O   0  0  0  0  0  0  0  0  0  0  0  0
   11.3012  -16.9433   24.4215 N   0  0  0  0  0  0  0  0  0  0  0  0
   12.3786  -16.1269   24.9747 C   0  0  1  0  0  0  0  0  0  0  0  0
   12.3276  -16.3354   26.4629 C   0  0  0  0  0  0  0  0  0  0  0  0
   12.3546  -17.7604   26.9121 C   0  0  0  0  0  0  0  0  0  0  0  0
   12.4094  -17.9031   28.3625 C   0  0  0  0  0  0  0  0  0  0  0  0
   12.4347  -16.9665   29.1913 O   0  0  0  0  0  0  0  0  0  0  0  0
   13.6696  -16.4405   24.3559 C   0  0  0  0  0  0  0  0  0  0  0  0
   14.7374  -15.5727   24.5583 O   0  0  0  0  0  0  0  0  0  0  0  0
   12.4370  -19.2019   28.9012 O   0  0  0  0  0  0  0  0  0  0  0  0
   13.8900  -17.4481   23.6457 O   0  0  0  0  0  0  0  0  0  0  0  0
  2  8  1  0
  2  1  1  1
  3  2  1  0
  4  3  1  0
  5  6  1  0
  5  4  1  0
  7  6  1  0
  8  9  2  0
 10 11  1  0
 10  8  1  0
 12 11  1  0
 12 14  1  0
 13 12  2  0
 15 14  1  0
 15 16  1  1
 16 17  1  0
 18 17  1  0
 18 22  1  0
 19 18  2  0
 20 15  1  0
 21 20  1  0
 23 20  2  0
M  END
$$$$
