KGE.pdb
     RDKit          3D

 23 22  0  0  1  0  0  0  0  0999 V2000
    7.4496  -16.2245   19.0494 N   0  0  0  0  0  0  0  0  0  0  0  0
    7.4518  -17.1690   20.1263 C   0  0  1  0  0  0  0  0  0  0  0  0
    6.7392  -18.4498   19.7602 C   0  0  0  0  0  0  0  0  0  0  0  0
    6.0656  -18.4269   18.4324 C   0  0  0  0  0  0  0  0  0  0  0  0
    5.4826  -19.7237   17.9752 C   0  0  0  0  0  0  0  0  0  0  0  0
    4.9474  -19.6759   16.5756 C   0  0  0  0  0  0  0  0  0  0  0  0
    4.5569  -21.0210   16.2010 N   0  0  0  0  0  0  0  0  0  0  0  0
    8.8152  -17.5363   20.5727 C   0  0  0  0  0  0  0  0  0  0  0  0
    8.9269  -18.3464   21.5285 O   0  0  0  0  0  0  0  0  0  0  0  0
   10.0109  -17.0346   19.9935 N   0  0  0  0  0  0  0  0  0  0  0  0
   11.3220  -17.4720   20.3836 C   0  0  0  0  0  0  0  0  0  0  0  0
   11.8663  -16.6956   21.5243 C   0  0  0  0  0  0  0  0  0  0  0  0
   12.2238  -15.5069   21.3366 O   0  0  0  0  0  0  0  0  0  0  0  0
   11.9959  -17.2540   22.8214 N   0  0  0  0  0  0  0  0  0  0  0  0
   12.8110  -16.6340   23.8627 C   0  0  1  0  0  0  0  0  0  0  0  0
   12.6762  -17.5199   25.0701 C   0  0  0  0  0  0  0  0  0  0  0  0
   11.7973  -16.9925   26.1576 C   0  0  0  0  0  0  0  0  0  0  0  0
   11.7341  -17.8709   27.3201 C   0  0  0  0  0  0  0  0  0  0  0  0
   11.6205  -19.1163   27.2931 O   0  0  0  0  0  0  0  0  0  0  0  0
   14.1889  -16.4144   23.4145 C   0  0  0  0  0  0  0  0  0  0  0  0
   14.7011  -17.2219   22.4048 O   0  0  0  0  0  0  0  0  0  0  0  0
   11.8054  -17.2875   28.5977 O   0  0  0  0  0  0  0  0  0  0  0  0
   14.9553  -15.5397   23.8790 O   0  0  0  0  0  0  0  0  0  0  0  0
  2  8  1  0
  2  1  1  6
  3  2  1  0
  4  3  1  0
  5  6  1  0
  5  4  1  0
  7  6  1  0
  8  9  2  0
 10 11  1  0
 10  8  1  0
 12 11  1  0
 12 14  1  0
 13 12  2  0
 15 14  1  0
 15 16  1  1
 16 17  1  0
 18 17  1  0
 18 22  1  0
 19 18  2  0
 20 15  1  0
 21 20  1  0
 23 20  2  0
M  END
$$$$
