KGE.pdb
     RDKit          3D

 23 22  0  0  1  0  0  0  0  0999 V2000
   10.2141  -15.7944   19.3662 N   0  0  0  0  0  0  0  0  0  0  0  0
    9.7189  -14.6170   20.0144 C   0  0  1  0  0  0  0  0  0  0  0  0
    8.7135  -13.8791   19.1618 C   0  0  0  0  0  0  0  0  0  0  0  0
    8.5991  -14.3803   17.7644 C   0  0  0  0  0  0  0  0  0  0  0  0
    7.7005  -13.5984   16.8634 C   0  0  0  0  0  0  0  0  0  0  0  0
    7.6822  -14.1065   15.4530 C   0  0  0  0  0  0  0  0  0  0  0  0
    6.7263  -13.3131   14.7053 N   0  0  0  0  0  0  0  0  0  0  0  0
    9.0693  -14.9005   21.3146 C   0  0  0  0  0  0  0  0  0  0  0  0
    8.6287  -13.9286   21.9806 O   0  0  0  0  0  0  0  0  0  0  0  0
    8.9086  -16.2002   21.8642 N   0  0  0  0  0  0  0  0  0  0  0  0
    8.2642  -16.4520   23.1227 C   0  0  0  0  0  0  0  0  0  0  0  0
    8.9807  -15.8326   24.2643 C   0  0  0  0  0  0  0  0  0  0  0  0
   10.1409  -15.3875   24.0858 O   0  0  0  0  0  0  0  0  0  0  0  0
    8.3963  -15.7273   25.5520 N   0  0  0  0  0  0  0  0  0  0  0  0
    9.0684  -15.0611   26.6646 C   0  0  1  0  0  0  0  0  0  0  0  0
    8.1234  -13.9884   27.1307 C   0  0  0  0  0  0  0  0  0  0  0  0
    7.3368  -13.3144   26.0536 C   0  0  0  0  0  0  0  0  0  0  0  0
    6.4580  -12.2649   26.5570 C   0  0  0  0  0  0  0  0  0  0  0  0
    6.3974  -11.8640   27.7403 O   0  0  0  0  0  0  0  0  0  0  0  0
    9.4742  -16.0133   27.7021 C   0  0  0  0  0  0  0  0  0  0  0  0
   10.3345  -15.5828   28.7063 O   0  0  0  0  0  0  0  0  0  0  0  0
    5.5914  -11.6321   25.6480 O   0  0  0  0  0  0  0  0  0  0  0  0
    9.0993  -17.2070   27.7554 O   0  0  0  0  0  0  0  0  0  0  0  0
  2  8  1  0
  2  1  1  6
  3  2  1  0
  4  3  1  0
  5  6  1  0
  5  4  1  0
  7  6  1  0
  8  9  2  0
 10 11  1  0
 10  8  1  0
 12 11  1  0
 12 14  1  0
 13 12  2  0
 15 14  1  0
 15 16  1  1
 16 17  1  0
 18 17  1  0
 18 22  1  0
 19 18  2  0
 20 15  1  0
 21 20  1  0
 23 20  2  0
M  END
$$$$
