KGE.pdb
     RDKit          3D

 23 22  0  0  1  0  0  0  0  0999 V2000
    6.2464  -15.7886   25.0673 N   0  0  0  0  0  0  0  0  0  0  0  0
    6.8052  -15.1016   23.9415 C   0  0  1  0  0  0  0  0  0  0  0  0
    7.2500  -13.7014   24.2937 C   0  0  0  0  0  0  0  0  0  0  0  0
    6.1743  -12.8277   24.8383 C   0  0  0  0  0  0  0  0  0  0  0  0
    6.5572  -11.9698   25.9993 C   0  0  0  0  0  0  0  0  0  0  0  0
    5.4509  -11.0734   26.4684 C   0  0  0  0  0  0  0  0  0  0  0  0
    5.9303  -10.3398   27.6234 N   0  0  0  0  0  0  0  0  0  0  0  0
    7.9728  -15.8001   23.3569 C   0  0  0  0  0  0  0  0  0  0  0  0
    8.6164  -16.5935   24.0909 O   0  0  0  0  0  0  0  0  0  0  0  0
    8.4183  -15.6353   22.0184 N   0  0  0  0  0  0  0  0  0  0  0  0
    9.4920  -16.3963   21.4435 C   0  0  0  0  0  0  0  0  0  0  0  0
   10.7488  -16.2890   22.2242 C   0  0  0  0  0  0  0  0  0  0  0  0
   11.5249  -15.3281   21.9998 O   0  0  0  0  0  0  0  0  0  0  0  0
   11.1017  -17.2383   23.2168 N   0  0  0  0  0  0  0  0  0  0  0  0
   12.3072  -17.1081   24.0310 C   0  0  1  0  0  0  0  0  0  0  0  0
   12.1640  -18.1148   25.1387 C   0  0  0  0  0  0  0  0  0  0  0  0
   12.0944  -17.5447   26.5183 C   0  0  0  0  0  0  0  0  0  0  0  0
   12.0383  -18.5657   27.5582 C   0  0  0  0  0  0  0  0  0  0  0  0
   12.0993  -18.3613   28.7908 O   0  0  0  0  0  0  0  0  0  0  0  0
   13.5236  -17.2515   23.2262 C   0  0  0  0  0  0  0  0  0  0  0  0
   14.6772  -16.5897   23.6329 O   0  0  0  0  0  0  0  0  0  0  0  0
   11.9037  -19.9087   27.1634 O   0  0  0  0  0  0  0  0  0  0  0  0
   13.6064  -17.9365   22.1812 O   0  0  0  0  0  0  0  0  0  0  0  0
  2  8  1  0
  2  1  1  1
  3  2  1  0
  4  3  1  0
  5  6  1  0
  5  4  1  0
  7  6  1  0
  8  9  2  0
 10 11  1  0
 10  8  1  0
 12 11  1  0
 12 14  1  0
 13 12  2  0
 15 14  1  0
 15 16  1  1
 16 17  1  0
 18 17  1  0
 18 22  1  0
 19 18  2  0
 20 15  1  0
 21 20  1  0
 23 20  2  0
M  END
$$$$
