KGE.pdb
     RDKit          3D

 23 22  0  0  1  0  0  0  0  0999 V2000
    8.3409  -16.2241   24.3314 N   0  0  0  0  0  0  0  0  0  0  0  0
    7.9120  -15.1898   23.4380 C   0  0  1  0  0  0  0  0  0  0  0  0
    7.9607  -13.8249   24.0838 C   0  0  0  0  0  0  0  0  0  0  0  0
    7.0383  -13.6528   25.2399 C   0  0  0  0  0  0  0  0  0  0  0  0
    7.0043  -12.2894   25.8487 C   0  0  0  0  0  0  0  0  0  0  0  0
    6.1112  -12.1949   27.0491 C   0  0  0  0  0  0  0  0  0  0  0  0
    6.1725  -10.8339   27.5450 N   0  0  0  0  0  0  0  0  0  0  0  0
    8.7219  -15.1200   22.2002 C   0  0  0  0  0  0  0  0  0  0  0  0
    8.8925  -13.9935   21.6672 O   0  0  0  0  0  0  0  0  0  0  0  0
    9.3221  -16.2426   21.5704 N   0  0  0  0  0  0  0  0  0  0  0  0
   10.0583  -17.2488   22.2832 C   0  0  0  0  0  0  0  0  0  0  0  0
   11.1510  -16.6785   23.1086 C   0  0  0  0  0  0  0  0  0  0  0  0
   12.1679  -16.2152   22.5366 O   0  0  0  0  0  0  0  0  0  0  0  0
   11.0833  -16.6403   24.5245 N   0  0  0  0  0  0  0  0  0  0  0  0
   12.2737  -16.5190   25.3621 C   0  0  1  0  0  0  0  0  0  0  0  0
   11.7803  -16.5503   26.7821 C   0  0  0  0  0  0  0  0  0  0  0  0
   10.8897  -15.4169   27.1767 C   0  0  0  0  0  0  0  0  0  0  0  0
   10.4104  -15.5162   28.5505 C   0  0  0  0  0  0  0  0  0  0  0  0
   10.8218  -16.3218   29.4145 O   0  0  0  0  0  0  0  0  0  0  0  0
   13.2720  -17.5417   25.0376 C   0  0  0  0  0  0  0  0  0  0  0  0
   12.8391  -18.7644   24.5359 O   0  0  0  0  0  0  0  0  0  0  0  0
    9.3938  -14.6368   28.9641 O   0  0  0  0  0  0  0  0  0  0  0  0
   14.5078  -17.3973   25.1797 O   0  0  0  0  0  0  0  0  0  0  0  0
  2  8  1  0
  2  1  1  1
  3  2  1  0
  4  3  1  0
  5  6  1  0
  5  4  1  0
  7  6  1  0
  8  9  2  0
 10 11  1  0
 10  8  1  0
 12 11  1  0
 12 14  1  0
 13 12  2  0
 15 14  1  0
 15 16  1  1
 16 17  1  0
 18 17  1  0
 18 22  1  0
 19 18  2  0
 20 15  1  0
 21 20  1  0
 23 20  2  0
M  END
$$$$
