KGE.pdb
     RDKit          3D

 23 22  0  0  1  0  0  0  0  0999 V2000
    5.9472  -18.3151   20.9072 N   0  0  0  0  0  0  0  0  0  0  0  0
    6.0060  -18.5255   22.3228 C   0  0  1  0  0  0  0  0  0  0  0  0
    6.4391  -19.9303   22.6710 C   0  0  0  0  0  0  0  0  0  0  0  0
    5.5150  -20.9986   22.1999 C   0  0  0  0  0  0  0  0  0  0  0  0
    4.2208  -21.1120   22.9367 C   0  0  0  0  0  0  0  0  0  0  0  0
    3.2700  -22.0956   22.3233 C   0  0  0  0  0  0  0  0  0  0  0  0
    2.0131  -22.0081   23.0406 N   0  0  0  0  0  0  0  0  0  0  0  0
    6.9329  -17.5966   23.0092 C   0  0  0  0  0  0  0  0  0  0  0  0
    7.3333  -17.9038   24.1614 O   0  0  0  0  0  0  0  0  0  0  0  0
    7.4032  -16.3771   22.4536 N   0  0  0  0  0  0  0  0  0  0  0  0
    8.2850  -15.4806   23.1475 C   0  0  0  0  0  0  0  0  0  0  0  0
    7.7023  -14.9746   24.4143 C   0  0  0  0  0  0  0  0  0  0  0  0
    6.4550  -14.9819   24.5566 O   0  0  0  0  0  0  0  0  0  0  0  0
    8.5103  -14.4824   25.4706 N   0  0  0  0  0  0  0  0  0  0  0  0
    7.9429  -13.9137   26.6904 C   0  0  1  0  0  0  0  0  0  0  0  0
    9.0181  -14.0298   27.7351 C   0  0  0  0  0  0  0  0  0  0  0  0
    9.5162  -15.4153   27.9915 C   0  0  0  0  0  0  0  0  0  0  0  0
   10.5762  -15.4673   28.9917 C   0  0  0  0  0  0  0  0  0  0  0  0
   11.7081  -14.9447   28.8889 O   0  0  0  0  0  0  0  0  0  0  0  0
    7.4437  -12.5529   26.4736 C   0  0  0  0  0  0  0  0  0  0  0  0
    6.5591  -12.0091   27.3987 O   0  0  0  0  0  0  0  0  0  0  0  0
   10.3263  -16.1624   30.1884 O   0  0  0  0  0  0  0  0  0  0  0  0
    7.7577  -11.8284   25.5017 O   0  0  0  0  0  0  0  0  0  0  0  0
  2  8  1  0
  2  1  1  6
  3  2  1  0
  4  3  1  0
  5  6  1  0
  5  4  1  0
  7  6  1  0
  8  9  2  0
 10 11  1  0
 10  8  1  0
 12 11  1  0
 12 14  1  0
 13 12  2  0
 15 14  1  0
 15 16  1  1
 16 17  1  0
 18 17  1  0
 18 22  1  0
 19 18  2  0
 20 15  1  0
 21 20  1  0
 23 20  2  0
M  END
$$$$
