KGE.pdb
     RDKit          3D

 23 22  0  0  1  0  0  0  0  0999 V2000
    6.5971  -16.3789   22.9722 N   0  0  0  0  0  0  0  0  0  0  0  0
    7.7346  -16.5445   22.1176 C   0  0  1  0  0  0  0  0  0  0  0  0
    8.3197  -15.2199   21.6871 C   0  0  0  0  0  0  0  0  0  0  0  0
    7.5543  -14.5225   20.6171 C   0  0  0  0  0  0  0  0  0  0  0  0
    8.1459  -13.2441   20.1206 C   0  0  0  0  0  0  0  0  0  0  0  0
    7.3468  -12.6033   19.0259 C   0  0  0  0  0  0  0  0  0  0  0  0
    7.9466  -11.3169   18.7300 N   0  0  0  0  0  0  0  0  0  0  0  0
    8.8252  -17.3230   22.7481 C   0  0  0  0  0  0  0  0  0  0  0  0
    8.8977  -17.3304   24.0039 O   0  0  0  0  0  0  0  0  0  0  0  0
    9.7996  -18.0654   22.0294 N   0  0  0  0  0  0  0  0  0  0  0  0
   10.9547  -17.4696   21.4183 C   0  0  0  0  0  0  0  0  0  0  0  0
   12.0755  -17.2888   22.3730 C   0  0  0  0  0  0  0  0  0  0  0  0
   13.0254  -16.5299   22.0603 O   0  0  0  0  0  0  0  0  0  0  0  0
   12.1082  -17.9468   23.6288 N   0  0  0  0  0  0  0  0  0  0  0  0
   13.2205  -17.7953   24.5632 C   0  0  1  0  0  0  0  0  0  0  0  0
   12.7681  -18.4365   25.8458 C   0  0  0  0  0  0  0  0  0  0  0  0
   11.7520  -17.6657   26.6246 C   0  0  0  0  0  0  0  0  0  0  0  0
   11.3184  -18.3508   27.8368 C   0  0  0  0  0  0  0  0  0  0  0  0
   11.6909  -19.4846   28.2116 O   0  0  0  0  0  0  0  0  0  0  0  0
   14.4675  -18.3355   24.0146 C   0  0  0  0  0  0  0  0  0  0  0  0
   14.3977  -19.2618   22.9797 O   0  0  0  0  0  0  0  0  0  0  0  0
   10.3986  -17.6971   28.6761 O   0  0  0  0  0  0  0  0  0  0  0  0
   15.6125  -18.0217   24.4128 O   0  0  0  0  0  0  0  0  0  0  0  0
  2  8  1  0
  2  1  1  1
  3  2  1  0
  4  3  1  0
  5  6  1  0
  5  4  1  0
  7  6  1  0
  8  9  2  0
 10 11  1  0
 10  8  1  0
 12 11  1  0
 12 14  1  0
 13 12  2  0
 15 14  1  0
 15 16  1  1
 16 17  1  0
 18 17  1  0
 18 22  1  0
 19 18  2  0
 20 15  1  0
 21 20  1  0
 23 20  2  0
M  END
$$$$
