KGE.pdb
     RDKit          3D

 23 22  0  0  1  0  0  0  0  0999 V2000
    4.5569  -18.7388   19.1982 N   0  0  0  0  0  0  0  0  0  0  0  0
    5.5776  -19.5167   19.8346 C   0  0  1  0  0  0  0  0  0  0  0  0
    5.7604  -20.8632   19.1745 C   0  0  0  0  0  0  0  0  0  0  0  0
    4.7279  -21.8746   19.5329 C   0  0  0  0  0  0  0  0  0  0  0  0
    4.9002  -23.2262   18.9213 C   0  0  0  0  0  0  0  0  0  0  0  0
    3.8620  -24.2151   19.3592 C   0  0  0  0  0  0  0  0  0  0  0  0
    4.1859  -25.4961   18.7623 N   0  0  0  0  0  0  0  0  0  0  0  0
    6.8983  -18.8468   19.8405 C   0  0  0  0  0  0  0  0  0  0  0  0
    7.3792  -18.4766   18.7386 O   0  0  0  0  0  0  0  0  0  0  0  0
    7.6631  -18.5923   21.0098 N   0  0  0  0  0  0  0  0  0  0  0  0
    8.9127  -17.8847   20.9984 C   0  0  0  0  0  0  0  0  0  0  0  0
    9.4650  -17.6805   22.3599 C   0  0  0  0  0  0  0  0  0  0  0  0
    8.8657  -18.1834   23.3418 O   0  0  0  0  0  0  0  0  0  0  0  0
   10.6493  -16.9346   22.5878 N   0  0  0  0  0  0  0  0  0  0  0  0
   11.1833  -16.7036   23.9274 C   0  0  1  0  0  0  0  0  0  0  0  0
   12.5775  -16.1773   23.7274 C   0  0  0  0  0  0  0  0  0  0  0  0
   13.4831  -17.0507   22.9211 C   0  0  0  0  0  0  0  0  0  0  0  0
   14.7828  -16.4427   22.6600 C   0  0  0  0  0  0  0  0  0  0  0  0
   15.1442  -15.3008   23.0209 O   0  0  0  0  0  0  0  0  0  0  0  0
   10.3077  -15.8341   24.7181 C   0  0  0  0  0  0  0  0  0  0  0  0
    9.3877  -15.0291   24.0550 O   0  0  0  0  0  0  0  0  0  0  0  0
   15.7320  -17.1889   21.9389 O   0  0  0  0  0  0  0  0  0  0  0  0
   10.3240  -15.7583   25.9680 O   0  0  0  0  0  0  0  0  0  0  0  0
  2  8  1  0
  2  1  1  6
  3  2  1  0
  4  3  1  0
  5  6  1  0
  5  4  1  0
  7  6  1  0
  8  9  2  0
 10 11  1  0
 10  8  1  0
 12 11  1  0
 12 14  1  0
 13 12  2  0
 15 14  1  0
 15 16  1  6
 16 17  1  0
 18 17  1  0
 18 22  1  0
 19 18  2  0
 20 15  1  0
 21 20  1  0
 23 20  2  0
M  END
$$$$
