TFN.pdb
     RDKit          3D

 27 27  0  0  1  0  0  0  0  0999 V2000
   26.2111  -20.8514  -18.4767 C   0  0  0  0  0  0  0  0  0  0  0  0
   27.1709  -22.0084  -18.6887 C   0  0  1  0  0  0  0  0  0  0  0  0
   27.9063  -21.6949  -19.8430 O   0  0  0  0  0  0  0  0  0  0  0  0
   28.1016  -22.1492  -17.4925 C   0  0  2  0  0  0  0  0  0  0  0  0
   28.9166  -23.3410  -17.6701 N   0  0  0  0  0  0  0  0  0  0  0  0
   27.3453  -22.2911  -16.2328 C   0  0  0  0  0  0  0  0  0  0  0  0
   26.8128  -23.4046  -15.9024 O   0  0  0  0  0  0  0  0  0  0  0  0
   27.1451  -21.2369  -15.3001 N   0  0  0  0  0  0  0  0  0  0  0  0
   26.3689  -21.3724  -14.0927 C   0  0  1  0  0  0  0  0  0  0  0  0
   26.9467  -20.4576  -13.0451 C   0  0  0  0  0  0  0  0  0  0  0  0
   26.1539  -20.4809  -11.7829 C   0  0  0  0  0  0  0  0  0  0  0  0
   25.0026  -19.7451  -11.6239 C   0  0  0  0  0  0  0  0  0  0  0  0
   24.2705  -19.7763  -10.4346 C   0  0  0  0  0  0  0  0  0  0  0  0
   24.6749  -20.5495   -9.3688 C   0  0  0  0  0  0  0  0  0  0  0  0
   25.8289  -21.2893   -9.5237 C   0  0  0  0  0  0  0  0  0  0  0  0
   26.5499  -21.2569  -10.6984 C   0  0  0  0  0  0  0  0  0  0  0  0
   24.9273  -21.2744  -14.3055 C   0  0  0  0  0  0  0  0  0  0  0  0
   24.5361  -20.3317  -15.0689 O   0  0  0  0  0  0  0  0  0  0  0  0
   19.7273  -23.3629  -15.4812 N   0  0  0  0  0  0  0  0  0  0  0  0
   20.4361  -23.2617  -14.2682 C   0  0  0  0  0  0  0  0  0  0  0  0
   19.7448  -23.0536  -13.2091 O   0  0  0  0  0  0  0  0  0  0  0  0
   21.8843  -23.3700  -14.0715 C   0  0  0  0  0  0  0  0  0  0  0  0
   22.5218  -22.0061  -14.0684 C   0  0  2  0  0  0  0  0  0  0  0  0
   23.9492  -22.1065  -13.7604 N   0  0  0  0  0  0  0  0  0  0  0  0
   21.9728  -21.0686  -13.0922 C   0  0  0  0  0  0  0  0  0  0  0  0
   22.3801  -21.0591  -11.9145 O   0  0  0  0  0  0  0  0  0  0  0  0
   20.9706  -20.1246  -13.3842 O   0  0  0  0  0  0  0  0  0  0  0  0
  2  1  1  1
  3  2  1  0
  4  2  1  0
  4  5  1  6
  6  4  1  0
  7  6  2  0
  8  6  1  0
  9  8  1  0
  9 10  1  1
 10 11  1  0
 11 12  2  0
 12 13  1  0
 14 13  2  0
 15 14  1  0
 16 11  1  0
 16 15  2  0
 17 18  2  0
 17  9  1  0
 19 20  1  0
 20 21  2  0
 23 22  1  1
 22 20  1  0
 23 24  1  0
 24 17  1  0
 25 23  1  0
 26 25  2  0
 27 25  1  0
M  END
$$$$
