TFN.pdb
     RDKit          3D

 27 27  0  0  1  0  0  0  0  0999 V2000
   26.9781  -21.3721  -18.2272 C   0  0  0  0  0  0  0  0  0  0  0  0
   26.2412  -21.2686  -16.9039 C   0  0  1  0  0  0  0  0  0  0  0  0
   24.8742  -21.2413  -17.2230 O   0  0  0  0  0  0  0  0  0  0  0  0
   26.5545  -22.4739  -16.0286 C   0  0  2  0  0  0  0  0  0  0  0  0
   26.0065  -23.6656  -16.6578 N   0  0  0  0  0  0  0  0  0  0  0  0
   25.9501  -22.3406  -14.6885 C   0  0  0  0  0  0  0  0  0  0  0  0
   24.8290  -22.8868  -14.4107 O   0  0  0  0  0  0  0  0  0  0  0  0
   26.5395  -21.6157  -13.6167 N   0  0  0  0  0  0  0  0  0  0  0  0
   25.8904  -21.3915  -12.3491 C   0  0  1  0  0  0  0  0  0  0  0  0
   26.9404  -21.0446  -11.3265 C   0  0  0  0  0  0  0  0  0  0  0  0
   26.3428  -20.7037  -10.0040 C   0  0  0  0  0  0  0  0  0  0  0  0
   25.8290  -21.6611   -9.1605 C   0  0  0  0  0  0  0  0  0  0  0  0
   25.2711  -21.3264   -7.9244 C   0  0  0  0  0  0  0  0  0  0  0  0
   25.2136  -20.0175   -7.4994 C   0  0  0  0  0  0  0  0  0  0  0  0
   25.7278  -19.0538   -8.3419 C   0  0  0  0  0  0  0  0  0  0  0  0
   26.2779  -19.3865   -9.5616 C   0  0  0  0  0  0  0  0  0  0  0  0
   24.7460  -20.4872  -12.4255 C   0  0  0  0  0  0  0  0  0  0  0  0
   24.9446  -19.3812  -13.0269 O   0  0  0  0  0  0  0  0  0  0  0  0
   20.6623  -17.8820  -14.6608 N   0  0  0  0  0  0  0  0  0  0  0  0
   20.8211  -19.1096  -13.9888 C   0  0  0  0  0  0  0  0  0  0  0  0
   19.7527  -19.6920  -13.5862 O   0  0  0  0  0  0  0  0  0  0  0  0
   22.0757  -19.8081  -13.6951 C   0  0  0  0  0  0  0  0  0  0  0  0
   22.3025  -19.8870  -12.2089 C   0  0  2  0  0  0  0  0  0  0  0  0
   23.4702  -20.7176  -11.9104 N   0  0  0  0  0  0  0  0  0  0  0  0
   21.2008  -20.4662  -11.4446 C   0  0  0  0  0  0  0  0  0  0  0  0
   21.0699  -21.7016  -11.3464 O   0  0  0  0  0  0  0  0  0  0  0  0
   20.2236  -19.7077  -10.7735 O   0  0  0  0  0  0  0  0  0  0  0  0
  2  1  1  6
  3  2  1  0
  4  2  1  0
  4  5  1  6
  6  4  1  0
  7  6  2  0
  8  6  1  0
  9  8  1  0
  9 10  1  1
 10 11  1  0
 11 12  2  0
 12 13  1  0
 14 13  2  0
 15 14  1  0
 16 11  1  0
 16 15  2  0
 17 18  2  0
 17  9  1  0
 19 20  1  0
 20 21  2  0
 23 22  1  6
 22 20  1  0
 23 24  1  0
 24 17  1  0
 25 23  1  0
 26 25  2  0
 27 25  1  0
M  END
$$$$
