TFN.pdb
     RDKit          3D

 27 27  0  0  1  0  0  0  0  0999 V2000
   17.7136  -11.4981  -18.3446 C   0  0  0  0  0  0  0  0  0  0  0  0
   17.4287  -12.6244  -17.3673 C   0  0  1  0  0  0  0  0  0  0  0  0
   16.3866  -13.3750  -17.9346 O   0  0  0  0  0  0  0  0  0  0  0  0
   18.6658  -13.4925  -17.1859 C   0  0  2  0  0  0  0  0  0  0  0  0
   18.3260  -14.6212  -16.3335 N   0  0  0  0  0  0  0  0  0  0  0  0
   19.7629  -12.7427  -16.5429 C   0  0  0  0  0  0  0  0  0  0  0  0
   19.7452  -12.4873  -15.2912 O   0  0  0  0  0  0  0  0  0  0  0  0
   20.9042  -12.2508  -17.2336 N   0  0  0  0  0  0  0  0  0  0  0  0
   21.9415  -11.4675  -16.6100 C   0  0  1  0  0  0  0  0  0  0  0  0
   23.2780  -12.0375  -17.0067 C   0  0  0  0  0  0  0  0  0  0  0  0
   24.4118  -11.2467  -16.4487 C   0  0  0  0  0  0  0  0  0  0  0  0
   24.8840  -11.4389  -15.1712 C   0  0  0  0  0  0  0  0  0  0  0  0
   25.9468  -10.6894  -14.6615 C   0  0  0  0  0  0  0  0  0  0  0  0
   26.5672   -9.7234  -15.4225 C   0  0  0  0  0  0  0  0  0  0  0  0
   26.0972   -9.5271  -16.7045 C   0  0  0  0  0  0  0  0  0  0  0  0
   25.0478  -10.2680  -17.2054 C   0  0  0  0  0  0  0  0  0  0  0  0
   21.7798  -10.0271  -16.7894 C   0  0  0  0  0  0  0  0  0  0  0  0
   21.5779   -9.6300  -17.9835 O   0  0  0  0  0  0  0  0  0  0  0  0
   21.0100   -4.8543  -16.4105 N   0  0  0  0  0  0  0  0  0  0  0  0
   20.0793   -5.7539  -15.8552 C   0  0  0  0  0  0  0  0  0  0  0  0
   18.9422   -5.2724  -15.5118 O   0  0  0  0  0  0  0  0  0  0  0  0
   20.2580   -7.1900  -15.6240 C   0  0  0  0  0  0  0  0  0  0  0  0
   21.6423   -7.6232  -16.0275 C   0  0  2  0  0  0  0  0  0  0  0  0
   21.8227   -9.0560  -15.7887 N   0  0  0  0  0  0  0  0  0  0  0  0
   22.7306   -6.9638  -15.3105 C   0  0  0  0  0  0  0  0  0  0  0  0
   22.9598   -7.2255  -14.1139 O   0  0  0  0  0  0  0  0  0  0  0  0
   23.5882   -6.0083  -15.8868 O   0  0  0  0  0  0  0  0  0  0  0  0
  2  1  1  6
  3  2  1  0
  4  2  1  0
  4  5  1  1
  6  4  1  0
  7  6  2  0
  8  6  1  0
  9  8  1  0
  9 10  1  6
 10 11  1  0
 11 12  2  0
 12 13  1  0
 14 13  2  0
 15 14  1  0
 16 11  1  0
 16 15  2  0
 17 18  2  0
 17  9  1  0
 19 20  1  0
 20 21  2  0
 23 22  1  1
 22 20  1  0
 23 24  1  0
 24 17  1  0
 25 23  1  0
 26 25  2  0
 27 25  1  0
M  END
$$$$
