TFN.pdb
     RDKit          3D

 27 27  0  0  1  0  0  0  0  0999 V2000
   24.7648  -19.5873  -18.0287 C   0  0  0  0  0  0  0  0  0  0  0  0
   25.2346  -20.9130  -18.6003 C   0  0  1  0  0  0  0  0  0  0  0  0
   25.7456  -20.6252  -19.8760 O   0  0  0  0  0  0  0  0  0  0  0  0
   26.3215  -21.5130  -17.7198 C   0  0  2  0  0  0  0  0  0  0  0  0
   26.7199  -22.7970  -18.2755 N   0  0  0  0  0  0  0  0  0  0  0  0
   25.8397  -21.7360  -16.3424 C   0  0  0  0  0  0  0  0  0  0  0  0
   25.0102  -22.6701  -16.0746 O   0  0  0  0  0  0  0  0  0  0  0  0
   26.2403  -20.9579  -15.2219 N   0  0  0  0  0  0  0  0  0  0  0  0
   25.6594  -21.0866  -13.9087 C   0  0  1  0  0  0  0  0  0  0  0  0
   26.6728  -20.6374  -12.8891 C   0  0  0  0  0  0  0  0  0  0  0  0
   26.1120  -20.6310  -11.5078 C   0  0  0  0  0  0  0  0  0  0  0  0
   26.0597  -21.7643  -10.7301 C   0  0  0  0  0  0  0  0  0  0  0  0
   25.5304  -21.7431   -9.4376 C   0  0  0  0  0  0  0  0  0  0  0  0
   25.0376  -20.5801   -8.8882 C   0  0  0  0  0  0  0  0  0  0  0  0
   25.0882  -19.4408   -9.6644 C   0  0  0  0  0  0  0  0  0  0  0  0
   25.6109  -19.4641  -10.9400 C   0  0  0  0  0  0  0  0  0  0  0  0
   24.3284  -20.4964  -13.7934 C   0  0  0  0  0  0  0  0  0  0  0  0
   24.1412  -19.4071  -14.4281 O   0  0  0  0  0  0  0  0  0  0  0  0
   20.5352  -18.4762  -14.6706 N   0  0  0  0  0  0  0  0  0  0  0  0
   20.7000  -19.7680  -15.2072 C   0  0  0  0  0  0  0  0  0  0  0  0
   20.2522  -19.9645  -16.3919 O   0  0  0  0  0  0  0  0  0  0  0  0
   21.3316  -20.9246  -14.5659 C   0  0  0  0  0  0  0  0  0  0  0  0
   21.8715  -20.5499  -13.2114 C   0  0  2  0  0  0  0  0  0  0  0  0
   23.2541  -21.0072  -13.0645 N   0  0  0  0  0  0  0  0  0  0  0  0
   21.1461  -21.1169  -12.0775 C   0  0  0  0  0  0  0  0  0  0  0  0
   21.3753  -22.2779  -11.6870 O   0  0  0  0  0  0  0  0  0  0  0  0
   20.1587  -20.4269  -11.3497 O   0  0  0  0  0  0  0  0  0  0  0  0
  2  1  1  1
  3  2  1  0
  4  2  1  0
  4  5  1  6
  6  4  1  0
  7  6  2  0
  8  6  1  0
  9  8  1  0
  9 10  1  1
 10 11  1  0
 11 12  2  0
 12 13  1  0
 14 13  2  0
 15 14  1  0
 16 11  1  0
 16 15  2  0
 17 18  2  0
 17  9  1  0
 19 20  1  0
 20 21  2  0
 23 22  1  6
 22 20  1  0
 23 24  1  0
 24 17  1  0
 25 23  1  0
 26 25  2  0
 27 25  1  0
M  END
$$$$
