TFN.pdb
     RDKit          3D

 27 27  0  0  1  0  0  0  0  0999 V2000
   18.0598   -9.2894  -19.1222 C   0  0  0  0  0  0  0  0  0  0  0  0
   18.0271  -10.4744  -18.1737 C   0  0  1  0  0  0  0  0  0  0  0  0
   18.0892  -11.6200  -18.9831 O   0  0  0  0  0  0  0  0  0  0  0  0
   19.2209  -10.4297  -17.2305 C   0  0  2  0  0  0  0  0  0  0  0  0
   19.1931  -11.6112  -16.3823 N   0  0  0  0  0  0  0  0  0  0  0  0
   19.1790   -9.2371  -16.3616 C   0  0  0  0  0  0  0  0  0  0  0  0
   18.3879   -9.1753  -15.3601 O   0  0  0  0  0  0  0  0  0  0  0  0
   19.9882   -8.0835  -16.5515 N   0  0  0  0  0  0  0  0  0  0  0  0
   20.0284   -6.9734  -15.6324 C   0  0  1  0  0  0  0  0  0  0  0  0
   21.4275   -6.8506  -15.0886 C   0  0  0  0  0  0  0  0  0  0  0  0
   21.7430   -7.9272  -14.1070 C   0  0  0  0  0  0  0  0  0  0  0  0
   21.2667   -7.9086  -12.8167 C   0  0  0  0  0  0  0  0  0  0  0  0
   21.5716   -8.9242  -11.9075 C   0  0  0  0  0  0  0  0  0  0  0  0
   22.3654   -9.9902  -12.2695 C   0  0  0  0  0  0  0  0  0  0  0  0
   22.8452  -10.0133  -13.5626 C   0  0  0  0  0  0  0  0  0  0  0  0
   22.5431   -9.0095  -14.4583 C   0  0  0  0  0  0  0  0  0  0  0  0
   19.4366   -5.7481  -16.1631 C   0  0  0  0  0  0  0  0  0  0  0  0
   19.8806   -5.3538  -17.2908 O   0  0  0  0  0  0  0  0  0  0  0  0
   14.6853   -1.8110  -16.0428 N   0  0  0  0  0  0  0  0  0  0  0  0
   15.7536   -2.5794  -16.5449 C   0  0  0  0  0  0  0  0  0  0  0  0
   16.2687   -2.1994  -17.6553 O   0  0  0  0  0  0  0  0  0  0  0  0
   16.3538   -3.7719  -15.9404 C   0  0  0  0  0  0  0  0  0  0  0  0
   17.8417   -3.7900  -16.1693 C   0  0  2  0  0  0  0  0  0  0  0  0
   18.4411   -4.9785  -15.5606 N   0  0  0  0  0  0  0  0  0  0  0  0
   18.5677   -2.6522  -15.6107 C   0  0  0  0  0  0  0  0  0  0  0  0
   18.8420   -2.6018  -14.3961 O   0  0  0  0  0  0  0  0  0  0  0  0
   19.0076   -1.5503  -16.3677 O   0  0  0  0  0  0  0  0  0  0  0  0
  2  1  1  6
  3  2  1  0
  4  2  1  0
  4  5  1  1
  6  4  1  0
  7  6  2  0
  8  6  1  0
  9  8  1  0
  9 10  1  6
 10 11  1  0
 11 12  2  0
 12 13  1  0
 14 13  2  0
 15 14  1  0
 16 11  1  0
 16 15  2  0
 17 18  2  0
 17  9  1  0
 19 20  1  0
 20 21  2  0
 23 22  1  1
 22 20  1  0
 23 24  1  0
 24 17  1  0
 25 23  1  0
 26 25  2  0
 27 25  1  0
M  END
$$$$
