TFN.pdb
     RDKit          3D

 27 27  0  0  1  0  0  0  0  0999 V2000
   26.9441  -18.6220  -15.9115 C   0  0  0  0  0  0  0  0  0  0  0  0
   26.7317  -19.9045  -16.6955 C   0  0  1  0  0  0  0  0  0  0  0  0
   27.4209  -19.7364  -17.9071 O   0  0  0  0  0  0  0  0  0  0  0  0
   27.2952  -21.0925  -15.9287 C   0  0  2  0  0  0  0  0  0  0  0  0
   27.1172  -22.2944  -16.7285 N   0  0  0  0  0  0  0  0  0  0  0  0
   26.5967  -21.2865  -14.6428 C   0  0  0  0  0  0  0  0  0  0  0  0
   25.4635  -21.8741  -14.5873 O   0  0  0  0  0  0  0  0  0  0  0  0
   27.1028  -20.8520  -13.3872 N   0  0  0  0  0  0  0  0  0  0  0  0
   26.3457  -20.8935  -12.1609 C   0  0  1  0  0  0  0  0  0  0  0  0
   27.2814  -20.6336  -11.0097 C   0  0  0  0  0  0  0  0  0  0  0  0
   26.5520  -20.4843   -9.7182 C   0  0  0  0  0  0  0  0  0  0  0  0
   26.2487  -19.2541   -9.1829 C   0  0  0  0  0  0  0  0  0  0  0  0
   25.5654  -19.1298   -7.9709 C   0  0  0  0  0  0  0  0  0  0  0  0
   25.1661  -20.2405   -7.2607 C   0  0  0  0  0  0  0  0  0  0  0  0
   25.4679  -21.4765   -7.7938 C   0  0  0  0  0  0  0  0  0  0  0  0
   26.1426  -21.5967   -8.9902 C   0  0  0  0  0  0  0  0  0  0  0  0
   25.1285  -20.0869  -12.1929 C   0  0  0  0  0  0  0  0  0  0  0  0
   25.2248  -18.9491  -12.7590 O   0  0  0  0  0  0  0  0  0  0  0  0
   20.7278  -18.3488  -14.6821 N   0  0  0  0  0  0  0  0  0  0  0  0
   21.0486  -19.4699  -13.8920 C   0  0  0  0  0  0  0  0  0  0  0  0
   20.0673  -20.1535  -13.4310 O   0  0  0  0  0  0  0  0  0  0  0  0
   22.3848  -19.9537  -13.5337 C   0  0  0  0  0  0  0  0  0  0  0  0
   22.6226  -19.8057  -12.0545 C   0  0  2  0  0  0  0  0  0  0  0  0
   23.8843  -20.4407  -11.6706 N   0  0  0  0  0  0  0  0  0  0  0  0
   21.6022  -20.4079  -11.2004 C   0  0  0  0  0  0  0  0  0  0  0  0
   20.5575  -19.7898  -10.9181 O   0  0  0  0  0  0  0  0  0  0  0  0
   21.7034  -21.6950  -10.6402 O   0  0  0  0  0  0  0  0  0  0  0  0
  2  1  1  1
  3  2  1  0
  4  2  1  0
  4  5  1  6
  6  4  1  0
  7  6  2  0
  8  6  1  0
  9  8  1  0
  9 10  1  1
 10 11  1  0
 11 12  2  0
 12 13  1  0
 14 13  2  0
 15 14  1  0
 16 11  1  0
 16 15  2  0
 17 18  2  0
 17  9  1  0
 19 20  1  0
 20 21  2  0
 23 22  1  6
 22 20  1  0
 23 24  1  0
 24 17  1  0
 25 23  1  0
 26 25  2  0
 27 25  1  0
M  END
$$$$
