TFN.pdb
     RDKit          3D

 27 27  0  0  1  0  0  0  0  0999 V2000
   23.5691  -21.4443  -12.5909 C   0  0  0  0  0  0  0  0  0  0  0  0
   24.6769  -20.5050  -13.0327 C   0  0  1  0  0  0  0  0  0  0  0  0
   24.4497  -19.2944  -12.3589 O   0  0  0  0  0  0  0  0  0  0  0  0
   26.0361  -21.0739  -12.6511 C   0  0  2  0  0  0  0  0  0  0  0  0
   26.1942  -22.3749  -13.2826 N   0  0  0  0  0  0  0  0  0  0  0  0
   26.1568  -21.2525  -11.1908 C   0  0  0  0  0  0  0  0  0  0  0  0
   25.8196  -22.3488  -10.6279 O   0  0  0  0  0  0  0  0  0  0  0  0
   26.6434  -20.2541  -10.3031 N   0  0  0  0  0  0  0  0  0  0  0  0
   26.6707  -20.4018   -8.8692 C   0  0  1  0  0  0  0  0  0  0  0  0
   27.8390  -19.6204   -8.3280 C   0  0  0  0  0  0  0  0  0  0  0  0
   27.9683  -19.7588   -6.8494 C   0  0  0  0  0  0  0  0  0  0  0  0
   28.3289  -20.9434   -6.2504 C   0  0  0  0  0  0  0  0  0  0  0  0
   28.4451  -21.0583   -4.8632 C   0  0  0  0  0  0  0  0  0  0  0  0
   28.2019  -19.9840   -4.0362 C   0  0  0  0  0  0  0  0  0  0  0  0
   27.8401  -18.7938   -4.6323 C   0  0  0  0  0  0  0  0  0  0  0  0
   27.7259  -18.6827   -6.0019 C   0  0  0  0  0  0  0  0  0  0  0  0
   25.3820  -20.1558   -8.2275 C   0  0  0  0  0  0  0  0  0  0  0  0
   24.5389  -19.4802   -8.9036 O   0  0  0  0  0  0  0  0  0  0  0  0
   21.1605  -23.5704   -6.8297 N   0  0  0  0  0  0  0  0  0  0  0  0
   21.6906  -22.3192   -7.2007 C   0  0  0  0  0  0  0  0  0  0  0  0
   20.8691  -21.3374   -7.2621 O   0  0  0  0  0  0  0  0  0  0  0  0
   23.0845  -22.0037   -7.5251 C   0  0  0  0  0  0  0  0  0  0  0  0
   23.6153  -20.9395   -6.6019 C   0  0  2  0  0  0  0  0  0  0  0  0
   24.9901  -20.5872   -6.9600 N   0  0  0  0  0  0  0  0  0  0  0  0
   23.6583  -21.3105   -5.1898 C   0  0  0  0  0  0  0  0  0  0  0  0
   22.7360  -21.9701   -4.6730 O   0  0  0  0  0  0  0  0  0  0  0  0
   24.7087  -20.9691   -4.3176 O   0  0  0  0  0  0  0  0  0  0  0  0
  2  1  1  1
  3  2  1  0
  4  2  1  0
  4  5  1  6
  6  4  1  0
  7  6  2  0
  8  6  1  0
  9  8  1  0
  9 10  1  1
 10 11  1  0
 11 12  2  0
 12 13  1  0
 14 13  2  0
 15 14  1  0
 16 11  1  0
 16 15  2  0
 17 18  2  0
 17  9  1  0
 19 20  1  0
 20 21  2  0
 23 22  1  6
 22 20  1  0
 23 24  1  0
 24 17  1  0
 25 23  1  0
 26 25  2  0
 27 25  1  0
M  END
$$$$
