TFN.pdb
     RDKit          3D

 27 27  0  0  1  0  0  0  0  0999 V2000
   22.3457   -9.7629  -21.2656 C   0  0  0  0  0  0  0  0  0  0  0  0
   22.6367  -11.1013  -20.6108 C   0  0  1  0  0  0  0  0  0  0  0  0
   23.0342  -11.9611  -21.6472 O   0  0  0  0  0  0  0  0  0  0  0  0
   23.7540  -10.9573  -19.5872 C   0  0  2  0  0  0  0  0  0  0  0  0
   24.0625  -12.2701  -19.0417 N   0  0  0  0  0  0  0  0  0  0  0  0
   23.3552  -10.0765  -18.4718 C   0  0  0  0  0  0  0  0  0  0  0  0
   22.5461  -10.4781  -17.5681 O   0  0  0  0  0  0  0  0  0  0  0  0
   23.8187   -8.7429  -18.3042 N   0  0  0  0  0  0  0  0  0  0  0  0
   23.5323   -7.9354  -17.1446 C   0  0  1  0  0  0  0  0  0  0  0  0
   24.8314   -7.4104  -16.5922 C   0  0  0  0  0  0  0  0  0  0  0  0
   25.7695   -8.5100  -16.2273 C   0  0  0  0  0  0  0  0  0  0  0  0
   25.5431   -9.3455  -15.1583 C   0  0  0  0  0  0  0  0  0  0  0  0
   26.4318  -10.3712  -14.8279 C   0  0  0  0  0  0  0  0  0  0  0  0
   27.5759  -10.5875  -15.5637 C   0  0  0  0  0  0  0  0  0  0  0  0
   27.8072   -9.7523  -16.6369 C   0  0  0  0  0  0  0  0  0  0  0  0
   26.9286   -8.7403  -16.9611 C   0  0  0  0  0  0  0  0  0  0  0  0
   22.4809   -6.9452  -17.3619 C   0  0  0  0  0  0  0  0  0  0  0  0
   22.5960   -6.2255  -18.4076 O   0  0  0  0  0  0  0  0  0  0  0  0
   18.3798   -6.7888  -19.0618 N   0  0  0  0  0  0  0  0  0  0  0  0
   18.5267   -7.1943  -17.7209 C   0  0  0  0  0  0  0  0  0  0  0  0
   18.2575   -8.4185  -17.4533 O   0  0  0  0  0  0  0  0  0  0  0  0
   18.9579   -6.3747  -16.5850 C   0  0  0  0  0  0  0  0  0  0  0  0
   20.3072   -5.7638  -16.8547 C   0  0  2  0  0  0  0  0  0  0  0  0
   21.3742   -6.7164  -16.5440 N   0  0  0  0  0  0  0  0  0  0  0  0
   20.6102   -4.5650  -16.0773 C   0  0  0  0  0  0  0  0  0  0  0  0
   21.4576   -4.5916  -15.1640 O   0  0  0  0  0  0  0  0  0  0  0  0
   19.9948   -3.3162  -16.2836 O   0  0  0  0  0  0  0  0  0  0  0  0
  2  1  1  6
  3  2  1  0
  4  2  1  0
  4  5  1  1
  6  4  1  0
  7  6  2  0
  8  6  1  0
  9  8  1  0
  9 10  1  6
 10 11  1  0
 11 12  2  0
 12 13  1  0
 14 13  2  0
 15 14  1  0
 16 11  1  0
 16 15  2  0
 17 18  2  0
 17  9  1  0
 19 20  1  0
 20 21  2  0
 23 22  1  1
 22 20  1  0
 23 24  1  0
 24 17  1  0
 25 23  1  0
 26 25  2  0
 27 25  1  0
M  END
$$$$
