TFN.pdb
     RDKit          3D

 27 27  0  0  1  0  0  0  0  0999 V2000
   24.1073  -21.1779  -16.1648 C   0  0  0  0  0  0  0  0  0  0  0  0
   24.2765  -22.6784  -16.3221 C   0  0  1  0  0  0  0  0  0  0  0  0
   24.2974  -22.9228  -17.7046 O   0  0  0  0  0  0  0  0  0  0  0  0
   25.5827  -23.1326  -15.6864 C   0  0  2  0  0  0  0  0  0  0  0  0
   25.7578  -24.5545  -15.9389 N   0  0  0  0  0  0  0  0  0  0  0  0
   25.5753  -22.9211  -14.2255 C   0  0  0  0  0  0  0  0  0  0  0  0
   25.1981  -23.8429  -13.4252 O   0  0  0  0  0  0  0  0  0  0  0  0
   25.9740  -21.7117  -13.5931 N   0  0  0  0  0  0  0  0  0  0  0  0
   25.8259  -21.4597  -12.1813 C   0  0  1  0  0  0  0  0  0  0  0  0
   26.9088  -20.5072  -11.7473 C   0  0  0  0  0  0  0  0  0  0  0  0
   26.8783  -20.2571  -10.2780 C   0  0  0  0  0  0  0  0  0  0  0  0
   27.7019  -20.9242   -9.4012 C   0  0  0  0  0  0  0  0  0  0  0  0
   27.6615  -20.6799   -8.0265 C   0  0  0  0  0  0  0  0  0  0  0  0
   26.7906  -19.7561   -7.4922 C   0  0  0  0  0  0  0  0  0  0  0  0
   25.9627  -19.0844   -8.3676 C   0  0  0  0  0  0  0  0  0  0  0  0
   26.0043  -19.3273   -9.7242 C   0  0  0  0  0  0  0  0  0  0  0  0
   24.4649  -21.1069  -11.7859 C   0  0  0  0  0  0  0  0  0  0  0  0
   23.7628  -20.5087  -12.6654 O   0  0  0  0  0  0  0  0  0  0  0  0
   19.6487  -21.5935   -9.6275 N   0  0  0  0  0  0  0  0  0  0  0  0
   20.6625  -22.0378   -8.7564 C   0  0  0  0  0  0  0  0  0  0  0  0
   20.2865  -22.5437   -7.6404 O   0  0  0  0  0  0  0  0  0  0  0  0
   22.1104  -21.9923   -8.9785 C   0  0  0  0  0  0  0  0  0  0  0  0
   22.4199  -21.4263  -10.3388 C   0  0  2  0  0  0  0  0  0  0  0  0
   23.8666  -21.3617  -10.5516 N   0  0  0  0  0  0  0  0  0  0  0  0
   21.9261  -20.0717  -10.5725 C   0  0  0  0  0  0  0  0  0  0  0  0
   22.6567  -19.0814  -10.3766 O   0  0  0  0  0  0  0  0  0  0  0  0
   20.6269  -19.7743  -11.0247 O   0  0  0  0  0  0  0  0  0  0  0  0
  2  1  1  6
  3  2  1  0
  4  2  1  0
  4  5  1  1
  6  4  1  0
  7  6  2  0
  8  6  1  0
  9  8  1  0
  9 10  1  6
 10 11  1  0
 11 12  2  0
 12 13  1  0
 14 13  2  0
 15 14  1  0
 16 11  1  0
 16 15  2  0
 17 18  2  0
 17  9  1  0
 19 20  1  0
 20 21  2  0
 23 22  1  1
 22 20  1  0
 23 24  1  0
 24 17  1  0
 25 23  1  0
 26 25  2  0
 27 25  1  0
M  END
$$$$
