TFN.pdb
     RDKit          3D

 27 27  0  0  1  0  0  0  0  0999 V2000
   22.5901  -14.3945  -19.5475 C   0  0  0  0  0  0  0  0  0  0  0  0
   22.3032  -13.1825  -18.6795 C   0  0  1  0  0  0  0  0  0  0  0  0
   20.9279  -12.9309  -18.8082 O   0  0  0  0  0  0  0  0  0  0  0  0
   22.6516  -13.4777  -17.2275 C   0  0  2  0  0  0  0  0  0  0  0  0
   21.8439  -14.5975  -16.7695 N   0  0  0  0  0  0  0  0  0  0  0  0
   22.3693  -12.3190  -16.3574 C   0  0  0  0  0  0  0  0  0  0  0  0
   21.2352  -12.1818  -15.7854 O   0  0  0  0  0  0  0  0  0  0  0  0
   23.3022  -11.2816  -16.0837 N   0  0  0  0  0  0  0  0  0  0  0  0
   23.0099  -10.1407  -15.2522 C   0  0  1  0  0  0  0  0  0  0  0  0
   24.2075   -9.8605  -14.3828 C   0  0  0  0  0  0  0  0  0  0  0  0
   25.4665   -9.7713  -15.1761 C   0  0  0  0  0  0  0  0  0  0  0  0
   26.3984  -10.7828  -15.1927 C   0  0  0  0  0  0  0  0  0  0  0  0
   27.5743  -10.6846  -15.9403 C   0  0  0  0  0  0  0  0  0  0  0  0
   27.8480   -9.5649  -16.6944 C   0  0  0  0  0  0  0  0  0  0  0  0
   26.9161   -8.5479  -16.6811 C   0  0  0  0  0  0  0  0  0  0  0  0
   25.7562   -8.6470  -15.9423 C   0  0  0  0  0  0  0  0  0  0  0  0
   22.4696   -8.9998  -15.9869 C   0  0  0  0  0  0  0  0  0  0  0  0
   22.8543   -8.8785  -17.1959 O   0  0  0  0  0  0  0  0  0  0  0  0
   19.1526   -5.7125  -18.7388 N   0  0  0  0  0  0  0  0  0  0  0  0
   19.0495   -6.0423  -17.3734 C   0  0  0  0  0  0  0  0  0  0  0  0
   18.3759   -5.2415  -16.6333 O   0  0  0  0  0  0  0  0  0  0  0  0
   19.6245   -7.2058  -16.6926 C   0  0  0  0  0  0  0  0  0  0  0  0
   21.0498   -6.9336  -16.2911 C   0  0  2  0  0  0  0  0  0  0  0  0
   21.5809   -8.0425  -15.4970 N   0  0  0  0  0  0  0  0  0  0  0  0
   21.2456   -5.7366  -15.4773 C   0  0  0  0  0  0  0  0  0  0  0  0
   21.3114   -4.6088  -16.0032 O   0  0  0  0  0  0  0  0  0  0  0  0
   21.3721   -5.7493  -14.0757 O   0  0  0  0  0  0  0  0  0  0  0  0
  2  1  1  6
  3  2  1  0
  4  2  1  0
  4  5  1  1
  6  4  1  0
  7  6  2  0
  8  6  1  0
  9  8  1  0
  9 10  1  6
 10 11  1  0
 11 12  2  0
 12 13  1  0
 14 13  2  0
 15 14  1  0
 16 11  1  0
 16 15  2  0
 17 18  2  0
 17  9  1  0
 19 20  1  0
 20 21  2  0
 23 22  1  1
 22 20  1  0
 23 24  1  0
 24 17  1  0
 25 23  1  0
 26 25  2  0
 27 25  1  0
M  END
$$$$
