SEA.pdb
     RDKit          3D

 21 20  0  0  1  0  0  0  0  0999 V2000
   25.7407  -10.5724  -16.2374 O   0  0  0  0  0  0  0  0  0  0  0  0
   24.8376  -11.2114  -15.4195 C   0  0  0  0  0  0  0  0  0  0  0  0
   23.6036  -11.5509  -16.2259 C   0  0  2  0  0  0  0  0  0  0  0  0
   23.9201  -12.1374  -17.4972 N   0  0  0  0  0  0  0  0  0  0  0  0
   22.8200  -10.3073  -16.4639 C   0  0  0  0  0  0  0  0  0  0  0  0
   22.8562   -9.6955  -17.5687 O   0  0  0  0  0  0  0  0  0  0  0  0
   21.9931   -9.7546  -15.4491 N   0  0  0  0  0  0  0  0  0  0  0  0
   21.1799   -8.5360  -15.7025 C   0  0  1  0  0  0  0  0  0  0  0  0
   19.7649   -8.8618  -15.4342 C   0  0  0  0  0  0  0  0  0  0  0  0
   18.7549   -7.7972  -15.4866 C   0  0  0  0  0  0  0  0  0  0  0  0
   17.4035   -8.3626  -15.1179 C   0  0  0  0  0  0  0  0  0  0  0  0
   17.3110   -9.5134  -14.6350 O   0  0  0  0  0  0  0  0  0  0  0  0
   21.8065   -7.4810  -14.9201 C   0  0  0  0  0  0  0  0  0  0  0  0
   22.2836   -7.6414  -13.7564 O   0  0  0  0  0  0  0  0  0  0  0  0
   16.2608   -7.6229  -15.3072 O   0  0  0  0  0  0  0  0  0  0  0  0
   22.6713   -3.8764  -15.5635 C   0  0  0  0  0  0  0  0  0  0  0  0
   22.4129   -5.0768  -14.6459 C   0  0  2  0  0  0  0  0  0  0  0  0
   21.9129   -6.1738  -15.4631 N   0  0  0  0  0  0  0  0  0  0  0  0
   21.3806   -4.6828  -13.6870 C   0  0  0  0  0  0  0  0  0  0  0  0
   21.6901   -3.8203  -12.6522 O   0  0  0  0  0  0  0  0  0  0  0  0
   20.1881   -5.1306  -13.7965 O   0  0  0  0  0  0  0  0  0  0  0  0
  2  1  1  0
  3  2  1  0
  3  4  1  6
  5  3  1  0
  5  7  1  0
  6  5  2  0
  8  7  1  0
  8  9  1  1
 10  9  1  0
 10 11  1  0
 11 12  2  0
 11 15  1  0
 13  8  1  0
 13 18  1  0
 14 13  2  0
 17 18  1  0
 17 16  1  6
 19 17  1  0
 20 19  1  0
 21 19  2  0
M  END
$$$$
