SEA.pdb
     RDKit          3D

 21 20  0  0  1  0  0  0  0  0999 V2000
   14.7642  -12.5888  -13.3408 O   0  0  0  0  0  0  0  0  0  0  0  0
   15.2219  -11.4723  -12.6798 C   0  0  0  0  0  0  0  0  0  0  0  0
   16.7304  -11.4282  -12.7824 C   0  0  2  0  0  0  0  0  0  0  0  0
   17.3416  -12.6873  -12.4641 N   0  0  0  0  0  0  0  0  0  0  0  0
   17.2529  -10.4004  -11.8401 C   0  0  0  0  0  0  0  0  0  0  0  0
   17.2001  -10.5539  -10.5871 O   0  0  0  0  0  0  0  0  0  0  0  0
   17.8366   -9.1957  -12.3168 N   0  0  0  0  0  0  0  0  0  0  0  0
   18.3528   -8.1688  -11.3737 C   0  0  1  0  0  0  0  0  0  0  0  0
   19.5083   -7.5014  -12.0059 C   0  0  0  0  0  0  0  0  0  0  0  0
   20.0656   -6.2875  -11.3956 C   0  0  0  0  0  0  0  0  0  0  0  0
   21.2552   -5.8171  -12.1990 C   0  0  0  0  0  0  0  0  0  0  0  0
   21.8378   -6.6003  -12.9821 O   0  0  0  0  0  0  0  0  0  0  0  0
   17.1995   -7.3585  -11.0120 C   0  0  0  0  0  0  0  0  0  0  0  0
   16.3518   -6.9111  -11.8419 O   0  0  0  0  0  0  0  0  0  0  0  0
   21.7122   -4.5264  -12.0810 O   0  0  0  0  0  0  0  0  0  0  0  0
   15.5578   -6.4049   -7.7868 C   0  0  0  0  0  0  0  0  0  0  0  0
   15.8478   -6.1834   -9.2756 C   0  0  2  0  0  0  0  0  0  0  0  0
   16.9725   -7.0296   -9.6499 N   0  0  0  0  0  0  0  0  0  0  0  0
   16.2248   -4.7801   -9.4460 C   0  0  0  0  0  0  0  0  0  0  0  0
   15.2885   -3.7829   -9.2474 O   0  0  0  0  0  0  0  0  0  0  0  0
   17.4182   -4.4645   -9.7788 O   0  0  0  0  0  0  0  0  0  0  0  0
  2  1  1  0
  3  2  1  0
  3  4  1  1
  5  3  1  0
  5  7  1  0
  6  5  2  0
  8  7  1  0
  8  9  1  6
 10  9  1  0
 10 11  1  0
 11 12  2  0
 11 15  1  0
 13  8  1  0
 13 18  1  0
 14 13  2  0
 17 18  1  0
 17 16  1  1
 19 17  1  0
 20 19  1  0
 21 19  2  0
M  END
$$$$
