SEA.pdb
     RDKit          3D

 21 20  0  0  1  0  0  0  0  0999 V2000
   24.7417  -20.2734  -17.8073 O   0  0  0  0  0  0  0  0  0  0  0  0
   25.7579  -21.0093  -17.2427 C   0  0  0  0  0  0  0  0  0  0  0  0
   25.1932  -22.3221  -16.7471 C   0  0  2  0  0  0  0  0  0  0  0  0
   24.3265  -22.1569  -15.6148 N   0  0  0  0  0  0  0  0  0  0  0  0
   26.3158  -23.2175  -16.3531 C   0  0  0  0  0  0  0  0  0  0  0  0
   26.9468  -23.0615  -15.2697 O   0  0  0  0  0  0  0  0  0  0  0  0
   26.7256  -24.2924  -17.1874 N   0  0  0  0  0  0  0  0  0  0  0  0
   27.8003  -25.2268  -16.7606 C   0  0  1  0  0  0  0  0  0  0  0  0
   27.2540  -26.5985  -16.7818 C   0  0  0  0  0  0  0  0  0  0  0  0
   28.1268  -27.7302  -16.4442 C   0  0  0  0  0  0  0  0  0  0  0  0
   27.3456  -29.0193  -16.5427 C   0  0  0  0  0  0  0  0  0  0  0  0
   27.9124  -30.1176  -16.3465 O   0  0  0  0  0  0  0  0  0  0  0  0
   28.9401  -24.9237  -17.6130 C   0  0  0  0  0  0  0  0  0  0  0  0
   28.8516  -24.5919  -18.8335 O   0  0  0  0  0  0  0  0  0  0  0  0
   26.0057  -29.0032  -16.8482 O   0  0  0  0  0  0  0  0  0  0  0  0
   32.6385  -24.5796  -16.9975 C   0  0  0  0  0  0  0  0  0  0  0  0
   31.4008  -24.6307  -17.9003 C   0  0  2  0  0  0  0  0  0  0  0  0
   30.2533  -24.9888  -17.0780 N   0  0  0  0  0  0  0  0  0  0  0  0
   31.6252  -25.6799  -18.8949 C   0  0  0  0  0  0  0  0  0  0  0  0
   30.8584  -26.8297  -18.8731 O   0  0  0  0  0  0  0  0  0  0  0  0
   32.5286  -25.5439  -19.7892 O   0  0  0  0  0  0  0  0  0  0  0  0
  2  1  1  0
  3  2  1  0
  3  4  1  1
  5  3  1  0
  5  7  1  0
  6  5  2  0
  8  7  1  0
  8  9  1  6
 10  9  1  0
 10 11  1  0
 11 12  2  0
 11 15  1  0
 13  8  1  0
 13 18  1  0
 14 13  2  0
 17 18  1  0
 17 16  1  1
 19 17  1  0
 20 19  1  0
 21 19  2  0
M  END
$$$$
