SEA.pdb
     RDKit          3D

 21 20  0  0  1  0  0  0  0  0999 V2000
   32.2100  -35.1749   -5.3932 O   0  0  0  0  0  0  0  0  0  0  0  0
   31.0937  -34.4067   -5.6318 C   0  0  0  0  0  0  0  0  0  0  0  0
   29.9144  -35.0223   -4.9117 C   0  0  2  0  0  0  0  0  0  0  0  0
   28.6763  -34.3643   -5.2191 N   0  0  0  0  0  0  0  0  0  0  0  0
   30.1411  -34.9350   -3.4426 C   0  0  0  0  0  0  0  0  0  0  0  0
   29.9061  -33.8780   -2.7915 O   0  0  0  0  0  0  0  0  0  0  0  0
   30.6352  -36.0466   -2.7082 N   0  0  0  0  0  0  0  0  0  0  0  0
   30.8228  -35.9697   -1.2353 C   0  0  1  0  0  0  0  0  0  0  0  0
   29.9528  -36.9834   -0.6061 C   0  0  0  0  0  0  0  0  0  0  0  0
   28.5265  -36.6929   -0.4123 C   0  0  0  0  0  0  0  0  0  0  0  0
   27.8578  -37.8668    0.2634 C   0  0  0  0  0  0  0  0  0  0  0  0
   28.4909  -38.9289    0.4563 O   0  0  0  0  0  0  0  0  0  0  0  0
   32.2591  -36.0626   -1.0211 C   0  0  0  0  0  0  0  0  0  0  0  0
   33.0560  -36.6911   -1.7811 O   0  0  0  0  0  0  0  0  0  0  0  0
   26.5488  -37.7845    0.6740 O   0  0  0  0  0  0  0  0  0  0  0  0
   34.6221  -34.5162    1.4748 C   0  0  0  0  0  0  0  0  0  0  0  0
   34.2921  -35.3858    0.2564 C   0  0  2  0  0  0  0  0  0  0  0  0
   32.8445  -35.4171    0.0994 N   0  0  0  0  0  0  0  0  0  0  0  0
   34.7741  -36.7381    0.5380 C   0  0  0  0  0  0  0  0  0  0  0  0
   36.1084  -37.0495    0.3552 O   0  0  0  0  0  0  0  0  0  0  0  0
   33.9695  -37.6405    0.9538 O   0  0  0  0  0  0  0  0  0  0  0  0
  2  1  1  0
  3  2  1  0
  3  4  1  1
  5  3  1  0
  5  7  1  0
  6  5  2  0
  8  7  1  0
  8  9  1  1
 10  9  1  0
 10 11  1  0
 11 12  2  0
 11 15  1  0
 13  8  1  0
 13 18  1  0
 14 13  2  0
 17 18  1  0
 17 16  1  1
 19 17  1  0
 20 19  1  0
 21 19  2  0
M  END
$$$$
