SEA.pdb
     RDKit          3D

 21 20  0  0  1  0  0  0  0  0999 V2000
   13.5522   -9.6878  -13.9416 O   0  0  0  0  0  0  0  0  0  0  0  0
   14.9206   -9.6489  -14.0792 C   0  0  0  0  0  0  0  0  0  0  0  0
   15.2702   -9.8405  -15.5384 C   0  0  2  0  0  0  0  0  0  0  0  0
   14.9430  -11.1541  -16.0157 N   0  0  0  0  0  0  0  0  0  0  0  0
   16.7321   -9.6244  -15.7214 C   0  0  0  0  0  0  0  0  0  0  0  0
   17.5731  -10.5484  -15.5337 O   0  0  0  0  0  0  0  0  0  0  0  0
   17.2438   -8.3593  -16.1178 N   0  0  0  0  0  0  0  0  0  0  0  0
   18.6924   -8.1712  -16.3945 C   0  0  1  0  0  0  0  0  0  0  0  0
   18.8275   -7.4637  -17.6835 C   0  0  0  0  0  0  0  0  0  0  0  0
   18.1647   -6.1666  -17.8698 C   0  0  0  0  0  0  0  0  0  0  0  0
   18.8394   -5.4092  -18.9891 C   0  0  0  0  0  0  0  0  0  0  0  0
   19.7050   -4.5424  -18.7328 O   0  0  0  0  0  0  0  0  0  0  0  0
   19.2377   -7.5428  -15.2007 C   0  0  0  0  0  0  0  0  0  0  0  0
   18.6262   -6.6758  -14.5065 O   0  0  0  0  0  0  0  0  0  0  0  0
   18.5127   -5.6610  -20.3000 O   0  0  0  0  0  0  0  0  0  0  0  0
   22.2826   -8.0811  -13.0833 C   0  0  0  0  0  0  0  0  0  0  0  0
   21.1329   -7.2160  -13.6118 C   0  0  2  0  0  0  0  0  0  0  0  0
   20.5352   -7.9007  -14.7498 N   0  0  0  0  0  0  0  0  0  0  0  0
   21.7077   -5.9481  -14.0617 C   0  0  0  0  0  0  0  0  0  0  0  0
   22.1440   -5.0188  -13.1362 O   0  0  0  0  0  0  0  0  0  0  0  0
   21.8111   -5.6888  -15.3094 O   0  0  0  0  0  0  0  0  0  0  0  0
  2  1  1  0
  3  2  1  0
  3  4  1  1
  5  3  1  0
  5  7  1  0
  6  5  2  0
  8  7  1  0
  8  9  1  6
 10  9  1  0
 10 11  1  0
 11 12  2  0
 11 15  1  0
 13  8  1  0
 13 18  1  0
 14 13  2  0
 17 18  1  0
 17 16  1  6
 19 17  1  0
 20 19  1  0
 21 19  2  0
M  END
$$$$
