SEA.pdb
     RDKit          3D

 21 20  0  0  1  0  0  0  0  0999 V2000
   22.5235  -13.4460  -14.8371 O   0  0  0  0  0  0  0  0  0  0  0  0
   22.3949  -12.0813  -14.9557 C   0  0  0  0  0  0  0  0  0  0  0  0
   23.2741  -11.6048  -16.0907 C   0  0  2  0  0  0  0  0  0  0  0  0
   24.6692  -11.8297  -15.8391 N   0  0  0  0  0  0  0  0  0  0  0  0
   23.0619  -10.1446  -16.2910 C   0  0  0  0  0  0  0  0  0  0  0  0
   23.9580   -9.2957  -16.0213 O   0  0  0  0  0  0  0  0  0  0  0  0
   21.8326   -9.6436  -16.7979 N   0  0  0  0  0  0  0  0  0  0  0  0
   21.6679   -8.2019  -17.1216 C   0  0  1  0  0  0  0  0  0  0  0  0
   20.7006   -8.0859  -18.2312 C   0  0  0  0  0  0  0  0  0  0  0  0
   20.2652   -6.7557  -18.6753 C   0  0  0  0  0  0  0  0  0  0  0  0
   19.3452   -6.8950  -19.8653 C   0  0  0  0  0  0  0  0  0  0  0  0
   18.1839   -7.3373  -19.7172 O   0  0  0  0  0  0  0  0  0  0  0  0
   21.3509   -7.5536  -15.8579 C   0  0  0  0  0  0  0  0  0  0  0  0
   20.5980   -8.0522  -14.9679 O   0  0  0  0  0  0  0  0  0  0  0  0
   19.7700   -6.5391  -21.1229 O   0  0  0  0  0  0  0  0  0  0  0  0
   22.4762   -4.3570  -14.2084 C   0  0  0  0  0  0  0  0  0  0  0  0
   21.6511   -5.6469  -14.2775 C   0  0  2  0  0  0  0  0  0  0  0  0
   21.9053   -6.2803  -15.5641 N   0  0  0  0  0  0  0  0  0  0  0  0
   20.2396   -5.2707  -14.1977 C   0  0  0  0  0  0  0  0  0  0  0  0
   19.5376   -4.9687  -15.3495 O   0  0  0  0  0  0  0  0  0  0  0  0
   19.6449   -5.2177  -13.0672 O   0  0  0  0  0  0  0  0  0  0  0  0
  2  1  1  0
  3  2  1  0
  3  4  1  1
  5  3  1  0
  5  7  1  0
  6  5  2  0
  8  7  1  0
  8  9  1  6
 10  9  1  0
 10 11  1  0
 11 12  2  0
 11 15  1  0
 13  8  1  0
 13 18  1  0
 14 13  2  0
 17 18  1  0
 17 16  1  6
 19 17  1  0
 20 19  1  0
 21 19  2  0
M  END
$$$$
