SEA.pdb
     RDKit          3D

 21 20  0  0  1  0  0  0  0  0999 V2000
   18.9595  -10.5458  -16.7988 O   0  0  0  0  0  0  0  0  0  0  0  0
   17.9211  -10.2153  -15.9590 C   0  0  0  0  0  0  0  0  0  0  0  0
   17.2600   -8.9553  -16.4724 C   0  0  2  0  0  0  0  0  0  0  0  0
   17.8086   -8.5156  -17.7238 N   0  0  0  0  0  0  0  0  0  0  0  0
   17.4411   -7.8677  -15.4716 C   0  0  0  0  0  0  0  0  0  0  0  0
   17.0135   -7.9711  -14.2872 O   0  0  0  0  0  0  0  0  0  0  0  0
   18.1078   -6.6598  -15.8118 N   0  0  0  0  0  0  0  0  0  0  0  0
   18.4305   -5.6444  -14.7749 C   0  0  1  0  0  0  0  0  0  0  0  0
   19.8727   -5.7372  -14.4717 C   0  0  0  0  0  0  0  0  0  0  0  0
   20.4981   -4.7232  -13.6132 C   0  0  0  0  0  0  0  0  0  0  0  0
   21.9843   -4.9795  -13.5269 C   0  0  0  0  0  0  0  0  0  0  0  0
   22.7984   -4.1068  -13.9034 O   0  0  0  0  0  0  0  0  0  0  0  0
   17.9119   -4.3857  -15.2889 C   0  0  0  0  0  0  0  0  0  0  0  0
   18.1102   -3.9583  -16.4660 O   0  0  0  0  0  0  0  0  0  0  0  0
   22.4609   -6.1711  -13.0352 O   0  0  0  0  0  0  0  0  0  0  0  0
   15.3011   -2.0003  -14.1045 C   0  0  0  0  0  0  0  0  0  0  0  0
   16.5148   -2.3428  -14.9757 C   0  0  2  0  0  0  0  0  0  0  0  0
   17.1246   -3.5558  -14.4484 N   0  0  0  0  0  0  0  0  0  0  0  0
   17.4658   -1.2372  -14.8590 C   0  0  0  0  0  0  0  0  0  0  0  0
   17.1887   -0.0203  -15.4531 O   0  0  0  0  0  0  0  0  0  0  0  0
   18.5570   -1.3855  -14.2096 O   0  0  0  0  0  0  0  0  0  0  0  0
  2  1  1  0
  3  2  1  0
  3  4  1  6
  5  3  1  0
  5  7  1  0
  6  5  2  0
  8  7  1  0
  8  9  1  6
 10  9  1  0
 10 11  1  0
 11 12  2  0
 11 15  1  0
 13  8  1  0
 13 18  1  0
 14 13  2  0
 17 18  1  0
 17 16  1  1
 19 17  1  0
 20 19  1  0
 21 19  2  0
M  END
$$$$
