CHS.pdb
     RDKit          3D

 23 23  0  0  1  0  0  0  0  0999 V2000
    9.4174  -16.0174   18.9329 N   0  0  0  0  0  0  0  0  0  0  0  0
    8.2502  -16.0476   19.7898 C   0  0  1  0  0  0  0  0  0  0  0  0
    7.7227  -17.4543   19.7906 C   0  0  0  0  0  0  0  0  0  0  0  0
    9.0355  -18.5119   20.4769 S   0  0  0  0  0  0  0  0  0  0  0  0
    8.5567  -15.5127   21.1100 C   0  0  0  0  0  0  0  0  0  0  0  0
    9.7662  -15.3266   21.4079 O   0  0  0  0  0  0  0  0  0  0  0  0
    7.6157  -15.1769   22.1043 N   0  0  0  0  0  0  0  0  0  0  0  0
    7.9404  -14.6414   23.4018 C   0  0  1  0  0  0  0  0  0  0  0  0
    6.8811  -13.8368   24.0506 C   0  0  0  0  0  0  0  0  0  0  0  0
    7.1930  -13.2884   25.3809 C   0  0  0  0  0  0  0  0  0  0  0  0
    6.4527  -13.3103   26.5332 C   0  0  0  0  0  0  0  0  0  0  0  0
    7.1168  -12.6695   27.5406 N   0  0  0  0  0  0  0  0  0  0  0  0
    8.2547  -12.2600   27.0034 C   0  0  0  0  0  0  0  0  0  0  0  0
    8.3362  -12.6119   25.7119 N   0  0  0  0  0  0  0  0  0  0  0  0
    8.2845  -15.7462   24.3641 C   0  0  0  0  0  0  0  0  0  0  0  0
    7.4752  -16.7123   24.3979 O   0  0  0  0  0  0  0  0  0  0  0  0
   12.1063  -16.4961   25.5914 O   0  0  0  0  0  0  0  0  0  0  0  0
   11.0961  -17.4552   25.5750 C   0  0  0  0  0  0  0  0  0  0  0  0
    9.7722  -16.8405   25.9962 C   0  0  2  0  0  0  0  0  0  0  0  0
    9.4446  -15.7008   25.1791 N   0  0  0  0  0  0  0  0  0  0  0  0
    9.7642  -16.5165   27.4438 C   0  0  0  0  0  0  0  0  0  0  0  0
   10.0696  -17.4787   28.3948 O   0  0  0  0  0  0  0  0  0  0  0  0
    9.4805  -15.3624   27.8465 O   0  0  0  0  0  0  0  0  0  0  0  0
  2  1  1  6
  3  2  1  0
  4  3  1  0
  5  2  1  0
  6  5  2  0
  7  5  1  0
  8  7  1  0
  9 10  1  0
  8  9  1  1
 10 11  2  0
 12 11  1  0
 13 12  1  0
 14 13  2  0
 14 10  1  0
 15 20  1  0
 15  8  1  0
 16 15  2  0
 18 17  1  0
 19 20  1  0
 19 18  1  6
 21 19  1  0
 21 22  1  0
 23 21  2  0
M  END
$$$$
