CHS.pdb
     RDKit          3D

 23 23  0  0  1  0  0  0  0  0999 V2000
    8.6663  -14.3947   17.0946 N   0  0  0  0  0  0  0  0  0  0  0  0
    9.1350  -13.9056   18.3747 C   0  0  1  0  0  0  0  0  0  0  0  0
    7.9275  -13.5957   19.2132 C   0  0  0  0  0  0  0  0  0  0  0  0
    7.1499  -12.1150   18.4950 S   0  0  0  0  0  0  0  0  0  0  0  0
   10.0720  -14.8423   18.9812 C   0  0  0  0  0  0  0  0  0  0  0  0
   10.0441  -16.0412   18.5964 O   0  0  0  0  0  0  0  0  0  0  0  0
   11.0237  -14.5328   19.9739 N   0  0  0  0  0  0  0  0  0  0  0  0
   12.0045  -15.4516   20.4929 C   0  0  1  0  0  0  0  0  0  0  0  0
   13.3742  -14.9128   20.6475 C   0  0  0  0  0  0  0  0  0  0  0  0
   14.1903  -14.8288   19.4248 C   0  0  0  0  0  0  0  0  0  0  0  0
   14.4202  -15.7719   18.4585 C   0  0  0  0  0  0  0  0  0  0  0  0
   15.2549  -15.2773   17.4965 N   0  0  0  0  0  0  0  0  0  0  0  0
   15.5311  -14.0402   17.8765 C   0  0  0  0  0  0  0  0  0  0  0  0
   14.9119  -13.7359   19.0264 N   0  0  0  0  0  0  0  0  0  0  0  0
   11.5932  -15.9622   21.8475 C   0  0  0  0  0  0  0  0  0  0  0  0
   11.2088  -15.0854   22.6677 O   0  0  0  0  0  0  0  0  0  0  0  0
    9.4307  -19.2184   23.7751 O   0  0  0  0  0  0  0  0  0  0  0  0
   10.8040  -19.1859   23.5436 C   0  0  0  0  0  0  0  0  0  0  0  0
   11.3052  -17.7520   23.5173 C   0  0  2  0  0  0  0  0  0  0  0  0
   11.6361  -17.3412   22.1774 N   0  0  0  0  0  0  0  0  0  0  0  0
   12.4333  -17.5575   24.4607 C   0  0  0  0  0  0  0  0  0  0  0  0
   12.2088  -17.3656   25.8158 O   0  0  0  0  0  0  0  0  0  0  0  0
   13.6215  -17.5613   24.0574 O   0  0  0  0  0  0  0  0  0  0  0  0
  2  1  1  6
  3  2  1  0
  4  3  1  0
  5  2  1  0
  6  5  2  0
  7  5  1  0
  8  7  1  0
  9 10  1  0
  8  9  1  1
 10 11  2  0
 12 11  1  0
 13 12  1  0
 14 13  2  0
 14 10  1  0
 15 20  1  0
 15  8  1  0
 16 15  2  0
 18 17  1  0
 19 20  1  0
 19 18  1  6
 21 19  1  0
 21 22  1  0
 23 21  2  0
M  END
$$$$
