CHS.pdb
     RDKit          3D

 23 23  0  0  1  0  0  0  0  0999 V2000
    7.9390  -13.9345   17.4775 N   0  0  0  0  0  0  0  0  0  0  0  0
    8.8796  -13.3797   18.4289 C   0  0  1  0  0  0  0  0  0  0  0  0
    8.0875  -12.7984   19.5655 C   0  0  0  0  0  0  0  0  0  0  0  0
    7.2378  -14.1852   20.3828 S   0  0  0  0  0  0  0  0  0  0  0  0
    9.8707  -14.3721   18.8237 C   0  0  0  0  0  0  0  0  0  0  0  0
    9.6940  -15.5643   18.4581 O   0  0  0  0  0  0  0  0  0  0  0  0
   11.0287  -14.1244   19.5884 N   0  0  0  0  0  0  0  0  0  0  0  0
   12.0013  -15.1199   19.9606 C   0  0  1  0  0  0  0  0  0  0  0  0
   13.4125  -14.6738   19.9613 C   0  0  0  0  0  0  0  0  0  0  0  0
   14.1693  -14.8826   18.7157 C   0  0  0  0  0  0  0  0  0  0  0  0
   14.5686  -13.9751   17.7706 C   0  0  0  0  0  0  0  0  0  0  0  0
   15.2421  -14.6016   16.7604 N   0  0  0  0  0  0  0  0  0  0  0  0
   15.2519  -15.8832   17.0897 C   0  0  0  0  0  0  0  0  0  0  0  0
   14.6192  -16.0901   18.2539 N   0  0  0  0  0  0  0  0  0  0  0  0
   11.7220  -15.6486   21.3416 C   0  0  0  0  0  0  0  0  0  0  0  0
   11.3735  -14.7887   22.1952 O   0  0  0  0  0  0  0  0  0  0  0  0
   10.6939  -19.3304   24.2602 O   0  0  0  0  0  0  0  0  0  0  0  0
   11.0054  -18.9079   22.9698 C   0  0  0  0  0  0  0  0  0  0  0  0
   11.5007  -17.4719   22.9853 C   0  0  2  0  0  0  0  0  0  0  0  0
   11.8437  -17.0257   21.6597 N   0  0  0  0  0  0  0  0  0  0  0  0
   12.6183  -17.2970   23.9451 C   0  0  0  0  0  0  0  0  0  0  0  0
   13.8408  -16.7862   23.5354 O   0  0  0  0  0  0  0  0  0  0  0  0
   12.4869  -17.6068   25.1539 O   0  0  0  0  0  0  0  0  0  0  0  0
  2  1  1  6
  3  2  1  0
  4  3  1  0
  5  2  1  0
  6  5  2  0
  7  5  1  0
  8  7  1  0
  9 10  1  0
  8  9  1  1
 10 11  2  0
 12 11  1  0
 13 12  1  0
 14 13  2  0
 14 10  1  0
 15 20  1  0
 15  8  1  0
 16 15  2  0
 18 17  1  0
 19 20  1  0
 19 18  1  6
 21 19  1  0
 21 22  1  0
 23 21  2  0
M  END
$$$$
