CHS.pdb
     RDKit          3D

 23 23  0  0  1  0  0  0  0  0999 V2000
    7.5938  -19.9308   18.5872 N   0  0  0  0  0  0  0  0  0  0  0  0
    7.5353  -19.3762   19.9238 C   0  0  1  0  0  0  0  0  0  0  0  0
    7.7712  -20.4995   20.8932 C   0  0  0  0  0  0  0  0  0  0  0  0
    7.7145  -19.7784   22.5635 S   0  0  0  0  0  0  0  0  0  0  0  0
    8.4499  -18.2507   20.0635 C   0  0  0  0  0  0  0  0  0  0  0  0
    9.6336  -18.3950   19.6580 O   0  0  0  0  0  0  0  0  0  0  0  0
    8.1345  -16.9936   20.6178 N   0  0  0  0  0  0  0  0  0  0  0  0
    9.0599  -15.8989   20.7622 C   0  0  1  0  0  0  0  0  0  0  0  0
    8.5047  -14.5490   20.5176 C   0  0  0  0  0  0  0  0  0  0  0  0
    8.1350  -14.2311   19.1283 C   0  0  0  0  0  0  0  0  0  0  0  0
    8.3425  -14.9491   17.9804 C   0  0  0  0  0  0  0  0  0  0  0  0
    7.8473  -14.2763   16.8993 N   0  0  0  0  0  0  0  0  0  0  0  0
    7.3416  -13.1551   17.3877 C   0  0  0  0  0  0  0  0  0  0  0  0
    7.4952  -13.0925   18.7184 N   0  0  0  0  0  0  0  0  0  0  0  0
    9.6442  -15.8734   22.1488 C   0  0  0  0  0  0  0  0  0  0  0  0
    8.8089  -15.8440   23.0926 O   0  0  0  0  0  0  0  0  0  0  0  0
   11.5651  -18.2681   25.1017 O   0  0  0  0  0  0  0  0  0  0  0  0
   11.0232  -17.7768   23.9162 C   0  0  0  0  0  0  0  0  0  0  0  0
   11.5477  -16.3800   23.6303 C   0  0  2  0  0  0  0  0  0  0  0  0
   11.0444  -15.8819   22.3764 N   0  0  0  0  0  0  0  0  0  0  0  0
   13.0289  -16.3351   23.7003 C   0  0  0  0  0  0  0  0  0  0  0  0
   13.6929  -16.4660   24.9108 O   0  0  0  0  0  0  0  0  0  0  0  0
   13.7206  -16.1773   22.6654 O   0  0  0  0  0  0  0  0  0  0  0  0
  2  1  1  6
  3  2  1  0
  4  3  1  0
  5  2  1  0
  6  5  2  0
  7  5  1  0
  8  7  1  0
  9 10  1  0
  8  9  1  1
 10 11  2  0
 12 11  1  0
 13 12  1  0
 14 13  2  0
 14 10  1  0
 15 20  1  0
 15  8  1  0
 16 15  2  0
 18 17  1  0
 19 20  1  0
 19 18  1  6
 21 19  1  0
 21 22  1  0
 23 21  2  0
M  END
$$$$
