CHS.pdb
     RDKit          3D

 23 23  0  0  1  0  0  0  0  0999 V2000
    9.4662  -15.6958   13.6804 N   0  0  0  0  0  0  0  0  0  0  0  0
   10.0738  -16.4693   14.7435 C   0  0  1  0  0  0  0  0  0  0  0  0
   11.0032  -17.4641   14.1082 C   0  0  0  0  0  0  0  0  0  0  0  0
   11.6786  -18.4905   15.4512 S   0  0  0  0  0  0  0  0  0  0  0  0
   10.6978  -15.5996   15.7320 C   0  0  0  0  0  0  0  0  0  0  0  0
   11.3291  -14.5908   15.3196 O   0  0  0  0  0  0  0  0  0  0  0  0
   10.6637  -15.7797   17.1297 N   0  0  0  0  0  0  0  0  0  0  0  0
   11.2882  -14.9064   18.0904 C   0  0  1  0  0  0  0  0  0  0  0  0
   10.5143  -14.6482   19.3253 C   0  0  0  0  0  0  0  0  0  0  0  0
    9.2328  -13.9416   19.1633 C   0  0  0  0  0  0  0  0  0  0  0  0
    8.6745  -13.3856   18.0428 C   0  0  0  0  0  0  0  0  0  0  0  0
    7.4705  -12.8133   18.3421 N   0  0  0  0  0  0  0  0  0  0  0  0
    7.2981  -13.0201   19.6377 C   0  0  0  0  0  0  0  0  0  0  0  0
    8.3324  -13.6924   20.1638 N   0  0  0  0  0  0  0  0  0  0  0  0
   12.6172  -15.4594   18.5295 C   0  0  0  0  0  0  0  0  0  0  0  0
   12.6484  -16.7018   18.7412 O   0  0  0  0  0  0  0  0  0  0  0  0
   15.8621  -13.1716   18.2083 O   0  0  0  0  0  0  0  0  0  0  0  0
   16.1838  -14.5080   18.4345 C   0  0  0  0  0  0  0  0  0  0  0  0
   15.0119  -15.2372   19.0690 C   0  0  2  0  0  0  0  0  0  0  0  0
   13.7592  -14.6341   18.6936 N   0  0  0  0  0  0  0  0  0  0  0  0
   15.1707  -15.3359   20.5407 C   0  0  0  0  0  0  0  0  0  0  0  0
   16.2921  -15.9283   21.1018 O   0  0  0  0  0  0  0  0  0  0  0  0
   14.2940  -14.8856   21.3173 O   0  0  0  0  0  0  0  0  0  0  0  0
  2  1  1  6
  3  2  1  0
  4  3  1  0
  5  2  1  0
  6  5  2  0
  7  5  1  0
  8  7  1  0
  9 10  1  0
  8  9  1  1
 10 11  2  0
 12 11  1  0
 13 12  1  0
 14 13  2  0
 14 10  1  0
 15 20  1  0
 15  8  1  0
 16 15  2  0
 18 17  1  0
 19 20  1  0
 19 18  1  1
 21 19  1  0
 21 22  1  0
 23 21  2  0
M  END
$$$$
