ASM.pdb
     RDKit          3D

 20 19  0  0  1  0  0  0  0  0999 V2000
   16.4077  -11.4461  -15.8523 C   0  0  0  0  0  0  0  0  0  0  0  0
   15.7905  -10.1924  -16.3870 C   0  0  2  0  0  0  0  0  0  0  0  0
   14.9381  -10.4814  -17.5441 N   0  0  0  0  0  0  0  0  0  0  0  0
   16.8667   -9.2452  -16.7794 C   0  0  0  0  0  0  0  0  0  0  0  0
   17.6946   -9.5670  -17.6499 O   0  0  0  0  0  0  0  0  0  0  0  0
   18.2871   -4.6816  -16.5017 O   0  0  0  0  0  0  0  0  0  0  0  0
   17.3288   -5.6430  -16.1812 C   0  0  0  0  0  0  0  0  0  0  0  0
   17.9527   -6.9921  -16.4708 C   0  0  2  0  0  0  0  0  0  0  0  0
   16.9466   -7.9897  -16.1669 N   0  0  0  0  0  0  0  0  0  0  0  0
   19.1233   -7.2589  -15.5836 C   0  0  0  0  0  0  0  0  0  0  0  0
   18.9611   -7.7080  -14.4117 O   0  0  0  0  0  0  0  0  0  0  0  0
   25.9726  -10.4043  -14.2713 C   0  0  0  0  0  0  0  0  0  0  0  0
   24.7201   -9.9224  -15.4852 S   0  0  0  0  0  0  0  0  0  0  0  0
   23.6264   -8.6478  -14.7569 C   0  0  0  0  0  0  0  0  0  0  0  0
   22.5168   -8.2952  -15.7022 C   0  0  0  0  0  0  0  0  0  0  0  0
   21.5622   -7.3540  -15.0680 C   0  0  2  0  0  0  0  0  0  0  0  0
   20.4576   -7.0285  -15.9962 N   0  0  0  0  0  0  0  0  0  0  0  0
   22.2083   -6.0663  -14.7730 C   0  0  0  0  0  0  0  0  0  0  0  0
   22.1768   -5.1123  -15.5491 O   0  0  0  0  0  0  0  0  0  0  0  0
   22.8948   -5.9055  -13.5546 O   0  0  0  0  0  0  0  0  0  0  0  0
  2  1  1  6
  2  4  1  0
  3  2  1  0
  4  5  2  0
  8  7  1  1
  7  6  1  0
  9  4  1  0
  9  8  1  0
 10  8  1  0
 10 11  2  0
 12 13  1  0
 13 14  1  0
 14 15  1  0
 16 15  1  6
 16 17  1  0
 16 18  1  0
 17 10  1  0
 18 20  1  0
 19 18  2  0
M  END
$$$$
