ASM.pdb
     RDKit          3D

 20 19  0  0  1  0  0  0  0  0999 V2000
   15.9619   -9.7601  -18.0528 C   0  0  0  0  0  0  0  0  0  0  0  0
   16.9458   -9.3797  -19.1138 C   0  0  2  0  0  0  0  0  0  0  0  0
   17.2503  -10.5233  -19.9789 N   0  0  0  0  0  0  0  0  0  0  0  0
   18.1933   -8.8887  -18.4720 C   0  0  0  0  0  0  0  0  0  0  0  0
   18.9564   -9.6866  -17.8994 O   0  0  0  0  0  0  0  0  0  0  0  0
   18.7282   -4.8687  -18.0051 O   0  0  0  0  0  0  0  0  0  0  0  0
   19.8095   -5.5374  -18.5789 C   0  0  0  0  0  0  0  0  0  0  0  0
   19.7637   -6.9606  -18.0633 C   0  0  2  0  0  0  0  0  0  0  0  0
   18.5075   -7.5259  -18.5130 N   0  0  0  0  0  0  0  0  0  0  0  0
   19.7608   -7.0055  -16.5712 C   0  0  0  0  0  0  0  0  0  0  0  0
   18.6737   -7.0425  -15.9245 O   0  0  0  0  0  0  0  0  0  0  0  0
   22.7551   -9.8117  -10.0000 C   0  0  0  0  0  0  0  0  0  0  0  0
   22.9301   -9.6093  -11.7896 S   0  0  0  0  0  0  0  0  0  0  0  0
   21.7695   -8.3189  -12.3718 C   0  0  0  0  0  0  0  0  0  0  0  0
   21.7954   -8.2155  -13.8678 C   0  0  0  0  0  0  0  0  0  0  0  0
   20.8660   -7.1608  -14.3400 C   0  0  2  0  0  0  0  0  0  0  0  0
   20.9535   -7.0092  -15.8087 N   0  0  0  0  0  0  0  0  0  0  0  0
   21.2387   -5.8467  -13.7952 C   0  0  0  0  0  0  0  0  0  0  0  0
   21.9000   -5.0259  -14.4297 O   0  0  0  0  0  0  0  0  0  0  0  0
   20.8275   -5.5009  -12.4940 O   0  0  0  0  0  0  0  0  0  0  0  0
  2  1  1  1
  2  4  1  0
  3  2  1  0
  4  5  2  0
  8  7  1  1
  7  6  1  0
  9  4  1  0
  9  8  1  0
 10  8  1  0
 10 11  2  0
 12 13  1  0
 13 14  1  0
 14 15  1  0
 16 15  1  1
 16 17  1  0
 16 18  1  0
 17 10  1  0
 18 20  1  0
 19 18  2  0
M  END
$$$$
