ASM.pdb
     RDKit          3D

 20 19  0  0  1  0  0  0  0  0999 V2000
   19.4090  -24.1749   -6.7099 C   0  0  0  0  0  0  0  0  0  0  0  0
   18.2152  -24.8299   -7.3300 C   0  0  2  0  0  0  0  0  0  0  0  0
   18.2163  -24.6494   -8.7847 N   0  0  0  0  0  0  0  0  0  0  0  0
   16.9784  -24.2426   -6.7514 C   0  0  0  0  0  0  0  0  0  0  0  0
   16.4017  -23.3058   -7.3316 O   0  0  0  0  0  0  0  0  0  0  0  0
   14.4098  -26.5122   -4.4526 O   0  0  0  0  0  0  0  0  0  0  0  0
   14.2084  -25.4746   -5.3628 C   0  0  0  0  0  0  0  0  0  0  0  0
   15.1806  -24.3749   -4.9904 C   0  0  2  0  0  0  0  0  0  0  0  0
   16.4639  -24.7463   -5.5516 N   0  0  0  0  0  0  0  0  0  0  0  0
   15.3565  -24.2735   -3.5114 C   0  0  0  0  0  0  0  0  0  0  0  0
   16.1947  -25.0027   -2.9055 O   0  0  0  0  0  0  0  0  0  0  0  0
   17.4089  -19.9783    2.0846 C   0  0  0  0  0  0  0  0  0  0  0  0
   16.0479  -20.1214    0.9007 S   0  0  0  0  0  0  0  0  0  0  0  0
   15.9862  -21.8310    0.2490 C   0  0  0  0  0  0  0  0  0  0  0  0
   14.8602  -21.9875   -0.7291 C   0  0  0  0  0  0  0  0  0  0  0  0
   14.8035  -23.3745   -1.2510 C   0  0  2  0  0  0  0  0  0  0  0  0
   14.6086  -23.3715   -2.7172 N   0  0  0  0  0  0  0  0  0  0  0  0
   13.6408  -24.0943   -0.7103 C   0  0  0  0  0  0  0  0  0  0  0  0
   12.6477  -24.3587   -1.3866 O   0  0  0  0  0  0  0  0  0  0  0  0
   13.6520  -24.5040    0.6365 O   0  0  0  0  0  0  0  0  0  0  0  0
  2  1  1  1
  2  4  1  0
  3  2  1  0
  4  5  2  0
  8  7  1  1
  7  6  1  0
  9  4  1  0
  9  8  1  0
 10  8  1  0
 10 11  2  0
 12 13  1  0
 13 14  1  0
 14 15  1  0
 16 15  1  1
 16 17  1  0
 16 18  1  0
 17 10  1  0
 18 20  1  0
 19 18  2  0
M  END
$$$$
