ASM.pdb
     RDKit          3D

 20 19  0  0  1  0  0  0  0  0999 V2000
   21.0949  -20.8074  -13.2056 C   0  0  0  0  0  0  0  0  0  0  0  0
   22.3988  -20.1376  -12.9066 C   0  0  2  0  0  0  0  0  0  0  0  0
   23.1816  -19.9465  -14.1312 N   0  0  0  0  0  0  0  0  0  0  0  0
   23.1672  -20.9689  -11.9433 C   0  0  0  0  0  0  0  0  0  0  0  0
   22.6513  -21.9854  -11.4459 O   0  0  0  0  0  0  0  0  0  0  0  0
   27.0882  -20.4925  -11.9892 O   0  0  0  0  0  0  0  0  0  0  0  0
   26.5796  -21.7057  -11.5253 C   0  0  0  0  0  0  0  0  0  0  0  0
   25.3356  -21.3785  -10.7262 C   0  0  2  0  0  0  0  0  0  0  0  0
   24.4732  -20.6052  -11.5969 N   0  0  0  0  0  0  0  0  0  0  0  0
   25.6505  -20.5248   -9.5427 C   0  0  0  0  0  0  0  0  0  0  0  0
   25.3670  -19.2915   -9.5375 O   0  0  0  0  0  0  0  0  0  0  0  0
   30.3139  -20.3669   -4.6715 C   0  0  0  0  0  0  0  0  0  0  0  0
   28.7013  -20.6585   -3.9041 S   0  0  0  0  0  0  0  0  0  0  0  0
   27.3885  -19.9336   -4.9540 C   0  0  0  0  0  0  0  0  0  0  0  0
   27.0216  -20.8679   -6.0683 C   0  0  0  0  0  0  0  0  0  0  0  0
   26.6012  -20.1126   -7.2734 C   0  0  2  0  0  0  0  0  0  0  0  0
   26.2731  -21.0380   -8.3797 N   0  0  0  0  0  0  0  0  0  0  0  0
   27.7000  -19.2787   -7.7831 C   0  0  0  0  0  0  0  0  0  0  0  0
   28.5119  -19.6823   -8.6147 O   0  0  0  0  0  0  0  0  0  0  0  0
   27.8396  -17.9610   -7.3078 O   0  0  0  0  0  0  0  0  0  0  0  0
  2  1  1  6
  2  4  1  0
  3  2  1  0
  4  5  2  0
  8  7  1  6
  7  6  1  0
  9  4  1  0
  9  8  1  0
 10  8  1  0
 10 11  2  0
 12 13  1  0
 13 14  1  0
 14 15  1  0
 16 15  1  1
 16 17  1  0
 16 18  1  0
 17 10  1  0
 18 20  1  0
 19 18  2  0
M  END
$$$$
