ASM.pdb
     RDKit          3D

 20 19  0  0  1  0  0  0  0  0999 V2000
   17.8296  -13.2042  -19.9882 C   0  0  0  0  0  0  0  0  0  0  0  0
   18.7583  -12.9900  -18.8350 C   0  0  2  0  0  0  0  0  0  0  0  0
   18.1589  -13.4668  -17.5851 N   0  0  0  0  0  0  0  0  0  0  0  0
   19.0725  -11.5416  -18.7213 C   0  0  0  0  0  0  0  0  0  0  0  0
   19.6935  -10.9645  -19.6313 O   0  0  0  0  0  0  0  0  0  0  0  0
   17.5594   -9.5021  -15.4768 O   0  0  0  0  0  0  0  0  0  0  0  0
   17.6744   -8.8557  -16.7075 C   0  0  0  0  0  0  0  0  0  0  0  0
   18.9113   -9.4153  -17.3785 C   0  0  2  0  0  0  0  0  0  0  0  0
   18.6681  -10.8284  -17.5875 N   0  0  0  0  0  0  0  0  0  0  0  0
   20.1138   -9.2976  -16.5017 C   0  0  0  0  0  0  0  0  0  0  0  0
   20.4496  -10.2423  -15.7295 O   0  0  0  0  0  0  0  0  0  0  0  0
   26.6219  -10.1948  -14.8085 C   0  0  0  0  0  0  0  0  0  0  0  0
   25.0195  -10.1459  -15.6477 S   0  0  0  0  0  0  0  0  0  0  0  0
   24.6786   -8.4369  -16.2082 C   0  0  0  0  0  0  0  0  0  0  0  0
   23.3299   -8.3490  -16.8582 C   0  0  0  0  0  0  0  0  0  0  0  0
   22.2609   -8.2138  -15.8393 C   0  0  2  0  0  0  0  0  0  0  0  0
   20.9321   -8.1427  -16.4851 N   0  0  0  0  0  0  0  0  0  0  0  0
   22.3957   -6.9511  -15.0977 C   0  0  0  0  0  0  0  0  0  0  0  0
   21.9179   -5.8900  -15.4970 O   0  0  0  0  0  0  0  0  0  0  0  0
   23.0985   -6.9425  -13.8779 O   0  0  0  0  0  0  0  0  0  0  0  0
  2  1  1  6
  2  4  1  0
  3  2  1  0
  4  5  2  0
  8  7  1  1
  7  6  1  0
  9  4  1  0
  9  8  1  0
 10  8  1  0
 10 11  2  0
 12 13  1  0
 13 14  1  0
 14 15  1  0
 16 15  1  6
 16 17  1  0
 16 18  1  0
 17 10  1  0
 18 20  1  0
 19 18  2  0
M  END
$$$$
