ASM.pdb
     RDKit          3D

 20 19  0  0  1  0  0  0  0  0999 V2000
   16.2174  -12.0392  -18.6453 C   0  0  0  0  0  0  0  0  0  0  0  0
   17.1240  -11.8333  -17.4730 C   0  0  2  0  0  0  0  0  0  0  0  0
   16.3537  -11.7042  -16.2325 N   0  0  0  0  0  0  0  0  0  0  0  0
   17.9357  -10.6073  -17.6907 C   0  0  0  0  0  0  0  0  0  0  0  0
   18.7306  -10.5463  -18.6452 O   0  0  0  0  0  0  0  0  0  0  0  0
   17.0519   -7.4328  -15.3412 O   0  0  0  0  0  0  0  0  0  0  0  0
   17.5272   -7.1675  -16.6254 C   0  0  0  0  0  0  0  0  0  0  0  0
   18.5145   -8.2662  -16.9592 C   0  0  2  0  0  0  0  0  0  0  0  0
   17.8038   -9.5212  -16.8185 N   0  0  0  0  0  0  0  0  0  0  0  0
   19.6548   -8.2925  -15.9961 C   0  0  0  0  0  0  0  0  0  0  0  0
   19.5615   -8.9105  -14.8957 O   0  0  0  0  0  0  0  0  0  0  0  0
   26.8729  -10.0539  -14.5006 C   0  0  0  0  0  0  0  0  0  0  0  0
   25.6435   -9.6166  -15.7542 S   0  0  0  0  0  0  0  0  0  0  0  0
   24.2383   -8.7582  -14.9543 C   0  0  0  0  0  0  0  0  0  0  0  0
   23.1028   -8.5836  -15.9183 C   0  0  0  0  0  0  0  0  0  0  0  0
   22.0008   -7.8068  -15.3006 C   0  0  2  0  0  0  0  0  0  0  0  0
   20.8834   -7.6389  -16.2550 N   0  0  0  0  0  0  0  0  0  0  0  0
   22.4366   -6.4405  -14.9750 C   0  0  0  0  0  0  0  0  0  0  0  0
   22.2524   -5.4855  -15.7283 O   0  0  0  0  0  0  0  0  0  0  0  0
   23.0932   -6.2019  -13.7528 O   0  0  0  0  0  0  0  0  0  0  0  0
  2  1  1  6
  2  4  1  0
  3  2  1  0
  4  5  2  0
  8  7  1  1
  7  6  1  0
  9  4  1  0
  9  8  1  0
 10  8  1  0
 10 11  2  0
 12 13  1  0
 13 14  1  0
 14 15  1  0
 16 15  1  6
 16 17  1  0
 16 18  1  0
 17 10  1  0
 18 20  1  0
 19 18  2  0
M  END
$$$$
