ASM.pdb
     RDKit          3D

 20 19  0  0  1  0  0  0  0  0999 V2000
   16.5847   -9.2397  -18.2459 C   0  0  0  0  0  0  0  0  0  0  0  0
   17.8673  -10.0047  -18.1548 C   0  0  2  0  0  0  0  0  0  0  0  0
   17.6107  -11.4405  -18.0084 N   0  0  0  0  0  0  0  0  0  0  0  0
   18.6497   -9.5126  -16.9907 C   0  0  0  0  0  0  0  0  0  0  0  0
   18.0656   -9.0201  -16.0093 O   0  0  0  0  0  0  0  0  0  0  0  0
   22.9810   -9.7065  -14.9451 O   0  0  0  0  0  0  0  0  0  0  0  0
   22.1502  -10.0796  -16.0015 C   0  0  0  0  0  0  0  0  0  0  0  0
   20.9000   -9.2320  -15.8915 C   0  0  2  0  0  0  0  0  0  0  0  0
   20.0458   -9.6044  -17.0013 N   0  0  0  0  0  0  0  0  0  0  0  0
   21.2063   -7.7782  -16.0367 C   0  0  0  0  0  0  0  0  0  0  0  0
   21.4763   -7.2811  -17.1687 O   0  0  0  0  0  0  0  0  0  0  0  0
   18.2490   -3.1100  -17.1403 C   0  0  0  0  0  0  0  0  0  0  0  0
   19.2401   -2.2029  -15.9281 S   0  0  0  0  0  0  0  0  0  0  0  0
   20.7094   -3.1976  -15.4776 C   0  0  0  0  0  0  0  0  0  0  0  0
   20.3653   -4.6559  -15.4126 C   0  0  0  0  0  0  0  0  0  0  0  0
   21.5765   -5.4730  -15.1578 C   0  0  2  0  0  0  0  0  0  0  0  0
   21.2118   -6.8891  -14.9353 N   0  0  0  0  0  0  0  0  0  0  0  0
   22.2474   -5.0498  -13.9195 C   0  0  0  0  0  0  0  0  0  0  0  0
   22.2194   -5.7163  -12.8858 O   0  0  0  0  0  0  0  0  0  0  0  0
   22.9550   -3.8330  -13.9030 O   0  0  0  0  0  0  0  0  0  0  0  0
  2  1  1  1
  2  4  1  0
  3  2  1  0
  4  5  2  0
  8  7  1  6
  7  6  1  0
  9  4  1  0
  9  8  1  0
 10  8  1  0
 10 11  2  0
 12 13  1  0
 13 14  1  0
 14 15  1  0
 16 15  1  1
 16 17  1  0
 16 18  1  0
 17 10  1  0
 18 20  1  0
 19 18  2  0
M  END
$$$$
