ASM.pdb
     RDKit          3D

 20 19  0  0  1  0  0  0  0  0999 V2000
   29.0170  -18.6874  -14.8404 C   0  0  0  0  0  0  0  0  0  0  0  0
   27.8127  -19.5744  -14.8036 C   0  0  2  0  0  0  0  0  0  0  0  0
   27.0263  -19.4399  -16.0334 N   0  0  0  0  0  0  0  0  0  0  0  0
   26.9751  -19.2150  -13.6295 C   0  0  0  0  0  0  0  0  0  0  0  0
   26.7492  -18.0207  -13.3661 O   0  0  0  0  0  0  0  0  0  0  0  0
   23.1923  -20.4460  -11.3203 O   0  0  0  0  0  0  0  0  0  0  0  0
   24.1652  -20.6687  -12.2946 C   0  0  0  0  0  0  0  0  0  0  0  0
   25.4353  -20.0092  -11.7994 C   0  0  2  0  0  0  0  0  0  0  0  0
   26.4410  -20.2239  -12.8203 N   0  0  0  0  0  0  0  0  0  0  0  0
   25.9338  -20.6474  -10.5453 C   0  0  0  0  0  0  0  0  0  0  0  0
   26.4343  -21.8096  -10.5625 O   0  0  0  0  0  0  0  0  0  0  0  0
   29.0252  -18.2510   -5.6715 C   0  0  0  0  0  0  0  0  0  0  0  0
   28.3454  -19.6531   -4.7515 S   0  0  0  0  0  0  0  0  0  0  0  0
   27.2947  -20.6581   -5.8638 C   0  0  0  0  0  0  0  0  0  0  0  0
   27.0792  -19.9554   -7.1711 C   0  0  0  0  0  0  0  0  0  0  0  0
   26.2209  -20.7646   -8.0699 C   0  0  2  0  0  0  0  0  0  0  0  0
   25.8758  -19.9997   -9.2880 N   0  0  0  0  0  0  0  0  0  0  0  0
   24.9323  -21.0730   -7.4320 C   0  0  0  0  0  0  0  0  0  0  0  0
   23.8809  -20.5211   -7.7537 O   0  0  0  0  0  0  0  0  0  0  0  0
   24.8862  -22.0388   -6.4088 O   0  0  0  0  0  0  0  0  0  0  0  0
  2  1  1  6
  2  4  1  0
  3  2  1  0
  4  5  2  0
  8  7  1  6
  7  6  1  0
  9  4  1  0
  9  8  1  0
 10  8  1  0
 10 11  2  0
 12 13  1  0
 13 14  1  0
 14 15  1  0
 16 15  1  1
 16 17  1  0
 16 18  1  0
 17 10  1  0
 18 20  1  0
 19 18  2  0
M  END
$$$$
