ASM.pdb
     RDKit          3D

 20 19  0  0  1  0  0  0  0  0999 V2000
   15.4827  -10.2578   -9.5755 C   0  0  0  0  0  0  0  0  0  0  0  0
   14.6774   -9.0534   -9.2019 C   0  0  2  0  0  0  0  0  0  0  0  0
   13.2451   -9.3032   -9.3895 N   0  0  0  0  0  0  0  0  0  0  0  0
   15.1009   -7.9014  -10.0403 C   0  0  0  0  0  0  0  0  0  0  0  0
   14.6374   -7.7594  -11.1857 O   0  0  0  0  0  0  0  0  0  0  0  0
   16.9728   -4.8371   -8.2312 O   0  0  0  0  0  0  0  0  0  0  0  0
   16.3221   -4.6196   -9.4457 C   0  0  0  0  0  0  0  0  0  0  0  0
   16.5517   -5.8560  -10.2894 C   0  0  2  0  0  0  0  0  0  0  0  0
   16.0229   -6.9766   -9.5381 N   0  0  0  0  0  0  0  0  0  0  0  0
   18.0064   -6.1134  -10.5039 C   0  0  0  0  0  0  0  0  0  0  0  0
   18.6285   -6.9564   -9.7942 O   0  0  0  0  0  0  0  0  0  0  0  0
   23.0717  -10.0239  -13.7874 C   0  0  0  0  0  0  0  0  0  0  0  0
   21.3886   -9.4538  -13.4460 S   0  0  0  0  0  0  0  0  0  0  0  0
   21.4500   -7.7657  -12.7405 C   0  0  0  0  0  0  0  0  0  0  0  0
   20.0767   -7.2969  -12.3615 C   0  0  0  0  0  0  0  0  0  0  0  0
   20.1221   -5.9203  -11.8117 C   0  0  2  0  0  0  0  0  0  0  0  0
   18.7589   -5.4405  -11.4963 N   0  0  0  0  0  0  0  0  0  0  0  0
   20.6425   -4.9715  -12.8074 C   0  0  0  0  0  0  0  0  0  0  0  0
   19.9222   -4.4075  -13.6300 O   0  0  0  0  0  0  0  0  0  0  0  0
   22.0212   -4.6878  -12.8309 O   0  0  0  0  0  0  0  0  0  0  0  0
  2  1  1  6
  2  4  1  0
  3  2  1  0
  4  5  2  0
  8  7  1  1
  7  6  1  0
  9  4  1  0
  9  8  1  0
 10  8  1  0
 10 11  2  0
 12 13  1  0
 13 14  1  0
 14 15  1  0
 16 15  1  6
 16 17  1  0
 16 18  1  0
 17 10  1  0
 18 20  1  0
 19 18  2  0
M  END
$$$$
