ASM.pdb
     RDKit          3D

 20 19  0  0  1  0  0  0  0  0999 V2000
   26.7506  -15.8609  -14.5783 C   0  0  0  0  0  0  0  0  0  0  0  0
   26.8981  -16.9919  -15.5467 C   0  0  2  0  0  0  0  0  0  0  0  0
   26.2148  -16.6924  -16.8086 N   0  0  0  0  0  0  0  0  0  0  0  0
   26.3288  -18.2273  -14.9476 C   0  0  0  0  0  0  0  0  0  0  0  0
   25.0970  -18.3963  -14.9182 O   0  0  0  0  0  0  0  0  0  0  0  0
   28.9609  -21.2269  -13.9584 O   0  0  0  0  0  0  0  0  0  0  0  0
   27.7018  -21.5198  -14.4823 C   0  0  0  0  0  0  0  0  0  0  0  0
   26.7459  -20.4895  -13.9183 C   0  0  2  0  0  0  0  0  0  0  0  0
   27.1822  -19.2005  -14.4162 N   0  0  0  0  0  0  0  0  0  0  0  0
   26.8128  -20.4345  -12.4280 C   0  0  0  0  0  0  0  0  0  0  0  0
   27.9156  -20.2571  -11.8334 O   0  0  0  0  0  0  0  0  0  0  0  0
   29.0540  -19.5684   -6.4634 C   0  0  0  0  0  0  0  0  0  0  0  0
   27.5257  -18.8386   -7.1008 S   0  0  0  0  0  0  0  0  0  0  0  0
   26.5629  -20.1201   -7.9852 C   0  0  0  0  0  0  0  0  0  0  0  0
   26.5732  -19.8679   -9.4635 C   0  0  0  0  0  0  0  0  0  0  0  0
   25.8398  -20.9353  -10.1861 C   0  0  2  0  0  0  0  0  0  0  0  0
   25.6660  -20.5753  -11.6102 N   0  0  0  0  0  0  0  0  0  0  0  0
   24.4754  -21.0875   -9.6590 C   0  0  0  0  0  0  0  0  0  0  0  0
   24.2413  -21.3157   -8.4729 O   0  0  0  0  0  0  0  0  0  0  0  0
   23.3823  -20.9693  -10.5381 O   0  0  0  0  0  0  0  0  0  0  0  0
  2  1  1  1
  2  4  1  0
  3  2  1  0
  4  5  2  0
  8  7  1  6
  7  6  1  0
  9  4  1  0
  9  8  1  0
 10  8  1  0
 10 11  2  0
 12 13  1  0
 13 14  1  0
 14 15  1  0
 16 15  1  1
 16 17  1  0
 16 18  1  0
 17 10  1  0
 18 20  1  0
 19 18  2  0
M  END
$$$$
