DDR.pdb
     RDKit          3D

 28 27  0  0  1  0  0  0  0  0999 V2000
    9.7902  -15.9744   17.5427 N   0  0  0  0  0  0  0  0  0  0  0  0
    9.9756  -17.3841   17.6590 C   0  0  1  0  0  0  0  0  0  0  0  0
   11.0357  -17.9367   16.7622 C   0  0  0  0  0  0  0  0  0  0  0  0
   10.9754  -17.4208   15.3755 C   0  0  0  0  0  0  0  0  0  0  0  0
    9.9142  -17.5507   14.7297 O   0  0  0  0  0  0  0  0  0  0  0  0
   10.3491  -17.7856   19.0589 C   0  0  0  0  0  0  0  0  0  0  0  0
    9.5883  -18.5726   19.6646 O   0  0  0  0  0  0  0  0  0  0  0  0
   12.0520  -16.8002   14.7707 O   0  0  0  0  0  0  0  0  0  0  0  0
   11.5070  -17.3221   19.7202 N   0  0  0  0  0  0  0  0  0  0  0  0
   11.8519  -17.6115   21.0816 C   0  0  1  0  0  0  0  0  0  0  0  0
   13.2919  -17.9698   21.2173 C   0  0  0  0  0  0  0  0  0  0  0  0
   13.7072  -18.3758   22.5629 C   0  0  0  0  0  0  0  0  0  0  0  0
   14.2957  -17.5129   23.2705 O   0  0  0  0  0  0  0  0  0  0  0  0
   11.4170  -16.5339   22.0120 C   0  0  0  0  0  0  0  0  0  0  0  0
   12.2958  -15.9150   22.6573 O   0  0  0  0  0  0  0  0  0  0  0  0
   13.5130  -19.6251   23.1324 O   0  0  0  0  0  0  0  0  0  0  0  0
    8.4062  -15.0466   18.1530 N   0  0  0  0  0  0  0  0  0  0  0  0
    8.1718  -13.7192   18.6244 C   0  0  0  0  0  0  0  0  0  0  0  0
    8.0222  -12.7375   17.7966 N   0  0  0  0  0  0  0  0  0  0  0  0
    8.0922  -13.4069   20.0077 N   0  0  0  0  0  0  0  0  0  0  0  0
    8.1988  -14.4437   20.9703 C   0  0  0  0  0  0  0  0  0  0  0  0
    7.8691  -14.0120   22.3892 C   0  0  0  0  0  0  0  0  0  0  0  0
    8.1316  -15.2152   23.2600 C   0  0  0  0  0  0  0  0  0  0  0  0
    9.6025  -15.5307   23.4411 C   0  0  2  0  0  0  0  0  0  0  0  0
   10.0634  -16.1685   22.2082 N   0  0  0  0  0  0  0  0  0  0  0  0
    9.9029  -16.3479   24.6173 C   0  0  0  0  0  0  0  0  0  0  0  0
   10.1693  -15.7982   25.7092 O   0  0  0  0  0  0  0  0  0  0  0  0
    9.9079  -17.7445   24.5830 O   0  0  0  0  0  0  0  0  0  0  0  0
  2  1  1  1
  2  3  1  0
  3  4  1  0
  4  8  1  0
  5  4  2  0
  6  2  1  0
  7  6  2  0
  9  6  1  0
 10 14  1  0
 10  9  1  0
 10 11  1  6
 12 11  1  0
 12 16  1  0
 13 12  2  0
 14 15  2  0
 18 20  1  0
 18 17  1  0
 19 18  2  0
 21 20  1  0
 22 21  1  0
 23 22  1  0
 24 23  1  6
 25 24  1  0
 25 14  1  0
 26 28  1  0
 26 24  1  0
 27 26  2  0
M  END
$$$$
