DDR.pdb
     RDKit          3D

 28 27  0  0  1  0  0  0  0  0999 V2000
    7.8325  -13.1335   18.4485 N   0  0  0  0  0  0  0  0  0  0  0  0
    9.0049  -13.8913   18.7425 C   0  0  1  0  0  0  0  0  0  0  0  0
   10.2076  -13.0602   19.0523 C   0  0  0  0  0  0  0  0  0  0  0  0
   11.4468  -13.8482   19.2429 C   0  0  0  0  0  0  0  0  0  0  0  0
   11.4200  -15.0768   19.0202 O   0  0  0  0  0  0  0  0  0  0  0  0
    8.8010  -14.8026   19.9208 C   0  0  0  0  0  0  0  0  0  0  0  0
    8.4764  -14.2843   21.0121 O   0  0  0  0  0  0  0  0  0  0  0  0
   12.6323  -13.2718   19.6582 O   0  0  0  0  0  0  0  0  0  0  0  0
    8.9570  -16.2043   19.8585 N   0  0  0  0  0  0  0  0  0  0  0  0
    8.7509  -17.1074   20.9530 C   0  0  1  0  0  0  0  0  0  0  0  0
    8.5801  -18.5103   20.4806 C   0  0  0  0  0  0  0  0  0  0  0  0
    9.7680  -19.1074   19.8639 C   0  0  0  0  0  0  0  0  0  0  0  0
    9.8843  -20.3618   19.9302 O   0  0  0  0  0  0  0  0  0  0  0  0
    9.7906  -16.9575   22.0078 C   0  0  0  0  0  0  0  0  0  0  0  0
   10.8207  -16.2959   21.7375 O   0  0  0  0  0  0  0  0  0  0  0  0
   10.7800  -18.4189   19.2123 O   0  0  0  0  0  0  0  0  0  0  0  0
    7.3194  -12.5072   27.9069 N   0  0  0  0  0  0  0  0  0  0  0  0
    6.8446  -12.4171   26.5632 C   0  0  0  0  0  0  0  0  0  0  0  0
    6.0520  -11.4617   26.2018 N   0  0  0  0  0  0  0  0  0  0  0  0
    7.2094  -13.3577   25.5635 N   0  0  0  0  0  0  0  0  0  0  0  0
    7.9065  -14.5382   25.9291 C   0  0  0  0  0  0  0  0  0  0  0  0
    8.1744  -15.4862   24.7724 C   0  0  0  0  0  0  0  0  0  0  0  0
    9.6705  -15.4942   24.5813 C   0  0  0  0  0  0  0  0  0  0  0  0
   10.2673  -16.8831   24.4793 C   0  0  2  0  0  0  0  0  0  0  0  0
    9.6800  -17.5213   23.3015 N   0  0  0  0  0  0  0  0  0  0  0  0
   10.0956  -17.7022   25.6798 C   0  0  0  0  0  0  0  0  0  0  0  0
    9.1887  -18.5629   25.7250 O   0  0  0  0  0  0  0  0  0  0  0  0
   10.9121  -17.5693   26.8055 O   0  0  0  0  0  0  0  0  0  0  0  0
  2  1  1  1
  2  3  1  0
  3  4  1  0
  4  8  1  0
  5  4  2  0
  6  2  1  0
  7  6  2  0
  9  6  1  0
 10 14  1  0
 10  9  1  0
 10 11  1  6
 12 11  1  0
 12 16  1  0
 13 12  2  0
 14 15  2  0
 18 20  1  0
 18 17  1  0
 19 18  2  0
 21 20  1  0
 22 21  1  0
 23 22  1  0
 24 23  1  1
 25 24  1  0
 25 14  1  0
 26 28  1  0
 26 24  1  0
 27 26  2  0
M  END
$$$$
