DDR.pdb
     RDKit          3D

 28 27  0  0  1  0  0  0  0  0999 V2000
   10.2924  -18.4313   17.6650 N   0  0  0  0  0  0  0  0  0  0  0  0
   10.7762  -17.3437   18.4513 C   0  0  1  0  0  0  0  0  0  0  0  0
    9.9444  -16.1056   18.3584 C   0  0  0  0  0  0  0  0  0  0  0  0
    9.8254  -15.5660   16.9846 C   0  0  0  0  0  0  0  0  0  0  0  0
   10.3576  -16.1911   16.0433 O   0  0  0  0  0  0  0  0  0  0  0  0
   10.8519  -17.6983   19.9103 C   0  0  0  0  0  0  0  0  0  0  0  0
    9.7892  -18.0082   20.4931 O   0  0  0  0  0  0  0  0  0  0  0  0
    9.1458  -14.3950   16.7070 O   0  0  0  0  0  0  0  0  0  0  0  0
   12.0536  -17.6988   20.6511 N   0  0  0  0  0  0  0  0  0  0  0  0
   12.1710  -18.0604   22.0338 C   0  0  1  0  0  0  0  0  0  0  0  0
   13.5659  -18.4535   22.3803 C   0  0  0  0  0  0  0  0  0  0  0  0
   14.1870  -19.4136   21.4635 C   0  0  0  0  0  0  0  0  0  0  0  0
   13.5603  -20.4850   21.2379 O   0  0  0  0  0  0  0  0  0  0  0  0
   11.6046  -17.0205   22.9359 C   0  0  0  0  0  0  0  0  0  0  0  0
   12.2081  -15.9260   23.0342 O   0  0  0  0  0  0  0  0  0  0  0  0
   15.4043  -19.2532   20.8191 O   0  0  0  0  0  0  0  0  0  0  0  0
    6.4499  -14.3421   19.6534 N   0  0  0  0  0  0  0  0  0  0  0  0
    7.5895  -13.4984   19.8228 C   0  0  0  0  0  0  0  0  0  0  0  0
    7.9191  -12.6381   18.9158 N   0  0  0  0  0  0  0  0  0  0  0  0
    8.4132  -13.5565   20.9783 N   0  0  0  0  0  0  0  0  0  0  0  0
    8.1501  -14.5243   21.9819 C   0  0  0  0  0  0  0  0  0  0  0  0
    8.9712  -14.3471   23.2479 C   0  0  0  0  0  0  0  0  0  0  0  0
    8.7061  -15.5711   24.0884 C   0  0  0  0  0  0  0  0  0  0  0  0
    9.9586  -16.2054   24.6584 C   0  0  2  0  0  0  0  0  0  0  0  0
   10.4198  -17.1994   23.6897 N   0  0  0  0  0  0  0  0  0  0  0  0
    9.7864  -16.7878   25.9899 C   0  0  0  0  0  0  0  0  0  0  0  0
    9.8202  -18.0296   26.1383 O   0  0  0  0  0  0  0  0  0  0  0  0
    9.5812  -16.0096   27.1318 O   0  0  0  0  0  0  0  0  0  0  0  0
  2  1  1  6
  2  3  1  0
  3  4  1  0
  4  8  1  0
  5  4  2  0
  6  2  1  0
  7  6  2  0
  9  6  1  0
 10 14  1  0
 10  9  1  0
 10 11  1  1
 12 11  1  0
 12 16  1  0
 13 12  2  0
 14 15  2  0
 18 20  1  0
 18 17  1  0
 19 18  2  0
 21 20  1  0
 22 21  1  0
 23 22  1  0
 24 23  1  6
 25 24  1  0
 25 14  1  0
 26 28  1  0
 26 24  1  0
 27 26  2  0
M  END
$$$$
