DDR.pdb
     RDKit          3D

 28 27  0  0  1  0  0  0  0  0999 V2000
   10.9255  -17.1414   16.0190 N   0  0  0  0  0  0  0  0  0  0  0  0
    9.8336  -17.3324   16.9170 C   0  0  1  0  0  0  0  0  0  0  0  0
    8.8670  -18.3881   16.4873 C   0  0  0  0  0  0  0  0  0  0  0  0
    8.3435  -18.1977   15.1152 C   0  0  0  0  0  0  0  0  0  0  0  0
    7.1322  -17.9338   14.9635 O   0  0  0  0  0  0  0  0  0  0  0  0
   10.3016  -17.7171   18.2929 C   0  0  0  0  0  0  0  0  0  0  0  0
    9.4371  -17.8653   19.1850 O   0  0  0  0  0  0  0  0  0  0  0  0
    9.1483  -18.3015   13.9964 O   0  0  0  0  0  0  0  0  0  0  0  0
   11.6585  -17.9176   18.6272 N   0  0  0  0  0  0  0  0  0  0  0  0
   12.1474  -18.2405   19.9360 C   0  0  1  0  0  0  0  0  0  0  0  0
   13.6043  -18.5525   19.9146 C   0  0  0  0  0  0  0  0  0  0  0  0
   14.1193  -19.1986   21.1251 C   0  0  0  0  0  0  0  0  0  0  0  0
   13.2994  -19.4101   22.0602 O   0  0  0  0  0  0  0  0  0  0  0  0
   11.7744  -17.2109   20.9443 C   0  0  0  0  0  0  0  0  0  0  0  0
   11.9271  -16.0030   20.6451 O   0  0  0  0  0  0  0  0  0  0  0  0
   15.4293  -19.6001   21.3388 O   0  0  0  0  0  0  0  0  0  0  0  0
    9.1081  -12.9315   18.8392 N   0  0  0  0  0  0  0  0  0  0  0  0
    8.4075  -12.3604   19.9446 C   0  0  0  0  0  0  0  0  0  0  0  0
    8.4900  -11.0959   20.2012 N   0  0  0  0  0  0  0  0  0  0  0  0
    7.5940  -13.1369   20.8121 N   0  0  0  0  0  0  0  0  0  0  0  0
    7.9300  -14.4918   21.0663 C   0  0  0  0  0  0  0  0  0  0  0  0
    9.1343  -14.6745   21.9745 C   0  0  0  0  0  0  0  0  0  0  0  0
    9.2808  -16.1623   22.1740 C   0  0  0  0  0  0  0  0  0  0  0  0
   10.4859  -16.5528   23.0053 C   0  0  2  0  0  0  0  0  0  0  0  0
   11.2553  -17.5210   22.2243 N   0  0  0  0  0  0  0  0  0  0  0  0
   10.1587  -17.0691   24.3350 C   0  0  0  0  0  0  0  0  0  0  0  0
   10.0906  -18.3035   24.5270 O   0  0  0  0  0  0  0  0  0  0  0  0
    9.9125  -16.2343   25.4277 O   0  0  0  0  0  0  0  0  0  0  0  0
  2  1  1  6
  2  3  1  0
  3  4  1  0
  4  8  1  0
  5  4  2  0
  6  2  1  0
  7  6  2  0
  9  6  1  0
 10 14  1  0
 10  9  1  0
 10 11  1  6
 12 11  1  0
 12 16  1  0
 13 12  2  0
 14 15  2  0
 18 20  1  0
 18 17  1  0
 19 18  2  0
 21 20  1  0
 22 21  1  0
 23 22  1  0
 24 23  1  6
 25 24  1  0
 25 14  1  0
 26 28  1  0
 26 24  1  0
 27 26  2  0
M  END
$$$$
