DDR.pdb
     RDKit          3D

 28 27  0  0  1  0  0  0  0  0999 V2000
    9.0680  -12.4401   19.0152 N   0  0  0  0  0  0  0  0  0  0  0  0
    8.3551  -13.5705   18.5160 C   0  0  1  0  0  0  0  0  0  0  0  0
    8.0548  -13.5059   17.0534 C   0  0  0  0  0  0  0  0  0  0  0  0
    7.3214  -14.6856   16.5403 C   0  0  0  0  0  0  0  0  0  0  0  0
    6.2906  -15.0610   17.1373 O   0  0  0  0  0  0  0  0  0  0  0  0
    9.1095  -14.8514   18.7405 C   0  0  0  0  0  0  0  0  0  0  0  0
    8.4962  -15.9288   18.5728 O   0  0  0  0  0  0  0  0  0  0  0  0
    7.7372  -15.3857   15.4235 O   0  0  0  0  0  0  0  0  0  0  0  0
   10.4659  -14.8995   19.1288 N   0  0  0  0  0  0  0  0  0  0  0  0
   11.1680  -16.0833   19.5310 C   0  0  1  0  0  0  0  0  0  0  0  0
   12.1809  -16.4904   18.5167 C   0  0  0  0  0  0  0  0  0  0  0  0
   12.9750  -17.6704   18.8702 C   0  0  0  0  0  0  0  0  0  0  0  0
   12.3467  -18.7352   19.1210 O   0  0  0  0  0  0  0  0  0  0  0  0
   11.7193  -15.9681   20.9090 C   0  0  0  0  0  0  0  0  0  0  0  0
   12.5014  -15.0207   21.1591 O   0  0  0  0  0  0  0  0  0  0  0  0
   14.3579  -17.7252   18.9554 O   0  0  0  0  0  0  0  0  0  0  0  0
    8.3397  -14.3481   28.1706 N   0  0  0  0  0  0  0  0  0  0  0  0
    9.6294  -14.7276   28.6520 C   0  0  0  0  0  0  0  0  0  0  0  0
    9.9709  -14.5080   29.8795 N   0  0  0  0  0  0  0  0  0  0  0  0
   10.5954  -15.3569   27.8225 N   0  0  0  0  0  0  0  0  0  0  0  0
   10.3135  -15.5652   26.4476 C   0  0  0  0  0  0  0  0  0  0  0  0
   11.4458  -16.2166   25.6718 C   0  0  0  0  0  0  0  0  0  0  0  0
   10.9702  -16.3087   24.2435 C   0  0  0  0  0  0  0  0  0  0  0  0
   12.0350  -16.7771   23.2726 C   0  0  2  0  0  0  0  0  0  0  0  0
   11.4081  -16.8704   21.9544 N   0  0  0  0  0  0  0  0  0  0  0  0
   12.6857  -18.0320   23.6516 C   0  0  0  0  0  0  0  0  0  0  0  0
   12.3347  -19.1056   23.1135 O   0  0  0  0  0  0  0  0  0  0  0  0
   13.7034  -18.0945   24.6065 O   0  0  0  0  0  0  0  0  0  0  0  0
  2  1  1  6
  2  3  1  0
  3  4  1  0
  4  8  1  0
  5  4  2  0
  6  2  1  0
  7  6  2  0
  9  6  1  0
 10 14  1  0
 10  9  1  0
 10 11  1  6
 12 11  1  0
 12 16  1  0
 13 12  2  0
 14 15  2  0
 18 20  1  0
 18 17  1  0
 19 18  2  0
 21 20  1  0
 22 21  1  0
 23 22  1  0
 24 23  1  1
 25 24  1  0
 25 14  1  0
 26 28  1  0
 26 24  1  0
 27 26  2  0
M  END
$$$$
