DDR.pdb
     RDKit          3D

 28 27  0  0  1  0  0  0  0  0999 V2000
   14.0003  -15.7122   17.7547 N   0  0  0  0  0  0  0  0  0  0  0  0
   12.7159  -16.3037   17.9433 C   0  0  1  0  0  0  0  0  0  0  0  0
   12.3531  -17.3189   16.9083 C   0  0  0  0  0  0  0  0  0  0  0  0
   12.1901  -16.7555   15.5486 C   0  0  0  0  0  0  0  0  0  0  0  0
   12.9542  -15.8387   15.1805 O   0  0  0  0  0  0  0  0  0  0  0  0
   12.6081  -16.9943   19.2744 C   0  0  0  0  0  0  0  0  0  0  0  0
   11.5131  -17.5199   19.5740 O   0  0  0  0  0  0  0  0  0  0  0  0
   11.2222  -17.2088   14.6722 O   0  0  0  0  0  0  0  0  0  0  0  0
   13.6729  -17.0785   20.1975 N   0  0  0  0  0  0  0  0  0  0  0  0
   13.5611  -17.5539   21.5457 C   0  0  1  0  0  0  0  0  0  0  0  0
   14.8973  -17.8543   22.1329 C   0  0  0  0  0  0  0  0  0  0  0  0
   15.5847  -19.0118   21.5534 C   0  0  0  0  0  0  0  0  0  0  0  0
   16.6982  -18.8037   20.9982 O   0  0  0  0  0  0  0  0  0  0  0  0
   12.7288  -16.6544   22.3908 C   0  0  0  0  0  0  0  0  0  0  0  0
   12.8873  -15.4160   22.2762 O   0  0  0  0  0  0  0  0  0  0  0  0
   15.1227  -20.3192   21.5583 O   0  0  0  0  0  0  0  0  0  0  0  0
    7.3440  -13.6937   18.6324 N   0  0  0  0  0  0  0  0  0  0  0  0
    8.1747  -12.9363   19.5129 C   0  0  0  0  0  0  0  0  0  0  0  0
    8.5914  -11.7579   19.1826 N   0  0  0  0  0  0  0  0  0  0  0  0
    8.5851  -13.4274   20.7808 N   0  0  0  0  0  0  0  0  0  0  0  0
    8.1823  -14.7224   21.1978 C   0  0  0  0  0  0  0  0  0  0  0  0
    8.6590  -15.1047   22.5888 C   0  0  0  0  0  0  0  0  0  0  0  0
    9.9055  -15.9295   22.3874 C   0  0  0  0  0  0  0  0  0  0  0  0
   10.5891  -16.3311   23.6787 C   0  0  2  0  0  0  0  0  0  0  0  0
   11.7661  -17.1210   23.3179 N   0  0  0  0  0  0  0  0  0  0  0  0
    9.7263  -17.0461   24.6200 C   0  0  0  0  0  0  0  0  0  0  0  0
    9.7686  -18.2949   24.6822 O   0  0  0  0  0  0  0  0  0  0  0  0
    8.8362  -16.3899   25.4736 O   0  0  0  0  0  0  0  0  0  0  0  0
  2  1  1  6
  2  3  1  0
  3  4  1  0
  4  8  1  0
  5  4  2  0
  6  2  1  0
  7  6  2  0
  9  6  1  0
 10 14  1  0
 10  9  1  0
 10 11  1  1
 12 11  1  0
 12 16  1  0
 13 12  2  0
 14 15  2  0
 18 20  1  0
 18 17  1  0
 19 18  2  0
 21 20  1  0
 22 21  1  0
 23 22  1  0
 24 23  1  6
 25 24  1  0
 25 14  1  0
 26 28  1  0
 26 24  1  0
 27 26  2  0
M  END
$$$$
