DDR.pdb
     RDKit          3D

 28 27  0  0  1  0  0  0  0  0999 V2000
   14.6028  -16.0510   18.3734 N   0  0  0  0  0  0  0  0  0  0  0  0
   13.1998  -15.7994   18.3142 C   0  0  1  0  0  0  0  0  0  0  0  0
   12.5343  -16.3360   17.0884 C   0  0  0  0  0  0  0  0  0  0  0  0
   13.0676  -15.7779   15.8247 C   0  0  0  0  0  0  0  0  0  0  0  0
   14.0407  -14.9965   15.8742 O   0  0  0  0  0  0  0  0  0  0  0  0
   12.4746  -16.3950   19.4887 C   0  0  0  0  0  0  0  0  0  0  0  0
   11.2268  -16.3081   19.5114 O   0  0  0  0  0  0  0  0  0  0  0  0
   12.5267  -16.0915   14.5921 O   0  0  0  0  0  0  0  0  0  0  0  0
   13.1262  -17.0425   20.5606 N   0  0  0  0  0  0  0  0  0  0  0  0
   12.4703  -17.6246   21.6951 C   0  0  1  0  0  0  0  0  0  0  0  0
   13.3778  -18.5408   22.4417 C   0  0  0  0  0  0  0  0  0  0  0  0
   12.7858  -19.1755   23.6228 C   0  0  0  0  0  0  0  0  0  0  0  0
   13.3314  -18.9450   24.7366 O   0  0  0  0  0  0  0  0  0  0  0  0
   11.8217  -16.5980   22.5562 C   0  0  0  0  0  0  0  0  0  0  0  0
   12.5539  -15.8684   23.2658 O   0  0  0  0  0  0  0  0  0  0  0  0
   11.6779  -20.0093   23.6294 O   0  0  0  0  0  0  0  0  0  0  0  0
    8.8736  -12.0156   19.7585 N   0  0  0  0  0  0  0  0  0  0  0  0
    8.2080  -12.9769   18.9388 C   0  0  0  0  0  0  0  0  0  0  0  0
    8.4035  -13.0089   17.6612 N   0  0  0  0  0  0  0  0  0  0  0  0
    7.3066  -13.9363   19.4718 N   0  0  0  0  0  0  0  0  0  0  0  0
    7.3453  -14.2451   20.8561 C   0  0  0  0  0  0  0  0  0  0  0  0
    8.7328  -14.5702   21.3828 C   0  0  0  0  0  0  0  0  0  0  0  0
    8.5527  -14.9143   22.8402 C   0  0  0  0  0  0  0  0  0  0  0  0
    9.8159  -15.4131   23.5121 C   0  0  2  0  0  0  0  0  0  0  0  0
   10.4214  -16.3994   22.6178 N   0  0  0  0  0  0  0  0  0  0  0  0
    9.6095  -15.9563   24.8553 C   0  0  0  0  0  0  0  0  0  0  0  0
    9.1605  -15.2229   25.7641 O   0  0  0  0  0  0  0  0  0  0  0  0
    9.8951  -17.2838   25.1830 O   0  0  0  0  0  0  0  0  0  0  0  0
  2  1  1  6
  2  3  1  0
  3  4  1  0
  4  8  1  0
  5  4  2  0
  6  2  1  0
  7  6  2  0
  9  6  1  0
 10 14  1  0
 10  9  1  0
 10 11  1  1
 12 11  1  0
 12 16  1  0
 13 12  2  0
 14 15  2  0
 18 20  1  0
 18 17  1  0
 19 18  2  0
 21 20  1  0
 22 21  1  0
 23 22  1  0
 24 23  1  6
 25 24  1  0
 25 14  1  0
 26 28  1  0
 26 24  1  0
 27 26  2  0
M  END
$$$$
