DDR.pdb
     RDKit          3D

 28 27  0  0  1  0  0  0  0  0999 V2000
   10.5304  -12.7708   18.6276 N   0  0  0  0  0  0  0  0  0  0  0  0
    9.3360  -13.2298   19.2584 C   0  0  1  0  0  0  0  0  0  0  0  0
    8.1818  -13.4064   18.3257 C   0  0  0  0  0  0  0  0  0  0  0  0
    8.5559  -13.9786   17.0121 C   0  0  0  0  0  0  0  0  0  0  0  0
    9.7260  -14.3804   16.8408 O   0  0  0  0  0  0  0  0  0  0  0  0
    9.5378  -14.5532   19.9427 C   0  0  0  0  0  0  0  0  0  0  0  0
    8.5532  -15.0733   20.5128 O   0  0  0  0  0  0  0  0  0  0  0  0
    7.6555  -14.0839   15.9687 O   0  0  0  0  0  0  0  0  0  0  0  0
   10.7742  -15.2338   19.9748 N   0  0  0  0  0  0  0  0  0  0  0  0
   11.0701  -16.3699   20.7980 C   0  0  1  0  0  0  0  0  0  0  0  0
   12.3665  -16.9986   20.4179 C   0  0  0  0  0  0  0  0  0  0  0  0
   12.5324  -17.2639   18.9860 C   0  0  0  0  0  0  0  0  0  0  0  0
   13.4105  -16.5969   18.3732 O   0  0  0  0  0  0  0  0  0  0  0  0
   10.9650  -16.0544   22.2489 C   0  0  0  0  0  0  0  0  0  0  0  0
   11.9143  -15.4440   22.7950 O   0  0  0  0  0  0  0  0  0  0  0  0
   11.8107  -18.1830   18.2396 O   0  0  0  0  0  0  0  0  0  0  0  0
    5.3875  -11.4077   26.0224 N   0  0  0  0  0  0  0  0  0  0  0  0
    5.9428  -11.9881   27.2030 C   0  0  0  0  0  0  0  0  0  0  0  0
    5.6934  -11.4882   28.3690 N   0  0  0  0  0  0  0  0  0  0  0  0
    6.7882  -13.1287   27.1640 N   0  0  0  0  0  0  0  0  0  0  0  0
    7.1791  -13.6722   25.9131 C   0  0  0  0  0  0  0  0  0  0  0  0
    8.0879  -14.8853   26.0182 C   0  0  0  0  0  0  0  0  0  0  0  0
    8.4029  -15.2911   24.6001 C   0  0  0  0  0  0  0  0  0  0  0  0
    9.7365  -15.9937   24.4463 C   0  0  2  0  0  0  0  0  0  0  0  0
    9.8500  -16.4056   23.0474 N   0  0  0  0  0  0  0  0  0  0  0  0
    9.9325  -17.1206   25.3591 C   0  0  0  0  0  0  0  0  0  0  0  0
    9.9209  -16.9328   26.5960 O   0  0  0  0  0  0  0  0  0  0  0  0
   10.1370  -18.4274   24.9095 O   0  0  0  0  0  0  0  0  0  0  0  0
  2  1  1  6
  2  3  1  0
  3  4  1  0
  4  8  1  0
  5  4  2  0
  6  2  1  0
  7  6  2  0
  9  6  1  0
 10 14  1  0
 10  9  1  0
 10 11  1  1
 12 11  1  0
 12 16  1  0
 13 12  2  0
 14 15  2  0
 18 20  1  0
 18 17  1  0
 19 18  2  0
 21 20  1  0
 22 21  1  0
 23 22  1  0
 24 23  1  6
 25 24  1  0
 25 14  1  0
 26 28  1  0
 26 24  1  0
 27 26  2  0
M  END
$$$$
