DDR.pdb
     RDKit          3D

 28 27  0  0  1  0  0  0  0  0999 V2000
   10.1281  -18.8275   18.8765 N   0  0  0  0  0  0  0  0  0  0  0  0
    9.7931  -17.5899   19.5020 C   0  0  1  0  0  0  0  0  0  0  0  0
    8.3345  -17.4216   19.7806 C   0  0  0  0  0  0  0  0  0  0  0  0
    7.6261  -18.6935   20.0514 C   0  0  0  0  0  0  0  0  0  0  0  0
    7.9640  -19.7175   19.4212 O   0  0  0  0  0  0  0  0  0  0  0  0
   10.5012  -17.4179   20.8170 C   0  0  0  0  0  0  0  0  0  0  0  0
   10.3548  -18.3103   21.6815 O   0  0  0  0  0  0  0  0  0  0  0  0
    6.6043  -18.7874   20.9772 O   0  0  0  0  0  0  0  0  0  0  0  0
   11.3170  -16.3075   21.1239 N   0  0  0  0  0  0  0  0  0  0  0  0
   11.9988  -16.1026   22.3686 C   0  0  1  0  0  0  0  0  0  0  0  0
   13.0148  -15.0176   22.2643 C   0  0  0  0  0  0  0  0  0  0  0  0
   14.0432  -15.2254   21.2410 C   0  0  0  0  0  0  0  0  0  0  0  0
   14.6927  -16.3059   21.2862 O   0  0  0  0  0  0  0  0  0  0  0  0
   11.0527  -15.9244   23.5040 C   0  0  0  0  0  0  0  0  0  0  0  0
   10.0364  -15.2124   23.3250 O   0  0  0  0  0  0  0  0  0  0  0  0
   14.3700  -14.3411   20.2241 O   0  0  0  0  0  0  0  0  0  0  0  0
    5.2813  -18.9618   22.2920 N   0  0  0  0  0  0  0  0  0  0  0  0
    5.6460  -19.9472   23.2590 C   0  0  0  0  0  0  0  0  0  0  0  0
    5.0810  -21.1100   23.2673 N   0  0  0  0  0  0  0  0  0  0  0  0
    6.6335  -19.7090   24.2516 N   0  0  0  0  0  0  0  0  0  0  0  0
    6.8544  -18.3887   24.7218 C   0  0  0  0  0  0  0  0  0  0  0  0
    8.0182  -18.2593   25.6899 C   0  0  0  0  0  0  0  0  0  0  0  0
    9.1768  -17.7371   24.8776 C   0  0  0  0  0  0  0  0  0  0  0  0
   10.1122  -16.8340   25.6556 C   0  0  2  0  0  0  0  0  0  0  0  0
   11.2374  -16.5160   24.7768 N   0  0  0  0  0  0  0  0  0  0  0  0
   10.5637  -17.3904   26.9317 C   0  0  0  0  0  0  0  0  0  0  0  0
   11.6422  -18.0217   26.9919 O   0  0  0  0  0  0  0  0  0  0  0  0
    9.8347  -17.2494   28.1149 O   0  0  0  0  0  0  0  0  0  0  0  0
  2  1  1  1
  2  3  1  0
  3  4  1  0
  4  8  1  0
  5  4  2  0
  6  2  1  0
  7  6  2  0
  9  6  1  0
 10 14  1  0
 10  9  1  0
 10 11  1  6
 12 11  1  0
 12 16  1  0
 13 12  2  0
 14 15  2  0
 18 20  1  0
 18 17  1  0
 19 18  2  0
 21 20  1  0
 22 21  1  0
 23 22  1  0
 24 23  1  6
 25 24  1  0
 25 14  1  0
 26 28  1  0
 26 24  1  0
 27 26  2  0
M  END
$$$$
