DDR.pdb
     RDKit          3D

 28 27  0  0  1  0  0  0  0  0999 V2000
    7.1891  -17.7901   16.9265 N   0  0  0  0  0  0  0  0  0  0  0  0
    8.5427  -17.4096   17.1680 C   0  0  1  0  0  0  0  0  0  0  0  0
    8.8161  -15.9561   16.9536 C   0  0  0  0  0  0  0  0  0  0  0  0
    8.5266  -15.4891   15.5785 C   0  0  0  0  0  0  0  0  0  0  0  0
    8.1645  -16.3232   14.7223 O   0  0  0  0  0  0  0  0  0  0  0  0
    8.9685  -17.7206   18.5759 C   0  0  0  0  0  0  0  0  0  0  0  0
    8.0859  -17.7457   19.4622 O   0  0  0  0  0  0  0  0  0  0  0  0
    8.6427  -14.1623   15.2091 O   0  0  0  0  0  0  0  0  0  0  0  0
   10.3052  -17.9835   18.9461 N   0  0  0  0  0  0  0  0  0  0  0  0
   10.7302  -18.4363   20.2386 C   0  0  1  0  0  0  0  0  0  0  0  0
   11.9170  -19.3321   20.1420 C   0  0  0  0  0  0  0  0  0  0  0  0
   11.6565  -20.6470   19.5493 C   0  0  0  0  0  0  0  0  0  0  0  0
   12.4761  -21.0636   18.6855 O   0  0  0  0  0  0  0  0  0  0  0  0
   10.9109  -17.3109   21.1961 C   0  0  0  0  0  0  0  0  0  0  0  0
   11.9037  -16.5595   21.0499 O   0  0  0  0  0  0  0  0  0  0  0  0
   10.5886  -21.4785   19.8508 O   0  0  0  0  0  0  0  0  0  0  0  0
    5.1225  -13.2654   26.5709 N   0  0  0  0  0  0  0  0  0  0  0  0
    6.3845  -12.6117   26.7095 C   0  0  0  0  0  0  0  0  0  0  0  0
    6.4557  -11.3828   27.1046 N   0  0  0  0  0  0  0  0  0  0  0  0
    7.6136  -13.2638   26.4244 N   0  0  0  0  0  0  0  0  0  0  0  0
    7.7051  -14.1362   25.3092 C   0  0  0  0  0  0  0  0  0  0  0  0
    9.1009  -14.6815   25.0584 C   0  0  0  0  0  0  0  0  0  0  0  0
    8.9719  -15.6299   23.8929 C   0  0  0  0  0  0  0  0  0  0  0  0
   10.2965  -16.0072   23.2611 C   0  0  2  0  0  0  0  0  0  0  0  0
   10.0216  -17.0416   22.2641 N   0  0  0  0  0  0  0  0  0  0  0  0
   11.3192  -16.4354   24.2162 C   0  0  0  0  0  0  0  0  0  0  0  0
   11.4368  -17.6471   24.5051 O   0  0  0  0  0  0  0  0  0  0  0  0
   12.1923  -15.5391   24.8373 O   0  0  0  0  0  0  0  0  0  0  0  0
  2  1  1  1
  2  3  1  0
  3  4  1  0
  4  8  1  0
  5  4  2  0
  6  2  1  0
  7  6  2  0
  9  6  1  0
 10 14  1  0
 10  9  1  0
 10 11  1  6
 12 11  1  0
 12 16  1  0
 13 12  2  0
 14 15  2  0
 18 20  1  0
 18 17  1  0
 19 18  2  0
 21 20  1  0
 22 21  1  0
 23 22  1  0
 24 23  1  1
 25 24  1  0
 25 14  1  0
 26 28  1  0
 26 24  1  0
 27 26  2  0
M  END
$$$$
