NDD.pdb
     RDKit          3D

 25 24  0  0  1  0  0  0  0  0999 V2000
   27.2946  -11.9807  -15.8615 N   0  0  0  0  0  0  0  0  0  0  0  0
   27.4204  -10.5729  -15.7310 C   0  0  0  0  0  0  0  0  0  0  0  0
   28.5384  -10.1122  -15.4190 O   0  0  0  0  0  0  0  0  0  0  0  0
   26.2204   -9.7383  -15.9719 C   0  0  0  0  0  0  0  0  0  0  0  0
   25.0342  -10.5752  -16.3961 C   0  0  2  0  0  0  0  0  0  0  0  0
   25.3411  -11.1953  -17.6570 N   0  0  0  0  0  0  0  0  0  0  0  0
   23.8703   -9.6281  -16.5029 C   0  0  0  0  0  0  0  0  0  0  0  0
   23.8106   -8.9607  -17.5656 O   0  0  0  0  0  0  0  0  0  0  0  0
   22.9150   -9.4863  -15.5030 N   0  0  0  0  0  0  0  0  0  0  0  0
   21.7317   -8.6490  -15.7212 C   0  0  1  0  0  0  0  0  0  0  0  0
   20.5635   -9.1936  -14.9569 C   0  0  0  0  0  0  0  0  0  0  0  0
   19.9911  -10.4459  -15.4715 C   0  0  0  0  0  0  0  0  0  0  0  0
   19.9444  -11.4767  -14.7709 O   0  0  0  0  0  0  0  0  0  0  0  0
   22.0371   -7.2805  -15.2180 C   0  0  0  0  0  0  0  0  0  0  0  0
   22.6941   -7.1233  -14.1871 O   0  0  0  0  0  0  0  0  0  0  0  0
   19.4733  -10.5414  -16.7678 O   0  0  0  0  0  0  0  0  0  0  0  0
   21.5846   -6.1092  -15.9015 N   0  0  0  0  0  0  0  0  0  0  0  0
   21.9292   -4.7755  -15.4655 C   0  0  1  0  0  0  0  0  0  0  0  0
   22.3617   -3.8696  -16.5889 C   0  0  0  0  0  0  0  0  0  0  0  0
   22.7688   -2.5337  -16.1041 C   0  0  0  0  0  0  0  0  0  0  0  0
   22.9917   -2.3105  -14.8934 O   0  0  0  0  0  0  0  0  0  0  0  0
   20.8211   -4.1608  -14.6740 C   0  0  0  0  0  0  0  0  0  0  0  0
   19.6359   -4.1901  -15.0932 O   0  0  0  0  0  0  0  0  0  0  0  0
   22.9129   -1.4878  -16.9997 O   0  0  0  0  0  0  0  0  0  0  0  0
   21.0614   -3.5414  -13.4584 O   0  0  0  0  0  0  0  0  0  0  0  0
  1  2  1  0
  2  3  2  0
  4  2  1  0
  5  4  1  0
  5  6  1  6
  7  5  1  0
  7  8  2  0
  9  7  1  0
 10  9  1  0
 10 11  1  1
 12 11  1  0
 13 12  2  0
 14 10  1  0
 15 14  2  0
 16 12  1  0
 17 14  1  0
 18 17  1  0
 18 22  1  0
 18 19  1  6
 20 21  2  0
 20 19  1  0
 22 25  1  0
 23 22  2  0
 24 20  1  0
M  END
$$$$
