NDD.pdb
     RDKit          3D

 25 24  0  0  1  0  0  0  0  0999 V2000
   14.1614  -13.2325   -9.7782 N   0  0  0  0  0  0  0  0  0  0  0  0
   15.0067  -12.8263  -10.8437 C   0  0  0  0  0  0  0  0  0  0  0  0
   15.5011  -13.7147  -11.5689 O   0  0  0  0  0  0  0  0  0  0  0  0
   15.2502  -11.3770  -11.0296 C   0  0  0  0  0  0  0  0  0  0  0  0
   14.5945  -10.5565   -9.9414 C   0  0  2  0  0  0  0  0  0  0  0  0
   13.1750  -10.7826   -9.9925 N   0  0  0  0  0  0  0  0  0  0  0  0
   14.9470   -9.1225  -10.2283 C   0  0  0  0  0  0  0  0  0  0  0  0
   14.7074   -8.7291  -11.3971 O   0  0  0  0  0  0  0  0  0  0  0  0
   15.5020   -8.2741   -9.2771 N   0  0  0  0  0  0  0  0  0  0  0  0
   15.7402   -6.8623   -9.5915 C   0  0  1  0  0  0  0  0  0  0  0  0
   15.5893   -6.0242   -8.3584 C   0  0  0  0  0  0  0  0  0  0  0  0
   15.7655   -4.5768   -8.5443 C   0  0  0  0  0  0  0  0  0  0  0  0
   15.9620   -4.0845   -9.6733 O   0  0  0  0  0  0  0  0  0  0  0  0
   17.1375   -6.7315  -10.0912 C   0  0  0  0  0  0  0  0  0  0  0  0
   18.0767   -7.2258   -9.4644 O   0  0  0  0  0  0  0  0  0  0  0  0
   15.7217   -3.6848   -7.4672 O   0  0  0  0  0  0  0  0  0  0  0  0
   17.4415   -6.0347  -11.3020 N   0  0  0  0  0  0  0  0  0  0  0  0
   18.7720   -6.0017  -11.8643 C   0  0  1  0  0  0  0  0  0  0  0  0
   19.4229   -7.3579  -11.9461 C   0  0  0  0  0  0  0  0  0  0  0  0
   20.7854   -7.2901  -12.5158 C   0  0  0  0  0  0  0  0  0  0  0  0
   21.3931   -6.2043  -12.6463 O   0  0  0  0  0  0  0  0  0  0  0  0
   18.7820   -5.3183  -13.1928 C   0  0  0  0  0  0  0  0  0  0  0  0
   19.3664   -4.2156  -13.3466 O   0  0  0  0  0  0  0  0  0  0  0  0
   21.4233   -8.4499  -12.9217 O   0  0  0  0  0  0  0  0  0  0  0  0
   18.1507   -5.8740  -14.2937 O   0  0  0  0  0  0  0  0  0  0  0  0
  1  2  1  0
  2  3  2  0
  4  2  1  0
  5  4  1  0
  5  6  1  6
  7  5  1  0
  7  8  2  0
  9  7  1  0
 10  9  1  0
 10 11  1  1
 12 11  1  0
 13 12  2  0
 14 10  1  0
 15 14  2  0
 16 12  1  0
 17 14  1  0
 18 17  1  0
 18 22  1  0
 18 19  1  6
 20 21  2  0
 20 19  1  0
 22 25  1  0
 23 22  2  0
 24 20  1  0
M  END
$$$$
