NDD.pdb
     RDKit          3D

 25 24  0  0  1  0  0  0  0  0999 V2000
   18.0402  -12.9225  -16.5958 N   0  0  0  0  0  0  0  0  0  0  0  0
   18.1141  -12.7163  -15.1933 C   0  0  0  0  0  0  0  0  0  0  0  0
   17.7738  -13.6567  -14.4454 O   0  0  0  0  0  0  0  0  0  0  0  0
   18.5891  -11.4012  -14.7039 C   0  0  0  0  0  0  0  0  0  0  0  0
   18.8858  -10.4546  -15.8454 C   0  0  2  0  0  0  0  0  0  0  0  0
   20.0854  -10.8966  -16.5043 N   0  0  0  0  0  0  0  0  0  0  0  0
   19.0516   -9.0929  -15.2278 C   0  0  0  0  0  0  0  0  0  0  0  0
   18.0523   -8.6553  -14.6047 O   0  0  0  0  0  0  0  0  0  0  0  0
   20.2239   -8.3527  -15.3296 N   0  0  0  0  0  0  0  0  0  0  0  0
   20.3153   -7.0212  -14.7234 C   0  0  1  0  0  0  0  0  0  0  0  0
   21.6698   -6.8209  -14.1146 C   0  0  0  0  0  0  0  0  0  0  0  0
   21.8608   -5.5611  -13.3818 C   0  0  0  0  0  0  0  0  0  0  0  0
   22.9578   -5.2681  -12.8655 O   0  0  0  0  0  0  0  0  0  0  0  0
   20.1203   -6.0108  -15.8006 C   0  0  0  0  0  0  0  0  0  0  0  0
   20.7642   -6.0796  -16.8492 O   0  0  0  0  0  0  0  0  0  0  0  0
   20.8247   -4.6334  -13.2283 O   0  0  0  0  0  0  0  0  0  0  0  0
   19.1910   -4.9332  -15.6620 N   0  0  0  0  0  0  0  0  0  0  0  0
   18.9337   -3.9899  -16.7258 C   0  0  1  0  0  0  0  0  0  0  0  0
   17.4787   -3.6251  -16.8658 C   0  0  0  0  0  0  0  0  0  0  0  0
   16.6116   -4.8177  -16.9729 C   0  0  0  0  0  0  0  0  0  0  0  0
   16.7638   -5.6651  -17.8806 O   0  0  0  0  0  0  0  0  0  0  0  0
   19.7840   -2.7695  -16.5852 C   0  0  0  0  0  0  0  0  0  0  0  0
   19.7562   -1.8605  -17.4536 O   0  0  0  0  0  0  0  0  0  0  0  0
   15.5976   -5.0199  -16.0522 O   0  0  0  0  0  0  0  0  0  0  0  0
   20.6270   -2.5998  -15.4990 O   0  0  0  0  0  0  0  0  0  0  0  0
  1  2  1  0
  2  3  2  0
  4  2  1  0
  5  4  1  0
  5  6  1  1
  7  5  1  0
  7  8  2  0
  9  7  1  0
 10  9  1  0
 10 11  1  6
 12 11  1  0
 13 12  2  0
 14 10  1  0
 15 14  2  0
 16 12  1  0
 17 14  1  0
 18 17  1  0
 18 22  1  0
 18 19  1  1
 20 21  2  0
 20 19  1  0
 22 25  1  0
 23 22  2  0
 24 20  1  0
M  END
$$$$
