NDD.pdb
     RDKit          3D

 25 24  0  0  1  0  0  0  0  0999 V2000
   12.4298  -11.9410  -14.2844 N   0  0  0  0  0  0  0  0  0  0  0  0
   12.4994  -10.9888  -13.2339 C   0  0  0  0  0  0  0  0  0  0  0  0
   11.4278  -10.6085  -12.7176 O   0  0  0  0  0  0  0  0  0  0  0  0
   13.8358  -10.5055  -12.8156 C   0  0  0  0  0  0  0  0  0  0  0  0
   14.9371  -11.1105  -13.6572 C   0  0  2  0  0  0  0  0  0  0  0  0
   15.3069  -12.3762  -13.0829 N   0  0  0  0  0  0  0  0  0  0  0  0
   16.0740  -10.1259  -13.6297 C   0  0  0  0  0  0  0  0  0  0  0  0
   16.6470   -9.9908  -12.5198 O   0  0  0  0  0  0  0  0  0  0  0  0
   16.4780   -9.4039  -14.7469 N   0  0  0  0  0  0  0  0  0  0  0  0
   17.6366   -8.5089  -14.6724 C   0  0  1  0  0  0  0  0  0  0  0  0
   18.7607   -9.0461  -15.5051 C   0  0  0  0  0  0  0  0  0  0  0  0
   19.9569   -8.1960  -15.5882 C   0  0  0  0  0  0  0  0  0  0  0  0
   20.4713   -7.9013  -16.6856 O   0  0  0  0  0  0  0  0  0  0  0  0
   17.2294   -7.1830  -15.2159 C   0  0  0  0  0  0  0  0  0  0  0  0
   16.3073   -7.0945  -16.0289 O   0  0  0  0  0  0  0  0  0  0  0  0
   20.5742   -7.6785  -14.4441 O   0  0  0  0  0  0  0  0  0  0  0  0
   17.8850   -5.9750  -14.8222 N   0  0  0  0  0  0  0  0  0  0  0  0
   17.4837   -4.6783  -15.3175 C   0  0  1  0  0  0  0  0  0  0  0  0
   16.0344   -4.3590  -15.0584 C   0  0  0  0  0  0  0  0  0  0  0  0
   15.6877   -2.9771  -15.4529 C   0  0  0  0  0  0  0  0  0  0  0  0
   16.1293   -2.4598  -16.5030 O   0  0  0  0  0  0  0  0  0  0  0  0
   18.3750   -3.5991  -14.7948 C   0  0  0  0  0  0  0  0  0  0  0  0
   18.6329   -2.5830  -15.4891 O   0  0  0  0  0  0  0  0  0  0  0  0
   14.8522   -2.2184  -14.6509 O   0  0  0  0  0  0  0  0  0  0  0  0
   18.9439   -3.6819  -13.5344 O   0  0  0  0  0  0  0  0  0  0  0  0
  1  2  1  0
  2  3  2  0
  4  2  1  0
  5  4  1  0
  5  6  1  1
  7  5  1  0
  7  8  2  0
  9  7  1  0
 10  9  1  0
 10 11  1  6
 12 11  1  0
 13 12  2  0
 14 10  1  0
 15 14  2  0
 16 12  1  0
 17 14  1  0
 18 17  1  0
 18 22  1  0
 18 19  1  1
 20 21  2  0
 20 19  1  0
 22 25  1  0
 23 22  2  0
 24 20  1  0
M  END
$$$$
