NDD.pdb
     RDKit          3D

 25 24  0  0  1  0  0  0  0  0999 V2000
   25.9687  -31.5954   -8.7101 N   0  0  0  0  0  0  0  0  0  0  0  0
   26.2403  -32.0645   -7.3982 C   0  0  0  0  0  0  0  0  0  0  0  0
   25.4991  -31.6734   -6.4723 O   0  0  0  0  0  0  0  0  0  0  0  0
   27.3839  -32.9868   -7.2081 C   0  0  0  0  0  0  0  0  0  0  0  0
   26.9216  -34.3985   -6.9246 C   0  0  2  0  0  0  0  0  0  0  0  0
   25.6594  -34.3358   -6.2378 N   0  0  0  0  0  0  0  0  0  0  0  0
   27.9932  -35.0278   -6.0769 C   0  0  0  0  0  0  0  0  0  0  0  0
   27.8934  -36.2691   -5.9107 O   0  0  0  0  0  0  0  0  0  0  0  0
   29.0320  -34.3011   -5.5065 N   0  0  0  0  0  0  0  0  0  0  0  0
   30.0780  -34.9814   -4.7371 C   0  0  1  0  0  0  0  0  0  0  0  0
   31.3916  -34.2837   -4.9189 C   0  0  0  0  0  0  0  0  0  0  0  0
   32.5381  -34.8902   -4.2274 C   0  0  0  0  0  0  0  0  0  0  0  0
   33.3385  -34.2000   -3.5650 O   0  0  0  0  0  0  0  0  0  0  0  0
   29.7008  -34.9243   -3.2971 C   0  0  0  0  0  0  0  0  0  0  0  0
   28.6911  -34.3163   -2.9367 O   0  0  0  0  0  0  0  0  0  0  0  0
   32.7861  -36.2662   -4.2791 O   0  0  0  0  0  0  0  0  0  0  0  0
   30.4862  -35.5633   -2.2877 N   0  0  0  0  0  0  0  0  0  0  0  0
   30.0965  -35.5791   -0.8965 C   0  0  1  0  0  0  0  0  0  0  0  0
   28.6763  -36.0312   -0.6760 C   0  0  0  0  0  0  0  0  0  0  0  0
   28.3052  -36.0289    0.7550 C   0  0  0  0  0  0  0  0  0  0  0  0
   28.2715  -37.0818    1.4300 O   0  0  0  0  0  0  0  0  0  0  0  0
   31.0514  -36.3830   -0.0754 C   0  0  0  0  0  0  0  0  0  0  0  0
   31.6323  -37.3872   -0.5604 O   0  0  0  0  0  0  0  0  0  0  0  0
   27.9831  -34.8381    1.3835 O   0  0  0  0  0  0  0  0  0  0  0  0
   31.3269  -36.0503    1.2409 O   0  0  0  0  0  0  0  0  0  0  0  0
  1  2  1  0
  2  3  2  0
  4  2  1  0
  5  4  1  0
  5  6  1  1
  7  5  1  0
  7  8  2  0
  9  7  1  0
 10  9  1  0
 10 11  1  1
 12 11  1  0
 13 12  2  0
 14 10  1  0
 15 14  2  0
 16 12  1  0
 17 14  1  0
 18 17  1  0
 18 22  1  0
 18 19  1  6
 20 21  2  0
 20 19  1  0
 22 25  1  0
 23 22  2  0
 24 20  1  0
M  END
$$$$
