NDD.pdb
     RDKit          3D

 25 24  0  0  1  0  0  0  0  0999 V2000
   14.0462  -12.5530  -12.0033 N   0  0  0  0  0  0  0  0  0  0  0  0
   13.5707  -11.7329  -10.9468 C   0  0  0  0  0  0  0  0  0  0  0  0
   12.4214  -11.9508  -10.5095 O   0  0  0  0  0  0  0  0  0  0  0  0
   14.4647  -10.6712  -10.4290 C   0  0  0  0  0  0  0  0  0  0  0  0
   15.8167  -10.7004  -11.1060 C   0  0  2  0  0  0  0  0  0  0  0  0
   16.4902  -11.9136  -10.7275 N   0  0  0  0  0  0  0  0  0  0  0  0
   16.5503   -9.4768  -10.6290 C   0  0  0  0  0  0  0  0  0  0  0  0
   17.0869   -9.5736   -9.4972 O   0  0  0  0  0  0  0  0  0  0  0  0
   16.6391   -8.3077  -11.3759 N   0  0  0  0  0  0  0  0  0  0  0  0
   17.3681   -7.1478  -10.8542 C   0  0  1  0  0  0  0  0  0  0  0  0
   18.2530   -6.5710  -11.9171 C   0  0  0  0  0  0  0  0  0  0  0  0
   19.4850   -7.3215  -12.1992 C   0  0  0  0  0  0  0  0  0  0  0  0
   19.9345   -8.1615  -11.3942 O   0  0  0  0  0  0  0  0  0  0  0  0
   16.3686   -6.1186  -10.4529 C   0  0  0  0  0  0  0  0  0  0  0  0
   15.4717   -5.7795  -11.2273 O   0  0  0  0  0  0  0  0  0  0  0  0
   20.2104   -7.1301  -13.3803 O   0  0  0  0  0  0  0  0  0  0  0  0
   16.4102   -5.4897   -9.1696 N   0  0  0  0  0  0  0  0  0  0  0  0
   15.4489   -4.4898   -8.7649 C   0  0  1  0  0  0  0  0  0  0  0  0
   15.0911   -4.5580   -7.3031 C   0  0  0  0  0  0  0  0  0  0  0  0
   14.1165   -3.5154   -6.9173 C   0  0  0  0  0  0  0  0  0  0  0  0
   13.5930   -2.7559   -7.7626 O   0  0  0  0  0  0  0  0  0  0  0  0
   15.9015   -3.1177   -9.1454 C   0  0  0  0  0  0  0  0  0  0  0  0
   15.1453   -2.1243   -8.9952 O   0  0  0  0  0  0  0  0  0  0  0  0
   13.7603   -3.3601   -5.5885 O   0  0  0  0  0  0  0  0  0  0  0  0
   17.1628   -2.8957   -9.6736 O   0  0  0  0  0  0  0  0  0  0  0  0
  1  2  1  0
  2  3  2  0
  4  2  1  0
  5  4  1  0
  5  6  1  1
  7  5  1  0
  7  8  2  0
  9  7  1  0
 10  9  1  0
 10 11  1  6
 12 11  1  0
 13 12  2  0
 14 10  1  0
 15 14  2  0
 16 12  1  0
 17 14  1  0
 18 17  1  0
 18 22  1  0
 18 19  1  1
 20 21  2  0
 20 19  1  0
 22 25  1  0
 23 22  2  0
 24 20  1  0
M  END
$$$$
