NDD.pdb
     RDKit          3D

 25 24  0  0  1  0  0  0  0  0999 V2000
   28.2448  -11.5479  -16.0086 N   0  0  0  0  0  0  0  0  0  0  0  0
   27.1645  -12.4117  -16.3277 C   0  0  0  0  0  0  0  0  0  0  0  0
   27.3962  -13.6370  -16.3961 O   0  0  0  0  0  0  0  0  0  0  0  0
   25.8317  -11.8083  -16.5598 C   0  0  0  0  0  0  0  0  0  0  0  0
   25.8714  -10.3016  -16.4346 C   0  0  2  0  0  0  0  0  0  0  0  0
   26.4415   -9.9651  -15.1577 N   0  0  0  0  0  0  0  0  0  0  0  0
   24.4469   -9.8337  -16.5561 C   0  0  0  0  0  0  0  0  0  0  0  0
   23.9232   -9.9804  -17.6886 O   0  0  0  0  0  0  0  0  0  0  0  0
   23.7409   -9.2731  -15.4979 N   0  0  0  0  0  0  0  0  0  0  0  0
   22.3748   -8.7799  -15.6963 C   0  0  1  0  0  0  0  0  0  0  0  0
   21.3899   -9.7102  -15.0560 C   0  0  0  0  0  0  0  0  0  0  0  0
   19.9800   -9.3023  -15.1369 C   0  0  0  0  0  0  0  0  0  0  0  0
   19.4551   -8.9860  -16.2232 O   0  0  0  0  0  0  0  0  0  0  0  0
   22.2679   -7.4455  -15.0426 C   0  0  0  0  0  0  0  0  0  0  0  0
   23.2224   -6.9722  -14.4230 O   0  0  0  0  0  0  0  0  0  0  0  0
   19.1621   -9.2489  -14.0030 O   0  0  0  0  0  0  0  0  0  0  0  0
   21.0680   -6.6708  -15.1058 N   0  0  0  0  0  0  0  0  0  0  0  0
   21.0440   -5.2543  -14.8219 C   0  0  1  0  0  0  0  0  0  0  0  0
   22.1133   -4.4787  -15.5461 C   0  0  0  0  0  0  0  0  0  0  0  0
   22.0929   -3.0417  -15.1994 C   0  0  0  0  0  0  0  0  0  0  0  0
   21.3153   -2.5826  -14.3335 O   0  0  0  0  0  0  0  0  0  0  0  0
   19.6912   -4.6735  -15.0765 C   0  0  0  0  0  0  0  0  0  0  0  0
   19.1351   -3.9355  -14.2236 O   0  0  0  0  0  0  0  0  0  0  0  0
   22.9510   -2.1640  -15.8398 O   0  0  0  0  0  0  0  0  0  0  0  0
   19.0082   -4.9275  -16.2547 O   0  0  0  0  0  0  0  0  0  0  0  0
  1  2  1  0
  2  3  2  0
  4  2  1  0
  5  4  1  0
  5  6  1  1
  7  5  1  0
  7  8  2  0
  9  7  1  0
 10  9  1  0
 10 11  1  1
 12 11  1  0
 13 12  2  0
 14 10  1  0
 15 14  2  0
 16 12  1  0
 17 14  1  0
 18 17  1  0
 18 22  1  0
 18 19  1  6
 20 21  2  0
 20 19  1  0
 22 25  1  0
 23 22  2  0
 24 20  1  0
M  END
$$$$
