NDD.pdb
     RDKit          3D

 25 24  0  0  1  0  0  0  0  0999 V2000
   18.5576  -11.5101  -16.4099 N   0  0  0  0  0  0  0  0  0  0  0  0
   18.1173  -11.0085  -15.1571 C   0  0  0  0  0  0  0  0  0  0  0  0
   17.4557  -11.7710  -14.4219 O   0  0  0  0  0  0  0  0  0  0  0  0
   18.4684   -9.6144  -14.7995 C   0  0  0  0  0  0  0  0  0  0  0  0
   19.2951   -8.9523  -15.8790 C   0  0  2  0  0  0  0  0  0  0  0  0
   20.5720   -9.6111  -15.9441 N   0  0  0  0  0  0  0  0  0  0  0  0
   19.4263   -7.5081  -15.4794 C   0  0  0  0  0  0  0  0  0  0  0  0
   18.3446   -6.8983  -15.2885 O   0  0  0  0  0  0  0  0  0  0  0  0
   20.6534   -6.8727  -15.3272 N   0  0  0  0  0  0  0  0  0  0  0  0
   20.7143   -5.4595  -14.9425 C   0  0  1  0  0  0  0  0  0  0  0  0
   21.8852   -5.2184  -14.0390 C   0  0  0  0  0  0  0  0  0  0  0  0
   21.6898   -5.5839  -12.6287 C   0  0  0  0  0  0  0  0  0  0  0  0
   20.5798   -5.9591  -12.2011 O   0  0  0  0  0  0  0  0  0  0  0  0
   20.8917   -4.6524  -16.1820 C   0  0  0  0  0  0  0  0  0  0  0  0
   21.8082   -4.9022  -16.9674 O   0  0  0  0  0  0  0  0  0  0  0  0
   22.7359   -5.5283  -11.7013 O   0  0  0  0  0  0  0  0  0  0  0  0
   20.0178   -3.5681  -16.5053 N   0  0  0  0  0  0  0  0  0  0  0  0
   20.1662   -2.7861  -17.7112 C   0  0  1  0  0  0  0  0  0  0  0  0
   18.8536   -2.3588  -18.3148 C   0  0  0  0  0  0  0  0  0  0  0  0
   18.1796   -3.4655  -19.0266 C   0  0  0  0  0  0  0  0  0  0  0  0
   18.8066   -4.4710  -19.4282 O   0  0  0  0  0  0  0  0  0  0  0  0
   21.0643   -1.6129  -17.4891 C   0  0  0  0  0  0  0  0  0  0  0  0
   20.9422   -0.8916  -16.4663 O   0  0  0  0  0  0  0  0  0  0  0  0
   16.8170   -3.4058  -19.2645 O   0  0  0  0  0  0  0  0  0  0  0  0
   22.0561   -1.2825  -18.3982 O   0  0  0  0  0  0  0  0  0  0  0  0
  1  2  1  0
  2  3  2  0
  4  2  1  0
  5  4  1  0
  5  6  1  1
  7  5  1  0
  7  8  2  0
  9  7  1  0
 10  9  1  0
 10 11  1  1
 12 11  1  0
 13 12  2  0
 14 10  1  0
 15 14  2  0
 16 12  1  0
 17 14  1  0
 18 17  1  0
 18 22  1  0
 18 19  1  1
 20 21  2  0
 20 19  1  0
 22 25  1  0
 23 22  2  0
 24 20  1  0
M  END
$$$$
