NDD.pdb
     RDKit          3D

 25 24  0  0  1  0  0  0  0  0999 V2000
   19.6399  -14.1586  -18.0755 N   0  0  0  0  0  0  0  0  0  0  0  0
   18.7641  -13.6494  -17.0812 C   0  0  0  0  0  0  0  0  0  0  0  0
   18.2756  -14.4570  -16.2634 O   0  0  0  0  0  0  0  0  0  0  0  0
   18.4836  -12.1948  -17.0748 C   0  0  0  0  0  0  0  0  0  0  0  0
   18.5843  -11.6129  -15.6824 C   0  0  2  0  0  0  0  0  0  0  0  0
   17.5979  -12.2481  -14.8504 N   0  0  0  0  0  0  0  0  0  0  0  0
   18.3333  -10.1367  -15.8264 C   0  0  0  0  0  0  0  0  0  0  0  0
   18.8893   -9.5859  -16.8092 O   0  0  0  0  0  0  0  0  0  0  0  0
   17.5426   -9.4130  -14.9412 N   0  0  0  0  0  0  0  0  0  0  0  0
   17.2895   -7.9871  -15.1684 C   0  0  1  0  0  0  0  0  0  0  0  0
   15.9609   -7.5987  -14.5945 C   0  0  0  0  0  0  0  0  0  0  0  0
   14.7905   -8.2608  -15.1881 C   0  0  0  0  0  0  0  0  0  0  0  0
   14.5638   -8.2068  -16.4134 O   0  0  0  0  0  0  0  0  0  0  0  0
   18.3560   -7.2139  -14.4726 C   0  0  0  0  0  0  0  0  0  0  0  0
   18.8683   -7.6435  -13.4372 O   0  0  0  0  0  0  0  0  0  0  0  0
   13.8773   -8.9805  -14.4098 O   0  0  0  0  0  0  0  0  0  0  0  0
   18.8211   -5.9572  -14.9711 N   0  0  0  0  0  0  0  0  0  0  0  0
   19.9715   -5.2812  -14.4169 C   0  0  1  0  0  0  0  0  0  0  0  0
   21.2042   -6.1453  -14.3567 C   0  0  0  0  0  0  0  0  0  0  0  0
   22.3759   -5.4113  -13.8333 C   0  0  0  0  0  0  0  0  0  0  0  0
   22.3389   -4.8011  -12.7417 O   0  0  0  0  0  0  0  0  0  0  0  0
   20.2459   -4.0006  -15.1359 C   0  0  0  0  0  0  0  0  0  0  0  0
   21.1561   -3.2249  -14.7473 O   0  0  0  0  0  0  0  0  0  0  0  0
   23.5560   -5.3872  -14.5568 O   0  0  0  0  0  0  0  0  0  0  0  0
   19.5103   -3.6272  -16.2488 O   0  0  0  0  0  0  0  0  0  0  0  0
  1  2  1  0
  2  3  2  0
  4  2  1  0
  5  4  1  0
  5  6  1  1
  7  5  1  0
  7  8  2  0
  9  7  1  0
 10  9  1  0
 10 11  1  1
 12 11  1  0
 13 12  2  0
 14 10  1  0
 15 14  2  0
 16 12  1  0
 17 14  1  0
 18 17  1  0
 18 22  1  0
 18 19  1  6
 20 21  2  0
 20 19  1  0
 22 25  1  0
 23 22  2  0
 24 20  1  0
M  END
$$$$
