VWI.pdb
     RDKit          3D

 30 31  0  0  1  0  0  0  0  0999 V2000
   28.6356  -21.9033  -19.0432 C   0  0  0  0  0  0  0  0  0  0  0  0
   27.7823  -21.9384  -17.8236 C   0  0  1  0  0  0  0  0  0  0  0  0
   26.3531  -22.3501  -18.0727 C   0  0  0  0  0  0  0  0  0  0  0  0
   28.4100  -22.6648  -16.6523 C   0  0  2  0  0  0  0  0  0  0  0  0
   28.4591  -24.1117  -16.9427 N   0  0  0  0  0  0  0  0  0  0  0  0
   27.6856  -22.4863  -15.3821 C   0  0  0  0  0  0  0  0  0  0  0  0
   26.7058  -23.2624  -15.1101 O   0  0  0  0  0  0  0  0  0  0  0  0
   27.9675  -21.5186  -14.4013 N   0  0  0  0  0  0  0  0  0  0  0  0
   27.1439  -21.3255  -13.1994 C   0  0  1  0  0  0  0  0  0  0  0  0
   27.9159  -20.5894  -12.1472 C   0  0  0  0  0  0  0  0  0  0  0  0
   27.2592  -20.3661  -10.8763 C   0  0  0  0  0  0  0  0  0  0  0  0
   25.9190  -19.9711  -10.7801 C   0  0  0  0  0  0  0  0  0  0  0  0
   25.6443  -19.8760   -9.4767 N   0  0  0  0  0  0  0  0  0  0  0  0
   26.7249  -20.1850   -8.7106 C   0  0  0  0  0  0  0  0  0  0  0  0
   26.9336  -20.2282   -7.3498 C   0  0  0  0  0  0  0  0  0  0  0  0
   28.1518  -20.5765   -6.8268 C   0  0  0  0  0  0  0  0  0  0  0  0
   29.1903  -20.8901   -7.6869 C   0  0  0  0  0  0  0  0  0  0  0  0
   28.9565  -20.8396   -9.0409 C   0  0  0  0  0  0  0  0  0  0  0  0
   27.7486  -20.4955   -9.6106 C   0  0  0  0  0  0  0  0  0  0  0  0
   25.7925  -20.8313  -13.4940 C   0  0  0  0  0  0  0  0  0  0  0  0
   25.6027  -19.7491  -14.1399 O   0  0  0  0  0  0  0  0  0  0  0  0
   21.7380  -24.1077  -15.2658 C   0  0  0  0  0  0  0  0  0  0  0  0
   22.3767  -23.2989  -14.2092 C   0  0  0  0  0  0  0  0  0  0  0  0
   22.7260  -21.8997  -14.4554 C   0  0  2  0  0  0  0  0  0  0  0  0
   23.5626  -21.7093  -15.7219 C   0  0  0  0  0  0  0  0  0  0  0  0
   23.2598  -21.0467  -13.3367 C   0  0  2  0  0  0  0  0  0  0  0  0
   24.6312  -21.5248  -13.0886 N   0  0  0  0  0  0  0  0  0  0  0  0
   22.4945  -20.9744  -12.1103 C   0  0  0  0  0  0  0  0  0  0  0  0
   22.8060  -21.5842  -11.0587 O   0  0  0  0  0  0  0  0  0  0  0  0
   21.3176  -20.2040  -11.9803 O   0  0  0  0  0  0  0  0  0  0  0  0
  2  1  1  6
  2  3  1  0
  4  2  1  0
  4  5  1  6
  6  4  1  0
  6  7  2  0
  8  6  1  0
  9  8  1  0
 10 11  1  0
  9 10  1  1
 11 19  1  0
 12 11  2  0
 12 13  1  0
 13 14  1  0
 14 15  1  0
 15 16  2  0
 17 16  1  0
 18 17  2  0
 19 14  2  0
 19 18  1  0
 20 21  2  0
 20  9  1  0
 23 22  1  0
 23 24  1  0
 24 26  1  0
 24 25  1  6
 26 27  1  1
 26 28  1  0
 27 20  1  0
 28 30  1  0
 29 28  2  0
M  END
$$$$
