VWI.pdb
     RDKit          3D

 30 31  0  0  1  0  0  0  0  0999 V2000
   28.8767  -19.8979  -16.8071 C   0  0  0  0  0  0  0  0  0  0  0  0
   27.9668  -20.2068  -15.6698 C   0  0  1  0  0  0  0  0  0  0  0  0
   26.5122  -20.3287  -16.0488 C   0  0  0  0  0  0  0  0  0  0  0  0
   28.4441  -21.3423  -14.7887 C   0  0  2  0  0  0  0  0  0  0  0  0
   28.2715  -22.6228  -15.5036 N   0  0  0  0  0  0  0  0  0  0  0  0
   27.7269  -21.4442  -13.5061 C   0  0  0  0  0  0  0  0  0  0  0  0
   26.6393  -22.1155  -13.4528 O   0  0  0  0  0  0  0  0  0  0  0  0
   28.1257  -20.8610  -12.2900 N   0  0  0  0  0  0  0  0  0  0  0  0
   27.2839  -20.8540  -11.0853 C   0  0  1  0  0  0  0  0  0  0  0  0
   28.0478  -20.3142   -9.9147 C   0  0  0  0  0  0  0  0  0  0  0  0
   27.3448  -20.2124   -8.6531 C   0  0  0  0  0  0  0  0  0  0  0  0
   25.9715  -19.9495   -8.5752 C   0  0  0  0  0  0  0  0  0  0  0  0
   25.6601  -19.9410   -7.2765 N   0  0  0  0  0  0  0  0  0  0  0  0
   26.7477  -20.1826   -6.4965 C   0  0  0  0  0  0  0  0  0  0  0  0
   26.9293  -20.2690   -5.1338 C   0  0  0  0  0  0  0  0  0  0  0  0
   28.1631  -20.5256   -4.5946 C   0  0  0  0  0  0  0  0  0  0  0  0
   29.2455  -20.7004   -5.4398 C   0  0  0  0  0  0  0  0  0  0  0  0
   29.0382  -20.6094   -6.7960 C   0  0  0  0  0  0  0  0  0  0  0  0
   27.8161  -20.3539   -7.3818 C   0  0  0  0  0  0  0  0  0  0  0  0
   25.9452  -20.2949  -11.3148 C   0  0  0  0  0  0  0  0  0  0  0  0
   25.7698  -19.2499  -12.0230 O   0  0  0  0  0  0  0  0  0  0  0  0
   24.1060  -19.9915  -14.9825 C   0  0  0  0  0  0  0  0  0  0  0  0
   24.2022  -19.8627  -13.5153 C   0  0  0  0  0  0  0  0  0  0  0  0
   23.3330  -20.6525  -12.6430 C   0  0  2  0  0  0  0  0  0  0  0  0
   21.8752  -20.6624  -13.1065 C   0  0  0  0  0  0  0  0  0  0  0  0
   23.4112  -20.4873  -11.1494 C   0  0  2  0  0  0  0  0  0  0  0  0
   24.7803  -20.8821  -10.7744 N   0  0  0  0  0  0  0  0  0  0  0  0
   22.4236  -21.1647  -10.3365 C   0  0  0  0  0  0  0  0  0  0  0  0
   22.1960  -22.3971  -10.4009 O   0  0  0  0  0  0  0  0  0  0  0  0
   21.6186  -20.4980   -9.3863 O   0  0  0  0  0  0  0  0  0  0  0  0
  2  1  1  6
  2  3  1  0
  4  2  1  0
  4  5  1  6
  6  4  1  0
  6  7  2  0
  8  6  1  0
  9  8  1  0
 10 11  1  0
  9 10  1  1
 11 19  1  0
 12 11  2  0
 12 13  1  0
 13 14  1  0
 14 15  1  0
 15 16  2  0
 17 16  1  0
 18 17  2  0
 19 14  2  0
 19 18  1  0
 20 21  2  0
 20  9  1  0
 23 22  1  0
 23 24  1  0
 24 26  1  0
 24 25  1  6
 26 27  1  1
 26 28  1  0
 27 20  1  0
 28 30  1  0
 29 28  2  0
M  END
$$$$
