VWI.pdb
     RDKit          3D

 30 31  0  0  1  0  0  0  0  0999 V2000
   25.8161  -18.5587  -14.5891 C   0  0  0  0  0  0  0  0  0  0  0  0
   26.4403  -19.7296  -15.2645 C   0  0  1  0  0  0  0  0  0  0  0  0
   27.0606  -19.4207  -16.6039 C   0  0  0  0  0  0  0  0  0  0  0  0
   27.3472  -20.5473  -14.3687 C   0  0  2  0  0  0  0  0  0  0  0  0
   27.6553  -21.8330  -15.0262 N   0  0  0  0  0  0  0  0  0  0  0  0
   26.7688  -20.8462  -13.0474 C   0  0  0  0  0  0  0  0  0  0  0  0
   25.8491  -21.7306  -12.9563 O   0  0  0  0  0  0  0  0  0  0  0  0
   27.1341  -20.2410  -11.8315 N   0  0  0  0  0  0  0  0  0  0  0  0
   26.4662  -20.5301  -10.5547 C   0  0  1  0  0  0  0  0  0  0  0  0
   27.3142  -20.0784   -9.4050 C   0  0  0  0  0  0  0  0  0  0  0  0
   26.8349  -20.3724   -8.0708 C   0  0  0  0  0  0  0  0  0  0  0  0
   25.6701  -21.1132   -7.8351 C   0  0  0  0  0  0  0  0  0  0  0  0
   25.5401  -21.2039   -6.5090 N   0  0  0  0  0  0  0  0  0  0  0  0
   26.5508  -20.5663   -5.8594 C   0  0  0  0  0  0  0  0  0  0  0  0
   26.8465  -20.3834   -4.5266 C   0  0  0  0  0  0  0  0  0  0  0  0
   27.9541  -19.6783   -4.1331 C   0  0  0  0  0  0  0  0  0  0  0  0
   28.7894  -19.1409   -5.0975 C   0  0  0  0  0  0  0  0  0  0  0  0
   28.4724  -19.3375   -6.4209 C   0  0  0  0  0  0  0  0  0  0  0  0
   27.3703  -20.0396   -6.8621 C   0  0  0  0  0  0  0  0  0  0  0  0
   25.0542  -20.1260  -10.5326 C   0  0  0  0  0  0  0  0  0  0  0  0
   24.7103  -18.8988  -10.5333 O   0  0  0  0  0  0  0  0  0  0  0  0
   22.5699  -21.2977  -14.5543 C   0  0  0  0  0  0  0  0  0  0  0  0
   22.8871  -20.7387  -13.2256 C   0  0  0  0  0  0  0  0  0  0  0  0
   22.1805  -21.2106  -12.0347 C   0  0  2  0  0  0  0  0  0  0  0  0
   20.6593  -21.1787  -12.1936 C   0  0  0  0  0  0  0  0  0  0  0  0
   22.5797  -20.7113  -10.6726 C   0  0  2  0  0  0  0  0  0  0  0  0
   24.0011  -21.0665  -10.5171 N   0  0  0  0  0  0  0  0  0  0  0  0
   21.7985  -21.1427   -9.5329 C   0  0  0  0  0  0  0  0  0  0  0  0
   20.7367  -20.5841   -9.1654 O   0  0  0  0  0  0  0  0  0  0  0  0
   22.1596  -22.2420   -8.7225 O   0  0  0  0  0  0  0  0  0  0  0  0
  2  1  1  1
  2  3  1  0
  4  2  1  0
  4  5  1  6
  6  4  1  0
  6  7  2  0
  8  6  1  0
  9  8  1  0
 10 11  1  0
  9 10  1  1
 11 19  1  0
 12 11  2  0
 12 13  1  0
 13 14  1  0
 14 15  1  0
 15 16  2  0
 17 16  1  0
 18 17  2  0
 19 14  2  0
 19 18  1  0
 20 21  2  0
 20  9  1  0
 23 22  1  0
 23 24  1  0
 24 26  1  0
 24 25  1  6
 26 27  1  1
 26 28  1  0
 27 20  1  0
 28 30  1  0
 29 28  2  0
M  END
$$$$
