VWI.pdb
     RDKit          3D

 30 31  0  0  1  0  0  0  0  0999 V2000
   25.0861  -15.6702  -19.1211 C   0  0  0  0  0  0  0  0  0  0  0  0
   24.9897  -16.7982  -18.1540 C   0  0  1  0  0  0  0  0  0  0  0  0
   24.0060  -17.8728  -18.5436 C   0  0  0  0  0  0  0  0  0  0  0  0
   26.3296  -17.3543  -17.7193 C   0  0  2  0  0  0  0  0  0  0  0  0
   27.0122  -17.9536  -18.8834 N   0  0  0  0  0  0  0  0  0  0  0  0
   26.2357  -18.3873  -16.6734 C   0  0  0  0  0  0  0  0  0  0  0  0
   25.7051  -19.5157  -16.9589 O   0  0  0  0  0  0  0  0  0  0  0  0
   26.6843  -18.2601  -15.3464 N   0  0  0  0  0  0  0  0  0  0  0  0
   26.3877  -19.2459  -14.2975 C   0  0  1  0  0  0  0  0  0  0  0  0
   27.4037  -19.1648  -13.1991 C   0  0  0  0  0  0  0  0  0  0  0  0
   27.2945  -20.1257  -12.1216 C   0  0  0  0  0  0  0  0  0  0  0  0
   27.7619  -21.4409  -12.2350 C   0  0  0  0  0  0  0  0  0  0  0  0
   27.5159  -22.0331  -11.0635 N   0  0  0  0  0  0  0  0  0  0  0  0
   26.9143  -21.1847  -10.1870 C   0  0  0  0  0  0  0  0  0  0  0  0
   26.4728  -21.3273   -8.8901 C   0  0  0  0  0  0  0  0  0  0  0  0
   25.8823  -20.2873   -8.2204 C   0  0  0  0  0  0  0  0  0  0  0  0
   25.7284  -19.0713   -8.8639 C   0  0  0  0  0  0  0  0  0  0  0  0
   26.1774  -18.9544  -10.1583 C   0  0  0  0  0  0  0  0  0  0  0  0
   26.7770  -19.9724  -10.8697 C   0  0  0  0  0  0  0  0  0  0  0  0
   24.9761  -19.2564  -13.8918 C   0  0  0  0  0  0  0  0  0  0  0  0
   24.3473  -18.1786  -13.6325 O   0  0  0  0  0  0  0  0  0  0  0  0
   21.2746  -20.5130  -16.8610 C   0  0  0  0  0  0  0  0  0  0  0  0
   21.9851  -20.0664  -15.6469 C   0  0  0  0  0  0  0  0  0  0  0  0
   22.0032  -20.9042  -14.4477 C   0  0  2  0  0  0  0  0  0  0  0  0
   20.6033  -21.3170  -13.9890 C   0  0  0  0  0  0  0  0  0  0  0  0
   22.8522  -20.5155  -13.2678 C   0  0  2  0  0  0  0  0  0  0  0  0
   24.2347  -20.4523  -13.7733 N   0  0  0  0  0  0  0  0  0  0  0  0
   22.7632  -21.3221  -12.0692 C   0  0  0  0  0  0  0  0  0  0  0  0
   23.4153  -22.3794  -11.8920 O   0  0  0  0  0  0  0  0  0  0  0  0
   21.9295  -20.9917  -10.9778 O   0  0  0  0  0  0  0  0  0  0  0  0
  2  1  1  6
  2  3  1  0
  4  2  1  0
  4  5  1  6
  6  4  1  0
  6  7  2  0
  8  6  1  0
  9  8  1  0
 10 11  1  0
  9 10  1  1
 11 19  1  0
 12 11  2  0
 12 13  1  0
 13 14  1  0
 14 15  1  0
 15 16  2  0
 17 16  1  0
 18 17  2  0
 19 14  2  0
 19 18  1  0
 20 21  2  0
 20  9  1  0
 23 22  1  0
 23 24  1  0
 24 26  1  0
 24 25  1  1
 26 27  1  6
 26 28  1  0
 27 20  1  0
 28 30  1  0
 29 28  2  0
M  END
$$$$
