VWI.pdb
     RDKit          3D

 30 31  0  0  1  0  0  0  0  0999 V2000
   21.4655  -22.6093  -14.2568 C   0  0  0  0  0  0  0  0  0  0  0  0
   22.6306  -21.9357  -13.6198 C   0  0  1  0  0  0  0  0  0  0  0  0
   23.4241  -21.0502  -14.5474 C   0  0  0  0  0  0  0  0  0  0  0  0
   22.3110  -21.2694  -12.2979 C   0  0  2  0  0  0  0  0  0  0  0  0
   21.3571  -20.1652  -12.5239 N   0  0  0  0  0  0  0  0  0  0  0  0
   23.4886  -20.7115  -11.6110 C   0  0  0  0  0  0  0  0  0  0  0  0
   23.8694  -19.5236  -11.8940 O   0  0  0  0  0  0  0  0  0  0  0  0
   24.2664  -21.3701  -10.6417 N   0  0  0  0  0  0  0  0  0  0  0  0
   25.5262  -20.8271  -10.1143 C   0  0  1  0  0  0  0  0  0  0  0  0
   25.5846  -20.9885   -8.6258 C   0  0  0  0  0  0  0  0  0  0  0  0
   26.4873  -20.1208   -7.8989 C   0  0  0  0  0  0  0  0  0  0  0  0
   26.4942  -18.7305   -8.0670 C   0  0  0  0  0  0  0  0  0  0  0  0
   27.4279  -18.2532   -7.2399 N   0  0  0  0  0  0  0  0  0  0  0  0
   28.0350  -19.2477   -6.5384 C   0  0  0  0  0  0  0  0  0  0  0  0
   29.0351  -19.2575   -5.5913 C   0  0  0  0  0  0  0  0  0  0  0  0
   29.4746  -20.4291   -5.0319 C   0  0  0  0  0  0  0  0  0  0  0  0
   28.8996  -21.6240   -5.4296 C   0  0  0  0  0  0  0  0  0  0  0  0
   27.9032  -21.5875   -6.3764 C   0  0  0  0  0  0  0  0  0  0  0  0
   27.4297  -20.4336   -6.9650 C   0  0  0  0  0  0  0  0  0  0  0  0
   26.7079  -21.2592  -10.8722 C   0  0  0  0  0  0  0  0  0  0  0  0
   26.8176  -22.4479  -11.3186 O   0  0  0  0  0  0  0  0  0  0  0  0
   27.8678  -18.2101  -14.8384 C   0  0  0  0  0  0  0  0  0  0  0  0
   27.9184  -19.4311  -14.0108 C   0  0  0  0  0  0  0  0  0  0  0  0
   29.0013  -19.6297  -13.0474 C   0  0  2  0  0  0  0  0  0  0  0  0
   30.3867  -19.6038  -13.6956 C   0  0  0  0  0  0  0  0  0  0  0  0
   28.9144  -20.7361  -12.0313 C   0  0  2  0  0  0  0  0  0  0  0  0
   27.7816  -20.3872  -11.1560 N   0  0  0  0  0  0  0  0  0  0  0  0
   30.1001  -21.0499  -11.2627 C   0  0  0  0  0  0  0  0  0  0  0  0
   31.0098  -21.8136  -11.6675 O   0  0  0  0  0  0  0  0  0  0  0  0
   30.3473  -20.5210   -9.9764 O   0  0  0  0  0  0  0  0  0  0  0  0
  2  1  1  6
  2  3  1  0
  4  2  1  0
  4  5  1  6
  6  4  1  0
  6  7  2  0
  8  6  1  0
  9  8  1  0
 10 11  1  0
  9 10  1  1
 11 19  1  0
 12 11  2  0
 12 13  1  0
 13 14  1  0
 14 15  1  0
 15 16  2  0
 17 16  1  0
 18 17  2  0
 19 14  2  0
 19 18  1  0
 20 21  2  0
 20  9  1  0
 23 22  1  0
 23 24  1  0
 24 26  1  0
 24 25  1  6
 26 27  1  1
 26 28  1  0
 27 20  1  0
 28 30  1  0
 29 28  2  0
M  END
$$$$
