VWI.pdb
     RDKit          3D

 30 31  0  0  1  0  0  0  0  0999 V2000
   29.4779  -20.2324  -16.5741 C   0  0  0  0  0  0  0  0  0  0  0  0
   29.4695  -19.3677  -17.7861 C   0  0  1  0  0  0  0  0  0  0  0  0
   30.6622  -19.5486  -18.6909 C   0  0  0  0  0  0  0  0  0  0  0  0
   28.1540  -19.3702  -18.5365 C   0  0  2  0  0  0  0  0  0  0  0  0
   28.2062  -18.3681  -19.6197 N   0  0  0  0  0  0  0  0  0  0  0  0
   26.9861  -19.0599  -17.6941 C   0  0  0  0  0  0  0  0  0  0  0  0
   26.8356  -17.8686  -17.2532 O   0  0  0  0  0  0  0  0  0  0  0  0
   25.9825  -19.9673  -17.3097 N   0  0  0  0  0  0  0  0  0  0  0  0
   24.8998  -19.6239  -16.3771 C   0  0  1  0  0  0  0  0  0  0  0  0
   23.6290  -19.3561  -17.1244 C   0  0  0  0  0  0  0  0  0  0  0  0
   22.4612  -19.0052  -16.3439 C   0  0  0  0  0  0  0  0  0  0  0  0
   22.3203  -17.7609  -15.7168 C   0  0  0  0  0  0  0  0  0  0  0  0
   21.1320  -17.7757  -15.1075 N   0  0  0  0  0  0  0  0  0  0  0  0
   20.4838  -18.9563  -15.2969 C   0  0  0  0  0  0  0  0  0  0  0  0
   19.2644  -19.4396  -14.8763 C   0  0  0  0  0  0  0  0  0  0  0  0
   18.8428  -20.6994  -15.2140 C   0  0  0  0  0  0  0  0  0  0  0  0
   19.6618  -21.4986  -15.9932 C   0  0  0  0  0  0  0  0  0  0  0  0
   20.8739  -20.9931  -16.4002 C   0  0  0  0  0  0  0  0  0  0  0  0
   21.3380  -19.7331  -16.0852 C   0  0  0  0  0  0  0  0  0  0  0  0
   24.8109  -20.5352  -15.2286 C   0  0  0  0  0  0  0  0  0  0  0  0
   24.9113  -21.7980  -15.3682 O   0  0  0  0  0  0  0  0  0  0  0  0
   28.0724  -20.3501  -11.3450 C   0  0  0  0  0  0  0  0  0  0  0  0
   26.9658  -20.7698  -12.2269 C   0  0  0  0  0  0  0  0  0  0  0  0
   25.5756  -20.6022  -11.8032 C   0  0  2  0  0  0  0  0  0  0  0  0
   25.3060  -21.1699  -10.4085 C   0  0  0  0  0  0  0  0  0  0  0  0
   24.4529  -20.9522  -12.7419 C   0  0  2  0  0  0  0  0  0  0  0  0
   24.6179  -20.0691  -13.9097 N   0  0  0  0  0  0  0  0  0  0  0  0
   23.0991  -20.9074  -12.2315 C   0  0  0  0  0  0  0  0  0  0  0  0
   22.4350  -19.8494  -12.1124 O   0  0  0  0  0  0  0  0  0  0  0  0
   22.3926  -22.0587  -11.8182 O   0  0  0  0  0  0  0  0  0  0  0  0
  2  1  1  1
  2  3  1  0
  4  2  1  0
  4  5  1  6
  6  4  1  0
  6  7  2  0
  8  6  1  0
  9  8  1  0
 10 11  1  0
  9 10  1  6
 11 19  1  0
 12 11  2  0
 12 13  1  0
 13 14  1  0
 14 15  1  0
 15 16  2  0
 17 16  1  0
 18 17  2  0
 19 14  2  0
 19 18  1  0
 20 21  2  0
 20  9  1  0
 23 22  1  0
 23 24  1  0
 24 26  1  0
 24 25  1  1
 26 27  1  6
 26 28  1  0
 27 20  1  0
 28 30  1  0
 29 28  2  0
M  END
$$$$
