VWI.pdb
     RDKit          3D

 30 31  0  0  1  0  0  0  0  0999 V2000
   26.4395  -21.7381  -14.4370 C   0  0  0  0  0  0  0  0  0  0  0  0
   26.8849  -20.3703  -14.8211 C   0  0  1  0  0  0  0  0  0  0  0  0
   26.8001  -20.0773  -16.2979 C   0  0  0  0  0  0  0  0  0  0  0  0
   26.2969  -19.2672  -13.9660 C   0  0  2  0  0  0  0  0  0  0  0  0
   26.8411  -17.9660  -14.4030 N   0  0  0  0  0  0  0  0  0  0  0  0
   26.5802  -19.4119  -12.5278 C   0  0  0  0  0  0  0  0  0  0  0  0
   27.7885  -19.3164  -12.1188 O   0  0  0  0  0  0  0  0  0  0  0  0
   25.6288  -19.6523  -11.5202 N   0  0  0  0  0  0  0  0  0  0  0  0
   25.9884  -19.9479  -10.1262 C   0  0  1  0  0  0  0  0  0  0  0  0
   25.6528  -18.7870   -9.2403 C   0  0  0  0  0  0  0  0  0  0  0  0
   26.5349  -18.5289   -8.1216 C   0  0  0  0  0  0  0  0  0  0  0  0
   27.5085  -17.5227   -8.1466 C   0  0  0  0  0  0  0  0  0  0  0  0
   28.1187  -17.5557   -6.9590 N   0  0  0  0  0  0  0  0  0  0  0  0
   27.6036  -18.5245   -6.1552 C   0  0  0  0  0  0  0  0  0  0  0  0
   27.8946  -18.9390   -4.8743 C   0  0  0  0  0  0  0  0  0  0  0  0
   27.2081  -19.9692   -4.2860 C   0  0  0  0  0  0  0  0  0  0  0  0
   26.2033  -20.6031   -4.9968 C   0  0  0  0  0  0  0  0  0  0  0  0
   25.9320  -20.1706   -6.2734 C   0  0  0  0  0  0  0  0  0  0  0  0
   26.5957  -19.1392   -6.9041 C   0  0  0  0  0  0  0  0  0  0  0  0
   25.5382  -21.2723   -9.6780 C   0  0  0  0  0  0  0  0  0  0  0  0
   25.2887  -22.2088  -10.5058 O   0  0  0  0  0  0  0  0  0  0  0  0
   29.3841  -23.0378   -6.5141 C   0  0  0  0  0  0  0  0  0  0  0  0
   28.1859  -23.1629   -7.3668 C   0  0  0  0  0  0  0  0  0  0  0  0
   26.8792  -22.7213   -6.8792 C   0  0  2  0  0  0  0  0  0  0  0  0
   26.6042  -23.1551   -5.4382 C   0  0  0  0  0  0  0  0  0  0  0  0
   25.6528  -22.9092   -7.7304 C   0  0  2  0  0  0  0  0  0  0  0  0
   25.3636  -21.5869   -8.3126 N   0  0  0  0  0  0  0  0  0  0  0  0
   24.4766  -23.4844   -7.1132 C   0  0  0  0  0  0  0  0  0  0  0  0
   24.3660  -24.7008   -6.8258 O   0  0  0  0  0  0  0  0  0  0  0  0
   23.3354  -22.7249   -6.7722 O   0  0  0  0  0  0  0  0  0  0  0  0
  2  1  1  6
  2  3  1  0
  4  2  1  0
  4  5  1  6
  6  4  1  0
  6  7  2  0
  8  6  1  0
  9  8  1  0
 10 11  1  0
  9 10  1  1
 11 19  1  0
 12 11  2  0
 12 13  1  0
 13 14  1  0
 14 15  1  0
 15 16  2  0
 17 16  1  0
 18 17  2  0
 19 14  2  0
 19 18  1  0
 20 21  2  0
 20  9  1  0
 23 22  1  0
 23 24  1  0
 24 26  1  0
 24 25  1  1
 26 27  1  1
 26 28  1  0
 27 20  1  0
 28 30  1  0
 29 28  2  0
M  END
$$$$
