VWI.pdb
     RDKit          3D

 30 31  0  0  1  0  0  0  0  0999 V2000
   30.0165  -25.3549  -18.0411 C   0  0  0  0  0  0  0  0  0  0  0  0
   29.2788  -24.3351  -17.2457 C   0  0  1  0  0  0  0  0  0  0  0  0
   29.9340  -23.9692  -15.9377 C   0  0  0  0  0  0  0  0  0  0  0  0
   28.8430  -23.1255  -18.0460 C   0  0  2  0  0  0  0  0  0  0  0  0
   30.0359  -22.4149  -18.5483 N   0  0  0  0  0  0  0  0  0  0  0  0
   28.0363  -22.1613  -17.2783 C   0  0  0  0  0  0  0  0  0  0  0  0
   28.6268  -21.2139  -16.6536 O   0  0  0  0  0  0  0  0  0  0  0  0
   26.6353  -22.1719  -17.1553 N   0  0  0  0  0  0  0  0  0  0  0  0
   25.8872  -21.1752  -16.3762 C   0  0  1  0  0  0  0  0  0  0  0  0
   24.8876  -20.4735  -17.2442 C   0  0  0  0  0  0  0  0  0  0  0  0
   24.0126  -19.5127  -16.6059 C   0  0  0  0  0  0  0  0  0  0  0  0
   24.4749  -18.2891  -16.1056 C   0  0  0  0  0  0  0  0  0  0  0  0
   23.4097  -17.6565  -15.6068 N   0  0  0  0  0  0  0  0  0  0  0  0
   22.2748  -18.3923  -15.7496 C   0  0  0  0  0  0  0  0  0  0  0  0
   20.9604  -18.1742  -15.3999 C   0  0  0  0  0  0  0  0  0  0  0  0
   19.9897  -19.1056  -15.6625 C   0  0  0  0  0  0  0  0  0  0  0  0
   20.3415  -20.2876  -16.2916 C   0  0  0  0  0  0  0  0  0  0  0  0
   21.6599  -20.4812  -16.6305 C   0  0  0  0  0  0  0  0  0  0  0  0
   22.6685  -19.5728  -16.3866 C   0  0  0  0  0  0  0  0  0  0  0  0
   25.3988  -21.6899  -15.0901 C   0  0  0  0  0  0  0  0  0  0  0  0
   25.0169  -22.8983  -14.9554 O   0  0  0  0  0  0  0  0  0  0  0  0
   26.3409  -20.6213   -9.1264 C   0  0  0  0  0  0  0  0  0  0  0  0
   25.5293  -21.2358  -10.1951 C   0  0  0  0  0  0  0  0  0  0  0  0
   25.7008  -20.8217  -11.5877 C   0  0  2  0  0  0  0  0  0  0  0  0
   25.9074  -19.3134  -11.7389 C   0  0  0  0  0  0  0  0  0  0  0  0
   24.7660  -21.3355  -12.6488 C   0  0  2  0  0  0  0  0  0  0  0  0
   25.3311  -20.8841  -13.9325 N   0  0  0  0  0  0  0  0  0  0  0  0
   23.3622  -20.9993  -12.5410 C   0  0  0  0  0  0  0  0  0  0  0  0
   22.8497  -19.9776  -13.0587 O   0  0  0  0  0  0  0  0  0  0  0  0
   22.4304  -21.7961  -11.8395 O   0  0  0  0  0  0  0  0  0  0  0  0
  2  1  1  6
  2  3  1  0
  4  2  1  0
  4  5  1  1
  6  4  1  0
  6  7  2  0
  8  6  1  0
  9  8  1  0
 10 11  1  0
  9 10  1  6
 11 19  1  0
 12 11  2  0
 12 13  1  0
 13 14  1  0
 14 15  1  0
 15 16  2  0
 17 16  1  0
 18 17  2  0
 19 14  2  0
 19 18  1  0
 20 21  2  0
 20  9  1  0
 23 22  1  0
 23 24  1  0
 24 26  1  0
 24 25  1  1
 26 27  1  6
 26 28  1  0
 27 20  1  0
 28 30  1  0
 29 28  2  0
M  END
$$$$
