CWE.pdb
     RDKit          3D

 30 31  0  0  1  0  0  0  0  0999 V2000
   27.4305  -23.1823  -17.1517 N   0  0  0  0  0  0  0  0  0  0  0  0
   27.5873  -21.9897  -16.3776 C   0  0  1  0  0  0  0  0  0  0  0  0
   27.1961  -20.7536  -17.1474 C   0  0  0  0  0  0  0  0  0  0  0  0
   28.3546  -20.5573  -18.5409 S   0  0  0  0  0  0  0  0  0  0  0  0
   26.7926  -22.0336  -15.0923 C   0  0  0  0  0  0  0  0  0  0  0  0
   25.6998  -22.6524  -15.0923 O   0  0  0  0  0  0  0  0  0  0  0  0
   27.3147  -21.3805  -13.9616 N   0  0  0  0  0  0  0  0  0  0  0  0
   26.6434  -21.1992  -12.7183 C   0  0  1  0  0  0  0  0  0  0  0  0
   27.5721  -20.6335  -11.6643 C   0  0  0  0  0  0  0  0  0  0  0  0
   26.8023  -20.4647  -10.4049 C   0  0  0  0  0  0  0  0  0  0  0  0
   25.4482  -20.3862  -10.1736 C   0  0  0  0  0  0  0  0  0  0  0  0
   25.1876  -20.2385   -8.8477 N   0  0  0  0  0  0  0  0  0  0  0  0
   26.3556  -20.2172   -8.1840 C   0  0  0  0  0  0  0  0  0  0  0  0
   26.6346  -20.0915   -6.8408 C   0  0  0  0  0  0  0  0  0  0  0  0
   27.9434  -20.0996   -6.3846 C   0  0  0  0  0  0  0  0  0  0  0  0
   28.9548  -20.2365   -7.3092 C   0  0  0  0  0  0  0  0  0  0  0  0
   28.6399  -20.3621   -8.6665 C   0  0  0  0  0  0  0  0  0  0  0  0
   27.3553  -20.3539   -9.1146 C   0  0  0  0  0  0  0  0  0  0  0  0
   25.3846  -20.4468  -12.8734 C   0  0  0  0  0  0  0  0  0  0  0  0
   25.4072  -19.2003  -12.9982 O   0  0  0  0  0  0  0  0  0  0  0  0
   24.1247  -21.1008  -12.8863 N   0  0  0  0  0  0  0  0  0  0  0  0
   22.8382  -20.4572  -12.9963 C   0  0  1  0  0  0  0  0  0  0  0  0
   22.2242  -20.6510  -14.3227 C   0  0  0  0  0  0  0  0  0  0  0  0
   23.0724  -20.3328  -15.4994 C   0  0  0  0  0  0  0  0  0  0  0  0
   22.3630  -19.7236  -16.6302 C   0  0  0  0  0  0  0  0  0  0  0  0
   21.1441  -19.7197  -16.8399 O   0  0  0  0  0  0  0  0  0  0  0  0
   21.9447  -20.6773  -11.8325 C   0  0  0  0  0  0  0  0  0  0  0  0
   20.9442  -19.9826  -11.5859 O   0  0  0  0  0  0  0  0  0  0  0  0
   23.1598  -19.0677  -17.5878 O   0  0  0  0  0  0  0  0  0  0  0  0
   22.2362  -21.7089  -10.9671 O   0  0  0  0  0  0  0  0  0  0  0  0
  2  1  1  6
  2  5  1  0
  3  4  1  0
  3  2  1  0
  5  7  1  0
  5  6  2  0
  7  8  1  0
  8  9  1  1
  8 19  1  0
  9 10  1  0
 10 11  2  0
 10 18  1  0
 11 12  1  0
 12 13  1  0
 13 14  2  0
 14 15  1  0
 16 15  2  0
 17 18  2  0
 17 16  1  0
 18 13  1  0
 19 20  2  0
 21 22  1  0
 21 19  1  0
 23 24  1  0
 22 23  1  6
 24 25  1  0
 25 26  2  0
 25 29  1  0
 27 22  1  0
 27 30  1  0
 28 27  2  0
M  END
$$$$
