CWE.pdb
     RDKit          3D

 30 31  0  0  1  0  0  0  0  0999 V2000
   28.4309  -18.4398  -18.5449 N   0  0  0  0  0  0  0  0  0  0  0  0
   27.7564  -17.7965  -17.4599 C   0  0  1  0  0  0  0  0  0  0  0  0
   26.7910  -16.7396  -17.9338 C   0  0  0  0  0  0  0  0  0  0  0  0
   27.7420  -15.4343  -18.7790 S   0  0  0  0  0  0  0  0  0  0  0  0
   27.0104  -18.7797  -16.5868 C   0  0  0  0  0  0  0  0  0  0  0  0
   26.3415  -19.6820  -17.1486 O   0  0  0  0  0  0  0  0  0  0  0  0
   27.1014  -18.6360  -15.1908 N   0  0  0  0  0  0  0  0  0  0  0  0
   26.4753  -19.4732  -14.2231 C   0  0  1  0  0  0  0  0  0  0  0  0
   27.0431  -19.2405  -12.8386 C   0  0  0  0  0  0  0  0  0  0  0  0
   26.4665  -20.2560  -11.9201 C   0  0  0  0  0  0  0  0  0  0  0  0
   26.1276  -21.5739  -12.1235 C   0  0  0  0  0  0  0  0  0  0  0  0
   25.6344  -22.1318  -10.9862 N   0  0  0  0  0  0  0  0  0  0  0  0
   25.6388  -21.2000  -10.0184 C   0  0  0  0  0  0  0  0  0  0  0  0
   25.2461  -21.2591   -8.6992 C   0  0  0  0  0  0  0  0  0  0  0  0
   25.3492  -20.1472   -7.8781 C   0  0  0  0  0  0  0  0  0  0  0  0
   25.8540  -18.9844   -8.4164 C   0  0  0  0  0  0  0  0  0  0  0  0
   26.2443  -18.9554   -9.7595 C   0  0  0  0  0  0  0  0  0  0  0  0
   26.1430  -20.0466  -10.5657 C   0  0  0  0  0  0  0  0  0  0  0  0
   25.0044  -19.3909  -14.2887 C   0  0  0  0  0  0  0  0  0  0  0  0
   24.4334  -18.2764  -14.2470 O   0  0  0  0  0  0  0  0  0  0  0  0
   24.1991  -20.5548  -14.3997 N   0  0  0  0  0  0  0  0  0  0  0  0
   22.7580  -20.5950  -14.3463 C   0  0  1  0  0  0  0  0  0  0  0  0
   22.1873  -21.5698  -15.2938 C   0  0  0  0  0  0  0  0  0  0  0  0
   20.7066  -21.6815  -15.3195 C   0  0  0  0  0  0  0  0  0  0  0  0
   20.0459  -20.9369  -16.3974 C   0  0  0  0  0  0  0  0  0  0  0  0
   20.5294  -20.5983  -17.4843 O   0  0  0  0  0  0  0  0  0  0  0  0
   22.1994  -20.6269  -12.9720 C   0  0  0  0  0  0  0  0  0  0  0  0
   22.5545  -21.4363  -12.0984 O   0  0  0  0  0  0  0  0  0  0  0  0
   18.7074  -20.5641  -16.1702 O   0  0  0  0  0  0  0  0  0  0  0  0
   21.2267  -19.7105  -12.6376 O   0  0  0  0  0  0  0  0  0  0  0  0
  2  1  1  6
  2  5  1  0
  3  4  1  0
  3  2  1  0
  5  7  1  0
  5  6  2  0
  7  8  1  0
  8  9  1  1
  8 19  1  0
  9 10  1  0
 10 11  2  0
 10 18  1  0
 11 12  1  0
 12 13  1  0
 13 14  2  0
 14 15  1  0
 16 15  2  0
 17 18  2  0
 17 16  1  0
 18 13  1  0
 19 20  2  0
 21 22  1  0
 21 19  1  0
 23 24  1  0
 22 23  1  6
 24 25  1  0
 25 26  2  0
 25 29  1  0
 27 22  1  0
 27 30  1  0
 28 27  2  0
M  END
$$$$
