CWE.pdb
     RDKit          3D

 30 31  0  0  1  0  0  0  0  0999 V2000
   28.8414  -20.7997  -15.0735 N   0  0  0  0  0  0  0  0  0  0  0  0
   27.9656  -19.9362  -14.3431 C   0  0  1  0  0  0  0  0  0  0  0  0
   27.2469  -18.9603  -15.2401 C   0  0  0  0  0  0  0  0  0  0  0  0
   28.4296  -17.6672  -15.7419 S   0  0  0  0  0  0  0  0  0  0  0  0
   26.9402  -20.7062  -13.5423 C   0  0  0  0  0  0  0  0  0  0  0  0
   26.4973  -21.7788  -14.0225 O   0  0  0  0  0  0  0  0  0  0  0  0
   26.5328  -20.1846  -12.3015 N   0  0  0  0  0  0  0  0  0  0  0  0
   25.5566  -20.7563  -11.4358 C   0  0  1  0  0  0  0  0  0  0  0  0
   25.7407  -20.2884  -10.0073 C   0  0  0  0  0  0  0  0  0  0  0  0
   27.0943  -20.6981   -9.5519 C   0  0  0  0  0  0  0  0  0  0  0  0
   28.0233  -21.5423  -10.1152 C   0  0  0  0  0  0  0  0  0  0  0  0
   29.1423  -21.6183   -9.3471 N   0  0  0  0  0  0  0  0  0  0  0  0
   28.9743  -20.8316   -8.2711 C   0  0  0  0  0  0  0  0  0  0  0  0
   29.8040  -20.5622   -7.2048 C   0  0  0  0  0  0  0  0  0  0  0  0
   29.4054  -19.6983   -6.1968 C   0  0  0  0  0  0  0  0  0  0  0  0
   28.1600  -19.1181   -6.2906 C   0  0  0  0  0  0  0  0  0  0  0  0
   27.3401  -19.4113   -7.3856 C   0  0  0  0  0  0  0  0  0  0  0  0
   27.7309  -20.2595   -8.3750 C   0  0  0  0  0  0  0  0  0  0  0  0
   24.1869  -20.5789  -11.9523 C   0  0  0  0  0  0  0  0  0  0  0  0
   23.6644  -19.4403  -11.9738 O   0  0  0  0  0  0  0  0  0  0  0  0
   23.4267  -21.6763  -12.4352 N   0  0  0  0  0  0  0  0  0  0  0  0
   22.0742  -21.6150  -12.9335 C   0  0  1  0  0  0  0  0  0  0  0  0
   21.5985  -22.9188  -13.4308 C   0  0  0  0  0  0  0  0  0  0  0  0
   20.2574  -22.9367  -14.0684 C   0  0  0  0  0  0  0  0  0  0  0  0
   19.8475  -24.2342  -14.6173 C   0  0  0  0  0  0  0  0  0  0  0  0
   18.7147  -24.7304  -14.6100 O   0  0  0  0  0  0  0  0  0  0  0  0
   21.1336  -20.8765  -12.0551 C   0  0  0  0  0  0  0  0  0  0  0  0
   20.3837  -19.9683  -12.4513 O   0  0  0  0  0  0  0  0  0  0  0  0
   20.8588  -25.0045  -15.2223 O   0  0  0  0  0  0  0  0  0  0  0  0
   21.0851  -21.2089  -10.7191 O   0  0  0  0  0  0  0  0  0  0  0  0
  2  1  1  6
  2  5  1  0
  3  4  1  0
  3  2  1  0
  5  7  1  0
  5  6  2  0
  7  8  1  0
  8  9  1  1
  8 19  1  0
  9 10  1  0
 10 11  2  0
 10 18  1  0
 11 12  1  0
 12 13  1  0
 13 14  2  0
 14 15  1  0
 16 15  2  0
 17 18  2  0
 17 16  1  0
 18 13  1  0
 19 20  2  0
 21 22  1  0
 21 19  1  0
 23 24  1  0
 22 23  1  1
 24 25  1  0
 25 26  2  0
 25 29  1  0
 27 22  1  0
 27 30  1  0
 28 27  2  0
M  END
$$$$
