CWE.pdb
     RDKit          3D

 30 31  0  0  1  0  0  0  0  0999 V2000
   16.3427  -20.4541    1.4595 N   0  0  0  0  0  0  0  0  0  0  0  0
   15.9985  -20.4098    2.8471 C   0  0  1  0  0  0  0  0  0  0  0  0
   16.0393  -21.7733    3.4896 C   0  0  0  0  0  0  0  0  0  0  0  0
   14.9087  -22.8710    2.5735 S   0  0  0  0  0  0  0  0  0  0  0  0
   16.8951  -19.4770    3.6292 C   0  0  0  0  0  0  0  0  0  0  0  0
   18.1221  -19.4722    3.3618 O   0  0  0  0  0  0  0  0  0  0  0  0
   16.3126  -18.6621    4.6162 N   0  0  0  0  0  0  0  0  0  0  0  0
   16.9968  -17.7034    5.4176 C   0  0  1  0  0  0  0  0  0  0  0  0
   16.3879  -16.3244    5.2729 C   0  0  0  0  0  0  0  0  0  0  0  0
   17.1172  -15.6017    4.1990 C   0  0  0  0  0  0  0  0  0  0  0  0
   17.1715  -15.8116    2.8403 C   0  0  0  0  0  0  0  0  0  0  0  0
   17.9682  -14.8908    2.2359 N   0  0  0  0  0  0  0  0  0  0  0  0
   18.4507  -14.0622    3.1770 C   0  0  0  0  0  0  0  0  0  0  0  0
   19.2912  -12.9746    3.0847 C   0  0  0  0  0  0  0  0  0  0  0  0
   19.6537  -12.2604    4.2160 C   0  0  0  0  0  0  0  0  0  0  0  0
   19.1513  -12.6674    5.4320 C   0  0  0  0  0  0  0  0  0  0  0  0
   18.2999  -13.7757    5.4937 C   0  0  0  0  0  0  0  0  0  0  0  0
   17.9443  -14.4770    4.3834 C   0  0  0  0  0  0  0  0  0  0  0  0
   17.1398  -18.1513    6.8153 C   0  0  0  0  0  0  0  0  0  0  0  0
   16.1574  -18.6325    7.4261 O   0  0  0  0  0  0  0  0  0  0  0  0
   18.3772  -18.0533    7.5042 N   0  0  0  0  0  0  0  0  0  0  0  0
   18.6095  -18.4126    8.8819 C   0  0  1  0  0  0  0  0  0  0  0  0
   20.0294  -18.6997    9.1563 C   0  0  0  0  0  0  0  0  0  0  0  0
   20.3535  -19.2065   10.5141 C   0  0  0  0  0  0  0  0  0  0  0  0
   21.7655  -19.5403   10.7321 C   0  0  0  0  0  0  0  0  0  0  0  0
   22.6883  -19.4812    9.9107 O   0  0  0  0  0  0  0  0  0  0  0  0
   17.9263  -17.5355    9.8644 C   0  0  0  0  0  0  0  0  0  0  0  0
   17.9419  -16.2939    9.8132 O   0  0  0  0  0  0  0  0  0  0  0  0
   22.1119  -19.9787   12.0244 O   0  0  0  0  0  0  0  0  0  0  0  0
   17.2342  -18.1243   10.8999 O   0  0  0  0  0  0  0  0  0  0  0  0
  2  1  1  6
  2  5  1  0
  3  4  1  0
  3  2  1  0
  5  7  1  0
  5  6  2  0
  7  8  1  0
  8  9  1  1
  8 19  1  0
  9 10  1  0
 10 11  2  0
 10 18  1  0
 11 12  1  0
 12 13  1  0
 13 14  2  0
 14 15  1  0
 16 15  2  0
 17 18  2  0
 17 16  1  0
 18 13  1  0
 19 20  2  0
 21 22  1  0
 21 19  1  0
 23 24  1  0
 22 23  1  1
 24 25  1  0
 25 26  2  0
 25 29  1  0
 27 22  1  0
 27 30  1  0
 28 27  2  0
M  END
$$$$
