CWE.pdb
     RDKit          3D

 30 31  0  0  1  0  0  0  0  0999 V2000
   14.7713   -6.8893   -7.6823 N   0  0  0  0  0  0  0  0  0  0  0  0
   15.1550   -7.5286   -8.9030 C   0  0  1  0  0  0  0  0  0  0  0  0
   13.9814   -7.7564   -9.8218 C   0  0  0  0  0  0  0  0  0  0  0  0
   12.9391   -9.0679   -9.1034 S   0  0  0  0  0  0  0  0  0  0  0  0
   16.2124   -6.7476   -9.6498 C   0  0  0  0  0  0  0  0  0  0  0  0
   16.1786   -5.4938   -9.5855 O   0  0  0  0  0  0  0  0  0  0  0  0
   17.1799   -7.4617  -10.3788 N   0  0  0  0  0  0  0  0  0  0  0  0
   18.2223   -6.8910  -11.1643 C   0  0  1  0  0  0  0  0  0  0  0  0
   19.3126   -7.9006  -11.4560 C   0  0  0  0  0  0  0  0  0  0  0  0
   20.3679   -7.2303  -12.2588 C   0  0  0  0  0  0  0  0  0  0  0  0
   21.0542   -6.0555  -12.0536 C   0  0  0  0  0  0  0  0  0  0  0  0
   21.9471   -5.8312  -13.0537 N   0  0  0  0  0  0  0  0  0  0  0  0
   21.8678   -6.8459  -13.9307 C   0  0  0  0  0  0  0  0  0  0  0  0
   22.5535   -7.0909  -15.1002 C   0  0  0  0  0  0  0  0  0  0  0  0
   22.2953   -8.2287  -15.8485 C   0  0  0  0  0  0  0  0  0  0  0  0
   21.3366   -9.1054  -15.3915 C   0  0  0  0  0  0  0  0  0  0  0  0
   20.6571   -8.8291  -14.2003 C   0  0  0  0  0  0  0  0  0  0  0  0
   20.9101   -7.7122  -13.4657 C   0  0  0  0  0  0  0  0  0  0  0  0
   17.7015   -6.2087  -12.3634 C   0  0  0  0  0  0  0  0  0  0  0  0
   16.7849   -6.7327  -13.0381 O   0  0  0  0  0  0  0  0  0  0  0  0
   18.2142   -4.9542  -12.7863 N   0  0  0  0  0  0  0  0  0  0  0  0
   17.6867   -4.1412  -13.8549 C   0  0  1  0  0  0  0  0  0  0  0  0
   16.2367   -3.9097  -13.7221 C   0  0  0  0  0  0  0  0  0  0  0  0
   15.6273   -2.9514  -14.6790 C   0  0  0  0  0  0  0  0  0  0  0  0
   14.1650   -2.8512  -14.6118 C   0  0  0  0  0  0  0  0  0  0  0  0
   13.4036   -3.4556  -13.8472 O   0  0  0  0  0  0  0  0  0  0  0  0
   18.5053   -2.9450  -14.1722 C   0  0  0  0  0  0  0  0  0  0  0  0
   18.8661   -2.6372  -15.3208 O   0  0  0  0  0  0  0  0  0  0  0  0
   13.5567   -1.9657  -15.5218 O   0  0  0  0  0  0  0  0  0  0  0  0
   18.8957   -2.1236  -13.1374 O   0  0  0  0  0  0  0  0  0  0  0  0
  2  1  1  1
  2  5  1  0
  3  4  1  0
  3  2  1  0
  5  7  1  0
  5  6  2  0
  7  8  1  0
  8  9  1  6
  8 19  1  0
  9 10  1  0
 10 11  2  0
 10 18  1  0
 11 12  1  0
 12 13  1  0
 13 14  2  0
 14 15  1  0
 16 15  2  0
 17 18  2  0
 17 16  1  0
 18 13  1  0
 19 20  2  0
 21 22  1  0
 21 19  1  0
 23 24  1  0
 22 23  1  1
 24 25  1  0
 25 26  2  0
 25 29  1  0
 27 22  1  0
 27 30  1  0
 28 27  2  0
M  END
$$$$
