CWE.pdb
     RDKit          3D

 30 31  0  0  1  0  0  0  0  0999 V2000
   28.5963  -21.2118  -15.1805 N   0  0  0  0  0  0  0  0  0  0  0  0
   27.9836  -20.2679  -14.2975 C   0  0  1  0  0  0  0  0  0  0  0  0
   27.4412  -19.0677  -15.0315 C   0  0  0  0  0  0  0  0  0  0  0  0
   28.8503  -18.0670  -15.6109 S   0  0  0  0  0  0  0  0  0  0  0  0
   26.8683  -20.8855  -13.4849 C   0  0  0  0  0  0  0  0  0  0  0  0
   26.3381  -21.9406  -13.9125 O   0  0  0  0  0  0  0  0  0  0  0  0
   26.4795  -20.2494  -12.2925 N   0  0  0  0  0  0  0  0  0  0  0  0
   25.4598  -20.6950  -11.4031 C   0  0  1  0  0  0  0  0  0  0  0  0
   25.6584  -20.1381  -10.0089 C   0  0  0  0  0  0  0  0  0  0  0  0
   26.9767  -20.6012   -9.5039 C   0  0  0  0  0  0  0  0  0  0  0  0
   27.9456  -21.3859  -10.0857 C   0  0  0  0  0  0  0  0  0  0  0  0
   29.0068  -21.5491   -9.2519 N   0  0  0  0  0  0  0  0  0  0  0  0
   28.7602  -20.8800   -8.1132 C   0  0  0  0  0  0  0  0  0  0  0  0
   29.5108  -20.7297   -6.9678 C   0  0  0  0  0  0  0  0  0  0  0  0
   29.0391  -19.9753   -5.9049 C   0  0  0  0  0  0  0  0  0  0  0  0
   27.8023  -19.3816   -6.0255 C   0  0  0  0  0  0  0  0  0  0  0  0
   27.0637  -19.5526   -7.2012 C   0  0  0  0  0  0  0  0  0  0  0  0
   27.5264  -20.2933   -8.2445 C   0  0  0  0  0  0  0  0  0  0  0  0
   24.1096  -20.4694  -11.9514 C   0  0  0  0  0  0  0  0  0  0  0  0
   23.7091  -19.3044  -12.1798 O   0  0  0  0  0  0  0  0  0  0  0  0
   23.2324  -21.5492  -12.2343 N   0  0  0  0  0  0  0  0  0  0  0  0
   21.9017  -21.4377  -12.7801 C   0  0  1  0  0  0  0  0  0  0  0  0
   21.2949  -22.7529  -13.0553 C   0  0  0  0  0  0  0  0  0  0  0  0
   19.9920  -22.7465  -13.7681 C   0  0  0  0  0  0  0  0  0  0  0  0
   19.6242  -24.0176  -14.4020 C   0  0  0  0  0  0  0  0  0  0  0  0
   18.7188  -24.7910  -14.0677 O   0  0  0  0  0  0  0  0  0  0  0  0
   21.0342  -20.4605  -12.0771 C   0  0  0  0  0  0  0  0  0  0  0  0
   20.3280  -19.6183  -12.6571 O   0  0  0  0  0  0  0  0  0  0  0  0
   20.3889  -24.4031  -15.5195 O   0  0  0  0  0  0  0  0  0  0  0  0
   21.0068  -20.4791  -10.6999 O   0  0  0  0  0  0  0  0  0  0  0  0
  2  1  1  6
  2  5  1  0
  3  4  1  0
  3  2  1  0
  5  7  1  0
  5  6  2  0
  7  8  1  0
  8  9  1  1
  8 19  1  0
  9 10  1  0
 10 11  2  0
 10 18  1  0
 11 12  1  0
 12 13  1  0
 13 14  2  0
 14 15  1  0
 16 15  2  0
 17 18  2  0
 17 16  1  0
 18 13  1  0
 19 20  2  0
 21 22  1  0
 21 19  1  0
 23 24  1  0
 22 23  1  1
 24 25  1  0
 25 26  2  0
 25 29  1  0
 27 22  1  0
 27 30  1  0
 28 27  2  0
M  END
$$$$
