WYP.pdb
     RDKit          3D

 34 37  0  0  1  0  0  0  0  0999 V2000
   25.1299  -20.9304   -8.8595 N   0  0  0  0  0  0  0  0  0  0  0  0
   26.4354  -20.6222   -9.3900 C   0  0  1  0  0  0  0  0  0  0  0  0
   27.5012  -21.1888   -8.4792 C   0  0  0  0  0  0  0  0  0  0  0  0
   27.4060  -20.5246   -7.1572 C   0  0  0  0  0  0  0  0  0  0  0  0
   26.3302  -19.8401   -6.6156 C   0  0  0  0  0  0  0  0  0  0  0  0
   26.6647  -19.3940   -5.3930 N   0  0  0  0  0  0  0  0  0  0  0  0
   27.9218  -19.7514   -5.0918 C   0  0  0  0  0  0  0  0  0  0  0  0
   28.7088  -19.5362   -3.9763 C   0  0  0  0  0  0  0  0  0  0  0  0
   29.9906  -20.0480   -3.9799 C   0  0  0  0  0  0  0  0  0  0  0  0
   30.4642  -20.7555   -5.0758 C   0  0  0  0  0  0  0  0  0  0  0  0
   29.6814  -20.9649   -6.1755 C   0  0  0  0  0  0  0  0  0  0  0  0
   28.3929  -20.4575   -6.1867 C   0  0  0  0  0  0  0  0  0  0  0  0
   26.5946  -21.1221  -10.7807 C   0  0  0  0  0  0  0  0  0  0  0  0
   26.8298  -22.3314  -11.0272 O   0  0  0  0  0  0  0  0  0  0  0  0
   20.5208  -19.6345  -12.3979 O   0  0  0  0  0  0  0  0  0  0  0  0
   21.7830  -20.1172  -12.7254 C   0  0  0  0  0  0  0  0  0  0  0  0
   22.4437  -19.6802  -13.8555 C   0  0  0  0  0  0  0  0  0  0  0  0
   23.7138  -20.1668  -14.1838 C   0  0  0  0  0  0  0  0  0  0  0  0
   24.3231  -21.0895  -13.3829 C   0  0  0  0  0  0  0  0  0  0  0  0
   25.6676  -21.6444  -13.6760 C   0  0  0  0  0  0  0  0  0  0  0  0
   26.7617  -20.6568  -13.2558 C   0  0  2  0  0  0  0  0  0  0  0  0
   26.4842  -20.2385  -11.8748 N   0  0  0  0  0  0  0  0  0  0  0  0
   26.6365  -19.4886  -14.1640 C   0  0  0  0  0  0  0  0  0  0  0  0
   25.9041  -18.5267  -13.7458 O   0  0  0  0  0  0  0  0  0  0  0  0
   23.6658  -21.5250  -12.2575 C   0  0  0  0  0  0  0  0  0  0  0  0
   22.3948  -21.0422  -11.9233 C   0  0  0  0  0  0  0  0  0  0  0  0
   27.2447  -19.3605  -15.4120 N   0  0  0  0  0  0  0  0  0  0  0  0
   28.0067  -20.3051  -16.2292 C   0  0  0  0  0  0  0  0  0  0  0  0
   28.9501  -19.4593  -17.0592 C   0  0  0  0  0  0  0  0  0  0  0  0
   28.6970  -18.0548  -16.5755 C   0  0  0  0  0  0  0  0  0  0  0  0
   27.2341  -18.1163  -16.1998 C   0  0  1  0  0  0  0  0  0  0  0  0
   26.3368  -18.3337  -17.3419 C   0  0  0  0  0  0  0  0  0  0  0  0
   25.6993  -19.5235  -17.6561 O   0  0  0  0  0  0  0  0  0  0  0  0
   26.1186  -17.3499  -18.1166 O   0  0  0  0  0  0  0  0  0  0  0  0
  2  1  1  1
  3  2  1  0
  4  5  2  0
  4  3  1  0
  6  5  1  0
  7 12  2  0
  7  6  1  0
  8  7  1  0
  9 10  1  0
  9  8  2  0
 10 11  2  0
 11 12  1  0
 12  4  1  0
 13 14  2  0
 13  2  1  0
 16 17  2  0
 16 15  1  0
 18 17  1  0
 19 18  2  0
 20 19  1  0
 21 20  1  6
 21 22  1  0
 22 13  1  0
 23 24  2  0
 23 21  1  0
 25 19  1  0
 25 26  2  0
 26 16  1  0
 27 23  1  0
 28 29  1  0
 28 27  1  0
 30 31  1  0
 30 29  1  0
 31 27  1  0
 31 32  1  6
 32 33  1  0
 34 32  2  0
M  END
$$$$
