WYP.pdb
     RDKit          3D

 34 37  0  0  1  0  0  0  0  0999 V2000
   21.9406  -18.4893  -14.4611 N   0  0  0  0  0  0  0  0  0  0  0  0
   22.7687  -19.6564  -14.2802 C   0  0  1  0  0  0  0  0  0  0  0  0
   22.1177  -20.8496  -14.9427 C   0  0  0  0  0  0  0  0  0  0  0  0
   20.8367  -21.1409  -14.2555 C   0  0  0  0  0  0  0  0  0  0  0  0
   19.5610  -21.1737  -14.7947 C   0  0  0  0  0  0  0  0  0  0  0  0
   18.6824  -21.4783  -13.8246 N   0  0  0  0  0  0  0  0  0  0  0  0
   19.3168  -21.6514  -12.6557 C   0  0  0  0  0  0  0  0  0  0  0  0
   18.8643  -21.9696  -11.3892 C   0  0  0  0  0  0  0  0  0  0  0  0
   19.7961  -22.0758  -10.3766 C   0  0  0  0  0  0  0  0  0  0  0  0
   21.1437  -21.8673  -10.6338 C   0  0  0  0  0  0  0  0  0  0  0  0
   21.5848  -21.5529  -11.8879 C   0  0  0  0  0  0  0  0  0  0  0  0
   20.6617  -21.4428  -12.9144 C   0  0  0  0  0  0  0  0  0  0  0  0
   24.1450  -19.4383  -14.7975 C   0  0  0  0  0  0  0  0  0  0  0  0
   24.3768  -18.6605  -15.7565 O   0  0  0  0  0  0  0  0  0  0  0  0
   24.5430  -20.5344   -8.6826 O   0  0  0  0  0  0  0  0  0  0  0  0
   25.2805  -20.4545   -9.8586 C   0  0  0  0  0  0  0  0  0  0  0  0
   25.6555  -21.5915  -10.5450 C   0  0  0  0  0  0  0  0  0  0  0  0
   26.3976  -21.5097  -11.7284 C   0  0  0  0  0  0  0  0  0  0  0  0
   26.7647  -20.2921  -12.2252 C   0  0  0  0  0  0  0  0  0  0  0  0
   27.5514  -20.1381  -13.4736 C   0  0  0  0  0  0  0  0  0  0  0  0
   26.6234  -19.8985  -14.6696 C   0  0  2  0  0  0  0  0  0  0  0  0
   25.2416  -20.1088  -14.2162 N   0  0  0  0  0  0  0  0  0  0  0  0
   26.9769  -20.9268  -15.6810 C   0  0  0  0  0  0  0  0  0  0  0  0
   26.2226  -21.9591  -15.7214 O   0  0  0  0  0  0  0  0  0  0  0  0
   26.3916  -19.1596  -11.5421 C   0  0  0  0  0  0  0  0  0  0  0  0
   25.6491  -19.2345  -10.3576 C   0  0  0  0  0  0  0  0  0  0  0  0
   28.0454  -20.8550  -16.5738 N   0  0  0  0  0  0  0  0  0  0  0  0
   29.2314  -19.9990  -16.6115 C   0  0  0  0  0  0  0  0  0  0  0  0
   29.6099  -19.8889  -18.0741 C   0  0  0  0  0  0  0  0  0  0  0  0
   28.5250  -20.6541  -18.7868 C   0  0  0  0  0  0  0  0  0  0  0  0
   28.1703  -21.7109  -17.7657 C   0  0  1  0  0  0  0  0  0  0  0  0
   29.2527  -22.6675  -17.5012 C   0  0  0  0  0  0  0  0  0  0  0  0
   29.6161  -23.7258  -18.3189 O   0  0  0  0  0  0  0  0  0  0  0  0
   29.9218  -22.5204  -16.4306 O   0  0  0  0  0  0  0  0  0  0  0  0
  2  1  1  6
  3  2  1  0
  4  5  2  0
  4  3  1  0
  6  5  1  0
  7 12  2  0
  7  6  1  0
  8  7  1  0
  9 10  1  0
  9  8  2  0
 10 11  2  0
 11 12  1  0
 12  4  1  0
 13 14  2  0
 13  2  1  0
 16 17  2  0
 16 15  1  0
 18 17  1  0
 19 18  2  0
 20 19  1  0
 21 20  1  1
 21 22  1  0
 22 13  1  0
 23 24  2  0
 23 21  1  0
 25 19  1  0
 25 26  2  0
 26 16  1  0
 27 23  1  0
 28 29  1  0
 28 27  1  0
 30 31  1  0
 30 29  1  0
 31 27  1  0
 31 32  1  1
 32 33  1  0
 34 32  2  0
M  END
$$$$
