WYP.pdb
     RDKit          3D

 34 37  0  0  1  0  0  0  0  0999 V2000
   16.7489  -18.8687    2.0812 N   0  0  0  0  0  0  0  0  0  0  0  0
   17.9846  -18.6761    2.7998 C   0  0  1  0  0  0  0  0  0  0  0  0
   18.8116  -17.6123    2.1135 C   0  0  0  0  0  0  0  0  0  0  0  0
   19.5864  -18.2398    1.0162 C   0  0  0  0  0  0  0  0  0  0  0  0
   19.1443  -19.1353    0.0559 C   0  0  0  0  0  0  0  0  0  0  0  0
   20.1704  -19.4553   -0.7506 N   0  0  0  0  0  0  0  0  0  0  0  0
   21.2835  -18.8109   -0.3707 C   0  0  0  0  0  0  0  0  0  0  0  0
   22.5725  -18.8061   -0.8693 C   0  0  0  0  0  0  0  0  0  0  0  0
   23.5089  -18.0152   -0.2350 C   0  0  0  0  0  0  0  0  0  0  0  0
   23.1558  -17.2521    0.8690 C   0  0  0  0  0  0  0  0  0  0  0  0
   21.8800  -17.2611    1.3572 C   0  0  0  0  0  0  0  0  0  0  0  0
   20.9292  -18.0497    0.7313 C   0  0  0  0  0  0  0  0  0  0  0  0
   17.7426  -18.3329    4.2256 C   0  0  0  0  0  0  0  0  0  0  0  0
   17.1913  -17.2557    4.5634 O   0  0  0  0  0  0  0  0  0  0  0  0
   11.6678  -18.3295    6.0036 O   0  0  0  0  0  0  0  0  0  0  0  0
   12.9701  -18.6915    6.3297 C   0  0  0  0  0  0  0  0  0  0  0  0
   13.6888  -17.9937    7.2790 C   0  0  0  0  0  0  0  0  0  0  0  0
   14.9992  -18.3591    7.6062 C   0  0  0  0  0  0  0  0  0  0  0  0
   15.5907  -19.4213    6.9851 C   0  0  0  0  0  0  0  0  0  0  0  0
   16.9761  -19.8586    7.2866 C   0  0  0  0  0  0  0  0  0  0  0  0
   17.9928  -18.8884    6.6750 C   0  0  2  0  0  0  0  0  0  0  0  0
   18.1315  -19.2209    5.2504 N   0  0  0  0  0  0  0  0  0  0  0  0
   19.2791  -19.1420    7.3724 C   0  0  0  0  0  0  0  0  0  0  0  0
   20.1156  -19.8883    6.7563 O   0  0  0  0  0  0  0  0  0  0  0  0
   14.8755  -20.1166    6.0398 C   0  0  0  0  0  0  0  0  0  0  0  0
   13.5641  -19.7562    5.7077 C   0  0  0  0  0  0  0  0  0  0  0  0
   19.6394  -18.6383    8.6215 N   0  0  0  0  0  0  0  0  0  0  0  0
   18.9019  -17.8446    9.6048 C   0  0  0  0  0  0  0  0  0  0  0  0
   19.9493  -17.0507   10.3579 C   0  0  0  0  0  0  0  0  0  0  0  0
   21.2399  -17.4085    9.6674 C   0  0  0  0  0  0  0  0  0  0  0  0
   20.9698  -18.8282    9.2238 C   0  0  1  0  0  0  0  0  0  0  0  0
   20.8119  -19.7768   10.3338 C   0  0  0  0  0  0  0  0  0  0  0  0
   19.6133  -20.3138   10.7762 O   0  0  0  0  0  0  0  0  0  0  0  0
   21.8614  -20.1446   10.9495 O   0  0  0  0  0  0  0  0  0  0  0  0
  2  1  1  6
  3  2  1  0
  4  5  2  0
  4  3  1  0
  6  5  1  0
  7 12  2  0
  7  6  1  0
  8  7  1  0
  9 10  1  0
  9  8  2  0
 10 11  2  0
 11 12  1  0
 12  4  1  0
 13 14  2  0
 13  2  1  0
 16 17  2  0
 16 15  1  0
 18 17  1  0
 19 18  2  0
 20 19  1  0
 21 20  1  1
 21 22  1  0
 22 13  1  0
 23 24  2  0
 23 21  1  0
 25 19  1  0
 25 26  2  0
 26 16  1  0
 27 23  1  0
 28 29  1  0
 28 27  1  0
 30 31  1  0
 30 29  1  0
 31 27  1  0
 31 32  1  1
 32 33  1  0
 34 32  2  0
M  END
$$$$
