WYP.pdb
     RDKit          3D

 34 37  0  0  1  0  0  0  0  0999 V2000
   28.2788  -20.3069  -11.6129 N   0  0  0  0  0  0  0  0  0  0  0  0
   27.2401  -21.2533  -11.9384 C   0  0  1  0  0  0  0  0  0  0  0  0
   26.8816  -22.0577  -10.7093 C   0  0  0  0  0  0  0  0  0  0  0  0
   26.7026  -21.1322   -9.5649 C   0  0  0  0  0  0  0  0  0  0  0  0
   25.5834  -20.3877   -9.2295 C   0  0  0  0  0  0  0  0  0  0  0  0
   25.8442  -19.6808   -8.1169 N   0  0  0  0  0  0  0  0  0  0  0  0
   27.0934  -19.9206   -7.6917 C   0  0  0  0  0  0  0  0  0  0  0  0
   27.8173  -19.4455   -6.6146 C   0  0  0  0  0  0  0  0  0  0  0  0
   29.1105  -19.8997   -6.4528 C   0  0  0  0  0  0  0  0  0  0  0  0
   29.6570  -20.8059   -7.3506 C   0  0  0  0  0  0  0  0  0  0  0  0
   28.9363  -21.2718   -8.4135 C   0  0  0  0  0  0  0  0  0  0  0  0
   27.6372  -20.8252   -8.5890 C   0  0  0  0  0  0  0  0  0  0  0  0
   26.0438  -20.5805  -12.5090 C   0  0  0  0  0  0  0  0  0  0  0  0
   25.5193  -19.5812  -11.9570 O   0  0  0  0  0  0  0  0  0  0  0  0
   19.8308  -18.2748  -18.3457 O   0  0  0  0  0  0  0  0  0  0  0  0
   20.9495  -18.8134  -17.7197 C   0  0  0  0  0  0  0  0  0  0  0  0
   21.9056  -18.0018  -17.1436 C   0  0  0  0  0  0  0  0  0  0  0  0
   23.0307  -18.5451  -16.5139 C   0  0  0  0  0  0  0  0  0  0  0  0
   23.2001  -19.8988  -16.4601 C   0  0  0  0  0  0  0  0  0  0  0  0
   24.3704  -20.5366  -15.8082 C   0  0  0  0  0  0  0  0  0  0  0  0
   24.2531  -20.4466  -14.2826 C   0  0  2  0  0  0  0  0  0  0  0  0
   25.4585  -21.0539  -13.7020 N   0  0  0  0  0  0  0  0  0  0  0  0
   23.0620  -21.2515  -13.9104 C   0  0  0  0  0  0  0  0  0  0  0  0
   23.2422  -22.5148  -13.8205 O   0  0  0  0  0  0  0  0  0  0  0  0
   22.2485  -20.7075  -17.0336 C   0  0  0  0  0  0  0  0  0  0  0  0
   21.1203  -20.1703  -17.6652 C   0  0  0  0  0  0  0  0  0  0  0  0
   21.7877  -20.7469  -13.6546 N   0  0  0  0  0  0  0  0  0  0  0  0
   21.2286  -19.3998  -13.7710 C   0  0  0  0  0  0  0  0  0  0  0  0
   20.1132  -19.3303  -12.7486 C   0  0  0  0  0  0  0  0  0  0  0  0
   20.1782  -20.6645  -12.0512 C   0  0  0  0  0  0  0  0  0  0  0  0
   20.6705  -21.5683  -13.1586 C   0  0  1  0  0  0  0  0  0  0  0  0
   19.7191  -21.7211  -14.2668 C   0  0  0  0  0  0  0  0  0  0  0  0
   19.9005  -21.2571  -15.5600 O   0  0  0  0  0  0  0  0  0  0  0  0
   18.6299  -22.3320  -14.0295 O   0  0  0  0  0  0  0  0  0  0  0  0
  2  1  1  1
  3  2  1  0
  4  5  2  0
  4  3  1  0
  6  5  1  0
  7 12  2  0
  7  6  1  0
  8  7  1  0
  9 10  1  0
  9  8  2  0
 10 11  2  0
 11 12  1  0
 12  4  1  0
 13 14  2  0
 13  2  1  0
 16 17  2  0
 16 15  1  0
 18 17  1  0
 19 18  2  0
 20 19  1  0
 21 20  1  6
 21 22  1  0
 22 13  1  0
 23 24  2  0
 23 21  1  0
 25 19  1  0
 25 26  2  0
 26 16  1  0
 27 23  1  0
 28 29  1  0
 28 27  1  0
 30 31  1  0
 30 29  1  0
 31 27  1  0
 31 32  1  6
 32 33  1  0
 34 32  2  0
M  END
$$$$
