WYP.pdb
     RDKit          3D

 34 37  0  0  1  0  0  0  0  0999 V2000
   25.6885  -17.4652  -17.2989 N   0  0  0  0  0  0  0  0  0  0  0  0
   26.1278  -17.0701  -15.9830 C   0  0  1  0  0  0  0  0  0  0  0  0
   26.1833  -15.5615  -15.8969 C   0  0  0  0  0  0  0  0  0  0  0  0
   27.0631  -15.0510  -16.9755 C   0  0  0  0  0  0  0  0  0  0  0  0
   26.8336  -13.9962  -17.8438 C   0  0  0  0  0  0  0  0  0  0  0  0
   27.8877  -13.8687  -18.6674 N   0  0  0  0  0  0  0  0  0  0  0  0
   28.8158  -14.7954  -18.3871 C   0  0  0  0  0  0  0  0  0  0  0  0
   30.0518  -15.0721  -18.9402 C   0  0  0  0  0  0  0  0  0  0  0  0
   30.7786  -16.1188  -18.4100 C   0  0  0  0  0  0  0  0  0  0  0  0
   30.2738  -16.8639  -17.3536 C   0  0  0  0  0  0  0  0  0  0  0  0
   29.0514  -16.5855  -16.8112 C   0  0  0  0  0  0  0  0  0  0  0  0
   28.3103  -15.5382  -17.3325 C   0  0  0  0  0  0  0  0  0  0  0  0
   25.2574  -17.6380  -14.9203 C   0  0  0  0  0  0  0  0  0  0  0  0
   25.0231  -17.0170  -13.8536 O   0  0  0  0  0  0  0  0  0  0  0  0
   18.5798  -16.2624  -15.0148 O   0  0  0  0  0  0  0  0  0  0  0  0
   19.5829  -17.2219  -14.9337 C   0  0  0  0  0  0  0  0  0  0  0  0
   20.3442  -17.5541  -16.0358 C   0  0  0  0  0  0  0  0  0  0  0  0
   21.3533  -18.5198  -15.9527 C   0  0  0  0  0  0  0  0  0  0  0  0
   21.6012  -19.1531  -14.7688 C   0  0  0  0  0  0  0  0  0  0  0  0
   22.6555  -20.1856  -14.6156 C   0  0  0  0  0  0  0  0  0  0  0  0
   23.9229  -19.5757  -14.0065 C   0  0  2  0  0  0  0  0  0  0  0  0
   24.6637  -18.9070  -15.0850 N   0  0  0  0  0  0  0  0  0  0  0  0
   24.7218  -20.7142  -13.4860 C   0  0  0  0  0  0  0  0  0  0  0  0
   25.5800  -21.2144  -14.2920 O   0  0  0  0  0  0  0  0  0  0  0  0
   20.8434  -18.8228  -13.6711 C   0  0  0  0  0  0  0  0  0  0  0  0
   19.8322  -17.8574  -13.7474 C   0  0  0  0  0  0  0  0  0  0  0  0
   24.6123  -21.2683  -12.2113 N   0  0  0  0  0  0  0  0  0  0  0  0
   23.7042  -20.9884  -11.0989 C   0  0  0  0  0  0  0  0  0  0  0  0
   24.4701  -21.3535   -9.8441 C   0  0  0  0  0  0  0  0  0  0  0  0
   25.8305  -21.7531  -10.3542 C   0  0  0  0  0  0  0  0  0  0  0  0
   25.4941  -22.3351  -11.7082 C   0  0  1  0  0  0  0  0  0  0  0  0
   24.6937  -23.5648  -11.6432 C   0  0  0  0  0  0  0  0  0  0  0  0
   25.1915  -24.8474  -11.4769 O   0  0  0  0  0  0  0  0  0  0  0  0
   23.4318  -23.4536  -11.7473 O   0  0  0  0  0  0  0  0  0  0  0  0
  2  1  1  6
  3  2  1  0
  4  5  2  0
  4  3  1  0
  6  5  1  0
  7 12  2  0
  7  6  1  0
  8  7  1  0
  9 10  1  0
  9  8  2  0
 10 11  2  0
 11 12  1  0
 12  4  1  0
 13 14  2  0
 13  2  1  0
 16 17  2  0
 16 15  1  0
 18 17  1  0
 19 18  2  0
 20 19  1  0
 21 20  1  6
 21 22  1  0
 22 13  1  0
 23 24  2  0
 23 21  1  0
 25 19  1  0
 25 26  2  0
 26 16  1  0
 27 23  1  0
 28 29  1  0
 28 27  1  0
 30 31  1  0
 30 29  1  0
 31 27  1  0
 31 32  1  1
 32 33  1  0
 34 32  2  0
M  END
$$$$
