WYP.pdb
     RDKit          3D

 34 37  0  0  1  0  0  0  0  0999 V2000
   25.7808  -19.6552  -14.4943 N   0  0  0  0  0  0  0  0  0  0  0  0
   26.9165  -19.7902  -13.6153 C   0  0  1  0  0  0  0  0  0  0  0  0
   28.0313  -18.8812  -14.0814 C   0  0  0  0  0  0  0  0  0  0  0  0
   28.3927  -19.2395  -15.4739 C   0  0  0  0  0  0  0  0  0  0  0  0
   28.3869  -18.4297  -16.5980 C   0  0  0  0  0  0  0  0  0  0  0  0
   28.7838  -19.1510  -17.6601 N   0  0  0  0  0  0  0  0  0  0  0  0
   29.0557  -20.4124  -17.2946 C   0  0  0  0  0  0  0  0  0  0  0  0
   29.4893  -21.5149  -18.0063 C   0  0  0  0  0  0  0  0  0  0  0  0
   29.6784  -22.6962  -17.3181 C   0  0  0  0  0  0  0  0  0  0  0  0
   29.4373  -22.7634  -15.9531 C   0  0  0  0  0  0  0  0  0  0  0  0
   29.0088  -21.6700  -15.2552 C   0  0  0  0  0  0  0  0  0  0  0  0
   28.8146  -20.4775  -15.9319 C   0  0  0  0  0  0  0  0  0  0  0  0
   26.5520  -19.5131  -12.2012 C   0  0  0  0  0  0  0  0  0  0  0  0
   26.0371  -18.4218  -11.8514 O   0  0  0  0  0  0  0  0  0  0  0  0
   20.3794  -20.0674  -12.0892 O   0  0  0  0  0  0  0  0  0  0  0  0
   21.5819  -20.3982  -11.4743 C   0  0  0  0  0  0  0  0  0  0  0  0
   22.4764  -21.2618  -12.0732 C   0  0  0  0  0  0  0  0  0  0  0  0
   23.6861  -21.5937  -11.4533 C   0  0  0  0  0  0  0  0  0  0  0  0
   24.0014  -21.0627  -10.2356 C   0  0  0  0  0  0  0  0  0  0  0  0
   25.2666  -21.3750   -9.5265 C   0  0  0  0  0  0  0  0  0  0  0  0
   26.3249  -20.3046   -9.8153 C   0  0  2  0  0  0  0  0  0  0  0  0
   26.7783  -20.4825  -11.2016 N   0  0  0  0  0  0  0  0  0  0  0  0
   27.4510  -20.5737   -8.8854 C   0  0  0  0  0  0  0  0  0  0  0  0
   28.3683  -21.3509   -9.3225 O   0  0  0  0  0  0  0  0  0  0  0  0
   23.1111  -20.2027   -9.6389 C   0  0  0  0  0  0  0  0  0  0  0  0
   21.8990  -19.8665  -10.2537 C   0  0  0  0  0  0  0  0  0  0  0  0
   27.5844  -20.0539   -7.5986 N   0  0  0  0  0  0  0  0  0  0  0  0
   26.7049  -19.2093   -6.7899 C   0  0  0  0  0  0  0  0  0  0  0  0
   27.6196  -18.4375   -5.8614 C   0  0  0  0  0  0  0  0  0  0  0  0
   29.0031  -18.8605   -6.2829 C   0  0  0  0  0  0  0  0  0  0  0  0
   28.7645  -20.2793   -6.7470 C   0  0  1  0  0  0  0  0  0  0  0  0
   28.3561  -21.1941   -5.6731 C   0  0  0  0  0  0  0  0  0  0  0  0
   29.1892  -21.7264   -4.7019 O   0  0  0  0  0  0  0  0  0  0  0  0
   27.1322  -21.5335   -5.6207 O   0  0  0  0  0  0  0  0  0  0  0  0
  2  1  1  6
  3  2  1  0
  4  5  2  0
  4  3  1  0
  6  5  1  0
  7 12  2  0
  7  6  1  0
  8  7  1  0
  9 10  1  0
  9  8  2  0
 10 11  2  0
 11 12  1  0
 12  4  1  0
 13 14  2  0
 13  2  1  0
 16 17  2  0
 16 15  1  0
 18 17  1  0
 19 18  2  0
 20 19  1  0
 21 20  1  1
 21 22  1  0
 22 13  1  0
 23 24  2  0
 23 21  1  0
 25 19  1  0
 25 26  2  0
 26 16  1  0
 27 23  1  0
 28 29  1  0
 28 27  1  0
 30 31  1  0
 30 29  1  0
 31 27  1  0
 31 32  1  1
 32 33  1  0
 34 32  2  0
M  END
$$$$
