RML.pdb
     RDKit          3D

 28 27  0  0  1  0  0  0  0  0999 V2000
    8.8501  -20.2131   16.6673 N   0  0  0  0  0  0  0  0  0  0  0  0
    9.6715  -19.3771   15.8752 C   0  0  0  0  0  0  0  0  0  0  0  0
   10.2348  -19.7678   14.7904 N   0  0  0  0  0  0  0  0  0  0  0  0
    9.8832  -18.0198   16.3126 N   0  0  0  0  0  0  0  0  0  0  0  0
   10.1831  -17.7230   17.6851 C   0  0  0  0  0  0  0  0  0  0  0  0
    8.8479  -17.6145   18.4240 C   0  0  0  0  0  0  0  0  0  0  0  0
    8.9086  -16.5105   19.4808 C   0  0  0  0  0  0  0  0  0  0  0  0
    9.3656  -17.1841   20.7589 C   0  0  2  0  0  0  0  0  0  0  0  0
    8.5695  -18.3620   21.0423 N   0  0  0  0  0  0  0  0  0  0  0  0
    9.2163  -16.2664   21.9322 C   0  0  0  0  0  0  0  0  0  0  0  0
    9.7238  -15.1101   21.9361 O   0  0  0  0  0  0  0  0  0  0  0  0
   10.8438  -19.1401   14.2487 C   0  0  0  0  0  0  0  0  0  0  0  0
    7.0005  -11.6816   25.0740 S   0  0  0  0  0  0  0  0  0  0  0  0
    6.3302  -13.2343   25.7393 C   0  0  0  0  0  0  0  0  0  0  0  0
    6.1606  -14.4557   24.4180 C   0  0  0  0  0  0  0  0  0  0  0  0
    6.9594  -15.6629   24.6465 C   0  0  2  0  0  0  0  0  0  0  0  0
    8.3948  -15.7026   24.2526 N   0  0  0  0  0  0  0  0  0  0  0  0
    8.4987  -16.6553   23.0901 C   0  0  0  0  0  0  0  0  0  0  0  0
    9.3607  -16.2246   25.2198 O   0  0  0  0  0  0  0  0  0  0  0  0
   10.1037  -17.2432   24.9532 C   0  0  0  0  0  0  0  0  0  0  0  0
    9.5368  -13.6605   28.0676 C   0  0  2  0  0  0  0  0  0  0  0  0
   10.7940  -14.2177   28.7905 C   0  0  0  0  0  0  0  0  0  0  0  0
   10.7190  -13.7228   30.2382 C   0  0  0  0  0  0  0  0  0  0  0  0
   10.7102  -15.6970   28.7684 C   0  0  2  0  0  0  0  0  0  0  0  0
   10.5364  -16.3345   27.4142 N   0  0  0  0  0  0  0  0  0  0  0  0
    9.6146  -15.6928   26.5357 C   0  0  0  0  0  0  0  0  0  0  0  0
   10.2042  -17.7460   27.6560 O   0  0  0  0  0  0  0  0  0  0  0  0
   10.9231  -18.5663   28.2409 O   0  0  0  0  0  0  0  0  0  0  0  0
  1  2  1  0
  2  3  2  0
  4  2  1  0
  4  5  1  0
  6  5  1  0
  7  6  1  0
  8  7  1  0
  8  9  1  1
 10  8  1  0
 10 11  2  0
 12 13  1  0
 14 13  1  0
 15 14  1  0
 16 17  1  0
 16 15  1  6
 17 10  1  0
 18 16  1  0
 19 18  2  0
 21 20  1  6
 21 22  1  0
 23 21  1  0
 24 23  1  6
 24 25  1  0
 25 18  1  0
 26 24  1  0
 26 28  1  0
 27 26  2  0
M  END
$$$$
