RML.pdb
     RDKit          3D

 28 27  0  0  1  0  0  0  0  0999 V2000
    8.5608  -19.0157   17.5040 N   0  0  0  0  0  0  0  0  0  0  0  0
    7.6979  -18.2368   16.6981 C   0  0  0  0  0  0  0  0  0  0  0  0
    7.3431  -18.5782   15.5131 N   0  0  0  0  0  0  0  0  0  0  0  0
    7.1950  -16.9988   17.2393 N   0  0  0  0  0  0  0  0  0  0  0  0
    7.3572  -16.6790   18.6297 C   0  0  0  0  0  0  0  0  0  0  0  0
    7.9664  -17.9087   19.3059 C   0  0  0  0  0  0  0  0  0  0  0  0
    9.3015  -17.5531   19.9619 C   0  0  0  0  0  0  0  0  0  0  0  0
    9.1176  -17.8113   21.4437 C   0  0  2  0  0  0  0  0  0  0  0  0
    7.7383  -18.1354   21.7505 N   0  0  0  0  0  0  0  0  0  0  0  0
    9.4676  -16.5976   22.2473 C   0  0  0  0  0  0  0  0  0  0  0  0
   10.5767  -16.0101   22.1088 O   0  0  0  0  0  0  0  0  0  0  0  0
    6.7170  -17.9859   14.9514 C   0  0  0  0  0  0  0  0  0  0  0  0
    5.7366  -11.3931   24.8694 S   0  0  0  0  0  0  0  0  0  0  0  0
    6.2498  -12.5900   26.1372 C   0  0  0  0  0  0  0  0  0  0  0  0
    7.8518  -13.3061   25.7048 C   0  0  0  0  0  0  0  0  0  0  0  0
    7.7644  -14.3038   24.6349 C   0  0  1  0  0  0  0  0  0  0  0  0
    9.0011  -14.8839   24.0425 N   0  0  0  0  0  0  0  0  0  0  0  0
    8.5692  -16.0550   23.1989 C   0  0  0  0  0  0  0  0  0  0  0  0
    9.9975  -15.4548   24.9493 O   0  0  0  0  0  0  0  0  0  0  0  0
   11.2518  -15.1811   24.8368 C   0  0  0  0  0  0  0  0  0  0  0  0
    9.7396  -14.4237   29.8840 C   0  0  1  0  0  0  0  0  0  0  0  0
   10.1255  -14.7120   28.4069 C   0  0  0  0  0  0  0  0  0  0  0  0
   11.2310  -13.7160   28.0432 C   0  0  0  0  0  0  0  0  0  0  0  0
   10.6615  -16.0920   28.3404 C   0  0  2  0  0  0  0  0  0  0  0  0
   10.7624  -16.7022   26.9664 N   0  0  0  0  0  0  0  0  0  0  0  0
    9.7299  -16.3483   26.0488 C   0  0  0  0  0  0  0  0  0  0  0  0
   10.8776  -18.1548   27.1614 O   0  0  0  0  0  0  0  0  0  0  0  0
   11.7651  -18.7278   27.8062 O   0  0  0  0  0  0  0  0  0  0  0  0
  1  2  1  0
  2  3  2  0
  4  2  1  0
  4  5  1  0
  6  5  1  0
  7  6  1  0
  8  7  1  0
  8  9  1  6
 10  8  1  0
 10 11  2  0
 12 13  1  0
 14 13  1  0
 15 14  1  0
 16 17  1  0
 16 15  1  6
 17 10  1  0
 18 16  1  0
 19 18  2  0
 21 20  1  6
 21 22  1  0
 23 21  1  0
 24 23  1  6
 24 25  1  0
 25 18  1  0
 26 24  1  0
 26 28  1  0
 27 26  2  0
M  END
$$$$
