RML.pdb
     RDKit          3D

 28 27  0  0  1  0  0  0  0  0999 V2000
    9.3955  -13.0784   17.9982 N   0  0  0  0  0  0  0  0  0  0  0  0
    8.9320  -13.6821   16.8060 C   0  0  0  0  0  0  0  0  0  0  0  0
    9.2715  -13.2801   15.6355 N   0  0  0  0  0  0  0  0  0  0  0  0
    8.0336  -14.8042   16.9165 N   0  0  0  0  0  0  0  0  0  0  0  0
    7.1535  -14.9393   18.0431 C   0  0  0  0  0  0  0  0  0  0  0  0
    8.0037  -15.4120   19.2239 C   0  0  0  0  0  0  0  0  0  0  0  0
    7.3745  -16.6429   19.8782 C   0  0  0  0  0  0  0  0  0  0  0  0
    8.2883  -17.0142   21.0285 C   0  0  2  0  0  0  0  0  0  0  0  0
    7.8085  -18.1964   21.7166 N   0  0  0  0  0  0  0  0  0  0  0  0
    8.3473  -15.9150   22.0432 C   0  0  0  0  0  0  0  0  0  0  0  0
    8.7796  -14.7657   21.7488 O   0  0  0  0  0  0  0  0  0  0  0  0
    8.9759  -13.7864   14.7902 C   0  0  0  0  0  0  0  0  0  0  0  0
    6.3650  -11.1901   27.0493 S   0  0  0  0  0  0  0  0  0  0  0  0
    6.6171  -12.2942   25.6279 C   0  0  0  0  0  0  0  0  0  0  0  0
    6.3449  -14.0123   26.1184 C   0  0  0  0  0  0  0  0  0  0  0  0
    6.6190  -14.9669   25.0408 C   0  0  1  0  0  0  0  0  0  0  0  0
    7.9350  -14.9598   24.3442 N   0  0  0  0  0  0  0  0  0  0  0  0
    7.9204  -16.1164   23.3790 C   0  0  0  0  0  0  0  0  0  0  0  0
    9.1392  -15.1867   25.1437 O   0  0  0  0  0  0  0  0  0  0  0  0
    9.9143  -14.2177   25.4915 C   0  0  0  0  0  0  0  0  0  0  0  0
    9.2500  -14.4481   29.5944 C   0  0  1  0  0  0  0  0  0  0  0  0
    9.6492  -14.6960   28.1135 C   0  0  0  0  0  0  0  0  0  0  0  0
   10.7379  -13.6718   27.7786 C   0  0  0  0  0  0  0  0  0  0  0  0
   10.2110  -16.0640   28.0192 C   0  0  2  0  0  0  0  0  0  0  0  0
   10.6124  -16.5261   26.6424 N   0  0  0  0  0  0  0  0  0  0  0  0
    9.5991  -16.4595   25.6413 C   0  0  0  0  0  0  0  0  0  0  0  0
   11.1686  -17.8777   26.8006 O   0  0  0  0  0  0  0  0  0  0  0  0
   12.0960  -18.1921   27.5574 O   0  0  0  0  0  0  0  0  0  0  0  0
  1  2  1  0
  2  3  2  0
  4  2  1  0
  4  5  1  0
  6  5  1  0
  7  6  1  0
  8  7  1  0
  8  9  1  1
 10  8  1  0
 10 11  2  0
 12 13  1  0
 14 13  1  0
 15 14  1  0
 16 17  1  0
 16 15  1  6
 17 10  1  0
 18 16  1  0
 19 18  2  0
 21 20  1  6
 21 22  1  0
 23 21  1  0
 24 23  1  6
 24 25  1  0
 25 18  1  0
 26 24  1  0
 26 28  1  0
 27 26  2  0
M  END
$$$$
