RML.pdb
     RDKit          3D

 28 27  0  0  1  0  0  0  0  0999 V2000
    8.7535  -15.9092   15.9937 N   0  0  0  0  0  0  0  0  0  0  0  0
    8.6051  -14.7827   15.1512 C   0  0  0  0  0  0  0  0  0  0  0  0
    8.9122  -14.7906   13.9053 N   0  0  0  0  0  0  0  0  0  0  0  0
    8.0828  -13.5679   15.7256 N   0  0  0  0  0  0  0  0  0  0  0  0
    8.4138  -13.1824   17.0686 C   0  0  0  0  0  0  0  0  0  0  0  0
    7.6353  -14.1067   18.0067 C   0  0  0  0  0  0  0  0  0  0  0  0
    7.7268  -13.6064   19.4491 C   0  0  0  0  0  0  0  0  0  0  0  0
    8.6930  -14.5390   20.1512 C   0  0  2  0  0  0  0  0  0  0  0  0
    8.2729  -15.9205   20.0223 N   0  0  0  0  0  0  0  0  0  0  0  0
    8.7583  -14.2399   21.6167 C   0  0  0  0  0  0  0  0  0  0  0  0
    9.0234  -13.0816   22.0440 O   0  0  0  0  0  0  0  0  0  0  0  0
    8.8083  -13.9480   13.3242 C   0  0  0  0  0  0  0  0  0  0  0  0
    6.6844  -12.4831   27.4532 S   0  0  0  0  0  0  0  0  0  0  0  0
    6.2376  -12.9120   25.7446 C   0  0  0  0  0  0  0  0  0  0  0  0
    6.2072  -14.7076   25.5413 C   0  0  0  0  0  0  0  0  0  0  0  0
    6.8349  -15.1546   24.2948 C   0  0  2  0  0  0  0  0  0  0  0  0
    8.2650  -14.8457   24.0181 N   0  0  0  0  0  0  0  0  0  0  0  0
    8.5255  -15.2440   22.5887 C   0  0  0  0  0  0  0  0  0  0  0  0
    9.2858  -15.5714   24.7747 O   0  0  0  0  0  0  0  0  0  0  0  0
    9.7853  -16.6800   24.3480 C   0  0  0  0  0  0  0  0  0  0  0  0
   11.2400  -14.1032   30.0418 C   0  0  2  0  0  0  0  0  0  0  0  0
   10.4477  -14.6126   28.8063 C   0  0  0  0  0  0  0  0  0  0  0  0
   10.0394  -13.3704   28.0083 C   0  0  0  0  0  0  0  0  0  0  0  0
   11.3650  -15.4442   27.9920 C   0  0  1  0  0  0  0  0  0  0  0  0
   10.8026  -15.9930   26.7064 N   0  0  0  0  0  0  0  0  0  0  0  0
    9.8575  -15.1635   26.0339 C   0  0  0  0  0  0  0  0  0  0  0  0
   10.2689  -17.3267   27.0191 O   0  0  0  0  0  0  0  0  0  0  0  0
    9.0879  -17.6770   26.9002 O   0  0  0  0  0  0  0  0  0  0  0  0
  1  2  1  0
  2  3  2  0
  4  2  1  0
  4  5  1  0
  6  5  1  0
  7  6  1  0
  8  7  1  0
  8  9  1  1
 10  8  1  0
 10 11  2  0
 12 13  1  0
 14 13  1  0
 15 14  1  0
 16 17  1  0
 16 15  1  6
 17 10  1  0
 18 16  1  0
 19 18  2  0
 21 20  1  1
 21 22  1  0
 23 21  1  0
 24 23  1  6
 24 25  1  0
 25 18  1  0
 26 24  1  0
 26 28  1  0
 27 26  2  0
M  END
$$$$
