RML.pdb
     RDKit          3D

 28 27  0  0  1  0  0  0  0  0999 V2000
    8.6131  -17.7389   16.4907 N   0  0  0  0  0  0  0  0  0  0  0  0
    7.4416  -18.5223   16.6124 C   0  0  0  0  0  0  0  0  0  0  0  0
    6.4054  -18.3581   15.8734 N   0  0  0  0  0  0  0  0  0  0  0  0
    7.4153  -19.5549   17.6180 N   0  0  0  0  0  0  0  0  0  0  0  0
    8.3428  -19.5441   18.7142 C   0  0  0  0  0  0  0  0  0  0  0  0
    7.9888  -18.3415   19.5911 C   0  0  0  0  0  0  0  0  0  0  0  0
    9.2131  -17.8751   20.3802 C   0  0  0  0  0  0  0  0  0  0  0  0
    8.7559  -17.7492   21.8194 C   0  0  2  0  0  0  0  0  0  0  0  0
    7.3136  -17.6283   21.9009 N   0  0  0  0  0  0  0  0  0  0  0  0
    9.3313  -16.5246   22.4601 C   0  0  0  0  0  0  0  0  0  0  0  0
   10.5161  -16.1529   22.2307 O   0  0  0  0  0  0  0  0  0  0  0  0
    5.5484  -18.9064   16.0255 C   0  0  0  0  0  0  0  0  0  0  0  0
    6.5149  -11.1617   25.4533 S   0  0  0  0  0  0  0  0  0  0  0  0
    6.2041  -12.8032   26.1687 C   0  0  0  0  0  0  0  0  0  0  0  0
    6.9521  -14.0840   25.1359 C   0  0  0  0  0  0  0  0  0  0  0  0
    8.0873  -13.5955   24.3482 C   0  0  1  0  0  0  0  0  0  0  0  0
    9.2009  -14.5135   23.9817 N   0  0  0  0  0  0  0  0  0  0  0  0
    8.5712  -15.7287   23.3522 C   0  0  0  0  0  0  0  0  0  0  0  0
   10.0230  -15.0644   25.0595 O   0  0  0  0  0  0  0  0  0  0  0  0
   11.0041  -14.4024   25.5694 C   0  0  0  0  0  0  0  0  0  0  0  0
   10.6619  -13.8768   27.5903 C   0  0  2  0  0  0  0  0  0  0  0  0
   11.0005  -15.0203   28.5861 C   0  0  0  0  0  0  0  0  0  0  0  0
   10.4387  -14.5942   29.9460 C   0  0  0  0  0  0  0  0  0  0  0  0
   10.3034  -16.2437   28.1242 C   0  0  2  0  0  0  0  0  0  0  0  0
   10.6911  -16.7573   26.7617 N   0  0  0  0  0  0  0  0  0  0  0  0
    9.8529  -16.3543   25.6808 C   0  0  0  0  0  0  0  0  0  0  0  0
   10.8026  -18.2183   26.8818 O   0  0  0  0  0  0  0  0  0  0  0  0
   11.5044  -18.8231   27.7023 O   0  0  0  0  0  0  0  0  0  0  0  0
  1  2  1  0
  2  3  2  0
  4  2  1  0
  4  5  1  0
  6  5  1  0
  7  6  1  0
  8  7  1  0
  8  9  1  6
 10  8  1  0
 10 11  2  0
 12 13  1  0
 14 13  1  0
 15 14  1  0
 16 17  1  0
 16 15  1  6
 17 10  1  0
 18 16  1  0
 19 18  2  0
 21 20  1  1
 21 22  1  0
 23 21  1  0
 24 23  1  6
 24 25  1  0
 25 18  1  0
 26 24  1  0
 26 28  1  0
 27 26  2  0
M  END
$$$$
