RML.pdb
     RDKit          3D

 28 27  0  0  1  0  0  0  0  0999 V2000
    2.4709  -20.0423   22.6032 N   0  0  0  0  0  0  0  0  0  0  0  0
    2.1453  -19.6693   21.2782 C   0  0  0  0  0  0  0  0  0  0  0  0
    1.0386  -19.1040   20.9580 N   0  0  0  0  0  0  0  0  0  0  0  0
    3.1078  -19.9398   20.2394 N   0  0  0  0  0  0  0  0  0  0  0  0
    4.3739  -20.5452   20.5433 C   0  0  0  0  0  0  0  0  0  0  0  0
    5.4436  -19.4672   20.3592 C   0  0  0  0  0  0  0  0  0  0  0  0
    6.8423  -20.0773   20.4628 C   0  0  0  0  0  0  0  0  0  0  0  0
    7.4384  -19.5332   21.7454 C   0  0  2  0  0  0  0  0  0  0  0  0
    6.4010  -19.1612   22.6872 N   0  0  0  0  0  0  0  0  0  0  0  0
    8.2470  -18.3013   21.4810 C   0  0  0  0  0  0  0  0  0  0  0  0
    9.2387  -18.3164   20.6995 O   0  0  0  0  0  0  0  0  0  0  0  0
    0.8053  -18.9041   19.9763 C   0  0  0  0  0  0  0  0  0  0  0  0
    6.3083  -13.4650   18.9468 S   0  0  0  0  0  0  0  0  0  0  0  0
    7.4654  -12.4718   19.9356 C   0  0  0  0  0  0  0  0  0  0  0  0
    8.6113  -13.5516   20.8230 C   0  0  0  0  0  0  0  0  0  0  0  0
    8.0388  -14.8643   21.1337 C   0  0  1  0  0  0  0  0  0  0  0  0
    8.8373  -15.8781   21.8766 N   0  0  0  0  0  0  0  0  0  0  0  0
    7.9346  -17.0641   22.0965 C   0  0  0  0  0  0  0  0  0  0  0  0
    9.3022  -15.5384   23.2218 O   0  0  0  0  0  0  0  0  0  0  0  0
   10.1140  -14.5597   23.4311 C   0  0  0  0  0  0  0  0  0  0  0  0
    8.8911  -12.5702   26.8847 C   0  0  2  0  0  0  0  0  0  0  0  0
    7.6570  -13.5123   26.8289 C   0  0  0  0  0  0  0  0  0  0  0  0
    6.4240  -12.6092   26.7252 C   0  0  0  0  0  0  0  0  0  0  0  0
    7.7716  -14.3358   25.6022 C   0  0  1  0  0  0  0  0  0  0  0  0
    8.7587  -15.4730   25.6529 N   0  0  0  0  0  0  0  0  0  0  0  0
    8.9273  -16.2079   24.4425 C   0  0  0  0  0  0  0  0  0  0  0  0
    8.3597  -16.3229   26.7842 O   0  0  0  0  0  0  0  0  0  0  0  0
    8.3115  -15.9703   27.9695 O   0  0  0  0  0  0  0  0  0  0  0  0
  1  2  1  0
  2  3  2  0
  4  2  1  0
  4  5  1  0
  6  5  1  0
  7  6  1  0
  8  7  1  0
  8  9  1  1
 10  8  1  0
 10 11  2  0
 12 13  1  0
 14 13  1  0
 15 14  1  0
 16 17  1  0
 16 15  1  6
 17 10  1  0
 18 16  1  0
 19 18  2  0
 21 20  1  1
 21 22  1  0
 23 21  1  0
 24 23  1  6
 24 25  1  0
 25 18  1  0
 26 24  1  0
 26 28  1  0
 27 26  2  0
M  END
$$$$
