RML.pdb
     RDKit          3D

 28 27  0  0  1  0  0  0  0  0999 V2000
    9.6303  -22.2057   20.7521 N   0  0  0  0  0  0  0  0  0  0  0  0
   10.4333  -22.1881   21.9164 C   0  0  0  0  0  0  0  0  0  0  0  0
   11.5526  -22.8091   22.0088 N   0  0  0  0  0  0  0  0  0  0  0  0
    9.9669  -21.4338   23.0531 N   0  0  0  0  0  0  0  0  0  0  0  0
    8.7096  -20.7412   23.0160 C   0  0  0  0  0  0  0  0  0  0  0  0
    8.9265  -19.4578   22.2119 C   0  0  0  0  0  0  0  0  0  0  0  0
    7.6354  -18.6404   22.1491 C   0  0  0  0  0  0  0  0  0  0  0  0
    7.9545  -17.4252   21.3019 C   0  0  2  0  0  0  0  0  0  0  0  0
    8.9006  -17.7527   20.2536 N   0  0  0  0  0  0  0  0  0  0  0  0
    8.5787  -16.3440   22.1281 C   0  0  0  0  0  0  0  0  0  0  0  0
    9.8205  -16.1176   22.0918 O   0  0  0  0  0  0  0  0  0  0  0  0
   12.0952  -22.8050   22.8827 C   0  0  0  0  0  0  0  0  0  0  0  0
    6.8296  -11.2411   26.3008 S   0  0  0  0  0  0  0  0  0  0  0  0
    6.4964  -12.9558   26.8028 C   0  0  0  0  0  0  0  0  0  0  0  0
    6.5140  -14.0418   25.3582 C   0  0  0  0  0  0  0  0  0  0  0  0
    7.3716  -13.5462   24.2782 C   0  0  1  0  0  0  0  0  0  0  0  0
    8.4648  -14.3976   23.7330 N   0  0  0  0  0  0  0  0  0  0  0  0
    7.8031  -15.5271   22.9873 C   0  0  0  0  0  0  0  0  0  0  0  0
    9.3488  -15.0754   24.6816 O   0  0  0  0  0  0  0  0  0  0  0  0
   10.5908  -14.7525   24.8001 C   0  0  0  0  0  0  0  0  0  0  0  0
    9.1601  -14.2182   29.5167 C   0  0  1  0  0  0  0  0  0  0  0  0
    9.7879  -14.5980   28.1473 C   0  0  0  0  0  0  0  0  0  0  0  0
   11.2739  -14.2361   28.2341 C   0  0  0  0  0  0  0  0  0  0  0  0
    9.6448  -16.0628   27.9746 C   0  0  2  0  0  0  0  0  0  0  0  0
    9.8763  -16.5957   26.5844 N   0  0  0  0  0  0  0  0  0  0  0  0
    8.9723  -16.1373   25.5814 C   0  0  0  0  0  0  0  0  0  0  0  0
    9.9056  -18.0612   26.6978 O   0  0  0  0  0  0  0  0  0  0  0  0
    9.1420  -18.8448   26.1194 O   0  0  0  0  0  0  0  0  0  0  0  0
  1  2  1  0
  2  3  2  0
  4  2  1  0
  4  5  1  0
  6  5  1  0
  7  6  1  0
  8  7  1  0
  8  9  1  6
 10  8  1  0
 10 11  2  0
 12 13  1  0
 14 13  1  0
 15 14  1  0
 16 17  1  0
 16 15  1  6
 17 10  1  0
 18 16  1  0
 19 18  2  0
 21 20  1  6
 21 22  1  0
 23 21  1  0
 24 23  1  6
 24 25  1  0
 25 18  1  0
 26 24  1  0
 26 28  1  0
 27 26  2  0
M  END
$$$$
