RML.pdb
     RDKit          3D

 28 27  0  0  1  0  0  0  0  0999 V2000
    8.1088  -13.1486   17.6629 N   0  0  0  0  0  0  0  0  0  0  0  0
    8.2488  -14.0472   16.5795 C   0  0  0  0  0  0  0  0  0  0  0  0
    8.7889  -13.7227   15.4615 N   0  0  0  0  0  0  0  0  0  0  0  0
    7.7590  -15.3930   16.7444 N   0  0  0  0  0  0  0  0  0  0  0  0
    7.3222  -15.8695   18.0265 C   0  0  0  0  0  0  0  0  0  0  0  0
    8.4703  -16.6909   18.6162 C   0  0  0  0  0  0  0  0  0  0  0  0
    9.2643  -15.8565   19.6224 C   0  0  0  0  0  0  0  0  0  0  0  0
    9.0935  -16.5469   20.9604 C   0  0  2  0  0  0  0  0  0  0  0  0
    7.7328  -17.0148   21.1372 N   0  0  0  0  0  0  0  0  0  0  0  0
    9.3796  -15.6067   22.0898 C   0  0  0  0  0  0  0  0  0  0  0  0
   10.4942  -15.0233   22.1982 O   0  0  0  0  0  0  0  0  0  0  0  0
    8.8556  -14.3949   14.6856 C   0  0  0  0  0  0  0  0  0  0  0  0
    5.5277  -11.0392   25.8222 S   0  0  0  0  0  0  0  0  0  0  0  0
    5.8211  -12.6645   26.5807 C   0  0  0  0  0  0  0  0  0  0  0  0
    7.4583  -13.2783   26.1234 C   0  0  0  0  0  0  0  0  0  0  0  0
    7.4703  -13.9752   24.8343 C   0  0  1  0  0  0  0  0  0  0  0  0
    8.7582  -14.3974   24.2178 N   0  0  0  0  0  0  0  0  0  0  0  0
    8.4118  -15.3303   23.0867 C   0  0  0  0  0  0  0  0  0  0  0  0
    9.6929  -15.1712   25.0355 O   0  0  0  0  0  0  0  0  0  0  0  0
   10.9526  -14.9008   25.0640 C   0  0  0  0  0  0  0  0  0  0  0  0
    9.5896  -15.0532   29.9954 C   0  0  2  0  0  0  0  0  0  0  0  0
    9.8561  -15.1330   28.4669 C   0  0  0  0  0  0  0  0  0  0  0  0
   10.9632  -14.1184   28.1643 C   0  0  0  0  0  0  0  0  0  0  0  0
   10.3412  -16.4999   28.1629 C   0  0  2  0  0  0  0  0  0  0  0  0
   10.3437  -16.8983   26.7098 N   0  0  0  0  0  0  0  0  0  0  0  0
    9.3528  -16.2806   25.8913 C   0  0  0  0  0  0  0  0  0  0  0  0
   10.2736  -18.3664   26.6787 O   0  0  0  0  0  0  0  0  0  0  0  0
   11.0795  -19.1385   27.2136 O   0  0  0  0  0  0  0  0  0  0  0  0
  1  2  1  0
  2  3  2  0
  4  2  1  0
  4  5  1  0
  6  5  1  0
  7  6  1  0
  8  7  1  0
  8  9  1  1
 10  8  1  0
 10 11  2  0
 12 13  1  0
 14 13  1  0
 15 14  1  0
 16 17  1  0
 16 15  1  6
 17 10  1  0
 18 16  1  0
 19 18  2  0
 21 20  1  6
 21 22  1  0
 23 21  1  0
 24 23  1  6
 24 25  1  0
 25 18  1  0
 26 24  1  0
 26 28  1  0
 27 26  2  0
M  END
$$$$
