HLI.pdb
     RDKit          3D

 27 27  0  0  1  0  0  0  0  0999 V2000
   20.9285  -13.1087  -18.3385 N   0  0  0  0  0  0  0  0  0  0  0  0
   21.3795  -11.8212  -18.8070 C   0  0  1  0  0  0  0  0  0  0  0  0
   20.4444  -11.4053  -19.9079 C   0  0  0  0  0  0  0  0  0  0  0  0
   20.4731  -12.3290  -21.0575 C   0  0  0  0  0  0  0  0  0  0  0  0
   21.4741  -12.3327  -22.0054 C   0  0  0  0  0  0  0  0  0  0  0  0
   21.1955  -13.2895  -22.8996 N   0  0  0  0  0  0  0  0  0  0  0  0
   20.0339  -13.8895  -22.5302 C   0  0  0  0  0  0  0  0  0  0  0  0
   19.6169  -13.2918  -21.4148 N   0  0  0  0  0  0  0  0  0  0  0  0
   21.5330  -10.8591  -17.7172 C   0  0  0  0  0  0  0  0  0  0  0  0
   20.5915  -10.7752  -16.8608 O   0  0  0  0  0  0  0  0  0  0  0  0
   26.1056  -10.0698  -14.9703 C   0  0  0  0  0  0  0  0  0  0  0  0
   24.6319  -10.1160  -15.3281 C   0  0  1  0  0  0  0  0  0  0  0  0
   23.8763  -10.2553  -13.9988 C   0  0  0  0  0  0  0  0  0  0  0  0
   24.1841   -8.8896  -16.0539 C   0  0  0  0  0  0  0  0  0  0  0  0
   22.7747   -9.0010  -16.5085 C   0  0  2  0  0  0  0  0  0  0  0  0
   22.6421  -10.0278  -17.5516 N   0  0  0  0  0  0  0  0  0  0  0  0
   22.3174   -7.7214  -17.0915 C   0  0  0  0  0  0  0  0  0  0  0  0
   22.4737   -7.3754  -18.2944 O   0  0  0  0  0  0  0  0  0  0  0  0
   18.4301   -5.0841  -19.6899 C   0  0  0  0  0  0  0  0  0  0  0  0
   19.3482   -4.7294  -18.5442 C   0  0  0  0  0  0  0  0  0  0  0  0
   20.0723   -5.8973  -17.9697 C   0  0  2  0  0  0  0  0  0  0  0  0
   19.0409   -6.8720  -17.4416 C   0  0  0  0  0  0  0  0  0  0  0  0
   21.0666   -5.5215  -16.8955 C   0  0  2  0  0  0  0  0  0  0  0  0
   21.6278   -6.7249  -16.3013 N   0  0  0  0  0  0  0  0  0  0  0  0
   20.4589   -4.7251  -15.8073 C   0  0  0  0  0  0  0  0  0  0  0  0
   20.3277   -3.3471  -15.8996 O   0  0  0  0  0  0  0  0  0  0  0  0
   20.0290   -5.2577  -14.7402 O   0  0  0  0  0  0  0  0  0  0  0  0
  2  1  1  1
  3  2  1  0
  4  3  1  0
  4  8  1  0
  5  6  1  0
  5  4  2  0
  6  7  1  0
  7  8  2  0
  9  2  1  0
 10  9  2  0
 12 14  1  0
 12 11  1  1
 13 12  1  0
 15 14  1  6
 15 16  1  0
 16  9  1  0
 17 18  2  0
 17 15  1  0
 19 20  1  0
 20 21  1  0
 21 23  1  0
 21 22  1  1
 23 24  1  1
 24 17  1  0
 25 26  1  0
 25 23  1  0
 27 25  2  0
M  END
$$$$
