HLI.pdb
     RDKit          3D

 27 27  0  0  1  0  0  0  0  0999 V2000
   22.4133  -20.4079  -16.5557 N   0  0  0  0  0  0  0  0  0  0  0  0
   22.8410  -19.5711  -15.4613 C   0  0  1  0  0  0  0  0  0  0  0  0
   21.6719  -19.4462  -14.5248 C   0  0  0  0  0  0  0  0  0  0  0  0
   20.7721  -18.3341  -14.8838 C   0  0  0  0  0  0  0  0  0  0  0  0
   21.0427  -17.4311  -15.8898 C   0  0  0  0  0  0  0  0  0  0  0  0
   20.0263  -16.5618  -15.9519 N   0  0  0  0  0  0  0  0  0  0  0  0
   19.1185  -16.9026  -15.0003 C   0  0  0  0  0  0  0  0  0  0  0  0
   19.5915  -17.9760  -14.3683 N   0  0  0  0  0  0  0  0  0  0  0  0
   24.0831  -20.0465  -14.8547 C   0  0  0  0  0  0  0  0  0  0  0  0
   24.0633  -21.1791  -14.2684 O   0  0  0  0  0  0  0  0  0  0  0  0
   29.0089  -18.3674  -16.7098 C   0  0  0  0  0  0  0  0  0  0  0  0
   27.8769  -19.2086  -16.1503 C   0  0  1  0  0  0  0  0  0  0  0  0
   28.2474  -20.6692  -16.4450 C   0  0  0  0  0  0  0  0  0  0  0  0
   27.6898  -19.0063  -14.6822 C   0  0  0  0  0  0  0  0  0  0  0  0
   26.5113  -19.7495  -14.1683 C   0  0  2  0  0  0  0  0  0  0  0  0
   25.2888  -19.3435  -14.8760 N   0  0  0  0  0  0  0  0  0  0  0  0
   26.3041  -19.4607  -12.7331 C   0  0  0  0  0  0  0  0  0  0  0  0
   26.0382  -18.3251  -12.2526 O   0  0  0  0  0  0  0  0  0  0  0  0
   22.5127  -21.1575   -9.9970 C   0  0  0  0  0  0  0  0  0  0  0  0
   23.7528  -20.4302  -10.4602 C   0  0  0  0  0  0  0  0  0  0  0  0
   24.9995  -20.8695   -9.7738 C   0  0  2  0  0  0  0  0  0  0  0  0
   24.8330  -20.6083   -8.2917 C   0  0  0  0  0  0  0  0  0  0  0  0
   26.2476  -20.2048  -10.3070 C   0  0  2  0  0  0  0  0  0  0  0  0
   26.3924  -20.4949  -11.7251 N   0  0  0  0  0  0  0  0  0  0  0  0
   27.4768  -20.6671   -9.6266 C   0  0  0  0  0  0  0  0  0  0  0  0
   27.9165  -20.0882   -8.4451 O   0  0  0  0  0  0  0  0  0  0  0  0
   28.1879  -21.6111  -10.0855 O   0  0  0  0  0  0  0  0  0  0  0  0
  2  1  1  6
  3  2  1  0
  4  3  1  0
  4  8  1  0
  5  6  1  0
  5  4  2  0
  6  7  1  0
  7  8  2  0
  9  2  1  0
 10  9  2  0
 12 14  1  0
 12 11  1  1
 13 12  1  0
 15 14  1  6
 15 16  1  0
 16  9  1  0
 17 18  2  0
 17 15  1  0
 19 20  1  0
 20 21  1  0
 21 23  1  0
 21 22  1  1
 23 24  1  6
 24 17  1  0
 25 26  1  0
 25 23  1  0
 27 25  2  0
M  END
$$$$
