HLI.pdb
     RDKit          3D

 27 27  0  0  1  0  0  0  0  0999 V2000
   22.7091  -19.4884  -16.0515 N   0  0  0  0  0  0  0  0  0  0  0  0
   23.1949  -19.3190  -14.7040 C   0  0  1  0  0  0  0  0  0  0  0  0
   22.0148  -19.4931  -13.7895 C   0  0  0  0  0  0  0  0  0  0  0  0
   20.9673  -18.4791  -14.0136 C   0  0  0  0  0  0  0  0  0  0  0  0
   21.0586  -17.4897  -14.9693 C   0  0  0  0  0  0  0  0  0  0  0  0
   19.9451  -16.7488  -14.9075 N   0  0  0  0  0  0  0  0  0  0  0  0
   19.1527  -17.2557  -13.9272 C   0  0  0  0  0  0  0  0  0  0  0  0
   19.7919  -18.3003  -13.4020 N   0  0  0  0  0  0  0  0  0  0  0  0
   24.3425  -20.1781  -14.4180 C   0  0  0  0  0  0  0  0  0  0  0  0
   24.3261  -21.3663  -14.8814 O   0  0  0  0  0  0  0  0  0  0  0  0
   29.1086  -18.4240  -15.2998 C   0  0  0  0  0  0  0  0  0  0  0  0
   27.8748  -19.2682  -15.0403 C   0  0  1  0  0  0  0  0  0  0  0  0
   27.8697  -20.3568  -16.1229 C   0  0  0  0  0  0  0  0  0  0  0  0
   27.8850  -19.8875  -13.6810 C   0  0  0  0  0  0  0  0  0  0  0  0
   26.6276  -20.6268  -13.4019 C   0  0  2  0  0  0  0  0  0  0  0  0
   25.4549  -19.7834  -13.6728 N   0  0  0  0  0  0  0  0  0  0  0  0
   26.5654  -21.0209  -11.9782 C   0  0  0  0  0  0  0  0  0  0  0  0
   27.2978  -21.8918  -11.4338 O   0  0  0  0  0  0  0  0  0  0  0  0
   27.7436  -18.6051   -7.7973 C   0  0  0  0  0  0  0  0  0  0  0  0
   27.3033  -19.7137   -8.7239 C   0  0  0  0  0  0  0  0  0  0  0  0
   25.8402  -19.9889   -8.6802 C   0  0  2  0  0  0  0  0  0  0  0  0
   25.4998  -20.4836   -7.2902 C   0  0  0  0  0  0  0  0  0  0  0  0
   25.3791  -20.9682   -9.7348 C   0  0  2  0  0  0  0  0  0  0  0  0
   25.6249  -20.4179  -11.0588 N   0  0  0  0  0  0  0  0  0  0  0  0
   23.9355  -21.2755   -9.6376 C   0  0  0  0  0  0  0  0  0  0  0  0
   23.0400  -20.8842  -10.6222 O   0  0  0  0  0  0  0  0  0  0  0  0
   23.4451  -21.9090   -8.6550 O   0  0  0  0  0  0  0  0  0  0  0  0
  2  1  1  6
  3  2  1  0
  4  3  1  0
  4  8  1  0
  5  6  1  0
  5  4  2  0
  6  7  1  0
  7  8  2  0
  9  2  1  0
 10  9  2  0
 12 14  1  0
 12 11  1  6
 13 12  1  0
 15 14  1  1
 15 16  1  0
 16  9  1  0
 17 18  2  0
 17 15  1  0
 19 20  1  0
 20 21  1  0
 21 23  1  0
 21 22  1  1
 23 24  1  6
 24 17  1  0
 25 26  1  0
 25 23  1  0
 27 25  2  0
M  END
$$$$
