HLI.pdb
     RDKit          3D

 27 27  0  0  1  0  0  0  0  0999 V2000
   24.7423  -19.4166  -17.8310 N   0  0  0  0  0  0  0  0  0  0  0  0
   24.2886  -19.2426  -16.4728 C   0  0  1  0  0  0  0  0  0  0  0  0
   22.8074  -18.9952  -16.5359 C   0  0  0  0  0  0  0  0  0  0  0  0
   22.4731  -17.7019  -17.1615 C   0  0  0  0  0  0  0  0  0  0  0  0
   22.0861  -17.5715  -18.4783 C   0  0  0  0  0  0  0  0  0  0  0  0
   21.8569  -16.2741  -18.7170 N   0  0  0  0  0  0  0  0  0  0  0  0
   22.0936  -15.5841  -17.5709 C   0  0  0  0  0  0  0  0  0  0  0  0
   22.4645  -16.4684  -16.6458 N   0  0  0  0  0  0  0  0  0  0  0  0
   24.7046  -20.3436  -15.6058 C   0  0  0  0  0  0  0  0  0  0  0  0
   24.6364  -21.5280  -16.0742 O   0  0  0  0  0  0  0  0  0  0  0  0
   28.9936  -19.7011  -12.5042 C   0  0  0  0  0  0  0  0  0  0  0  0
   27.8766  -20.2437  -13.3761 C   0  0  1  0  0  0  0  0  0  0  0  0
   28.5157  -21.3223  -14.2624 C   0  0  0  0  0  0  0  0  0  0  0  0
   26.7598  -20.8260  -12.5730 C   0  0  0  0  0  0  0  0  0  0  0  0
   25.6372  -21.2765  -13.4343 C   0  0  2  0  0  0  0  0  0  0  0  0
   25.1724  -20.1839  -14.3004 N   0  0  0  0  0  0  0  0  0  0  0  0
   24.4878  -21.6990  -12.6057 C   0  0  0  0  0  0  0  0  0  0  0  0
   24.5001  -22.6531  -11.7806 O   0  0  0  0  0  0  0  0  0  0  0  0
   20.8872  -20.0273   -8.4321 C   0  0  0  0  0  0  0  0  0  0  0  0
   20.8557  -20.7845   -9.7387 C   0  0  0  0  0  0  0  0  0  0  0  0
   22.0314  -20.5222  -10.6146 C   0  0  2  0  0  0  0  0  0  0  0  0
   22.0020  -19.0607  -11.0097 C   0  0  0  0  0  0  0  0  0  0  0  0
   22.0868  -21.4146  -11.8329 C   0  0  2  0  0  0  0  0  0  0  0  0
   23.2078  -21.0282  -12.6757 N   0  0  0  0  0  0  0  0  0  0  0  0
   20.8597  -21.3369  -12.6549 C   0  0  0  0  0  0  0  0  0  0  0  0
   20.8852  -20.8614  -13.9579 O   0  0  0  0  0  0  0  0  0  0  0  0
   19.7276  -21.6990  -12.2136 O   0  0  0  0  0  0  0  0  0  0  0  0
  2  1  1  6
  3  2  1  0
  4  3  1  0
  4  8  1  0
  5  6  1  0
  5  4  2  0
  6  7  1  0
  7  8  2  0
  9  2  1  0
 10  9  2  0
 12 14  1  0
 12 11  1  1
 13 12  1  0
 15 14  1  1
 15 16  1  0
 16  9  1  0
 17 18  2  0
 17 15  1  0
 19 20  1  0
 20 21  1  0
 21 23  1  0
 21 22  1  6
 23 24  1  6
 24 17  1  0
 25 26  1  0
 25 23  1  0
 27 25  2  0
M  END
$$$$
