HLI.pdb
     RDKit          3D

 27 27  0  0  1  0  0  0  0  0999 V2000
   27.6136  -21.4357  -17.1255 N   0  0  0  0  0  0  0  0  0  0  0  0
   27.5518  -20.4562  -16.0684 C   0  0  1  0  0  0  0  0  0  0  0  0
   26.3890  -19.5548  -16.3763 C   0  0  0  0  0  0  0  0  0  0  0  0
   26.5887  -18.7703  -17.6093 C   0  0  0  0  0  0  0  0  0  0  0  0
   27.8156  -18.2899  -18.0148 C   0  0  0  0  0  0  0  0  0  0  0  0
   27.6429  -17.6297  -19.1668 N   0  0  0  0  0  0  0  0  0  0  0  0
   26.3255  -17.6863  -19.4941 C   0  0  0  0  0  0  0  0  0  0  0  0
   25.7094  -18.3804  -18.5381 N   0  0  0  0  0  0  0  0  0  0  0  0
   27.5337  -21.0735  -14.7435 C   0  0  0  0  0  0  0  0  0  0  0  0
   26.7229  -22.0384  -14.5478 O   0  0  0  0  0  0  0  0  0  0  0  0
   31.9129  -20.9895  -11.3772 C   0  0  0  0  0  0  0  0  0  0  0  0
   30.6459  -21.4605  -12.0664 C   0  0  1  0  0  0  0  0  0  0  0  0
   30.5943  -22.9820  -11.8668 C   0  0  0  0  0  0  0  0  0  0  0  0
   29.4198  -20.8208  -11.5019 C   0  0  0  0  0  0  0  0  0  0  0  0
   28.2091  -21.1521  -12.2954 C   0  0  2  0  0  0  0  0  0  0  0  0
   28.3458  -20.6773  -13.6795 N   0  0  0  0  0  0  0  0  0  0  0  0
   27.0178  -20.4915  -11.7203 C   0  0  0  0  0  0  0  0  0  0  0  0
   26.7637  -19.2584  -11.7979 O   0  0  0  0  0  0  0  0  0  0  0  0
   22.3215  -21.3334  -13.1598 C   0  0  0  0  0  0  0  0  0  0  0  0
   23.5247  -20.7358  -12.4695 C   0  0  0  0  0  0  0  0  0  0  0  0
   23.5906  -21.0322  -11.0114 C   0  0  2  0  0  0  0  0  0  0  0  0
   22.3876  -20.3927  -10.3505 C   0  0  0  0  0  0  0  0  0  0  0  0
   24.8760  -20.5759  -10.3608 C   0  0  2  0  0  0  0  0  0  0  0  0
   26.0087  -21.2324  -10.9949 N   0  0  0  0  0  0  0  0  0  0  0  0
   24.9277  -20.8880   -8.9159 C   0  0  0  0  0  0  0  0  0  0  0  0
   24.5569  -19.9573   -7.9564 O   0  0  0  0  0  0  0  0  0  0  0  0
   25.3113  -22.0159   -8.4824 O   0  0  0  0  0  0  0  0  0  0  0  0
  2  1  1  6
  3  2  1  0
  4  3  1  0
  4  8  1  0
  5  6  1  0
  5  4  2  0
  6  7  1  0
  7  8  2  0
  9  2  1  0
 10  9  2  0
 12 14  1  0
 12 11  1  1
 13 12  1  0
 15 14  1  1
 15 16  1  0
 16  9  1  0
 17 18  2  0
 17 15  1  0
 19 20  1  0
 20 21  1  0
 21 23  1  0
 21 22  1  1
 23 24  1  6
 24 17  1  0
 25 26  1  0
 25 23  1  0
 27 25  2  0
M  END
$$$$
