HLI.pdb
     RDKit          3D

 27 27  0  0  1  0  0  0  0  0999 V2000
   24.4122  -21.5455  -12.8395 N   0  0  0  0  0  0  0  0  0  0  0  0
   24.3319  -20.6494  -11.7120 C   0  0  1  0  0  0  0  0  0  0  0  0
   22.8961  -20.6351  -11.2674 C   0  0  0  0  0  0  0  0  0  0  0  0
   21.9952  -20.0430  -12.2740 C   0  0  0  0  0  0  0  0  0  0  0  0
   22.3100  -18.9208  -13.0102 C   0  0  0  0  0  0  0  0  0  0  0  0
   21.2816  -18.6575  -13.8262 N   0  0  0  0  0  0  0  0  0  0  0  0
   20.3226  -19.5967  -13.6158 C   0  0  0  0  0  0  0  0  0  0  0  0
   20.7770  -20.4223  -12.6738 N   0  0  0  0  0  0  0  0  0  0  0  0
   25.3071  -20.9786  -10.6739 C   0  0  0  0  0  0  0  0  0  0  0  0
   24.9954  -21.8831   -9.8304 O   0  0  0  0  0  0  0  0  0  0  0  0
   30.5464  -21.1060  -11.9694 C   0  0  0  0  0  0  0  0  0  0  0  0
   29.1821  -21.3620  -11.3569 C   0  0  1  0  0  0  0  0  0  0  0  0
   29.1440  -22.8584  -11.0153 C   0  0  0  0  0  0  0  0  0  0  0  0
   28.9466  -20.5431  -10.1301 C   0  0  0  0  0  0  0  0  0  0  0  0
   27.5869  -20.7604   -9.5739 C   0  0  2  0  0  0  0  0  0  0  0  0
   26.5564  -20.3693  -10.5461 N   0  0  0  0  0  0  0  0  0  0  0  0
   27.3855  -19.9342   -8.3644 C   0  0  0  0  0  0  0  0  0  0  0  0
   26.8450  -18.7946   -8.3460 O   0  0  0  0  0  0  0  0  0  0  0  0
   27.3217  -22.1544   -3.1520 C   0  0  0  0  0  0  0  0  0  0  0  0
   27.0203  -21.2778   -4.3445 C   0  0  0  0  0  0  0  0  0  0  0  0
   28.0883  -20.2845   -4.6464 C   0  0  2  0  0  0  0  0  0  0  0  0
   28.2311  -19.3735   -3.4454 C   0  0  0  0  0  0  0  0  0  0  0  0
   27.8336  -19.4893   -5.9059 C   0  0  2  0  0  0  0  0  0  0  0  0
   27.8070  -20.3815   -7.0546 N   0  0  0  0  0  0  0  0  0  0  0  0
   28.8722  -18.4665   -6.1562 C   0  0  0  0  0  0  0  0  0  0  0  0
   28.7438  -17.1681   -5.6849 O   0  0  0  0  0  0  0  0  0  0  0  0
   29.9276  -18.7222   -6.8105 O   0  0  0  0  0  0  0  0  0  0  0  0
  2  1  1  6
  3  2  1  0
  4  3  1  0
  4  8  1  0
  5  6  1  0
  5  4  2  0
  6  7  1  0
  7  8  2  0
  9  2  1  0
 10  9  2  0
 12 14  1  0
 12 11  1  1
 13 12  1  0
 15 14  1  6
 15 16  1  0
 16  9  1  0
 17 18  2  0
 17 15  1  0
 19 20  1  0
 20 21  1  0
 21 23  1  0
 21 22  1  1
 23 24  1  6
 24 17  1  0
 25 26  1  0
 25 23  1  0
 27 25  2  0
M  END
$$$$
