HLI.pdb
     RDKit          3D

 27 27  0  0  1  0  0  0  0  0999 V2000
   16.9352  -28.1862   -0.9592 N   0  0  0  0  0  0  0  0  0  0  0  0
   17.1548  -26.8017   -0.6194 C   0  0  1  0  0  0  0  0  0  0  0  0
   16.2599  -25.9864   -1.5104 C   0  0  0  0  0  0  0  0  0  0  0  0
   16.6245  -26.0953   -2.9354 C   0  0  0  0  0  0  0  0  0  0  0  0
   17.7880  -25.5783   -3.4644 C   0  0  0  0  0  0  0  0  0  0  0  0
   17.8066  -25.8539   -4.7746 N   0  0  0  0  0  0  0  0  0  0  0  0
   16.6725  -26.5368   -5.0801 C   0  0  0  0  0  0  0  0  0  0  0  0
   15.9748  -26.6700   -3.9528 N   0  0  0  0  0  0  0  0  0  0  0  0
   17.0074  -26.5542    0.8137 C   0  0  0  0  0  0  0  0  0  0  0  0
   16.1488  -27.2486    1.4521 O   0  0  0  0  0  0  0  0  0  0  0  0
   21.0479  -27.1597    4.0687 C   0  0  0  0  0  0  0  0  0  0  0  0
   19.6296  -27.0309    3.5455 C   0  0  1  0  0  0  0  0  0  0  0  0
   18.7493  -27.8527    4.4979 C   0  0  0  0  0  0  0  0  0  0  0  0
   19.1654  -25.6117    3.5038 C   0  0  0  0  0  0  0  0  0  0  0  0
   17.7748  -25.5005    2.9946 C   0  0  2  0  0  0  0  0  0  0  0  0
   17.7450  -25.6095    1.5293 N   0  0  0  0  0  0  0  0  0  0  0  0
   17.1987  -24.1856    3.3487 C   0  0  0  0  0  0  0  0  0  0  0  0
   17.4593  -23.0984    2.7646 O   0  0  0  0  0  0  0  0  0  0  0  0
   12.0853  -23.8332    5.4477 C   0  0  0  0  0  0  0  0  0  0  0  0
   13.3682  -23.5439    4.7047 C   0  0  0  0  0  0  0  0  0  0  0  0
   14.4171  -22.9000    5.5434 C   0  0  2  0  0  0  0  0  0  0  0  0
   13.8801  -21.5669    6.0201 C   0  0  0  0  0  0  0  0  0  0  0  0
   15.7392  -22.7313    4.8312 C   0  0  2  0  0  0  0  0  0  0  0  0
   16.2541  -24.0325    4.4339 N   0  0  0  0  0  0  0  0  0  0  0  0
   16.7650  -22.0817    5.6759 C   0  0  0  0  0  0  0  0  0  0  0  0
   17.5572  -22.8117    6.5500 O   0  0  0  0  0  0  0  0  0  0  0  0
   16.9721  -20.8313    5.6447 O   0  0  0  0  0  0  0  0  0  0  0  0
  2  1  1  1
  3  2  1  0
  4  3  1  0
  4  8  1  0
  5  6  1  0
  5  4  2  0
  6  7  1  0
  7  8  2  0
  9  2  1  0
 10  9  2  0
 12 14  1  0
 12 11  1  1
 13 12  1  0
 15 14  1  6
 15 16  1  0
 16  9  1  0
 17 18  2  0
 17 15  1  0
 19 20  1  0
 20 21  1  0
 21 23  1  0
 21 22  1  6
 23 24  1  1
 24 17  1  0
 25 26  1  0
 25 23  1  0
 27 25  2  0
M  END
$$$$
