HLI.pdb
     RDKit          3D

 27 27  0  0  1  0  0  0  0  0999 V2000
   28.0774  -21.2060  -17.0270 N   0  0  0  0  0  0  0  0  0  0  0  0
   27.5966  -20.1841  -16.1297 C   0  0  1  0  0  0  0  0  0  0  0  0
   27.0006  -19.0995  -16.9827 C   0  0  0  0  0  0  0  0  0  0  0  0
   28.0070  -18.4114  -17.8128 C   0  0  0  0  0  0  0  0  0  0  0  0
   28.0243  -18.4680  -19.1902 C   0  0  0  0  0  0  0  0  0  0  0  0
   29.0584  -17.7358  -19.6228 N   0  0  0  0  0  0  0  0  0  0  0  0
   29.6937  -17.2180  -18.5392 C   0  0  0  0  0  0  0  0  0  0  0  0
   29.0400  -17.6403  -17.4578 N   0  0  0  0  0  0  0  0  0  0  0  0
   26.7154  -20.7256  -15.0966 C   0  0  0  0  0  0  0  0  0  0  0  0
   25.8960  -21.6427  -15.4346 O   0  0  0  0  0  0  0  0  0  0  0  0
   25.2100  -22.2031  -10.0755 C   0  0  0  0  0  0  0  0  0  0  0  0
   25.1856  -20.7104  -10.3463 C   0  0  1  0  0  0  0  0  0  0  0  0
   25.5187  -20.0310   -9.0103 C   0  0  0  0  0  0  0  0  0  0  0  0
   26.1703  -20.3062  -11.3942 C   0  0  0  0  0  0  0  0  0  0  0  0
   25.7441  -20.7403  -12.7489 C   0  0  2  0  0  0  0  0  0  0  0  0
   26.7128  -20.3060  -13.7653 N   0  0  0  0  0  0  0  0  0  0  0  0
   24.4405  -20.1365  -13.0985 C   0  0  0  0  0  0  0  0  0  0  0  0
   24.2211  -18.8995  -13.2119 O   0  0  0  0  0  0  0  0  0  0  0  0
   22.1478  -20.7067  -17.5007 C   0  0  0  0  0  0  0  0  0  0  0  0
   22.5007  -20.2481  -16.1055 C   0  0  0  0  0  0  0  0  0  0  0  0
   21.5576  -20.7286  -15.0576 C   0  0  2  0  0  0  0  0  0  0  0  0
   20.1823  -20.1853  -15.3832 C   0  0  0  0  0  0  0  0  0  0  0  0
   21.9733  -20.3528  -13.6542 C   0  0  2  0  0  0  0  0  0  0  0  0
   23.2667  -20.9445  -13.3487 N   0  0  0  0  0  0  0  0  0  0  0  0
   21.0136  -20.8185  -12.6296 C   0  0  0  0  0  0  0  0  0  0  0  0
   20.1761  -19.9366  -11.9622 O   0  0  0  0  0  0  0  0  0  0  0  0
   20.9074  -22.0409  -12.3103 O   0  0  0  0  0  0  0  0  0  0  0  0
  2  1  1  6
  3  2  1  0
  4  3  1  0
  4  8  1  0
  5  6  1  0
  5  4  2  0
  6  7  1  0
  7  8  2  0
  9  2  1  0
 10  9  2  0
 12 14  1  0
 12 11  1  1
 13 12  1  0
 15 14  1  1
 15 16  1  0
 16  9  1  0
 17 18  2  0
 17 15  1  0
 19 20  1  0
 20 21  1  0
 21 23  1  0
 21 22  1  6
 23 24  1  1
 24 17  1  0
 25 26  1  0
 25 23  1  0
 27 25  2  0
M  END
$$$$
