HLI.pdb
     RDKit          3D

 27 27  0  0  1  0  0  0  0  0999 V2000
   27.8719  -19.8024  -15.5415 N   0  0  0  0  0  0  0  0  0  0  0  0
   26.8993  -19.1613  -14.6908 C   0  0  1  0  0  0  0  0  0  0  0  0
   26.1678  -18.1608  -15.5413 C   0  0  0  0  0  0  0  0  0  0  0  0
   27.0209  -17.0283  -15.9477 C   0  0  0  0  0  0  0  0  0  0  0  0
   27.1471  -15.8690  -15.2124 C   0  0  0  0  0  0  0  0  0  0  0  0
   27.9933  -15.0574  -15.8588 N   0  0  0  0  0  0  0  0  0  0  0  0
   28.4028  -15.6871  -16.9909 C   0  0  0  0  0  0  0  0  0  0  0  0
   27.8017  -16.8758  -17.0223 N   0  0  0  0  0  0  0  0  0  0  0  0
   26.0542  -20.1275  -13.9916 C   0  0  0  0  0  0  0  0  0  0  0  0
   25.6377  -21.1385  -14.6483 O   0  0  0  0  0  0  0  0  0  0  0  0
   26.1603  -20.5297   -8.5010 C   0  0  0  0  0  0  0  0  0  0  0  0
   26.0976  -20.6922  -10.0083 C   0  0  1  0  0  0  0  0  0  0  0  0
   26.7621  -22.0413  -10.3179 C   0  0  0  0  0  0  0  0  0  0  0  0
   24.6961  -20.6729  -10.5247 C   0  0  0  0  0  0  0  0  0  0  0  0
   24.6488  -20.8424  -11.9992 C   0  0  2  0  0  0  0  0  0  0  0  0
   25.6744  -20.0172  -12.6529 N   0  0  0  0  0  0  0  0  0  0  0  0
   23.3366  -20.4112  -12.5269 C   0  0  0  0  0  0  0  0  0  0  0  0
   22.9608  -19.2130  -12.6459 O   0  0  0  0  0  0  0  0  0  0  0  0
   21.7490  -21.7244  -17.2145 C   0  0  0  0  0  0  0  0  0  0  0  0
   21.8431  -21.0347  -15.8739 C   0  0  0  0  0  0  0  0  0  0  0  0
   20.8508  -21.5218  -14.8758 C   0  0  2  0  0  0  0  0  0  0  0  0
   19.4663  -21.2089  -15.4032 C   0  0  0  0  0  0  0  0  0  0  0  0
   21.0509  -20.9426  -13.4944 C   0  0  2  0  0  0  0  0  0  0  0  0
   22.3395  -21.3631  -12.9662 N   0  0  0  0  0  0  0  0  0  0  0  0
   20.0105  -21.3756  -12.5365 C   0  0  0  0  0  0  0  0  0  0  0  0
   20.0907  -22.5925  -11.8753 O   0  0  0  0  0  0  0  0  0  0  0  0
   18.9974  -20.6609  -12.2718 O   0  0  0  0  0  0  0  0  0  0  0  0
  2  1  1  6
  3  2  1  0
  4  3  1  0
  4  8  1  0
  5  6  1  0
  5  4  2  0
  6  7  1  0
  7  8  2  0
  9  2  1  0
 10  9  2  0
 12 14  1  0
 12 11  1  1
 13 12  1  0
 15 14  1  1
 15 16  1  0
 16  9  1  0
 17 18  2  0
 17 15  1  0
 19 20  1  0
 20 21  1  0
 21 23  1  0
 21 22  1  6
 23 24  1  1
 24 17  1  0
 25 26  1  0
 25 23  1  0
 27 25  2  0
M  END
$$$$
