HLI.pdb
     RDKit          3D

 27 27  0  0  1  0  0  0  0  0999 V2000
   18.8914  -13.4327  -16.9453 N   0  0  0  0  0  0  0  0  0  0  0  0
   19.1443  -12.1829  -17.6197 C   0  0  1  0  0  0  0  0  0  0  0  0
   18.0013  -11.9608  -18.5702 C   0  0  0  0  0  0  0  0  0  0  0  0
   17.9543  -12.9669  -19.6478 C   0  0  0  0  0  0  0  0  0  0  0  0
   16.9612  -13.9167  -19.7589 C   0  0  0  0  0  0  0  0  0  0  0  0
   17.2183  -14.6615  -20.8413 N   0  0  0  0  0  0  0  0  0  0  0  0
   18.3586  -14.1961  -21.4149 C   0  0  0  0  0  0  0  0  0  0  0  0
   18.7843  -13.1725  -20.6757 N   0  0  0  0  0  0  0  0  0  0  0  0
   19.4020  -11.0913  -16.6822 C   0  0  0  0  0  0  0  0  0  0  0  0
   18.5444  -10.8832  -15.7612 O   0  0  0  0  0  0  0  0  0  0  0  0
   24.2378  -10.1162  -14.4468 C   0  0  0  0  0  0  0  0  0  0  0  0
   22.7472  -10.2029  -14.7167 C   0  0  1  0  0  0  0  0  0  0  0  0
   22.0677  -10.2368  -13.3403 C   0  0  0  0  0  0  0  0  0  0  0  0
   22.2454   -9.0446  -15.5153 C   0  0  0  0  0  0  0  0  0  0  0  0
   20.7919   -9.1571  -15.7976 C   0  0  2  0  0  0  0  0  0  0  0  0
   20.5247  -10.2632  -16.7278 N   0  0  0  0  0  0  0  0  0  0  0  0
   20.2917   -7.9190  -16.4326 C   0  0  0  0  0  0  0  0  0  0  0  0
   20.5181   -7.5723  -17.6241 O   0  0  0  0  0  0  0  0  0  0  0  0
   15.3936   -6.6306  -17.2060 C   0  0  0  0  0  0  0  0  0  0  0  0
   16.9022   -6.6039  -17.2751 C   0  0  0  0  0  0  0  0  0  0  0  0
   17.5312   -5.6458  -16.3240 C   0  0  2  0  0  0  0  0  0  0  0  0
   17.0512   -4.2540  -16.6779 C   0  0  0  0  0  0  0  0  0  0  0  0
   19.0407   -5.7139  -16.3094 C   0  0  2  0  0  0  0  0  0  0  0  0
   19.4713   -6.9690  -15.7132 N   0  0  0  0  0  0  0  0  0  0  0  0
   19.6553   -4.6146  -15.5338 C   0  0  0  0  0  0  0  0  0  0  0  0
   20.1177   -3.4600  -16.1484 O   0  0  0  0  0  0  0  0  0  0  0  0
   19.7901   -4.6704  -14.2745 O   0  0  0  0  0  0  0  0  0  0  0  0
  2  1  1  1
  3  2  1  0
  4  3  1  0
  4  8  1  0
  5  6  1  0
  5  4  2  0
  6  7  1  0
  7  8  2  0
  9  2  1  0
 10  9  2  0
 12 14  1  0
 12 11  1  1
 13 12  1  0
 15 14  1  6
 15 16  1  0
 16  9  1  0
 17 18  2  0
 17 15  1  0
 19 20  1  0
 20 21  1  0
 21 23  1  0
 21 22  1  6
 23 24  1  1
 24 17  1  0
 25 26  1  0
 25 23  1  0
 27 25  2  0
M  END
$$$$
