HLI.pdb
     RDKit          3D

 27 27  0  0  1  0  0  0  0  0999 V2000
   21.6804  -18.2707  -17.2478 N   0  0  0  0  0  0  0  0  0  0  0  0
   22.4118  -18.4387  -16.0159 C   0  0  1  0  0  0  0  0  0  0  0  0
   21.9902  -19.7592  -15.4347 C   0  0  0  0  0  0  0  0  0  0  0  0
   20.5530  -19.8029  -15.1063 C   0  0  0  0  0  0  0  0  0  0  0  0
   19.7112  -18.7182  -15.2298 C   0  0  0  0  0  0  0  0  0  0  0  0
   18.4839  -19.1002  -14.8548 N   0  0  0  0  0  0  0  0  0  0  0  0
   18.5387  -20.4096  -14.4966 C   0  0  0  0  0  0  0  0  0  0  0  0
   19.7989  -20.8115  -14.6570 N   0  0  0  0  0  0  0  0  0  0  0  0
   23.8516  -18.2650  -16.1999 C   0  0  0  0  0  0  0  0  0  0  0  0
   24.3879  -18.7943  -17.2290 O   0  0  0  0  0  0  0  0  0  0  0  0
   26.3471  -13.5700  -15.1460 C   0  0  0  0  0  0  0  0  0  0  0  0
   25.9493  -14.9191  -15.7150 C   0  0  1  0  0  0  0  0  0  0  0  0
   26.4355  -14.9258  -17.1714 C   0  0  0  0  0  0  0  0  0  0  0  0
   26.5559  -16.0562  -14.9597 C   0  0  0  0  0  0  0  0  0  0  0  0
   26.1243  -17.3704  -15.5000 C   0  0  2  0  0  0  0  0  0  0  0  0
   24.6771  -17.5573  -15.3246 N   0  0  0  0  0  0  0  0  0  0  0  0
   26.7996  -18.4716  -14.7805 C   0  0  0  0  0  0  0  0  0  0  0  0
   28.0436  -18.6801  -14.7764 O   0  0  0  0  0  0  0  0  0  0  0  0
   24.9969  -20.0751   -9.8937 C   0  0  0  0  0  0  0  0  0  0  0  0
   25.8669  -19.7756  -11.0916 C   0  0  0  0  0  0  0  0  0  0  0  0
   25.9628  -20.9014  -12.0620 C   0  0  2  0  0  0  0  0  0  0  0  0
   26.6049  -22.0751  -11.3530 C   0  0  0  0  0  0  0  0  0  0  0  0
   26.7170  -20.5480  -13.3229 C   0  0  2  0  0  0  0  0  0  0  0  0
   26.0618  -19.4354  -13.9931 N   0  0  0  0  0  0  0  0  0  0  0  0
   26.7860  -21.6718  -14.2819 C   0  0  0  0  0  0  0  0  0  0  0  0
   27.9287  -22.4472  -14.4138 O   0  0  0  0  0  0  0  0  0  0  0  0
   25.8097  -21.9828  -15.0286 O   0  0  0  0  0  0  0  0  0  0  0  0
  2  1  1  6
  3  2  1  0
  4  3  1  0
  4  8  1  0
  5  6  1  0
  5  4  2  0
  6  7  1  0
  7  8  2  0
  9  2  1  0
 10  9  2  0
 12 14  1  0
 12 11  1  1
 13 12  1  0
 15 14  1  1
 15 16  1  0
 16  9  1  0
 17 18  2  0
 17 15  1  0
 19 20  1  0
 20 21  1  0
 21 23  1  0
 21 22  1  1
 23 24  1  6
 24 17  1  0
 25 26  1  0
 25 23  1  0
 27 25  2  0
M  END
$$$$
