HLI.pdb
     RDKit          3D

 27 27  0  0  1  0  0  0  0  0999 V2000
   17.6508  -13.9972  -18.5958 N   0  0  0  0  0  0  0  0  0  0  0  0
   17.3188  -13.1853  -17.4507 C   0  0  1  0  0  0  0  0  0  0  0  0
   17.6637  -13.9912  -16.2297 C   0  0  0  0  0  0  0  0  0  0  0  0
   16.8854  -15.2404  -16.1345 C   0  0  0  0  0  0  0  0  0  0  0  0
   15.5663  -15.2863  -15.7361 C   0  0  0  0  0  0  0  0  0  0  0  0
   15.1684  -16.5644  -15.7641 N   0  0  0  0  0  0  0  0  0  0  0  0
   16.2165  -17.3256  -16.1740 C   0  0  0  0  0  0  0  0  0  0  0  0
   17.2420  -16.5032  -16.3915 N   0  0  0  0  0  0  0  0  0  0  0  0
   17.9275  -11.8580  -17.5191 C   0  0  0  0  0  0  0  0  0  0  0  0
   19.1345  -11.7772  -17.9234 O   0  0  0  0  0  0  0  0  0  0  0  0
   18.0430   -6.7035  -18.8673 C   0  0  0  0  0  0  0  0  0  0  0  0
   17.3578   -6.9255  -17.5319 C   0  0  1  0  0  0  0  0  0  0  0  0
   16.2389   -5.8773  -17.4491 C   0  0  0  0  0  0  0  0  0  0  0  0
   16.7906   -8.3016  -17.4054 C   0  0  0  0  0  0  0  0  0  0  0  0
   17.8562   -9.3290  -17.2856 C   0  0  2  0  0  0  0  0  0  0  0  0
   17.2745  -10.6739  -17.1724 N   0  0  0  0  0  0  0  0  0  0  0  0
   18.6637   -9.0961  -16.0690 C   0  0  0  0  0  0  0  0  0  0  0  0
   18.2918   -9.3532  -14.8913 O   0  0  0  0  0  0  0  0  0  0  0  0
   23.8205  -10.6495  -13.8313 C   0  0  0  0  0  0  0  0  0  0  0  0
   22.8164   -9.5211  -13.8311 C   0  0  0  0  0  0  0  0  0  0  0  0
   21.8829   -9.5461  -14.9913 C   0  0  2  0  0  0  0  0  0  0  0  0
   22.7105   -9.4816  -16.2576 C   0  0  0  0  0  0  0  0  0  0  0  0
   20.8507   -8.4429  -14.9586 C   0  0  2  0  0  0  0  0  0  0  0  0
   19.9953   -8.5340  -16.1317 N   0  0  0  0  0  0  0  0  0  0  0  0
   21.4562   -7.0935  -14.9484 C   0  0  0  0  0  0  0  0  0  0  0  0
   21.8286   -6.4715  -13.7657 O   0  0  0  0  0  0  0  0  0  0  0  0
   21.6650   -6.4394  -16.0142 O   0  0  0  0  0  0  0  0  0  0  0  0
  2  1  1  6
  3  2  1  0
  4  3  1  0
  4  8  1  0
  5  6  1  0
  5  4  2  0
  6  7  1  0
  7  8  2  0
  9  2  1  0
 10  9  2  0
 12 14  1  0
 12 11  1  6
 13 12  1  0
 15 14  1  1
 15 16  1  0
 16  9  1  0
 17 18  2  0
 17 15  1  0
 19 20  1  0
 20 21  1  0
 21 23  1  0
 21 22  1  6
 23 24  1  6
 24 17  1  0
 25 26  1  0
 25 23  1  0
 27 25  2  0
M  END
$$$$
