NYS.pdb
     RDKit          3D

 27 27  0  0  1  0  0  0  0  0999 V2000
   11.1854  -19.3751   18.0328 N   0  0  0  0  0  0  0  0  0  0  0  0
   11.0296  -18.0014   17.7176 C   0  0  0  0  0  0  0  0  0  0  0  0
   11.3790  -17.6494   16.5539 O   0  0  0  0  0  0  0  0  0  0  0  0
   10.4855  -17.0357   18.7047 C   0  0  0  0  0  0  0  0  0  0  0  0
   10.2417  -17.7617   19.9921 C   0  0  2  0  0  0  0  0  0  0  0  0
    9.0181  -18.5131   19.8589 N   0  0  0  0  0  0  0  0  0  0  0  0
   10.2422  -16.8822   21.1689 C   0  0  0  0  0  0  0  0  0  0  0  0
   11.2902  -16.2527   21.4560 O   0  0  0  0  0  0  0  0  0  0  0  0
    7.6639  -11.8873   18.3988 O   0  0  0  0  0  0  0  0  0  0  0  0
    7.7065  -12.6711   19.5564 C   0  0  0  0  0  0  0  0  0  0  0  0
    8.5960  -12.3690   20.5640 C   0  0  0  0  0  0  0  0  0  0  0  0
    8.6615  -13.1116   21.7010 C   0  0  0  0  0  0  0  0  0  0  0  0
    7.8273  -14.2115   21.8909 C   0  0  0  0  0  0  0  0  0  0  0  0
    7.9353  -14.9983   23.1396 C   0  0  0  0  0  0  0  0  0  0  0  0
    9.0906  -15.9484   23.1488 C   0  0  2  0  0  0  0  0  0  0  0  0
    9.0847  -16.7532   21.9547 N   0  0  0  0  0  0  0  0  0  0  0  0
    9.2096  -16.7984   24.3460 C   0  0  0  0  0  0  0  0  0  0  0  0
    8.2355  -17.5273   24.6590 O   0  0  0  0  0  0  0  0  0  0  0  0
    6.9371  -14.5143   20.8833 C   0  0  0  0  0  0  0  0  0  0  0  0
    6.8637  -13.7619   19.7198 C   0  0  0  0  0  0  0  0  0  0  0  0
   12.4884  -18.5210   25.2786 O   0  0  0  0  0  0  0  0  0  0  0  0
   11.3488  -18.8929   25.9912 C   0  0  0  0  0  0  0  0  0  0  0  0
   10.5085  -17.6876   26.3303 C   0  0  2  0  0  0  0  0  0  0  0  0
   10.3613  -16.8436   25.1693 N   0  0  0  0  0  0  0  0  0  0  0  0
   11.2159  -16.9514   27.4197 C   0  0  0  0  0  0  0  0  0  0  0  0
   11.6458  -15.7829   27.2787 O   0  0  0  0  0  0  0  0  0  0  0  0
   11.3830  -17.6261   28.6213 O   0  0  0  0  0  0  0  0  0  0  0  0
  2  3  2  0
  2  1  1  0
  4  2  1  0
  5  4  1  0
  5  7  1  0
  5  6  1  6
  7  8  2  0
  9 10  1  0
 10 11  2  0
 10 20  1  0
 11 12  1  0
 12 13  2  0
 13 14  1  0
 15 14  1  1
 16  7  1  0
 16 15  1  0
 17 15  1  0
 17 18  2  0
 19 13  1  0
 20 19  2  0
 21 22  1  0
 23 22  1  6
 23 24  1  0
 24 17  1  0
 25 23  1  0
 25 27  1  0
 26 25  2  0
M  END
$$$$
