NYS.pdb
     RDKit          3D

 27 27  0  0  1  0  0  0  0  0999 V2000
   10.1473  -14.9388   14.2445 N   0  0  0  0  0  0  0  0  0  0  0  0
    9.2762  -15.4293   15.2500 C   0  0  0  0  0  0  0  0  0  0  0  0
    8.0726  -15.0452   15.1862 O   0  0  0  0  0  0  0  0  0  0  0  0
    9.7579  -16.3430   16.3158 C   0  0  0  0  0  0  0  0  0  0  0  0
   11.2554  -16.3604   16.2830 C   0  0  2  0  0  0  0  0  0  0  0  0
   11.6702  -17.0119   15.0652 N   0  0  0  0  0  0  0  0  0  0  0  0
   11.8599  -16.9588   17.4809 C   0  0  0  0  0  0  0  0  0  0  0  0
   12.0029  -18.2055   17.5306 O   0  0  0  0  0  0  0  0  0  0  0  0
   17.1168  -12.8374   17.0607 O   0  0  0  0  0  0  0  0  0  0  0  0
   16.3823  -13.8241   17.7263 C   0  0  0  0  0  0  0  0  0  0  0  0
   16.8344  -15.1251   17.7502 C   0  0  0  0  0  0  0  0  0  0  0  0
   16.1432  -16.1066   18.3886 C   0  0  0  0  0  0  0  0  0  0  0  0
   14.9456  -15.8320   19.0459 C   0  0  0  0  0  0  0  0  0  0  0  0
   14.2198  -16.9301   19.7224 C   0  0  0  0  0  0  0  0  0  0  0  0
   12.7397  -16.7211   19.7803 C   0  0  2  0  0  0  0  0  0  0  0  0
   12.2686  -16.1424   18.5487 N   0  0  0  0  0  0  0  0  0  0  0  0
   12.2476  -15.9517   20.9360 C   0  0  0  0  0  0  0  0  0  0  0  0
   12.3480  -14.6998   20.9053 O   0  0  0  0  0  0  0  0  0  0  0  0
   14.4926  -14.5306   19.0225 C   0  0  0  0  0  0  0  0  0  0  0  0
   15.1917  -13.5231   18.3734 C   0  0  0  0  0  0  0  0  0  0  0  0
    9.0392  -16.6819   22.8500 O   0  0  0  0  0  0  0  0  0  0  0  0
    9.7526  -15.5249   23.1619 C   0  0  0  0  0  0  0  0  0  0  0  0
   11.2305  -15.8112   23.2514 C   0  0  2  0  0  0  0  0  0  0  0  0
   11.6654  -16.5408   22.0850 N   0  0  0  0  0  0  0  0  0  0  0  0
   11.4459  -16.6271   24.4831 C   0  0  0  0  0  0  0  0  0  0  0  0
   11.7640  -17.8384   24.4456 O   0  0  0  0  0  0  0  0  0  0  0  0
   11.2765  -15.9778   25.6982 O   0  0  0  0  0  0  0  0  0  0  0  0
  2  3  2  0
  2  1  1  0
  4  2  1  0
  5  4  1  0
  5  7  1  0
  5  6  1  6
  7  8  2  0
  9 10  1  0
 10 11  2  0
 10 20  1  0
 11 12  1  0
 12 13  2  0
 13 14  1  0
 15 14  1  6
 16  7  1  0
 16 15  1  0
 17 15  1  0
 17 18  2  0
 19 13  1  0
 20 19  2  0
 21 22  1  0
 23 22  1  6
 23 24  1  0
 24 17  1  0
 25 23  1  0
 25 27  1  0
 26 25  2  0
M  END
$$$$
