NYS.pdb
     RDKit          3D

 27 27  0  0  1  0  0  0  0  0999 V2000
   13.5823  -18.6424   20.0430 N   0  0  0  0  0  0  0  0  0  0  0  0
   12.5407  -17.7287   19.7419 C   0  0  0  0  0  0  0  0  0  0  0  0
   11.9733  -17.8739   18.6207 O   0  0  0  0  0  0  0  0  0  0  0  0
   12.1438  -16.6628   20.6955 C   0  0  0  0  0  0  0  0  0  0  0  0
   11.1848  -17.2478   21.6866 C   0  0  2  0  0  0  0  0  0  0  0  0
   10.0818  -17.8239   20.9577 N   0  0  0  0  0  0  0  0  0  0  0  0
   10.7488  -16.2916   22.7132 C   0  0  0  0  0  0  0  0  0  0  0  0
   11.6183  -15.6723   23.3747 O   0  0  0  0  0  0  0  0  0  0  0  0
    5.4535  -11.0267   27.4331 O   0  0  0  0  0  0  0  0  0  0  0  0
    6.0168  -11.8536   26.4559 C   0  0  0  0  0  0  0  0  0  0  0  0
    5.5830  -13.1536   26.3157 C   0  0  0  0  0  0  0  0  0  0  0  0
    6.1106  -13.9819   25.3755 C   0  0  0  0  0  0  0  0  0  0  0  0
    7.1150  -13.5450   24.5141 C   0  0  0  0  0  0  0  0  0  0  0  0
    7.6681  -14.4802   23.5094 C   0  0  0  0  0  0  0  0  0  0  0  0
    8.9377  -15.1414   23.9440 C   0  0  2  0  0  0  0  0  0  0  0  0
    9.3794  -16.0795   22.9448 N   0  0  0  0  0  0  0  0  0  0  0  0
    8.9052  -15.7764   25.2727 C   0  0  0  0  0  0  0  0  0  0  0  0
    8.3980  -15.1363   26.2273 O   0  0  0  0  0  0  0  0  0  0  0  0
    7.5496  -12.2446   24.6536 C   0  0  0  0  0  0  0  0  0  0  0  0
    7.0165  -11.3926   25.6104 C   0  0  0  0  0  0  0  0  0  0  0  0
    7.4930  -19.1473   25.9767 O   0  0  0  0  0  0  0  0  0  0  0  0
    7.8424  -18.2302   26.9676 C   0  0  0  0  0  0  0  0  0  0  0  0
    9.2673  -17.7679   26.7952 C   0  0  2  0  0  0  0  0  0  0  0  0
    9.4138  -17.0710   25.5403 N   0  0  0  0  0  0  0  0  0  0  0  0
   10.1299  -18.9865   26.8150 C   0  0  0  0  0  0  0  0  0  0  0  0
   10.1868  -19.7596   27.7993 O   0  0  0  0  0  0  0  0  0  0  0  0
   10.8829  -19.2354   25.6758 O   0  0  0  0  0  0  0  0  0  0  0  0
  2  3  2  0
  2  1  1  0
  4  2  1  0
  5  4  1  0
  5  7  1  0
  5  6  1  6
  7  8  2  0
  9 10  1  0
 10 11  2  0
 10 20  1  0
 11 12  1  0
 12 13  2  0
 13 14  1  0
 15 14  1  6
 16  7  1  0
 16 15  1  0
 17 15  1  0
 17 18  2  0
 19 13  1  0
 20 19  2  0
 21 22  1  0
 23 22  1  6
 23 24  1  0
 24 17  1  0
 25 23  1  0
 25 27  1  0
 26 25  2  0
M  END
$$$$
