NYS.pdb
     RDKit          3D

 27 27  0  0  1  0  0  0  0  0999 V2000
   13.3349  -16.7770   17.2264 N   0  0  0  0  0  0  0  0  0  0  0  0
   11.9511  -16.5820   16.9865 C   0  0  0  0  0  0  0  0  0  0  0  0
   11.6159  -16.3540   15.7882 O   0  0  0  0  0  0  0  0  0  0  0  0
   10.9566  -16.6436   18.0864 C   0  0  0  0  0  0  0  0  0  0  0  0
   11.6918  -16.8176   19.3799 C   0  0  2  0  0  0  0  0  0  0  0  0
   11.5285  -18.1848   19.8087 N   0  0  0  0  0  0  0  0  0  0  0  0
   11.2981  -15.8486   20.4116 C   0  0  0  0  0  0  0  0  0  0  0  0
   12.1164  -14.9593   20.7531 O   0  0  0  0  0  0  0  0  0  0  0  0
    7.3240  -12.3784   16.6934 O   0  0  0  0  0  0  0  0  0  0  0  0
    7.5683  -12.8805   17.9757 C   0  0  0  0  0  0  0  0  0  0  0  0
    7.2452  -14.1843   18.2813 C   0  0  0  0  0  0  0  0  0  0  0  0
    7.4703  -14.7016   19.5184 C   0  0  0  0  0  0  0  0  0  0  0  0
    8.0392  -13.9286   20.5286 C   0  0  0  0  0  0  0  0  0  0  0  0
    8.2608  -14.5270   21.8638 C   0  0  0  0  0  0  0  0  0  0  0  0
    9.6544  -15.0304   22.0689 C   0  0  2  0  0  0  0  0  0  0  0  0
   10.0251  -15.9228   21.0013 N   0  0  0  0  0  0  0  0  0  0  0  0
    9.9245  -15.6485   23.3784 C   0  0  0  0  0  0  0  0  0  0  0  0
    9.5688  -15.0320   24.4136 O   0  0  0  0  0  0  0  0  0  0  0  0
    8.3628  -12.6241   20.2237 C   0  0  0  0  0  0  0  0  0  0  0  0
    8.1364  -12.0883   18.9639 C   0  0  0  0  0  0  0  0  0  0  0  0
   10.7533  -19.6433   23.7158 O   0  0  0  0  0  0  0  0  0  0  0  0
   10.3155  -18.9320   24.8327 C   0  0  0  0  0  0  0  0  0  0  0  0
   10.8461  -17.5205   24.8142 C   0  0  2  0  0  0  0  0  0  0  0  0
   10.5639  -16.9018   23.5416 N   0  0  0  0  0  0  0  0  0  0  0  0
   12.3205  -17.6026   25.0350 C   0  0  0  0  0  0  0  0  0  0  0  0
   13.1551  -17.2443   24.1719 O   0  0  0  0  0  0  0  0  0  0  0  0
   12.7403  -18.1021   26.2601 O   0  0  0  0  0  0  0  0  0  0  0  0
  2  3  2  0
  2  1  1  0
  4  2  1  0
  5  4  1  0
  5  7  1  0
  5  6  1  1
  7  8  2  0
  9 10  1  0
 10 11  2  0
 10 20  1  0
 11 12  1  0
 12 13  2  0
 13 14  1  0
 15 14  1  1
 16  7  1  0
 16 15  1  0
 17 15  1  0
 17 18  2  0
 19 13  1  0
 20 19  2  0
 21 22  1  0
 23 22  1  6
 23 24  1  0
 24 17  1  0
 25 23  1  0
 25 27  1  0
 26 25  2  0
M  END
$$$$
