NYS.pdb
     RDKit          3D

 27 27  0  0  1  0  0  0  0  0999 V2000
    7.0658  -12.7079   18.2718 N   0  0  0  0  0  0  0  0  0  0  0  0
    8.1236  -13.4617   18.8404 C   0  0  0  0  0  0  0  0  0  0  0  0
    8.8272  -14.1374   18.0351 O   0  0  0  0  0  0  0  0  0  0  0  0
    8.3847  -13.4530   20.3014 C   0  0  0  0  0  0  0  0  0  0  0  0
    8.5534  -14.8690   20.7603 C   0  0  2  0  0  0  0  0  0  0  0  0
    7.3362  -15.5843   20.4659 N   0  0  0  0  0  0  0  0  0  0  0  0
    8.9521  -14.9838   22.1696 C   0  0  0  0  0  0  0  0  0  0  0  0
   10.0363  -14.4679   22.5378 O   0  0  0  0  0  0  0  0  0  0  0  0
    6.5106  -10.3262   26.8866 O   0  0  0  0  0  0  0  0  0  0  0  0
    6.7146  -11.6526   26.4928 C   0  0  0  0  0  0  0  0  0  0  0  0
    7.5194  -12.4812   27.2435 C   0  0  0  0  0  0  0  0  0  0  0  0
    7.7371  -13.7751   26.8870 C   0  0  0  0  0  0  0  0  0  0  0  0
    7.1515  -14.3143   25.7433 C   0  0  0  0  0  0  0  0  0  0  0  0
    7.4199  -15.7251   25.3859 C   0  0  0  0  0  0  0  0  0  0  0  0
    8.5637  -15.8936   24.4366 C   0  0  2  0  0  0  0  0  0  0  0  0
    8.1281  -15.6612   23.0839 N   0  0  0  0  0  0  0  0  0  0  0  0
    9.2927  -17.1697   24.5343 C   0  0  0  0  0  0  0  0  0  0  0  0
    8.7766  -18.1019   25.1999 O   0  0  0  0  0  0  0  0  0  0  0  0
    6.3463  -13.4860   24.9917 C   0  0  0  0  0  0  0  0  0  0  0  0
    6.1188  -12.1645   25.3483 C   0  0  0  0  0  0  0  0  0  0  0  0
   12.7934  -17.6647   22.4268 O   0  0  0  0  0  0  0  0  0  0  0  0
   12.0743  -18.8293   22.6945 C   0  0  0  0  0  0  0  0  0  0  0  0
   11.2430  -18.6738   23.9430 C   0  0  2  0  0  0  0  0  0  0  0  0
   10.5462  -17.4105   23.9203 N   0  0  0  0  0  0  0  0  0  0  0  0
   12.1801  -18.7279   25.1042 C   0  0  0  0  0  0  0  0  0  0  0  0
   12.3683  -17.7527   25.8681 O   0  0  0  0  0  0  0  0  0  0  0  0
   12.8495  -19.9265   25.3095 O   0  0  0  0  0  0  0  0  0  0  0  0
  2  3  2  0
  2  1  1  0
  4  2  1  0
  5  4  1  0
  5  7  1  0
  5  6  1  1
  7  8  2  0
  9 10  1  0
 10 11  2  0
 10 20  1  0
 11 12  1  0
 12 13  2  0
 13 14  1  0
 15 14  1  1
 16  7  1  0
 16 15  1  0
 17 15  1  0
 17 18  2  0
 19 13  1  0
 20 19  2  0
 21 22  1  0
 23 22  1  6
 23 24  1  0
 24 17  1  0
 25 23  1  0
 25 27  1  0
 26 25  2  0
M  END
$$$$
