NYS.pdb
     RDKit          3D

 27 27  0  0  1  0  0  0  0  0999 V2000
   11.1963  -18.9938   17.9072 N   0  0  0  0  0  0  0  0  0  0  0  0
   10.4287  -17.8161   17.7215 C   0  0  0  0  0  0  0  0  0  0  0  0
   10.3063  -17.4080   16.5304 O   0  0  0  0  0  0  0  0  0  0  0  0
    9.8060  -17.1070   18.8670 C   0  0  0  0  0  0  0  0  0  0  0  0
   10.2110  -17.8022   20.1305 C   0  0  2  0  0  0  0  0  0  0  0  0
    9.3997  -18.9861   20.2713 N   0  0  0  0  0  0  0  0  0  0  0  0
   10.1616  -16.9363   21.3164 C   0  0  0  0  0  0  0  0  0  0  0  0
   11.1980  -16.3148   21.6579 O   0  0  0  0  0  0  0  0  0  0  0  0
    7.6048  -11.9420   18.4881 O   0  0  0  0  0  0  0  0  0  0  0  0
    7.6176  -12.7325   19.6418 C   0  0  0  0  0  0  0  0  0  0  0  0
    8.5186  -12.4700   20.6503 C   0  0  0  0  0  0  0  0  0  0  0  0
    8.5558  -13.2201   21.7837 C   0  0  0  0  0  0  0  0  0  0  0  0
    7.6797  -14.2878   21.9687 C   0  0  0  0  0  0  0  0  0  0  0  0
    7.7577  -15.0843   23.2135 C   0  0  0  0  0  0  0  0  0  0  0  0
    8.9249  -16.0192   23.2522 C   0  0  2  0  0  0  0  0  0  0  0  0
    8.9702  -16.8113   22.0505 N   0  0  0  0  0  0  0  0  0  0  0  0
    9.0150  -16.8801   24.4441 C   0  0  0  0  0  0  0  0  0  0  0  0
    8.0585  -17.6556   24.6931 O   0  0  0  0  0  0  0  0  0  0  0  0
    6.7780  -14.5511   20.9602 C   0  0  0  0  0  0  0  0  0  0  0  0
    6.7333  -13.7907   19.8004 C   0  0  0  0  0  0  0  0  0  0  0  0
   12.2393  -18.6495   25.4529 O   0  0  0  0  0  0  0  0  0  0  0  0
   11.0386  -18.9977   26.0710 C   0  0  0  0  0  0  0  0  0  0  0  0
   10.2588  -17.7683   26.4639 C   0  0  2  0  0  0  0  0  0  0  0  0
   10.1199  -16.8864   25.3303 N   0  0  0  0  0  0  0  0  0  0  0  0
   11.0229  -17.0935   27.5548 C   0  0  0  0  0  0  0  0  0  0  0  0
   11.5229  -15.9520   27.4249 O   0  0  0  0  0  0  0  0  0  0  0  0
   11.1612  -17.7949   28.7446 O   0  0  0  0  0  0  0  0  0  0  0  0
  2  3  2  0
  2  1  1  0
  4  2  1  0
  5  4  1  0
  5  7  1  0
  5  6  1  1
  7  8  2  0
  9 10  1  0
 10 11  2  0
 10 20  1  0
 11 12  1  0
 12 13  2  0
 13 14  1  0
 15 14  1  1
 16  7  1  0
 16 15  1  0
 17 15  1  0
 17 18  2  0
 19 13  1  0
 20 19  2  0
 21 22  1  0
 23 22  1  6
 23 24  1  0
 24 17  1  0
 25 23  1  0
 25 27  1  0
 26 25  2  0
M  END
$$$$
