NYS.pdb
     RDKit          3D

 27 27  0  0  1  0  0  0  0  0999 V2000
    7.9298  -16.1124   18.3668 N   0  0  0  0  0  0  0  0  0  0  0  0
    8.2848  -17.3595   18.9406 C   0  0  0  0  0  0  0  0  0  0  0  0
    8.3153  -18.3505   18.1550 O   0  0  0  0  0  0  0  0  0  0  0  0
    8.6017  -17.4870   20.3850 C   0  0  0  0  0  0  0  0  0  0  0  0
    8.4633  -16.1376   21.0206 C   0  0  2  0  0  0  0  0  0  0  0  0
    9.1354  -15.1755   20.1825 N   0  0  0  0  0  0  0  0  0  0  0  0
    8.9261  -16.0972   22.4144 C   0  0  0  0  0  0  0  0  0  0  0  0
   10.1255  -15.8072   22.6477 O   0  0  0  0  0  0  0  0  0  0  0  0
    6.6233  -10.2923   26.3184 O   0  0  0  0  0  0  0  0  0  0  0  0
    6.8260  -11.6673   26.1624 C   0  0  0  0  0  0  0  0  0  0  0  0
    5.7652  -12.5395   26.2698 C   0  0  0  0  0  0  0  0  0  0  0  0
    5.9300  -13.8812   26.1233 C   0  0  0  0  0  0  0  0  0  0  0  0
    7.1843  -14.4270   25.8577 C   0  0  0  0  0  0  0  0  0  0  0  0
    7.3226  -15.8933   25.7127 C   0  0  0  0  0  0  0  0  0  0  0  0
    8.4634  -16.3018   24.8356 C   0  0  2  0  0  0  0  0  0  0  0  0
    8.0348  -16.3797   23.4630 N   0  0  0  0  0  0  0  0  0  0  0  0
    9.1635  -17.5361   25.2308 C   0  0  0  0  0  0  0  0  0  0  0  0
    8.5496  -18.6276   25.1313 O   0  0  0  0  0  0  0  0  0  0  0  0
    8.2462  -13.5551   25.7502 C   0  0  0  0  0  0  0  0  0  0  0  0
    8.0868  -12.1847   25.8983 C   0  0  0  0  0  0  0  0  0  0  0  0
   13.3235  -19.8353   26.1218 O   0  0  0  0  0  0  0  0  0  0  0  0
   12.6362  -18.6876   25.7275 C   0  0  0  0  0  0  0  0  0  0  0  0
   11.1869  -18.7602   26.1377 C   0  0  2  0  0  0  0  0  0  0  0  0
   10.4929  -17.5666   25.7185 N   0  0  0  0  0  0  0  0  0  0  0  0
   11.1572  -18.8813   27.6256 C   0  0  0  0  0  0  0  0  0  0  0  0
   11.6594  -19.8536   28.2358 O   0  0  0  0  0  0  0  0  0  0  0  0
   10.5381  -17.8526   28.3223 O   0  0  0  0  0  0  0  0  0  0  0  0
  2  3  2  0
  2  1  1  0
  4  2  1  0
  5  4  1  0
  5  7  1  0
  5  6  1  6
  7  8  2  0
  9 10  1  0
 10 11  2  0
 10 20  1  0
 11 12  1  0
 12 13  2  0
 13 14  1  0
 15 14  1  1
 16  7  1  0
 16 15  1  0
 17 15  1  0
 17 18  2  0
 19 13  1  0
 20 19  2  0
 21 22  1  0
 23 22  1  1
 23 24  1  0
 24 17  1  0
 25 23  1  0
 25 27  1  0
 26 25  2  0
M  END
$$$$
