NYS.pdb
     RDKit          3D

 27 27  0  0  1  0  0  0  0  0999 V2000
   12.7106  -17.7329   17.5272 N   0  0  0  0  0  0  0  0  0  0  0  0
   11.3809  -17.6201   18.0063 C   0  0  0  0  0  0  0  0  0  0  0  0
   10.5429  -18.4423   17.5351 O   0  0  0  0  0  0  0  0  0  0  0  0
   11.0009  -16.5909   19.0060 C   0  0  0  0  0  0  0  0  0  0  0  0
   10.4932  -17.2866   20.2317 C   0  0  2  0  0  0  0  0  0  0  0  0
    9.2791  -17.9821   19.8826 N   0  0  0  0  0  0  0  0  0  0  0  0
   10.3230  -16.3915   21.3842 C   0  0  0  0  0  0  0  0  0  0  0  0
   11.3411  -15.8754   21.9077 O   0  0  0  0  0  0  0  0  0  0  0  0
    6.3990  -11.9152   27.9198 O   0  0  0  0  0  0  0  0  0  0  0  0
    6.7136  -12.5468   26.7123 C   0  0  0  0  0  0  0  0  0  0  0  0
    6.1440  -13.7610   26.3978 C   0  0  0  0  0  0  0  0  0  0  0  0
    6.4296  -14.4000   25.2321 C   0  0  0  0  0  0  0  0  0  0  0  0
    7.3137  -13.8479   24.3072 C   0  0  0  0  0  0  0  0  0  0  0  0
    7.6038  -14.5789   23.0536 C   0  0  0  0  0  0  0  0  0  0  0  0
    8.8653  -15.3811   23.1082 C   0  0  2  0  0  0  0  0  0  0  0  0
    9.0386  -16.1227   21.8860 N   0  0  0  0  0  0  0  0  0  0  0  0
    9.0098  -16.2664   24.2765 C   0  0  0  0  0  0  0  0  0  0  0  0
    8.1961  -17.2142   24.4107 O   0  0  0  0  0  0  0  0  0  0  0  0
    7.8841  -12.6332   24.6211 C   0  0  0  0  0  0  0  0  0  0  0  0
    7.5981  -11.9745   25.8084 C   0  0  0  0  0  0  0  0  0  0  0  0
   11.7197  -18.3165   25.0258 O   0  0  0  0  0  0  0  0  0  0  0  0
   11.5818  -17.6673   26.2524 C   0  0  0  0  0  0  0  0  0  0  0  0
   10.2266  -17.0160   26.3676 C   0  0  2  0  0  0  0  0  0  0  0  0
   10.0152  -16.1130   25.2623 N   0  0  0  0  0  0  0  0  0  0  0  0
   10.2076  -16.2674   27.6593 C   0  0  0  0  0  0  0  0  0  0  0  0
   10.3589  -16.8286   28.7693 O   0  0  0  0  0  0  0  0  0  0  0  0
   10.0114  -14.8954   27.5816 O   0  0  0  0  0  0  0  0  0  0  0  0
  2  3  2  0
  2  1  1  0
  4  2  1  0
  5  4  1  0
  5  7  1  0
  5  6  1  6
  7  8  2  0
  9 10  1  0
 10 11  2  0
 10 20  1  0
 11 12  1  0
 12 13  2  0
 13 14  1  0
 15 14  1  6
 16  7  1  0
 16 15  1  0
 17 15  1  0
 17 18  2  0
 19 13  1  0
 20 19  2  0
 21 22  1  0
 23 22  1  6
 23 24  1  0
 24 17  1  0
 25 23  1  0
 25 27  1  0
 26 25  2  0
M  END
$$$$
