VMS.pdb
     RDKit          3D

 22 21  0  0  1  0  0  0  0  0999 V2000
   17.0694  -13.0253  -16.9169 C   0  0  0  0  0  0  0  0  0  0  0  0
   17.6172  -11.8983  -16.1007 C   0  0  2  0  0  0  0  0  0  0  0  0
   16.9648  -10.6103  -16.5015 C   0  0  0  0  0  0  0  0  0  0  0  0
   19.1173  -11.7567  -16.2153 C   0  0  2  0  0  0  0  0  0  0  0  0
   19.8347  -12.9367  -15.8524 N   0  0  0  0  0  0  0  0  0  0  0  0
   19.6138  -10.5841  -15.4336 C   0  0  0  0  0  0  0  0  0  0  0  0
   19.0650  -10.3163  -14.3409 O   0  0  0  0  0  0  0  0  0  0  0  0
   26.3629  -10.4531  -14.2667 C   0  0  0  0  0  0  0  0  0  0  0  0
   25.3447   -9.2396  -15.1887 S   0  0  0  0  0  0  0  0  0  0  0  0
   23.5731   -9.6092  -14.9097 C   0  0  0  0  0  0  0  0  0  0  0  0
   22.7704   -8.5398  -15.5546 C   0  0  0  0  0  0  0  0  0  0  0  0
   21.2696   -8.6472  -15.3236 C   0  0  2  0  0  0  0  0  0  0  0  0
   20.6772   -9.8128  -15.9376 N   0  0  0  0  0  0  0  0  0  0  0  0
   20.6516   -7.4255  -15.8660 C   0  0  0  0  0  0  0  0  0  0  0  0
   20.4820   -7.2983  -17.1251 O   0  0  0  0  0  0  0  0  0  0  0  0
   17.3464   -6.0384  -15.1078 O   0  0  0  0  0  0  0  0  0  0  0  0
   18.2592   -5.0470  -14.7713 C   0  0  0  0  0  0  0  0  0  0  0  0
   19.5284   -5.2299  -15.6115 C   0  0  2  0  0  0  0  0  0  0  0  0
   20.2257   -6.3568  -15.0318 N   0  0  0  0  0  0  0  0  0  0  0  0
   20.3748   -4.0315  -15.5827 C   0  0  0  0  0  0  0  0  0  0  0  0
   21.5345   -4.1149  -15.0989 O   0  0  0  0  0  0  0  0  0  0  0  0
   19.9279   -2.8021  -16.0779 O   0  0  0  0  0  0  0  0  0  0  0  0
  2  1  1  6
  2  3  1  0
  4  2  1  0
  4  6  1  0
  4  5  1  1
  6 13  1  0
  6  7  2  0
  8  9  1  0
  9 10  1  0
 10 11  1  0
 12 11  1  6
 12 14  1  0
 13 12  1  0
 14 15  2  0
 16 17  1  0
 18 17  1  1
 18 20  1  0
 19 14  1  0
 19 18  1  0
 20 22  1  0
 21 20  2  0
M  END
$$$$
