VMS.pdb
     RDKit          3D

 22 21  0  0  1  0  0  0  0  0999 V2000
   22.5006  -14.1606  -17.0221 C   0  0  0  0  0  0  0  0  0  0  0  0
   23.1458  -12.8242  -16.8374 C   0  0  2  0  0  0  0  0  0  0  0  0
   24.3895  -12.9645  -16.0135 C   0  0  0  0  0  0  0  0  0  0  0  0
   22.2315  -11.8072  -16.1947 C   0  0  2  0  0  0  0  0  0  0  0  0
   20.8432  -12.0843  -16.3817 N   0  0  0  0  0  0  0  0  0  0  0  0
   22.5524  -10.4217  -16.6527 C   0  0  0  0  0  0  0  0  0  0  0  0
   23.7316  -10.0144  -16.5501 O   0  0  0  0  0  0  0  0  0  0  0  0
   18.5685   -9.1242  -21.2122 C   0  0  0  0  0  0  0  0  0  0  0  0
   20.1004   -8.1482  -21.4578 S   0  0  0  0  0  0  0  0  0  0  0  0
   21.2912   -8.5577  -20.1285 C   0  0  0  0  0  0  0  0  0  0  0  0
   20.8068   -7.9417  -18.8677 C   0  0  0  0  0  0  0  0  0  0  0  0
   21.6591   -8.2481  -17.6442 C   0  0  2  0  0  0  0  0  0  0  0  0
   21.5322   -9.6115  -17.1842 N   0  0  0  0  0  0  0  0  0  0  0  0
   21.2498   -7.3185  -16.5778 C   0  0  0  0  0  0  0  0  0  0  0  0
   20.1912   -7.5462  -15.9013 O   0  0  0  0  0  0  0  0  0  0  0  0
   21.8062   -5.4932  -12.7307 O   0  0  0  0  0  0  0  0  0  0  0  0
   21.9220   -6.2544  -13.8868 C   0  0  0  0  0  0  0  0  0  0  0  0
   21.6377   -5.3643  -15.1022 C   0  0  2  0  0  0  0  0  0  0  0  0
   21.9973   -6.1524  -16.2605 N   0  0  0  0  0  0  0  0  0  0  0  0
   22.4210   -4.1241  -15.0608 C   0  0  0  0  0  0  0  0  0  0  0  0
   23.5030   -4.0640  -15.7022 O   0  0  0  0  0  0  0  0  0  0  0  0
   21.9975   -3.0097  -14.3293 O   0  0  0  0  0  0  0  0  0  0  0  0
  2  1  1  1
  2  3  1  0
  4  2  1  0
  4  6  1  0
  4  5  1  6
  6 13  1  0
  6  7  2  0
  8  9  1  0
  9 10  1  0
 10 11  1  0
 12 11  1  6
 12 14  1  0
 13 12  1  0
 14 15  2  0
 16 17  1  0
 18 17  1  1
 18 20  1  0
 19 14  1  0
 19 18  1  0
 20 22  1  0
 21 20  2  0
M  END
$$$$
