VMS.pdb
     RDKit          3D

 22 21  0  0  1  0  0  0  0  0999 V2000
   23.6976  -14.1319  -18.4089 C   0  0  0  0  0  0  0  0  0  0  0  0
   24.8584  -13.2289  -18.6803 C   0  0  2  0  0  0  0  0  0  0  0  0
   26.1350  -14.0132  -18.6558 C   0  0  0  0  0  0  0  0  0  0  0  0
   24.9578  -12.0799  -17.7040 C   0  0  2  0  0  0  0  0  0  0  0  0
   25.2601  -12.4857  -16.3687 N   0  0  0  0  0  0  0  0  0  0  0  0
   23.7225  -11.2397  -17.7260 C   0  0  0  0  0  0  0  0  0  0  0  0
   23.3669  -10.7248  -18.8101 O   0  0  0  0  0  0  0  0  0  0  0  0
   16.4899  -11.0949  -15.0133 C   0  0  0  0  0  0  0  0  0  0  0  0
   18.2369  -11.5084  -14.6439 S   0  0  0  0  0  0  0  0  0  0  0  0
   19.3243  -10.6193  -15.8187 C   0  0  0  0  0  0  0  0  0  0  0  0
   20.7295  -10.9982  -15.5257 C   0  0  0  0  0  0  0  0  0  0  0  0
   21.7685  -10.2939  -16.3869 C   0  0  2  0  0  0  0  0  0  0  0  0
   22.9921  -11.0464  -16.5389 N   0  0  0  0  0  0  0  0  0  0  0  0
   22.0541   -8.9934  -15.7578 C   0  0  0  0  0  0  0  0  0  0  0  0
   22.8656   -8.9219  -14.7746 O   0  0  0  0  0  0  0  0  0  0  0  0
   22.2929   -4.2829  -16.2637 O   0  0  0  0  0  0  0  0  0  0  0  0
   21.9070   -5.5203  -16.7633 C   0  0  0  0  0  0  0  0  0  0  0  0
   21.8430   -6.5275  -15.6094 C   0  0  2  0  0  0  0  0  0  0  0  0
   21.4533   -7.7861  -16.2061 N   0  0  0  0  0  0  0  0  0  0  0  0
   20.8716   -6.1203  -14.5877 C   0  0  0  0  0  0  0  0  0  0  0  0
   19.6744   -6.4943  -14.7005 O   0  0  0  0  0  0  0  0  0  0  0  0
   21.2403   -5.3296  -13.4945 O   0  0  0  0  0  0  0  0  0  0  0  0
  2  1  1  1
  2  3  1  0
  4  2  1  0
  4  6  1  0
  4  5  1  1
  6 13  1  0
  6  7  2  0
  8  9  1  0
  9 10  1  0
 10 11  1  0
 12 11  1  1
 12 14  1  0
 13 12  1  0
 14 15  2  0
 16 17  1  0
 18 17  1  6
 18 20  1  0
 19 14  1  0
 19 18  1  0
 20 22  1  0
 21 20  2  0
M  END
$$$$
