MDR.pdb
     RDKit          3D

 28 27  0  0  1  0  0  0  0  0999 V2000
   21.1379  -26.9227   -1.6595 C   0  0  0  0  0  0  0  0  0  0  0  0
   20.3343  -27.8991   -0.3821 S   0  0  0  0  0  0  0  0  0  0  0  0
   18.5551  -27.5602   -0.4263 C   0  0  0  0  0  0  0  0  0  0  0  0
   18.1597  -27.2722   -1.8524 C   0  0  0  0  0  0  0  0  0  0  0  0
   16.7119  -26.9616   -2.0351 C   0  0  2  0  0  0  0  0  0  0  0  0
   15.8749  -28.1045   -1.6762 N   0  0  0  0  0  0  0  0  0  0  0  0
   16.3262  -26.5096   -3.3776 C   0  0  0  0  0  0  0  0  0  0  0  0
   16.2605  -27.3808   -4.3044 O   0  0  0  0  0  0  0  0  0  0  0  0
   16.0394  -25.1597   -3.6296 N   0  0  0  0  0  0  0  0  0  0  0  0
   15.5994  -24.6719   -4.9182 C   0  0  1  0  0  0  0  0  0  0  0  0
   14.9215  -23.3495   -4.8411 C   0  0  0  0  0  0  0  0  0  0  0  0
   13.8160  -23.4301   -3.8630 C   0  0  0  0  0  0  0  0  0  0  0  0
   13.6784  -22.5591   -2.9392 O   0  0  0  0  0  0  0  0  0  0  0  0
   16.7528  -24.6871   -5.8495 C   0  0  0  0  0  0  0  0  0  0  0  0
   17.9355  -24.6455   -5.4494 O   0  0  0  0  0  0  0  0  0  0  0  0
   12.8684  -24.4348   -3.8763 O   0  0  0  0  0  0  0  0  0  0  0  0
   21.3116  -28.5243  -11.8560 N   0  0  0  0  0  0  0  0  0  0  0  0
   21.0458  -28.9314  -10.5263 C   0  0  0  0  0  0  0  0  0  0  0  0
   21.9059  -29.7009   -9.9093 N   0  0  0  0  0  0  0  0  0  0  0  0
   19.8552  -28.4967   -9.8924 N   0  0  0  0  0  0  0  0  0  0  0  0
   19.0142  -27.5220  -10.5082 C   0  0  0  0  0  0  0  0  0  0  0  0
   18.9388  -26.2301   -9.7495 C   0  0  0  0  0  0  0  0  0  0  0  0
   17.7321  -26.1818   -8.8327 C   0  0  0  0  0  0  0  0  0  0  0  0
   17.5994  -24.8080   -8.1943 C   0  0  2  0  0  0  0  0  0  0  0  0
   16.5127  -24.7511   -7.2430 N   0  0  0  0  0  0  0  0  0  0  0  0
   17.3758  -23.7605   -9.2208 C   0  0  0  0  0  0  0  0  0  0  0  0
   18.4640  -23.3213   -9.9569 O   0  0  0  0  0  0  0  0  0  0  0  0
   16.2208  -23.2838   -9.4158 O   0  0  0  0  0  0  0  0  0  0  0  0
  2  1  1  0
  3  2  1  0
  4  5  1  0
  4  3  1  0
  5  6  1  6
  7  9  1  0
  7  5  1  0
  8  7  2  0
 10  9  1  0
 10 11  1  1
 12 16  1  0
 12 11  1  0
 13 12  2  0
 14 15  2  0
 14 10  1  0
 17 18  1  0
 18 19  2  0
 20 18  1  0
 20 21  1  0
 22 21  1  0
 22 23  1  0
 24 23  1  6
 24 25  1  0
 25 14  1  0
 26 24  1  0
 27 26  1  0
 28 26  2  0
M  END
$$$$
