MDR.pdb
     RDKit          3D

 28 27  0  0  1  0  0  0  0  0999 V2000
   11.1558  -16.2115  -13.2054 C   0  0  0  0  0  0  0  0  0  0  0  0
   12.0286  -14.6648  -13.4824 S   0  0  0  0  0  0  0  0  0  0  0  0
   13.6678  -14.7792  -12.7192 C   0  0  0  0  0  0  0  0  0  0  0  0
   14.4091  -13.4939  -12.9862 C   0  0  0  0  0  0  0  0  0  0  0  0
   15.7926  -13.6833  -13.5116 C   0  0  2  0  0  0  0  0  0  0  0  0
   16.4354  -14.8474  -12.9055 N   0  0  0  0  0  0  0  0  0  0  0  0
   16.6893  -12.5304  -13.3629 C   0  0  0  0  0  0  0  0  0  0  0  0
   17.1362  -12.2685  -12.1993 O   0  0  0  0  0  0  0  0  0  0  0  0
   17.0415  -11.7431  -14.4692 N   0  0  0  0  0  0  0  0  0  0  0  0
   17.9071  -10.5881  -14.3745 C   0  0  1  0  0  0  0  0  0  0  0  0
   18.7278  -10.3722  -15.5968 C   0  0  0  0  0  0  0  0  0  0  0  0
   19.6354   -9.2270  -15.3727 C   0  0  0  0  0  0  0  0  0  0  0  0
   20.4032   -9.1744  -14.3535 O   0  0  0  0  0  0  0  0  0  0  0  0
   17.0868   -9.4107  -14.0024 C   0  0  0  0  0  0  0  0  0  0  0  0
   16.0086   -9.1400  -14.5724 O   0  0  0  0  0  0  0  0  0  0  0  0
   19.7179   -8.1498  -16.2332 O   0  0  0  0  0  0  0  0  0  0  0  0
   14.3122   -6.7168   -6.6729 N   0  0  0  0  0  0  0  0  0  0  0  0
   13.8653   -7.5160   -7.7526 C   0  0  0  0  0  0  0  0  0  0  0  0
   12.9366   -8.4137   -7.5419 N   0  0  0  0  0  0  0  0  0  0  0  0
   14.4324   -7.3266   -9.0375 N   0  0  0  0  0  0  0  0  0  0  0  0
   15.1579   -6.1373   -9.3471 C   0  0  0  0  0  0  0  0  0  0  0  0
   15.6817   -6.1034  -10.7524 C   0  0  0  0  0  0  0  0  0  0  0  0
   16.3720   -7.3994  -11.1306 C   0  0  0  0  0  0  0  0  0  0  0  0
   16.7978   -7.3731  -12.5902 C   0  0  2  0  0  0  0  0  0  0  0  0
   17.5351   -8.5585  -12.9649 N   0  0  0  0  0  0  0  0  0  0  0  0
   17.6418   -6.1880  -12.8799 C   0  0  0  0  0  0  0  0  0  0  0  0
   17.0360   -4.9425  -12.9060 O   0  0  0  0  0  0  0  0  0  0  0  0
   18.8812   -6.3155  -13.0967 O   0  0  0  0  0  0  0  0  0  0  0  0
  2  1  1  0
  3  2  1  0
  4  5  1  0
  4  3  1  0
  5  6  1  1
  7  9  1  0
  7  5  1  0
  8  7  2  0
 10  9  1  0
 10 11  1  6
 12 16  1  0
 12 11  1  0
 13 12  2  0
 14 15  2  0
 14 10  1  0
 17 18  1  0
 18 19  2  0
 20 18  1  0
 20 21  1  0
 22 21  1  0
 22 23  1  0
 24 23  1  1
 24 25  1  0
 25 14  1  0
 26 24  1  0
 27 26  1  0
 28 26  2  0
M  END
$$$$
