MDR.pdb
     RDKit          3D

 28 27  0  0  1  0  0  0  0  0999 V2000
   25.2506  -20.0908   -8.5666 C   0  0  0  0  0  0  0  0  0  0  0  0
   26.6544  -21.0303   -9.1809 S   0  0  0  0  0  0  0  0  0  0  0  0
   27.3359  -20.1765  -10.6262 C   0  0  0  0  0  0  0  0  0  0  0  0
   26.2464  -20.0442  -11.6597 C   0  0  0  0  0  0  0  0  0  0  0  0
   26.0939  -21.2360  -12.5441 C   0  0  2  0  0  0  0  0  0  0  0  0
   27.3131  -21.4882  -13.3093 N   0  0  0  0  0  0  0  0  0  0  0  0
   24.9627  -21.1898  -13.4789 C   0  0  0  0  0  0  0  0  0  0  0  0
   25.0586  -20.4267  -14.4941 O   0  0  0  0  0  0  0  0  0  0  0  0
   23.8130  -21.9629  -13.2588 N   0  0  0  0  0  0  0  0  0  0  0  0
   22.6534  -21.9192  -14.1222 C   0  0  1  0  0  0  0  0  0  0  0  0
   21.9120  -23.2085  -14.1693 C   0  0  0  0  0  0  0  0  0  0  0  0
   22.7259  -24.2070  -14.8946 C   0  0  0  0  0  0  0  0  0  0  0  0
   23.2789  -25.1846  -14.2868 O   0  0  0  0  0  0  0  0  0  0  0  0
   21.8074  -20.7697  -13.7210 C   0  0  0  0  0  0  0  0  0  0  0  0
   21.5606  -20.5065  -12.5250 O   0  0  0  0  0  0  0  0  0  0  0  0
   22.9439  -24.1566  -16.2575 O   0  0  0  0  0  0  0  0  0  0  0  0
   23.4623  -14.5409  -15.7754 N   0  0  0  0  0  0  0  0  0  0  0  0
   23.9247  -15.2268  -16.9244 C   0  0  0  0  0  0  0  0  0  0  0  0
   25.1453  -15.0159  -17.3468 N   0  0  0  0  0  0  0  0  0  0  0  0
   23.0567  -16.1268  -17.5916 N   0  0  0  0  0  0  0  0  0  0  0  0
   21.7601  -16.4132  -17.0689 C   0  0  0  0  0  0  0  0  0  0  0  0
   21.7694  -17.4309  -15.9668 C   0  0  0  0  0  0  0  0  0  0  0  0
   20.3677  -17.7772  -15.5042 C   0  0  0  0  0  0  0  0  0  0  0  0
   20.4116  -18.8119  -14.3907 C   0  0  2  0  0  0  0  0  0  0  0  0
   21.2564  -19.9364  -14.7239 N   0  0  0  0  0  0  0  0  0  0  0  0
   19.0539  -19.3239  -14.0823 C   0  0  0  0  0  0  0  0  0  0  0  0
   18.2349  -18.5601  -13.2671 O   0  0  0  0  0  0  0  0  0  0  0  0
   18.6582  -20.4289  -14.5533 O   0  0  0  0  0  0  0  0  0  0  0  0
  2  1  1  0
  3  2  1  0
  4  5  1  0
  4  3  1  0
  5  6  1  6
  7  9  1  0
  7  5  1  0
  8  7  2  0
 10  9  1  0
 10 11  1  1
 12 16  1  0
 12 11  1  0
 13 12  2  0
 14 15  2  0
 14 10  1  0
 17 18  1  0
 18 19  2  0
 20 18  1  0
 20 21  1  0
 22 21  1  0
 22 23  1  0
 24 23  1  6
 24 25  1  0
 25 14  1  0
 26 24  1  0
 27 26  1  0
 28 26  2  0
M  END
$$$$
