MDR.pdb
     RDKit          3D

 28 27  0  0  1  0  0  0  0  0999 V2000
   19.7608  -13.5609  -18.1055 C   0  0  0  0  0  0  0  0  0  0  0  0
   19.5973  -12.5164  -16.6519 S   0  0  0  0  0  0  0  0  0  0  0  0
   21.1135  -11.5425  -16.4641 C   0  0  0  0  0  0  0  0  0  0  0  0
   20.9223  -10.5779  -15.3214 C   0  0  0  0  0  0  0  0  0  0  0  0
   22.1263   -9.7546  -15.0078 C   0  0  2  0  0  0  0  0  0  0  0  0
   23.2093  -10.5795  -14.4764 N   0  0  0  0  0  0  0  0  0  0  0  0
   21.9040   -8.6338  -14.0859 C   0  0  0  0  0  0  0  0  0  0  0  0
   21.9344   -8.8749  -12.8356 O   0  0  0  0  0  0  0  0  0  0  0  0
   21.6656   -7.3386  -14.5691 N   0  0  0  0  0  0  0  0  0  0  0  0
   21.3983   -6.2092  -13.7060 C   0  0  1  0  0  0  0  0  0  0  0  0
   22.0390   -4.9511  -14.1759 C   0  0  0  0  0  0  0  0  0  0  0  0
   21.6732   -3.8512  -13.2585 C   0  0  0  0  0  0  0  0  0  0  0  0
   22.1504   -3.7830  -12.0759 O   0  0  0  0  0  0  0  0  0  0  0  0
   19.9319   -6.0889  -13.5237 C   0  0  0  0  0  0  0  0  0  0  0  0
   19.1276   -6.2214  -14.4703 O   0  0  0  0  0  0  0  0  0  0  0  0
   20.8046   -2.8354  -13.6067 O   0  0  0  0  0  0  0  0  0  0  0  0
   13.8866   -9.3053   -8.1107 N   0  0  0  0  0  0  0  0  0  0  0  0
   13.2829   -8.7304   -9.2550 C   0  0  0  0  0  0  0  0  0  0  0  0
   12.0941   -9.1361   -9.6225 N   0  0  0  0  0  0  0  0  0  0  0  0
   13.9780   -7.7285   -9.9771 N   0  0  0  0  0  0  0  0  0  0  0  0
   15.4032   -7.7373  -10.0501 C   0  0  0  0  0  0  0  0  0  0  0  0
   15.9663   -6.6421  -10.9066 C   0  0  0  0  0  0  0  0  0  0  0  0
   17.4677   -6.7705  -11.0748 C   0  0  0  0  0  0  0  0  0  0  0  0
   17.9977   -5.6852  -11.9989 C   0  0  2  0  0  0  0  0  0  0  0  0
   19.4180   -5.8142  -12.2337 N   0  0  0  0  0  0  0  0  0  0  0  0
   17.7379   -4.3349  -11.4422 C   0  0  0  0  0  0  0  0  0  0  0  0
   18.8244   -3.5507  -11.0907 O   0  0  0  0  0  0  0  0  0  0  0  0
   16.5545   -3.9143  -11.2940 O   0  0  0  0  0  0  0  0  0  0  0  0
  2  1  1  0
  3  2  1  0
  4  5  1  0
  4  3  1  0
  5  6  1  1
  7  9  1  0
  7  5  1  0
  8  7  2  0
 10  9  1  0
 10 11  1  6
 12 16  1  0
 12 11  1  0
 13 12  2  0
 14 15  2  0
 14 10  1  0
 17 18  1  0
 18 19  2  0
 20 18  1  0
 20 21  1  0
 22 21  1  0
 22 23  1  0
 24 23  1  1
 24 25  1  0
 25 14  1  0
 26 24  1  0
 27 26  1  0
 28 26  2  0
M  END
$$$$
