MDR.pdb
     RDKit          3D

 28 27  0  0  1  0  0  0  0  0999 V2000
   26.4235  -17.3668  -17.5753 C   0  0  0  0  0  0  0  0  0  0  0  0
   28.1286  -17.2762  -17.0142 S   0  0  0  0  0  0  0  0  0  0  0  0
   28.5495  -18.8310  -16.1847 C   0  0  0  0  0  0  0  0  0  0  0  0
   27.3640  -19.2691  -15.3628 C   0  0  0  0  0  0  0  0  0  0  0  0
   27.5518  -20.5746  -14.6654 C   0  0  2  0  0  0  0  0  0  0  0  0
   27.8478  -21.6453  -15.6150 N   0  0  0  0  0  0  0  0  0  0  0  0
   26.4339  -21.0053  -13.8167 C   0  0  0  0  0  0  0  0  0  0  0  0
   25.6919  -21.9494  -14.2414 O   0  0  0  0  0  0  0  0  0  0  0  0
   26.1925  -20.3947  -12.5771 N   0  0  0  0  0  0  0  0  0  0  0  0
   25.0389  -20.6963  -11.7583 C   0  0  1  0  0  0  0  0  0  0  0  0
   25.2522  -20.3964  -10.3165 C   0  0  0  0  0  0  0  0  0  0  0  0
   24.0436  -20.7842   -9.5589 C   0  0  0  0  0  0  0  0  0  0  0  0
   22.8809  -20.3911   -9.9118 O   0  0  0  0  0  0  0  0  0  0  0  0
   23.8576  -20.0089  -12.3326 C   0  0  0  0  0  0  0  0  0  0  0  0
   23.9001  -18.8247  -12.7282 O   0  0  0  0  0  0  0  0  0  0  0  0
   24.0825  -21.5853   -8.4345 O   0  0  0  0  0  0  0  0  0  0  0  0
   22.8053  -22.8720  -19.7453 N   0  0  0  0  0  0  0  0  0  0  0  0
   21.7876  -21.8880  -19.7249 C   0  0  0  0  0  0  0  0  0  0  0  0
   21.1877  -21.5654  -20.8424 N   0  0  0  0  0  0  0  0  0  0  0  0
   21.4404  -21.2742  -18.4955 N   0  0  0  0  0  0  0  0  0  0  0  0
   22.1884  -21.5403  -17.3098 C   0  0  0  0  0  0  0  0  0  0  0  0
   21.5854  -20.9415  -16.0736 C   0  0  0  0  0  0  0  0  0  0  0  0
   22.4622  -21.1559  -14.8553 C   0  0  0  0  0  0  0  0  0  0  0  0
   21.7946  -20.5941  -13.6098 C   0  0  2  0  0  0  0  0  0  0  0  0
   22.6347  -20.7135  -12.4396 N   0  0  0  0  0  0  0  0  0  0  0  0
   20.5103  -21.2835  -13.3341 C   0  0  0  0  0  0  0  0  0  0  0  0
   19.4914  -21.1679  -14.2652 O   0  0  0  0  0  0  0  0  0  0  0  0
   20.3539  -21.9581  -12.2758 O   0  0  0  0  0  0  0  0  0  0  0  0
  2  1  1  0
  3  2  1  0
  4  5  1  0
  4  3  1  0
  5  6  1  6
  7  9  1  0
  7  5  1  0
  8  7  2  0
 10  9  1  0
 10 11  1  1
 12 16  1  0
 12 11  1  0
 13 12  2  0
 14 15  2  0
 14 10  1  0
 17 18  1  0
 18 19  2  0
 20 18  1  0
 20 21  1  0
 22 21  1  0
 22 23  1  0
 24 23  1  6
 24 25  1  0
 25 14  1  0
 26 24  1  0
 27 26  1  0
 28 26  2  0
M  END
$$$$
