MDR.pdb
     RDKit          3D

 28 27  0  0  1  0  0  0  0  0999 V2000
   28.4812  -20.4242   -3.7544 C   0  0  0  0  0  0  0  0  0  0  0  0
   27.6927  -19.6411   -5.1672 S   0  0  0  0  0  0  0  0  0  0  0  0
   27.6873  -20.8112   -6.5504 C   0  0  0  0  0  0  0  0  0  0  0  0
   27.1487  -20.1061   -7.7694 C   0  0  0  0  0  0  0  0  0  0  0  0
   27.0714  -20.9635   -8.9879 C   0  0  2  0  0  0  0  0  0  0  0  0
   28.3517  -21.6130   -9.2615 N   0  0  0  0  0  0  0  0  0  0  0  0
   26.6262  -20.2854  -10.2116 C   0  0  0  0  0  0  0  0  0  0  0  0
   27.4265  -19.4614  -10.7618 O   0  0  0  0  0  0  0  0  0  0  0  0
   25.3584  -20.5386  -10.7561 N   0  0  0  0  0  0  0  0  0  0  0  0
   25.0879  -20.5104  -12.1767 C   0  0  1  0  0  0  0  0  0  0  0  0
   26.0291  -21.3495  -12.9667 C   0  0  0  0  0  0  0  0  0  0  0  0
   25.7462  -21.1675  -14.4063 C   0  0  0  0  0  0  0  0  0  0  0  0
   24.8930  -21.8969  -15.0153 O   0  0  0  0  0  0  0  0  0  0  0  0
   23.6640  -20.8609  -12.3948 C   0  0  0  0  0  0  0  0  0  0  0  0
   23.2252  -22.0168  -12.2163 O   0  0  0  0  0  0  0  0  0  0  0  0
   26.3724  -20.2130  -15.1836 O   0  0  0  0  0  0  0  0  0  0  0  0
   21.5189  -26.0699  -16.2435 N   0  0  0  0  0  0  0  0  0  0  0  0
   21.9152  -26.1752  -14.8884 C   0  0  0  0  0  0  0  0  0  0  0  0
   22.2343  -27.3487  -14.4050 N   0  0  0  0  0  0  0  0  0  0  0  0
   21.9581  -25.0082  -14.0853 N   0  0  0  0  0  0  0  0  0  0  0  0
   21.5919  -23.7381  -14.6230 C   0  0  0  0  0  0  0  0  0  0  0  0
   21.6726  -22.6195  -13.6268 C   0  0  0  0  0  0  0  0  0  0  0  0
   21.3583  -21.2767  -14.2568 C   0  0  0  0  0  0  0  0  0  0  0  0
   21.4096  -20.1710  -13.2141 C   0  0  2  0  0  0  0  0  0  0  0  0
   22.7639  -19.8547  -12.8203 N   0  0  0  0  0  0  0  0  0  0  0  0
   20.6463  -20.5462  -11.9986 C   0  0  0  0  0  0  0  0  0  0  0  0
   19.2838  -20.7639  -12.1215 O   0  0  0  0  0  0  0  0  0  0  0  0
   21.2276  -20.6632  -10.8816 O   0  0  0  0  0  0  0  0  0  0  0  0
  2  1  1  0
  3  2  1  0
  4  5  1  0
  4  3  1  0
  5  6  1  6
  7  9  1  0
  7  5  1  0
  8  7  2  0
 10  9  1  0
 10 11  1  6
 12 16  1  0
 12 11  1  0
 13 12  2  0
 14 15  2  0
 14 10  1  0
 17 18  1  0
 18 19  2  0
 20 18  1  0
 20 21  1  0
 22 21  1  0
 22 23  1  0
 24 23  1  6
 24 25  1  0
 25 14  1  0
 26 24  1  0
 27 26  1  0
 28 26  2  0
M  END
$$$$
