MDR.pdb
     RDKit          3D

 28 27  0  0  1  0  0  0  0  0999 V2000
   29.7647  -20.3509   -7.1140 C   0  0  0  0  0  0  0  0  0  0  0  0
   28.1752  -19.7175   -6.5636 S   0  0  0  0  0  0  0  0  0  0  0  0
   26.8635  -20.5690   -7.4784 C   0  0  0  0  0  0  0  0  0  0  0  0
   26.5738  -19.7878   -8.7348 C   0  0  0  0  0  0  0  0  0  0  0  0
   25.5153  -20.3879   -9.5981 C   0  0  2  0  0  0  0  0  0  0  0  0
   25.3554  -21.8149   -9.3266 N   0  0  0  0  0  0  0  0  0  0  0  0
   25.7016  -20.2104  -11.0435 C   0  0  0  0  0  0  0  0  0  0  0  0
   25.8385  -19.0239  -11.4860 O   0  0  0  0  0  0  0  0  0  0  0  0
   25.7276  -21.3145  -11.9085 N   0  0  0  0  0  0  0  0  0  0  0  0
   25.4096  -21.2237  -13.3166 C   0  0  1  0  0  0  0  0  0  0  0  0
   26.4434  -21.8431  -14.1894 C   0  0  0  0  0  0  0  0  0  0  0  0
   27.5725  -20.9014  -14.3432 C   0  0  0  0  0  0  0  0  0  0  0  0
   27.3838  -19.6830  -14.6761 O   0  0  0  0  0  0  0  0  0  0  0  0
   24.0511  -21.7769  -13.5320 C   0  0  0  0  0  0  0  0  0  0  0  0
   23.4251  -22.3802  -12.6350 O   0  0  0  0  0  0  0  0  0  0  0  0
   28.8900  -21.2636  -14.1419 O   0  0  0  0  0  0  0  0  0  0  0  0
   18.2446  -21.2370  -10.7743 N   0  0  0  0  0  0  0  0  0  0  0  0
   17.3004  -21.6041  -11.7633 C   0  0  0  0  0  0  0  0  0  0  0  0
   16.2117  -22.2357  -11.4047 N   0  0  0  0  0  0  0  0  0  0  0  0
   17.5542  -21.2796  -13.1194 N   0  0  0  0  0  0  0  0  0  0  0  0
   18.7590  -20.6150  -13.4978 C   0  0  0  0  0  0  0  0  0  0  0  0
   19.6783  -21.4649  -14.3240 C   0  0  0  0  0  0  0  0  0  0  0  0
   21.1366  -21.1557  -14.0470 C   0  0  0  0  0  0  0  0  0  0  0  0
   22.0376  -21.9265  -14.9992 C   0  0  2  0  0  0  0  0  0  0  0  0
   23.4354  -21.6192  -14.7967 N   0  0  0  0  0  0  0  0  0  0  0  0
   21.6961  -21.6344  -16.4130 C   0  0  0  0  0  0  0  0  0  0  0  0
   22.3832  -20.6185  -17.0568 O   0  0  0  0  0  0  0  0  0  0  0  0
   20.8007  -22.2977  -17.0112 O   0  0  0  0  0  0  0  0  0  0  0  0
  2  1  1  0
  3  2  1  0
  4  5  1  0
  4  3  1  0
  5  6  1  6
  7  9  1  0
  7  5  1  0
  8  7  2  0
 10  9  1  0
 10 11  1  6
 12 16  1  0
 12 11  1  0
 13 12  2  0
 14 15  2  0
 14 10  1  0
 17 18  1  0
 18 19  2  0
 20 18  1  0
 20 21  1  0
 22 21  1  0
 22 23  1  0
 24 23  1  1
 24 25  1  0
 25 14  1  0
 26 24  1  0
 27 26  1  0
 28 26  2  0
M  END
$$$$
