MDR.pdb
     RDKit          3D

 28 27  0  0  1  0  0  0  0  0999 V2000
   34.3143  -22.5609  -11.2775 C   0  0  0  0  0  0  0  0  0  0  0  0
   33.2461  -22.2734   -9.8608 S   0  0  0  0  0  0  0  0  0  0  0  0
   31.5224  -22.4573  -10.3874 C   0  0  0  0  0  0  0  0  0  0  0  0
   31.0214  -21.1153  -10.8573 C   0  0  0  0  0  0  0  0  0  0  0  0
   29.6203  -21.1303  -11.3696 C   0  0  2  0  0  0  0  0  0  0  0  0
   29.3029  -22.4055  -12.0090 N   0  0  0  0  0  0  0  0  0  0  0  0
   29.2749  -20.0482  -12.2998 C   0  0  0  0  0  0  0  0  0  0  0  0
   29.3869  -18.8484  -11.8871 O   0  0  0  0  0  0  0  0  0  0  0  0
   28.8354  -20.3291  -13.6020 N   0  0  0  0  0  0  0  0  0  0  0  0
   27.8346  -19.5403  -14.2864 C   0  0  1  0  0  0  0  0  0  0  0  0
   28.3126  -18.9891  -15.5832 C   0  0  0  0  0  0  0  0  0  0  0  0
   28.7524  -20.1038  -16.4488 C   0  0  0  0  0  0  0  0  0  0  0  0
   28.6280  -21.3210  -16.0829 O   0  0  0  0  0  0  0  0  0  0  0  0
   26.5985  -20.3491  -14.4119 C   0  0  0  0  0  0  0  0  0  0  0  0
   26.4323  -21.4176  -13.7863 O   0  0  0  0  0  0  0  0  0  0  0  0
   29.3195  -19.9141  -17.6938 O   0  0  0  0  0  0  0  0  0  0  0  0
   20.4794  -20.1240   -9.7563 N   0  0  0  0  0  0  0  0  0  0  0  0
   19.7379  -20.0196  -10.9578 C   0  0  0  0  0  0  0  0  0  0  0  0
   18.4622  -19.7335  -10.8990 N   0  0  0  0  0  0  0  0  0  0  0  0
   20.3928  -20.2264  -12.1976 N   0  0  0  0  0  0  0  0  0  0  0  0
   21.7264  -20.7320  -12.2432 C   0  0  0  0  0  0  0  0  0  0  0  0
   22.2792  -20.8402  -13.6336 C   0  0  0  0  0  0  0  0  0  0  0  0
   23.6660  -20.2365  -13.7398 C   0  0  0  0  0  0  0  0  0  0  0  0
   24.2144  -20.3995  -15.1488 C   0  0  2  0  0  0  0  0  0  0  0  0
   25.5656  -19.9005  -15.2695 N   0  0  0  0  0  0  0  0  0  0  0  0
   23.3657  -19.6914  -16.1383 C   0  0  0  0  0  0  0  0  0  0  0  0
   23.5325  -18.3242  -16.2855 O   0  0  0  0  0  0  0  0  0  0  0  0
   22.5138  -20.3228  -16.8274 O   0  0  0  0  0  0  0  0  0  0  0  0
  2  1  1  0
  3  2  1  0
  4  5  1  0
  4  3  1  0
  5  6  1  6
  7  9  1  0
  7  5  1  0
  8  7  2  0
 10  9  1  0
 10 11  1  6
 12 16  1  0
 12 11  1  0
 13 12  2  0
 14 15  2  0
 14 10  1  0
 17 18  1  0
 18 19  2  0
 20 18  1  0
 20 21  1  0
 22 21  1  0
 22 23  1  0
 24 23  1  1
 24 25  1  0
 25 14  1  0
 26 24  1  0
 27 26  1  0
 28 26  2  0
M  END
$$$$
