MDR.pdb
     RDKit          3D

 28 27  0  0  1  0  0  0  0  0999 V2000
   24.4341  -22.0065   -7.1480 C   0  0  0  0  0  0  0  0  0  0  0  0
   25.7697  -20.8782   -6.7310 S   0  0  0  0  0  0  0  0  0  0  0  0
   26.5524  -20.3141   -8.2644 C   0  0  0  0  0  0  0  0  0  0  0  0
   25.6162  -20.6001   -9.4110 C   0  0  0  0  0  0  0  0  0  0  0  0
   26.1978  -20.3293  -10.7580 C   0  0  2  0  0  0  0  0  0  0  0  0
   26.7613  -18.9829  -10.8315 N   0  0  0  0  0  0  0  0  0  0  0  0
   25.2814  -20.5094  -11.8908 C   0  0  0  0  0  0  0  0  0  0  0  0
   24.3997  -19.6128  -12.0931 O   0  0  0  0  0  0  0  0  0  0  0  0
   25.3758  -21.6347  -12.7231 N   0  0  0  0  0  0  0  0  0  0  0  0
   24.5414  -21.8285  -13.8885 C   0  0  1  0  0  0  0  0  0  0  0  0
   25.2931  -22.3418  -15.0656 C   0  0  0  0  0  0  0  0  0  0  0  0
   24.7797  -21.6887  -16.2885 C   0  0  0  0  0  0  0  0  0  0  0  0
   23.5880  -21.2339  -16.3511 O   0  0  0  0  0  0  0  0  0  0  0  0
   23.3896  -22.6817  -13.5098 C   0  0  0  0  0  0  0  0  0  0  0  0
   23.3982  -23.4017  -12.4890 O   0  0  0  0  0  0  0  0  0  0  0  0
   25.5373  -21.5256  -17.4317 O   0  0  0  0  0  0  0  0  0  0  0  0
   17.3944  -23.7411   -9.0669 N   0  0  0  0  0  0  0  0  0  0  0  0
   18.7572  -24.0031   -8.7867 C   0  0  0  0  0  0  0  0  0  0  0  0
   19.0664  -24.9847   -7.9782 N   0  0  0  0  0  0  0  0  0  0  0  0
   19.7566  -23.1976   -9.3876 N   0  0  0  0  0  0  0  0  0  0  0  0
   19.4047  -22.1515  -10.2922 C   0  0  0  0  0  0  0  0  0  0  0  0
   19.4761  -22.5570  -11.7346 C   0  0  0  0  0  0  0  0  0  0  0  0
   20.8812  -22.4287  -12.2897 C   0  0  0  0  0  0  0  0  0  0  0  0
   20.9094  -22.7951  -13.7654 C   0  0  2  0  0  0  0  0  0  0  0  0
   22.2356  -22.6853  -14.3296 N   0  0  0  0  0  0  0  0  0  0  0  0
   19.9959  -21.9281  -14.5493 C   0  0  0  0  0  0  0  0  0  0  0  0
   18.7244  -22.4004  -14.8303 O   0  0  0  0  0  0  0  0  0  0  0  0
   20.3718  -20.7886  -14.9488 O   0  0  0  0  0  0  0  0  0  0  0  0
  2  1  1  0
  3  2  1  0
  4  5  1  0
  4  3  1  0
  5  6  1  1
  7  9  1  0
  7  5  1  0
  8  7  2  0
 10  9  1  0
 10 11  1  6
 12 16  1  0
 12 11  1  0
 13 12  2  0
 14 15  2  0
 14 10  1  0
 17 18  1  0
 18 19  2  0
 20 18  1  0
 20 21  1  0
 22 21  1  0
 22 23  1  0
 24 23  1  1
 24 25  1  0
 25 14  1  0
 26 24  1  0
 27 26  1  0
 28 26  2  0
M  END
$$$$
