MDR.pdb
     RDKit          3D

 28 27  0  0  1  0  0  0  0  0999 V2000
   26.2755  -17.5679  -21.9906 C   0  0  0  0  0  0  0  0  0  0  0  0
   25.5102  -18.6798  -20.8037 S   0  0  0  0  0  0  0  0  0  0  0  0
   25.7646  -18.0143  -19.1379 C   0  0  0  0  0  0  0  0  0  0  0  0
   25.2412  -19.0151  -18.1393 C   0  0  0  0  0  0  0  0  0  0  0  0
   25.2836  -18.5464  -16.7236 C   0  0  2  0  0  0  0  0  0  0  0  0
   26.6499  -18.2356  -16.3084 N   0  0  0  0  0  0  0  0  0  0  0  0
   24.6973  -19.4612  -15.7362 C   0  0  0  0  0  0  0  0  0  0  0  0
   23.4808  -19.8057  -15.8908 O   0  0  0  0  0  0  0  0  0  0  0  0
   25.4550  -19.9398  -14.6570 N   0  0  0  0  0  0  0  0  0  0  0  0
   24.8951  -20.7425  -13.5920 C   0  0  1  0  0  0  0  0  0  0  0  0
   25.9196  -21.2331  -12.6308 C   0  0  0  0  0  0  0  0  0  0  0  0
   25.2652  -22.1016  -11.6294 C   0  0  0  0  0  0  0  0  0  0  0  0
   25.8221  -22.3663  -10.5110 O   0  0  0  0  0  0  0  0  0  0  0  0
   23.8027  -19.9764  -12.9456 C   0  0  0  0  0  0  0  0  0  0  0  0
   23.9833  -18.8448  -12.4483 O   0  0  0  0  0  0  0  0  0  0  0  0
   24.0265  -22.6799  -11.8263 O   0  0  0  0  0  0  0  0  0  0  0  0
   21.4163  -19.7401  -17.1739 N   0  0  0  0  0  0  0  0  0  0  0  0
   20.2898  -18.9295  -17.4538 C   0  0  0  0  0  0  0  0  0  0  0  0
   19.6007  -19.1473  -18.5449 N   0  0  0  0  0  0  0  0  0  0  0  0
   19.9327  -17.9006  -16.5470 N   0  0  0  0  0  0  0  0  0  0  0  0
   20.6570  -17.7150  -15.3315 C   0  0  0  0  0  0  0  0  0  0  0  0
   20.3346  -18.7349  -14.2798 C   0  0  0  0  0  0  0  0  0  0  0  0
   21.1269  -18.5059  -13.0075 C   0  0  0  0  0  0  0  0  0  0  0  0
   21.3965  -19.8246  -12.3000 C   0  0  2  0  0  0  0  0  0  0  0  0
   22.5062  -20.5415  -12.8865 N   0  0  0  0  0  0  0  0  0  0  0  0
   20.2025  -20.7043  -12.3349 C   0  0  0  0  0  0  0  0  0  0  0  0
   20.3048  -21.9226  -12.9863 O   0  0  0  0  0  0  0  0  0  0  0  0
   19.1217  -20.3480  -11.7834 O   0  0  0  0  0  0  0  0  0  0  0  0
  2  1  1  0
  3  2  1  0
  4  5  1  0
  4  3  1  0
  5  6  1  1
  7  9  1  0
  7  5  1  0
  8  7  2  0
 10  9  1  0
 10 11  1  1
 12 16  1  0
 12 11  1  0
 13 12  2  0
 14 15  2  0
 14 10  1  0
 17 18  1  0
 18 19  2  0
 20 18  1  0
 20 21  1  0
 22 21  1  0
 22 23  1  0
 24 23  1  6
 24 25  1  0
 25 14  1  0
 26 24  1  0
 27 26  1  0
 28 26  2  0
M  END
$$$$
