MDR.pdb
     RDKit          3D

 28 27  0  0  1  0  0  0  0  0999 V2000
   24.6874  -12.6590  -20.2193 C   0  0  0  0  0  0  0  0  0  0  0  0
   23.9418  -11.3436  -19.2473 S   0  0  0  0  0  0  0  0  0  0  0  0
   22.9172  -12.0889  -17.9523 C   0  0  0  0  0  0  0  0  0  0  0  0
   22.2299  -10.9830  -17.1924 C   0  0  0  0  0  0  0  0  0  0  0  0
   23.1487  -10.1424  -16.3708 C   0  0  2  0  0  0  0  0  0  0  0  0
   23.9192  -10.9582  -15.4346 N   0  0  0  0  0  0  0  0  0  0  0  0
   22.5095   -9.0552  -15.6191 C   0  0  0  0  0  0  0  0  0  0  0  0
   21.8404   -9.3619  -14.5797 O   0  0  0  0  0  0  0  0  0  0  0  0
   22.6332   -7.7211  -16.0346 N   0  0  0  0  0  0  0  0  0  0  0  0
   22.0371   -6.6124  -15.3221 C   0  0  1  0  0  0  0  0  0  0  0  0
   22.9995   -5.5121  -15.0444 C   0  0  0  0  0  0  0  0  0  0  0  0
   22.3204   -4.4653  -14.2518 C   0  0  0  0  0  0  0  0  0  0  0  0
   21.7050   -4.7439  -13.1680 O   0  0  0  0  0  0  0  0  0  0  0  0
   20.8327   -6.1662  -16.0625 C   0  0  0  0  0  0  0  0  0  0  0  0
   20.8470   -5.9472  -17.2923 O   0  0  0  0  0  0  0  0  0  0  0  0
   22.3019   -3.1339  -14.6185 O   0  0  0  0  0  0  0  0  0  0  0  0
   13.0154   -9.0730  -16.9443 N   0  0  0  0  0  0  0  0  0  0  0  0
   13.5557   -8.5971  -15.7254 C   0  0  0  0  0  0  0  0  0  0  0  0
   13.0671   -9.0378  -14.5941 N   0  0  0  0  0  0  0  0  0  0  0  0
   14.6139   -7.6547  -15.7563 N   0  0  0  0  0  0  0  0  0  0  0  0
   15.0790   -7.1198  -16.9949 C   0  0  0  0  0  0  0  0  0  0  0  0
   16.1301   -6.0618  -16.8339 C   0  0  0  0  0  0  0  0  0  0  0  0
   17.3660   -6.5936  -16.1347 C   0  0  0  0  0  0  0  0  0  0  0  0
   18.4253   -5.5086  -16.0208 C   0  0  2  0  0  0  0  0  0  0  0  0
   19.6198   -5.9797  -15.3571 N   0  0  0  0  0  0  0  0  0  0  0  0
   17.9101   -4.3341  -15.2753 C   0  0  0  0  0  0  0  0  0  0  0  0
   16.9905   -3.5107  -15.9038 O   0  0  0  0  0  0  0  0  0  0  0  0
   18.3025   -4.0944  -14.0971 O   0  0  0  0  0  0  0  0  0  0  0  0
  2  1  1  0
  3  2  1  0
  4  5  1  0
  4  3  1  0
  5  6  1  1
  7  9  1  0
  7  5  1  0
  8  7  2  0
 10  9  1  0
 10 11  1  6
 12 16  1  0
 12 11  1  0
 13 12  2  0
 14 15  2  0
 14 10  1  0
 17 18  1  0
 18 19  2  0
 20 18  1  0
 20 21  1  0
 22 21  1  0
 22 23  1  0
 24 23  1  1
 24 25  1  0
 25 14  1  0
 26 24  1  0
 27 26  1  0
 28 26  2  0
M  END
$$$$
