ECM.pdb
     RDKit          3D

 24 23  0  0  1  0  0  0  0  0999 V2000
   10.7881  -18.8191   20.9515 N   0  0  0  0  0  0  0  0  0  0  0  0
    9.8501  -17.7497   20.5730 C   0  0  1  0  0  0  0  0  0  0  0  0
    8.8644  -18.3902   19.6318 C   0  0  0  0  0  0  0  0  0  0  0  0
    8.4129  -17.5417   18.5015 C   0  0  0  0  0  0  0  0  0  0  0  0
    8.6276  -18.2144   17.2059 C   0  0  0  0  0  0  0  0  0  0  0  0
    7.6658  -18.6763   16.5627 O   0  0  0  0  0  0  0  0  0  0  0  0
    9.0664  -17.3084   21.7611 C   0  0  0  0  0  0  0  0  0  0  0  0
    8.2549  -16.3592   21.6121 O   0  0  0  0  0  0  0  0  0  0  0  0
    9.9249  -18.3394   16.6853 O   0  0  0  0  0  0  0  0  0  0  0  0
    9.1727  -17.8808   23.0365 N   0  0  0  0  0  0  0  0  0  0  0  0
    8.3540  -17.4377   24.1439 C   0  0  1  0  0  0  0  0  0  0  0  0
    7.9222  -18.6965   24.9045 C   0  0  0  0  0  0  0  0  0  0  0  0
    9.3320  -19.4048   25.7976 S   0  0  0  0  0  0  0  0  0  0  0  0
    9.0894  -16.5388   25.0609 C   0  0  0  0  0  0  0  0  0  0  0  0
   10.3449  -16.4922   24.9877 O   0  0  0  0  0  0  0  0  0  0  0  0
    6.3550  -10.5683   25.5786 C   0  0  0  0  0  0  0  0  0  0  0  0
    6.7567  -11.6556   26.9697 S   0  0  0  0  0  0  0  0  0  0  0  0
    7.9258  -12.8905   26.4075 C   0  0  0  0  0  0  0  0  0  0  0  0
    8.4006  -13.8061   27.4860 C   0  0  0  0  0  0  0  0  0  0  0  0
    9.2356  -14.9562   27.0262 C   0  0  2  0  0  0  0  0  0  0  0  0
    8.4740  -15.7100   26.0346 N   0  0  0  0  0  0  0  0  0  0  0  0
    9.7392  -15.8279   28.1046 C   0  0  0  0  0  0  0  0  0  0  0  0
    9.2282  -16.9626   28.2795 O   0  0  0  0  0  0  0  0  0  0  0  0
   10.7685  -15.4650   28.9605 O   0  0  0  0  0  0  0  0  0  0  0  0
  2  1  1  1
  3  2  1  0
  4  3  1  0
  5  6  2  0
  5  4  1  0
  7  8  2  0
  7  2  1  0
  9  5  1  0
 10  7  1  0
 11 10  1  0
 11 14  1  0
 11 12  1  1
 13 12  1  0
 14 21  1  0
 15 14  2  0
 17 16  1  0
 18 17  1  0
 20 19  1  1
 19 18  1  0
 20 22  1  0
 21 20  1  0
 22 23  2  0
 22 24  1  0
M  END
$$$$
