ECM.pdb
     RDKit          3D

 24 23  0  0  1  0  0  0  0  0999 V2000
    6.0232  -15.5589   21.9495 N   0  0  0  0  0  0  0  0  0  0  0  0
    7.4173  -15.9167   22.2582 C   0  0  1  0  0  0  0  0  0  0  0  0
    8.1887  -15.6724   20.9881 C   0  0  0  0  0  0  0  0  0  0  0  0
    7.3704  -15.5214   19.7599 C   0  0  0  0  0  0  0  0  0  0  0  0
    8.2194  -15.3139   18.5710 C   0  0  0  0  0  0  0  0  0  0  0  0
    7.7086  -15.1176   17.4518 O   0  0  0  0  0  0  0  0  0  0  0  0
    7.9765  -14.9796   23.2729 C   0  0  0  0  0  0  0  0  0  0  0  0
    9.1984  -14.6914   23.1984 O   0  0  0  0  0  0  0  0  0  0  0  0
    9.6173  -15.3361   18.6932 O   0  0  0  0  0  0  0  0  0  0  0  0
    7.2312  -14.3963   24.3072 N   0  0  0  0  0  0  0  0  0  0  0  0
    7.8643  -13.7996   25.4631 C   0  0  1  0  0  0  0  0  0  0  0  0
    6.8127  -12.9054   26.1294 C   0  0  0  0  0  0  0  0  0  0  0  0
    5.5685  -12.3886   24.9163 S   0  0  0  0  0  0  0  0  0  0  0  0
    8.3311  -14.8146   26.4336 C   0  0  0  0  0  0  0  0  0  0  0  0
    7.4938  -15.6165   26.9230 O   0  0  0  0  0  0  0  0  0  0  0  0
   11.1565  -19.2840   30.5380 C   0  0  0  0  0  0  0  0  0  0  0  0
    9.7994  -18.5409   29.5974 S   0  0  0  0  0  0  0  0  0  0  0  0
   10.2428  -18.5411   27.8621 C   0  0  0  0  0  0  0  0  0  0  0  0
    9.7757  -17.3332   27.1205 C   0  0  0  0  0  0  0  0  0  0  0  0
   10.1155  -16.0236   27.7535 C   0  0  2  0  0  0  0  0  0  0  0  0
    9.6768  -14.9542   26.8617 N   0  0  0  0  0  0  0  0  0  0  0  0
   11.5319  -15.8680   28.1358 C   0  0  0  0  0  0  0  0  0  0  0  0
   12.3633  -15.4482   27.2921 O   0  0  0  0  0  0  0  0  0  0  0  0
   12.0172  -16.1634   29.4010 O   0  0  0  0  0  0  0  0  0  0  0  0
  2  1  1  6
  3  2  1  0
  4  3  1  0
  5  6  2  0
  5  4  1  0
  7  8  2  0
  7  2  1  0
  9  5  1  0
 10  7  1  0
 11 10  1  0
 11 14  1  0
 11 12  1  1
 13 12  1  0
 14 21  1  0
 15 14  2  0
 17 16  1  0
 18 17  1  0
 20 19  1  6
 19 18  1  0
 20 22  1  0
 21 20  1  0
 22 23  2  0
 22 24  1  0
M  END
$$$$
