ECM.pdb
     RDKit          3D

 24 23  0  0  1  0  0  0  0  0999 V2000
   11.6766  -19.5558   20.0508 N   0  0  0  0  0  0  0  0  0  0  0  0
   11.8884  -18.1070   19.9001 C   0  0  1  0  0  0  0  0  0  0  0  0
   11.7404  -17.8271   18.4278 C   0  0  0  0  0  0  0  0  0  0  0  0
   12.7315  -18.4914   17.5461 C   0  0  0  0  0  0  0  0  0  0  0  0
   13.5068  -17.5044   16.7704 C   0  0  0  0  0  0  0  0  0  0  0  0
   13.2980  -16.2837   16.9062 O   0  0  0  0  0  0  0  0  0  0  0  0
   10.7968  -17.3540   20.5798 C   0  0  0  0  0  0  0  0  0  0  0  0
   10.7249  -16.1140   20.3821 O   0  0  0  0  0  0  0  0  0  0  0  0
   14.4916  -17.9360   15.8684 O   0  0  0  0  0  0  0  0  0  0  0  0
    9.8426  -17.9353   21.4266 N   0  0  0  0  0  0  0  0  0  0  0  0
    8.7266  -17.1802   21.9530 C   0  0  1  0  0  0  0  0  0  0  0  0
    7.6406  -18.1972   22.3215 C   0  0  0  0  0  0  0  0  0  0  0  0
    8.2254  -19.2877   23.6464 S   0  0  0  0  0  0  0  0  0  0  0  0
    9.0947  -16.3988   23.1546 C   0  0  0  0  0  0  0  0  0  0  0  0
   10.1899  -16.6423   23.7247 O   0  0  0  0  0  0  0  0  0  0  0  0
    5.2463  -11.6937   26.4600 C   0  0  0  0  0  0  0  0  0  0  0  0
    6.9884  -11.2016   26.4220 S   0  0  0  0  0  0  0  0  0  0  0  0
    7.9956  -12.6802   26.3362 C   0  0  0  0  0  0  0  0  0  0  0  0
    7.8294  -13.4499   25.0685 C   0  0  0  0  0  0  0  0  0  0  0  0
    8.6330  -14.7055   24.9733 C   0  0  2  0  0  0  0  0  0  0  0  0
    8.2908  -15.3768   23.7228 N   0  0  0  0  0  0  0  0  0  0  0  0
    8.5077  -15.6118   26.1306 C   0  0  0  0  0  0  0  0  0  0  0  0
    7.5605  -16.4363   26.1776 O   0  0  0  0  0  0  0  0  0  0  0  0
    9.3927  -15.6119   27.1985 O   0  0  0  0  0  0  0  0  0  0  0  0
  2  1  1  6
  3  2  1  0
  4  3  1  0
  5  6  2  0
  5  4  1  0
  7  8  2  0
  7  2  1  0
  9  5  1  0
 10  7  1  0
 11 10  1  0
 11 14  1  0
 11 12  1  1
 13 12  1  0
 14 21  1  0
 15 14  2  0
 17 16  1  0
 18 17  1  0
 20 19  1  1
 19 18  1  0
 20 22  1  0
 21 20  1  0
 22 23  2  0
 22 24  1  0
M  END
$$$$
