ECM.pdb
     RDKit          3D

 24 23  0  0  1  0  0  0  0  0999 V2000
    9.0402  -19.0606   19.2297 N   0  0  0  0  0  0  0  0  0  0  0  0
   10.3775  -18.6625   19.6987 C   0  0  1  0  0  0  0  0  0  0  0  0
   11.0681  -18.0709   18.4983 C   0  0  0  0  0  0  0  0  0  0  0  0
   11.5706  -19.0481   17.5014 C   0  0  0  0  0  0  0  0  0  0  0  0
   12.7053  -18.4981   16.7351 C   0  0  0  0  0  0  0  0  0  0  0  0
   13.6977  -19.2045   16.4739 O   0  0  0  0  0  0  0  0  0  0  0  0
   10.2660  -17.5641   20.6994 C   0  0  0  0  0  0  0  0  0  0  0  0
   11.0693  -16.6006   20.6086 O   0  0  0  0  0  0  0  0  0  0  0  0
   12.6746  -17.1669   16.2919 O   0  0  0  0  0  0  0  0  0  0  0  0
    9.3243  -17.5318   21.7375 N   0  0  0  0  0  0  0  0  0  0  0  0
    9.2623  -16.4356   22.6795 C   0  0  1  0  0  0  0  0  0  0  0  0
    7.8036  -16.3305   23.1384 C   0  0  0  0  0  0  0  0  0  0  0  0
    7.1712  -14.6574   22.8418 S   0  0  0  0  0  0  0  0  0  0  0  0
   10.1318  -16.6571   23.8563 C   0  0  0  0  0  0  0  0  0  0  0  0
   10.7290  -17.7589   23.9707 O   0  0  0  0  0  0  0  0  0  0  0  0
    9.4056  -12.6571   28.7429 C   0  0  0  0  0  0  0  0  0  0  0  0
   10.2200  -13.9494   29.7151 S   0  0  0  0  0  0  0  0  0  0  0  0
   10.7364  -15.2565   28.6048 C   0  0  0  0  0  0  0  0  0  0  0  0
   10.3846  -15.0076   27.1760 C   0  0  0  0  0  0  0  0  0  0  0  0
   10.8150  -16.0695   26.2177 C   0  0  2  0  0  0  0  0  0  0  0  0
   10.3468  -15.7028   24.8843 N   0  0  0  0  0  0  0  0  0  0  0  0
   10.4038  -17.4385   26.5825 C   0  0  0  0  0  0  0  0  0  0  0  0
   11.2567  -18.2496   27.0230 O   0  0  0  0  0  0  0  0  0  0  0  0
    9.1009  -17.8997   26.4672 O   0  0  0  0  0  0  0  0  0  0  0  0
  2  1  1  6
  3  2  1  0
  4  3  1  0
  5  6  2  0
  5  4  1  0
  7  8  2  0
  7  2  1  0
  9  5  1  0
 10  7  1  0
 11 10  1  0
 11 14  1  0
 11 12  1  1
 13 12  1  0
 14 21  1  0
 15 14  2  0
 17 16  1  0
 18 17  1  0
 20 19  1  1
 19 18  1  0
 20 22  1  0
 21 20  1  0
 22 23  2  0
 22 24  1  0
M  END
$$$$
