ECM.pdb
     RDKit          3D

 24 23  0  0  1  0  0  0  0  0999 V2000
   10.2767  -19.2081   19.1043 N   0  0  0  0  0  0  0  0  0  0  0  0
    8.9649  -18.6513   19.4730 C   0  0  1  0  0  0  0  0  0  0  0  0
    8.3627  -19.6384   20.4378 C   0  0  0  0  0  0  0  0  0  0  0  0
    9.2158  -20.0064   21.5945 C   0  0  0  0  0  0  0  0  0  0  0  0
    8.6278  -21.1208   22.3624 C   0  0  0  0  0  0  0  0  0  0  0  0
    9.2104  -21.5798   23.3634 O   0  0  0  0  0  0  0  0  0  0  0  0
    9.1400  -17.3805   20.2312 C   0  0  0  0  0  0  0  0  0  0  0  0
   10.2712  -17.1408   20.7261 O   0  0  0  0  0  0  0  0  0  0  0  0
    7.4002  -21.6751   21.9685 O   0  0  0  0  0  0  0  0  0  0  0  0
    8.1272  -16.4318   20.4306 N   0  0  0  0  0  0  0  0  0  0  0  0
    8.3736  -15.1838   21.1196 C   0  0  1  0  0  0  0  0  0  0  0  0
    7.3300  -14.1844   20.6085 C   0  0  0  0  0  0  0  0  0  0  0  0
    7.5981  -12.5569   21.3610 S   0  0  0  0  0  0  0  0  0  0  0  0
    8.2456  -15.3188   22.5877 C   0  0  0  0  0  0  0  0  0  0  0  0
    7.3169  -16.0291   23.0532 O   0  0  0  0  0  0  0  0  0  0  0  0
    6.0184  -10.6250   26.4684 C   0  0  0  0  0  0  0  0  0  0  0  0
    6.4375  -12.3685   26.7205 S   0  0  0  0  0  0  0  0  0  0  0  0
    7.1140  -13.0174   25.1944 C   0  0  0  0  0  0  0  0  0  0  0  0
    7.4704  -14.4651   25.2606 C   0  0  0  0  0  0  0  0  0  0  0  0
    8.9002  -14.7851   24.9700 C   0  0  2  0  0  0  0  0  0  0  0  0
    9.1074  -14.6959   23.5275 N   0  0  0  0  0  0  0  0  0  0  0  0
    9.3694  -16.0756   25.5093 C   0  0  0  0  0  0  0  0  0  0  0  0
    9.5620  -16.2025   26.7447 O   0  0  0  0  0  0  0  0  0  0  0  0
    9.6181  -17.1875   24.7185 O   0  0  0  0  0  0  0  0  0  0  0  0
  2  1  1  1
  3  2  1  0
  4  3  1  0
  5  6  2  0
  5  4  1  0
  7  8  2  0
  7  2  1  0
  9  5  1  0
 10  7  1  0
 11 10  1  0
 11 14  1  0
 11 12  1  6
 13 12  1  0
 14 21  1  0
 15 14  2  0
 17 16  1  0
 18 17  1  0
 20 19  1  6
 19 18  1  0
 20 22  1  0
 21 20  1  0
 22 23  2  0
 22 24  1  0
M  END
$$$$
