ECM.pdb
     RDKit          3D

 24 23  0  0  1  0  0  0  0  0999 V2000
   10.5403  -18.4992   18.0697 N   0  0  0  0  0  0  0  0  0  0  0  0
   11.0844  -18.3087   19.4241 C   0  0  1  0  0  0  0  0  0  0  0  0
   12.1152  -17.2182   19.2968 C   0  0  0  0  0  0  0  0  0  0  0  0
   13.4802  -17.5690   19.7604 C   0  0  0  0  0  0  0  0  0  0  0  0
   14.3738  -16.3951   19.7356 C   0  0  0  0  0  0  0  0  0  0  0  0
   15.1898  -16.1982   20.6562 O   0  0  0  0  0  0  0  0  0  0  0  0
   10.0284  -17.7807   20.3333 C   0  0  0  0  0  0  0  0  0  0  0  0
    9.1243  -17.0640   19.8324 O   0  0  0  0  0  0  0  0  0  0  0  0
   14.3109  -15.4862   18.6681 O   0  0  0  0  0  0  0  0  0  0  0  0
    9.9743  -18.0290   21.7120 N   0  0  0  0  0  0  0  0  0  0  0  0
    8.8639  -17.5846   22.5258 C   0  0  1  0  0  0  0  0  0  0  0  0
    8.2131  -18.8437   23.1093 C   0  0  0  0  0  0  0  0  0  0  0  0
    9.3625  -19.6809   24.2339 S   0  0  0  0  0  0  0  0  0  0  0  0
    9.2966  -16.6995   23.6301 C   0  0  0  0  0  0  0  0  0  0  0  0
   10.5054  -16.7118   23.9797 O   0  0  0  0  0  0  0  0  0  0  0  0
    5.5182  -12.0183   25.9368 C   0  0  0  0  0  0  0  0  0  0  0  0
    7.0107  -11.5750   26.8613 S   0  0  0  0  0  0  0  0  0  0  0  0
    8.1833  -12.9223   26.7287 C   0  0  0  0  0  0  0  0  0  0  0  0
    7.9037  -13.8556   25.5983 C   0  0  0  0  0  0  0  0  0  0  0  0
    8.9025  -14.9506   25.4118 C   0  0  2  0  0  0  0  0  0  0  0  0
    8.4347  -15.8216   24.3374 N   0  0  0  0  0  0  0  0  0  0  0  0
    9.2214  -15.7145   26.6329 C   0  0  0  0  0  0  0  0  0  0  0  0
    8.6111  -16.7859   26.8759 O   0  0  0  0  0  0  0  0  0  0  0  0
   10.1776  -15.3147   27.5546 O   0  0  0  0  0  0  0  0  0  0  0  0
  2  1  1  6
  3  2  1  0
  4  3  1  0
  5  6  2  0
  5  4  1  0
  7  8  2  0
  7  2  1  0
  9  5  1  0
 10  7  1  0
 11 10  1  0
 11 14  1  0
 11 12  1  1
 13 12  1  0
 14 21  1  0
 15 14  2  0
 17 16  1  0
 18 17  1  0
 20 19  1  1
 19 18  1  0
 20 22  1  0
 21 20  1  0
 22 23  2  0
 22 24  1  0
M  END
$$$$
