ECM.pdb
     RDKit          3D

 24 23  0  0  1  0  0  0  0  0999 V2000
    9.5947  -19.8134   20.4047 N   0  0  0  0  0  0  0  0  0  0  0  0
   10.0019  -18.4109   20.5889 C   0  0  1  0  0  0  0  0  0  0  0  0
    9.6587  -17.7167   19.2974 C   0  0  0  0  0  0  0  0  0  0  0  0
   10.0820  -18.4180   18.0604 C   0  0  0  0  0  0  0  0  0  0  0  0
   10.6149  -17.4712   17.0620 C   0  0  0  0  0  0  0  0  0  0  0  0
   11.8369  -17.4185   16.8250 O   0  0  0  0  0  0  0  0  0  0  0  0
    9.1682  -17.7673   21.6430 C   0  0  0  0  0  0  0  0  0  0  0  0
    8.4957  -16.7532   21.3247 O   0  0  0  0  0  0  0  0  0  0  0  0
    9.7437  -16.6179   16.3674 O   0  0  0  0  0  0  0  0  0  0  0  0
    9.0825  -18.2163   22.9684 N   0  0  0  0  0  0  0  0  0  0  0  0
    8.2171  -17.5792   23.9369 C   0  0  1  0  0  0  0  0  0  0  0  0
    7.3880  -18.6925   24.5871 C   0  0  0  0  0  0  0  0  0  0  0  0
    6.3032  -18.0025   25.8653 S   0  0  0  0  0  0  0  0  0  0  0  0
    8.9786  -16.8605   24.9826 C   0  0  0  0  0  0  0  0  0  0  0  0
   10.1390  -17.2553   25.2677 O   0  0  0  0  0  0  0  0  0  0  0  0
    6.3383  -11.0192   25.1544 C   0  0  0  0  0  0  0  0  0  0  0  0
    6.4603  -12.5830   26.0591 S   0  0  0  0  0  0  0  0  0  0  0  0
    8.1657  -12.8248   26.5500 C   0  0  0  0  0  0  0  0  0  0  0  0
    8.3853  -14.0406   27.3870 C   0  0  0  0  0  0  0  0  0  0  0  0
    9.2464  -15.0940   26.7703 C   0  0  2  0  0  0  0  0  0  0  0  0
    8.4896  -15.7387   25.7012 N   0  0  0  0  0  0  0  0  0  0  0  0
    9.7970  -16.0799   27.7196 C   0  0  0  0  0  0  0  0  0  0  0  0
    9.1533  -17.1292   27.9727 O   0  0  0  0  0  0  0  0  0  0  0  0
   11.0124  -15.9182   28.3678 O   0  0  0  0  0  0  0  0  0  0  0  0
  2  1  1  6
  3  2  1  0
  4  3  1  0
  5  6  2  0
  5  4  1  0
  7  8  2  0
  7  2  1  0
  9  5  1  0
 10  7  1  0
 11 10  1  0
 11 14  1  0
 11 12  1  1
 13 12  1  0
 14 21  1  0
 15 14  2  0
 17 16  1  0
 18 17  1  0
 20 19  1  1
 19 18  1  0
 20 22  1  0
 21 20  1  0
 22 23  2  0
 22 24  1  0
M  END
$$$$
