ECM.pdb
     RDKit          3D

 24 23  0  0  1  0  0  0  0  0999 V2000
    7.8773  -19.2954   18.9961 N   0  0  0  0  0  0  0  0  0  0  0  0
    6.9996  -18.3206   19.6640 C   0  0  1  0  0  0  0  0  0  0  0  0
    6.5303  -18.9960   20.9255 C   0  0  0  0  0  0  0  0  0  0  0  0
    7.0727  -20.3561   21.1644 C   0  0  0  0  0  0  0  0  0  0  0  0
    6.5586  -20.9255   22.4248 C   0  0  0  0  0  0  0  0  0  0  0  0
    7.2212  -20.8424   23.4766 O   0  0  0  0  0  0  0  0  0  0  0  0
    7.7863  -17.1309   20.0955 C   0  0  0  0  0  0  0  0  0  0  0  0
    8.9969  -17.3008   20.3911 O   0  0  0  0  0  0  0  0  0  0  0  0
    5.3114  -21.5687   22.4483 O   0  0  0  0  0  0  0  0  0  0  0  0
    7.2673  -15.8323   20.1944 N   0  0  0  0  0  0  0  0  0  0  0  0
    8.0740  -14.7189   20.6445 C   0  0  1  0  0  0  0  0  0  0  0  0
    7.5926  -13.4851   19.8727 C   0  0  0  0  0  0  0  0  0  0  0  0
    8.5826  -12.0355   20.3259 S   0  0  0  0  0  0  0  0  0  0  0  0
    7.9326  -14.4747   22.0972 C   0  0  0  0  0  0  0  0  0  0  0  0
    7.0341  -13.6889   22.4958 O   0  0  0  0  0  0  0  0  0  0  0  0
    7.2162  -12.0397   27.1928 C   0  0  0  0  0  0  0  0  0  0  0  0
    6.0585  -13.0534   26.2385 S   0  0  0  0  0  0  0  0  0  0  0  0
    6.6708  -14.7361   26.2034 C   0  0  0  0  0  0  0  0  0  0  0  0
    7.1318  -15.1818   24.8559 C   0  0  0  0  0  0  0  0  0  0  0  0
    8.5476  -14.8435   24.5208 C   0  0  2  0  0  0  0  0  0  0  0  0
    8.7492  -15.0711   23.0928 N   0  0  0  0  0  0  0  0  0  0  0  0
    9.5617  -15.5426   25.3327 C   0  0  0  0  0  0  0  0  0  0  0  0
   10.2448  -16.4642   24.8195 O   0  0  0  0  0  0  0  0  0  0  0  0
    9.8160  -15.2393   26.6620 O   0  0  0  0  0  0  0  0  0  0  0  0
  2  1  1  1
  3  2  1  0
  4  3  1  0
  5  6  2  0
  5  4  1  0
  7  8  2  0
  7  2  1  0
  9  5  1  0
 10  7  1  0
 11 10  1  0
 11 14  1  0
 11 12  1  6
 13 12  1  0
 14 21  1  0
 15 14  2  0
 17 16  1  0
 18 17  1  0
 20 19  1  1
 19 18  1  0
 20 22  1  0
 21 20  1  0
 22 23  2  0
 22 24  1  0
M  END
$$$$
