ECM.pdb
     RDKit          3D

 24 23  0  0  1  0  0  0  0  0999 V2000
   10.6343  -17.5578   17.8557 N   0  0  0  0  0  0  0  0  0  0  0  0
   10.1909  -18.0680   19.1633 C   0  0  1  0  0  0  0  0  0  0  0  0
   11.4409  -18.5365   19.8602 C   0  0  0  0  0  0  0  0  0  0  0  0
   12.6241  -18.7380   18.9880 C   0  0  0  0  0  0  0  0  0  0  0  0
   13.8211  -19.0840   19.7783 C   0  0  0  0  0  0  0  0  0  0  0  0
   13.7513  -19.2084   21.0160 O   0  0  0  0  0  0  0  0  0  0  0  0
    9.6435  -16.9562   19.9908 C   0  0  0  0  0  0  0  0  0  0  0  0
   10.1669  -15.8190   19.8699 O   0  0  0  0  0  0  0  0  0  0  0  0
   15.0548  -19.2768   19.1376 O   0  0  0  0  0  0  0  0  0  0  0  0
    8.5824  -17.0923   20.8968 N   0  0  0  0  0  0  0  0  0  0  0  0
    7.9941  -15.9503   21.5622 C   0  0  1  0  0  0  0  0  0  0  0  0
    6.5295  -15.8854   21.1148 C   0  0  0  0  0  0  0  0  0  0  0  0
    5.6855  -17.4426   21.5015 S   0  0  0  0  0  0  0  0  0  0  0  0
    8.0519  -16.0685   23.0361 C   0  0  0  0  0  0  0  0  0  0  0  0
    7.3411  -16.9384   23.6035 O   0  0  0  0  0  0  0  0  0  0  0  0
    7.2753  -11.0621   27.5256 C   0  0  0  0  0  0  0  0  0  0  0  0
    6.0369  -12.1527   26.7802 S   0  0  0  0  0  0  0  0  0  0  0  0
    6.7454  -13.7893   26.6153 C   0  0  0  0  0  0  0  0  0  0  0  0
    7.3326  -14.0591   25.2702 C   0  0  0  0  0  0  0  0  0  0  0  0
    8.5201  -14.9653   25.2615 C   0  0  2  0  0  0  0  0  0  0  0  0
    8.8636  -15.2598   23.8734 N   0  0  0  0  0  0  0  0  0  0  0  0
    8.3665  -16.1974   26.0582 C   0  0  0  0  0  0  0  0  0  0  0  0
    7.5151  -17.0574   25.7195 O   0  0  0  0  0  0  0  0  0  0  0  0
    9.1224  -16.4743   27.1876 O   0  0  0  0  0  0  0  0  0  0  0  0
  2  1  1  6
  3  2  1  0
  4  3  1  0
  5  6  2  0
  5  4  1  0
  7  8  2  0
  7  2  1  0
  9  5  1  0
 10  7  1  0
 11 10  1  0
 11 14  1  0
 11 12  1  6
 13 12  1  0
 14 21  1  0
 15 14  2  0
 17 16  1  0
 18 17  1  0
 20 19  1  6
 19 18  1  0
 20 22  1  0
 21 20  1  0
 22 23  2  0
 22 24  1  0
M  END
$$$$
