APP.pdb
     RDKit          3D

 20 21  0  0  1  0  0  0  0  0999 V2000
   25.3512  -19.2817  -11.6405 C   0  0  0  0  0  0  0  0  0  0  0  0
   25.6525  -20.7582  -11.4924 C   0  0  2  0  0  0  0  0  0  0  0  0
   24.4994  -21.5706  -11.6837 N   0  0  0  0  0  0  0  0  0  0  0  0
   26.4117  -21.0793  -10.2945 C   0  0  0  0  0  0  0  0  0  0  0  0
   25.6608  -21.2448   -9.2529 O   0  0  0  0  0  0  0  0  0  0  0  0
   27.8088  -21.2250  -10.1412 N   0  0  0  0  0  0  0  0  0  0  0  0
   28.8445  -21.1493  -11.1413 C   0  0  0  0  0  0  0  0  0  0  0  0
   30.0360  -21.8695  -10.4789 C   0  0  0  0  0  0  0  0  0  0  0  0
   29.9241  -21.3052   -9.0816 C   0  0  0  0  0  0  0  0  0  0  0  0
   28.4224  -21.4984   -8.8302 C   0  0  1  0  0  0  0  0  0  0  0  0
   28.0300  -20.3894   -7.9252 C   0  0  0  0  0  0  0  0  0  0  0  0
   27.3928  -19.4212   -8.4436 O   0  0  0  0  0  0  0  0  0  0  0  0
   28.3214  -20.3563   -6.5486 N   0  0  0  0  0  0  0  0  0  0  0  0
   28.9448  -21.4428   -5.8315 C   0  0  0  0  0  0  0  0  0  0  0  0
   27.9545  -21.5874   -4.6686 C   0  0  0  0  0  0  0  0  0  0  0  0
   27.7213  -20.1338   -4.3162 C   0  0  0  0  0  0  0  0  0  0  0  0
   28.0974  -19.3289   -5.5680 C   0  0  1  0  0  0  0  0  0  0  0  0
   29.3931  -18.6452   -5.2097 C   0  0  0  0  0  0  0  0  0  0  0  0
   30.5645  -19.1754   -5.7370 O   0  0  0  0  0  0  0  0  0  0  0  0
   29.4608  -17.6478   -4.4782 O   0  0  0  0  0  0  0  0  0  0  0  0
  2  1  1  1
  2  4  1  0
  3  2  1  0
  4  5  2  0
  6 10  1  0
  6  4  1  0
  7  6  1  0
  8  9  1  0
  8  7  1  0
  9 10  1  0
 10 11  1  1
 11 13  1  0
 11 12  2  0
 13 17  1  0
 14 13  1  0
 14 15  1  0
 15 16  1  0
 17 16  1  0
 18 19  1  0
 17 18  1  1
 20 18  2  0
M  END
$$$$
