APP.pdb
     RDKit          3D

 20 21  0  0  1  0  0  0  0  0999 V2000
   21.3977  -22.1341  -15.1653 C   0  0  0  0  0  0  0  0  0  0  0  0
   21.5548  -21.6115  -13.7528 C   0  0  2  0  0  0  0  0  0  0  0  0
   20.3788  -20.9652  -13.2779 N   0  0  0  0  0  0  0  0  0  0  0  0
   22.7749  -20.8473  -13.5481 C   0  0  0  0  0  0  0  0  0  0  0  0
   22.5997  -19.5726  -13.6922 O   0  0  0  0  0  0  0  0  0  0  0  0
   24.0698  -21.3117  -13.2253 N   0  0  0  0  0  0  0  0  0  0  0  0
   24.4858  -22.6306  -12.8181 C   0  0  0  0  0  0  0  0  0  0  0  0
   25.8517  -22.3845  -12.1464 C   0  0  0  0  0  0  0  0  0  0  0  0
   26.4335  -21.3870  -13.1210 C   0  0  0  0  0  0  0  0  0  0  0  0
   25.2459  -20.4257  -13.2671 C   0  0  1  0  0  0  0  0  0  0  0  0
   25.3408  -19.8917  -14.6487 C   0  0  0  0  0  0  0  0  0  0  0  0
   24.5872  -20.4202  -15.5233 O   0  0  0  0  0  0  0  0  0  0  0  0
   26.2057  -18.8496  -15.0321 N   0  0  0  0  0  0  0  0  0  0  0  0
   27.1434  -18.2122  -14.1389 C   0  0  0  0  0  0  0  0  0  0  0  0
   26.7761  -16.7427  -14.3836 C   0  0  0  0  0  0  0  0  0  0  0  0
   26.6372  -16.7354  -15.8909 C   0  0  0  0  0  0  0  0  0  0  0  0
   26.3763  -18.1920  -16.2993 C   0  0  1  0  0  0  0  0  0  0  0  0
   27.6551  -18.6397  -16.9619 C   0  0  0  0  0  0  0  0  0  0  0  0
   28.5245  -19.4236  -16.2129 O   0  0  0  0  0  0  0  0  0  0  0  0
   27.9620  -18.3455  -18.1254 O   0  0  0  0  0  0  0  0  0  0  0  0
  2  1  1  6
  2  4  1  0
  3  2  1  0
  4  5  2  0
  6 10  1  0
  6  4  1  0
  7  6  1  0
  8  9  1  0
  8  7  1  0
  9 10  1  0
 10 11  1  6
 11 13  1  0
 11 12  2  0
 13 17  1  0
 14 13  1  0
 14 15  1  0
 15 16  1  0
 17 16  1  0
 18 19  1  0
 17 18  1  1
 20 18  2  0
M  END
$$$$
