APP.pdb
     RDKit          3D

 20 21  0  0  1  0  0  0  0  0999 V2000
   26.6372  -19.3471  -15.6863 C   0  0  0  0  0  0  0  0  0  0  0  0
   27.1870  -20.4385  -14.7921 C   0  0  2  0  0  0  0  0  0  0  0  0
   27.9261  -21.4152  -15.5175 N   0  0  0  0  0  0  0  0  0  0  0  0
   26.1997  -20.9972  -13.8825 C   0  0  0  0  0  0  0  0  0  0  0  0
   25.5044  -21.9489  -14.4183 O   0  0  0  0  0  0  0  0  0  0  0  0
   25.9229  -20.6394  -12.5438 N   0  0  0  0  0  0  0  0  0  0  0  0
   26.5864  -19.6706  -11.7074 C   0  0  0  0  0  0  0  0  0  0  0  0
   26.1827  -20.0923  -10.2804 C   0  0  0  0  0  0  0  0  0  0  0  0
   24.7238  -20.4075  -10.5160 C   0  0  0  0  0  0  0  0  0  0  0  0
   24.8333  -21.2714  -11.7800 C   0  0  1  0  0  0  0  0  0  0  0  0
   23.5764  -21.0289  -12.5313 C   0  0  0  0  0  0  0  0  0  0  0  0
   23.6098  -20.1407  -13.4380 O   0  0  0  0  0  0  0  0  0  0  0  0
   22.3729  -21.7196  -12.2957 N   0  0  0  0  0  0  0  0  0  0  0  0
   22.2252  -22.7677  -11.3144 C   0  0  0  0  0  0  0  0  0  0  0  0
   21.5916  -23.8558  -12.1912 C   0  0  0  0  0  0  0  0  0  0  0  0
   20.5831  -23.0375  -12.9689 C   0  0  0  0  0  0  0  0  0  0  0  0
   21.0803  -21.5863  -12.9111 C   0  0  1  0  0  0  0  0  0  0  0  0
   20.1192  -20.8881  -11.9819 C   0  0  0  0  0  0  0  0  0  0  0  0
   20.5059  -20.7365  -10.6557 O   0  0  0  0  0  0  0  0  0  0  0  0
   19.0174  -20.4500  -12.3405 O   0  0  0  0  0  0  0  0  0  0  0  0
  2  1  1  6
  2  4  1  0
  3  2  1  0
  4  5  2  0
  6 10  1  0
  6  4  1  0
  7  6  1  0
  8  9  1  0
  8  7  1  0
  9 10  1  0
 10 11  1  6
 11 13  1  0
 11 12  2  0
 13 17  1  0
 14 13  1  0
 14 15  1  0
 15 16  1  0
 17 16  1  0
 18 19  1  0
 17 18  1  1
 20 18  2  0
M  END
$$$$
