APP.pdb
     RDKit          3D

 20 21  0  0  1  0  0  0  0  0999 V2000
   24.7301  -18.2506  -14.5123 C   0  0  0  0  0  0  0  0  0  0  0  0
   24.7784  -19.7630  -14.4553 C   0  0  2  0  0  0  0  0  0  0  0  0
   23.5660  -20.3631  -14.8985 N   0  0  0  0  0  0  0  0  0  0  0  0
   25.2678  -20.2816  -13.1881 C   0  0  0  0  0  0  0  0  0  0  0  0
   24.3613  -20.2876  -12.2637 O   0  0  0  0  0  0  0  0  0  0  0  0
   26.5577  -20.7577  -12.8623 N   0  0  0  0  0  0  0  0  0  0  0  0
   27.7370  -20.8224  -13.6891 C   0  0  0  0  0  0  0  0  0  0  0  0
   28.6234  -21.8584  -12.9692 C   0  0  0  0  0  0  0  0  0  0  0  0
   28.4033  -21.4248  -11.5385 C   0  0  0  0  0  0  0  0  0  0  0  0
   26.8741  -21.2930  -11.5269 C   0  0  1  0  0  0  0  0  0  0  0  0
   26.5801  -20.2189  -10.5456 C   0  0  0  0  0  0  0  0  0  0  0  0
   26.4515  -19.0412  -11.0024 O   0  0  0  0  0  0  0  0  0  0  0  0
   26.4386  -20.4341   -9.1619 N   0  0  0  0  0  0  0  0  0  0  0  0
   26.3603  -21.7411   -8.5545 C   0  0  0  0  0  0  0  0  0  0  0  0
   25.0916  -21.5590   -7.7111 C   0  0  0  0  0  0  0  0  0  0  0  0
   25.3327  -20.1798   -7.1356 C   0  0  0  0  0  0  0  0  0  0  0  0
   26.3395  -19.4995   -8.0738 C   0  0  1  0  0  0  0  0  0  0  0  0
   27.6274  -19.4588   -7.2900 C   0  0  0  0  0  0  0  0  0  0  0  0
   27.8134  -18.3928   -6.4180 O   0  0  0  0  0  0  0  0  0  0  0  0
   28.5141  -20.3185   -7.3859 O   0  0  0  0  0  0  0  0  0  0  0  0
  2  1  1  1
  2  4  1  0
  3  2  1  0
  4  5  2  0
  6 10  1  0
  6  4  1  0
  7  6  1  0
  8  9  1  0
  8  7  1  0
  9 10  1  0
 10 11  1  1
 11 13  1  0
 11 12  2  0
 13 17  1  0
 14 13  1  0
 14 15  1  0
 15 16  1  0
 17 16  1  0
 18 19  1  0
 17 18  1  1
 20 18  2  0
M  END
$$$$
