APP.pdb
     RDKit          3D

 20 21  0  0  1  0  0  0  0  0999 V2000
   22.1973  -11.0231  -19.4973 C   0  0  0  0  0  0  0  0  0  0  0  0
   21.7492  -11.8524  -18.3122 C   0  0  2  0  0  0  0  0  0  0  0  0
   20.6519  -12.7027  -18.6270 N   0  0  0  0  0  0  0  0  0  0  0  0
   21.5683  -11.0771  -17.0954 C   0  0  0  0  0  0  0  0  0  0  0  0
   20.4533  -10.4190  -17.0798 O   0  0  0  0  0  0  0  0  0  0  0  0
   22.4274  -10.9628  -15.9794 N   0  0  0  0  0  0  0  0  0  0  0  0
   23.6763  -11.6357  -15.7226 C   0  0  0  0  0  0  0  0  0  0  0  0
   23.8545  -11.4917  -14.1979 C   0  0  0  0  0  0  0  0  0  0  0  0
   23.4162  -10.0554  -14.0293 C   0  0  0  0  0  0  0  0  0  0  0  0
   22.1188  -10.0694  -14.8495 C   0  0  1  0  0  0  0  0  0  0  0  0
   21.9885   -8.6976  -15.4012 C   0  0  0  0  0  0  0  0  0  0  0  0
   22.5090   -8.4829  -16.5392 O   0  0  0  0  0  0  0  0  0  0  0  0
   21.3299   -7.6432  -14.7413 N   0  0  0  0  0  0  0  0  0  0  0  0
   20.5481   -7.8092  -13.5394 C   0  0  0  0  0  0  0  0  0  0  0  0
   19.2551   -7.1059  -13.9724 C   0  0  0  0  0  0  0  0  0  0  0  0
   19.8188   -5.8814  -14.6612 C   0  0  0  0  0  0  0  0  0  0  0  0
   21.2585   -6.2416  -15.0540 C   0  0  1  0  0  0  0  0  0  0  0  0
   22.1244   -5.4427  -14.1125 C   0  0  0  0  0  0  0  0  0  0  0  0
   22.5094   -4.1708  -14.5193 O   0  0  0  0  0  0  0  0  0  0  0  0
   22.5029   -5.8612  -13.0097 O   0  0  0  0  0  0  0  0  0  0  0  0
  2  1  1  6
  2  4  1  0
  3  2  1  0
  4  5  2  0
  6 10  1  0
  6  4  1  0
  7  6  1  0
  8  9  1  0
  8  7  1  0
  9 10  1  0
 10 11  1  6
 11 13  1  0
 11 12  2  0
 13 17  1  0
 14 13  1  0
 14 15  1  0
 15 16  1  0
 17 16  1  0
 18 19  1  0
 17 18  1  1
 20 18  2  0
M  END
$$$$
