APP.pdb
     RDKit          3D

 20 21  0  0  1  0  0  0  0  0999 V2000
   14.1799  -22.6399    3.4106 C   0  0  0  0  0  0  0  0  0  0  0  0
   14.8272  -21.8243    2.3111 C   0  0  2  0  0  0  0  0  0  0  0  0
   15.1657  -22.6134    1.1758 N   0  0  0  0  0  0  0  0  0  0  0  0
   15.9045  -20.9677    2.7802 C   0  0  0  0  0  0  0  0  0  0  0  0
   17.0203  -21.6050    2.9392 O   0  0  0  0  0  0  0  0  0  0  0  0
   15.8775  -19.5849    3.0696 N   0  0  0  0  0  0  0  0  0  0  0  0
   14.7755  -18.6598    2.9785 C   0  0  0  0  0  0  0  0  0  0  0  0
   15.4666  -17.2825    2.9276 C   0  0  0  0  0  0  0  0  0  0  0  0
   16.5328  -17.4988    3.9764 C   0  0  0  0  0  0  0  0  0  0  0  0
   17.0756  -18.8647    3.5342 C   0  0  1  0  0  0  0  0  0  0  0  0
   17.5279  -19.5299    4.7816 C   0  0  0  0  0  0  0  0  0  0  0  0
   16.8551  -20.5317    5.1765 O   0  0  0  0  0  0  0  0  0  0  0  0
   18.6428  -19.1161    5.5345 N   0  0  0  0  0  0  0  0  0  0  0  0
   19.5128  -18.0293    5.1535 C   0  0  0  0  0  0  0  0  0  0  0  0
   20.8713  -18.7336    5.2655 C   0  0  0  0  0  0  0  0  0  0  0  0
   20.6903  -19.4872    6.5658 C   0  0  0  0  0  0  0  0  0  0  0  0
   19.1747  -19.6163    6.7731 C   0  0  1  0  0  0  0  0  0  0  0  0
   18.8605  -18.6714    7.9059 C   0  0  0  0  0  0  0  0  0  0  0  0
   19.0248  -19.1470    9.2013 O   0  0  0  0  0  0  0  0  0  0  0  0
   18.4686  -17.5084    7.7378 O   0  0  0  0  0  0  0  0  0  0  0  0
  2  1  1  1
  2  4  1  0
  3  2  1  0
  4  5  2  0
  6 10  1  0
  6  4  1  0
  7  6  1  0
  8  9  1  0
  8  7  1  0
  9 10  1  0
 10 11  1  1
 11 13  1  0
 11 12  2  0
 13 17  1  0
 14 13  1  0
 14 15  1  0
 15 16  1  0
 17 16  1  0
 18 19  1  0
 17 18  1  1
 20 18  2  0
M  END
$$$$
