APP.pdb
     RDKit          3D

 20 21  0  0  1  0  0  0  0  0999 V2000
   25.2149  -19.1869  -11.3034 C   0  0  0  0  0  0  0  0  0  0  0  0
   25.4420  -20.6717  -11.1116 C   0  0  2  0  0  0  0  0  0  0  0  0
   24.2341  -21.4211  -11.1874 N   0  0  0  0  0  0  0  0  0  0  0  0
   26.2651  -20.9893   -9.9557 C   0  0  0  0  0  0  0  0  0  0  0  0
   25.5733  -21.1359   -8.8711 O   0  0  0  0  0  0  0  0  0  0  0  0
   27.6670  -21.1491   -9.8809 N   0  0  0  0  0  0  0  0  0  0  0  0
   28.6467  -21.0750  -10.9360 C   0  0  0  0  0  0  0  0  0  0  0  0
   29.8659  -21.8115  -10.3459 C   0  0  0  0  0  0  0  0  0  0  0  0
   29.8367  -21.2574   -8.9404 C   0  0  0  0  0  0  0  0  0  0  0  0
   28.3493  -21.4387   -8.6078 C   0  0  1  0  0  0  0  0  0  0  0  0
   28.0182  -20.3334   -7.6743 C   0  0  0  0  0  0  0  0  0  0  0  0
   27.3748  -19.3488   -8.1528 O   0  0  0  0  0  0  0  0  0  0  0  0
   28.3730  -20.3205   -6.3123 N   0  0  0  0  0  0  0  0  0  0  0  0
   29.0055  -21.4270   -5.6349 C   0  0  0  0  0  0  0  0  0  0  0  0
   28.0666  -21.5632   -4.4290 C   0  0  0  0  0  0  0  0  0  0  0  0
   27.8805  -20.1088   -4.0526 C   0  0  0  0  0  0  0  0  0  0  0  0
   28.2158  -19.2989   -5.3128 C   0  0  1  0  0  0  0  0  0  0  0  0
   29.5407  -18.6459   -5.0081 C   0  0  0  0  0  0  0  0  0  0  0  0
   29.5451  -17.6038   -4.0887 O   0  0  0  0  0  0  0  0  0  0  0  0
   30.6094  -18.9901   -5.5316 O   0  0  0  0  0  0  0  0  0  0  0  0
  2  1  1  1
  2  4  1  0
  3  2  1  0
  4  5  2  0
  6 10  1  0
  6  4  1  0
  7  6  1  0
  8  9  1  0
  8  7  1  0
  9 10  1  0
 10 11  1  1
 11 13  1  0
 11 12  2  0
 13 17  1  0
 14 13  1  0
 14 15  1  0
 15 16  1  0
 17 16  1  0
 18 19  1  0
 17 18  1  1
 20 18  2  0
M  END
$$$$
