APP.pdb
     RDKit          3D

 20 21  0  0  1  0  0  0  0  0999 V2000
   25.3270  -22.4137  -17.9188 C   0  0  0  0  0  0  0  0  0  0  0  0
   26.7884  -22.1739  -17.6029 C   0  0  2  0  0  0  0  0  0  0  0  0
   27.6091  -23.2843  -17.9488 N   0  0  0  0  0  0  0  0  0  0  0  0
   27.0167  -21.6634  -16.2606 C   0  0  0  0  0  0  0  0  0  0  0  0
   27.1291  -22.6037  -15.3777 O   0  0  0  0  0  0  0  0  0  0  0  0
   27.1251  -20.3230  -15.8269 N   0  0  0  0  0  0  0  0  0  0  0  0
   27.0949  -19.1112  -16.6074 C   0  0  0  0  0  0  0  0  0  0  0  0
   27.7473  -18.0690  -15.6771 C   0  0  0  0  0  0  0  0  0  0  0  0
   27.0952  -18.4571  -14.3704 C   0  0  0  0  0  0  0  0  0  0  0  0
   27.3005  -19.9778  -14.4056 C   0  0  1  0  0  0  0  0  0  0  0  0
   26.1425  -20.5474  -13.6724 C   0  0  0  0  0  0  0  0  0  0  0  0
   25.2221  -21.0748  -14.3702 O   0  0  0  0  0  0  0  0  0  0  0  0
   26.0145  -20.5340  -12.2708 N   0  0  0  0  0  0  0  0  0  0  0  0
   27.0077  -19.9879  -11.3771 C   0  0  0  0  0  0  0  0  0  0  0  0
   27.1728  -21.1739  -10.4178 C   0  0  0  0  0  0  0  0  0  0  0  0
   25.7270  -21.5734  -10.2140 C   0  0  0  0  0  0  0  0  0  0  0  0
   24.9597  -21.0174  -11.4217 C   0  0  1  0  0  0  0  0  0  0  0  0
   24.1544  -19.8682  -10.8687 C   0  0  0  0  0  0  0  0  0  0  0  0
   24.6878  -18.5914  -10.9976 O   0  0  0  0  0  0  0  0  0  0  0  0
   23.0560  -20.0075  -10.3133 O   0  0  0  0  0  0  0  0  0  0  0  0
  2  1  1  1
  2  4  1  0
  3  2  1  0
  4  5  2  0
  6 10  1  0
  6  4  1  0
  7  6  1  0
  8  9  1  0
  8  7  1  0
  9 10  1  0
 10 11  1  1
 11 13  1  0
 11 12  2  0
 13 17  1  0
 14 13  1  0
 14 15  1  0
 15 16  1  0
 17 16  1  0
 18 19  1  0
 17 18  1  1
 20 18  2  0
M  END
$$$$
