HIK.pdb
     RDKit          3D

 28 28  0  0  1  0  0  0  0  0999 V2000
    9.7444  -13.5938   20.6070 N   0  0  0  0  0  0  0  0  0  0  0  0
    8.5119  -13.9335   21.2819 C   0  0  1  0  0  0  0  0  0  0  0  0
    7.7431  -15.0147   20.5521 C   0  0  0  0  0  0  0  0  0  0  0  0
    7.4722  -14.6919   19.1448 C   0  0  0  0  0  0  0  0  0  0  0  0
    7.0639  -13.4679   18.6581 C   0  0  0  0  0  0  0  0  0  0  0  0
    6.9117  -13.5408   17.3137 N   0  0  0  0  0  0  0  0  0  0  0  0
    7.2264  -14.8020   16.9898 C   0  0  0  0  0  0  0  0  0  0  0  0
    7.5660  -15.5061   18.0847 N   0  0  0  0  0  0  0  0  0  0  0  0
    8.8270  -14.3269   22.6704 C   0  0  0  0  0  0  0  0  0  0  0  0
    9.9073  -14.9144   22.9102 O   0  0  0  0  0  0  0  0  0  0  0  0
    6.0163  -11.4957   26.3862 C   0  0  0  0  0  0  0  0  0  0  0  0
    7.1971  -12.0475   25.5739 C   0  0  0  0  0  0  0  0  0  0  0  0
    7.3717  -13.4684   25.9632 C   0  0  2  0  0  0  0  0  0  0  0  0
    7.5774  -13.6121   27.4415 C   0  0  0  0  0  0  0  0  0  0  0  0
    8.4240  -14.2314   25.1720 C   0  0  2  0  0  0  0  0  0  0  0  0
    7.9639  -14.0745   23.7678 N   0  0  0  0  0  0  0  0  0  0  0  0
    8.4176  -15.6301   25.5706 C   0  0  0  0  0  0  0  0  0  0  0  0
    7.3206  -16.2571   25.5998 O   0  0  0  0  0  0  0  0  0  0  0  0
    9.5811  -16.3118   25.9201 N   0  0  0  0  0  0  0  0  0  0  0  0
    9.5970  -17.7202   26.3213 C   0  0  1  0  0  0  0  0  0  0  0  0
   10.9052  -18.2871   25.7590 C   0  0  0  0  0  0  0  0  0  0  0  0
   11.0300  -19.7074   26.2601 C   0  0  0  0  0  0  0  0  0  0  0  0
   12.2829  -20.3704   25.7367 C   0  0  0  0  0  0  0  0  0  0  0  0
   12.3938  -21.7965   26.1913 C   0  0  0  0  0  0  0  0  0  0  0  0
   13.6938  -22.2968   25.7602 N   0  0  0  0  0  0  0  0  0  0  0  0
    9.6639  -17.8637   27.7847 C   0  0  0  0  0  0  0  0  0  0  0  0
   10.0697  -16.9942   28.5858 O   0  0  0  0  0  0  0  0  0  0  0  0
    9.2429  -19.0684   28.3578 O   0  0  0  0  0  0  0  0  0  0  0  0
  2  1  1  6
  3  2  1  0
  4  3  1  0
  4  5  2  0
  6  5  1  0
  7  8  2  0
  7  6  1  0
  8  4  1  0
  9  2  1  0
 10  9  2  0
 12 11  1  0
 13 15  1  0
 13 12  1  0
 13 14  1  1
 15 16  1  6
 16  9  1  0
 17 15  1  0
 18 17  2  0
 19 17  1  0
 20 26  1  0
 20 19  1  0
 21 22  1  0
 20 21  1  6
 23 24  1  0
 23 22  1  0
 24 25  1  0
 26 28  1  0
 27 26  2  0
M  END
$$$$
