HIK.pdb
     RDKit          3D

 28 28  0  0  1  0  0  0  0  0999 V2000
    9.1059  -17.6257   17.7244 N   0  0  0  0  0  0  0  0  0  0  0  0
   10.4648  -17.4303   18.1775 C   0  0  1  0  0  0  0  0  0  0  0  0
   11.3696  -16.9397   17.0669 C   0  0  0  0  0  0  0  0  0  0  0  0
   10.8412  -17.2039   15.7218 C   0  0  0  0  0  0  0  0  0  0  0  0
    9.5233  -17.0906   15.3320 C   0  0  0  0  0  0  0  0  0  0  0  0
    9.4072  -17.4141   14.0214 N   0  0  0  0  0  0  0  0  0  0  0  0
   10.6483  -17.7212   13.6214 C   0  0  0  0  0  0  0  0  0  0  0  0
   11.5219  -17.5984   14.6371 N   0  0  0  0  0  0  0  0  0  0  0  0
   10.4508  -16.4998   19.3246 C   0  0  0  0  0  0  0  0  0  0  0  0
   11.5308  -16.2050   19.8872 O   0  0  0  0  0  0  0  0  0  0  0  0
    7.0571  -12.3731   19.5318 C   0  0  0  0  0  0  0  0  0  0  0  0
    8.3590  -13.1675   19.7124 C   0  0  0  0  0  0  0  0  0  0  0  0
    8.1498  -14.1011   20.8462 C   0  0  2  0  0  0  0  0  0  0  0  0
    7.7885  -13.3675   22.1031 C   0  0  0  0  0  0  0  0  0  0  0  0
    9.2760  -15.0973   21.0803 C   0  0  2  0  0  0  0  0  0  0  0  0
    9.2663  -15.9098   19.8361 N   0  0  0  0  0  0  0  0  0  0  0  0
    8.9707  -15.9174   22.2420 C   0  0  0  0  0  0  0  0  0  0  0  0
    8.0156  -16.7428   22.1794 O   0  0  0  0  0  0  0  0  0  0  0  0
    9.6967  -15.8314   23.4278 N   0  0  0  0  0  0  0  0  0  0  0  0
    9.9398  -16.9781   24.3057 C   0  0  1  0  0  0  0  0  0  0  0  0
   10.8186  -17.9333   23.4907 C   0  0  0  0  0  0  0  0  0  0  0  0
   11.0887  -19.1423   24.3564 C   0  0  0  0  0  0  0  0  0  0  0  0
   11.8826  -20.1899   23.6112 C   0  0  0  0  0  0  0  0  0  0  0  0
   12.2230  -21.3618   24.4850 C   0  0  0  0  0  0  0  0  0  0  0  0
   13.0937  -22.2452   23.7185 N   0  0  0  0  0  0  0  0  0  0  0  0
   10.7174  -16.5924   25.4945 C   0  0  0  0  0  0  0  0  0  0  0  0
   11.5578  -15.6687   25.5490 O   0  0  0  0  0  0  0  0  0  0  0  0
   10.5194  -17.3043   26.6823 O   0  0  0  0  0  0  0  0  0  0  0  0
  2  1  1  6
  3  2  1  0
  4  3  1  0
  4  5  2  0
  6  5  1  0
  7  8  2  0
  7  6  1  0
  8  4  1  0
  9  2  1  0
 10  9  2  0
 12 11  1  0
 13 15  1  0
 13 12  1  0
 13 14  1  1
 15 16  1  6
 16  9  1  0
 17 15  1  0
 18 17  2  0
 19 17  1  0
 20 26  1  0
 20 19  1  0
 21 22  1  0
 20 21  1  6
 23 24  1  0
 23 22  1  0
 24 25  1  0
 26 28  1  0
 27 26  2  0
M  END
$$$$
