HIK.pdb
     RDKit          3D

 28 28  0  0  1  0  0  0  0  0999 V2000
    9.4028  -17.6019   16.2001 N   0  0  0  0  0  0  0  0  0  0  0  0
    8.5006  -17.6589   17.3282 C   0  0  1  0  0  0  0  0  0  0  0  0
    8.1329  -19.0821   17.6911 C   0  0  0  0  0  0  0  0  0  0  0  0
    7.3605  -19.7711   16.6486 C   0  0  0  0  0  0  0  0  0  0  0  0
    6.0120  -19.6178   16.4043 C   0  0  0  0  0  0  0  0  0  0  0  0
    5.6442  -20.4111   15.3693 N   0  0  0  0  0  0  0  0  0  0  0  0
    6.7645  -21.0402   14.9901 C   0  0  0  0  0  0  0  0  0  0  0  0
    7.8061  -20.6631   15.7535 N   0  0  0  0  0  0  0  0  0  0  0  0
    9.1196  -16.9459   18.4642 C   0  0  0  0  0  0  0  0  0  0  0  0
   10.3514  -17.0619   18.6620 O   0  0  0  0  0  0  0  0  0  0  0  0
    6.9912  -12.2000   20.0801 C   0  0  0  0  0  0  0  0  0  0  0  0
    8.0235  -13.2535   19.6521 C   0  0  0  0  0  0  0  0  0  0  0  0
    8.1212  -14.2444   20.7518 C   0  0  2  0  0  0  0  0  0  0  0  0
    8.4226  -13.5825   22.0631 C   0  0  0  0  0  0  0  0  0  0  0  0
    9.0544  -15.4165   20.4856 C   0  0  2  0  0  0  0  0  0  0  0  0
    8.3895  -16.1230   19.3601 N   0  0  0  0  0  0  0  0  0  0  0  0
    9.1251  -16.2639   21.6656 C   0  0  0  0  0  0  0  0  0  0  0  0
    8.0608  -16.7622   22.1305 O   0  0  0  0  0  0  0  0  0  0  0  0
   10.3281  -16.5532   22.3056 N   0  0  0  0  0  0  0  0  0  0  0  0
   10.4283  -17.4474   23.4611 C   0  0  1  0  0  0  0  0  0  0  0  0
   11.8409  -18.0384   23.3950 C   0  0  0  0  0  0  0  0  0  0  0  0
   11.7015  -19.5414   23.4698 C   0  0  0  0  0  0  0  0  0  0  0  0
   13.0507  -20.2211   23.5000 C   0  0  0  0  0  0  0  0  0  0  0  0
   12.9249  -21.7102   23.6395 C   0  0  0  0  0  0  0  0  0  0  0  0
   14.2729  -22.2622   23.7063 N   0  0  0  0  0  0  0  0  0  0  0  0
   10.3357  -16.7041   24.7282 C   0  0  0  0  0  0  0  0  0  0  0  0
   10.6155  -15.4964   24.8884 O   0  0  0  0  0  0  0  0  0  0  0  0
    9.8990  -17.3830   25.8707 O   0  0  0  0  0  0  0  0  0  0  0  0
  2  1  1  6
  3  2  1  0
  4  3  1  0
  4  5  2  0
  6  5  1  0
  7  8  2  0
  7  6  1  0
  8  4  1  0
  9  2  1  0
 10  9  2  0
 12 11  1  0
 13 15  1  0
 13 12  1  0
 13 14  1  1
 15 16  1  6
 16  9  1  0
 17 15  1  0
 18 17  2  0
 19 17  1  0
 20 26  1  0
 20 19  1  0
 21 22  1  0
 20 21  1  1
 23 24  1  0
 23 22  1  0
 24 25  1  0
 26 28  1  0
 27 26  2  0
M  END
$$$$
