HIK.pdb
     RDKit          3D

 28 28  0  0  1  0  0  0  0  0999 V2000
    9.2199  -17.9130   16.8887 N   0  0  0  0  0  0  0  0  0  0  0  0
    8.3776  -17.9872   18.0613 C   0  0  1  0  0  0  0  0  0  0  0  0
    8.2551  -19.4026   18.5850 C   0  0  0  0  0  0  0  0  0  0  0  0
    7.6371  -20.3295   17.6274 C   0  0  0  0  0  0  0  0  0  0  0  0
    6.4689  -20.1121   16.9275 C   0  0  0  0  0  0  0  0  0  0  0  0
    6.2047  -21.1825   16.1398 N   0  0  0  0  0  0  0  0  0  0  0  0
    7.2079  -22.0420   16.3625 C   0  0  0  0  0  0  0  0  0  0  0  0
    8.0779  -21.5395   17.2573 N   0  0  0  0  0  0  0  0  0  0  0  0
    8.9130  -17.0679   19.0861 C   0  0  0  0  0  0  0  0  0  0  0  0
   10.1519  -16.9998   19.2604 O   0  0  0  0  0  0  0  0  0  0  0  0
    8.1788  -12.6065   19.7820 C   0  0  0  0  0  0  0  0  0  0  0  0
    7.0708  -13.6161   20.1162 C   0  0  0  0  0  0  0  0  0  0  0  0
    7.5403  -14.4154   21.2745 C   0  0  2  0  0  0  0  0  0  0  0  0
    7.8624  -13.5426   22.4504 C   0  0  0  0  0  0  0  0  0  0  0  0
    8.6681  -15.3913   20.9725 C   0  0  2  0  0  0  0  0  0  0  0  0
    8.0935  -16.2429   19.8989 N   0  0  0  0  0  0  0  0  0  0  0  0
    8.9662  -16.1774   22.1594 C   0  0  0  0  0  0  0  0  0  0  0  0
    8.0237  -16.7674   22.7600 O   0  0  0  0  0  0  0  0  0  0  0  0
   10.2589  -16.3099   22.6614 N   0  0  0  0  0  0  0  0  0  0  0  0
   10.5732  -17.0508   23.8850 C   0  0  1  0  0  0  0  0  0  0  0  0
   11.8345  -17.8576   23.5575 C   0  0  0  0  0  0  0  0  0  0  0  0
   11.5018  -18.7536   22.3868 C   0  0  0  0  0  0  0  0  0  0  0  0
   12.6992  -19.5682   21.9560 C   0  0  0  0  0  0  0  0  0  0  0  0
   12.3880  -20.4401   20.7746 C   0  0  0  0  0  0  0  0  0  0  0  0
   13.6227  -21.1103   20.3839 N   0  0  0  0  0  0  0  0  0  0  0  0
   10.9220  -16.1437   24.9905 C   0  0  0  0  0  0  0  0  0  0  0  0
   11.1202  -14.9136   24.8908 O   0  0  0  0  0  0  0  0  0  0  0  0
   11.0498  -16.6771   26.2774 O   0  0  0  0  0  0  0  0  0  0  0  0
  2  1  1  6
  3  2  1  0
  4  3  1  0
  4  5  2  0
  6  5  1  0
  7  8  2  0
  7  6  1  0
  8  4  1  0
  9  2  1  0
 10  9  2  0
 12 11  1  0
 13 15  1  0
 13 12  1  0
 13 14  1  1
 15 16  1  6
 16  9  1  0
 17 15  1  0
 18 17  2  0
 19 17  1  0
 20 26  1  0
 20 19  1  0
 21 22  1  0
 20 21  1  6
 23 24  1  0
 23 22  1  0
 24 25  1  0
 26 28  1  0
 27 26  2  0
M  END
$$$$
