HIK.pdb
     RDKit          3D

 28 28  0  0  1  0  0  0  0  0999 V2000
    9.0292  -13.8330   20.5685 N   0  0  0  0  0  0  0  0  0  0  0  0
    8.1253  -14.6248   21.3722 C   0  0  1  0  0  0  0  0  0  0  0  0
    7.9293  -16.0150   20.8051 C   0  0  0  0  0  0  0  0  0  0  0  0
    7.4884  -16.0187   19.4037 C   0  0  0  0  0  0  0  0  0  0  0  0
    6.2117  -15.7535   18.9551 C   0  0  0  0  0  0  0  0  0  0  0  0
    6.1753  -15.8495   17.6040 N   0  0  0  0  0  0  0  0  0  0  0  0
    7.4234  -16.1709   17.2383 C   0  0  0  0  0  0  0  0  0  0  0  0
    8.2245  -16.2759   18.3140 N   0  0  0  0  0  0  0  0  0  0  0  0
    8.6371  -14.6648   22.7573 C   0  0  0  0  0  0  0  0  0  0  0  0
    9.8458  -14.9278   22.9562 O   0  0  0  0  0  0  0  0  0  0  0  0
    5.8895  -11.6058   26.2350 C   0  0  0  0  0  0  0  0  0  0  0  0
    7.0850  -12.1781   25.4593 C   0  0  0  0  0  0  0  0  0  0  0  0
    7.3719  -13.5202   26.0226 C   0  0  2  0  0  0  0  0  0  0  0  0
    7.6921  -13.4456   27.4856 C   0  0  0  0  0  0  0  0  0  0  0  0
    8.4079  -14.3337   25.2608 C   0  0  2  0  0  0  0  0  0  0  0  0
    7.8270  -14.4188   23.8958 N   0  0  0  0  0  0  0  0  0  0  0  0
    8.5310  -15.6535   25.8593 C   0  0  0  0  0  0  0  0  0  0  0  0
    7.5120  -16.3986   25.9221 O   0  0  0  0  0  0  0  0  0  0  0  0
    9.7365  -16.1337   26.3661 N   0  0  0  0  0  0  0  0  0  0  0  0
    9.9030  -17.4904   26.8920 C   0  0  1  0  0  0  0  0  0  0  0  0
   11.1905  -18.0187   26.2499 C   0  0  0  0  0  0  0  0  0  0  0  0
   11.4183  -19.4136   26.7852 C   0  0  0  0  0  0  0  0  0  0  0  0
   12.7410  -19.9758   26.3185 C   0  0  0  0  0  0  0  0  0  0  0  0
   12.9807  -21.3588   26.8501 C   0  0  0  0  0  0  0  0  0  0  0  0
   14.3279  -21.7548   26.4571 N   0  0  0  0  0  0  0  0  0  0  0  0
   10.1244  -17.4816   28.3471 C   0  0  0  0  0  0  0  0  0  0  0  0
   10.5477  -16.5138   29.0154 O   0  0  0  0  0  0  0  0  0  0  0  0
    9.8449  -18.6447   29.0725 O   0  0  0  0  0  0  0  0  0  0  0  0
  2  1  1  6
  3  2  1  0
  4  3  1  0
  4  5  2  0
  6  5  1  0
  7  8  2  0
  7  6  1  0
  8  4  1  0
  9  2  1  0
 10  9  2  0
 12 11  1  0
 13 15  1  0
 13 12  1  0
 13 14  1  1
 15 16  1  6
 16  9  1  0
 17 15  1  0
 18 17  2  0
 19 17  1  0
 20 26  1  0
 20 19  1  0
 21 22  1  0
 20 21  1  6
 23 24  1  0
 23 22  1  0
 24 25  1  0
 26 28  1  0
 27 26  2  0
M  END
$$$$
