HIK.pdb
     RDKit          3D

 28 28  0  0  1  0  0  0  0  0999 V2000
    9.9285  -17.7926   16.8796 N   0  0  0  0  0  0  0  0  0  0  0  0
    8.8475  -17.7604   17.8391 C   0  0  1  0  0  0  0  0  0  0  0  0
    8.3584  -19.1493   18.1916 C   0  0  0  0  0  0  0  0  0  0  0  0
    7.6208  -19.8040   17.1028 C   0  0  0  0  0  0  0  0  0  0  0  0
    6.7757  -19.1822   16.2079 C   0  0  0  0  0  0  0  0  0  0  0  0
    6.2722  -20.0984   15.3460 N   0  0  0  0  0  0  0  0  0  0  0  0
    6.8102  -21.2675   15.7181 C   0  0  0  0  0  0  0  0  0  0  0  0
    7.6250  -21.1035   16.7760 N   0  0  0  0  0  0  0  0  0  0  0  0
    9.2989  -17.0183   19.0339 C   0  0  0  0  0  0  0  0  0  0  0  0
   10.4796  -17.1553   19.4300 O   0  0  0  0  0  0  0  0  0  0  0  0
    6.8538  -12.2859   20.2980 C   0  0  0  0  0  0  0  0  0  0  0  0
    7.9865  -13.2874   20.0284 C   0  0  0  0  0  0  0  0  0  0  0  0
    7.9606  -14.2852   21.1260 C   0  0  2  0  0  0  0  0  0  0  0  0
    8.0669  -13.6277   22.4695 C   0  0  0  0  0  0  0  0  0  0  0  0
    8.9501  -15.4321   20.9811 C   0  0  2  0  0  0  0  0  0  0  0  0
    8.4602  -16.1444   19.7726 N   0  0  0  0  0  0  0  0  0  0  0  0
    8.8827  -16.2881   22.1551 C   0  0  0  0  0  0  0  0  0  0  0  0
    7.7958  -16.8716   22.4303 O   0  0  0  0  0  0  0  0  0  0  0  0
    9.9772  -16.4949   22.9918 N   0  0  0  0  0  0  0  0  0  0  0  0
    9.9568  -17.4199   24.1270 C   0  0  1  0  0  0  0  0  0  0  0  0
   11.4003  -17.9142   24.2728 C   0  0  0  0  0  0  0  0  0  0  0  0
   11.4292  -18.8742   25.4398 C   0  0  0  0  0  0  0  0  0  0  0  0
   12.7872  -19.5193   25.5915 C   0  0  0  0  0  0  0  0  0  0  0  0
   12.8539  -20.4068   26.8001 C   0  0  0  0  0  0  0  0  0  0  0  0
   14.1903  -20.9883   26.8468 N   0  0  0  0  0  0  0  0  0  0  0  0
    9.6139  -16.7285   25.3804 C   0  0  0  0  0  0  0  0  0  0  0  0
    9.1653  -17.2701   26.4138 O   0  0  0  0  0  0  0  0  0  0  0  0
    9.7957  -15.3433   25.4506 O   0  0  0  0  0  0  0  0  0  0  0  0
  2  1  1  6
  3  2  1  0
  4  3  1  0
  4  5  2  0
  6  5  1  0
  7  8  2  0
  7  6  1  0
  8  4  1  0
  9  2  1  0
 10  9  2  0
 12 11  1  0
 13 15  1  0
 13 12  1  0
 13 14  1  1
 15 16  1  6
 16  9  1  0
 17 15  1  0
 18 17  2  0
 19 17  1  0
 20 26  1  0
 20 19  1  0
 21 22  1  0
 20 21  1  1
 23 24  1  0
 23 22  1  0
 24 25  1  0
 26 28  1  0
 27 26  2  0
M  END
$$$$
