HIK.pdb
     RDKit          3D

 28 28  0  0  1  0  0  0  0  0999 V2000
    9.0960  -15.5139   19.9768 N   0  0  0  0  0  0  0  0  0  0  0  0
    8.1521  -15.7922   21.0358 C   0  0  1  0  0  0  0  0  0  0  0  0
    7.7428  -17.2497   21.0644 C   0  0  0  0  0  0  0  0  0  0  0  0
    7.0350  -17.6828   19.8520 C   0  0  0  0  0  0  0  0  0  0  0  0
    6.9055  -16.9574   18.6864 C   0  0  0  0  0  0  0  0  0  0  0  0
    6.1888  -17.6704   17.7843 N   0  0  0  0  0  0  0  0  0  0  0  0
    5.8869  -18.8204   18.4015 C   0  0  0  0  0  0  0  0  0  0  0  0
    6.3913  -18.8402   19.6486 N   0  0  0  0  0  0  0  0  0  0  0  0
    8.7433  -15.3635   22.3198 C   0  0  0  0  0  0  0  0  0  0  0  0
    9.9234  -15.6872   22.5890 O   0  0  0  0  0  0  0  0  0  0  0  0
    6.9947  -11.7085   26.9280 C   0  0  0  0  0  0  0  0  0  0  0  0
    8.0696  -12.7263   26.5192 C   0  0  0  0  0  0  0  0  0  0  0  0
    7.6881  -13.2563   25.1871 C   0  0  2  0  0  0  0  0  0  0  0  0
    6.2493  -13.6774   25.1543 C   0  0  0  0  0  0  0  0  0  0  0  0
    8.6038  -14.3390   24.6351 C   0  0  2  0  0  0  0  0  0  0  0  0
    8.0420  -14.5935   23.2832 N   0  0  0  0  0  0  0  0  0  0  0  0
    8.5157  -15.5271   25.4695 C   0  0  0  0  0  0  0  0  0  0  0  0
    7.4042  -16.1173   25.5851 O   0  0  0  0  0  0  0  0  0  0  0  0
    9.6164  -16.0460   26.1476 N   0  0  0  0  0  0  0  0  0  0  0  0
    9.5678  -17.2836   26.9293 C   0  0  1  0  0  0  0  0  0  0  0  0
   10.7384  -18.1312   26.4194 C   0  0  0  0  0  0  0  0  0  0  0  0
   10.3743  -18.6101   25.0329 C   0  0  0  0  0  0  0  0  0  0  0  0
   11.4948  -19.4119   24.4127 C   0  0  0  0  0  0  0  0  0  0  0  0
   11.2077  -19.7622   22.9818 C   0  0  0  0  0  0  0  0  0  0  0  0
   12.4000  -20.4002   22.4363 N   0  0  0  0  0  0  0  0  0  0  0  0
    9.8153  -17.0296   28.3578 C   0  0  0  0  0  0  0  0  0  0  0  0
   10.2123  -15.9511   28.8496 O   0  0  0  0  0  0  0  0  0  0  0  0
    9.5953  -18.0680   29.2690 O   0  0  0  0  0  0  0  0  0  0  0  0
  2  1  1  6
  3  2  1  0
  4  3  1  0
  4  5  2  0
  6  5  1  0
  7  8  2  0
  7  6  1  0
  8  4  1  0
  9  2  1  0
 10  9  2  0
 12 11  1  0
 13 15  1  0
 13 12  1  0
 13 14  1  1
 15 16  1  6
 16  9  1  0
 17 15  1  0
 18 17  2  0
 19 17  1  0
 20 26  1  0
 20 19  1  0
 21 22  1  0
 20 21  1  6
 23 24  1  0
 23 22  1  0
 24 25  1  0
 26 28  1  0
 27 26  2  0
M  END
$$$$
