HIK.pdb
     RDKit          3D

 28 28  0  0  1  0  0  0  0  0999 V2000
    8.7748  -15.2140   20.6364 N   0  0  0  0  0  0  0  0  0  0  0  0
    7.9927  -15.7088   21.7470 C   0  0  1  0  0  0  0  0  0  0  0  0
    7.7905  -17.2077   21.6772 C   0  0  0  0  0  0  0  0  0  0  0  0
    7.0287  -17.6412   20.4981 C   0  0  0  0  0  0  0  0  0  0  0  0
    7.4742  -17.6217   19.1932 C   0  0  0  0  0  0  0  0  0  0  0  0
    6.5032  -18.0928   18.3740 N   0  0  0  0  0  0  0  0  0  0  0  0
    5.4765  -18.3954   19.1797 C   0  0  0  0  0  0  0  0  0  0  0  0
    5.7807  -18.1278   20.4626 N   0  0  0  0  0  0  0  0  0  0  0  0
    8.6504  -15.3024   23.0057 C   0  0  0  0  0  0  0  0  0  0  0  0
    9.8926  -15.4244   23.1146 O   0  0  0  0  0  0  0  0  0  0  0  0
    5.9844  -11.8016   26.2248 C   0  0  0  0  0  0  0  0  0  0  0  0
    7.1461  -12.3960   25.4150 C   0  0  0  0  0  0  0  0  0  0  0  0
    7.6077  -13.6083   26.1347 C   0  0  2  0  0  0  0  0  0  0  0  0
    8.0573  -13.2829   27.5277 C   0  0  0  0  0  0  0  0  0  0  0  0
    8.6373  -14.4483   25.3931 C   0  0  2  0  0  0  0  0  0  0  0  0
    7.9468  -14.7727   24.1180 N   0  0  0  0  0  0  0  0  0  0  0  0
    8.9244  -15.6546   26.1533 C   0  0  0  0  0  0  0  0  0  0  0  0
    8.0146  -16.5189   26.3036 O   0  0  0  0  0  0  0  0  0  0  0  0
   10.1720  -15.8986   26.7229 N   0  0  0  0  0  0  0  0  0  0  0  0
   10.4929  -17.1228   27.4599 C   0  0  1  0  0  0  0  0  0  0  0  0
   11.7185  -17.7119   26.7529 C   0  0  0  0  0  0  0  0  0  0  0  0
   12.0720  -18.9970   27.4655 C   0  0  0  0  0  0  0  0  0  0  0  0
   13.3450  -19.6003   26.9189 C   0  0  0  0  0  0  0  0  0  0  0  0
   13.6759  -20.9058   27.5815 C   0  0  0  0  0  0  0  0  0  0  0  0
   14.8676  -21.4398   26.9328 N   0  0  0  0  0  0  0  0  0  0  0  0
   10.8989  -16.8288   28.8438 C   0  0  0  0  0  0  0  0  0  0  0  0
   11.1634  -15.6963   29.3022 O   0  0  0  0  0  0  0  0  0  0  0  0
   11.0066  -17.8904   29.7484 O   0  0  0  0  0  0  0  0  0  0  0  0
  2  1  1  6
  3  2  1  0
  4  3  1  0
  4  5  2  0
  6  5  1  0
  7  8  2  0
  7  6  1  0
  8  4  1  0
  9  2  1  0
 10  9  2  0
 12 11  1  0
 13 15  1  0
 13 12  1  0
 13 14  1  1
 15 16  1  6
 16  9  1  0
 17 15  1  0
 18 17  2  0
 19 17  1  0
 20 26  1  0
 20 19  1  0
 21 22  1  0
 20 21  1  6
 23 24  1  0
 23 22  1  0
 24 25  1  0
 26 28  1  0
 27 26  2  0
M  END
$$$$
