HIK.pdb
     RDKit          3D

 28 28  0  0  1  0  0  0  0  0999 V2000
    7.7871  -15.7519   21.5584 N   0  0  0  0  0  0  0  0  0  0  0  0
    9.0782  -16.1477   22.0743 C   0  0  1  0  0  0  0  0  0  0  0  0
   10.1575  -16.0862   21.0141 C   0  0  0  0  0  0  0  0  0  0  0  0
    9.7580  -16.6912   19.7363 C   0  0  0  0  0  0  0  0  0  0  0  0
    9.8905  -18.0200   19.3923 C   0  0  0  0  0  0  0  0  0  0  0  0
    9.4172  -18.2143   18.1376 N   0  0  0  0  0  0  0  0  0  0  0  0
    9.0009  -17.0094   17.7259 C   0  0  0  0  0  0  0  0  0  0  0  0
    9.2009  -16.0827   18.6805 N   0  0  0  0  0  0  0  0  0  0  0  0
    9.4030  -15.2968   23.2372 C   0  0  0  0  0  0  0  0  0  0  0  0
   10.5806  -14.8996   23.3955 O   0  0  0  0  0  0  0  0  0  0  0  0
    6.0989  -11.7515   25.5769 C   0  0  0  0  0  0  0  0  0  0  0  0
    7.3598  -12.4460   25.0416 C   0  0  0  0  0  0  0  0  0  0  0  0
    7.6832  -13.5507   25.9776 C   0  0  2  0  0  0  0  0  0  0  0  0
    7.8460  -13.0514   27.3821 C   0  0  0  0  0  0  0  0  0  0  0  0
    8.8474  -14.4354   25.5565 C   0  0  2  0  0  0  0  0  0  0  0  0
    8.4437  -14.8956   24.2025 N   0  0  0  0  0  0  0  0  0  0  0  0
    8.9675  -15.5567   26.4750 C   0  0  0  0  0  0  0  0  0  0  0  0
    9.3991  -15.3509   27.6449 O   0  0  0  0  0  0  0  0  0  0  0  0
    8.6195  -16.8567   26.1152 N   0  0  0  0  0  0  0  0  0  0  0  0
    8.7262  -17.9981   27.0266 C   0  0  1  0  0  0  0  0  0  0  0  0
    8.6544  -19.2399   26.1311 C   0  0  0  0  0  0  0  0  0  0  0  0
    8.7122  -20.4488   27.0362 C   0  0  0  0  0  0  0  0  0  0  0  0
    8.7784  -21.7322   26.2412 C   0  0  0  0  0  0  0  0  0  0  0  0
    8.9490  -22.9318   27.1269 C   0  0  0  0  0  0  0  0  0  0  0  0
    9.0670  -24.1024   26.2657 N   0  0  0  0  0  0  0  0  0  0  0  0
   10.0354  -18.0317   27.6985 C   0  0  0  0  0  0  0  0  0  0  0  0
   11.1398  -17.8096   27.1570 O   0  0  0  0  0  0  0  0  0  0  0  0
   10.0783  -18.3361   29.0632 O   0  0  0  0  0  0  0  0  0  0  0  0
  2  1  1  6
  3  2  1  0
  4  3  1  0
  4  5  2  0
  6  5  1  0
  7  8  2  0
  7  6  1  0
  8  4  1  0
  9  2  1  0
 10  9  2  0
 12 11  1  0
 13 15  1  0
 13 12  1  0
 13 14  1  1
 15 16  1  6
 16  9  1  0
 17 15  1  0
 18 17  2  0
 19 17  1  0
 20 26  1  0
 20 19  1  0
 21 22  1  0
 20 21  1  6
 23 24  1  0
 23 22  1  0
 24 25  1  0
 26 28  1  0
 27 26  2  0
M  END
$$$$
