HQN.pdb
     RDKit          3D

 28 28  0  0  1  0  0  0  0  0999 V2000
    9.3946  -15.3297   20.4153 N   0  0  0  0  0  0  0  0  0  0  0  0
    8.3388  -14.6820   21.0917 C   0  0  1  0  0  0  0  0  0  0  0  0
    7.0720  -14.8504   20.2518 C   0  0  0  0  0  0  0  0  0  0  0  0
    7.3992  -14.3956   18.8750 C   0  0  0  0  0  0  0  0  0  0  0  0
    7.6865  -13.0815   18.4947 C   0  0  0  0  0  0  0  0  0  0  0  0
    7.9258  -13.0881   17.1753 N   0  0  0  0  0  0  0  0  0  0  0  0
    7.7969  -14.3564   16.7283 C   0  0  0  0  0  0  0  0  0  0  0  0
    7.4803  -15.1343   17.7583 N   0  0  0  0  0  0  0  0  0  0  0  0
    8.1647  -15.2571   22.4512 C   0  0  0  0  0  0  0  0  0  0  0  0
    7.1346  -15.0337   23.1427 O   0  0  0  0  0  0  0  0  0  0  0  0
   11.7965  -20.3983   24.9952 N   0  0  0  0  0  0  0  0  0  0  0  0
   10.5467  -19.8664   25.3598 C   0  0  0  0  0  0  0  0  0  0  0  0
    9.5541  -20.5967   25.4716 O   0  0  0  0  0  0  0  0  0  0  0  0
   10.4344  -18.4115   25.6095 C   0  0  0  0  0  0  0  0  0  0  0  0
   10.0823  -17.7511   24.3330 C   0  0  0  0  0  0  0  0  0  0  0  0
    9.1184  -16.6114   24.3782 C   0  0  2  0  0  0  0  0  0  0  0  0
    9.1628  -16.0722   22.9950 N   0  0  0  0  0  0  0  0  0  0  0  0
    9.4951  -15.4941   25.2596 C   0  0  0  0  0  0  0  0  0  0  0  0
   10.5574  -14.8212   25.0180 O   0  0  0  0  0  0  0  0  0  0  0  0
    5.9240  -12.9639   26.3954 N   0  0  0  0  0  0  0  0  0  0  0  0
    7.2685  -12.6471   26.7246 C   0  0  0  0  0  0  0  0  0  0  0  0
    7.8797  -11.7658   26.0662 O   0  0  0  0  0  0  0  0  0  0  0  0
    7.9643  -13.3403   27.8348 C   0  0  0  0  0  0  0  0  0  0  0  0
    9.1952  -14.0117   27.2719 C   0  0  2  0  0  0  0  0  0  0  0  0
    8.7383  -15.0945   26.3940 N   0  0  0  0  0  0  0  0  0  0  0  0
    9.9564  -14.6046   28.3992 C   0  0  0  0  0  0  0  0  0  0  0  0
   10.6006  -13.8240   29.3343 O   0  0  0  0  0  0  0  0  0  0  0  0
   10.0478  -15.8552   28.5526 O   0  0  0  0  0  0  0  0  0  0  0  0
  2  1  1  6
  2  9  1  0
  3  4  1  0
  3  2  1  0
  4  8  1  0
  5  4  2  0
  5  6  1  0
  6  7  1  0
  8  7  2  0
  9 10  2  0
 12 11  1  0
 13 12  2  0
 14 12  1  0
 15 14  1  0
 16 15  1  6
 17  9  1  0
 17 16  1  0
 18 16  1  0
 18 19  2  0
 20 21  1  0
 21 22  2  0
 23 21  1  0
 24 23  1  1
 24 25  1  0
 25 18  1  0
 26 27  1  0
 26 24  1  0
 28 26  2  0
M  END
$$$$
