HQN.pdb
     RDKit          3D

 28 28  0  0  1  0  0  0  0  0999 V2000
   10.2861  -14.9049   17.3391 N   0  0  0  0  0  0  0  0  0  0  0  0
   10.9668  -14.6084   18.5392 C   0  0  1  0  0  0  0  0  0  0  0  0
    9.9986  -14.8494   19.6981 C   0  0  0  0  0  0  0  0  0  0  0  0
    8.8087  -13.9920   19.4563 C   0  0  0  0  0  0  0  0  0  0  0  0
    8.5677  -13.2331   18.3074 C   0  0  0  0  0  0  0  0  0  0  0  0
    7.3953  -12.6053   18.4791 N   0  0  0  0  0  0  0  0  0  0  0  0
    6.9050  -12.9484   19.6902 C   0  0  0  0  0  0  0  0  0  0  0  0
    7.7625  -13.7825   20.2692 N   0  0  0  0  0  0  0  0  0  0  0  0
   12.1825  -15.4540   18.6676 C   0  0  0  0  0  0  0  0  0  0  0  0
   12.6068  -16.1606   17.7137 O   0  0  0  0  0  0  0  0  0  0  0  0
   16.0159  -13.2149   17.3417 N   0  0  0  0  0  0  0  0  0  0  0  0
   16.9605  -13.9028   18.1240 C   0  0  0  0  0  0  0  0  0  0  0  0
   18.1635  -13.6199   18.0616 O   0  0  0  0  0  0  0  0  0  0  0  0
   16.4928  -14.9769   19.0292 C   0  0  0  0  0  0  0  0  0  0  0  0
   15.0156  -14.9161   19.0912 C   0  0  0  0  0  0  0  0  0  0  0  0
   14.3130  -15.8857   19.9835 C   0  0  2  0  0  0  0  0  0  0  0  0
   12.8887  -15.4788   19.8746 N   0  0  0  0  0  0  0  0  0  0  0  0
   14.6509  -15.7946   21.4134 C   0  0  0  0  0  0  0  0  0  0  0  0
   14.8119  -14.6473   21.9590 O   0  0  0  0  0  0  0  0  0  0  0  0
   12.6777  -19.1636   23.2155 N   0  0  0  0  0  0  0  0  0  0  0  0
   13.1790  -18.2309   24.1616 C   0  0  0  0  0  0  0  0  0  0  0  0
   12.3758  -17.5381   24.8390 O   0  0  0  0  0  0  0  0  0  0  0  0
   14.6376  -18.0607   24.3641 C   0  0  0  0  0  0  0  0  0  0  0  0
   15.0576  -16.7716   23.6974 C   0  0  2  0  0  0  0  0  0  0  0  0
   14.8137  -16.9249   22.2590 N   0  0  0  0  0  0  0  0  0  0  0  0
   16.5142  -16.5904   23.9147 C   0  0  0  0  0  0  0  0  0  0  0  0
   17.0312  -16.2536   25.1468 O   0  0  0  0  0  0  0  0  0  0  0  0
   17.3478  -16.7376   22.9771 O   0  0  0  0  0  0  0  0  0  0  0  0
  2  1  1  6
  2  9  1  0
  3  4  1  0
  3  2  1  0
  4  8  1  0
  5  4  2  0
  5  6  1  0
  6  7  1  0
  8  7  2  0
  9 10  2  0
 12 11  1  0
 13 12  2  0
 14 12  1  0
 15 14  1  0
 16 15  1  6
 17  9  1  0
 17 16  1  0
 18 16  1  0
 18 19  2  0
 20 21  1  0
 21 22  2  0
 23 21  1  0
 24 23  1  1
 24 25  1  0
 25 18  1  0
 26 27  1  0
 26 24  1  0
 28 26  2  0
M  END
$$$$
