HQN.pdb
     RDKit          3D

 28 28  0  0  1  0  0  0  0  0999 V2000
   12.6760  -15.5008   13.1431 N   0  0  0  0  0  0  0  0  0  0  0  0
   11.8843  -16.0895   14.1523 C   0  0  1  0  0  0  0  0  0  0  0  0
   12.2843  -17.5614   14.2617 C   0  0  0  0  0  0  0  0  0  0  0  0
   11.8689  -18.2204   12.9958 C   0  0  0  0  0  0  0  0  0  0  0  0
   10.5917  -18.7118   12.7108 C   0  0  0  0  0  0  0  0  0  0  0  0
   10.6267  -19.2289   11.4740 N   0  0  0  0  0  0  0  0  0  0  0  0
   11.8771  -19.0747   10.9863 C   0  0  0  0  0  0  0  0  0  0  0  0
   12.6157  -18.4672   11.9092 N   0  0  0  0  0  0  0  0  0  0  0  0
   12.0799  -15.3802   15.4437 C   0  0  0  0  0  0  0  0  0  0  0  0
   13.1969  -14.9013   15.7788 O   0  0  0  0  0  0  0  0  0  0  0  0
    7.1659  -13.5483   18.2226 N   0  0  0  0  0  0  0  0  0  0  0  0
    7.9761  -13.2443   19.3311 C   0  0  0  0  0  0  0  0  0  0  0  0
    7.4981  -12.7101   20.3396 O   0  0  0  0  0  0  0  0  0  0  0  0
    9.4183  -13.5743   19.2743 C   0  0  0  0  0  0  0  0  0  0  0  0
    9.6977  -14.1929   17.9594 C   0  0  0  0  0  0  0  0  0  0  0  0
   11.1119  -14.5532   17.6428 C   0  0  2  0  0  0  0  0  0  0  0  0
   11.0044  -15.2303   16.3253 N   0  0  0  0  0  0  0  0  0  0  0  0
   11.7377  -15.5299   18.5491 C   0  0  0  0  0  0  0  0  0  0  0  0
   12.2195  -16.6191   18.0788 O   0  0  0  0  0  0  0  0  0  0  0  0
   15.2282  -16.8499   19.5519 N   0  0  0  0  0  0  0  0  0  0  0  0
   15.2444  -15.4303   19.5278 C   0  0  0  0  0  0  0  0  0  0  0  0
   16.2089  -14.8276   18.9889 O   0  0  0  0  0  0  0  0  0  0  0  0
   14.1397  -14.6457   20.1289 C   0  0  0  0  0  0  0  0  0  0  0  0
   13.1087  -15.6149   20.6586 C   0  0  2  0  0  0  0  0  0  0  0  0
   11.8516  -15.3430   19.9532 N   0  0  0  0  0  0  0  0  0  0  0  0
   12.9113  -15.3382   22.1029 C   0  0  0  0  0  0  0  0  0  0  0  0
   13.3508  -16.2067   23.0784 O   0  0  0  0  0  0  0  0  0  0  0  0
   12.3301  -14.2908   22.5041 O   0  0  0  0  0  0  0  0  0  0  0  0
  2  1  1  6
  2  9  1  0
  3  4  1  0
  3  2  1  0
  4  8  1  0
  5  4  2  0
  5  6  1  0
  6  7  1  0
  8  7  2  0
  9 10  2  0
 12 11  1  0
 13 12  2  0
 14 12  1  0
 15 14  1  0
 16 15  1  1
 17  9  1  0
 17 16  1  0
 18 16  1  0
 18 19  2  0
 20 21  1  0
 21 22  2  0
 23 21  1  0
 24 23  1  6
 24 25  1  0
 25 18  1  0
 26 27  1  0
 26 24  1  0
 28 26  2  0
M  END
$$$$
