HQN.pdb
     RDKit          3D

 28 28  0  0  1  0  0  0  0  0999 V2000
   12.8592  -15.5896   16.4628 N   0  0  0  0  0  0  0  0  0  0  0  0
   13.8908  -15.2271   17.3551 C   0  0  1  0  0  0  0  0  0  0  0  0
   14.7837  -14.2067   16.6481 C   0  0  0  0  0  0  0  0  0  0  0  0
   15.6846  -14.9690   15.7445 C   0  0  0  0  0  0  0  0  0  0  0  0
   15.4082  -16.2157   15.1757 C   0  0  0  0  0  0  0  0  0  0  0  0
   16.4674  -16.5607   14.4294 N   0  0  0  0  0  0  0  0  0  0  0  0
   17.3860  -15.5741   14.5169 C   0  0  0  0  0  0  0  0  0  0  0  0
   16.9052  -14.6220   15.3098 N   0  0  0  0  0  0  0  0  0  0  0  0
   13.3190  -14.6671   18.6076 C   0  0  0  0  0  0  0  0  0  0  0  0
   14.0448  -14.1463   19.4971 O   0  0  0  0  0  0  0  0  0  0  0  0
    7.6415  -13.0740   18.5447 N   0  0  0  0  0  0  0  0  0  0  0  0
    7.6321  -13.2083   19.9445 C   0  0  0  0  0  0  0  0  0  0  0  0
    6.6078  -12.9743   20.5980 O   0  0  0  0  0  0  0  0  0  0  0  0
    8.8727  -13.6361   20.6299 C   0  0  0  0  0  0  0  0  0  0  0  0
    9.9230  -13.8258   19.6050 C   0  0  0  0  0  0  0  0  0  0  0  0
   11.2852  -14.2281   20.0663 C   0  0  2  0  0  0  0  0  0  0  0  0
   11.9376  -14.7108   18.8224 N   0  0  0  0  0  0  0  0  0  0  0  0
   11.3297  -15.3570   21.0100 C   0  0  0  0  0  0  0  0  0  0  0  0
   10.9252  -16.5142   20.6399 O   0  0  0  0  0  0  0  0  0  0  0  0
   15.1708  -15.5722   22.9009 N   0  0  0  0  0  0  0  0  0  0  0  0
   14.1952  -16.5829   23.1081 C   0  0  0  0  0  0  0  0  0  0  0  0
   14.2863  -17.6732   22.4861 O   0  0  0  0  0  0  0  0  0  0  0  0
   13.0686  -16.3728   24.0484 C   0  0  0  0  0  0  0  0  0  0  0  0
   11.7829  -16.4008   23.2555 C   0  0  2  0  0  0  0  0  0  0  0  0
   11.8075  -15.2515   22.3441 N   0  0  0  0  0  0  0  0  0  0  0  0
   10.6515  -16.2322   24.2006 C   0  0  0  0  0  0  0  0  0  0  0  0
    9.8103  -15.1422   24.1437 O   0  0  0  0  0  0  0  0  0  0  0  0
   10.4080  -17.0830   25.1019 O   0  0  0  0  0  0  0  0  0  0  0  0
  2  1  1  6
  2  9  1  0
  3  4  1  0
  3  2  1  0
  4  8  1  0
  5  4  2  0
  5  6  1  0
  6  7  1  0
  8  7  2  0
  9 10  2  0
 12 11  1  0
 13 12  2  0
 14 12  1  0
 15 14  1  0
 16 15  1  6
 17  9  1  0
 17 16  1  0
 18 16  1  0
 18 19  2  0
 20 21  1  0
 21 22  2  0
 23 21  1  0
 24 23  1  1
 24 25  1  0
 25 18  1  0
 26 27  1  0
 26 24  1  0
 28 26  2  0
M  END
$$$$
