HQN.pdb
     RDKit          3D

 28 28  0  0  1  0  0  0  0  0999 V2000
    8.1840  -15.8370   18.7446 N   0  0  0  0  0  0  0  0  0  0  0  0
    8.8958  -14.6404   18.9756 C   0  0  1  0  0  0  0  0  0  0  0  0
    8.0406  -13.4810   18.4627 C   0  0  0  0  0  0  0  0  0  0  0  0
    7.8652  -13.6833   17.0007 C   0  0  0  0  0  0  0  0  0  0  0  0
    8.4015  -14.7338   16.2504 C   0  0  0  0  0  0  0  0  0  0  0  0
    8.0163  -14.5568   14.9783 N   0  0  0  0  0  0  0  0  0  0  0  0
    7.2631  -13.4371   14.9162 C   0  0  0  0  0  0  0  0  0  0  0  0
    7.1784  -12.9199   16.1376 N   0  0  0  0  0  0  0  0  0  0  0  0
    9.1977  -14.4886   20.4230 C   0  0  0  0  0  0  0  0  0  0  0  0
    9.7883  -13.4720   20.8778 O   0  0  0  0  0  0  0  0  0  0  0  0
    6.3325  -17.8950   24.3443 N   0  0  0  0  0  0  0  0  0  0  0  0
    7.3138  -17.5280   25.2824 C   0  0  0  0  0  0  0  0  0  0  0  0
    7.2153  -17.8646   26.4690 O   0  0  0  0  0  0  0  0  0  0  0  0
    8.4738  -16.7283   24.8277 C   0  0  0  0  0  0  0  0  0  0  0  0
    8.2427  -16.3423   23.4180 C   0  0  0  0  0  0  0  0  0  0  0  0
    9.3112  -15.5651   22.7220 C   0  0  2  0  0  0  0  0  0  0  0  0
    8.8229  -15.4932   21.3212 N   0  0  0  0  0  0  0  0  0  0  0  0
   10.6305  -16.2148   22.6570 C   0  0  0  0  0  0  0  0  0  0  0  0
   11.3683  -16.0583   21.6221 O   0  0  0  0  0  0  0  0  0  0  0  0
   15.7862  -15.6472   23.1412 N   0  0  0  0  0  0  0  0  0  0  0  0
   14.7777  -16.6386   23.0137 C   0  0  0  0  0  0  0  0  0  0  0  0
   15.1052  -17.8462   22.8779 O   0  0  0  0  0  0  0  0  0  0  0  0
   13.3417  -16.2718   23.0385 C   0  0  0  0  0  0  0  0  0  0  0  0
   12.5853  -17.3799   23.7332 C   0  0  2  0  0  0  0  0  0  0  0  0
   11.1620  -17.0268   23.6950 N   0  0  0  0  0  0  0  0  0  0  0  0
   13.0249  -17.4240   25.1497 C   0  0  0  0  0  0  0  0  0  0  0  0
   14.0761  -18.2136   25.5625 O   0  0  0  0  0  0  0  0  0  0  0  0
   12.4536  -16.7375   26.0430 O   0  0  0  0  0  0  0  0  0  0  0  0
  2  1  1  1
  2  9  1  0
  3  4  1  0
  3  2  1  0
  4  8  1  0
  5  4  2  0
  5  6  1  0
  6  7  1  0
  8  7  2  0
  9 10  2  0
 12 11  1  0
 13 12  2  0
 14 12  1  0
 15 14  1  0
 16 15  1  1
 17  9  1  0
 17 16  1  0
 18 16  1  0
 18 19  2  0
 20 21  1  0
 21 22  2  0
 23 21  1  0
 24 23  1  6
 24 25  1  0
 25 18  1  0
 26 27  1  0
 26 24  1  0
 28 26  2  0
M  END
$$$$
