HQN.pdb
     RDKit          3D

 28 28  0  0  1  0  0  0  0  0999 V2000
   10.6418  -14.9456   18.9133 N   0  0  0  0  0  0  0  0  0  0  0  0
    9.7718  -15.4867   19.8839 C   0  0  1  0  0  0  0  0  0  0  0  0
    8.4258  -15.7535   19.2090 C   0  0  0  0  0  0  0  0  0  0  0  0
    7.7692  -14.4347   19.0114 C   0  0  0  0  0  0  0  0  0  0  0  0
    8.3450  -13.1877   19.2708 C   0  0  0  0  0  0  0  0  0  0  0  0
    7.4336  -12.2528   18.9653 N   0  0  0  0  0  0  0  0  0  0  0  0
    6.3181  -12.8764   18.5275 C   0  0  0  0  0  0  0  0  0  0  0  0
    6.5307  -14.1880   18.5591 N   0  0  0  0  0  0  0  0  0  0  0  0
   10.3449  -16.7334   20.4555 C   0  0  0  0  0  0  0  0  0  0  0  0
    9.7399  -17.4027   21.3360 O   0  0  0  0  0  0  0  0  0  0  0  0
   14.4249  -20.5487   18.2047 N   0  0  0  0  0  0  0  0  0  0  0  0
   13.9734  -19.3868   17.5539 C   0  0  0  0  0  0  0  0  0  0  0  0
   14.5245  -18.9818   16.5226 O   0  0  0  0  0  0  0  0  0  0  0  0
   12.8224  -18.6500   18.1232 C   0  0  0  0  0  0  0  0  0  0  0  0
   12.4748  -19.2705   19.4208 C   0  0  0  0  0  0  0  0  0  0  0  0
   12.2833  -18.3704   20.5969 C   0  0  2  0  0  0  0  0  0  0  0  0
   11.5907  -17.1922   20.0154 N   0  0  0  0  0  0  0  0  0  0  0  0
   13.5175  -17.8520   21.2091 C   0  0  0  0  0  0  0  0  0  0  0  0
   14.4350  -18.6641   21.5810 O   0  0  0  0  0  0  0  0  0  0  0  0
   14.3853  -14.2534   19.0314 N   0  0  0  0  0  0  0  0  0  0  0  0
   15.3770  -14.8463   19.8568 C   0  0  0  0  0  0  0  0  0  0  0  0
   16.2922  -15.5343   19.3343 O   0  0  0  0  0  0  0  0  0  0  0  0
   15.3507  -14.6663   21.3279 C   0  0  0  0  0  0  0  0  0  0  0  0
   15.0558  -16.0064   21.9603 C   0  0  2  0  0  0  0  0  0  0  0  0
   13.7729  -16.4702   21.4210 N   0  0  0  0  0  0  0  0  0  0  0  0
   14.9105  -15.8066   23.4234 C   0  0  0  0  0  0  0  0  0  0  0  0
   15.9594  -15.3798   24.2087 O   0  0  0  0  0  0  0  0  0  0  0  0
   13.8155  -16.0192   24.0162 O   0  0  0  0  0  0  0  0  0  0  0  0
  2  1  1  6
  2  9  1  0
  3  4  1  0
  3  2  1  0
  4  8  1  0
  5  4  2  0
  5  6  1  0
  6  7  1  0
  8  7  2  0
  9 10  2  0
 12 11  1  0
 13 12  2  0
 14 12  1  0
 15 14  1  0
 16 15  1  6
 17  9  1  0
 17 16  1  0
 18 16  1  0
 18 19  2  0
 20 21  1  0
 21 22  2  0
 23 21  1  0
 24 23  1  6
 24 25  1  0
 25 18  1  0
 26 27  1  0
 26 24  1  0
 28 26  2  0
M  END
$$$$
