HQN.pdb
     RDKit          3D

 28 28  0  0  1  0  0  0  0  0999 V2000
    7.4226  -15.9610   15.3983 N   0  0  0  0  0  0  0  0  0  0  0  0
    8.7527  -16.2204   15.7923 C   0  0  1  0  0  0  0  0  0  0  0  0
    9.6084  -15.0274   15.3645 C   0  0  0  0  0  0  0  0  0  0  0  0
    9.7233  -15.0831   13.8836 C   0  0  0  0  0  0  0  0  0  0  0  0
    9.0933  -14.2207   12.9817 C   0  0  0  0  0  0  0  0  0  0  0  0
    9.4492  -14.6015   11.7462 N   0  0  0  0  0  0  0  0  0  0  0  0
   10.2745  -15.6657   11.8527 C   0  0  0  0  0  0  0  0  0  0  0  0
   10.4327  -15.9468   13.1420 N   0  0  0  0  0  0  0  0  0  0  0  0
    8.8250  -16.4367   17.2610 C   0  0  0  0  0  0  0  0  0  0  0  0
    8.1961  -15.7068   18.0741 O   0  0  0  0  0  0  0  0  0  0  0  0
    8.3003  -21.6315   19.2624 N   0  0  0  0  0  0  0  0  0  0  0  0
    8.8741  -21.2478   20.4876 C   0  0  0  0  0  0  0  0  0  0  0  0
    8.8856  -22.0213   21.4533 O   0  0  0  0  0  0  0  0  0  0  0  0
    9.4681  -19.8969   20.6068 C   0  0  0  0  0  0  0  0  0  0  0  0
    9.2688  -19.1912   19.3216 C   0  0  0  0  0  0  0  0  0  0  0  0
    9.7287  -17.7738   19.2238 C   0  0  2  0  0  0  0  0  0  0  0  0
    9.6085  -17.4757   17.7738 N   0  0  0  0  0  0  0  0  0  0  0  0
   11.1400  -17.5375   19.5692 C   0  0  0  0  0  0  0  0  0  0  0  0
   12.0519  -17.7241   18.6898 O   0  0  0  0  0  0  0  0  0  0  0  0
   15.0145  -16.4258   23.9665 N   0  0  0  0  0  0  0  0  0  0  0  0
   14.5483  -15.9341   22.7187 C   0  0  0  0  0  0  0  0  0  0  0  0
   15.3598  -15.4051   21.9153 O   0  0  0  0  0  0  0  0  0  0  0  0
   13.1168  -16.0351   22.3470 C   0  0  0  0  0  0  0  0  0  0  0  0
   13.0031  -16.9664   21.1628 C   0  0  2  0  0  0  0  0  0  0  0  0
   11.5764  -17.1006   20.8490 N   0  0  0  0  0  0  0  0  0  0  0  0
   13.5269  -18.2949   21.5656 C   0  0  0  0  0  0  0  0  0  0  0  0
   14.7631  -18.7458   21.1564 O   0  0  0  0  0  0  0  0  0  0  0  0
   12.8613  -19.0740   22.3042 O   0  0  0  0  0  0  0  0  0  0  0  0
  2  1  1  1
  2  9  1  0
  3  4  1  0
  3  2  1  0
  4  8  1  0
  5  4  2  0
  5  6  1  0
  6  7  1  0
  8  7  2  0
  9 10  2  0
 12 11  1  0
 13 12  2  0
 14 12  1  0
 15 14  1  0
 16 15  1  6
 17  9  1  0
 17 16  1  0
 18 16  1  0
 18 19  2  0
 20 21  1  0
 21 22  2  0
 23 21  1  0
 24 23  1  1
 24 25  1  0
 25 18  1  0
 26 27  1  0
 26 24  1  0
 28 26  2  0
M  END
$$$$
