HQN.pdb
     RDKit          3D

 28 28  0  0  1  0  0  0  0  0999 V2000
    8.1388  -18.8274   19.8428 N   0  0  0  0  0  0  0  0  0  0  0  0
    7.8538  -17.4826   20.1623 C   0  0  1  0  0  0  0  0  0  0  0  0
    7.1394  -16.8581   18.9630 C   0  0  0  0  0  0  0  0  0  0  0  0
    8.0955  -16.8841   17.8253 C   0  0  0  0  0  0  0  0  0  0  0  0
    9.3668  -17.4651   17.8387 C   0  0  0  0  0  0  0  0  0  0  0  0
    9.9083  -17.2755   16.6267 N   0  0  0  0  0  0  0  0  0  0  0  0
    9.0188  -16.5996   15.8670 C   0  0  0  0  0  0  0  0  0  0  0  0
    7.9325  -16.3695   16.5973 N   0  0  0  0  0  0  0  0  0  0  0  0
    7.0160  -17.4079   21.3878 C   0  0  0  0  0  0  0  0  0  0  0  0
    6.5752  -16.3119   21.8282 O   0  0  0  0  0  0  0  0  0  0  0  0
    3.4808  -21.4080   21.6015 N   0  0  0  0  0  0  0  0  0  0  0  0
    2.7684  -20.2545   21.9750 C   0  0  0  0  0  0  0  0  0  0  0  0
    1.6009  -20.0812   21.6034 O   0  0  0  0  0  0  0  0  0  0  0  0
    3.4387  -19.2440   22.8243 C   0  0  0  0  0  0  0  0  0  0  0  0
    4.8464  -19.6599   23.0108 C   0  0  0  0  0  0  0  0  0  0  0  0
    5.8550  -18.5996   23.3084 C   0  0  2  0  0  0  0  0  0  0  0  0
    6.6975  -18.5775   22.0854 N   0  0  0  0  0  0  0  0  0  0  0  0
    6.7706  -18.8878   24.4245 C   0  0  0  0  0  0  0  0  0  0  0  0
    6.3408  -18.8434   25.6299 O   0  0  0  0  0  0  0  0  0  0  0  0
   10.5230  -19.3574   27.6546 N   0  0  0  0  0  0  0  0  0  0  0  0
    9.6138  -18.2759   27.5129 C   0  0  0  0  0  0  0  0  0  0  0  0
    9.5702  -17.3794   28.3951 O   0  0  0  0  0  0  0  0  0  0  0  0
    8.7136  -18.1867   26.3387 C   0  0  0  0  0  0  0  0  0  0  0  0
    9.0495  -19.3229   25.4012 C   0  0  2  0  0  0  0  0  0  0  0  0
    8.1404  -19.2251   24.2541 N   0  0  0  0  0  0  0  0  0  0  0  0
    8.7854  -20.6006   26.1078 C   0  0  0  0  0  0  0  0  0  0  0  0
    9.7972  -21.3381   26.6832 O   0  0  0  0  0  0  0  0  0  0  0  0
    7.6177  -21.0705   26.2141 O   0  0  0  0  0  0  0  0  0  0  0  0
  2  1  1  6
  2  9  1  0
  3  4  1  0
  3  2  1  0
  4  8  1  0
  5  4  2  0
  5  6  1  0
  6  7  1  0
  8  7  2  0
  9 10  2  0
 12 11  1  0
 13 12  2  0
 14 12  1  0
 15 14  1  0
 16 15  1  6
 17  9  1  0
 17 16  1  0
 18 16  1  0
 18 19  2  0
 20 21  1  0
 21 22  2  0
 23 21  1  0
 24 23  1  1
 24 25  1  0
 25 18  1  0
 26 27  1  0
 26 24  1  0
 28 26  2  0
M  END
$$$$
