RHT.pdb
     RDKit          3D

 29 29  0  0  1  0  0  0  0  0999 V2000
   46.3044   -8.0257   -3.4817 N   0  0  0  0  0  0  0  0  0  0  0  0
   45.5226   -9.0745   -2.9327 C   0  0  0  0  0  0  0  0  0  0  0  0
   45.8165   -9.5568   -1.7708 N   0  0  0  0  0  0  0  0  0  0  0  0
   44.4079   -9.6276   -3.6208 N   0  0  0  0  0  0  0  0  0  0  0  0
   43.8375   -9.0173   -4.7841 C   0  0  0  0  0  0  0  0  0  0  0  0
   44.5326   -9.4365   -6.0612 C   0  0  0  0  0  0  0  0  0  0  0  0
   44.0430   -8.7340   -7.2746 C   0  0  0  0  0  0  0  0  0  0  0  0
   42.9099   -9.4081   -7.9959 C   0  0  2  0  0  0  0  0  0  0  0  0
   43.4282  -10.4780   -8.8564 N   0  0  0  0  0  0  0  0  0  0  0  0
   42.0466   -8.4985   -8.7709 C   0  0  0  0  0  0  0  0  0  0  0  0
   42.3759   -8.1503   -9.9151 O   0  0  0  0  0  0  0  0  0  0  0  0
   45.2946  -10.3136   -1.3096 N   0  0  0  0  0  0  0  0  0  0  0  0
   40.8181   -7.9759   -8.2742 C   0  0  2  0  0  0  0  0  0  0  0  0
   39.9908   -7.0551   -9.0176 C   0  0  0  0  0  0  0  0  0  0  0  0
   38.5640   -7.5268   -9.1280 C   0  0  0  0  0  0  0  0  0  0  0  0
   38.4011   -8.5696  -10.1540 C   0  0  0  0  0  0  0  0  0  0  0  0
   39.3847   -9.0355  -10.9871 N   0  0  0  0  0  0  0  0  0  0  0  0
   38.8879   -9.9754  -11.7893 C   0  0  0  0  0  0  0  0  0  0  0  0
   37.5899  -10.0967  -11.4557 N   0  0  0  0  0  0  0  0  0  0  0  0
   37.2798   -9.2327  -10.4468 C   0  0  0  0  0  0  0  0  0  0  0  0
   40.0853   -5.7113   -8.3795 O   0  0  0  0  0  0  0  0  0  0  0  0
   40.0152   -5.6444   -7.1301 C   0  0  0  0  0  0  0  0  0  0  0  0
   41.3664   -0.9219   -8.8286 C   0  0  2  0  0  0  0  0  0  0  0  0
   40.9748   -2.2007   -9.5427 O   0  0  0  0  0  0  0  0  0  0  0  0
   42.1435   -2.7609  -10.0600 C   0  0  1  0  0  0  0  0  0  0  0  0
   40.3662   -3.1972   -8.6186 N   0  0  0  0  0  0  0  0  0  0  0  0
   40.2492   -4.5276   -9.1230 C   0  0  0  0  0  0  0  0  0  0  0  0
   39.1563   -2.6755   -7.9267 O   0  0  0  0  0  0  0  0  0  0  0  0
   39.2617   -2.1492   -6.6651 O   0  0  0  0  0  0  0  0  0  0  0  0
  1  2  1  0
  2  4  1  0
  2  3  2  0
  4  5  1  0
  5  6  1  0
  7  6  1  0
  8  7  1  0
  8  9  1  6
 10  8  1  0
 10 11  2  0
 12 10  1  0
 13 12  1  0
 13 20  1  0
 13 14  1  6
 15 14  1  0
 15 19  1  0
 16 17  1  0
 16 15  2  0
 17 18  1  0
 18 19  2  0
 20 26  1  0
 21 20  2  0
 23 22  1  6
 23 24  1  0
 23 25  1  0
 25 27  1  0
 25 26  1  6
 27 29  2  0
 27 28  1  0
M  END
$$$$
