RHT.pdb
     RDKit          3D

 29 29  0  0  1  0  0  0  0  0999 V2000
   22.0119  -11.0992  -24.8227 N   0  0  0  0  0  0  0  0  0  0  0  0
   21.8903  -12.4899  -24.5704 C   0  0  0  0  0  0  0  0  0  0  0  0
   21.4332  -13.2740  -25.4898 N   0  0  0  0  0  0  0  0  0  0  0  0
   22.2573  -13.0680  -23.3241 N   0  0  0  0  0  0  0  0  0  0  0  0
   22.5814  -12.2806  -22.1727 C   0  0  0  0  0  0  0  0  0  0  0  0
   22.9887  -13.1259  -20.9855 C   0  0  0  0  0  0  0  0  0  0  0  0
   23.3188  -12.3406  -19.7689 C   0  0  0  0  0  0  0  0  0  0  0  0
   22.5802  -12.7421  -18.5232 C   0  0  2  0  0  0  0  0  0  0  0  0
   21.6154  -13.8040  -18.8317 N   0  0  0  0  0  0  0  0  0  0  0  0
   21.9140  -11.6318  -17.8186 C   0  0  0  0  0  0  0  0  0  0  0  0
   20.6996  -11.4328  -17.9757 O   0  0  0  0  0  0  0  0  0  0  0  0
   21.3021  -14.2873  -25.3735 N   0  0  0  0  0  0  0  0  0  0  0  0
   22.5973  -10.7426  -16.9402 C   0  0  2  0  0  0  0  0  0  0  0  0
   21.9538   -9.6312  -16.2802 C   0  0  0  0  0  0  0  0  0  0  0  0
   22.2688   -9.5781  -14.8076 C   0  0  0  0  0  0  0  0  0  0  0  0
   21.6141   -8.4414  -14.1397 C   0  0  0  0  0  0  0  0  0  0  0  0
   20.3948   -8.4724  -13.5147 N   0  0  0  0  0  0  0  0  0  0  0  0
   20.1105   -7.2684  -13.0214 C   0  0  0  0  0  0  0  0  0  0  0  0
   21.1560   -6.4832  -13.3396 N   0  0  0  0  0  0  0  0  0  0  0  0
   22.0896   -7.1985  -14.0303 C   0  0  0  0  0  0  0  0  0  0  0  0
   22.3446   -8.3739  -16.9789 O   0  0  0  0  0  0  0  0  0  0  0  0
   23.5502   -8.2173  -17.2830 C   0  0  0  0  0  0  0  0  0  0  0  0
   21.3407   -7.0955  -20.3072 C   0  0  2  0  0  0  0  0  0  0  0  0
   20.9605   -6.0081  -19.3213 O   0  0  0  0  0  0  0  0  0  0  0  0
   19.5923   -6.1311  -19.0762 C   0  0  2  0  0  0  0  0  0  0  0  0
   21.6684   -6.1566  -18.0196 N   0  0  0  0  0  0  0  0  0  0  0  0
   21.4171   -7.3672  -17.3060 C   0  0  0  0  0  0  0  0  0  0  0  0
   21.6238   -4.9175  -17.1965 O   0  0  0  0  0  0  0  0  0  0  0  0
   22.1590   -3.7525  -17.6823 O   0  0  0  0  0  0  0  0  0  0  0  0
  1  2  1  0
  2  4  1  0
  2  3  2  0
  4  5  1  0
  5  6  1  0
  7  6  1  0
  8  7  1  0
  8  9  1  6
 10  8  1  0
 10 11  2  0
 12 10  1  0
 13 12  1  0
 13 20  1  0
 13 14  1  6
 15 14  1  0
 15 19  1  0
 16 17  1  0
 16 15  2  0
 17 18  1  0
 18 19  2  0
 20 26  1  0
 21 20  2  0
 23 22  1  6
 23 24  1  0
 23 25  1  0
 25 27  1  0
 25 26  1  1
 27 29  2  0
 27 28  1  0
M  END
$$$$
