RHT.pdb
     RDKit          3D

 29 29  0  0  1  0  0  0  0  0999 V2000
   19.4005  -34.8441   -4.8772 N   0  0  0  0  0  0  0  0  0  0  0  0
   20.7610  -35.2155   -5.0321 C   0  0  0  0  0  0  0  0  0  0  0  0
   21.1359  -35.8639   -6.0847 N   0  0  0  0  0  0  0  0  0  0  0  0
   21.7479  -34.8977   -4.0589 N   0  0  0  0  0  0  0  0  0  0  0  0
   21.4520  -34.1493   -2.8743 C   0  0  0  0  0  0  0  0  0  0  0  0
   21.5224  -32.6543   -3.0977 C   0  0  0  0  0  0  0  0  0  0  0  0
   21.4102  -31.8512   -1.8535 C   0  0  0  0  0  0  0  0  0  0  0  0
   21.5163  -30.3632   -2.0358 C   0  0  2  0  0  0  0  0  0  0  0  0
   22.3681  -29.7885   -0.9880 N   0  0  0  0  0  0  0  0  0  0  0  0
   20.2236  -29.6569   -2.0916 C   0  0  0  0  0  0  0  0  0  0  0  0
   19.1618  -30.2985   -2.0895 O   0  0  0  0  0  0  0  0  0  0  0  0
   22.1042  -36.1575   -6.2690 N   0  0  0  0  0  0  0  0  0  0  0  0
   20.1109  -28.2381   -2.1502 C   0  0  1  0  0  0  0  0  0  0  0  0
   18.8466  -27.5416   -2.1116 C   0  0  0  0  0  0  0  0  0  0  0  0
   18.7397  -26.6121   -0.9304 C   0  0  0  0  0  0  0  0  0  0  0  0
   18.7847  -27.3348    0.3512 C   0  0  0  0  0  0  0  0  0  0  0  0
   19.9155  -27.6242    1.0695 N   0  0  0  0  0  0  0  0  0  0  0  0
   19.5885  -28.2881    2.1768 C   0  0  0  0  0  0  0  0  0  0  0  0
   18.2490  -28.4134    2.1497 N   0  0  0  0  0  0  0  0  0  0  0  0
   17.7435  -27.8279    1.0262 C   0  0  0  0  0  0  0  0  0  0  0  0
   18.6615  -26.8229   -3.4043 O   0  0  0  0  0  0  0  0  0  0  0  0
   19.6497  -26.2313   -3.8980 C   0  0  0  0  0  0  0  0  0  0  0  0
   16.3772  -28.2273   -6.4901 C   0  0  2  0  0  0  0  0  0  0  0  0
   16.0705  -26.7820   -6.1495 O   0  0  0  0  0  0  0  0  0  0  0  0
   14.9015  -26.7751   -5.3876 C   0  0  2  0  0  0  0  0  0  0  0  0
   17.1467  -26.1562   -5.3324 N   0  0  0  0  0  0  0  0  0  0  0  0
   17.4290  -26.7860   -4.0827 C   0  0  0  0  0  0  0  0  0  0  0  0
   17.0411  -24.6726   -5.2821 O   0  0  0  0  0  0  0  0  0  0  0  0
   17.1287  -23.9398   -6.4375 O   0  0  0  0  0  0  0  0  0  0  0  0
  1  2  1  0
  2  4  1  0
  2  3  2  0
  4  5  1  0
  5  6  1  0
  7  6  1  0
  8  7  1  0
  8  9  1  1
 10  8  1  0
 10 11  2  0
 12 10  1  0
 13 12  1  0
 13 20  1  0
 13 14  1  6
 15 14  1  0
 15 19  1  0
 16 17  1  0
 16 15  2  0
 17 18  1  0
 18 19  2  0
 20 26  1  0
 21 20  2  0
 23 22  1  6
 23 24  1  0
 23 25  1  0
 25 27  1  0
 25 26  1  6
 27 29  2  0
 27 28  1  0
M  END
$$$$
