SER.pdb
     RDKit          3D

 27 26  0  0  1  0  0  0  0  0999 V2000
    9.3927  -14.8960   17.4015 O   0  0  0  0  0  0  0  0  0  0  0  0
   10.4919  -15.3108   16.6587 C   0  0  0  0  0  0  0  0  0  0  0  0
   10.5417  -16.8237   16.5773 C   0  0  2  0  0  0  0  0  0  0  0  0
    9.3443  -17.2858   15.9123 N   0  0  0  0  0  0  0  0  0  0  0  0
   10.6073  -17.4493   17.9325 C   0  0  0  0  0  0  0  0  0  0  0  0
    9.6053  -18.0053   18.4532 O   0  0  0  0  0  0  0  0  0  0  0  0
   11.8013  -17.4496   18.7032 N   0  0  0  0  0  0  0  0  0  0  0  0
   11.8484  -18.0274   20.0477 C   0  0  1  0  0  0  0  0  0  0  0  0
   13.2425  -18.5348   20.2503 C   0  0  0  0  0  0  0  0  0  0  0  0
   13.4640  -19.2247   21.5423 C   0  0  0  0  0  0  0  0  0  0  0  0
   14.8183  -19.7132   21.7533 C   0  0  0  0  0  0  0  0  0  0  0  0
   15.4349  -19.3171   22.7942 O   0  0  0  0  0  0  0  0  0  0  0  0
   11.4572  -17.0228   21.0663 C   0  0  0  0  0  0  0  0  0  0  0  0
   12.0613  -15.9194   21.0433 O   0  0  0  0  0  0  0  0  0  0  0  0
   15.4841  -20.5735   20.9118 O   0  0  0  0  0  0  0  0  0  0  0  0
    7.8115  -13.7980   17.7587 N   0  0  0  0  0  0  0  0  0  0  0  0
    7.8990  -13.4557   19.1515 C   0  0  0  0  0  0  0  0  0  0  0  0
    8.5795  -12.4325   19.5286 N   0  0  0  0  0  0  0  0  0  0  0  0
    7.2443  -14.2270   20.1441 N   0  0  0  0  0  0  0  0  0  0  0  0
    7.2748  -13.9101   21.5553 C   0  0  0  0  0  0  0  0  0  0  0  0
    8.6604  -14.2913   22.0696 C   0  0  0  0  0  0  0  0  0  0  0  0
    8.6991  -15.6955   22.5720 C   0  0  0  0  0  0  0  0  0  0  0  0
   10.0514  -16.1844   22.9964 C   0  0  2  0  0  0  0  0  0  0  0  0
   10.4722  -17.2191   22.0398 N   0  0  0  0  0  0  0  0  0  0  0  0
   10.1314  -16.6688   24.3772 C   0  0  0  0  0  0  0  0  0  0  0  0
   10.3376  -15.8105   25.4526 O   0  0  0  0  0  0  0  0  0  0  0  0
   10.0162  -17.8879   24.6493 O   0  0  0  0  0  0  0  0  0  0  0  0
  2  1  1  0
  3  2  1  0
  3  4  1  1
  5  3  1  0
  5  6  2  0
  7  5  1  0
  8  7  1  0
  8  9  1  1
 10  9  1  0
 11 10  1  0
 12 11  2  0
 13  8  1  0
 14 13  2  0
 15 11  1  0
 16 17  1  0
 17 19  1  0
 17 18  2  0
 19 20  1  0
 20 21  1  0
 21 22  1  0
 23 24  1  0
 23 22  1  6
 24 13  1  0
 25 23  1  0
 26 25  1  0
 27 25  2  0
M  END
$$$$
