SER.pdb
     RDKit          3D

 27 26  0  0  1  0  0  0  0  0999 V2000
   10.8837  -12.6144   19.4127 O   0  0  0  0  0  0  0  0  0  0  0  0
   10.3001  -13.4720   18.4875 C   0  0  0  0  0  0  0  0  0  0  0  0
    8.7938  -13.4957   18.6568 C   0  0  2  0  0  0  0  0  0  0  0  0
    8.3498  -12.1609   18.9895 N   0  0  0  0  0  0  0  0  0  0  0  0
    8.3738  -14.4250   19.7488 C   0  0  0  0  0  0  0  0  0  0  0  0
    7.9317  -13.9976   20.8470 O   0  0  0  0  0  0  0  0  0  0  0  0
    8.4513  -15.8367   19.6055 N   0  0  0  0  0  0  0  0  0  0  0  0
    8.2043  -16.7386   20.7322 C   0  0  1  0  0  0  0  0  0  0  0  0
    8.0252  -18.1091   20.1563 C   0  0  0  0  0  0  0  0  0  0  0  0
    9.1247  -19.0533   20.4626 C   0  0  0  0  0  0  0  0  0  0  0  0
    8.9391  -20.4006   19.9453 C   0  0  0  0  0  0  0  0  0  0  0  0
    9.8243  -21.2704   20.2286 O   0  0  0  0  0  0  0  0  0  0  0  0
    9.3173  -16.6758   21.7105 C   0  0  0  0  0  0  0  0  0  0  0  0
   10.4559  -16.3807   21.2637 O   0  0  0  0  0  0  0  0  0  0  0  0
    7.8766  -20.8069   19.1725 O   0  0  0  0  0  0  0  0  0  0  0  0
    8.8764  -14.3282   28.5735 N   0  0  0  0  0  0  0  0  0  0  0  0
   10.2195  -14.7031   28.9203 C   0  0  0  0  0  0  0  0  0  0  0  0
   11.0416  -13.8277   29.3789 N   0  0  0  0  0  0  0  0  0  0  0  0
   10.6764  -16.0362   28.7698 N   0  0  0  0  0  0  0  0  0  0  0  0
   10.0515  -17.0040   27.8947 C   0  0  0  0  0  0  0  0  0  0  0  0
   10.7170  -16.8668   26.5279 C   0  0  0  0  0  0  0  0  0  0  0  0
    9.7299  -16.9851   25.4156 C   0  0  0  0  0  0  0  0  0  0  0  0
   10.2999  -16.8305   24.0375 C   0  0  2  0  0  0  0  0  0  0  0  0
    9.1861  -16.9203   23.0814 N   0  0  0  0  0  0  0  0  0  0  0  0
   11.3716  -17.7711   23.6996 C   0  0  0  0  0  0  0  0  0  0  0  0
   12.7166  -17.4408   23.8327 O   0  0  0  0  0  0  0  0  0  0  0  0
   11.1188  -18.9232   23.2726 O   0  0  0  0  0  0  0  0  0  0  0  0
  2  1  1  0
  3  2  1  0
  3  4  1  1
  5  3  1  0
  5  6  2  0
  7  5  1  0
  8  7  1  0
  8  9  1  6
 10  9  1  0
 11 10  1  0
 12 11  2  0
 13  8  1  0
 14 13  2  0
 15 11  1  0
 16 17  1  0
 17 19  1  0
 17 18  2  0
 19 20  1  0
 20 21  1  0
 21 22  1  0
 23 24  1  0
 23 22  1  1
 24 13  1  0
 25 23  1  0
 26 25  1  0
 27 25  2  0
M  END
$$$$
