SER.pdb
     RDKit          3D

 27 26  0  0  1  0  0  0  0  0999 V2000
   10.4511  -13.0525   19.6795 O   0  0  0  0  0  0  0  0  0  0  0  0
   10.0151  -13.7754   18.5753 C   0  0  0  0  0  0  0  0  0  0  0  0
    8.5005  -13.8020   18.5182 C   0  0  2  0  0  0  0  0  0  0  0  0
    8.0168  -12.4407   18.5682 N   0  0  0  0  0  0  0  0  0  0  0  0
    7.9162  -14.5591   19.6662 C   0  0  0  0  0  0  0  0  0  0  0  0
    7.1841  -13.9991   20.5234 O   0  0  0  0  0  0  0  0  0  0  0  0
    8.1557  -15.9477   19.8505 N   0  0  0  0  0  0  0  0  0  0  0  0
    7.6362  -16.6698   21.0134 C   0  0  1  0  0  0  0  0  0  0  0  0
    7.6036  -18.1198   20.6414 C   0  0  0  0  0  0  0  0  0  0  0  0
    7.2160  -19.0291   21.7446 C   0  0  0  0  0  0  0  0  0  0  0  0
    7.2716  -20.4466   21.4203 C   0  0  0  0  0  0  0  0  0  0  0  0
    6.9113  -21.2737   22.3184 O   0  0  0  0  0  0  0  0  0  0  0  0
    8.4723  -16.4104   22.2107 C   0  0  0  0  0  0  0  0  0  0  0  0
    9.7067  -16.2552   22.0239 O   0  0  0  0  0  0  0  0  0  0  0  0
    7.6838  -20.9617   20.2136 O   0  0  0  0  0  0  0  0  0  0  0  0
    4.9433  -11.2419   27.7899 N   0  0  0  0  0  0  0  0  0  0  0  0
    5.7254  -10.8438   26.6522 C   0  0  0  0  0  0  0  0  0  0  0  0
    5.7388   -9.6168   26.2689 N   0  0  0  0  0  0  0  0  0  0  0  0
    6.4993  -11.7811   25.9234 N   0  0  0  0  0  0  0  0  0  0  0  0
    6.6991  -13.1521   26.3397 C   0  0  0  0  0  0  0  0  0  0  0  0
    7.6876  -13.7779   25.3595 C   0  0  0  0  0  0  0  0  0  0  0  0
    7.9133  -15.2244   25.6463 C   0  0  0  0  0  0  0  0  0  0  0  0
    8.8058  -15.9361   24.6741 C   0  0  2  0  0  0  0  0  0  0  0  0
    7.9843  -16.3281   23.5190 N   0  0  0  0  0  0  0  0  0  0  0  0
    9.5353  -17.0816   25.2246 C   0  0  0  0  0  0  0  0  0  0  0  0
   10.6571  -16.9266   26.0327 O   0  0  0  0  0  0  0  0  0  0  0  0
    9.1754  -18.2598   24.9882 O   0  0  0  0  0  0  0  0  0  0  0  0
  2  1  1  0
  3  2  1  0
  3  4  1  1
  5  3  1  0
  5  6  2  0
  7  5  1  0
  8  7  1  0
  8  9  1  6
 10  9  1  0
 11 10  1  0
 12 11  2  0
 13  8  1  0
 14 13  2  0
 15 11  1  0
 16 17  1  0
 17 19  1  0
 17 18  2  0
 19 20  1  0
 20 21  1  0
 21 22  1  0
 23 24  1  0
 23 22  1  1
 24 13  1  0
 25 23  1  0
 26 25  1  0
 27 25  2  0
M  END
$$$$
