SER.pdb
     RDKit          3D

 27 26  0  0  1  0  0  0  0  0999 V2000
    4.2837  -19.6099   23.8763 O   0  0  0  0  0  0  0  0  0  0  0  0
    3.9065  -18.7705   22.8346 C   0  0  0  0  0  0  0  0  0  0  0  0
    4.9219  -18.8248   21.7103 C   0  0  2  0  0  0  0  0  0  0  0  0
    5.4542  -20.1668   21.6388 N   0  0  0  0  0  0  0  0  0  0  0  0
    6.0518  -17.8741   21.9382 C   0  0  0  0  0  0  0  0  0  0  0  0
    7.1858  -18.2725   22.3119 O   0  0  0  0  0  0  0  0  0  0  0  0
    5.9062  -16.4737   21.7456 N   0  0  0  0  0  0  0  0  0  0  0  0
    6.9867  -15.5376   22.0619 C   0  0  1  0  0  0  0  0  0  0  0  0
    6.8609  -14.3940   21.1036 C   0  0  0  0  0  0  0  0  0  0  0  0
    7.9722  -13.4165   21.1635 C   0  0  0  0  0  0  0  0  0  0  0  0
    9.2116  -13.8567   20.5411 C   0  0  0  0  0  0  0  0  0  0  0  0
    9.1699  -14.1971   19.3152 O   0  0  0  0  0  0  0  0  0  0  0  0
    6.9084  -15.1022   23.4776 C   0  0  0  0  0  0  0  0  0  0  0  0
    5.7668  -14.8260   23.9289 O   0  0  0  0  0  0  0  0  0  0  0  0
   10.4281  -13.9321   21.1783 O   0  0  0  0  0  0  0  0  0  0  0  0
   11.4413  -17.8387   28.1322 N   0  0  0  0  0  0  0  0  0  0  0  0
   11.1564  -17.0203   29.2784 C   0  0  0  0  0  0  0  0  0  0  0  0
   10.8881  -17.5609   30.4134 N   0  0  0  0  0  0  0  0  0  0  0  0
   11.1620  -15.6055   29.1955 N   0  0  0  0  0  0  0  0  0  0  0  0
   11.0311  -14.8746   27.9539 C   0  0  0  0  0  0  0  0  0  0  0  0
    9.5771  -15.0059   27.5085 C   0  0  0  0  0  0  0  0  0  0  0  0
    9.3261  -14.3009   26.2180 C   0  0  0  0  0  0  0  0  0  0  0  0
    7.9275  -14.4152   25.6898 C   0  0  2  0  0  0  0  0  0  0  0  0
    8.0073  -14.9796   24.3341 N   0  0  0  0  0  0  0  0  0  0  0  0
    7.1538  -13.1708   25.7060 C   0  0  0  0  0  0  0  0  0  0  0  0
    6.2735  -12.8591   26.7372 O   0  0  0  0  0  0  0  0  0  0  0  0
    7.2541  -12.3274   24.7829 O   0  0  0  0  0  0  0  0  0  0  0  0
  2  1  1  0
  3  2  1  0
  3  4  1  1
  5  3  1  0
  5  6  2  0
  7  5  1  0
  8  7  1  0
  8  9  1  6
 10  9  1  0
 11 10  1  0
 12 11  2  0
 13  8  1  0
 14 13  2  0
 15 11  1  0
 16 17  1  0
 17 19  1  0
 17 18  2  0
 19 20  1  0
 20 21  1  0
 21 22  1  0
 23 24  1  0
 23 22  1  6
 24 13  1  0
 25 23  1  0
 26 25  1  0
 27 25  2  0
M  END
$$$$
