SER.pdb
     RDKit          3D

 27 26  0  0  1  0  0  0  0  0999 V2000
   10.4385  -16.3024   16.1641 O   0  0  0  0  0  0  0  0  0  0  0  0
   10.2030  -17.3250   17.0756 C   0  0  0  0  0  0  0  0  0  0  0  0
   11.4988  -18.0184   17.4473 C   0  0  2  0  0  0  0  0  0  0  0  0
   11.5454  -19.2946   16.7700 N   0  0  0  0  0  0  0  0  0  0  0  0
   11.5979  -18.2548   18.9193 C   0  0  0  0  0  0  0  0  0  0  0  0
   10.5955  -18.5864   19.6045 O   0  0  0  0  0  0  0  0  0  0  0  0
   12.8258  -18.1179   19.6214 N   0  0  0  0  0  0  0  0  0  0  0  0
   12.8946  -18.2325   21.0795 C   0  0  1  0  0  0  0  0  0  0  0  0
   14.3470  -18.2885   21.4395 C   0  0  0  0  0  0  0  0  0  0  0  0
   15.0614  -19.4817   20.9295 C   0  0  0  0  0  0  0  0  0  0  0  0
   16.4694  -19.5548   21.2892 C   0  0  0  0  0  0  0  0  0  0  0  0
   17.3189  -19.6253   20.3437 O   0  0  0  0  0  0  0  0  0  0  0  0
   12.1925  -17.0997   21.7302 C   0  0  0  0  0  0  0  0  0  0  0  0
   12.6576  -15.9478   21.5308 O   0  0  0  0  0  0  0  0  0  0  0  0
   16.9534  -19.5523   22.5765 O   0  0  0  0  0  0  0  0  0  0  0  0
    7.9384  -11.6617   20.4741 N   0  0  0  0  0  0  0  0  0  0  0  0
    8.0695  -12.9125   19.7791 C   0  0  0  0  0  0  0  0  0  0  0  0
    8.4623  -12.9390   18.5555 N   0  0  0  0  0  0  0  0  0  0  0  0
    7.7732  -14.1446   20.4138 N   0  0  0  0  0  0  0  0  0  0  0  0
    7.2586  -14.2488   21.7618 C   0  0  0  0  0  0  0  0  0  0  0  0
    8.4522  -14.5050   22.6780 C   0  0  0  0  0  0  0  0  0  0  0  0
    9.2478  -15.6868   22.2356 C   0  0  0  0  0  0  0  0  0  0  0  0
   10.3632  -16.0856   23.1549 C   0  0  2  0  0  0  0  0  0  0  0  0
   11.0604  -17.2261   22.5419 N   0  0  0  0  0  0  0  0  0  0  0  0
    9.9571  -16.3843   24.5309 C   0  0  0  0  0  0  0  0  0  0  0  0
    9.4934  -15.3991   25.3969 O   0  0  0  0  0  0  0  0  0  0  0  0
   10.0110  -17.5508   24.9891 O   0  0  0  0  0  0  0  0  0  0  0  0
  2  1  1  0
  3  2  1  0
  3  4  1  6
  5  3  1  0
  5  6  2  0
  7  5  1  0
  8  7  1  0
  8  9  1  1
 10  9  1  0
 11 10  1  0
 12 11  2  0
 13  8  1  0
 14 13  2  0
 15 11  1  0
 16 17  1  0
 17 19  1  0
 17 18  2  0
 19 20  1  0
 20 21  1  0
 21 22  1  0
 23 24  1  0
 23 22  1  6
 24 13  1  0
 25 23  1  0
 26 25  1  0
 27 25  2  0
M  END
$$$$
