SER.pdb
     RDKit          3D

 27 26  0  0  1  0  0  0  0  0999 V2000
    8.6434  -12.5370   20.7000 O   0  0  0  0  0  0  0  0  0  0  0  0
    9.0251  -12.7383   19.3787 C   0  0  0  0  0  0  0  0  0  0  0  0
    8.3908  -13.9991   18.8255 C   0  0  2  0  0  0  0  0  0  0  0  0
    6.9591  -13.8064   18.7740 N   0  0  0  0  0  0  0  0  0  0  0  0
    8.6823  -15.1877   19.6827 C   0  0  0  0  0  0  0  0  0  0  0  0
    7.8241  -15.6587   20.4738 O   0  0  0  0  0  0  0  0  0  0  0  0
    9.9406  -15.8473   19.6501 N   0  0  0  0  0  0  0  0  0  0  0  0
   10.2348  -16.9856   20.5227 C   0  0  1  0  0  0  0  0  0  0  0  0
   11.5427  -17.5531   20.0651 C   0  0  0  0  0  0  0  0  0  0  0  0
   11.9756  -18.7669   20.7955 C   0  0  0  0  0  0  0  0  0  0  0  0
   13.2158  -19.3606   20.3192 C   0  0  0  0  0  0  0  0  0  0  0  0
   13.1771  -20.5667   19.9139 O   0  0  0  0  0  0  0  0  0  0  0  0
   10.2659  -16.5647   21.9446 C   0  0  0  0  0  0  0  0  0  0  0  0
   10.9264  -15.5301   22.2207 O   0  0  0  0  0  0  0  0  0  0  0  0
   14.4295  -18.7155   20.2726 O   0  0  0  0  0  0  0  0  0  0  0  0
    5.3741  -11.9489   25.3351 N   0  0  0  0  0  0  0  0  0  0  0  0
    6.4190  -12.1027   26.3093 C   0  0  0  0  0  0  0  0  0  0  0  0
    6.6849  -11.1531   27.1339 N   0  0  0  0  0  0  0  0  0  0  0  0
    7.1823  -13.2941   26.3918 N   0  0  0  0  0  0  0  0  0  0  0  0
    7.1479  -14.3391   25.3920 C   0  0  0  0  0  0  0  0  0  0  0  0
    8.1269  -15.4205   25.8412 C   0  0  0  0  0  0  0  0  0  0  0  0
    8.2615  -16.5043   24.8249 C   0  0  0  0  0  0  0  0  0  0  0  0
    9.6656  -16.8021   24.3916 C   0  0  2  0  0  0  0  0  0  0  0  0
    9.6168  -17.2346   22.9868 N   0  0  0  0  0  0  0  0  0  0  0  0
   10.3801  -17.7727   25.2252 C   0  0  0  0  0  0  0  0  0  0  0  0
   10.9205  -17.4320   26.4611 O   0  0  0  0  0  0  0  0  0  0  0  0
   10.5354  -18.9615   24.8559 O   0  0  0  0  0  0  0  0  0  0  0  0
  2  1  1  0
  3  2  1  0
  3  4  1  1
  5  3  1  0
  5  6  2  0
  7  5  1  0
  8  7  1  0
  8  9  1  6
 10  9  1  0
 11 10  1  0
 12 11  2  0
 13  8  1  0
 14 13  2  0
 15 11  1  0
 16 17  1  0
 17 19  1  0
 17 18  2  0
 19 20  1  0
 20 21  1  0
 21 22  1  0
 23 24  1  0
 23 22  1  1
 24 13  1  0
 25 23  1  0
 26 25  1  0
 27 25  2  0
M  END
$$$$
