SER.pdb
     RDKit          3D

 27 26  0  0  1  0  0  0  0  0999 V2000
    7.8772  -13.5185   20.4788 O   0  0  0  0  0  0  0  0  0  0  0  0
    8.2468  -12.5734   19.5290 C   0  0  0  0  0  0  0  0  0  0  0  0
    8.7217  -13.2503   18.2584 C   0  0  2  0  0  0  0  0  0  0  0  0
    7.6049  -13.9553   17.6707 N   0  0  0  0  0  0  0  0  0  0  0  0
    9.8164  -14.2304   18.5290 C   0  0  0  0  0  0  0  0  0  0  0  0
    9.5839  -15.4597   18.6671 O   0  0  0  0  0  0  0  0  0  0  0  0
   11.1743  -13.8275   18.6445 N   0  0  0  0  0  0  0  0  0  0  0  0
   12.2329  -14.7805   18.9838 C   0  0  1  0  0  0  0  0  0  0  0  0
   13.5187  -14.1885   18.4955 C   0  0  0  0  0  0  0  0  0  0  0  0
   14.7101  -15.0411   18.7140 C   0  0  0  0  0  0  0  0  0  0  0  0
   15.9471  -14.5244   18.1479 C   0  0  0  0  0  0  0  0  0  0  0  0
   16.5478  -15.2415   17.2847 O   0  0  0  0  0  0  0  0  0  0  0  0
   12.2507  -15.0503   20.4421 C   0  0  0  0  0  0  0  0  0  0  0  0
   12.0212  -14.0778   21.2067 O   0  0  0  0  0  0  0  0  0  0  0  0
   16.5172  -13.3163   18.4749 O   0  0  0  0  0  0  0  0  0  0  0  0
    6.3143  -17.1443   25.7327 N   0  0  0  0  0  0  0  0  0  0  0  0
    7.6683  -17.3383   26.1729 C   0  0  0  0  0  0  0  0  0  0  0  0
    8.0048  -17.0642   27.3829 N   0  0  0  0  0  0  0  0  0  0  0  0
    8.6661  -17.8331   25.2964 N   0  0  0  0  0  0  0  0  0  0  0  0
    9.0636  -17.1660   24.0759 C   0  0  0  0  0  0  0  0  0  0  0  0
   10.1880  -17.9937   23.4592 C   0  0  0  0  0  0  0  0  0  0  0  0
   10.7208  -17.3665   22.2150 C   0  0  0  0  0  0  0  0  0  0  0  0
   12.0498  -16.6878   22.3610 C   0  0  2  0  0  0  0  0  0  0  0  0
   12.5030  -16.3003   21.0168 N   0  0  0  0  0  0  0  0  0  0  0  0
   13.0713  -17.4677   23.0653 C   0  0  0  0  0  0  0  0  0  0  0  0
   13.3222  -17.3043   24.4239 O   0  0  0  0  0  0  0  0  0  0  0  0
   13.7679  -18.3225   22.4672 O   0  0  0  0  0  0  0  0  0  0  0  0
  2  1  1  0
  3  2  1  0
  3  4  1  1
  5  3  1  0
  5  6  2  0
  7  5  1  0
  8  7  1  0
  8  9  1  1
 10  9  1  0
 11 10  1  0
 12 11  2  0
 13  8  1  0
 14 13  2  0
 15 11  1  0
 16 17  1  0
 17 19  1  0
 17 18  2  0
 19 20  1  0
 20 21  1  0
 21 22  1  0
 23 24  1  0
 23 22  1  6
 24 13  1  0
 25 23  1  0
 26 25  1  0
 27 25  2  0
M  END
$$$$
