SER.pdb
     RDKit          3D

 27 26  0  0  1  0  0  0  0  0999 V2000
    8.2908  -13.7748   19.5702 O   0  0  0  0  0  0  0  0  0  0  0  0
    8.6622  -12.8995   18.5562 C   0  0  0  0  0  0  0  0  0  0  0  0
    9.3402  -13.6483   17.4258 C   0  0  2  0  0  0  0  0  0  0  0  0
    8.3595  -14.4951   16.7849 N   0  0  0  0  0  0  0  0  0  0  0  0
   10.4596  -14.5045   17.9218 C   0  0  0  0  0  0  0  0  0  0  0  0
   10.3080  -15.7369   18.1278 O   0  0  0  0  0  0  0  0  0  0  0  0
   11.7512  -13.9741   18.1864 N   0  0  0  0  0  0  0  0  0  0  0  0
   12.8377  -14.8134   18.6952 C   0  0  1  0  0  0  0  0  0  0  0  0
   14.1144  -14.2268   18.1777 C   0  0  0  0  0  0  0  0  0  0  0  0
   15.3278  -15.0122   18.5018 C   0  0  0  0  0  0  0  0  0  0  0  0
   16.5657  -14.4872   17.9458 C   0  0  0  0  0  0  0  0  0  0  0  0
   16.5294  -14.0111   16.7658 O   0  0  0  0  0  0  0  0  0  0  0  0
   12.8031  -14.8784   20.1766 C   0  0  0  0  0  0  0  0  0  0  0  0
   12.9634  -13.7977   20.8006 O   0  0  0  0  0  0  0  0  0  0  0  0
   17.7750  -14.4654   18.6006 O   0  0  0  0  0  0  0  0  0  0  0  0
    6.9072  -13.1876   23.3742 N   0  0  0  0  0  0  0  0  0  0  0  0
    7.3270  -14.4578   23.8985 C   0  0  0  0  0  0  0  0  0  0  0  0
    6.4642  -15.2809   24.3786 N   0  0  0  0  0  0  0  0  0  0  0  0
    8.6917  -14.8403   23.9030 N   0  0  0  0  0  0  0  0  0  0  0  0
    9.1651  -16.1165   24.3930 C   0  0  0  0  0  0  0  0  0  0  0  0
   10.6718  -16.1572   24.1526 C   0  0  0  0  0  0  0  0  0  0  0  0
   11.0052  -16.0598   22.7018 C   0  0  0  0  0  0  0  0  0  0  0  0
   12.4698  -16.0756   22.3811 C   0  0  2  0  0  0  0  0  0  0  0  0
   12.6063  -16.0485   20.9171 N   0  0  0  0  0  0  0  0  0  0  0  0
   13.2220  -17.1881   22.9676 C   0  0  0  0  0  0  0  0  0  0  0  0
   13.3782  -17.3337   24.3424 O   0  0  0  0  0  0  0  0  0  0  0  0
   13.7609  -18.0632   22.2483 O   0  0  0  0  0  0  0  0  0  0  0  0
  2  1  1  0
  3  2  1  0
  3  4  1  1
  5  3  1  0
  5  6  2  0
  7  5  1  0
  8  7  1  0
  8  9  1  1
 10  9  1  0
 11 10  1  0
 12 11  2  0
 13  8  1  0
 14 13  2  0
 15 11  1  0
 16 17  1  0
 17 19  1  0
 17 18  2  0
 19 20  1  0
 20 21  1  0
 21 22  1  0
 23 24  1  0
 23 22  1  6
 24 13  1  0
 25 23  1  0
 26 25  1  0
 27 25  2  0
M  END
$$$$
