SER.pdb
     RDKit          3D

 27 26  0  0  1  0  0  0  0  0999 V2000
   13.2924  -15.8143   19.6565 O   0  0  0  0  0  0  0  0  0  0  0  0
   12.3592  -15.8160   18.6263 C   0  0  0  0  0  0  0  0  0  0  0  0
   11.4978  -14.5699   18.6836 C   0  0  2  0  0  0  0  0  0  0  0  0
   12.3187  -13.4662   19.1281 N   0  0  0  0  0  0  0  0  0  0  0  0
   10.3561  -14.7292   19.6341 C   0  0  0  0  0  0  0  0  0  0  0  0
   10.2918  -14.0728   20.7061 O   0  0  0  0  0  0  0  0  0  0  0  0
    9.2854  -15.6281   19.3787 N   0  0  0  0  0  0  0  0  0  0  0  0
    8.2182  -15.8503   20.3563 C   0  0  1  0  0  0  0  0  0  0  0  0
    7.1831  -16.6949   19.6802 C   0  0  0  0  0  0  0  0  0  0  0  0
    6.0628  -17.1122   20.5549 C   0  0  0  0  0  0  0  0  0  0  0  0
    5.1255  -18.0458   19.9490 C   0  0  0  0  0  0  0  0  0  0  0  0
    5.5117  -18.6882   18.9202 O   0  0  0  0  0  0  0  0  0  0  0  0
    8.7538  -16.4852   21.5850 C   0  0  0  0  0  0  0  0  0  0  0  0
    9.7027  -17.2989   21.4416 O   0  0  0  0  0  0  0  0  0  0  0  0
    3.8510  -18.2882   20.4055 O   0  0  0  0  0  0  0  0  0  0  0  0
   10.0465  -13.5664   29.9321 N   0  0  0  0  0  0  0  0  0  0  0  0
   10.4958  -14.9259   29.8111 C   0  0  0  0  0  0  0  0  0  0  0  0
   11.1274  -15.4910   30.7776 N   0  0  0  0  0  0  0  0  0  0  0  0
   10.2595  -15.6798   28.6345 N   0  0  0  0  0  0  0  0  0  0  0  0
    9.6930  -15.1227   27.4255 C   0  0  0  0  0  0  0  0  0  0  0  0
    9.6165  -16.2546   26.4043 C   0  0  0  0  0  0  0  0  0  0  0  0
    9.0037  -15.8038   25.1210 C   0  0  0  0  0  0  0  0  0  0  0  0
    8.8338  -16.8737   24.0844 C   0  0  2  0  0  0  0  0  0  0  0  0
    8.2789  -16.2420   22.8779 N   0  0  0  0  0  0  0  0  0  0  0  0
    8.0279  -18.0232   24.5048 C   0  0  0  0  0  0  0  0  0  0  0  0
    8.5268  -19.0079   25.3515 O   0  0  0  0  0  0  0  0  0  0  0  0
    6.8443  -18.1683   24.1153 O   0  0  0  0  0  0  0  0  0  0  0  0
  2  1  1  0
  3  2  1  0
  3  4  1  1
  5  3  1  0
  5  6  2  0
  7  5  1  0
  8  7  1  0
  8  9  1  6
 10  9  1  0
 11 10  1  0
 12 11  2  0
 13  8  1  0
 14 13  2  0
 15 11  1  0
 16 17  1  0
 17 19  1  0
 17 18  2  0
 19 20  1  0
 20 21  1  0
 21 22  1  0
 23 24  1  0
 23 22  1  1
 24 13  1  0
 25 23  1  0
 26 25  1  0
 27 25  2  0
M  END
$$$$
