YPM.pdb
     RDKit          3D

 28 29  0  0  1  0  0  0  0  0999 V2000
    0.1917  -20.5537   20.4373 O   0  0  0  0  0  0  0  0  0  0  0  0
    1.3852  -19.9205   20.7981 C   0  0  0  0  0  0  0  0  0  0  0  0
    1.9578  -20.1617   22.0057 C   0  0  0  0  0  0  0  0  0  0  0  0
    3.1440  -19.5233   22.3527 C   0  0  0  0  0  0  0  0  0  0  0  0
    3.7720  -18.6393   21.5011 C   0  0  0  0  0  0  0  0  0  0  0  0
    5.0262  -17.9590   21.8502 C   0  0  0  0  0  0  0  0  0  0  0  0
    6.1104  -18.1854   20.8081 C   0  0  2  0  0  0  0  0  0  0  0  0
    6.2236  -19.5503   20.4082 N   0  0  0  0  0  0  0  0  0  0  0  0
    7.3903  -17.5342   21.1735 C   0  0  0  0  0  0  0  0  0  0  0  0
    8.3977  -18.3175   21.2916 O   0  0  0  0  0  0  0  0  0  0  0  0
    3.1675  -18.4128   20.2805 C   0  0  0  0  0  0  0  0  0  0  0  0
    1.9869  -19.0423   19.9243 C   0  0  0  0  0  0  0  0  0  0  0  0
    7.5242  -16.1329   21.3871 N   0  0  0  0  0  0  0  0  0  0  0  0
    6.4804  -15.1896   21.2266 C   0  0  0  0  0  0  0  0  0  0  0  0
    7.0928  -13.8573   21.6007 C   0  0  0  0  0  0  0  0  0  0  0  0
    8.5951  -14.0829   21.3258 C   0  0  0  0  0  0  0  0  0  0  0  0
    8.7197  -15.4938   21.8012 C   0  0  1  0  0  0  0  0  0  0  0  0
    8.9605  -15.5771   23.2668 C   0  0  0  0  0  0  0  0  0  0  0  0
    7.9569  -15.7163   24.0014 O   0  0  0  0  0  0  0  0  0  0  0  0
    8.8528  -14.0287   30.2763 C   0  0  0  0  0  0  0  0  0  0  0  0
    8.5242  -13.9166   28.4985 S   0  0  0  0  0  0  0  0  0  0  0  0
    9.6491  -14.9411   27.5520 C   0  0  0  0  0  0  0  0  0  0  0  0
    9.6456  -14.7651   26.0815 C   0  0  0  0  0  0  0  0  0  0  0  0
   10.4894  -15.6895   25.3033 C   0  0  2  0  0  0  0  0  0  0  0  0
   10.2329  -15.5085   23.8544 N   0  0  0  0  0  0  0  0  0  0  0  0
   10.5261  -17.1036   25.6323 C   0  0  0  0  0  0  0  0  0  0  0  0
   11.6805  -17.6252   26.2579 O   0  0  0  0  0  0  0  0  0  0  0  0
    9.6352  -17.9200   25.4192 O   0  0  0  0  0  0  0  0  0  0  0  0
  2  1  1  0
  3  2  2  0
  4  3  1  0
  5 11  1  0
  5  4  2  0
  6  7  1  0
  6  5  1  0
  7  8  1  1
  7  9  1  0
  9 10  2  0
 11 12  2  0
 12  2  1  0
 13  9  1  0
 13 14  1  0
 15 14  1  0
 16 15  1  0
 17 16  1  0
 17 13  1  0
 17 18  1  1
 18 19  2  0
 20 21  1  0
 22 23  1  0
 22 21  1  0
 24 23  1  1
 24 26  1  0
 24 25  1  0
 25 18  1  0
 26 27  1  0
 28 26  2  0
M  END
$$$$
