YPM.pdb
     RDKit          3D

 28 29  0  0  1  0  0  0  0  0999 V2000
    6.7028  -11.2805   26.1315 O   0  0  0  0  0  0  0  0  0  0  0  0
    6.6197  -12.6723   26.0241 C   0  0  0  0  0  0  0  0  0  0  0  0
    5.4469  -13.3149   26.2607 C   0  0  0  0  0  0  0  0  0  0  0  0
    5.3788  -14.7000   26.1523 C   0  0  0  0  0  0  0  0  0  0  0  0
    6.4769  -15.4588   25.8069 C   0  0  0  0  0  0  0  0  0  0  0  0
    6.4219  -16.9217   25.6850 C   0  0  0  0  0  0  0  0  0  0  0  0
    6.2740  -17.3713   24.2398 C   0  0  2  0  0  0  0  0  0  0  0  0
    5.6638  -18.6549   24.1145 N   0  0  0  0  0  0  0  0  0  0  0  0
    7.5235  -17.1960   23.4627 C   0  0  0  0  0  0  0  0  0  0  0  0
    8.2746  -18.2309   23.3785 O   0  0  0  0  0  0  0  0  0  0  0  0
    7.6559  -14.7794   25.5724 C   0  0  0  0  0  0  0  0  0  0  0  0
    7.7356  -13.4011   25.6773 C   0  0  0  0  0  0  0  0  0  0  0  0
    7.8938  -15.9705   22.8395 N   0  0  0  0  0  0  0  0  0  0  0  0
    7.3000  -14.7148   23.1141 C   0  0  0  0  0  0  0  0  0  0  0  0
    8.0477  -13.7273   22.2447 C   0  0  0  0  0  0  0  0  0  0  0  0
    8.5671  -14.6125   21.0915 C   0  0  0  0  0  0  0  0  0  0  0  0
    8.9168  -15.8408   21.8668 C   0  0  1  0  0  0  0  0  0  0  0  0
   10.2840  -15.7716   22.4488 C   0  0  0  0  0  0  0  0  0  0  0  0
   11.2184  -15.4706   21.6726 O   0  0  0  0  0  0  0  0  0  0  0  0
   10.7112  -14.9254   29.7107 C   0  0  0  0  0  0  0  0  0  0  0  0
   11.3152  -14.1383   28.1952 S   0  0  0  0  0  0  0  0  0  0  0  0
   11.5368  -15.3290   26.8744 C   0  0  0  0  0  0  0  0  0  0  0  0
   11.7578  -14.7912   25.5124 C   0  0  0  0  0  0  0  0  0  0  0  0
   11.8927  -15.7781   24.4261 C   0  0  2  0  0  0  0  0  0  0  0  0
   10.5716  -16.0222   23.7992 N   0  0  0  0  0  0  0  0  0  0  0  0
   12.5765  -17.0380   24.6594 C   0  0  0  0  0  0  0  0  0  0  0  0
   11.9206  -18.2404   24.3133 O   0  0  0  0  0  0  0  0  0  0  0  0
   13.6973  -17.1754   25.1396 O   0  0  0  0  0  0  0  0  0  0  0  0
  2  1  1  0
  3  2  2  0
  4  3  1  0
  5 11  1  0
  5  4  2  0
  6  7  1  0
  6  5  1  0
  7  8  1  1
  7  9  1  0
  9 10  2  0
 11 12  2  0
 12  2  1  0
 13  9  1  0
 13 14  1  0
 15 14  1  0
 16 15  1  0
 17 16  1  0
 17 13  1  0
 17 18  1  1
 18 19  2  0
 20 21  1  0
 22 23  1  0
 22 21  1  0
 24 23  1  1
 24 26  1  0
 24 25  1  0
 25 18  1  0
 26 27  1  0
 28 26  2  0
M  END
$$$$
