YPM.pdb
     RDKit          3D

 28 29  0  0  1  0  0  0  0  0999 V2000
    4.4278  -10.3365   27.0352 O   0  0  0  0  0  0  0  0  0  0  0  0
    5.2283  -11.4216   26.6650 C   0  0  0  0  0  0  0  0  0  0  0  0
    6.4924  -11.2242   26.2096 C   0  0  0  0  0  0  0  0  0  0  0  0
    7.2773  -12.3125   25.8428 C   0  0  0  0  0  0  0  0  0  0  0  0
    6.8118  -13.6077   25.9261 C   0  0  0  0  0  0  0  0  0  0  0  0
    7.6280  -14.7684   25.5459 C   0  0  0  0  0  0  0  0  0  0  0  0
    6.8438  -15.7736   24.7168 C   0  0  2  0  0  0  0  0  0  0  0  0
    6.1326  -16.7199   25.5134 N   0  0  0  0  0  0  0  0  0  0  0  0
    7.6554  -16.3616   23.6254 C   0  0  0  0  0  0  0  0  0  0  0  0
    8.0104  -17.5816   23.7930 O   0  0  0  0  0  0  0  0  0  0  0  0
    5.5233  -13.7788   26.3920 C   0  0  0  0  0  0  0  0  0  0  0  0
    4.7329  -12.7032   26.7600 C   0  0  0  0  0  0  0  0  0  0  0  0
    8.0332  -15.6440   22.4551 N   0  0  0  0  0  0  0  0  0  0  0  0
    7.4876  -14.3977   22.0624 C   0  0  0  0  0  0  0  0  0  0  0  0
    8.2250  -14.0275   20.7938 C   0  0  0  0  0  0  0  0  0  0  0  0
    8.6690  -15.4000   20.2440 C   0  0  0  0  0  0  0  0  0  0  0  0
    9.0167  -16.0759   21.5302 C   0  0  1  0  0  0  0  0  0  0  0  0
   10.4091  -15.7830   21.9641 C   0  0  0  0  0  0  0  0  0  0  0  0
   10.8074  -14.6031   21.8408 O   0  0  0  0  0  0  0  0  0  0  0  0
   11.5760  -14.9208   28.9758 C   0  0  0  0  0  0  0  0  0  0  0  0
   10.6917  -15.1301   27.4089 S   0  0  0  0  0  0  0  0  0  0  0  0
   11.7465  -15.8340   26.1428 C   0  0  0  0  0  0  0  0  0  0  0  0
   11.1662  -15.9833   24.7885 C   0  0  0  0  0  0  0  0  0  0  0  0
   12.0376  -16.5755   23.7578 C   0  0  2  0  0  0  0  0  0  0  0  0
   11.2807  -16.7463   22.4945 N   0  0  0  0  0  0  0  0  0  0  0  0
   12.8068  -17.7731   24.0463 C   0  0  0  0  0  0  0  0  0  0  0  0
   12.2856  -19.0258   23.6525 O   0  0  0  0  0  0  0  0  0  0  0  0
   13.8945  -17.8162   24.6125 O   0  0  0  0  0  0  0  0  0  0  0  0
  2  1  1  0
  3  2  2  0
  4  3  1  0
  5 11  1  0
  5  4  2  0
  6  7  1  0
  6  5  1  0
  7  8  1  1
  7  9  1  0
  9 10  2  0
 11 12  2  0
 12  2  1  0
 13  9  1  0
 13 14  1  0
 15 14  1  0
 16 15  1  0
 17 16  1  0
 17 13  1  0
 17 18  1  1
 18 19  2  0
 20 21  1  0
 22 23  1  0
 22 21  1  0
 24 23  1  1
 24 26  1  0
 24 25  1  0
 25 18  1  0
 26 27  1  0
 28 26  2  0
M  END
$$$$
