YPM.pdb
     RDKit          3D

 28 29  0  0  1  0  0  0  0  0999 V2000
   15.3138  -15.1671   15.8270 O   0  0  0  0  0  0  0  0  0  0  0  0
   14.4301  -15.0332   16.9026 C   0  0  0  0  0  0  0  0  0  0  0  0
   14.5625  -14.0070   17.7821 C   0  0  0  0  0  0  0  0  0  0  0  0
   13.6778  -13.8868   18.8488 C   0  0  0  0  0  0  0  0  0  0  0  0
   12.6525  -14.7865   19.0500 C   0  0  0  0  0  0  0  0  0  0  0  0
   11.7078  -14.6729   20.1691 C   0  0  0  0  0  0  0  0  0  0  0  0
   10.2722  -14.5134   19.6933 C   0  0  2  0  0  0  0  0  0  0  0  0
   10.0517  -13.2955   18.9836 N   0  0  0  0  0  0  0  0  0  0  0  0
    9.2873  -14.7992   20.7629 C   0  0  0  0  0  0  0  0  0  0  0  0
    8.8254  -13.7755   21.3802 O   0  0  0  0  0  0  0  0  0  0  0  0
   12.5418  -15.8197   18.1409 C   0  0  0  0  0  0  0  0  0  0  0  0
   13.4165  -15.9495   17.0755 C   0  0  0  0  0  0  0  0  0  0  0  0
    8.8623  -16.1140   21.1066 N   0  0  0  0  0  0  0  0  0  0  0  0
    9.3233  -17.2989   20.4833 C   0  0  0  0  0  0  0  0  0  0  0  0
    8.6209  -18.4250   21.2104 C   0  0  0  0  0  0  0  0  0  0  0  0
    7.3484  -17.7397   21.7530 C   0  0  0  0  0  0  0  0  0  0  0  0
    7.9275  -16.4147   22.1288 C   0  0  1  0  0  0  0  0  0  0  0  0
    8.5215  -16.4240   23.4926 C   0  0  0  0  0  0  0  0  0  0  0  0
    9.7402  -16.6946   23.5807 O   0  0  0  0  0  0  0  0  0  0  0  0
    5.9547  -11.1502   26.3077 C   0  0  0  0  0  0  0  0  0  0  0  0
    6.2381  -12.7155   27.1741 S   0  0  0  0  0  0  0  0  0  0  0  0
    7.2856  -13.8168   26.2249 C   0  0  0  0  0  0  0  0  0  0  0  0
    7.6340  -15.1160   26.8445 C   0  0  0  0  0  0  0  0  0  0  0  0
    8.4014  -16.0601   26.0126 C   0  0  2  0  0  0  0  0  0  0  0  0
    7.7964  -16.1496   24.6621 N   0  0  0  0  0  0  0  0  0  0  0  0
    8.7159  -17.3882   26.5092 C   0  0  0  0  0  0  0  0  0  0  0  0
    9.6837  -17.5195   27.5300 O   0  0  0  0  0  0  0  0  0  0  0  0
    8.2165  -18.4415   26.1263 O   0  0  0  0  0  0  0  0  0  0  0  0
  2  1  1  0
  3  2  2  0
  4  3  1  0
  5 11  1  0
  5  4  2  0
  6  7  1  0
  6  5  1  0
  7  8  1  1
  7  9  1  0
  9 10  2  0
 11 12  2  0
 12  2  1  0
 13  9  1  0
 13 14  1  0
 15 14  1  0
 16 15  1  0
 17 16  1  0
 17 13  1  0
 17 18  1  1
 18 19  2  0
 20 21  1  0
 22 23  1  0
 22 21  1  0
 24 23  1  1
 24 26  1  0
 24 25  1  0
 25 18  1  0
 26 27  1  0
 28 26  2  0
M  END
$$$$
