YPM.pdb
     RDKit          3D

 28 29  0  0  1  0  0  0  0  0999 V2000
   11.5017  -22.2337   22.0696 O   0  0  0  0  0  0  0  0  0  0  0  0
   10.8526  -21.3085   21.2462 C   0  0  0  0  0  0  0  0  0  0  0  0
   11.5517  -20.3176   20.6348 C   0  0  0  0  0  0  0  0  0  0  0  0
   10.8931  -19.4026   19.8200 C   0  0  0  0  0  0  0  0  0  0  0  0
    9.5326  -19.4653   19.6052 C   0  0  0  0  0  0  0  0  0  0  0  0
    8.8218  -18.5093   18.7457 C   0  0  0  0  0  0  0  0  0  0  0  0
    9.6175  -17.2316   18.5293 C   0  0  2  0  0  0  0  0  0  0  0  0
   10.8572  -17.4532   17.8586 N   0  0  0  0  0  0  0  0  0  0  0  0
    9.7114  -16.4092   19.7583 C   0  0  0  0  0  0  0  0  0  0  0  0
   10.8965  -16.2104   20.2039 O   0  0  0  0  0  0  0  0  0  0  0  0
    8.8471  -20.4824   20.2394 C   0  0  0  0  0  0  0  0  0  0  0  0
    9.4920  -21.3988   21.0527 C   0  0  0  0  0  0  0  0  0  0  0  0
    8.5780  -15.8624   20.4244 N   0  0  0  0  0  0  0  0  0  0  0  0
    7.2356  -16.0425   20.0113 C   0  0  0  0  0  0  0  0  0  0  0  0
    6.4046  -15.3137   21.0449 C   0  0  0  0  0  0  0  0  0  0  0  0
    7.3887  -14.2569   21.5908 C   0  0  0  0  0  0  0  0  0  0  0  0
    8.6405  -15.0722   21.5995 C   0  0  1  0  0  0  0  0  0  0  0  0
    8.7854  -15.8718   22.8456 C   0  0  0  0  0  0  0  0  0  0  0  0
    9.1786  -17.0534   22.7211 O   0  0  0  0  0  0  0  0  0  0  0  0
   10.5413  -13.1919   30.1665 C   0  0  0  0  0  0  0  0  0  0  0  0
    9.5473  -13.0366   28.6603 S   0  0  0  0  0  0  0  0  0  0  0  0
    9.9302  -14.3283   27.4788 C   0  0  0  0  0  0  0  0  0  0  0  0
    9.1596  -14.3349   26.2141 C   0  0  0  0  0  0  0  0  0  0  0  0
    9.4666  -15.4145   25.2589 C   0  0  2  0  0  0  0  0  0  0  0  0
    8.5082  -15.3757   24.1285 N   0  0  0  0  0  0  0  0  0  0  0  0
    9.6372  -16.7798   25.7239 C   0  0  0  0  0  0  0  0  0  0  0  0
   10.9427  -17.2455   25.9973 O   0  0  0  0  0  0  0  0  0  0  0  0
    8.7424  -17.5982   25.9110 O   0  0  0  0  0  0  0  0  0  0  0  0
  2  1  1  0
  3  2  2  0
  4  3  1  0
  5 11  1  0
  5  4  2  0
  6  7  1  0
  6  5  1  0
  7  8  1  1
  7  9  1  0
  9 10  2  0
 11 12  2  0
 12  2  1  0
 13  9  1  0
 13 14  1  0
 15 14  1  0
 16 15  1  0
 17 16  1  0
 17 13  1  0
 17 18  1  1
 18 19  2  0
 20 21  1  0
 22 23  1  0
 22 21  1  0
 24 23  1  1
 24 26  1  0
 24 25  1  0
 25 18  1  0
 26 27  1  0
 28 26  2  0
M  END
$$$$
