YPM.pdb
     RDKit          3D

 28 29  0  0  1  0  0  0  0  0999 V2000
   16.6084  -13.7864   19.3768 O   0  0  0  0  0  0  0  0  0  0  0  0
   15.3410  -14.3594   19.2317 C   0  0  0  0  0  0  0  0  0  0  0  0
   15.2080  -15.6844   18.9652 C   0  0  0  0  0  0  0  0  0  0  0  0
   13.9413  -16.2409   18.8213 C   0  0  0  0  0  0  0  0  0  0  0  0
   12.7949  -15.4844   18.9418 C   0  0  0  0  0  0  0  0  0  0  0  0
   11.4498  -16.0564   18.7958 C   0  0  0  0  0  0  0  0  0  0  0  0
   10.3590  -15.0362   19.0823 C   0  0  2  0  0  0  0  0  0  0  0  0
   10.7369  -13.7039   18.7386 N   0  0  0  0  0  0  0  0  0  0  0  0
    9.7825  -15.1909   20.4385 C   0  0  0  0  0  0  0  0  0  0  0  0
    9.8724  -14.1643   21.2003 O   0  0  0  0  0  0  0  0  0  0  0  0
   12.9600  -14.1405   19.2125 C   0  0  0  0  0  0  0  0  0  0  0  0
   14.2156  -13.5755   19.3578 C   0  0  0  0  0  0  0  0  0  0  0  0
    9.1637  -16.3891   20.8955 N   0  0  0  0  0  0  0  0  0  0  0  0
    8.9540  -17.5419   20.1005 C   0  0  0  0  0  0  0  0  0  0  0  0
    8.3082  -18.5478   21.0286 C   0  0  0  0  0  0  0  0  0  0  0  0
    7.6356  -17.6507   22.0897 C   0  0  0  0  0  0  0  0  0  0  0  0
    8.6838  -16.5933   22.2135 C   0  0  1  0  0  0  0  0  0  0  0  0
    9.7497  -16.9651   23.1824 C   0  0  0  0  0  0  0  0  0  0  0  0
   10.7027  -17.6486   22.7456 O   0  0  0  0  0  0  0  0  0  0  0  0
    9.5769  -13.2525   29.4381 C   0  0  0  0  0  0  0  0  0  0  0  0
   10.2555  -13.4205   27.7671 S   0  0  0  0  0  0  0  0  0  0  0  0
   10.6236  -15.1290   27.3714 C   0  0  0  0  0  0  0  0  0  0  0  0
   11.2122  -15.4006   26.0398 C   0  0  0  0  0  0  0  0  0  0  0  0
   10.9092  -16.7115   25.4382 C   0  0  2  0  0  0  0  0  0  0  0  0
    9.7390  -16.5940   24.5356 N   0  0  0  0  0  0  0  0  0  0  0  0
   10.7792  -17.8911   26.2753 C   0  0  0  0  0  0  0  0  0  0  0  0
    9.5333  -18.5554   26.3233 O   0  0  0  0  0  0  0  0  0  0  0  0
   11.6620  -18.3890   26.9670 O   0  0  0  0  0  0  0  0  0  0  0  0
  2  1  1  0
  3  2  2  0
  4  3  1  0
  5 11  1  0
  5  4  2  0
  6  7  1  0
  6  5  1  0
  7  8  1  1
  7  9  1  0
  9 10  2  0
 11 12  2  0
 12  2  1  0
 13  9  1  0
 13 14  1  0
 15 14  1  0
 16 15  1  0
 17 16  1  0
 17 13  1  0
 17 18  1  1
 18 19  2  0
 20 21  1  0
 22 23  1  0
 22 21  1  0
 24 23  1  1
 24 26  1  0
 24 25  1  0
 25 18  1  0
 26 27  1  0
 28 26  2  0
M  END
$$$$
