TEF.pdb
     RDKit          3D

 28 28  0  0  1  0  0  0  0  0999 V2000
   20.5627  -13.6209  -19.2739 C   0  0  0  0  0  0  0  0  0  0  0  0
   20.6256  -13.8537  -17.7906 C   0  0  1  0  0  0  0  0  0  0  0  0
   21.0567  -15.1521  -17.5402 O   0  0  0  0  0  0  0  0  0  0  0  0
   21.6614  -12.9125  -17.2022 C   0  0  2  0  0  0  0  0  0  0  0  0
   22.0453  -13.3031  -15.8767 N   0  0  0  0  0  0  0  0  0  0  0  0
   21.1733  -11.4956  -17.2385 C   0  0  0  0  0  0  0  0  0  0  0  0
   20.9240  -10.9137  -18.3266 O   0  0  0  0  0  0  0  0  0  0  0  0
   20.9712  -10.7492  -16.0467 N   0  0  0  0  0  0  0  0  0  0  0  0
   20.3774   -9.4181  -16.1059 C   0  0  1  0  0  0  0  0  0  0  0  0
   19.2418   -9.2587  -15.1574 C   0  0  0  0  0  0  0  0  0  0  0  0
   18.6007   -7.9009  -15.2034 C   0  0  0  0  0  0  0  0  0  0  0  0
   17.4732   -7.7257  -14.2760 C   0  0  0  0  0  0  0  0  0  0  0  0
   17.2882   -6.7283  -13.5436 O   0  0  0  0  0  0  0  0  0  0  0  0
   21.4186   -8.4056  -15.6954 C   0  0  0  0  0  0  0  0  0  0  0  0
   22.2197   -8.6754  -14.7801 O   0  0  0  0  0  0  0  0  0  0  0  0
   16.5084   -8.7311  -14.1748 O   0  0  0  0  0  0  0  0  0  0  0  0
   21.5172   -7.1478  -16.3208 N   0  0  0  0  0  0  0  0  0  0  0  0
   22.5346   -6.1498  -16.0212 C   0  0  1  0  0  0  0  0  0  0  0  0
   23.2314   -5.6672  -17.2309 C   0  0  0  0  0  0  0  0  0  0  0  0
   24.1908   -4.5906  -16.8894 C   0  0  0  0  0  0  0  0  0  0  0  0
   25.5024   -4.9261  -16.5605 C   0  0  0  0  0  0  0  0  0  0  0  0
   26.4431   -3.9774  -16.2582 C   0  0  0  0  0  0  0  0  0  0  0  0
   26.0843   -2.6488  -16.2789 C   0  0  0  0  0  0  0  0  0  0  0  0
   24.7945   -2.3031  -16.6014 C   0  0  0  0  0  0  0  0  0  0  0  0
   23.8599   -3.2605  -16.9028 C   0  0  0  0  0  0  0  0  0  0  0  0
   21.9160   -5.0865  -15.2438 C   0  0  0  0  0  0  0  0  0  0  0  0
   22.5078   -4.5032  -14.1414 O   0  0  0  0  0  0  0  0  0  0  0  0
   20.7632   -4.6217  -15.5406 O   0  0  0  0  0  0  0  0  0  0  0  0
  2  4  1  0
  2  1  1  6
  2  3  1  0
  4  5  1  1
  6  4  1  0
  6  8  1  0
  7  6  2  0
  9  8  1  0
  9 10  1  1
 11 10  1  0
 12 11  1  0
 13 12  2  0
 14  9  1  0
 15 14  2  0
 16 12  1  0
 17 14  1  0
 18 17  1  0
 18 26  1  0
 19 20  1  0
 18 19  1  6
 20 25  2  0
 21 22  2  0
 21 20  1  0
 22 23  1  0
 23 24  2  0
 25 24  1  0
 26 27  1  0
 28 26  2  0
M  END
$$$$
