TEF.pdb
     RDKit          3D

 28 28  0  0  1  0  0  0  0  0999 V2000
   25.1379  -11.5830  -15.6734 C   0  0  0  0  0  0  0  0  0  0  0  0
   25.4371  -11.8862  -17.1145 C   0  0  1  0  0  0  0  0  0  0  0  0
   26.2750  -12.9935  -17.1937 O   0  0  0  0  0  0  0  0  0  0  0  0
   24.1365  -12.2537  -17.8061 C   0  0  2  0  0  0  0  0  0  0  0  0
   24.3590  -12.7424  -19.1359 N   0  0  0  0  0  0  0  0  0  0  0  0
   23.1848  -11.0954  -17.7978 C   0  0  0  0  0  0  0  0  0  0  0  0
   23.4000  -10.0626  -18.4847 O   0  0  0  0  0  0  0  0  0  0  0  0
   21.9997  -11.1140  -17.0147 N   0  0  0  0  0  0  0  0  0  0  0  0
   21.1155   -9.9538  -16.9934 C   0  0  1  0  0  0  0  0  0  0  0  0
   19.6789  -10.3342  -16.9154 C   0  0  0  0  0  0  0  0  0  0  0  0
   19.3652  -11.6509  -17.5672 C   0  0  0  0  0  0  0  0  0  0  0  0
   18.8009  -12.6622  -16.6612 C   0  0  0  0  0  0  0  0  0  0  0  0
   19.3509  -13.7426  -16.3518 O   0  0  0  0  0  0  0  0  0  0  0  0
   21.4085   -9.1454  -15.7531 C   0  0  0  0  0  0  0  0  0  0  0  0
   21.6514   -9.7252  -14.6775 O   0  0  0  0  0  0  0  0  0  0  0  0
   17.5517  -12.4367  -16.0777 O   0  0  0  0  0  0  0  0  0  0  0  0
   21.4168   -7.7373  -15.7702 N   0  0  0  0  0  0  0  0  0  0  0  0
   21.7999   -6.8963  -14.6448 C   0  0  1  0  0  0  0  0  0  0  0  0
   23.1718   -7.1707  -14.1708 C   0  0  0  0  0  0  0  0  0  0  0  0
   24.1643   -6.8529  -15.2244 C   0  0  0  0  0  0  0  0  0  0  0  0
   24.8076   -7.8938  -15.8906 C   0  0  0  0  0  0  0  0  0  0  0  0
   25.7172   -7.6675  -16.8894 C   0  0  0  0  0  0  0  0  0  0  0  0
   26.0075   -6.3710  -17.2490 C   0  0  0  0  0  0  0  0  0  0  0  0
   25.3809   -5.3346  -16.6008 C   0  0  0  0  0  0  0  0  0  0  0  0
   24.4714   -5.5715  -15.6020 C   0  0  0  0  0  0  0  0  0  0  0  0
   21.5812   -5.5069  -15.0181 C   0  0  0  0  0  0  0  0  0  0  0  0
   21.7264   -4.4491  -14.1429 O   0  0  0  0  0  0  0  0  0  0  0  0
   21.2323   -5.1770  -16.2024 O   0  0  0  0  0  0  0  0  0  0  0  0
  2  4  1  0
  2  1  1  1
  2  3  1  0
  4  5  1  6
  6  4  1  0
  6  8  1  0
  7  6  2  0
  9  8  1  0
  9 10  1  1
 11 10  1  0
 12 11  1  0
 13 12  2  0
 14  9  1  0
 15 14  2  0
 16 12  1  0
 17 14  1  0
 18 17  1  0
 18 26  1  0
 19 20  1  0
 18 19  1  6
 20 25  2  0
 21 22  2  0
 21 20  1  0
 22 23  1  0
 23 24  2  0
 25 24  1  0
 26 27  1  0
 28 26  2  0
M  END
$$$$
