TEF.pdb
     RDKit          3D

 28 28  0  0  1  0  0  0  0  0999 V2000
   17.4436   -8.5894  -16.6810 C   0  0  0  0  0  0  0  0  0  0  0  0
   17.4305   -9.8952  -15.9373 C   0  0  1  0  0  0  0  0  0  0  0  0
   16.3127  -10.6335  -16.3111 O   0  0  0  0  0  0  0  0  0  0  0  0
   18.6560  -10.6918  -16.3480 C   0  0  2  0  0  0  0  0  0  0  0  0
   18.6215  -12.0286  -15.8297 N   0  0  0  0  0  0  0  0  0  0  0  0
   19.9121   -9.9786  -15.9470 C   0  0  0  0  0  0  0  0  0  0  0  0
   20.4104  -10.1192  -14.7995 O   0  0  0  0  0  0  0  0  0  0  0  0
   20.5937   -9.1139  -16.8447 N   0  0  0  0  0  0  0  0  0  0  0  0
   21.8249   -8.4493  -16.4316 C   0  0  1  0  0  0  0  0  0  0  0  0
   22.9466   -8.6884  -17.3799 C   0  0  0  0  0  0  0  0  0  0  0  0
   24.2221   -7.9935  -16.9963 C   0  0  0  0  0  0  0  0  0  0  0  0
   25.3579   -8.2640  -17.8900 C   0  0  0  0  0  0  0  0  0  0  0  0
   25.3036   -8.9336  -18.9455 O   0  0  0  0  0  0  0  0  0  0  0  0
   21.5893   -6.9586  -16.4202 C   0  0  0  0  0  0  0  0  0  0  0  0
   21.4045   -6.3513  -17.4922 O   0  0  0  0  0  0  0  0  0  0  0  0
   26.6170   -7.7496  -17.5705 O   0  0  0  0  0  0  0  0  0  0  0  0
   21.5707   -6.2198  -15.2215 N   0  0  0  0  0  0  0  0  0  0  0  0
   21.4375   -4.7718  -15.1416 C   0  0  1  0  0  0  0  0  0  0  0  0
   20.0340   -4.3373  -14.9895 C   0  0  0  0  0  0  0  0  0  0  0  0
   19.3155   -4.4219  -16.2829 C   0  0  0  0  0  0  0  0  0  0  0  0
   19.6707   -3.5587  -17.3171 C   0  0  0  0  0  0  0  0  0  0  0  0
   19.0617   -3.6017  -18.5434 C   0  0  0  0  0  0  0  0  0  0  0  0
   18.0664   -4.5263  -18.7643 C   0  0  0  0  0  0  0  0  0  0  0  0
   17.7058   -5.3839  -17.7536 C   0  0  0  0  0  0  0  0  0  0  0  0
   18.3215   -5.3331  -16.5293 C   0  0  0  0  0  0  0  0  0  0  0  0
   22.3126   -4.2907  -14.0831 C   0  0  0  0  0  0  0  0  0  0  0  0
   22.4491   -2.9574  -13.7521 O   0  0  0  0  0  0  0  0  0  0  0  0
   23.0231   -5.0907  -13.3842 O   0  0  0  0  0  0  0  0  0  0  0  0
  2  4  1  0
  2  1  1  6
  2  3  1  0
  4  5  1  1
  6  4  1  0
  6  8  1  0
  7  6  2  0
  9  8  1  0
  9 10  1  6
 11 10  1  0
 12 11  1  0
 13 12  2  0
 14  9  1  0
 15 14  2  0
 16 12  1  0
 17 14  1  0
 18 17  1  0
 18 26  1  0
 19 20  1  0
 18 19  1  1
 20 25  2  0
 21 22  2  0
 21 20  1  0
 22 23  1  0
 23 24  2  0
 25 24  1  0
 26 27  1  0
 28 26  2  0
M  END
$$$$
