TEF.pdb
     RDKit          3D

 28 28  0  0  1  0  0  0  0  0999 V2000
   28.3222  -25.8501  -17.9739 C   0  0  0  0  0  0  0  0  0  0  0  0
   27.4011  -24.7652  -17.4915 C   0  0  1  0  0  0  0  0  0  0  0  0
   27.3334  -24.7945  -16.1026 O   0  0  0  0  0  0  0  0  0  0  0  0
   27.9932  -23.4242  -17.8866 C   0  0  2  0  0  0  0  0  0  0  0  0
   29.3534  -23.2925  -17.4513 N   0  0  0  0  0  0  0  0  0  0  0  0
   27.1424  -22.2982  -17.3812 C   0  0  0  0  0  0  0  0  0  0  0  0
   27.5908  -21.4497  -16.5664 O   0  0  0  0  0  0  0  0  0  0  0  0
   25.7941  -22.1405  -17.8001 N   0  0  0  0  0  0  0  0  0  0  0  0
   24.9989  -21.0205  -17.3088 C   0  0  1  0  0  0  0  0  0  0  0  0
   23.7812  -20.7831  -18.1307 C   0  0  0  0  0  0  0  0  0  0  0  0
   22.9176  -19.6633  -17.6237 C   0  0  0  0  0  0  0  0  0  0  0  0
   21.7205  -19.3991  -18.4357 C   0  0  0  0  0  0  0  0  0  0  0  0
   21.6917  -18.7044  -19.4759 O   0  0  0  0  0  0  0  0  0  0  0  0
   24.5147  -21.3452  -15.9167 C   0  0  0  0  0  0  0  0  0  0  0  0
   24.1372  -22.5010  -15.6449 O   0  0  0  0  0  0  0  0  0  0  0  0
   20.4963  -19.9500  -18.0486 O   0  0  0  0  0  0  0  0  0  0  0  0
   24.4747  -20.3722  -14.8995 N   0  0  0  0  0  0  0  0  0  0  0  0
   24.1335  -20.6392  -13.5092 C   0  0  1  0  0  0  0  0  0  0  0  0
   24.7241  -19.6548  -12.5796 C   0  0  0  0  0  0  0  0  0  0  0  0
   24.3831  -19.9880  -11.1764 C   0  0  0  0  0  0  0  0  0  0  0  0
   23.0952  -19.7342  -10.7097 C   0  0  0  0  0  0  0  0  0  0  0  0
   22.7101  -20.0403   -9.4313 C   0  0  0  0  0  0  0  0  0  0  0  0
   23.6225  -20.6173   -8.5775 C   0  0  0  0  0  0  0  0  0  0  0  0
   24.8961  -20.8735   -9.0241 C   0  0  0  0  0  0  0  0  0  0  0  0
   25.2720  -20.5634  -10.3060 C   0  0  0  0  0  0  0  0  0  0  0  0
   22.6855  -20.7401  -13.4058 C   0  0  0  0  0  0  0  0  0  0  0  0
   21.8115  -19.9947  -14.1715 O   0  0  0  0  0  0  0  0  0  0  0  0
   22.1257  -21.5397  -12.5809 O   0  0  0  0  0  0  0  0  0  0  0  0
  2  4  1  0
  2  1  1  1
  2  3  1  0
  4  5  1  1
  6  4  1  0
  6  8  1  0
  7  6  2  0
  9  8  1  0
  9 10  1  6
 11 10  1  0
 12 11  1  0
 13 12  2  0
 14  9  1  0
 15 14  2  0
 16 12  1  0
 17 14  1  0
 18 17  1  0
 18 26  1  0
 19 20  1  0
 18 19  1  1
 20 25  2  0
 21 22  2  0
 21 20  1  0
 22 23  1  0
 23 24  2  0
 25 24  1  0
 26 27  1  0
 28 26  2  0
M  END
$$$$
