TEF.pdb
     RDKit          3D

 28 28  0  0  1  0  0  0  0  0999 V2000
   35.4068  -25.0246  -17.0919 C   0  0  0  0  0  0  0  0  0  0  0  0
   33.9172  -25.2116  -17.0258 C   0  0  1  0  0  0  0  0  0  0  0  0
   33.6039  -26.5462  -17.2605 O   0  0  0  0  0  0  0  0  0  0  0  0
   33.4555  -24.8802  -15.6180 C   0  0  2  0  0  0  0  0  0  0  0  0
   34.0314  -25.7636  -14.6459 N   0  0  0  0  0  0  0  0  0  0  0  0
   31.9586  -24.8742  -15.5373 C   0  0  0  0  0  0  0  0  0  0  0  0
   31.3377  -25.6664  -14.7811 O   0  0  0  0  0  0  0  0  0  0  0  0
   31.1771  -23.9747  -16.3107 N   0  0  0  0  0  0  0  0  0  0  0  0
   29.7344  -23.8955  -16.1093 C   0  0  1  0  0  0  0  0  0  0  0  0
   29.1717  -22.5841  -16.5316 C   0  0  0  0  0  0  0  0  0  0  0  0
   27.7018  -22.4395  -16.2572 C   0  0  0  0  0  0  0  0  0  0  0  0
   27.1188  -21.1664  -16.7057 C   0  0  0  0  0  0  0  0  0  0  0  0
   27.5419  -20.0297  -16.3984 O   0  0  0  0  0  0  0  0  0  0  0  0
   29.0680  -24.9405  -16.9705 C   0  0  0  0  0  0  0  0  0  0  0  0
   29.4158  -25.0791  -18.1588 O   0  0  0  0  0  0  0  0  0  0  0  0
   26.0012  -21.1837  -17.5439 O   0  0  0  0  0  0  0  0  0  0  0  0
   28.0516  -25.7765  -16.4696 N   0  0  0  0  0  0  0  0  0  0  0  0
   27.3344  -26.7719  -17.2541 C   0  0  1  0  0  0  0  0  0  0  0  0
   27.0302  -27.9937  -16.4816 C   0  0  0  0  0  0  0  0  0  0  0  0
   26.2423  -28.9476  -17.2973 C   0  0  0  0  0  0  0  0  0  0  0  0
   24.8530  -28.8449  -17.3132 C   0  0  0  0  0  0  0  0  0  0  0  0
   24.0693  -29.6804  -18.0642 C   0  0  0  0  0  0  0  0  0  0  0  0
   24.6705  -30.6541  -18.8290 C   0  0  0  0  0  0  0  0  0  0  0  0
   26.0396  -30.7671  -18.8231 C   0  0  0  0  0  0  0  0  0  0  0  0
   26.8156  -29.9257  -18.0679 C   0  0  0  0  0  0  0  0  0  0  0  0
   26.1564  -26.1389  -17.8278 C   0  0  0  0  0  0  0  0  0  0  0  0
   25.7075  -26.3814  -19.1105 O   0  0  0  0  0  0  0  0  0  0  0  0
   25.4545  -25.3015  -17.1649 O   0  0  0  0  0  0  0  0  0  0  0  0
  2  4  1  0
  2  1  1  1
  2  3  1  0
  4  5  1  1
  6  4  1  0
  6  8  1  0
  7  6  2  0
  9  8  1  0
  9 10  1  6
 11 10  1  0
 12 11  1  0
 13 12  2  0
 14  9  1  0
 15 14  2  0
 16 12  1  0
 17 14  1  0
 18 17  1  0
 18 26  1  0
 19 20  1  0
 18 19  1  1
 20 25  2  0
 21 22  2  0
 21 20  1  0
 22 23  1  0
 23 24  2  0
 25 24  1  0
 26 27  1  0
 28 26  2  0
M  END
$$$$
