TEF.pdb
     RDKit          3D

 28 28  0  0  1  0  0  0  0  0999 V2000
   26.6216  -26.7814  -17.4070 C   0  0  0  0  0  0  0  0  0  0  0  0
   25.7657  -25.6013  -17.0424 C   0  0  1  0  0  0  0  0  0  0  0  0
   25.7092  -25.4761  -15.6584 O   0  0  0  0  0  0  0  0  0  0  0  0
   26.4265  -24.3459  -17.5829 C   0  0  2  0  0  0  0  0  0  0  0  0
   27.7910  -24.2349  -17.1554 N   0  0  0  0  0  0  0  0  0  0  0  0
   25.6339  -23.1278  -17.2148 C   0  0  0  0  0  0  0  0  0  0  0  0
   26.1743  -22.1339  -16.6625 O   0  0  0  0  0  0  0  0  0  0  0  0
   24.2397  -23.0431  -17.4735 N   0  0  0  0  0  0  0  0  0  0  0  0
   23.5108  -21.8153  -17.1746 C   0  0  1  0  0  0  0  0  0  0  0  0
   22.3409  -21.6149  -18.0723 C   0  0  0  0  0  0  0  0  0  0  0  0
   22.2238  -20.2176  -18.6114 C   0  0  0  0  0  0  0  0  0  0  0  0
   21.8702  -19.2030  -17.6077 C   0  0  0  0  0  0  0  0  0  0  0  0
   22.6826  -18.6038  -16.8685 O   0  0  0  0  0  0  0  0  0  0  0  0
   22.9590  -21.9096  -15.7730 C   0  0  0  0  0  0  0  0  0  0  0  0
   22.6737  -23.0229  -15.2920 O   0  0  0  0  0  0  0  0  0  0  0  0
   20.5294  -18.8509  -17.4341 O   0  0  0  0  0  0  0  0  0  0  0  0
   22.7527  -20.7654  -14.9785 N   0  0  0  0  0  0  0  0  0  0  0  0
   22.4082  -20.7889  -13.5638 C   0  0  1  0  0  0  0  0  0  0  0  0
   23.1218  -19.7545  -12.7874 C   0  0  0  0  0  0  0  0  0  0  0  0
   22.7606  -19.8333  -11.3523 C   0  0  0  0  0  0  0  0  0  0  0  0
   21.5451  -19.3027  -10.9257 C   0  0  0  0  0  0  0  0  0  0  0  0
   21.1423  -19.3642   -9.6179 C   0  0  0  0  0  0  0  0  0  0  0  0
   21.9625  -19.9690   -8.6927 C   0  0  0  0  0  0  0  0  0  0  0  0
   23.1640  -20.4967   -9.0991 C   0  0  0  0  0  0  0  0  0  0  0  0
   23.5584  -20.4302  -10.4109 C   0  0  0  0  0  0  0  0  0  0  0  0
   20.9600  -20.7085  -13.4453 C   0  0  0  0  0  0  0  0  0  0  0  0
   20.2333  -21.3880  -12.4883 O   0  0  0  0  0  0  0  0  0  0  0  0
   20.2606  -19.9907  -14.2383 O   0  0  0  0  0  0  0  0  0  0  0  0
  2  4  1  0
  2  1  1  1
  2  3  1  0
  4  5  1  1
  6  4  1  0
  6  8  1  0
  7  6  2  0
  9  8  1  0
  9 10  1  6
 11 10  1  0
 12 11  1  0
 13 12  2  0
 14  9  1  0
 15 14  2  0
 16 12  1  0
 17 14  1  0
 18 17  1  0
 18 26  1  0
 19 20  1  0
 18 19  1  1
 20 25  2  0
 21 22  2  0
 21 20  1  0
 22 23  1  0
 23 24  2  0
 25 24  1  0
 26 27  1  0
 28 26  2  0
M  END
$$$$
