TEF.pdb
     RDKit          3D

 28 28  0  0  1  0  0  0  0  0999 V2000
   24.2356  -26.1109  -16.3798 C   0  0  0  0  0  0  0  0  0  0  0  0
   25.7354  -26.1973  -16.3436 C   0  0  1  0  0  0  0  0  0  0  0  0
   26.1400  -27.4598  -16.7639 O   0  0  0  0  0  0  0  0  0  0  0  0
   26.2965  -25.1909  -17.3321 C   0  0  2  0  0  0  0  0  0  0  0  0
   27.7290  -25.2372  -17.3855 N   0  0  0  0  0  0  0  0  0  0  0  0
   25.8020  -23.8099  -17.0226 C   0  0  0  0  0  0  0  0  0  0  0  0
   26.5396  -22.9576  -16.4619 O   0  0  0  0  0  0  0  0  0  0  0  0
   24.4802  -23.4042  -17.3489 N   0  0  0  0  0  0  0  0  0  0  0  0
   24.0204  -22.0612  -17.0127 C   0  0  1  0  0  0  0  0  0  0  0  0
   22.9088  -21.6038  -17.8900 C   0  0  0  0  0  0  0  0  0  0  0  0
   22.4160  -20.2209  -17.5714 C   0  0  0  0  0  0  0  0  0  0  0  0
   21.3194  -19.7499  -18.4302 C   0  0  0  0  0  0  0  0  0  0  0  0
   20.4031  -18.9763  -18.0733 O   0  0  0  0  0  0  0  0  0  0  0  0
   23.4728  -22.0756  -15.6063 C   0  0  0  0  0  0  0  0  0  0  0  0
   22.9065  -23.0966  -15.1714 O   0  0  0  0  0  0  0  0  0  0  0  0
   21.2593  -20.1775  -19.7589 O   0  0  0  0  0  0  0  0  0  0  0  0
   23.5818  -20.9582  -14.7564 N   0  0  0  0  0  0  0  0  0  0  0  0
   23.2648  -20.9630  -13.3351 C   0  0  1  0  0  0  0  0  0  0  0  0
   24.2007  -20.1412  -12.5409 C   0  0  0  0  0  0  0  0  0  0  0  0
   23.8715  -20.2177  -11.0980 C   0  0  0  0  0  0  0  0  0  0  0  0
   24.7814  -20.8057  -10.2220 C   0  0  0  0  0  0  0  0  0  0  0  0
   24.5474  -20.8866   -8.8747 C   0  0  0  0  0  0  0  0  0  0  0  0
   23.3766  -20.3715   -8.3666 C   0  0  0  0  0  0  0  0  0  0  0  0
   22.4701  -19.7887   -9.2186 C   0  0  0  0  0  0  0  0  0  0  0  0
   22.7136  -19.7124  -10.5661 C   0  0  0  0  0  0  0  0  0  0  0  0
   21.8716  -20.5738  -13.1768 C   0  0  0  0  0  0  0  0  0  0  0  0
   21.0110  -21.1664  -12.2746 O   0  0  0  0  0  0  0  0  0  0  0  0
   21.3510  -19.6423  -13.8800 O   0  0  0  0  0  0  0  0  0  0  0  0
  2  4  1  0
  2  1  1  6
  2  3  1  0
  4  5  1  1
  6  4  1  0
  6  8  1  0
  7  6  2  0
  9  8  1  0
  9 10  1  6
 11 10  1  0
 12 11  1  0
 13 12  2  0
 14  9  1  0
 15 14  2  0
 16 12  1  0
 17 14  1  0
 18 17  1  0
 18 26  1  0
 19 20  1  0
 18 19  1  1
 20 25  2  0
 21 22  2  0
 21 20  1  0
 22 23  1  0
 23 24  2  0
 25 24  1  0
 26 27  1  0
 28 26  2  0
M  END
$$$$
