TEF.pdb
     RDKit          3D

 28 28  0  0  1  0  0  0  0  0999 V2000
   14.7096  -18.1897    3.4234 C   0  0  0  0  0  0  0  0  0  0  0  0
   14.1022  -16.8154    3.4012 C   0  0  1  0  0  0  0  0  0  0  0  0
   13.0638  -16.7795    2.4767 O   0  0  0  0  0  0  0  0  0  0  0  0
   13.5009  -16.5361    4.7669 C   0  0  2  0  0  0  0  0  0  0  0  0
   12.6798  -15.3602    4.7579 N   0  0  0  0  0  0  0  0  0  0  0  0
   14.5724  -16.4508    5.8119 C   0  0  0  0  0  0  0  0  0  0  0  0
   15.1357  -15.3595    6.0884 O   0  0  0  0  0  0  0  0  0  0  0  0
   14.9977  -17.5976    6.5344 N   0  0  0  0  0  0  0  0  0  0  0  0
   16.0731  -17.4908    7.5144 C   0  0  1  0  0  0  0  0  0  0  0  0
   15.8851  -18.4115    8.6683 C   0  0  0  0  0  0  0  0  0  0  0  0
   14.8166  -17.9697    9.6274 C   0  0  0  0  0  0  0  0  0  0  0  0
   14.6044  -18.8758   10.7657 C   0  0  0  0  0  0  0  0  0  0  0  0
   13.6835  -19.7179   10.8572 O   0  0  0  0  0  0  0  0  0  0  0  0
   17.3694  -17.8951    6.8556 C   0  0  0  0  0  0  0  0  0  0  0  0
   17.3838  -18.8375    6.0407 O   0  0  0  0  0  0  0  0  0  0  0  0
   15.4798  -18.8243   11.8533 O   0  0  0  0  0  0  0  0  0  0  0  0
   18.5809  -17.2339    7.1344 N   0  0  0  0  0  0  0  0  0  0  0  0
   19.8442  -17.4972    6.4594 C   0  0  1  0  0  0  0  0  0  0  0  0
   20.4306  -16.2830    5.8563 C   0  0  0  0  0  0  0  0  0  0  0  0
   19.5441  -15.7415    4.7994 C   0  0  0  0  0  0  0  0  0  0  0  0
   19.5852  -16.2999    3.5237 C   0  0  0  0  0  0  0  0  0  0  0  0
   18.7755  -15.8608    2.5099 C   0  0  0  0  0  0  0  0  0  0  0  0
   17.8915  -14.8349    2.7560 C   0  0  0  0  0  0  0  0  0  0  0  0
   17.8400  -14.2748    4.0092 C   0  0  0  0  0  0  0  0  0  0  0  0
   18.6548  -14.7215    5.0178 C   0  0  0  0  0  0  0  0  0  0  0  0
   20.7322  -18.1668    7.3978 C   0  0  0  0  0  0  0  0  0  0  0  0
   21.9407  -18.7285    7.0375 O   0  0  0  0  0  0  0  0  0  0  0  0
   20.4385  -18.2789    8.6365 O   0  0  0  0  0  0  0  0  0  0  0  0
  2  4  1  0
  2  1  1  1
  2  3  1  0
  4  5  1  6
  6  4  1  0
  6  8  1  0
  7  6  2  0
  9  8  1  0
  9 10  1  1
 11 10  1  0
 12 11  1  0
 13 12  2  0
 14  9  1  0
 15 14  2  0
 16 12  1  0
 17 14  1  0
 18 17  1  0
 18 26  1  0
 19 20  1  0
 18 19  1  1
 20 25  2  0
 21 22  2  0
 21 20  1  0
 22 23  1  0
 23 24  2  0
 25 24  1  0
 26 27  1  0
 28 26  2  0
M  END
$$$$
