TEF.pdb
     RDKit          3D

 28 28  0  0  1  0  0  0  0  0999 V2000
   23.7335  -15.0407  -16.0354 C   0  0  0  0  0  0  0  0  0  0  0  0
   23.4656  -13.6411  -16.5125 C   0  0  1  0  0  0  0  0  0  0  0  0
   24.3264  -13.3329  -17.5605 O   0  0  0  0  0  0  0  0  0  0  0  0
   22.0503  -13.5847  -17.0590 C   0  0  2  0  0  0  0  0  0  0  0  0
   21.9042  -14.3787  -18.2444 N   0  0  0  0  0  0  0  0  0  0  0  0
   21.6269  -12.1656  -17.2919 C   0  0  0  0  0  0  0  0  0  0  0  0
   21.7904  -11.6052  -18.4072 O   0  0  0  0  0  0  0  0  0  0  0  0
   21.0232  -11.3928  -16.2640 N   0  0  0  0  0  0  0  0  0  0  0  0
   20.6432  -10.0068  -16.5145 C   0  0  1  0  0  0  0  0  0  0  0  0
   19.1893   -9.7684  -16.3048 C   0  0  0  0  0  0  0  0  0  0  0  0
   18.3112  -10.4666  -17.3039 C   0  0  0  0  0  0  0  0  0  0  0  0
   16.9161  -10.6421  -16.8738 C   0  0  0  0  0  0  0  0  0  0  0  0
   16.4793  -11.6127  -16.2160 O   0  0  0  0  0  0  0  0  0  0  0  0
   21.3651   -9.1218  -15.5279 C   0  0  0  0  0  0  0  0  0  0  0  0
   21.3226   -9.3855  -14.3110 O   0  0  0  0  0  0  0  0  0  0  0  0
   15.9704   -9.6690  -17.2063 O   0  0  0  0  0  0  0  0  0  0  0  0
   22.0958   -7.9915  -15.9418 N   0  0  0  0  0  0  0  0  0  0  0  0
   22.8674   -7.1320  -15.0548 C   0  0  1  0  0  0  0  0  0  0  0  0
   24.2568   -6.9383  -15.5174 C   0  0  0  0  0  0  0  0  0  0  0  0
   24.9813   -8.2305  -15.5577 C   0  0  0  0  0  0  0  0  0  0  0  0
   25.8556   -8.4887  -16.6112 C   0  0  0  0  0  0  0  0  0  0  0  0
   26.5722   -9.6531  -16.6944 C   0  0  0  0  0  0  0  0  0  0  0  0
   26.4263  -10.6008  -15.7070 C   0  0  0  0  0  0  0  0  0  0  0  0
   25.5678  -10.3598  -14.6621 C   0  0  0  0  0  0  0  0  0  0  0  0
   24.8546   -9.1907  -14.5877 C   0  0  0  0  0  0  0  0  0  0  0  0
   22.1358   -5.8869  -14.8755 C   0  0  0  0  0  0  0  0  0  0  0  0
   22.4054   -4.9809  -13.8693 O   0  0  0  0  0  0  0  0  0  0  0  0
   21.1790   -5.5526  -15.6539 O   0  0  0  0  0  0  0  0  0  0  0  0
  2  4  1  0
  2  1  1  6
  2  3  1  0
  4  5  1  6
  6  4  1  0
  6  8  1  0
  7  6  2  0
  9  8  1  0
  9 10  1  1
 11 10  1  0
 12 11  1  0
 13 12  2  0
 14  9  1  0
 15 14  2  0
 16 12  1  0
 17 14  1  0
 18 17  1  0
 18 26  1  0
 19 20  1  0
 18 19  1  6
 20 25  2  0
 21 22  2  0
 21 20  1  0
 22 23  1  0
 23 24  2  0
 25 24  1  0
 26 27  1  0
 28 26  2  0
M  END
$$$$
