TEF.pdb
     RDKit          3D

 28 28  0  0  1  0  0  0  0  0999 V2000
   29.0187  -21.9206  -15.9950 C   0  0  0  0  0  0  0  0  0  0  0  0
   28.2056  -21.6338  -14.7642 C   0  0  1  0  0  0  0  0  0  0  0  0
   29.0411  -21.1813  -13.7485 O   0  0  0  0  0  0  0  0  0  0  0  0
   27.2340  -20.5118  -15.0834 C   0  0  2  0  0  0  0  0  0  0  0  0
   27.8989  -19.3770  -15.6554 N   0  0  0  0  0  0  0  0  0  0  0  0
   26.4440  -20.1312  -13.8675 C   0  0  0  0  0  0  0  0  0  0  0  0
   26.5873  -19.0092  -13.3149 O   0  0  0  0  0  0  0  0  0  0  0  0
   25.5000  -21.0203  -13.2873 N   0  0  0  0  0  0  0  0  0  0  0  0
   24.7227  -20.6085  -12.1236 C   0  0  1  0  0  0  0  0  0  0  0  0
   23.4077  -21.3006  -12.0435 C   0  0  0  0  0  0  0  0  0  0  0  0
   22.5033  -20.7601  -10.9726 C   0  0  0  0  0  0  0  0  0  0  0  0
   21.1840  -20.3213  -11.4510 C   0  0  0  0  0  0  0  0  0  0  0  0
   20.4169  -20.9948  -12.1745 O   0  0  0  0  0  0  0  0  0  0  0  0
   25.4805  -20.9914  -10.8758 C   0  0  0  0  0  0  0  0  0  0  0  0
   25.8274  -22.1749  -10.6991 O   0  0  0  0  0  0  0  0  0  0  0  0
   20.7119  -19.0567  -11.0909 O   0  0  0  0  0  0  0  0  0  0  0  0
   25.8140  -20.0427   -9.8901 N   0  0  0  0  0  0  0  0  0  0  0  0
   26.6136  -20.3231   -8.7057 C   0  0  1  0  0  0  0  0  0  0  0  0
   27.2658  -19.1149   -8.1607 C   0  0  0  0  0  0  0  0  0  0  0  0
   28.0472  -19.4436   -6.9452 C   0  0  0  0  0  0  0  0  0  0  0  0
   27.5141  -19.1488   -5.6923 C   0  0  0  0  0  0  0  0  0  0  0  0
   28.1751  -19.4482   -4.5305 C   0  0  0  0  0  0  0  0  0  0  0  0
   29.4060  -20.0601   -4.5995 C   0  0  0  0  0  0  0  0  0  0  0  0
   29.9441  -20.3568   -5.8282 C   0  0  0  0  0  0  0  0  0  0  0  0
   29.2744  -20.0530   -6.9857 C   0  0  0  0  0  0  0  0  0  0  0  0
   25.7726  -21.0148   -7.7404 C   0  0  0  0  0  0  0  0  0  0  0  0
   26.2428  -21.9768   -6.8690 O   0  0  0  0  0  0  0  0  0  0  0  0
   24.5223  -20.7692   -7.6419 O   0  0  0  0  0  0  0  0  0  0  0  0
  2  4  1  0
  2  1  1  6
  2  3  1  0
  4  5  1  1
  6  4  1  0
  6  8  1  0
  7  6  2  0
  9  8  1  0
  9 10  1  1
 11 10  1  0
 12 11  1  0
 13 12  2  0
 14  9  1  0
 15 14  2  0
 16 12  1  0
 17 14  1  0
 18 17  1  0
 18 26  1  0
 19 20  1  0
 18 19  1  1
 20 25  2  0
 21 22  2  0
 21 20  1  0
 22 23  1  0
 23 24  2  0
 25 24  1  0
 26 27  1  0
 28 26  2  0
M  END
$$$$
