NCW.pdb
     RDKit          3D

 29 30  0  0  1  0  0  0  0  0999 V2000
   14.6249  -18.1824   16.1518 N   0  0  0  0  0  0  0  0  0  0  0  0
   14.1251  -18.5940   17.4178 C   0  0  0  0  0  0  0  0  0  0  0  0
   14.4439  -19.7430   17.8158 O   0  0  0  0  0  0  0  0  0  0  0  0
   13.2701  -17.7721   18.2801 C   0  0  0  0  0  0  0  0  0  0  0  0
   11.9148  -18.3956   18.5267 C   0  0  2  0  0  0  0  0  0  0  0  0
   11.1811  -18.4383   17.2698 N   0  0  0  0  0  0  0  0  0  0  0  0
   11.1785  -17.4540   19.4296 C   0  0  0  0  0  0  0  0  0  0  0  0
   11.0703  -16.2186   19.1676 O   0  0  0  0  0  0  0  0  0  0  0  0
   10.5605  -17.8979   20.6309 N   0  0  0  0  0  0  0  0  0  0  0  0
    9.8751  -16.9395   21.5244 C   0  0  1  0  0  0  0  0  0  0  0  0
    8.4123  -17.3320   21.6306 C   0  0  0  0  0  0  0  0  0  0  0  0
    8.1970  -18.9929   22.2578 S   0  0  0  0  0  0  0  0  0  0  0  0
   10.5820  -16.8940   22.8038 C   0  0  0  0  0  0  0  0  0  0  0  0
   11.3215  -17.8904   23.1298 O   0  0  0  0  0  0  0  0  0  0  0  0
   10.5393  -15.8523   23.7353 N   0  0  0  0  0  0  0  0  0  0  0  0
    9.6024  -15.8540   24.8772 C   0  0  1  0  0  0  0  0  0  0  0  0
    8.2195  -15.7543   24.3350 C   0  0  0  0  0  0  0  0  0  0  0  0
    7.2797  -14.9386   25.1144 C   0  0  0  0  0  0  0  0  0  0  0  0
    6.1401  -15.4536   25.7412 C   0  0  0  0  0  0  0  0  0  0  0  0
    5.5225  -14.4584   26.3871 N   0  0  0  0  0  0  0  0  0  0  0  0
    6.1901  -13.3132   26.2218 C   0  0  0  0  0  0  0  0  0  0  0  0
    5.9347  -12.0505   26.6849 C   0  0  0  0  0  0  0  0  0  0  0  0
    6.8055  -11.0420   26.3429 C   0  0  0  0  0  0  0  0  0  0  0  0
    7.8941  -11.3211   25.5565 C   0  0  0  0  0  0  0  0  0  0  0  0
    8.1607  -12.5858   25.0859 C   0  0  0  0  0  0  0  0  0  0  0  0
    7.2846  -13.6088   25.4293 C   0  0  0  0  0  0  0  0  0  0  0  0
    9.8834  -16.9232   25.8270 C   0  0  0  0  0  0  0  0  0  0  0  0
   10.3837  -16.7593   27.1041 O   0  0  0  0  0  0  0  0  0  0  0  0
    9.6566  -18.1225   25.4613 O   0  0  0  0  0  0  0  0  0  0  0  0
  1  2  1  0
  2  4  1  0
  3  2  2  0
  4  5  1  0
  5  6  1  6
  7  8  2  0
  7  5  1  0
  9  7  1  0
 10 11  1  1
 10  9  1  0
 11 12  1  0
 13 10  1  0
 14 13  2  0
 15 13  1  0
 16 15  1  0
 16 17  1  6
 18 17  1  0
 19 18  2  0
 20 19  1  0
 21 20  1  0
 21 26  2  0
 22 23  2  0
 22 21  1  0
 23 24  1  0
 24 25  2  0
 26 25  1  0
 26 18  1  0
 27 16  1  0
 27 28  1  0
 29 27  2  0
M  END
$$$$
