NCW.pdb
     RDKit          3D

 29 30  0  0  1  0  0  0  0  0999 V2000
    9.2248  -15.0854   15.8060 N   0  0  0  0  0  0  0  0  0  0  0  0
    8.6310  -14.4721   16.9433 C   0  0  0  0  0  0  0  0  0  0  0  0
    8.5133  -13.2206   16.9257 O   0  0  0  0  0  0  0  0  0  0  0  0
    8.1522  -15.1988   18.1234 C   0  0  0  0  0  0  0  0  0  0  0  0
    8.5012  -16.6695   18.0873 C   0  0  2  0  0  0  0  0  0  0  0  0
    7.6459  -17.3321   17.1130 N   0  0  0  0  0  0  0  0  0  0  0  0
    8.1375  -17.2196   19.4323 C   0  0  0  0  0  0  0  0  0  0  0  0
    7.1114  -17.9429   19.6071 O   0  0  0  0  0  0  0  0  0  0  0  0
    8.9263  -16.9588   20.5863 N   0  0  0  0  0  0  0  0  0  0  0  0
    8.6486  -17.6538   21.8617 C   0  0  1  0  0  0  0  0  0  0  0  0
    8.7672  -19.1506   21.6374 C   0  0  0  0  0  0  0  0  0  0  0  0
   10.3559  -19.6136   20.9592 S   0  0  0  0  0  0  0  0  0  0  0  0
    9.5398  -17.1258   22.8940 C   0  0  0  0  0  0  0  0  0  0  0  0
   10.7710  -16.9245   22.5947 O   0  0  0  0  0  0  0  0  0  0  0  0
    9.1849  -16.8064   24.2081 N   0  0  0  0  0  0  0  0  0  0  0  0
   10.1641  -16.2883   25.1851 C   0  0  1  0  0  0  0  0  0  0  0  0
    9.8487  -14.8546   25.4330 C   0  0  0  0  0  0  0  0  0  0  0  0
    8.4461  -14.5478   25.7402 C   0  0  0  0  0  0  0  0  0  0  0  0
    7.4404  -15.5164   25.8251 C   0  0  0  0  0  0  0  0  0  0  0  0
    6.2921  -14.9113   26.1478 N   0  0  0  0  0  0  0  0  0  0  0  0
    6.4821  -13.5958   26.2806 C   0  0  0  0  0  0  0  0  0  0  0  0
    5.6075  -12.5894   26.5912 C   0  0  0  0  0  0  0  0  0  0  0  0
    6.0890  -11.3022   26.6501 C   0  0  0  0  0  0  0  0  0  0  0  0
    7.4157  -11.0602   26.3994 C   0  0  0  0  0  0  0  0  0  0  0  0
    8.3034  -12.0633   26.0867 C   0  0  0  0  0  0  0  0  0  0  0  0
    7.8223  -13.3661   26.0269 C   0  0  0  0  0  0  0  0  0  0  0  0
   10.3109  -17.1609   26.3432 C   0  0  0  0  0  0  0  0  0  0  0  0
    9.7005  -18.3884   26.5132 O   0  0  0  0  0  0  0  0  0  0  0  0
   11.0629  -16.7701   27.2946 O   0  0  0  0  0  0  0  0  0  0  0  0
  1  2  1  0
  2  4  1  0
  3  2  2  0
  4  5  1  0
  5  6  1  6
  7  8  2  0
  7  5  1  0
  9  7  1  0
 10 11  1  6
 10  9  1  0
 11 12  1  0
 13 10  1  0
 14 13  2  0
 15 13  1  0
 16 15  1  0
 16 17  1  1
 18 17  1  0
 19 18  2  0
 20 19  1  0
 21 20  1  0
 21 26  2  0
 22 23  2  0
 22 21  1  0
 23 24  1  0
 24 25  2  0
 26 25  1  0
 26 18  1  0
 27 16  1  0
 27 28  1  0
 29 27  2  0
M  END
$$$$
