NCW.pdb
     RDKit          3D

 29 30  0  0  1  0  0  0  0  0999 V2000
   11.1477  -20.7128   18.2430 N   0  0  0  0  0  0  0  0  0  0  0  0
   11.2546  -19.4074   17.6892 C   0  0  0  0  0  0  0  0  0  0  0  0
   11.6389  -19.3190   16.4955 O   0  0  0  0  0  0  0  0  0  0  0  0
   10.9484  -18.1703   18.4142 C   0  0  0  0  0  0  0  0  0  0  0  0
   10.5871  -18.4139   19.8621 C   0  0  2  0  0  0  0  0  0  0  0  0
    9.3291  -19.1449   19.9163 N   0  0  0  0  0  0  0  0  0  0  0  0
   10.3340  -17.0654   20.4634 C   0  0  0  0  0  0  0  0  0  0  0  0
   11.2042  -16.1443   20.4375 O   0  0  0  0  0  0  0  0  0  0  0  0
    9.1010  -16.7472   21.0962 N   0  0  0  0  0  0  0  0  0  0  0  0
    8.8805  -15.4097   21.6872 C   0  0  1  0  0  0  0  0  0  0  0  0
    7.4129  -15.0485   21.5429 C   0  0  0  0  0  0  0  0  0  0  0  0
    6.8675  -13.9002   22.8006 S   0  0  0  0  0  0  0  0  0  0  0  0
    9.3681  -15.4135   23.0659 C   0  0  0  0  0  0  0  0  0  0  0  0
    9.9234  -14.3503   23.5212 O   0  0  0  0  0  0  0  0  0  0  0  0
    9.2912  -16.4796   23.9671 N   0  0  0  0  0  0  0  0  0  0  0  0
   10.0159  -16.4775   25.2542 C   0  0  1  0  0  0  0  0  0  0  0  0
    9.0062  -16.4930   26.3481 C   0  0  0  0  0  0  0  0  0  0  0  0
    7.8107  -15.6684   26.1323 C   0  0  0  0  0  0  0  0  0  0  0  0
    6.5687  -16.1870   25.7511 C   0  0  0  0  0  0  0  0  0  0  0  0
    5.6927  -15.1795   25.6705 N   0  0  0  0  0  0  0  0  0  0  0  0
    6.2865  -14.0227   25.9765 C   0  0  0  0  0  0  0  0  0  0  0  0
    5.7950  -12.7458   26.0215 C   0  0  0  0  0  0  0  0  0  0  0  0
    6.6541  -11.7282   26.3662 C   0  0  0  0  0  0  0  0  0  0  0  0
    7.9649  -12.0126   26.6525 C   0  0  0  0  0  0  0  0  0  0  0  0
    8.4696  -13.2915   26.6109 C   0  0  0  0  0  0  0  0  0  0  0  0
    7.6057  -14.3237   26.2641 C   0  0  0  0  0  0  0  0  0  0  0  0
   11.0783  -17.4742   25.2971 C   0  0  0  0  0  0  0  0  0  0  0  0
   12.0335  -17.5957   26.2876 O   0  0  0  0  0  0  0  0  0  0  0  0
   11.1492  -18.3139   24.3413 O   0  0  0  0  0  0  0  0  0  0  0  0
  1  2  1  0
  2  4  1  0
  3  2  2  0
  4  5  1  0
  5  6  1  6
  7  8  2  0
  7  5  1  0
  9  7  1  0
 10 11  1  1
 10  9  1  0
 11 12  1  0
 13 10  1  0
 14 13  2  0
 15 13  1  0
 16 15  1  0
 16 17  1  1
 18 17  1  0
 19 18  2  0
 20 19  1  0
 21 20  1  0
 21 26  2  0
 22 23  2  0
 22 21  1  0
 23 24  1  0
 24 25  2  0
 26 25  1  0
 26 18  1  0
 27 16  1  0
 27 28  1  0
 29 27  2  0
M  END
$$$$
