NCW.pdb
     RDKit          3D

 29 30  0  0  1  0  0  0  0  0999 V2000
   10.8563  -18.2645   15.3012 N   0  0  0  0  0  0  0  0  0  0  0  0
   11.0413  -17.3021   16.3315 C   0  0  0  0  0  0  0  0  0  0  0  0
   12.0119  -16.5121   16.2127 O   0  0  0  0  0  0  0  0  0  0  0  0
   10.1809  -17.1735   17.5118 C   0  0  0  0  0  0  0  0  0  0  0  0
   10.8993  -17.5075   18.7996 C   0  0  2  0  0  0  0  0  0  0  0  0
   11.2082  -18.9302   18.8105 N   0  0  0  0  0  0  0  0  0  0  0  0
    9.9151  -17.2666   19.9030 C   0  0  0  0  0  0  0  0  0  0  0  0
    9.4004  -16.1265   20.1071 O   0  0  0  0  0  0  0  0  0  0  0  0
    9.5056  -18.3071   20.7815 N   0  0  0  0  0  0  0  0  0  0  0  0
    8.5908  -18.0253   21.9087 C   0  0  1  0  0  0  0  0  0  0  0  0
    7.7395  -19.2558   22.1654 C   0  0  0  0  0  0  0  0  0  0  0  0
    7.2392  -19.3925   23.8769 S   0  0  0  0  0  0  0  0  0  0  0  0
    9.3775  -17.5848   23.0600 C   0  0  0  0  0  0  0  0  0  0  0  0
   10.5747  -18.0279   23.1884 O   0  0  0  0  0  0  0  0  0  0  0  0
    8.9548  -16.7075   24.0632 N   0  0  0  0  0  0  0  0  0  0  0  0
    9.7968  -16.3829   25.2326 C   0  0  1  0  0  0  0  0  0  0  0  0
    9.5582  -14.9568   25.5868 C   0  0  0  0  0  0  0  0  0  0  0  0
    8.1525  -14.5414   25.6730 C   0  0  0  0  0  0  0  0  0  0  0  0
    7.0799  -15.4380   25.7224 C   0  0  0  0  0  0  0  0  0  0  0  0
    5.9445  -14.7389   25.8272 N   0  0  0  0  0  0  0  0  0  0  0  0
    6.2063  -13.4292   25.8492 C   0  0  0  0  0  0  0  0  0  0  0  0
    5.3710  -12.3482   25.9374 C   0  0  0  0  0  0  0  0  0  0  0  0
    5.9286  -11.0907   25.9280 C   0  0  0  0  0  0  0  0  0  0  0  0
    7.2897  -10.9511   25.8316 C   0  0  0  0  0  0  0  0  0  0  0  0
    8.1386  -12.0298   25.7429 C   0  0  0  0  0  0  0  0  0  0  0  0
    7.5805  -13.3028   25.7529 C   0  0  0  0  0  0  0  0  0  0  0  0
    9.6816  -17.3744   26.2946 C   0  0  0  0  0  0  0  0  0  0  0  0
   10.5567  -17.5323   27.3517 O   0  0  0  0  0  0  0  0  0  0  0  0
    8.6933  -18.1778   26.2577 O   0  0  0  0  0  0  0  0  0  0  0  0
  1  2  1  0
  2  4  1  0
  3  2  2  0
  4  5  1  0
  5  6  1  6
  7  8  2  0
  7  5  1  0
  9  7  1  0
 10 11  1  1
 10  9  1  0
 11 12  1  0
 13 10  1  0
 14 13  2  0
 15 13  1  0
 16 15  1  0
 16 17  1  1
 18 17  1  0
 19 18  2  0
 20 19  1  0
 21 20  1  0
 21 26  2  0
 22 23  2  0
 22 21  1  0
 23 24  1  0
 24 25  2  0
 26 25  1  0
 26 18  1  0
 27 16  1  0
 27 28  1  0
 29 27  2  0
M  END
$$$$
