NCW.pdb
     RDKit          3D

 29 30  0  0  1  0  0  0  0  0999 V2000
    8.1454  -12.3768   16.2516 N   0  0  0  0  0  0  0  0  0  0  0  0
    8.0745  -13.7912   16.3801 C   0  0  0  0  0  0  0  0  0  0  0  0
    8.2696  -14.4732   15.3423 O   0  0  0  0  0  0  0  0  0  0  0  0
    7.7911  -14.4979   17.6332 C   0  0  0  0  0  0  0  0  0  0  0  0
    9.0385  -14.7892   18.4365 C   0  0  2  0  0  0  0  0  0  0  0  0
    9.8551  -15.7480   17.7059 N   0  0  0  0  0  0  0  0  0  0  0  0
    8.5805  -15.4716   19.6889 C   0  0  0  0  0  0  0  0  0  0  0  0
    7.7608  -14.9284   20.4887 O   0  0  0  0  0  0  0  0  0  0  0  0
    9.0422  -16.7681   20.0470 N   0  0  0  0  0  0  0  0  0  0  0  0
    8.6523  -17.3771   21.3369 C   0  0  1  0  0  0  0  0  0  0  0  0
    8.7843  -18.8853   21.2239 C   0  0  0  0  0  0  0  0  0  0  0  0
   10.4774  -19.4035   20.9723 S   0  0  0  0  0  0  0  0  0  0  0  0
    9.4525  -16.7797   22.4052 C   0  0  0  0  0  0  0  0  0  0  0  0
   10.6275  -16.3494   22.1218 O   0  0  0  0  0  0  0  0  0  0  0  0
    9.0642  -16.6210   23.7389 N   0  0  0  0  0  0  0  0  0  0  0  0
   10.0143  -16.2110   24.7930 C   0  0  1  0  0  0  0  0  0  0  0  0
    9.7491  -14.7826   25.1180 C   0  0  0  0  0  0  0  0  0  0  0  0
    8.3597  -14.4457   25.4525 C   0  0  0  0  0  0  0  0  0  0  0  0
    7.3423  -15.3959   25.5899 C   0  0  0  0  0  0  0  0  0  0  0  0
    6.2119  -14.7645   25.9252 N   0  0  0  0  0  0  0  0  0  0  0  0
    6.4248  -13.4490   26.0167 C   0  0  0  0  0  0  0  0  0  0  0  0
    5.5737  -12.4210   26.3218 C   0  0  0  0  0  0  0  0  0  0  0  0
    6.0756  -11.1403   26.3327 C   0  0  0  0  0  0  0  0  0  0  0  0
    7.3987  -10.9259   26.0415 C   0  0  0  0  0  0  0  0  0  0  0  0
    8.2629  -11.9509   25.7339 C   0  0  0  0  0  0  0  0  0  0  0  0
    7.7612  -13.2471   25.7224 C   0  0  0  0  0  0  0  0  0  0  0  0
   10.0647  -17.1603   25.8977 C   0  0  0  0  0  0  0  0  0  0  0  0
   11.0104  -17.1800   26.9044 O   0  0  0  0  0  0  0  0  0  0  0  0
    9.1657  -18.0616   25.9528 O   0  0  0  0  0  0  0  0  0  0  0  0
  1  2  1  0
  2  4  1  0
  3  2  2  0
  4  5  1  0
  5  6  1  6
  7  8  2  0
  7  5  1  0
  9  7  1  0
 10 11  1  6
 10  9  1  0
 11 12  1  0
 13 10  1  0
 14 13  2  0
 15 13  1  0
 16 15  1  0
 16 17  1  1
 18 17  1  0
 19 18  2  0
 20 19  1  0
 21 20  1  0
 21 26  2  0
 22 23  2  0
 22 21  1  0
 23 24  1  0
 24 25  2  0
 26 25  1  0
 26 18  1  0
 27 16  1  0
 27 28  1  0
 29 27  2  0
M  END
$$$$
