NCW.pdb
     RDKit          3D

 29 30  0  0  1  0  0  0  0  0999 V2000
   13.0213  -18.9208   18.0199 N   0  0  0  0  0  0  0  0  0  0  0  0
   12.0813  -18.3162   17.1408 C   0  0  0  0  0  0  0  0  0  0  0  0
   12.4465  -18.1224   15.9536 O   0  0  0  0  0  0  0  0  0  0  0  0
   10.7267  -17.9083   17.5267 C   0  0  0  0  0  0  0  0  0  0  0  0
   10.4352  -18.1547   18.9897 C   0  0  2  0  0  0  0  0  0  0  0  0
    9.6627  -19.3824   19.1151 N   0  0  0  0  0  0  0  0  0  0  0  0
    9.5470  -17.0334   19.4346 C   0  0  0  0  0  0  0  0  0  0  0  0
    8.9935  -16.2468   18.6090 O   0  0  0  0  0  0  0  0  0  0  0  0
    9.2773  -16.7922   20.8098 N   0  0  0  0  0  0  0  0  0  0  0  0
    8.2402  -15.8190   21.2149 C   0  0  1  0  0  0  0  0  0  0  0  0
    6.8851  -16.3341   20.7639 C   0  0  0  0  0  0  0  0  0  0  0  0
    5.5361  -15.3440   21.3947 S   0  0  0  0  0  0  0  0  0  0  0  0
    8.3473  -15.5823   22.6540 C   0  0  0  0  0  0  0  0  0  0  0  0
    7.8230  -14.5166   23.1393 O   0  0  0  0  0  0  0  0  0  0  0  0
    8.9754  -16.4157   23.5843 N   0  0  0  0  0  0  0  0  0  0  0  0
   10.0840  -15.9468   24.4404 C   0  0  1  0  0  0  0  0  0  0  0  0
    9.5669  -15.8205   25.8308 C   0  0  0  0  0  0  0  0  0  0  0  0
    8.2447  -15.1979   25.9718 C   0  0  0  0  0  0  0  0  0  0  0  0
    7.0419  -15.9102   25.9191 C   0  0  0  0  0  0  0  0  0  0  0  0
    6.0315  -15.0551   26.1110 N   0  0  0  0  0  0  0  0  0  0  0  0
    6.4990  -13.8163   26.2871 C   0  0  0  0  0  0  0  0  0  0  0  0
    5.8461  -12.6332   26.5065 C   0  0  0  0  0  0  0  0  0  0  0  0
    6.5978  -11.4893   26.6439 C   0  0  0  0  0  0  0  0  0  0  0  0
    7.9649  -11.5597   26.5588 C   0  0  0  0  0  0  0  0  0  0  0  0
    8.6316  -12.7426   26.3390 C   0  0  0  0  0  0  0  0  0  0  0  0
    7.8769  -13.9017   26.2005 C   0  0  0  0  0  0  0  0  0  0  0  0
   11.3070  -16.7133   24.2382 C   0  0  0  0  0  0  0  0  0  0  0  0
   12.5482  -16.4086   24.7622 O   0  0  0  0  0  0  0  0  0  0  0  0
   11.2440  -17.7587   23.5125 O   0  0  0  0  0  0  0  0  0  0  0  0
  1  2  1  0
  2  4  1  0
  3  2  2  0
  4  5  1  0
  5  6  1  6
  7  8  2  0
  7  5  1  0
  9  7  1  0
 10 11  1  1
 10  9  1  0
 11 12  1  0
 13 10  1  0
 14 13  2  0
 15 13  1  0
 16 15  1  0
 16 17  1  1
 18 17  1  0
 19 18  2  0
 20 19  1  0
 21 20  1  0
 21 26  2  0
 22 23  2  0
 22 21  1  0
 23 24  1  0
 24 25  2  0
 26 25  1  0
 26 18  1  0
 27 16  1  0
 27 28  1  0
 29 27  2  0
M  END
$$$$
