NCW.pdb
     RDKit          3D

 29 30  0  0  1  0  0  0  0  0999 V2000
   14.8020  -19.4901   17.8917 N   0  0  0  0  0  0  0  0  0  0  0  0
   13.5243  -20.0554   18.1559 C   0  0  0  0  0  0  0  0  0  0  0  0
   13.4652  -21.3037   18.2927 O   0  0  0  0  0  0  0  0  0  0  0  0
   12.2837  -19.2833   18.2775 C   0  0  0  0  0  0  0  0  0  0  0  0
   11.8447  -19.1024   19.7130 C   0  0  2  0  0  0  0  0  0  0  0  0
   10.7716  -20.0440   19.9989 N   0  0  0  0  0  0  0  0  0  0  0  0
   11.2540  -17.7285   19.8005 C   0  0  0  0  0  0  0  0  0  0  0  0
   11.6350  -16.7842   19.0458 O   0  0  0  0  0  0  0  0  0  0  0  0
   10.2321  -17.4110   20.7371 N   0  0  0  0  0  0  0  0  0  0  0  0
    9.6405  -16.0563   20.7765 C   0  0  1  0  0  0  0  0  0  0  0  0
    8.1364  -16.1759   20.6078 C   0  0  0  0  0  0  0  0  0  0  0  0
    7.2735  -14.6988   21.1292 S   0  0  0  0  0  0  0  0  0  0  0  0
   10.0584  -15.3913   22.0099 C   0  0  0  0  0  0  0  0  0  0  0  0
   10.1391  -14.1108   22.0174 O   0  0  0  0  0  0  0  0  0  0  0  0
   10.3873  -16.0172   23.2161 N   0  0  0  0  0  0  0  0  0  0  0  0
    9.5920  -15.8256   24.4459 C   0  0  1  0  0  0  0  0  0  0  0  0
    8.1852  -15.5514   24.0433 C   0  0  0  0  0  0  0  0  0  0  0  0
    7.3541  -14.8608   25.0374 C   0  0  0  0  0  0  0  0  0  0  0  0
    6.3369  -15.4851   25.7670 C   0  0  0  0  0  0  0  0  0  0  0  0
    5.7991  -14.5887   26.6014 N   0  0  0  0  0  0  0  0  0  0  0  0
    6.4038  -13.4057   26.4640 C   0  0  0  0  0  0  0  0  0  0  0  0
    6.1891  -12.2093   27.0940 C   0  0  0  0  0  0  0  0  0  0  0  0
    6.9713  -11.1352   26.7378 C   0  0  0  0  0  0  0  0  0  0  0  0
    7.9344  -11.2856   25.7729 C   0  0  0  0  0  0  0  0  0  0  0  0
    8.1591  -12.4826   25.1336 C   0  0  0  0  0  0  0  0  0  0  0  0
    7.3723  -13.5715   25.4904 C   0  0  0  0  0  0  0  0  0  0  0  0
    9.8240  -16.8764   25.4289 C   0  0  0  0  0  0  0  0  0  0  0  0
   10.1082  -18.1986   25.1473 O   0  0  0  0  0  0  0  0  0  0  0  0
    9.7589  -16.5655   26.6629 O   0  0  0  0  0  0  0  0  0  0  0  0
  1  2  1  0
  2  4  1  0
  3  2  2  0
  4  5  1  0
  5  6  1  6
  7  8  2  0
  7  5  1  0
  9  7  1  0
 10 11  1  1
 10  9  1  0
 11 12  1  0
 13 10  1  0
 14 13  2  0
 15 13  1  0
 16 15  1  0
 16 17  1  6
 18 17  1  0
 19 18  2  0
 20 19  1  0
 21 20  1  0
 21 26  2  0
 22 23  2  0
 22 21  1  0
 23 24  1  0
 24 25  2  0
 26 25  1  0
 26 18  1  0
 27 16  1  0
 27 28  1  0
 29 27  2  0
M  END
$$$$
