NCW.pdb
     RDKit          3D

 29 30  0  0  1  0  0  0  0  0999 V2000
    8.3957  -12.2149   16.6349 N   0  0  0  0  0  0  0  0  0  0  0  0
    8.2113  -13.6247   16.6543 C   0  0  0  0  0  0  0  0  0  0  0  0
    8.3876  -14.2425   15.5738 O   0  0  0  0  0  0  0  0  0  0  0  0
    7.8324  -14.3963   17.8423 C   0  0  0  0  0  0  0  0  0  0  0  0
    9.0260  -14.8431   18.6558 C   0  0  2  0  0  0  0  0  0  0  0  0
    9.7660  -15.8408   17.8962 N   0  0  0  0  0  0  0  0  0  0  0  0
    8.4740  -15.5361   19.8638 C   0  0  0  0  0  0  0  0  0  0  0  0
    7.6858  -14.9561   20.6693 O   0  0  0  0  0  0  0  0  0  0  0  0
    8.8059  -16.8843   20.1708 N   0  0  0  0  0  0  0  0  0  0  0  0
    8.3741  -17.4949   21.4464 C   0  0  1  0  0  0  0  0  0  0  0  0
    8.3841  -19.0053   21.2923 C   0  0  0  0  0  0  0  0  0  0  0  0
    9.9519  -19.6175   20.6879 S   0  0  0  0  0  0  0  0  0  0  0  0
    9.2244  -16.9929   22.5251 C   0  0  0  0  0  0  0  0  0  0  0  0
   10.3970  -16.5638   22.2303 O   0  0  0  0  0  0  0  0  0  0  0  0
    8.8877  -16.9266   23.8804 N   0  0  0  0  0  0  0  0  0  0  0  0
    9.8504  -16.4877   24.9111 C   0  0  1  0  0  0  0  0  0  0  0  0
    9.6227  -15.0381   25.1625 C   0  0  0  0  0  0  0  0  0  0  0  0
    8.2615  -14.6602   25.5628 C   0  0  0  0  0  0  0  0  0  0  0  0
    7.2074  -15.5716   25.6855 C   0  0  0  0  0  0  0  0  0  0  0  0
    6.1181  -14.9111   26.0930 N   0  0  0  0  0  0  0  0  0  0  0  0
    6.3928  -13.6129   26.2461 C   0  0  0  0  0  0  0  0  0  0  0  0
    5.5993  -12.5672   26.6345 C   0  0  0  0  0  0  0  0  0  0  0  0
    6.1584  -11.3118   26.6953 C   0  0  0  0  0  0  0  0  0  0  0  0
    7.4795  -11.1392   26.3695 C   0  0  0  0  0  0  0  0  0  0  0  0
    8.2863  -12.1824   25.9783 C   0  0  0  0  0  0  0  0  0  0  0  0
    7.7267  -13.4532   25.9162 C   0  0  0  0  0  0  0  0  0  0  0  0
    9.8789  -17.3799   26.0631 C   0  0  0  0  0  0  0  0  0  0  0  0
   10.8011  -17.3441   27.0910 O   0  0  0  0  0  0  0  0  0  0  0  0
    8.9824  -18.2819   26.1429 O   0  0  0  0  0  0  0  0  0  0  0  0
  1  2  1  0
  2  4  1  0
  3  2  2  0
  4  5  1  0
  5  6  1  6
  7  8  2  0
  7  5  1  0
  9  7  1  0
 10 11  1  6
 10  9  1  0
 11 12  1  0
 13 10  1  0
 14 13  2  0
 15 13  1  0
 16 15  1  0
 16 17  1  1
 18 17  1  0
 19 18  2  0
 20 19  1  0
 21 20  1  0
 21 26  2  0
 22 23  2  0
 22 21  1  0
 23 24  1  0
 24 25  2  0
 26 25  1  0
 26 18  1  0
 27 16  1  0
 27 28  1  0
 29 27  2  0
M  END
$$$$
