NCW.pdb
     RDKit          3D

 29 30  0  0  1  0  0  0  0  0999 V2000
    2.4065  -19.1607   20.2524 N   0  0  0  0  0  0  0  0  0  0  0  0
    2.8046  -18.6257   21.5083 C   0  0  0  0  0  0  0  0  0  0  0  0
    2.0690  -18.8724   22.4975 O   0  0  0  0  0  0  0  0  0  0  0  0
    4.0061  -17.8126   21.7213 C   0  0  0  0  0  0  0  0  0  0  0  0
    4.7937  -17.5872   20.4504 C   0  0  2  0  0  0  0  0  0  0  0  0
    4.6094  -18.7344   19.5731 N   0  0  0  0  0  0  0  0  0  0  0  0
    6.2375  -17.5710   20.8495 C   0  0  0  0  0  0  0  0  0  0  0  0
    6.9072  -18.6377   20.9914 O   0  0  0  0  0  0  0  0  0  0  0  0
    6.9342  -16.3551   21.0905 N   0  0  0  0  0  0  0  0  0  0  0  0
    8.4034  -16.3490   21.2589 C   0  0  1  0  0  0  0  0  0  0  0  0
    9.0096  -15.4227   20.2199 C   0  0  0  0  0  0  0  0  0  0  0  0
    8.1062  -13.8869   20.0672 S   0  0  0  0  0  0  0  0  0  0  0  0
    8.7214  -15.9952   22.6417 C   0  0  0  0  0  0  0  0  0  0  0  0
    7.9950  -15.1171   23.2310 O   0  0  0  0  0  0  0  0  0  0  0  0
    9.7595  -16.5262   23.4130 N   0  0  0  0  0  0  0  0  0  0  0  0
   10.1291  -15.9670   24.7292 C   0  0  1  0  0  0  0  0  0  0  0  0
    9.0945  -16.3891   25.7129 C   0  0  0  0  0  0  0  0  0  0  0  0
    7.9314  -15.5026   25.8443 C   0  0  0  0  0  0  0  0  0  0  0  0
    6.6191  -15.8972   25.5633 C   0  0  0  0  0  0  0  0  0  0  0  0
    5.8020  -14.8680   25.8124 N   0  0  0  0  0  0  0  0  0  0  0  0
    6.5011  -13.8139   26.2420 C   0  0  0  0  0  0  0  0  0  0  0  0
    6.0978  -12.5575   26.6065 C   0  0  0  0  0  0  0  0  0  0  0  0
    7.0562  -11.6554   27.0064 C   0  0  0  0  0  0  0  0  0  0  0  0
    8.3753  -12.0304   27.0302 C   0  0  0  0  0  0  0  0  0  0  0  0
    8.7920  -13.2898   26.6665 C   0  0  0  0  0  0  0  0  0  0  0  0
    7.8276  -14.2057   26.2625 C   0  0  0  0  0  0  0  0  0  0  0  0
   11.5258  -16.2115   25.0663 C   0  0  0  0  0  0  0  0  0  0  0  0
   12.1696  -15.7781   26.2091 O   0  0  0  0  0  0  0  0  0  0  0  0
   12.2315  -16.8798   24.2423 O   0  0  0  0  0  0  0  0  0  0  0  0
  1  2  1  0
  2  4  1  0
  3  2  2  0
  4  5  1  0
  5  6  1  6
  7  8  2  0
  7  5  1  0
  9  7  1  0
 10 11  1  6
 10  9  1  0
 11 12  1  0
 13 10  1  0
 14 13  2  0
 15 13  1  0
 16 15  1  0
 16 17  1  1
 18 17  1  0
 19 18  2  0
 20 19  1  0
 21 20  1  0
 21 26  2  0
 22 23  2  0
 22 21  1  0
 23 24  1  0
 24 25  2  0
 26 25  1  0
 26 18  1  0
 27 16  1  0
 27 28  1  0
 29 27  2  0
M  END
$$$$
