HIF.pdb
     RDKit          3D

 30 31  0  0  1  0  0  0  0  0999 V2000
   10.8561  -18.5442   19.3319 N   0  0  0  0  0  0  0  0  0  0  0  0
   11.8739  -17.6422   19.8248 C   0  0  1  0  0  0  0  0  0  0  0  0
   12.4280  -16.8399   18.6668 C   0  0  0  0  0  0  0  0  0  0  0  0
   13.0203  -17.7634   17.6774 C   0  0  0  0  0  0  0  0  0  0  0  0
   14.0715  -18.6612   17.8165 C   0  0  0  0  0  0  0  0  0  0  0  0
   14.2226  -19.2668   16.6201 N   0  0  0  0  0  0  0  0  0  0  0  0
   13.3197  -18.7864   15.7580 C   0  0  0  0  0  0  0  0  0  0  0  0
   12.5829  -17.8693   16.3954 N   0  0  0  0  0  0  0  0  0  0  0  0
   11.2357  -16.7565   20.8332 C   0  0  0  0  0  0  0  0  0  0  0  0
   11.7811  -15.6303   21.0870 O   0  0  0  0  0  0  0  0  0  0  0  0
    6.6655  -14.2695   21.4564 C   0  0  0  0  0  0  0  0  0  0  0  0
    7.6267  -15.4072   21.1580 C   0  0  0  0  0  0  0  0  0  0  0  0
    8.0208  -16.1410   22.4103 C   0  0  2  0  0  0  0  0  0  0  0  0
    7.2572  -15.6490   23.6182 C   0  0  0  0  0  0  0  0  0  0  0  0
    9.4881  -16.2929   22.6200 C   0  0  2  0  0  0  0  0  0  0  0  0
   10.0528  -17.1193   21.5154 N   0  0  0  0  0  0  0  0  0  0  0  0
    9.8919  -16.9417   23.8903 C   0  0  0  0  0  0  0  0  0  0  0  0
    9.8572  -18.2232   23.9850 O   0  0  0  0  0  0  0  0  0  0  0  0
   10.3305  -16.2859   25.0522 N   0  0  0  0  0  0  0  0  0  0  0  0
   11.0112  -17.0049   26.1493 C   0  0  1  0  0  0  0  0  0  0  0  0
   11.7672  -16.0284   27.0120 C   0  0  0  0  0  0  0  0  0  0  0  0
   10.9451  -15.0306   27.6794 C   0  0  0  0  0  0  0  0  0  0  0  0
   10.9634  -14.8738   29.0522 C   0  0  0  0  0  0  0  0  0  0  0  0
   10.1878  -13.9202   29.6847 C   0  0  0  0  0  0  0  0  0  0  0  0
    9.3751  -13.1038   28.9336 C   0  0  0  0  0  0  0  0  0  0  0  0
    9.3317  -13.2323   27.5613 C   0  0  0  0  0  0  0  0  0  0  0  0
   10.1234  -14.2004   26.9550 C   0  0  0  0  0  0  0  0  0  0  0  0
   10.0455  -17.8304   26.8988 C   0  0  0  0  0  0  0  0  0  0  0  0
    8.7031  -17.7220   26.6239 O   0  0  0  0  0  0  0  0  0  0  0  0
   10.4419  -18.6184   27.7728 O   0  0  0  0  0  0  0  0  0  0  0  0
  2  3  1  0
  2  1  1  6
  3  4  1  0
  4  8  1  0
  4  5  2  0
  5  6  1  0
  7  6  1  0
  8  7  2  0
  9  2  1  0
 10  9  2  0
 12 13  1  0
 12 11  1  0
 13 14  1  1
 13 15  1  0
 15 16  1  6
 16  9  1  0
 17 15  1  0
 17 18  2  0
 19 17  1  0
 20 19  1  0
 20 21  1  1
 22 21  1  0
 22 27  1  0
 23 22  2  0
 24 23  1  0
 24 25  2  0
 25 26  1  0
 26 27  2  0
 28 20  1  0
 29 28  1  0
 30 28  2  0
M  END
$$$$
