HIF.pdb
     RDKit          3D

 30 31  0  0  1  0  0  0  0  0999 V2000
    9.9161  -18.4094   18.4603 N   0  0  0  0  0  0  0  0  0  0  0  0
    8.9115  -18.3073   19.4961 C   0  0  1  0  0  0  0  0  0  0  0  0
    8.9408  -19.5634   20.3404 C   0  0  0  0  0  0  0  0  0  0  0  0
    8.4563  -20.7014   19.5323 C   0  0  0  0  0  0  0  0  0  0  0  0
    7.6852  -20.7071   18.3765 C   0  0  0  0  0  0  0  0  0  0  0  0
    7.5176  -22.0007   18.0309 N   0  0  0  0  0  0  0  0  0  0  0  0
    8.1452  -22.7850   18.9142 C   0  0  0  0  0  0  0  0  0  0  0  0
    8.7199  -21.9999   19.8327 N   0  0  0  0  0  0  0  0  0  0  0  0
    9.2308  -17.1064   20.3114 C   0  0  0  0  0  0  0  0  0  0  0  0
   10.4576  -16.8106   20.5058 O   0  0  0  0  0  0  0  0  0  0  0  0
    6.9353  -12.4044   19.5059 C   0  0  0  0  0  0  0  0  0  0  0  0
    7.8772  -13.5387   19.8712 C   0  0  0  0  0  0  0  0  0  0  0  0
    7.7090  -13.9568   21.3061 C   0  0  2  0  0  0  0  0  0  0  0  0
    7.7369  -12.7742   22.2467 C   0  0  0  0  0  0  0  0  0  0  0  0
    8.5489  -15.1116   21.7318 C   0  0  2  0  0  0  0  0  0  0  0  0
    8.2264  -16.2877   20.8745 N   0  0  0  0  0  0  0  0  0  0  0  0
    8.3775  -15.5468   23.1385 C   0  0  0  0  0  0  0  0  0  0  0  0
    7.3214  -16.1977   23.4751 O   0  0  0  0  0  0  0  0  0  0  0  0
    9.2798  -15.3210   24.1908 N   0  0  0  0  0  0  0  0  0  0  0  0
    9.0302  -15.8207   25.5590 C   0  0  1  0  0  0  0  0  0  0  0  0
    7.6212  -15.4902   25.9775 C   0  0  0  0  0  0  0  0  0  0  0  0
    7.3741  -14.0831   26.2530 C   0  0  0  0  0  0  0  0  0  0  0  0
    8.3652  -13.2530   26.7411 C   0  0  0  0  0  0  0  0  0  0  0  0
    8.1315  -11.9144   26.9951 C   0  0  0  0  0  0  0  0  0  0  0  0
    6.8826  -11.3898   26.7579 C   0  0  0  0  0  0  0  0  0  0  0  0
    5.8699  -12.1889   26.2709 C   0  0  0  0  0  0  0  0  0  0  0  0
    6.1362  -13.5307   26.0255 C   0  0  0  0  0  0  0  0  0  0  0  0
    9.3504  -17.2579   25.6468 C   0  0  0  0  0  0  0  0  0  0  0  0
    9.3437  -17.8810   26.8720 O   0  0  0  0  0  0  0  0  0  0  0  0
    9.6246  -17.9014   24.6209 O   0  0  0  0  0  0  0  0  0  0  0  0
  2  3  1  0
  2  1  1  6
  3  4  1  0
  4  8  1  0
  4  5  2  0
  5  6  1  0
  7  6  1  0
  8  7  2  0
  9  2  1  0
 10  9  2  0
 12 13  1  0
 12 11  1  0
 13 14  1  1
 13 15  1  0
 15 16  1  6
 16  9  1  0
 17 15  1  0
 17 18  2  0
 19 17  1  0
 20 19  1  0
 20 21  1  6
 22 21  1  0
 22 27  1  0
 23 22  2  0
 24 23  1  0
 24 25  2  0
 25 26  1  0
 26 27  2  0
 28 20  1  0
 29 28  1  0
 30 28  2  0
M  END
$$$$
