HIF.pdb
     RDKit          3D

 30 31  0  0  1  0  0  0  0  0999 V2000
    8.7977  -17.7193   17.6036 N   0  0  0  0  0  0  0  0  0  0  0  0
    9.4856  -18.0536   18.8314 C   0  0  1  0  0  0  0  0  0  0  0  0
   10.9393  -17.6488   18.7110 C   0  0  0  0  0  0  0  0  0  0  0  0
   11.6488  -18.6355   17.8709 C   0  0  0  0  0  0  0  0  0  0  0  0
   11.7685  -20.0113   18.0237 C   0  0  0  0  0  0  0  0  0  0  0  0
   12.5166  -20.4507   16.9901 N   0  0  0  0  0  0  0  0  0  0  0  0
   12.8601  -19.4164   16.2146 C   0  0  0  0  0  0  0  0  0  0  0  0
   12.3345  -18.3062   16.7451 N   0  0  0  0  0  0  0  0  0  0  0  0
    8.8143  -17.3177   19.9344 C   0  0  0  0  0  0  0  0  0  0  0  0
    8.6145  -16.0641   19.7972 O   0  0  0  0  0  0  0  0  0  0  0  0
    4.2105  -19.0256   21.2806 C   0  0  0  0  0  0  0  0  0  0  0  0
    5.3695  -18.0613   21.0959 C   0  0  0  0  0  0  0  0  0  0  0  0
    6.2732  -18.0461   22.2980 C   0  0  2  0  0  0  0  0  0  0  0  0
    5.5151  -17.7509   23.5718 C   0  0  0  0  0  0  0  0  0  0  0  0
    7.5361  -17.2731   22.1311 C   0  0  2  0  0  0  0  0  0  0  0  0
    8.3935  -17.9573   21.1218 N   0  0  0  0  0  0  0  0  0  0  0  0
    8.3582  -17.1135   23.3543 C   0  0  0  0  0  0  0  0  0  0  0  0
    9.1212  -18.0760   23.7338 O   0  0  0  0  0  0  0  0  0  0  0  0
    8.4022  -15.9785   24.1802 N   0  0  0  0  0  0  0  0  0  0  0  0
    9.3241  -15.8809   25.3311 C   0  0  1  0  0  0  0  0  0  0  0  0
    9.5671  -14.4341   25.6733 C   0  0  0  0  0  0  0  0  0  0  0  0
    8.3815  -13.6846   26.0600 C   0  0  0  0  0  0  0  0  0  0  0  0
    7.4503  -13.2663   25.1287 C   0  0  0  0  0  0  0  0  0  0  0  0
    6.3202  -12.5610   25.4980 C   0  0  0  0  0  0  0  0  0  0  0  0
    6.1120  -12.2651   26.8248 C   0  0  0  0  0  0  0  0  0  0  0  0
    7.0205  -12.6669   27.7812 C   0  0  0  0  0  0  0  0  0  0  0  0
    8.1468  -13.3745   27.3783 C   0  0  0  0  0  0  0  0  0  0  0  0
    8.8174  -16.6785   26.4636 C   0  0  0  0  0  0  0  0  0  0  0  0
    9.6537  -16.9737   27.5138 O   0  0  0  0  0  0  0  0  0  0  0  0
    7.6427  -17.0811   26.4691 O   0  0  0  0  0  0  0  0  0  0  0  0
  2  3  1  0
  2  1  1  6
  3  4  1  0
  4  8  1  0
  4  5  2  0
  5  6  1  0
  7  6  1  0
  8  7  2  0
  9  2  1  0
 10  9  2  0
 12 13  1  0
 12 11  1  0
 13 14  1  1
 13 15  1  0
 15 16  1  6
 16  9  1  0
 17 15  1  0
 17 18  2  0
 19 17  1  0
 20 19  1  0
 20 21  1  1
 22 21  1  0
 22 27  1  0
 23 22  2  0
 24 23  1  0
 24 25  2  0
 25 26  1  0
 26 27  2  0
 28 20  1  0
 29 28  1  0
 30 28  2  0
M  END
$$$$
