HIF.pdb
     RDKit          3D

 30 31  0  0  1  0  0  0  0  0999 V2000
    9.5327  -19.0653   19.1510 N   0  0  0  0  0  0  0  0  0  0  0  0
    8.6428  -18.6449   20.2110 C   0  0  1  0  0  0  0  0  0  0  0  0
    8.5756  -19.7322   21.2622 C   0  0  0  0  0  0  0  0  0  0  0  0
    7.8199  -20.8813   20.7226 C   0  0  0  0  0  0  0  0  0  0  0  0
    7.2252  -21.0494   19.4782 C   0  0  0  0  0  0  0  0  0  0  0  0
    6.6609  -22.2752   19.4827 N   0  0  0  0  0  0  0  0  0  0  0  0
    6.8793  -22.8642   20.6637 C   0  0  0  0  0  0  0  0  0  0  0  0
    7.5854  -22.0205   21.4250 N   0  0  0  0  0  0  0  0  0  0  0  0
    9.1879  -17.3842   20.7786 C   0  0  0  0  0  0  0  0  0  0  0  0
   10.4503  -17.1959   20.7430 O   0  0  0  0  0  0  0  0  0  0  0  0
    6.8613  -12.6515   19.7947 C   0  0  0  0  0  0  0  0  0  0  0  0
    7.9141  -13.7066   20.0873 C   0  0  0  0  0  0  0  0  0  0  0  0
    8.0061  -14.0028   21.5590 C   0  0  2  0  0  0  0  0  0  0  0  0
    8.2027  -12.7475   22.3774 C   0  0  0  0  0  0  0  0  0  0  0  0
    8.9084  -15.1314   21.9225 C   0  0  2  0  0  0  0  0  0  0  0  0
    8.3590  -16.3944   21.3525 N   0  0  0  0  0  0  0  0  0  0  0  0
    9.0954  -15.3624   23.3748 C   0  0  0  0  0  0  0  0  0  0  0  0
    9.9898  -14.6939   24.0117 O   0  0  0  0  0  0  0  0  0  0  0  0
    8.3719  -16.2667   24.1694 N   0  0  0  0  0  0  0  0  0  0  0  0
    8.5954  -16.3844   25.6255 C   0  0  1  0  0  0  0  0  0  0  0  0
    7.4360  -15.7797   26.3736 C   0  0  0  0  0  0  0  0  0  0  0  0
    7.4110  -14.3252   26.4007 C   0  0  0  0  0  0  0  0  0  0  0  0
    8.5245  -13.5856   26.7508 C   0  0  0  0  0  0  0  0  0  0  0  0
    8.5021  -12.2035   26.7686 C   0  0  0  0  0  0  0  0  0  0  0  0
    7.3448  -11.5422   26.4303 C   0  0  0  0  0  0  0  0  0  0  0  0
    6.2146  -12.2482   26.0757 C   0  0  0  0  0  0  0  0  0  0  0  0
    6.2689  -13.6370   26.0673 C   0  0  0  0  0  0  0  0  0  0  0  0
    8.8669  -17.7873   25.9912 C   0  0  0  0  0  0  0  0  0  0  0  0
    9.1781  -18.1013   27.2927 O   0  0  0  0  0  0  0  0  0  0  0  0
    8.8150  -18.6797   25.1293 O   0  0  0  0  0  0  0  0  0  0  0  0
  2  3  1  0
  2  1  1  6
  3  4  1  0
  4  8  1  0
  4  5  2  0
  5  6  1  0
  7  6  1  0
  8  7  2  0
  9  2  1  0
 10  9  2  0
 12 13  1  0
 12 11  1  0
 13 14  1  1
 13 15  1  0
 15 16  1  1
 16  9  1  0
 17 15  1  0
 17 18  2  0
 19 17  1  0
 20 19  1  0
 20 21  1  1
 22 21  1  0
 22 27  1  0
 23 22  2  0
 24 23  1  0
 24 25  2  0
 25 26  1  0
 26 27  2  0
 28 20  1  0
 29 28  1  0
 30 28  2  0
M  END
$$$$
