HIF.pdb
     RDKit          3D

 30 31  0  0  1  0  0  0  0  0999 V2000
   10.3978  -18.1322   18.9627 N   0  0  0  0  0  0  0  0  0  0  0  0
   11.6049  -17.6930   19.6277 C   0  0  1  0  0  0  0  0  0  0  0  0
   12.4957  -16.9910   18.6250 C   0  0  0  0  0  0  0  0  0  0  0  0
   13.1050  -17.9971   17.7309 C   0  0  0  0  0  0  0  0  0  0  0  0
   13.5364  -19.2884   18.0081 C   0  0  0  0  0  0  0  0  0  0  0  0
   14.0151  -19.7919   16.8512 N   0  0  0  0  0  0  0  0  0  0  0  0
   13.8990  -18.8767   15.8826 C   0  0  0  0  0  0  0  0  0  0  0  0
   13.3448  -17.7796   16.4113 N   0  0  0  0  0  0  0  0  0  0  0  0
   11.2022  -16.7726   20.7229 C   0  0  0  0  0  0  0  0  0  0  0  0
   12.1109  -16.1077   21.3248 O   0  0  0  0  0  0  0  0  0  0  0  0
    6.7155  -13.7319   20.4226 C   0  0  0  0  0  0  0  0  0  0  0  0
    8.1203  -14.2175   20.7353 C   0  0  0  0  0  0  0  0  0  0  0  0
    8.1406  -15.1088   21.9466 C   0  0  2  0  0  0  0  0  0  0  0  0
    7.4537  -14.4689   23.1311 C   0  0  0  0  0  0  0  0  0  0  0  0
    9.4592  -15.7316   22.2524 C   0  0  2  0  0  0  0  0  0  0  0  0
    9.8549  -16.6118   21.1164 N   0  0  0  0  0  0  0  0  0  0  0  0
    9.5074  -16.5651   23.4774 C   0  0  0  0  0  0  0  0  0  0  0  0
    9.0740  -17.7746   23.4370 O   0  0  0  0  0  0  0  0  0  0  0  0
    9.9977  -16.1662   24.7316 N   0  0  0  0  0  0  0  0  0  0  0  0
   10.2471  -17.1339   25.8203 C   0  0  1  0  0  0  0  0  0  0  0  0
   11.2409  -16.5626   26.7977 C   0  0  0  0  0  0  0  0  0  0  0  0
   10.7537  -15.4428   27.5886 C   0  0  0  0  0  0  0  0  0  0  0  0
   10.7852  -15.4604   28.9700 C   0  0  0  0  0  0  0  0  0  0  0  0
   10.3292  -14.3927   29.7205 C   0  0  0  0  0  0  0  0  0  0  0  0
    9.8303  -13.2819   29.0814 C   0  0  0  0  0  0  0  0  0  0  0  0
    9.7837  -13.2299   27.7042 C   0  0  0  0  0  0  0  0  0  0  0  0
   10.2498  -14.3193   26.9778 C   0  0  0  0  0  0  0  0  0  0  0  0
    8.9748  -17.5442   26.4437 C   0  0  0  0  0  0  0  0  0  0  0  0
    8.9719  -18.5480   27.3827 O   0  0  0  0  0  0  0  0  0  0  0  0
    7.9126  -16.9868   26.1228 O   0  0  0  0  0  0  0  0  0  0  0  0
  2  3  1  0
  2  1  1  6
  3  4  1  0
  4  8  1  0
  4  5  2  0
  5  6  1  0
  7  6  1  0
  8  7  2  0
  9  2  1  0
 10  9  2  0
 12 13  1  0
 12 11  1  0
 13 14  1  1
 13 15  1  0
 15 16  1  6
 16  9  1  0
 17 15  1  0
 17 18  2  0
 19 17  1  0
 20 19  1  0
 20 21  1  1
 22 21  1  0
 22 27  1  0
 23 22  2  0
 24 23  1  0
 24 25  2  0
 25 26  1  0
 26 27  2  0
 28 20  1  0
 29 28  1  0
 30 28  2  0
M  END
$$$$
