WFK.pdb
     RDKit          3D

 35 37  0  0  1  0  0  0  0  0999 V2000
    7.0446  -17.2474   20.6750 N   0  0  0  0  0  0  0  0  0  0  0  0
    6.6245  -17.2309   22.0498 C   0  0  1  0  0  0  0  0  0  0  0  0
    6.3033  -18.6002   22.5898 C   0  0  0  0  0  0  0  0  0  0  0  0
    5.3910  -19.3177   21.6878 C   0  0  0  0  0  0  0  0  0  0  0  0
    5.5611  -20.6096   21.2186 C   0  0  0  0  0  0  0  0  0  0  0  0
    4.5292  -20.9583   20.4479 N   0  0  0  0  0  0  0  0  0  0  0  0
    3.6971  -19.9125   20.4124 C   0  0  0  0  0  0  0  0  0  0  0  0
    2.4973  -19.7303   19.7682 C   0  0  0  0  0  0  0  0  0  0  0  0
    1.7891  -18.5490   19.8574 C   0  0  0  0  0  0  0  0  0  0  0  0
    2.2970  -17.5156   20.6152 C   0  0  0  0  0  0  0  0  0  0  0  0
    3.5128  -17.6928   21.2717 C   0  0  0  0  0  0  0  0  0  0  0  0
    4.2014  -18.8628   21.1770 C   0  0  0  0  0  0  0  0  0  0  0  0
    7.6354  -16.5311   22.8877 C   0  0  0  0  0  0  0  0  0  0  0  0
    8.6868  -16.0612   22.3675 O   0  0  0  0  0  0  0  0  0  0  0  0
    7.4551  -16.3717   24.2730 N   0  0  0  0  0  0  0  0  0  0  0  0
    8.3858  -15.5445   25.0913 C   0  0  1  0  0  0  0  0  0  0  0  0
    7.5327  -14.9547   26.1504 C   0  0  0  0  0  0  0  0  0  0  0  0
    7.2235  -13.5241   26.0503 C   0  0  0  0  0  0  0  0  0  0  0  0
    7.8685  -12.6829   25.1349 C   0  0  0  0  0  0  0  0  0  0  0  0
    7.5657  -11.3444   25.0138 C   0  0  0  0  0  0  0  0  0  0  0  0
    6.5878  -10.7845   25.8185 C   0  0  0  0  0  0  0  0  0  0  0  0
    5.9349  -11.5877   26.7300 C   0  0  0  0  0  0  0  0  0  0  0  0
    6.2639  -12.9163   26.8216 C   0  0  0  0  0  0  0  0  0  0  0  0
    9.4184  -16.4835   25.5507 C   0  0  0  0  0  0  0  0  0  0  0  0
   10.3683  -16.0955   26.3191 O   0  0  0  0  0  0  0  0  0  0  0  0
    9.4628  -17.8582   25.2104 N   0  0  0  0  0  0  0  0  0  0  0  0
   10.4721  -18.7668   25.7610 C   0  0  1  0  0  0  0  0  0  0  0  0
   11.6147  -18.9137   24.7688 C   0  0  0  0  0  0  0  0  0  0  0  0
   12.7561  -19.7337   25.2611 C   0  0  0  0  0  0  0  0  0  0  0  0
   13.1490  -20.6848   24.1148 C   0  0  0  0  0  0  0  0  0  0  0  0
   14.3568  -21.5060   24.5139 C   0  0  0  0  0  0  0  0  0  0  0  0
   14.8608  -22.3346   23.4637 N   0  0  0  0  0  0  0  0  0  0  0  0
   10.8881  -18.4572   27.1190 C   0  0  0  0  0  0  0  0  0  0  0  0
   11.6473  -17.3268   27.4472 O   0  0  0  0  0  0  0  0  0  0  0  0
   10.6035  -19.1784   28.1294 O   0  0  0  0  0  0  0  0  0  0  0  0
  2  1  1  6
  3  2  1  0
  4  3  1  0
  4  5  2  0
  6  5  1  0
  7  6  1  0
  8  7  2  0
  9  8  1  0
 10  9  2  0
 10 11  1  0
 11 12  2  0
 12  7  1  0
 12  4  1  0
 13 14  2  0
 13  2  1  0
 15 13  1  0
 16 17  1  1
 16 15  1  0
 18 17  1  0
 18 23  1  0
 19 18  2  0
 20 19  1  0
 20 21  2  0
 21 22  1  0
 22 23  2  0
 24 16  1  0
 25 24  2  0
 26 24  1  0
 27 26  1  0
 28 29  1  0
 27 28  1  6
 30 29  1  0
 31 30  1  0
 32 31  1  0
 33 34  1  0
 33 27  1  0
 35 33  2  0
M  END
$$$$
