WFK.pdb
     RDKit          3D

 35 37  0  0  1  0  0  0  0  0999 V2000
    7.5661  -18.4857   21.8813 N   0  0  0  0  0  0  0  0  0  0  0  0
    8.8433  -17.8318   21.7930 C   0  0  1  0  0  0  0  0  0  0  0  0
    8.9588  -16.9104   20.6067 C   0  0  0  0  0  0  0  0  0  0  0  0
    7.9347  -15.8573   20.6603 C   0  0  0  0  0  0  0  0  0  0  0  0
    6.5753  -16.0536   20.8386 C   0  0  0  0  0  0  0  0  0  0  0  0
    5.9418  -14.8798   20.8706 N   0  0  0  0  0  0  0  0  0  0  0  0
    6.8701  -13.9303   20.7157 C   0  0  0  0  0  0  0  0  0  0  0  0
    6.7670  -12.5611   20.6671 C   0  0  0  0  0  0  0  0  0  0  0  0
    7.8683  -11.7487   20.4887 C   0  0  0  0  0  0  0  0  0  0  0  0
    9.1139  -12.3237   20.3539 C   0  0  0  0  0  0  0  0  0  0  0  0
    9.2267  -13.7114   20.4024 C   0  0  0  0  0  0  0  0  0  0  0  0
    8.1334  -14.5019   20.5800 C   0  0  0  0  0  0  0  0  0  0  0  0
    9.1504  -17.1297   23.0684 C   0  0  0  0  0  0  0  0  0  0  0  0
   10.2502  -16.5262   23.2208 O   0  0  0  0  0  0  0  0  0  0  0  0
    8.2350  -17.1152   24.1355 N   0  0  0  0  0  0  0  0  0  0  0  0
    8.5564  -16.4524   25.4308 C   0  0  1  0  0  0  0  0  0  0  0  0
    7.2543  -15.9488   25.9289 C   0  0  0  0  0  0  0  0  0  0  0  0
    7.0837  -14.4948   26.0237 C   0  0  0  0  0  0  0  0  0  0  0  0
    8.1036  -13.6516   26.4825 C   0  0  0  0  0  0  0  0  0  0  0  0
    7.9632  -12.2826   26.5490 C   0  0  0  0  0  0  0  0  0  0  0  0
    6.7751  -11.6927   26.1518 C   0  0  0  0  0  0  0  0  0  0  0  0
    5.7520  -12.4971   25.6953 C   0  0  0  0  0  0  0  0  0  0  0  0
    5.9291  -13.8564   25.6435 C   0  0  0  0  0  0  0  0  0  0  0  0
    9.1897  -17.5007   26.2426 C   0  0  0  0  0  0  0  0  0  0  0  0
    8.4827  -18.3316   26.9155 O   0  0  0  0  0  0  0  0  0  0  0  0
   10.5888  -17.6954   26.3535 N   0  0  0  0  0  0  0  0  0  0  0  0
   11.1675  -18.7243   27.2217 C   0  0  1  0  0  0  0  0  0  0  0  0
   12.3982  -19.3160   26.5529 C   0  0  0  0  0  0  0  0  0  0  0  0
   12.1668  -19.8154   25.1692 C   0  0  0  0  0  0  0  0  0  0  0  0
   13.5182  -20.3468   24.6550 C   0  0  0  0  0  0  0  0  0  0  0  0
   13.4047  -20.7224   23.1928 C   0  0  0  0  0  0  0  0  0  0  0  0
   14.6587  -21.0311   22.5798 N   0  0  0  0  0  0  0  0  0  0  0  0
   11.3707  -18.3087   28.5997 C   0  0  0  0  0  0  0  0  0  0  0  0
   11.1507  -16.9986   29.0436 O   0  0  0  0  0  0  0  0  0  0  0  0
   11.7642  -19.0902   29.5252 O   0  0  0  0  0  0  0  0  0  0  0  0
  2  1  1  1
  3  2  1  0
  4  3  1  0
  4  5  2  0
  6  5  1  0
  7  6  1  0
  8  7  2  0
  9  8  1  0
 10  9  2  0
 10 11  1  0
 11 12  2  0
 12  7  1  0
 12  4  1  0
 13 14  2  0
 13  2  1  0
 15 13  1  0
 16 17  1  1
 16 15  1  0
 18 17  1  0
 18 23  1  0
 19 18  2  0
 20 19  1  0
 20 21  2  0
 21 22  1  0
 22 23  2  0
 24 16  1  0
 25 24  2  0
 26 24  1  0
 27 26  1  0
 28 29  1  0
 27 28  1  6
 30 29  1  0
 31 30  1  0
 32 31  1  0
 33 34  1  0
 33 27  1  0
 35 33  2  0
M  END
$$$$
