WFK.pdb
     RDKit          3D

 35 37  0  0  1  0  0  0  0  0999 V2000
    7.3120  -18.5096   21.4285 N   0  0  0  0  0  0  0  0  0  0  0  0
    7.7725  -17.1955   21.0711 C   0  0  1  0  0  0  0  0  0  0  0  0
    6.6524  -16.2125   20.8504 C   0  0  0  0  0  0  0  0  0  0  0  0
    7.1792  -14.9001   20.4497 C   0  0  0  0  0  0  0  0  0  0  0  0
    7.4318  -14.4873   19.1520 C   0  0  0  0  0  0  0  0  0  0  0  0
    7.8729  -13.2280   19.1480 N   0  0  0  0  0  0  0  0  0  0  0  0
    7.9092  -12.8226   20.4214 C   0  0  0  0  0  0  0  0  0  0  0  0
    8.2879  -11.6265   20.9814 C   0  0  0  0  0  0  0  0  0  0  0  0
    8.2573  -11.4128   22.3446 C   0  0  0  0  0  0  0  0  0  0  0  0
    7.8347  -12.4282   23.1756 C   0  0  0  0  0  0  0  0  0  0  0  0
    7.4487  -13.6438   22.6153 C   0  0  0  0  0  0  0  0  0  0  0  0
    7.4821  -13.8421   21.2694 C   0  0  0  0  0  0  0  0  0  0  0  0
    8.7491  -16.7013   22.0790 C   0  0  0  0  0  0  0  0  0  0  0  0
    9.8326  -16.1632   21.7137 O   0  0  0  0  0  0  0  0  0  0  0  0
    8.5001  -16.8163   23.4581 N   0  0  0  0  0  0  0  0  0  0  0  0
    9.4043  -16.1990   24.4687 C   0  0  1  0  0  0  0  0  0  0  0  0
    8.5042  -15.7651   25.5636 C   0  0  0  0  0  0  0  0  0  0  0  0
    9.1273  -15.2199   26.7747 C   0  0  0  0  0  0  0  0  0  0  0  0
    9.1878  -13.8438   27.0286 C   0  0  0  0  0  0  0  0  0  0  0  0
    9.7457  -13.3231   28.1757 C   0  0  0  0  0  0  0  0  0  0  0  0
   10.2748  -14.1742   29.1312 C   0  0  0  0  0  0  0  0  0  0  0  0
   10.2300  -15.5346   28.9094 C   0  0  0  0  0  0  0  0  0  0  0  0
    9.6664  -16.0158   27.7550 C   0  0  0  0  0  0  0  0  0  0  0  0
   10.3639  -17.2577   24.8111 C   0  0  0  0  0  0  0  0  0  0  0  0
    9.9772  -18.4670   24.9873 O   0  0  0  0  0  0  0  0  0  0  0  0
   11.7579  -17.0582   24.9680 N   0  0  0  0  0  0  0  0  0  0  0  0
   12.6888  -18.1726   25.1657 C   0  0  1  0  0  0  0  0  0  0  0  0
   13.3801  -18.4930   23.8500 C   0  0  0  0  0  0  0  0  0  0  0  0
   14.3551  -19.6162   23.9244 C   0  0  0  0  0  0  0  0  0  0  0  0
   14.9464  -19.7878   22.5124 C   0  0  0  0  0  0  0  0  0  0  0  0
   15.8447  -21.0058   22.4713 C   0  0  0  0  0  0  0  0  0  0  0  0
   16.5233  -21.1776   21.2249 N   0  0  0  0  0  0  0  0  0  0  0  0
   13.5877  -18.0162   26.2974 C   0  0  0  0  0  0  0  0  0  0  0  0
   14.3401  -19.0719   26.8278 O   0  0  0  0  0  0  0  0  0  0  0  0
   13.7743  -16.9139   26.9075 O   0  0  0  0  0  0  0  0  0  0  0  0
  2  1  1  1
  3  2  1  0
  4  3  1  0
  4  5  2  0
  6  5  1  0
  7  6  1  0
  8  7  2  0
  9  8  1  0
 10  9  2  0
 10 11  1  0
 11 12  2  0
 12  7  1  0
 12  4  1  0
 13 14  2  0
 13  2  1  0
 15 13  1  0
 16 17  1  1
 16 15  1  0
 18 17  1  0
 18 23  1  0
 19 18  2  0
 20 19  1  0
 20 21  2  0
 21 22  1  0
 22 23  2  0
 24 16  1  0
 25 24  2  0
 26 24  1  0
 27 26  1  0
 28 29  1  0
 27 28  1  6
 30 29  1  0
 31 30  1  0
 32 31  1  0
 33 34  1  0
 33 27  1  0
 35 33  2  0
M  END
$$$$
