WFK.pdb
     RDKit          3D

 35 37  0  0  1  0  0  0  0  0999 V2000
    9.5999  -17.5391   19.9597 N   0  0  0  0  0  0  0  0  0  0  0  0
    8.9729  -17.8162   21.2234 C   0  0  1  0  0  0  0  0  0  0  0  0
    9.4171  -19.1197   21.8343 C   0  0  0  0  0  0  0  0  0  0  0  0
    9.0419  -20.2539   20.9779 C   0  0  0  0  0  0  0  0  0  0  0  0
    9.9170  -21.0735   20.2846 C   0  0  0  0  0  0  0  0  0  0  0  0
    9.2407  -22.0222   19.6344 N   0  0  0  0  0  0  0  0  0  0  0  0
    7.9444  -21.8275   19.8968 C   0  0  0  0  0  0  0  0  0  0  0  0
    6.8237  -22.5054   19.4817 C   0  0  0  0  0  0  0  0  0  0  0  0
    5.5536  -22.1290   19.8688 C   0  0  0  0  0  0  0  0  0  0  0  0
    5.3982  -21.0386   20.6978 C   0  0  0  0  0  0  0  0  0  0  0  0
    6.5297  -20.3462   21.1232 C   0  0  0  0  0  0  0  0  0  0  0  0
    7.7771  -20.7278   20.7356 C   0  0  0  0  0  0  0  0  0  0  0  0
    9.1705  -16.6743   22.1565 C   0  0  0  0  0  0  0  0  0  0  0  0
   10.2158  -15.9669   22.0938 O   0  0  0  0  0  0  0  0  0  0  0  0
    8.2093  -16.3486   23.1296 N   0  0  0  0  0  0  0  0  0  0  0  0
    8.3758  -15.1717   24.0281 C   0  0  1  0  0  0  0  0  0  0  0  0
    6.9932  -14.7338   24.3345 C   0  0  0  0  0  0  0  0  0  0  0  0
    6.8292  -13.6319   25.2891 C   0  0  0  0  0  0  0  0  0  0  0  0
    7.6808  -12.5200   25.2996 C   0  0  0  0  0  0  0  0  0  0  0  0
    7.5186  -11.4672   26.1733 C   0  0  0  0  0  0  0  0  0  0  0  0
    6.4789  -11.4858   27.0876 C   0  0  0  0  0  0  0  0  0  0  0  0
    5.6235  -12.5676   27.1017 C   0  0  0  0  0  0  0  0  0  0  0  0
    5.8170  -13.5972   26.2161 C   0  0  0  0  0  0  0  0  0  0  0  0
    9.1545  -15.6757   25.1676 C   0  0  0  0  0  0  0  0  0  0  0  0
    9.4446  -14.9141   26.1571 O   0  0  0  0  0  0  0  0  0  0  0  0
    9.6378  -17.0023   25.2863 N   0  0  0  0  0  0  0  0  0  0  0  0
   10.4358  -17.4429   26.4336 C   0  0  1  0  0  0  0  0  0  0  0  0
   11.4500  -18.4790   25.9757 C   0  0  0  0  0  0  0  0  0  0  0  0
   12.8537  -17.9849   25.9225 C   0  0  0  0  0  0  0  0  0  0  0  0
   13.6984  -19.1084   25.2923 C   0  0  0  0  0  0  0  0  0  0  0  0
   15.1448  -18.6732   25.1888 C   0  0  0  0  0  0  0  0  0  0  0  0
   16.0057  -19.6683   24.6299 N   0  0  0  0  0  0  0  0  0  0  0  0
   10.9937  -16.3642   27.2324 C   0  0  0  0  0  0  0  0  0  0  0  0
   11.0184  -16.3835   28.6327 O   0  0  0  0  0  0  0  0  0  0  0  0
   11.5085  -15.3092   26.7382 O   0  0  0  0  0  0  0  0  0  0  0  0
  2  1  1  6
  3  2  1  0
  4  3  1  0
  4  5  2  0
  6  5  1  0
  7  6  1  0
  8  7  2  0
  9  8  1  0
 10  9  2  0
 10 11  1  0
 11 12  2  0
 12  7  1  0
 12  4  1  0
 13 14  2  0
 13  2  1  0
 15 13  1  0
 16 17  1  1
 16 15  1  0
 18 17  1  0
 18 23  1  0
 19 18  2  0
 20 19  1  0
 20 21  2  0
 21 22  1  0
 22 23  2  0
 24 16  1  0
 25 24  2  0
 26 24  1  0
 27 26  1  0
 28 29  1  0
 27 28  1  6
 30 29  1  0
 31 30  1  0
 32 31  1  0
 33 34  1  0
 33 27  1  0
 35 33  2  0
M  END
$$$$
