WFK.pdb
     RDKit          3D

 35 37  0  0  1  0  0  0  0  0999 V2000
   10.5795  -17.3163   20.6682 N   0  0  0  0  0  0  0  0  0  0  0  0
    9.3761  -16.6190   21.0321 C   0  0  1  0  0  0  0  0  0  0  0  0
    8.1519  -17.1352   20.3219 C   0  0  0  0  0  0  0  0  0  0  0  0
    7.7929  -16.2617   19.1956 C   0  0  0  0  0  0  0  0  0  0  0  0
    7.3688  -16.6801   17.9453 C   0  0  0  0  0  0  0  0  0  0  0  0
    7.0964  -15.6249   17.1755 N   0  0  0  0  0  0  0  0  0  0  0  0
    7.3381  -14.5335   17.9087 C   0  0  0  0  0  0  0  0  0  0  0  0
    7.2302  -13.1972   17.6079 C   0  0  0  0  0  0  0  0  0  0  0  0
    7.5426  -12.2121   18.5227 C   0  0  0  0  0  0  0  0  0  0  0  0
    7.9776  -12.5745   19.7795 C   0  0  0  0  0  0  0  0  0  0  0  0
    8.0894  -13.9274   20.0923 C   0  0  0  0  0  0  0  0  0  0  0  0
    7.7771  -14.8896   19.1820 C   0  0  0  0  0  0  0  0  0  0  0  0
    9.2022  -16.6306   22.5098 C   0  0  0  0  0  0  0  0  0  0  0  0
    9.9676  -17.3206   23.2413 O   0  0  0  0  0  0  0  0  0  0  0  0
    8.1898  -15.8809   23.1342 N   0  0  0  0  0  0  0  0  0  0  0  0
    8.3334  -15.3877   24.5329 C   0  0  1  0  0  0  0  0  0  0  0  0
    7.4401  -14.2073   24.6091 C   0  0  0  0  0  0  0  0  0  0  0  0
    7.2952  -13.5527   25.9140 C   0  0  0  0  0  0  0  0  0  0  0  0
    8.3921  -13.0405   26.6184 C   0  0  0  0  0  0  0  0  0  0  0  0
    8.2636  -12.3993   27.8310 C   0  0  0  0  0  0  0  0  0  0  0  0
    7.0097  -12.2426   28.3971 C   0  0  0  0  0  0  0  0  0  0  0  0
    5.9100  -12.7367   27.7272 C   0  0  0  0  0  0  0  0  0  0  0  0
    6.0777  -13.3694   26.5216 C   0  0  0  0  0  0  0  0  0  0  0  0
    7.9562  -16.5310   25.3753 C   0  0  0  0  0  0  0  0  0  0  0  0
    6.7345  -16.9079   25.4676 O   0  0  0  0  0  0  0  0  0  0  0  0
    8.8685  -17.3050   26.1343 N   0  0  0  0  0  0  0  0  0  0  0  0
    8.4291  -18.4002   27.0032 C   0  0  1  0  0  0  0  0  0  0  0  0
    8.6762  -19.7286   26.3060 C   0  0  0  0  0  0  0  0  0  0  0  0
    7.4780  -20.3035   25.6341 C   0  0  0  0  0  0  0  0  0  0  0  0
    7.9623  -20.9157   24.3060 C   0  0  0  0  0  0  0  0  0  0  0  0
    6.7767  -21.3792   23.4865 C   0  0  0  0  0  0  0  0  0  0  0  0
    7.1406  -22.0389   22.2715 N   0  0  0  0  0  0  0  0  0  0  0  0
    8.9322  -18.3308   28.3652 C   0  0  0  0  0  0  0  0  0  0  0  0
    8.2374  -18.8513   29.4644 O   0  0  0  0  0  0  0  0  0  0  0  0
   10.0427  -17.7949   28.6844 O   0  0  0  0  0  0  0  0  0  0  0  0
  2  1  1  1
  3  2  1  0
  4  3  1  0
  4  5  2  0
  6  5  1  0
  7  6  1  0
  8  7  2  0
  9  8  1  0
 10  9  2  0
 10 11  1  0
 11 12  2  0
 12  7  1  0
 12  4  1  0
 13 14  2  0
 13  2  1  0
 15 13  1  0
 16 17  1  6
 16 15  1  0
 18 17  1  0
 18 23  1  0
 19 18  2  0
 20 19  1  0
 20 21  2  0
 21 22  1  0
 22 23  2  0
 24 16  1  0
 25 24  2  0
 26 24  1  0
 27 26  1  0
 28 29  1  0
 27 28  1  6
 30 29  1  0
 31 30  1  0
 32 31  1  0
 33 34  1  0
 33 27  1  0
 35 33  2  0
M  END
$$$$
