WFK.pdb
     RDKit          3D

 35 37  0  0  1  0  0  0  0  0999 V2000
   10.8913  -15.7247   20.5399 N   0  0  0  0  0  0  0  0  0  0  0  0
    9.8701  -15.6913   21.5512 C   0  0  1  0  0  0  0  0  0  0  0  0
    8.6992  -16.5880   21.2436 C   0  0  0  0  0  0  0  0  0  0  0  0
    7.7542  -15.9219   20.3358 C   0  0  0  0  0  0  0  0  0  0  0  0
    6.6037  -16.4822   19.8061 C   0  0  0  0  0  0  0  0  0  0  0  0
    5.9642  -15.5889   19.0489 N   0  0  0  0  0  0  0  0  0  0  0  0
    6.6835  -14.4625   19.0815 C   0  0  0  0  0  0  0  0  0  0  0  0
    6.4871  -13.2437   18.4784 C   0  0  0  0  0  0  0  0  0  0  0  0
    7.3706  -12.1955   18.6384 C   0  0  0  0  0  0  0  0  0  0  0  0
    8.4876  -12.3714   19.4268 C   0  0  0  0  0  0  0  0  0  0  0  0
    8.6936  -13.6041   20.0420 C   0  0  0  0  0  0  0  0  0  0  0  0
    7.8145  -14.6299   19.8776 C   0  0  0  0  0  0  0  0  0  0  0  0
   10.4577  -15.9900   22.8851 C   0  0  0  0  0  0  0  0  0  0  0  0
   11.5090  -16.6844   22.9830 O   0  0  0  0  0  0  0  0  0  0  0  0
    9.8675  -15.5136   24.0689 N   0  0  0  0  0  0  0  0  0  0  0  0
   10.5160  -15.7056   25.3966 C   0  0  1  0  0  0  0  0  0  0  0  0
    9.8747  -14.7004   26.2774 C   0  0  0  0  0  0  0  0  0  0  0  0
   10.1826  -14.7631   27.7104 C   0  0  0  0  0  0  0  0  0  0  0  0
    9.2213  -15.1156   28.6660 C   0  0  0  0  0  0  0  0  0  0  0  0
    9.5072  -15.2045   30.0108 C   0  0  0  0  0  0  0  0  0  0  0  0
   10.7896  -14.9393   30.4606 C   0  0  0  0  0  0  0  0  0  0  0  0
   11.7582  -14.5894   29.5433 C   0  0  0  0  0  0  0  0  0  0  0  0
   11.4355  -14.5112   28.2123 C   0  0  0  0  0  0  0  0  0  0  0  0
   10.2617  -17.1115   25.7395 C   0  0  0  0  0  0  0  0  0  0  0  0
    9.0983  -17.6277   25.5876 O   0  0  0  0  0  0  0  0  0  0  0  0
   11.2387  -18.0043   26.2455 N   0  0  0  0  0  0  0  0  0  0  0  0
   10.8898  -19.3256   26.7744 C   0  0  1  0  0  0  0  0  0  0  0  0
   11.5226  -20.4009   25.9055 C   0  0  0  0  0  0  0  0  0  0  0  0
   11.6538  -20.0331   24.4685 C   0  0  0  0  0  0  0  0  0  0  0  0
   12.3977  -21.1917   23.7777 C   0  0  0  0  0  0  0  0  0  0  0  0
   12.6021  -20.8750   22.3114 C   0  0  0  0  0  0  0  0  0  0  0  0
   13.2695  -21.9113   21.5873 N   0  0  0  0  0  0  0  0  0  0  0  0
   11.1229  -19.4872   28.2001 C   0  0  0  0  0  0  0  0  0  0  0  0
   10.6290  -20.5707   28.9377 O   0  0  0  0  0  0  0  0  0  0  0  0
   11.7927  -18.6660   28.9066 O   0  0  0  0  0  0  0  0  0  0  0  0
  2  1  1  6
  3  2  1  0
  4  3  1  0
  4  5  2  0
  6  5  1  0
  7  6  1  0
  8  7  2  0
  9  8  1  0
 10  9  2  0
 10 11  1  0
 11 12  2  0
 12  7  1  0
 12  4  1  0
 13 14  2  0
 13  2  1  0
 15 13  1  0
 16 17  1  1
 16 15  1  0
 18 17  1  0
 18 23  1  0
 19 18  2  0
 20 19  1  0
 20 21  2  0
 21 22  1  0
 22 23  2  0
 24 16  1  0
 25 24  2  0
 26 24  1  0
 27 26  1  0
 28 29  1  0
 27 28  1  6
 30 29  1  0
 31 30  1  0
 32 31  1  0
 33 34  1  0
 33 27  1  0
 35 33  2  0
M  END
$$$$
