WFK.pdb
     RDKit          3D

 35 37  0  0  1  0  0  0  0  0999 V2000
    7.4222  -19.1009   20.5391 N   0  0  0  0  0  0  0  0  0  0  0  0
    7.2945  -19.0959   21.9710 C   0  0  1  0  0  0  0  0  0  0  0  0
    7.9549  -20.2782   22.6310 C   0  0  0  0  0  0  0  0  0  0  0  0
    7.2192  -21.5175   22.3416 C   0  0  0  0  0  0  0  0  0  0  0  0
    7.6461  -22.5416   21.5127 C   0  0  0  0  0  0  0  0  0  0  0  0
    6.7489  -23.5290   21.5027 N   0  0  0  0  0  0  0  0  0  0  0  0
    5.7507  -23.1582   22.3111 C   0  0  0  0  0  0  0  0  0  0  0  0
    4.5807  -23.7907   22.6555 C   0  0  0  0  0  0  0  0  0  0  0  0
    3.6648  -23.2205   23.5162 C   0  0  0  0  0  0  0  0  0  0  0  0
    3.9266  -21.9768   24.0500 C   0  0  0  0  0  0  0  0  0  0  0  0
    5.1110  -21.3292   23.7057 C   0  0  0  0  0  0  0  0  0  0  0  0
    6.0070  -21.9023   22.8568 C   0  0  0  0  0  0  0  0  0  0  0  0
    7.7889  -17.8072   22.5266 C   0  0  0  0  0  0  0  0  0  0  0  0
    8.7453  -17.1939   21.9733 O   0  0  0  0  0  0  0  0  0  0  0  0
    7.2132  -17.2354   23.6749 N   0  0  0  0  0  0  0  0  0  0  0  0
    7.6775  -15.9251   24.2112 C   0  0  1  0  0  0  0  0  0  0  0  0
    6.5155  -15.3928   24.9619 C   0  0  0  0  0  0  0  0  0  0  0  0
    6.7332  -14.1994   25.7869 C   0  0  0  0  0  0  0  0  0  0  0  0
    7.1517  -14.2801   27.1211 C   0  0  0  0  0  0  0  0  0  0  0  0
    7.3858  -13.1652   27.8958 C   0  0  0  0  0  0  0  0  0  0  0  0
    7.2071  -11.9025   27.3563 C   0  0  0  0  0  0  0  0  0  0  0  0
    6.7953  -11.7908   26.0448 C   0  0  0  0  0  0  0  0  0  0  0  0
    6.5722  -12.9240   25.3047 C   0  0  0  0  0  0  0  0  0  0  0  0
    8.8650  -16.2471   25.0144 C   0  0  0  0  0  0  0  0  0  0  0  0
    8.8533  -17.2204   25.8485 O   0  0  0  0  0  0  0  0  0  0  0  0
   10.0950  -15.5471   24.9460 N   0  0  0  0  0  0  0  0  0  0  0  0
   11.3153  -16.0486   25.5837 C   0  0  1  0  0  0  0  0  0  0  0  0
   12.5188  -15.6828   24.7295 C   0  0  0  0  0  0  0  0  0  0  0  0
   12.8573  -16.6851   23.6815 C   0  0  0  0  0  0  0  0  0  0  0  0
   14.0873  -16.1443   22.9280 C   0  0  0  0  0  0  0  0  0  0  0  0
   14.4180  -17.0486   21.7596 C   0  0  0  0  0  0  0  0  0  0  0  0
   15.4148  -16.5155   20.8845 N   0  0  0  0  0  0  0  0  0  0  0  0
   11.4472  -15.7063   26.9903 C   0  0  0  0  0  0  0  0  0  0  0  0
   12.1583  -16.4931   27.9053 O   0  0  0  0  0  0  0  0  0  0  0  0
   10.9333  -14.6674   27.5184 O   0  0  0  0  0  0  0  0  0  0  0  0
  2  1  1  6
  3  2  1  0
  4  3  1  0
  4  5  2  0
  6  5  1  0
  7  6  1  0
  8  7  2  0
  9  8  1  0
 10  9  2  0
 10 11  1  0
 11 12  2  0
 12  7  1  0
 12  4  1  0
 13 14  2  0
 13  2  1  0
 15 13  1  0
 16 17  1  1
 16 15  1  0
 18 17  1  0
 18 23  1  0
 19 18  2  0
 20 19  1  0
 20 21  2  0
 21 22  1  0
 22 23  2  0
 24 16  1  0
 25 24  2  0
 26 24  1  0
 27 26  1  0
 28 29  1  0
 27 28  1  6
 30 29  1  0
 31 30  1  0
 32 31  1  0
 33 34  1  0
 33 27  1  0
 35 33  2  0
M  END
$$$$
