RLY.pdb
     RDKit          3D

 32 32  0  0  1  0  0  0  0  0999 V2000
   18.5956  -18.0460  -16.2224 N   0  0  0  0  0  0  0  0  0  0  0  0
   19.1549  -18.4816  -17.4593 C   0  0  0  0  0  0  0  0  0  0  0  0
   18.8898  -17.8502  -18.5728 N   0  0  0  0  0  0  0  0  0  0  0  0
   20.0140  -19.5986  -17.5601 N   0  0  0  0  0  0  0  0  0  0  0  0
   20.1806  -20.5074  -16.4516 C   0  0  0  0  0  0  0  0  0  0  0  0
   21.3564  -20.0664  -15.6416 C   0  0  0  0  0  0  0  0  0  0  0  0
   21.6807  -20.9465  -14.4846 C   0  0  0  0  0  0  0  0  0  0  0  0
   20.8603  -20.6461  -13.2564 C   0  0  2  0  0  0  0  0  0  0  0  0
   20.9672  -19.2805  -12.8173 N   0  0  0  0  0  0  0  0  0  0  0  0
   21.2268  -21.5268  -12.1189 C   0  0  0  0  0  0  0  0  0  0  0  0
   21.3182  -22.7728  -12.2543 O   0  0  0  0  0  0  0  0  0  0  0  0
   19.3790  -18.1639  -19.4431 C   0  0  0  0  0  0  0  0  0  0  0  0
   24.6533  -19.9264   -8.0353 C   0  0  1  0  0  0  0  0  0  0  0  0
   23.9483  -20.6763   -9.1755 C   0  0  0  0  0  0  0  0  0  0  0  0
   24.8786  -21.6847   -9.7554 C   0  0  0  0  0  0  0  0  0  0  0  0
   22.6642  -21.2667   -8.6771 C   0  0  2  0  0  0  0  0  0  0  0  0
   21.7785  -21.8615   -9.6968 N   0  0  0  0  0  0  0  0  0  0  0  0
   21.4934  -21.0041  -10.8139 C   0  0  0  0  0  0  0  0  0  0  0  0
   20.5052  -22.4020   -9.0987 O   0  0  0  0  0  0  0  0  0  0  0  0
   19.4588  -21.7044   -9.0943 O   0  0  0  0  0  0  0  0  0  0  0  0
   14.3071  -25.2832   -4.0409 C   0  0  0  0  0  0  0  0  0  0  0  0
   15.4639  -24.8518   -4.6727 C   0  0  0  0  0  0  0  0  0  0  0  0
   15.3645  -23.7647   -5.5354 C   0  0  0  0  0  0  0  0  0  0  0  0
   16.5084  -23.3496   -6.1504 C   0  0  0  0  0  0  0  0  0  0  0  0
   17.7358  -23.9653   -5.9453 C   0  0  0  0  0  0  0  0  0  0  0  0
   18.9285  -23.4561   -6.6549 C   0  0  2  0  0  0  0  0  0  0  0  0
   19.2121  -24.1845   -7.9255 N   0  0  0  0  0  0  0  0  0  0  0  0
   20.4445  -23.6949   -8.5288 C   0  0  0  0  0  0  0  0  0  0  0  0
   18.1013  -24.1194   -8.9123 O   0  0  0  0  0  0  0  0  0  0  0  0
   17.3007  -25.1821   -9.2528 C   0  0  0  0  0  0  0  0  0  0  0  0
   17.8247  -25.0340   -5.0950 C   0  0  0  0  0  0  0  0  0  0  0  0
   16.6686  -25.4680   -4.4615 O   0  0  0  0  0  0  0  0  0  0  0  0
  2  3  2  0
  2  1  1  0
  4  2  1  0
  5  4  1  0
  6  5  1  0
  7  6  1  0
  8  9  1  1
  8  7  1  0
 10 11  2  0
 10  8  1  0
 13 12  1  6
 13 15  1  0
 14 13  1  0
 16 15  1  6
 16 17  1  0
 16 18  1  0
 17 10  1  0
 18 19  2  0
 21 22  2  0
 21 20  1  0
 23 22  1  0
 24 23  2  0
 25 24  1  0
 26 25  1  1
 27 18  1  0
 27 26  1  0
 28 29  1  0
 28 26  1  0
 30 24  1  0
 30 31  2  0
 31 21  1  0
 32 28  2  0
M  END
$$$$
