RLY.pdb
     RDKit          3D

 32 32  0  0  1  0  0  0  0  0999 V2000
   24.4616  -17.4600  -16.2195 N   0  0  0  0  0  0  0  0  0  0  0  0
   23.8341  -17.9132  -17.4167 C   0  0  0  0  0  0  0  0  0  0  0  0
   23.3969  -17.0615  -18.3068 N   0  0  0  0  0  0  0  0  0  0  0  0
   23.6488  -19.2820  -17.7134 N   0  0  0  0  0  0  0  0  0  0  0  0
   23.9916  -20.3015  -16.7513 C   0  0  0  0  0  0  0  0  0  0  0  0
   23.7203  -21.6416  -17.3544 C   0  0  0  0  0  0  0  0  0  0  0  0
   23.9996  -22.7966  -16.4564 C   0  0  0  0  0  0  0  0  0  0  0  0
   25.4041  -22.8028  -15.9095 C   0  0  2  0  0  0  0  0  0  0  0  0
   26.1242  -24.0145  -16.1967 N   0  0  0  0  0  0  0  0  0  0  0  0
   25.4252  -22.5904  -14.4404 C   0  0  0  0  0  0  0  0  0  0  0  0
   25.2049  -23.5307  -13.6364 O   0  0  0  0  0  0  0  0  0  0  0  0
   22.8917  -17.4401  -19.1414 C   0  0  0  0  0  0  0  0  0  0  0  0
   29.4490  -19.8787  -11.8801 C   0  0  2  0  0  0  0  0  0  0  0  0
   28.3592  -20.9268  -12.1508 C   0  0  0  0  0  0  0  0  0  0  0  0
   28.5322  -22.0745  -11.2173 C   0  0  0  0  0  0  0  0  0  0  0  0
   27.0068  -20.2869  -12.0648 C   0  0  2  0  0  0  0  0  0  0  0  0
   25.8584  -21.1303  -12.4496 N   0  0  0  0  0  0  0  0  0  0  0  0
   25.6960  -21.3082  -13.8660 C   0  0  0  0  0  0  0  0  0  0  0  0
   24.5724  -20.6625  -11.8184 O   0  0  0  0  0  0  0  0  0  0  0  0
   24.5781  -19.7152  -10.9912 O   0  0  0  0  0  0  0  0  0  0  0  0
   17.9025  -16.1649  -14.2944 C   0  0  0  0  0  0  0  0  0  0  0  0
   19.0175  -16.9598  -14.0747 C   0  0  0  0  0  0  0  0  0  0  0  0
   19.5429  -16.9979  -12.7869 C   0  0  0  0  0  0  0  0  0  0  0  0
   20.6388  -17.7831  -12.5832 C   0  0  0  0  0  0  0  0  0  0  0  0
   21.2289  -18.5248  -13.5977 C   0  0  0  0  0  0  0  0  0  0  0  0
   22.4189  -19.3479  -13.2944 C   0  0  1  0  0  0  0  0  0  0  0  0
   22.1396  -20.4525  -12.3315 N   0  0  0  0  0  0  0  0  0  0  0  0
   23.3317  -21.2655  -12.1298 C   0  0  0  0  0  0  0  0  0  0  0  0
   20.9956  -21.3161  -12.7284 O   0  0  0  0  0  0  0  0  0  0  0  0
   19.6903  -21.0928  -12.3647 C   0  0  0  0  0  0  0  0  0  0  0  0
   20.7057  -18.4815  -14.8616 C   0  0  0  0  0  0  0  0  0  0  0  0
   19.5900  -17.6867  -15.0844 O   0  0  0  0  0  0  0  0  0  0  0  0
  2  3  2  0
  2  1  1  0
  4  2  1  0
  5  4  1  0
  6  5  1  0
  7  6  1  0
  8  9  1  1
  8  7  1  0
 10 11  2  0
 10  8  1  0
 13 12  1  6
 13 15  1  0
 14 13  1  0
 16 15  1  1
 16 17  1  0
 16 18  1  0
 17 10  1  0
 18 19  2  0
 21 22  2  0
 21 20  1  0
 23 22  1  0
 24 23  2  0
 25 24  1  0
 26 25  1  1
 27 18  1  0
 27 26  1  0
 28 29  1  0
 28 26  1  0
 30 24  1  0
 30 31  2  0
 31 21  1  0
 32 28  2  0
M  END
$$$$
