RLY.pdb
     RDKit          3D

 32 32  0  0  1  0  0  0  0  0999 V2000
   29.0718  -28.1391  -16.1188 N   0  0  0  0  0  0  0  0  0  0  0  0
   27.8798  -28.7308  -16.6302 C   0  0  0  0  0  0  0  0  0  0  0  0
   27.6206  -29.9960  -16.4278 N   0  0  0  0  0  0  0  0  0  0  0  0
   26.9213  -28.0044  -17.3716 N   0  0  0  0  0  0  0  0  0  0  0  0
   27.1191  -26.6062  -17.6688 C   0  0  0  0  0  0  0  0  0  0  0  0
   27.5087  -25.8984  -16.4116 C   0  0  0  0  0  0  0  0  0  0  0  0
   26.5194  -24.8946  -15.9300 C   0  0  0  0  0  0  0  0  0  0  0  0
   26.1315  -23.8858  -16.9804 C   0  0  2  0  0  0  0  0  0  0  0  0
   27.1943  -23.5808  -17.9005 N   0  0  0  0  0  0  0  0  0  0  0  0
   25.6639  -22.6126  -16.3768 C   0  0  0  0  0  0  0  0  0  0  0  0
   24.7376  -22.5880  -15.5280 O   0  0  0  0  0  0  0  0  0  0  0  0
   26.7264  -30.3811  -16.8115 C   0  0  0  0  0  0  0  0  0  0  0  0
   28.8208  -17.9134  -16.8528 C   0  0  1  0  0  0  0  0  0  0  0  0
   28.0726  -19.1787  -16.4073 C   0  0  0  0  0  0  0  0  0  0  0  0
   28.5541  -19.5906  -15.0593 C   0  0  0  0  0  0  0  0  0  0  0  0
   26.5941  -18.9413  -16.4656 C   0  0  2  0  0  0  0  0  0  0  0  0
   25.7329  -20.1125  -16.2108 N   0  0  0  0  0  0  0  0  0  0  0  0
   26.2414  -21.3520  -16.7298 C   0  0  0  0  0  0  0  0  0  0  0  0
   24.3140  -19.8846  -16.6644 O   0  0  0  0  0  0  0  0  0  0  0  0
   23.7022  -20.7742  -17.3093 O   0  0  0  0  0  0  0  0  0  0  0  0
   17.1909  -20.1182  -12.2781 C   0  0  0  0  0  0  0  0  0  0  0  0
   18.4515  -19.9312  -12.8252 C   0  0  0  0  0  0  0  0  0  0  0  0
   19.0389  -21.0075  -13.4829 C   0  0  0  0  0  0  0  0  0  0  0  0
   20.2781  -20.8115  -14.0167 C   0  0  0  0  0  0  0  0  0  0  0  0
   20.9514  -19.6009  -13.9242 C   0  0  0  0  0  0  0  0  0  0  0  0
   22.2952  -19.4722  -14.5267 C   0  0  2  0  0  0  0  0  0  0  0  0
   22.2962  -18.6973  -15.8014 N   0  0  0  0  0  0  0  0  0  0  0  0
   23.6312  -18.6782  -16.3846 C   0  0  0  0  0  0  0  0  0  0  0  0
   21.7839  -17.3086  -15.6568 O   0  0  0  0  0  0  0  0  0  0  0  0
   22.5788  -16.1982  -15.5105 C   0  0  0  0  0  0  0  0  0  0  0  0
   20.3663  -18.5474  -13.2755 C   0  0  0  0  0  0  0  0  0  0  0  0
   19.1049  -18.7317  -12.7269 O   0  0  0  0  0  0  0  0  0  0  0  0
  2  3  2  0
  2  1  1  0
  4  2  1  0
  5  4  1  0
  6  5  1  0
  7  6  1  0
  8  9  1  6
  8  7  1  0
 10 11  2  0
 10  8  1  0
 13 12  1  6
 13 15  1  0
 14 13  1  0
 16 15  1  1
 16 17  1  0
 16 18  1  0
 17 10  1  0
 18 19  2  0
 21 22  2  0
 21 20  1  0
 23 22  1  0
 24 23  2  0
 25 24  1  0
 26 25  1  6
 27 18  1  0
 27 26  1  0
 28 29  1  0
 28 26  1  0
 30 24  1  0
 30 31  2  0
 31 21  1  0
 32 28  2  0
M  END
$$$$
