RLY.pdb
     RDKit          3D

 32 32  0  0  1  0  0  0  0  0999 V2000
   26.1307  -33.6666  -13.9455 N   0  0  0  0  0  0  0  0  0  0  0  0
   25.1283  -33.2173  -14.8542 C   0  0  0  0  0  0  0  0  0  0  0  0
   25.4062  -32.3276  -15.7707 N   0  0  0  0  0  0  0  0  0  0  0  0
   23.7988  -33.6945  -14.8251 N   0  0  0  0  0  0  0  0  0  0  0  0
   23.3257  -34.5025  -13.7270 C   0  0  0  0  0  0  0  0  0  0  0  0
   21.9087  -34.1301  -13.4325 C   0  0  0  0  0  0  0  0  0  0  0  0
   21.3045  -34.8465  -12.2749 C   0  0  0  0  0  0  0  0  0  0  0  0
   22.3264  -35.4346  -11.3360 C   0  0  2  0  0  0  0  0  0  0  0  0
   22.0202  -36.7793  -10.9270 N   0  0  0  0  0  0  0  0  0  0  0  0
   22.4943  -34.6075  -10.1147 C   0  0  0  0  0  0  0  0  0  0  0  0
   21.7214  -34.7228   -9.1306 O   0  0  0  0  0  0  0  0  0  0  0  0
   26.3909  -31.9792  -15.8337 C   0  0  0  0  0  0  0  0  0  0  0  0
   27.3979  -33.1463   -7.7929 C   0  0  1  0  0  0  0  0  0  0  0  0
   25.9672  -33.6459   -8.0435 C   0  0  0  0  0  0  0  0  0  0  0  0
   25.4627  -34.3371   -6.8243 C   0  0  0  0  0  0  0  0  0  0  0  0
   25.1009  -32.5051   -8.4838 C   0  0  2  0  0  0  0  0  0  0  0  0
   23.7014  -32.8364   -8.8151 N   0  0  0  0  0  0  0  0  0  0  0  0
   23.5409  -33.6391   -9.9958 C   0  0  0  0  0  0  0  0  0  0  0  0
   22.8265  -31.6110   -8.8784 O   0  0  0  0  0  0  0  0  0  0  0  0
   22.6713  -30.8875   -7.8615 O   0  0  0  0  0  0  0  0  0  0  0  0
   18.9105  -24.4825  -12.1420 C   0  0  0  0  0  0  0  0  0  0  0  0
   19.6589  -25.6227  -11.8908 C   0  0  0  0  0  0  0  0  0  0  0  0
   19.9421  -26.4617  -12.9641 C   0  0  0  0  0  0  0  0  0  0  0  0
   20.6788  -27.5794  -12.7047 C   0  0  0  0  0  0  0  0  0  0  0  0
   21.1410  -27.8946  -11.4341 C   0  0  0  0  0  0  0  0  0  0  0  0
   21.9301  -29.1290  -11.2366 C   0  0  1  0  0  0  0  0  0  0  0  0
   21.4060  -29.9924  -10.1388 N   0  0  0  0  0  0  0  0  0  0  0  0
   22.1582  -31.2381  -10.0677 C   0  0  0  0  0  0  0  0  0  0  0  0
   19.9514  -30.2817  -10.2489 O   0  0  0  0  0  0  0  0  0  0  0  0
   18.9565  -29.4415   -9.8122 C   0  0  0  0  0  0  0  0  0  0  0  0
   20.8579  -27.0638  -10.3840 C   0  0  0  0  0  0  0  0  0  0  0  0
   20.1089  -25.9221  -10.6324 O   0  0  0  0  0  0  0  0  0  0  0  0
  2  3  2  0
  2  1  1  0
  4  2  1  0
  5  4  1  0
  6  5  1  0
  7  6  1  0
  8  9  1  1
  8  7  1  0
 10 11  2  0
 10  8  1  0
 13 12  1  6
 13 15  1  0
 14 13  1  0
 16 15  1  1
 16 17  1  0
 16 18  1  0
 17 10  1  0
 18 19  2  0
 21 22  2  0
 21 20  1  0
 23 22  1  0
 24 23  2  0
 25 24  1  0
 26 25  1  1
 27 18  1  0
 27 26  1  0
 28 29  1  0
 28 26  1  0
 30 24  1  0
 30 31  2  0
 31 21  1  0
 32 28  2  0
M  END
$$$$
