RLY.pdb
     RDKit          3D

 32 32  0  0  1  0  0  0  0  0999 V2000
   22.4909  -19.0902  -17.3127 N   0  0  0  0  0  0  0  0  0  0  0  0
   22.1959  -18.0965  -18.2915 C   0  0  0  0  0  0  0  0  0  0  0  0
   21.0193  -18.0445  -18.8589 N   0  0  0  0  0  0  0  0  0  0  0  0
   23.1345  -17.1239  -18.7025 N   0  0  0  0  0  0  0  0  0  0  0  0
   24.4524  -17.0724  -18.1169 C   0  0  0  0  0  0  0  0  0  0  0  0
   24.3371  -16.5564  -16.7192 C   0  0  0  0  0  0  0  0  0  0  0  0
   25.2120  -17.2424  -15.7280 C   0  0  0  0  0  0  0  0  0  0  0  0
   26.5345  -17.6826  -16.3016 C   0  0  2  0  0  0  0  0  0  0  0  0
   26.4945  -17.9107  -17.7213 N   0  0  0  0  0  0  0  0  0  0  0  0
   27.0349  -18.9187  -15.6493 C   0  0  0  0  0  0  0  0  0  0  0  0
   26.9545  -20.0389  -16.2130 O   0  0  0  0  0  0  0  0  0  0  0  0
   20.8430  -17.2821  -19.5537 C   0  0  0  0  0  0  0  0  0  0  0  0
   30.2626  -22.0800  -13.0603 C   0  0  2  0  0  0  0  0  0  0  0  0
   29.6382  -21.1435  -12.0151 C   0  0  0  0  0  0  0  0  0  0  0  0
   30.6328  -20.8652  -10.9417 C   0  0  0  0  0  0  0  0  0  0  0  0
   29.1225  -19.9064  -12.6855 C   0  0  1  0  0  0  0  0  0  0  0  0
   28.0617  -20.1021  -13.6928 N   0  0  0  0  0  0  0  0  0  0  0  0
   27.6318  -18.8985  -14.3491 C   0  0  0  0  0  0  0  0  0  0  0  0
   26.8827  -20.8590  -13.1376 O   0  0  0  0  0  0  0  0  0  0  0  0
   27.0575  -21.7898  -12.3101 O   0  0  0  0  0  0  0  0  0  0  0  0
   20.5657  -21.0802   -7.5848 C   0  0  0  0  0  0  0  0  0  0  0  0
   21.5486  -20.8177   -8.5274 C   0  0  0  0  0  0  0  0  0  0  0  0
   22.7890  -21.4244   -8.3567 C   0  0  0  0  0  0  0  0  0  0  0  0
   23.7470  -21.1589   -9.2899 C   0  0  0  0  0  0  0  0  0  0  0  0
   23.5249  -20.3226  -10.3756 C   0  0  0  0  0  0  0  0  0  0  0  0
   24.6190  -20.0830  -11.3405 C   0  0  2  0  0  0  0  0  0  0  0  0
   24.4409  -20.8189  -12.6258 N   0  0  0  0  0  0  0  0  0  0  0  0
   25.5571  -20.5529  -13.5235 C   0  0  0  0  0  0  0  0  0  0  0  0
   23.1547  -20.5223  -13.3109 O   0  0  0  0  0  0  0  0  0  0  0  0
   22.9757  -19.5135  -14.2255 C   0  0  0  0  0  0  0  0  0  0  0  0
   22.3017  -19.7299  -10.5359 C   0  0  0  0  0  0  0  0  0  0  0  0
   21.3164  -19.9906   -9.5940 O   0  0  0  0  0  0  0  0  0  0  0  0
  2  3  2  0
  2  1  1  0
  4  2  1  0
  5  4  1  0
  6  5  1  0
  7  6  1  0
  8  9  1  6
  8  7  1  0
 10 11  2  0
 10  8  1  0
 13 12  1  1
 13 15  1  0
 14 13  1  0
 16 15  1  6
 16 17  1  0
 16 18  1  0
 17 10  1  0
 18 19  2  0
 21 22  2  0
 21 20  1  0
 23 22  1  0
 24 23  2  0
 25 24  1  0
 26 25  1  1
 27 18  1  0
 27 26  1  0
 28 29  1  0
 28 26  1  0
 30 24  1  0
 30 31  2  0
 31 21  1  0
 32 28  2  0
M  END
$$$$
