RLY.pdb
     RDKit          3D

 32 32  0  0  1  0  0  0  0  0999 V2000
   27.0523  -23.2898  -19.5969 N   0  0  0  0  0  0  0  0  0  0  0  0
   26.5163  -23.9496  -20.7414 C   0  0  0  0  0  0  0  0  0  0  0  0
   26.7766  -23.5161  -21.9469 N   0  0  0  0  0  0  0  0  0  0  0  0
   25.6880  -25.0905  -20.6497 N   0  0  0  0  0  0  0  0  0  0  0  0
   25.2961  -25.6202  -19.3659 C   0  0  0  0  0  0  0  0  0  0  0  0
   24.2011  -24.7691  -18.8092 C   0  0  0  0  0  0  0  0  0  0  0  0
   24.2196  -24.6215  -17.3272 C   0  0  0  0  0  0  0  0  0  0  0  0
   25.6075  -24.4746  -16.7582 C   0  0  2  0  0  0  0  0  0  0  0  0
   26.1732  -25.7163  -16.3028 N   0  0  0  0  0  0  0  0  0  0  0  0
   25.6422  -23.5103  -15.6301 C   0  0  0  0  0  0  0  0  0  0  0  0
   25.6456  -23.8964  -14.4342 O   0  0  0  0  0  0  0  0  0  0  0  0
   26.3097  -23.9948  -22.7519 C   0  0  0  0  0  0  0  0  0  0  0  0
   28.7221  -18.8637  -16.0662 C   0  0  1  0  0  0  0  0  0  0  0  0
   28.0845  -20.2014  -15.6620 C   0  0  0  0  0  0  0  0  0  0  0  0
   28.9569  -20.8860  -14.6676 C   0  0  0  0  0  0  0  0  0  0  0  0
   26.6878  -19.9701  -15.1706 C   0  0  2  0  0  0  0  0  0  0  0  0
   25.9260  -21.1709  -14.7757 N   0  0  0  0  0  0  0  0  0  0  0  0
   25.6726  -22.0960  -15.8454 C   0  0  0  0  0  0  0  0  0  0  0  0
   24.6487  -20.8229  -14.0558 O   0  0  0  0  0  0  0  0  0  0  0  0
   24.6668  -20.0405  -13.0713 O   0  0  0  0  0  0  0  0  0  0  0  0
   17.5805  -19.9669   -9.5148 C   0  0  0  0  0  0  0  0  0  0  0  0
   18.7564  -20.2423  -10.1964 C   0  0  0  0  0  0  0  0  0  0  0  0
   18.8228  -21.4277  -10.9221 C   0  0  0  0  0  0  0  0  0  0  0  0
   19.9838  -21.6872  -11.5882 C   0  0  0  0  0  0  0  0  0  0  0  0
   21.0718  -20.8251  -11.5626 C   0  0  0  0  0  0  0  0  0  0  0  0
   22.2966  -21.1831  -12.3089 C   0  0  2  0  0  0  0  0  0  0  0  0
   22.1730  -20.9671  -13.7798 N   0  0  0  0  0  0  0  0  0  0  0  0
   23.4025  -21.3578  -14.4568 C   0  0  0  0  0  0  0  0  0  0  0  0
   21.8083  -19.5738  -14.1505 O   0  0  0  0  0  0  0  0  0  0  0  0
   20.5537  -19.0340  -14.0061 C   0  0  0  0  0  0  0  0  0  0  0  0
   20.9980  -19.6613  -10.8463 C   0  0  0  0  0  0  0  0  0  0  0  0
   19.8225  -19.3832  -10.1630 O   0  0  0  0  0  0  0  0  0  0  0  0
  2  3  2  0
  2  1  1  0
  4  2  1  0
  5  4  1  0
  6  5  1  0
  7  6  1  0
  8  9  1  1
  8  7  1  0
 10 11  2  0
 10  8  1  0
 13 12  1  6
 13 15  1  0
 14 13  1  0
 16 15  1  1
 16 17  1  0
 16 18  1  0
 17 10  1  0
 18 19  2  0
 21 22  2  0
 21 20  1  0
 23 22  1  0
 24 23  2  0
 25 24  1  0
 26 25  1  6
 27 18  1  0
 27 26  1  0
 28 29  1  0
 28 26  1  0
 30 24  1  0
 30 31  2  0
 31 21  1  0
 32 28  2  0
M  END
$$$$
