RLY.pdb
     RDKit          3D

 32 32  0  0  1  0  0  0  0  0999 V2000
   26.4877  -26.7974  -18.2480 N   0  0  0  0  0  0  0  0  0  0  0  0
   27.2115  -28.0002  -18.4970 C   0  0  0  0  0  0  0  0  0  0  0  0
   26.5877  -29.1006  -18.8269 N   0  0  0  0  0  0  0  0  0  0  0  0
   28.6192  -28.0795  -18.4068 N   0  0  0  0  0  0  0  0  0  0  0  0
   29.4067  -26.9172  -18.0732 C   0  0  0  0  0  0  0  0  0  0  0  0
   29.1601  -26.5645  -16.6421 C   0  0  0  0  0  0  0  0  0  0  0  0
   29.8265  -25.3132  -16.1855 C   0  0  0  0  0  0  0  0  0  0  0  0
   29.6450  -24.1578  -17.1363 C   0  0  2  0  0  0  0  0  0  0  0  0
   30.8841  -23.6470  -17.6586 N   0  0  0  0  0  0  0  0  0  0  0  0
   28.9118  -23.0326  -16.5037 C   0  0  0  0  0  0  0  0  0  0  0  0
   29.2077  -22.6173  -15.3552 O   0  0  0  0  0  0  0  0  0  0  0  0
   27.1636  -29.9546  -19.0114 C   0  0  0  0  0  0  0  0  0  0  0  0
   28.7442  -18.3206  -18.4629 C   0  0  1  0  0  0  0  0  0  0  0  0
   28.7082  -19.4592  -17.4326 C   0  0  0  0  0  0  0  0  0  0  0  0
   29.2940  -18.9843  -16.1481 C   0  0  0  0  0  0  0  0  0  0  0  0
   27.3080  -19.9752  -17.2947 C   0  0  2  0  0  0  0  0  0  0  0  0
   27.1494  -21.2515  -16.5707 N   0  0  0  0  0  0  0  0  0  0  0  0
   27.8336  -22.3653  -17.1668 C   0  0  0  0  0  0  0  0  0  0  0  0
   25.7019  -21.5859  -16.3179 O   0  0  0  0  0  0  0  0  0  0  0  0
   25.0515  -22.2658  -17.1524 O   0  0  0  0  0  0  0  0  0  0  0  0
   18.0562  -23.1726  -12.4007 C   0  0  0  0  0  0  0  0  0  0  0  0
   19.3686  -22.8098  -12.6637 C   0  0  0  0  0  0  0  0  0  0  0  0
   20.2290  -23.7923  -13.1439 C   0  0  0  0  0  0  0  0  0  0  0  0
   21.5166  -23.4235  -13.3991 C   0  0  0  0  0  0  0  0  0  0  0  0
   21.9800  -22.1303  -13.1981 C   0  0  0  0  0  0  0  0  0  0  0  0
   23.3931  -21.8135  -13.4953 C   0  0  1  0  0  0  0  0  0  0  0  0
   23.6315  -21.4790  -14.9294 N   0  0  0  0  0  0  0  0  0  0  0  0
   25.0340  -21.1517  -15.1495 C   0  0  0  0  0  0  0  0  0  0  0  0
   22.7666  -20.3815  -15.4387 O   0  0  0  0  0  0  0  0  0  0  0  0
   21.5103  -20.5617  -15.9636 C   0  0  0  0  0  0  0  0  0  0  0  0
   21.1271  -21.1700  -12.7256 C   0  0  0  0  0  0  0  0  0  0  0  0
   19.8131  -21.5303  -12.4612 O   0  0  0  0  0  0  0  0  0  0  0  0
  2  3  2  0
  2  1  1  0
  4  2  1  0
  5  4  1  0
  6  5  1  0
  7  6  1  0
  8  9  1  1
  8  7  1  0
 10 11  2  0
 10  8  1  0
 13 12  1  6
 13 15  1  0
 14 13  1  0
 16 15  1  1
 16 17  1  0
 16 18  1  0
 17 10  1  0
 18 19  2  0
 21 22  2  0
 21 20  1  0
 23 22  1  0
 24 23  2  0
 25 24  1  0
 26 25  1  6
 27 18  1  0
 27 26  1  0
 28 29  1  0
 28 26  1  0
 30 24  1  0
 30 31  2  0
 31 21  1  0
 32 28  2  0
M  END
$$$$
