DNM.pdb
     RDKit          3D

 25 24  0  0  1  0  0  0  0  0999 V2000
   19.4709  -11.3475  -16.6201 N   0  0  0  0  0  0  0  0  0  0  0  0
   18.3315  -10.6324  -16.1134 C   0  0  1  0  0  0  0  0  0  0  0  0
   17.6842  -11.4699  -15.0318 C   0  0  0  0  0  0  0  0  0  0  0  0
   17.2141  -12.7676  -15.5490 C   0  0  0  0  0  0  0  0  0  0  0  0
   17.3555  -13.0977  -16.7509 O   0  0  0  0  0  0  0  0  0  0  0  0
   18.7033   -9.3255  -15.5185 C   0  0  0  0  0  0  0  0  0  0  0  0
   18.1491   -8.9257  -14.4628 O   0  0  0  0  0  0  0  0  0  0  0  0
   16.5957  -13.6584  -14.6913 O   0  0  0  0  0  0  0  0  0  0  0  0
   21.5686   -5.4133  -13.5142 N   0  0  0  0  0  0  0  0  0  0  0  0
   21.5151   -6.7902  -13.2694 C   0  0  0  0  0  0  0  0  0  0  0  0
   22.1241   -7.2048  -12.2341 O   0  0  0  0  0  0  0  0  0  0  0  0
   20.8377   -7.8074  -14.0701 C   0  0  0  0  0  0  0  0  0  0  0  0
   20.2513   -7.3451  -15.3558 C   0  0  2  0  0  0  0  0  0  0  0  0
   19.6870   -8.4535  -16.0837 N   0  0  0  0  0  0  0  0  0  0  0  0
   21.1378   -6.5118  -16.1770 C   0  0  0  0  0  0  0  0  0  0  0  0
   22.2372   -6.9966  -16.5430 O   0  0  0  0  0  0  0  0  0  0  0  0
   20.3020   -5.2164  -22.8692 C   0  0  0  0  0  0  0  0  0  0  0  0
   19.7788   -4.4444  -21.3159 S   0  0  0  0  0  0  0  0  0  0  0  0
   20.9630   -4.7464  -20.0012 C   0  0  0  0  0  0  0  0  0  0  0  0
   20.5361   -4.1768  -18.6803 C   0  0  0  0  0  0  0  0  0  0  0  0
   21.5135   -4.4418  -17.5677 C   0  0  2  0  0  0  0  0  0  0  0  0
   20.7709   -5.2003  -16.5487 N   0  0  0  0  0  0  0  0  0  0  0  0
   22.0898   -3.2115  -16.9856 C   0  0  0  0  0  0  0  0  0  0  0  0
   21.5100   -2.6413  -16.0314 O   0  0  0  0  0  0  0  0  0  0  0  0
   23.2657   -2.6527  -17.4603 O   0  0  0  0  0  0  0  0  0  0  0  0
  2  3  1  0
  2  1  1  1
  3  4  1  0
  4  8  1  0
  4  5  2  0
  6  2  1  0
  6  7  2  0
  9 10  1  0
 10 12  1  0
 10 11  2  0
 13 12  1  1
 13 14  1  0
 13 15  1  0
 14  6  1  0
 15 22  1  0
 16 15  2  0
 18 19  1  0
 18 17  1  0
 20 19  1  0
 21 20  1  6
 21 23  1  0
 22 21  1  0
 23 24  2  0
 23 25  1  0
M  END
$$$$
