DNM.pdb
     RDKit          3D

 25 24  0  0  1  0  0  0  0  0999 V2000
   15.5756  -11.6348  -10.5640 N   0  0  0  0  0  0  0  0  0  0  0  0
   15.2844  -10.2272  -10.5878 C   0  0  1  0  0  0  0  0  0  0  0  0
   14.2120   -9.9440   -9.5583 C   0  0  0  0  0  0  0  0  0  0  0  0
   12.9557  -10.6515   -9.8643 C   0  0  0  0  0  0  0  0  0  0  0  0
   12.8083  -11.3269  -10.9110 O   0  0  0  0  0  0  0  0  0  0  0  0
   16.4689   -9.3994  -10.2536 C   0  0  0  0  0  0  0  0  0  0  0  0
   17.5046   -9.9319   -9.7789 O   0  0  0  0  0  0  0  0  0  0  0  0
   11.8984  -10.5759   -8.9767 O   0  0  0  0  0  0  0  0  0  0  0  0
   21.0395   -7.0324  -10.4507 N   0  0  0  0  0  0  0  0  0  0  0  0
   20.0579   -7.2548  -11.4231 C   0  0  0  0  0  0  0  0  0  0  0  0
   20.3003   -6.8022  -12.5855 O   0  0  0  0  0  0  0  0  0  0  0  0
   18.7836   -7.9493  -11.2540 C   0  0  0  0  0  0  0  0  0  0  0  0
   17.7546   -7.2420  -10.4468 C   0  0  2  0  0  0  0  0  0  0  0  0
   16.5178   -7.9816  -10.4408 N   0  0  0  0  0  0  0  0  0  0  0  0
   17.5730   -5.8239  -10.7797 C   0  0  0  0  0  0  0  0  0  0  0  0
   17.1274   -5.5337  -11.9177 O   0  0  0  0  0  0  0  0  0  0  0  0
   16.3854    1.0353   -6.9945 C   0  0  0  0  0  0  0  0  0  0  0  0
   17.0927   -0.6328   -6.9984 S   0  0  0  0  0  0  0  0  0  0  0  0
   17.0611   -1.3554   -8.6412 C   0  0  0  0  0  0  0  0  0  0  0  0
   17.5449   -2.7755   -8.6705 C   0  0  0  0  0  0  0  0  0  0  0  0
   17.4271   -3.4224  -10.0236 C   0  0  2  0  0  0  0  0  0  0  0  0
   17.8888   -4.8089   -9.8509 N   0  0  0  0  0  0  0  0  0  0  0  0
   18.2114   -2.7382  -11.0730 C   0  0  0  0  0  0  0  0  0  0  0  0
   19.3382   -3.1807  -11.3988 O   0  0  0  0  0  0  0  0  0  0  0  0
   17.7434   -1.6072  -11.7227 O   0  0  0  0  0  0  0  0  0  0  0  0
  2  3  1  0
  2  1  1  1
  3  4  1  0
  4  8  1  0
  4  5  2  0
  6  2  1  0
  6  7  2  0
  9 10  1  0
 10 12  1  0
 10 11  2  0
 13 12  1  6
 13 14  1  0
 13 15  1  0
 14  6  1  0
 15 22  1  0
 16 15  2  0
 18 19  1  0
 18 17  1  0
 20 19  1  0
 21 20  1  1
 21 23  1  0
 22 21  1  0
 23 24  2  0
 23 25  1  0
M  END
$$$$
