DNM.pdb
     RDKit          3D

 25 24  0  0  1  0  0  0  0  0999 V2000
   16.6186  -12.0959  -17.2466 N   0  0  0  0  0  0  0  0  0  0  0  0
   17.0116  -11.3724  -16.0682 C   0  0  1  0  0  0  0  0  0  0  0  0
   17.7600  -12.3184  -15.1543 C   0  0  0  0  0  0  0  0  0  0  0  0
   16.8791  -13.3658  -14.6071 C   0  0  0  0  0  0  0  0  0  0  0  0
   15.6577  -13.1692  -14.3996 O   0  0  0  0  0  0  0  0  0  0  0  0
   17.9076  -10.2316  -16.3780 C   0  0  0  0  0  0  0  0  0  0  0  0
   18.9319  -10.4009  -17.0877 O   0  0  0  0  0  0  0  0  0  0  0  0
   17.4043  -14.6095  -14.3088 O   0  0  0  0  0  0  0  0  0  0  0  0
   16.8294   -7.2106  -18.5673 N   0  0  0  0  0  0  0  0  0  0  0  0
   16.9469   -6.3537  -17.4669 C   0  0  0  0  0  0  0  0  0  0  0  0
   16.2285   -5.3057  -17.4868 O   0  0  0  0  0  0  0  0  0  0  0  0
   17.8029   -6.5270  -16.2957 C   0  0  0  0  0  0  0  0  0  0  0  0
   18.5609   -7.8040  -16.2220 C   0  0  2  0  0  0  0  0  0  0  0  0
   17.6793   -8.8998  -15.9074 N   0  0  0  0  0  0  0  0  0  0  0  0
   19.7559   -7.7669  -15.3704 C   0  0  0  0  0  0  0  0  0  0  0  0
   19.5983   -7.8025  -14.1246 O   0  0  0  0  0  0  0  0  0  0  0  0
   27.1759  -10.1416  -14.8824 C   0  0  0  0  0  0  0  0  0  0  0  0
   25.6872   -9.8629  -15.8768 S   0  0  0  0  0  0  0  0  0  0  0  0
   24.5227   -8.7916  -15.0293 C   0  0  0  0  0  0  0  0  0  0  0  0
   23.2037   -8.6781  -15.7356 C   0  0  0  0  0  0  0  0  0  0  0  0
   22.2617   -7.6956  -15.0947 C   0  0  2  0  0  0  0  0  0  0  0  0
   21.0500   -7.6931  -15.9295 N   0  0  0  0  0  0  0  0  0  0  0  0
   22.8209   -6.3321  -14.9825 C   0  0  0  0  0  0  0  0  0  0  0  0
   22.7218   -5.5353  -15.9454 O   0  0  0  0  0  0  0  0  0  0  0  0
   23.4617   -5.8907  -13.8358 O   0  0  0  0  0  0  0  0  0  0  0  0
  2  3  1  0
  2  1  1  6
  3  4  1  0
  4  8  1  0
  4  5  2  0
  6  2  1  0
  6  7  2  0
  9 10  1  0
 10 12  1  0
 10 11  2  0
 13 12  1  1
 13 14  1  0
 13 15  1  0
 14  6  1  0
 15 22  1  0
 16 15  2  0
 18 19  1  0
 18 17  1  0
 20 19  1  0
 21 20  1  6
 21 23  1  0
 22 21  1  0
 23 24  2  0
 23 25  1  0
M  END
$$$$
