DNM.pdb
     RDKit          3D

 25 24  0  0  1  0  0  0  0  0999 V2000
   24.2859  -22.2244  -16.5687 N   0  0  0  0  0  0  0  0  0  0  0  0
   24.5027  -21.0085  -15.8333 C   0  0  1  0  0  0  0  0  0  0  0  0
   25.6991  -20.2976  -16.4278 C   0  0  0  0  0  0  0  0  0  0  0  0
   26.9447  -21.0612  -16.2334 C   0  0  0  0  0  0  0  0  0  0  0  0
   26.9567  -22.1904  -15.6873 O   0  0  0  0  0  0  0  0  0  0  0  0
   23.3413  -20.0887  -15.9070 C   0  0  0  0  0  0  0  0  0  0  0  0
   23.1582  -19.3747  -16.9260 O   0  0  0  0  0  0  0  0  0  0  0  0
   28.1450  -20.5262  -16.6627 O   0  0  0  0  0  0  0  0  0  0  0  0
   19.5425  -21.7674  -13.3534 N   0  0  0  0  0  0  0  0  0  0  0  0
   19.5417  -20.6388  -14.1810 C   0  0  0  0  0  0  0  0  0  0  0  0
   18.8708  -20.7266  -15.2566 O   0  0  0  0  0  0  0  0  0  0  0  0
   20.2255  -19.3687  -13.9490 C   0  0  0  0  0  0  0  0  0  0  0  0
   21.2882  -19.0095  -14.9250 C   0  0  2  0  0  0  0  0  0  0  0  0
   22.3769  -19.9513  -14.8590 N   0  0  0  0  0  0  0  0  0  0  0  0
   21.7345  -17.6123  -14.8687 C   0  0  0  0  0  0  0  0  0  0  0  0
   22.2141  -17.1854  -13.7890 O   0  0  0  0  0  0  0  0  0  0  0  0
   26.4923  -15.6787  -14.3346 C   0  0  0  0  0  0  0  0  0  0  0  0
   26.1143  -14.3452  -15.5014 S   0  0  0  0  0  0  0  0  0  0  0  0
   24.3464  -14.1893  -15.7699 C   0  0  0  0  0  0  0  0  0  0  0  0
   23.6220  -15.5019  -15.7066 C   0  0  0  0  0  0  0  0  0  0  0  0
   22.1476  -15.3882  -15.9837 C   0  0  2  0  0  0  0  0  0  0  0  0
   21.6304  -16.7658  -15.9936 N   0  0  0  0  0  0  0  0  0  0  0  0
   21.8396  -14.7061  -17.2581 C   0  0  0  0  0  0  0  0  0  0  0  0
   21.7355  -15.3734  -18.3143 O   0  0  0  0  0  0  0  0  0  0  0  0
   21.6580  -13.3343  -17.3342 O   0  0  0  0  0  0  0  0  0  0  0  0
  2  3  1  0
  2  1  1  6
  3  4  1  0
  4  8  1  0
  4  5  2  0
  6  2  1  0
  6  7  2  0
  9 10  1  0
 10 12  1  0
 10 11  2  0
 13 12  1  1
 13 14  1  0
 13 15  1  0
 14  6  1  0
 15 22  1  0
 16 15  2  0
 18 19  1  0
 18 17  1  0
 20 19  1  0
 21 20  1  6
 21 23  1  0
 22 21  1  0
 23 24  2  0
 23 25  1  0
M  END
$$$$
