DNM.pdb
     RDKit          3D

 25 24  0  0  1  0  0  0  0  0999 V2000
   28.7232  -20.6669  -16.1055 N   0  0  0  0  0  0  0  0  0  0  0  0
   27.6992  -21.6575  -16.2969 C   0  0  1  0  0  0  0  0  0  0  0  0
   28.3657  -23.0026  -16.4878 C   0  0  0  0  0  0  0  0  0  0  0  0
   29.2846  -23.0021  -17.6402 C   0  0  0  0  0  0  0  0  0  0  0  0
   30.0286  -22.0261  -17.8999 O   0  0  0  0  0  0  0  0  0  0  0  0
   26.7875  -21.7603  -15.1314 C   0  0  0  0  0  0  0  0  0  0  0  0
   25.8560  -22.6052  -15.1243 O   0  0  0  0  0  0  0  0  0  0  0  0
   29.3374  -24.1074  -18.4691 O   0  0  0  0  0  0  0  0  0  0  0  0
   24.8899  -21.5935   -9.9944 N   0  0  0  0  0  0  0  0  0  0  0  0
   25.7482  -20.5739  -10.4216 C   0  0  0  0  0  0  0  0  0  0  0  0
   25.7911  -19.5303   -9.6979 O   0  0  0  0  0  0  0  0  0  0  0  0
   26.6022  -20.5725  -11.6071 C   0  0  0  0  0  0  0  0  0  0  0  0
   25.9589  -20.9992  -12.8778 C   0  0  2  0  0  0  0  0  0  0  0  0
   26.8979  -20.9333  -13.9690 N   0  0  0  0  0  0  0  0  0  0  0  0
   24.6830  -20.3386  -13.1787 C   0  0  0  0  0  0  0  0  0  0  0  0
   24.6413  -19.0837  -13.1420 O   0  0  0  0  0  0  0  0  0  0  0  0
   18.8550  -19.4191  -17.9727 C   0  0  0  0  0  0  0  0  0  0  0  0
   20.4267  -20.1639  -17.4651 S   0  0  0  0  0  0  0  0  0  0  0  0
   20.7063  -19.9699  -15.7027 C   0  0  0  0  0  0  0  0  0  0  0  0
   22.0317  -20.5105  -15.2525 C   0  0  0  0  0  0  0  0  0  0  0  0
   22.2320  -20.4463  -13.7628 C   0  0  2  0  0  0  0  0  0  0  0  0
   23.5305  -21.0873  -13.5011 N   0  0  0  0  0  0  0  0  0  0  0  0
   21.1578  -21.1112  -12.9958 C   0  0  0  0  0  0  0  0  0  0  0  0
   21.2261  -22.3413  -12.7634 O   0  0  0  0  0  0  0  0  0  0  0  0
   20.0587  -20.4179  -12.5147 O   0  0  0  0  0  0  0  0  0  0  0  0
  2  3  1  0
  2  1  1  1
  3  4  1  0
  4  8  1  0
  4  5  2  0
  6  2  1  0
  6  7  2  0
  9 10  1  0
 10 12  1  0
 10 11  2  0
 13 12  1  1
 13 14  1  0
 13 15  1  0
 14  6  1  0
 15 22  1  0
 16 15  2  0
 18 19  1  0
 18 17  1  0
 20 19  1  0
 21 20  1  6
 21 23  1  0
 22 21  1  0
 23 24  2  0
 23 25  1  0
M  END
$$$$
