DNM.pdb
     RDKit          3D

 25 24  0  0  1  0  0  0  0  0999 V2000
   14.0550   -9.7767  -11.4333 N   0  0  0  0  0  0  0  0  0  0  0  0
   13.4412   -8.7776  -10.6018 C   0  0  1  0  0  0  0  0  0  0  0  0
   12.8149   -9.4676   -9.4094 C   0  0  0  0  0  0  0  0  0  0  0  0
   11.7715  -10.4265   -9.8148 C   0  0  0  0  0  0  0  0  0  0  0  0
   11.3952  -10.5390  -11.0062 O   0  0  0  0  0  0  0  0  0  0  0  0
   14.4202   -7.7858  -10.0938 C   0  0  0  0  0  0  0  0  0  0  0  0
   14.2111   -7.1819   -9.0107 O   0  0  0  0  0  0  0  0  0  0  0  0
   11.1809  -11.2336   -8.8602 O   0  0  0  0  0  0  0  0  0  0  0  0
   18.2370   -8.7730   -9.7686 N   0  0  0  0  0  0  0  0  0  0  0  0
   18.6235   -7.7301  -10.6181 C   0  0  0  0  0  0  0  0  0  0  0  0
   19.7757   -7.8273  -11.1452 O   0  0  0  0  0  0  0  0  0  0  0  0
   17.8520   -6.5400  -10.9687 C   0  0  0  0  0  0  0  0  0  0  0  0
   16.5182   -6.4111  -10.3244 C   0  0  2  0  0  0  0  0  0  0  0  0
   15.6335   -7.4551  -10.7764 N   0  0  0  0  0  0  0  0  0  0  0  0
   15.9169   -5.0746  -10.4066 C   0  0  0  0  0  0  0  0  0  0  0  0
   15.4210   -4.7132  -11.5027 O   0  0  0  0  0  0  0  0  0  0  0  0
   10.1603   -0.8488   -9.9372 C   0  0  0  0  0  0  0  0  0  0  0  0
   11.2036   -2.3208  -10.1019 S   0  0  0  0  0  0  0  0  0  0  0  0
   12.9016   -1.9780   -9.6312 C   0  0  0  0  0  0  0  0  0  0  0  0
   13.7773   -3.1963   -9.6530 C   0  0  0  0  0  0  0  0  0  0  0  0
   15.2165   -2.9076   -9.3232 C   0  0  2  0  0  0  0  0  0  0  0  0
   15.8935   -4.2136   -9.2881 N   0  0  0  0  0  0  0  0  0  0  0  0
   15.3943   -2.1931   -8.0417 C   0  0  0  0  0  0  0  0  0  0  0  0
   15.5970   -2.8416   -6.9881 O   0  0  0  0  0  0  0  0  0  0  0  0
   15.3450   -0.8108   -7.9559 O   0  0  0  0  0  0  0  0  0  0  0  0
  2  3  1  0
  2  1  1  6
  3  4  1  0
  4  8  1  0
  4  5  2  0
  6  2  1  0
  6  7  2  0
  9 10  1  0
 10 12  1  0
 10 11  2  0
 13 12  1  6
 13 14  1  0
 13 15  1  0
 14  6  1  0
 15 22  1  0
 16 15  2  0
 18 19  1  0
 18 17  1  0
 20 19  1  0
 21 20  1  1
 21 23  1  0
 22 21  1  0
 23 24  2  0
 23 25  1  0
M  END
$$$$
