DNM.pdb
     RDKit          3D

 25 24  0  0  1  0  0  0  0  0999 V2000
   24.4894  -16.7035  -17.9636 N   0  0  0  0  0  0  0  0  0  0  0  0
   24.2695  -15.3862  -18.4955 C   0  0  1  0  0  0  0  0  0  0  0  0
   22.8456  -15.3072  -19.0019 C   0  0  0  0  0  0  0  0  0  0  0  0
   22.5762  -16.3139  -20.0442 C   0  0  0  0  0  0  0  0  0  0  0  0
   23.3046  -16.4359  -21.0582 O   0  0  0  0  0  0  0  0  0  0  0  0
   24.4507  -14.3265  -17.4736 C   0  0  0  0  0  0  0  0  0  0  0  0
   24.0569  -14.5065  -16.2929 O   0  0  0  0  0  0  0  0  0  0  0  0
   21.4885  -17.1570  -19.9113 O   0  0  0  0  0  0  0  0  0  0  0  0
   27.6006  -10.6501  -14.5362 N   0  0  0  0  0  0  0  0  0  0  0  0
   27.0312  -10.5329  -15.8093 C   0  0  0  0  0  0  0  0  0  0  0  0
   26.7730   -9.3540  -16.2072 O   0  0  0  0  0  0  0  0  0  0  0  0
   26.6990  -11.6135  -16.7349 C   0  0  0  0  0  0  0  0  0  0  0  0
   25.2838  -12.0694  -16.7280 C   0  0  2  0  0  0  0  0  0  0  0  0
   25.0663  -13.0643  -17.7477 N   0  0  0  0  0  0  0  0  0  0  0  0
   24.2860  -10.9931  -16.7550 C   0  0  0  0  0  0  0  0  0  0  0  0
   23.9575  -10.5161  -17.8697 O   0  0  0  0  0  0  0  0  0  0  0  0
   18.1464   -8.0205  -12.8164 C   0  0  0  0  0  0  0  0  0  0  0  0
   19.5618   -9.1499  -12.8779 S   0  0  0  0  0  0  0  0  0  0  0  0
   20.6330   -8.7847  -14.2711 C   0  0  0  0  0  0  0  0  0  0  0  0
   21.7838   -9.7395  -14.3967 C   0  0  0  0  0  0  0  0  0  0  0  0
   22.6767   -9.4525  -15.5731 C   0  0  2  0  0  0  0  0  0  0  0  0
   23.7074  -10.5028  -15.5644 N   0  0  0  0  0  0  0  0  0  0  0  0
   23.2973   -8.1120  -15.5272 C   0  0  0  0  0  0  0  0  0  0  0  0
   24.4003   -7.9538  -14.9526 O   0  0  0  0  0  0  0  0  0  0  0  0
   22.6987   -7.0030  -16.1036 O   0  0  0  0  0  0  0  0  0  0  0  0
  2  3  1  0
  2  1  1  1
  3  4  1  0
  4  8  1  0
  4  5  2  0
  6  2  1  0
  6  7  2  0
  9 10  1  0
 10 12  1  0
 10 11  2  0
 13 12  1  6
 13 14  1  0
 13 15  1  0
 14  6  1  0
 15 22  1  0
 16 15  2  0
 18 19  1  0
 18 17  1  0
 20 19  1  0
 21 20  1  1
 21 23  1  0
 22 21  1  0
 23 24  2  0
 23 25  1  0
M  END
$$$$
