ITD.pdb
     RDKit          3D

 24 23  0  0  1  0  0  0  0  0999 V2000
   15.7207  -11.5626  -19.4415 C   0  0  0  0  0  0  0  0  0  0  0  0
   17.0948  -11.9391  -18.9956 C   0  0  0  0  0  0  0  0  0  0  0  0
   17.5690  -11.1192  -17.8008 C   0  0  2  0  0  0  0  0  0  0  0  0
   17.5540   -9.6506  -18.0949 C   0  0  0  0  0  0  0  0  0  0  0  0
   18.9672  -11.6146  -17.4689 C   0  0  2  0  0  0  0  0  0  0  0  0
   18.9412  -13.0528  -17.2936 N   0  0  0  0  0  0  0  0  0  0  0  0
   19.5409  -10.9333  -16.2845 C   0  0  0  0  0  0  0  0  0  0  0  0
   19.0856  -11.1276  -15.1300 O   0  0  0  0  0  0  0  0  0  0  0  0
   22.6818  -11.2436  -14.5521 C   0  0  0  0  0  0  0  0  0  0  0  0
   22.6009   -9.8095  -14.9548 C   0  0  1  0  0  0  0  0  0  0  0  0
   23.4546   -9.4800  -16.0119 O   0  0  0  0  0  0  0  0  0  0  0  0
   21.2321   -9.3376  -15.3117 C   0  0  2  0  0  0  0  0  0  0  0  0
   20.6340  -10.0302  -16.4147 N   0  0  0  0  0  0  0  0  0  0  0  0
   21.1485   -7.8512  -15.4684 C   0  0  0  0  0  0  0  0  0  0  0  0
   20.6690   -7.3742  -16.5276 O   0  0  0  0  0  0  0  0  0  0  0  0
   21.5851   -6.9461  -14.4783 N   0  0  0  0  0  0  0  0  0  0  0  0
   21.5634   -5.4984  -14.6462 C   0  0  1  0  0  0  0  0  0  0  0  0
   20.0983   -5.1023  -14.8205 C   0  0  0  0  0  0  0  0  0  0  0  0
   19.9311   -3.6423  -14.8620 C   0  0  0  0  0  0  0  0  0  0  0  0
   20.9207   -2.8566  -14.9445 O   0  0  0  0  0  0  0  0  0  0  0  0
   22.1451   -4.8088  -13.4722 C   0  0  0  0  0  0  0  0  0  0  0  0
   22.5008   -5.5601  -12.3646 O   0  0  0  0  0  0  0  0  0  0  0  0
   18.6711   -3.0555  -14.8123 O   0  0  0  0  0  0  0  0  0  0  0  0
   22.3374   -3.5721  -13.4194 O   0  0  0  0  0  0  0  0  0  0  0  0
  2  1  1  0
  3  2  1  0
  3  5  1  0
  3  4  1  6
  5  7  1  0
  5  6  1  1
  7  8  2  0
 10 12  1  0
 10 11  1  0
 10  9  1  6
 12 13  1  6
 13  7  1  0
 14 12  1  0
 14 15  2  0
 16 14  1  0
 17 16  1  0
 17 21  1  0
 17 18  1  1
 19 23  1  0
 19 18  1  0
 20 19  2  0
 21 22  1  0
 24 21  2  0
M  END
$$$$
