ITD.pdb
     RDKit          3D

 24 23  0  0  1  0  0  0  0  0999 V2000
   25.3117  -12.0860  -16.3317 C   0  0  0  0  0  0  0  0  0  0  0  0
   23.8709  -12.3953  -16.5708 C   0  0  0  0  0  0  0  0  0  0  0  0
   23.1490  -12.8425  -15.3045 C   0  0  2  0  0  0  0  0  0  0  0  0
   23.6948  -14.1360  -14.7825 C   0  0  0  0  0  0  0  0  0  0  0  0
   21.6773  -12.9558  -15.6676 C   0  0  2  0  0  0  0  0  0  0  0  0
   21.5158  -13.9242  -16.7334 N   0  0  0  0  0  0  0  0  0  0  0  0
   21.0826  -11.6472  -16.0280 C   0  0  0  0  0  0  0  0  0  0  0  0
   20.9828  -11.2779  -17.2245 O   0  0  0  0  0  0  0  0  0  0  0  0
   17.6795  -10.4230  -15.8276 C   0  0  0  0  0  0  0  0  0  0  0  0
   18.4997   -9.4807  -15.0122 C   0  0  1  0  0  0  0  0  0  0  0  0
   18.3407   -9.6550  -13.6341 O   0  0  0  0  0  0  0  0  0  0  0  0
   19.9608   -9.5079  -15.3085 C   0  0  2  0  0  0  0  0  0  0  0  0
   20.6010  -10.7584  -15.0253 N   0  0  0  0  0  0  0  0  0  0  0  0
   20.6996   -8.3497  -14.7136 C   0  0  0  0  0  0  0  0  0  0  0  0
   21.8747   -8.5207  -14.3019 O   0  0  0  0  0  0  0  0  0  0  0  0
   20.1401   -7.0608  -14.5886 N   0  0  0  0  0  0  0  0  0  0  0  0
   20.8993   -5.8924  -14.1608 C   0  0  1  0  0  0  0  0  0  0  0  0
   22.0672   -5.7514  -15.1353 C   0  0  0  0  0  0  0  0  0  0  0  0
   22.8929   -4.5746  -14.8277 C   0  0  0  0  0  0  0  0  0  0  0  0
   23.3285   -4.3483  -13.6604 O   0  0  0  0  0  0  0  0  0  0  0  0
   20.0654   -4.6691  -14.1788 C   0  0  0  0  0  0  0  0  0  0  0  0
   18.8209   -4.7177  -14.7842 O   0  0  0  0  0  0  0  0  0  0  0  0
   23.2346   -3.6520  -15.8108 O   0  0  0  0  0  0  0  0  0  0  0  0
   20.4218   -3.5796  -13.6735 O   0  0  0  0  0  0  0  0  0  0  0  0
  2  1  1  0
  3  2  1  0
  3  5  1  0
  3  4  1  6
  5  7  1  0
  5  6  1  6
  7  8  2  0
 10 12  1  0
 10 11  1  0
 10  9  1  6
 12 13  1  1
 13  7  1  0
 14 12  1  0
 14 15  2  0
 16 14  1  0
 17 16  1  0
 17 21  1  0
 17 18  1  6
 19 23  1  0
 19 18  1  0
 20 19  2  0
 21 22  1  0
 24 21  2  0
M  END
$$$$
