ITD.pdb
     RDKit          3D

 24 23  0  0  1  0  0  0  0  0999 V2000
   16.5259  -14.7179  -17.0678 C   0  0  0  0  0  0  0  0  0  0  0  0
   17.8539  -14.0584  -17.2413 C   0  0  0  0  0  0  0  0  0  0  0  0
   17.9678  -12.7543  -16.4597 C   0  0  2  0  0  0  0  0  0  0  0  0
   16.9172  -11.7685  -16.8696 C   0  0  0  0  0  0  0  0  0  0  0  0
   19.3697  -12.2239  -16.7128 C   0  0  2  0  0  0  0  0  0  0  0  0
   20.3358  -13.2749  -16.4649 N   0  0  0  0  0  0  0  0  0  0  0  0
   19.6676  -11.0125  -15.9129 C   0  0  0  0  0  0  0  0  0  0  0  0
   20.0958  -11.0919  -14.7347 O   0  0  0  0  0  0  0  0  0  0  0  0
   21.7246   -9.5782  -14.4613 C   0  0  0  0  0  0  0  0  0  0  0  0
   21.3212   -8.4804  -15.3873 C   0  0  1  0  0  0  0  0  0  0  0  0
   22.0957   -8.4211  -16.5498 O   0  0  0  0  0  0  0  0  0  0  0  0
   19.8875   -8.5043  -15.7966 C   0  0  2  0  0  0  0  0  0  0  0  0
   19.4780   -9.7096  -16.4550 N   0  0  0  0  0  0  0  0  0  0  0  0
   19.4755   -7.2809  -16.5547 C   0  0  0  0  0  0  0  0  0  0  0  0
   18.9752   -7.4112  -17.7002 O   0  0  0  0  0  0  0  0  0  0  0  0
   19.6210   -5.9734  -16.0455 N   0  0  0  0  0  0  0  0  0  0  0  0
   19.0063   -4.8002  -16.6542 C   0  0  1  0  0  0  0  0  0  0  0  0
   17.4971   -5.0346  -16.6244 C   0  0  0  0  0  0  0  0  0  0  0  0
   16.7583   -3.8907  -17.1783 C   0  0  0  0  0  0  0  0  0  0  0  0
   16.3147   -2.9600  -16.4431 O   0  0  0  0  0  0  0  0  0  0  0  0
   19.3485   -3.5646  -15.9136 C   0  0  0  0  0  0  0  0  0  0  0  0
   19.2794   -2.3492  -16.5738 O   0  0  0  0  0  0  0  0  0  0  0  0
   16.5124   -3.7789  -18.5427 O   0  0  0  0  0  0  0  0  0  0  0  0
   19.7009   -3.5519  -14.7115 O   0  0  0  0  0  0  0  0  0  0  0  0
  2  1  1  0
  3  2  1  0
  3  5  1  0
  3  4  1  6
  5  7  1  0
  5  6  1  1
  7  8  2  0
 10 12  1  0
 10 11  1  0
 10  9  1  6
 12 13  1  6
 13  7  1  0
 14 12  1  0
 14 15  2  0
 16 14  1  0
 17 16  1  0
 17 21  1  0
 17 18  1  1
 19 23  1  0
 19 18  1  0
 20 19  2  0
 21 22  1  0
 24 21  2  0
M  END
$$$$
