ITD.pdb
     RDKit          3D

 24 23  0  0  1  0  0  0  0  0999 V2000
   18.3582  -16.7471  -17.7320 C   0  0  0  0  0  0  0  0  0  0  0  0
   19.6488  -16.0368  -17.9739 C   0  0  0  0  0  0  0  0  0  0  0  0
   19.8718  -14.8797  -17.0064 C   0  0  2  0  0  0  0  0  0  0  0  0
   18.7595  -13.8788  -17.0732 C   0  0  0  0  0  0  0  0  0  0  0  0
   21.2103  -14.2623  -17.3779 C   0  0  2  0  0  0  0  0  0  0  0  0
   22.2157  -15.3025  -17.4606 N   0  0  0  0  0  0  0  0  0  0  0  0
   21.6157  -13.1882  -16.4410 C   0  0  0  0  0  0  0  0  0  0  0  0
   21.7549  -13.4063  -15.2118 O   0  0  0  0  0  0  0  0  0  0  0  0
   24.5789  -11.4115  -15.6971 C   0  0  0  0  0  0  0  0  0  0  0  0
   23.6068  -10.3435  -16.0709 C   0  0  1  0  0  0  0  0  0  0  0  0
   23.8592   -9.7759  -17.3235 O   0  0  0  0  0  0  0  0  0  0  0  0
   22.1763  -10.7635  -16.0419 C   0  0  2  0  0  0  0  0  0  0  0  0
   21.8631  -11.8646  -16.9040 N   0  0  0  0  0  0  0  0  0  0  0  0
   21.2274   -9.6198  -16.2222 C   0  0  0  0  0  0  0  0  0  0  0  0
   20.3351   -9.6990  -17.1036 O   0  0  0  0  0  0  0  0  0  0  0  0
   21.2824   -8.4431  -15.4460 N   0  0  0  0  0  0  0  0  0  0  0  0
   20.3782   -7.3148  -15.6307 C   0  0  1  0  0  0  0  0  0  0  0  0
   18.9738   -7.8261  -15.3147 C   0  0  0  0  0  0  0  0  0  0  0  0
   17.9843   -6.7389  -15.3255 C   0  0  0  0  0  0  0  0  0  0  0  0
   18.1259   -5.7111  -16.0514 O   0  0  0  0  0  0  0  0  0  0  0  0
   20.7280   -6.1890  -14.7349 C   0  0  0  0  0  0  0  0  0  0  0  0
   20.0477   -4.9905  -14.8712 O   0  0  0  0  0  0  0  0  0  0  0  0
   16.8416   -6.7912  -14.5342 O   0  0  0  0  0  0  0  0  0  0  0  0
   21.6128   -6.2557  -13.8506 O   0  0  0  0  0  0  0  0  0  0  0  0
  2  1  1  0
  3  2  1  0
  3  5  1  0
  3  4  1  6
  5  7  1  0
  5  6  1  1
  7  8  2  0
 10 12  1  0
 10 11  1  0
 10  9  1  6
 12 13  1  6
 13  7  1  0
 14 12  1  0
 14 15  2  0
 16 14  1  0
 17 16  1  0
 17 21  1  0
 17 18  1  1
 19 23  1  0
 19 18  1  0
 20 19  2  0
 21 22  1  0
 24 21  2  0
M  END
$$$$
