ITD.pdb
     RDKit          3D

 24 23  0  0  1  0  0  0  0  0999 V2000
   29.1260  -12.7209  -16.5364 C   0  0  0  0  0  0  0  0  0  0  0  0
   27.7561  -12.8950  -15.9689 C   0  0  0  0  0  0  0  0  0  0  0  0
   26.8439  -11.7096  -16.2641 C   0  0  2  0  0  0  0  0  0  0  0  0
   27.3150  -10.4633  -15.5798 C   0  0  0  0  0  0  0  0  0  0  0  0
   25.4526  -12.1148  -15.8049 C   0  0  2  0  0  0  0  0  0  0  0  0
   25.1687  -13.4625  -16.2552 N   0  0  0  0  0  0  0  0  0  0  0  0
   24.4104  -11.1614  -16.2533 C   0  0  0  0  0  0  0  0  0  0  0  0
   24.1147  -11.0343  -17.4676 O   0  0  0  0  0  0  0  0  0  0  0  0
   20.8977  -11.1899  -16.0704 C   0  0  0  0  0  0  0  0  0  0  0  0
   21.2827   -9.9268  -15.3763 C   0  0  1  0  0  0  0  0  0  0  0  0
   21.1532   -9.9951  -13.9859 O   0  0  0  0  0  0  0  0  0  0  0  0
   22.6591   -9.4414  -15.6816 C   0  0  2  0  0  0  0  0  0  0  0  0
   23.7042  -10.3523  -15.3185 N   0  0  0  0  0  0  0  0  0  0  0  0
   22.9170   -8.0572  -15.1731 C   0  0  0  0  0  0  0  0  0  0  0  0
   24.1024   -7.6899  -14.9745 O   0  0  0  0  0  0  0  0  0  0  0  0
   21.8876   -7.1317  -14.9014 N   0  0  0  0  0  0  0  0  0  0  0  0
   22.1296   -5.7300  -14.5830 C   0  0  1  0  0  0  0  0  0  0  0  0
   22.8951   -5.1407  -15.7663 C   0  0  0  0  0  0  0  0  0  0  0  0
   23.1752   -3.7103  -15.5744 C   0  0  0  0  0  0  0  0  0  0  0  0
   23.0407   -3.1463  -14.4487 O   0  0  0  0  0  0  0  0  0  0  0  0
   20.8608   -4.9955  -14.3755 C   0  0  0  0  0  0  0  0  0  0  0  0
   20.7829   -4.0747  -13.3441 O   0  0  0  0  0  0  0  0  0  0  0  0
   23.6031   -2.9081  -16.6270 O   0  0  0  0  0  0  0  0  0  0  0  0
   19.8413   -5.1586  -15.0850 O   0  0  0  0  0  0  0  0  0  0  0  0
  2  1  1  0
  3  2  1  0
  3  5  1  0
  3  4  1  1
  5  7  1  0
  5  6  1  6
  7  8  2  0
 10 12  1  0
 10 11  1  0
 10  9  1  6
 12 13  1  1
 13  7  1  0
 14 12  1  0
 14 15  2  0
 16 14  1  0
 17 16  1  0
 17 21  1  0
 17 18  1  6
 19 23  1  0
 19 18  1  0
 20 19  2  0
 21 22  1  0
 24 21  2  0
M  END
$$$$
