ITD.pdb
     RDKit          3D

 24 23  0  0  1  0  0  0  0  0999 V2000
   27.5124  -15.2144  -15.1851 C   0  0  0  0  0  0  0  0  0  0  0  0
   26.0519  -14.9052  -15.1769 C   0  0  0  0  0  0  0  0  0  0  0  0
   25.7354  -13.5517  -15.8033 C   0  0  2  0  0  0  0  0  0  0  0  0
   26.3275  -12.4239  -15.0155 C   0  0  0  0  0  0  0  0  0  0  0  0
   24.2200  -13.4564  -15.8747 C   0  0  2  0  0  0  0  0  0  0  0  0
   23.6850  -14.6799  -16.4374 N   0  0  0  0  0  0  0  0  0  0  0  0
   23.7644  -12.2662  -16.6309 C   0  0  0  0  0  0  0  0  0  0  0  0
   23.6890  -12.2735  -17.8848 O   0  0  0  0  0  0  0  0  0  0  0  0
   21.6578  -11.4008  -18.3510 C   0  0  0  0  0  0  0  0  0  0  0  0
   21.4938  -10.3238  -17.3319 C   0  0  1  0  0  0  0  0  0  0  0  0
   20.5065  -10.6029  -16.3822 O   0  0  0  0  0  0  0  0  0  0  0  0
   22.7411   -9.9630  -16.5987 C   0  0  2  0  0  0  0  0  0  0  0  0
   23.3942  -11.0667  -15.9590 N   0  0  0  0  0  0  0  0  0  0  0  0
   22.5591   -8.8022  -15.6712 C   0  0  0  0  0  0  0  0  0  0  0  0
   22.3973   -9.0198  -14.4440 O   0  0  0  0  0  0  0  0  0  0  0  0
   22.5591   -7.4604  -16.1066 N   0  0  0  0  0  0  0  0  0  0  0  0
   22.4052   -6.3232  -15.2079 C   0  0  1  0  0  0  0  0  0  0  0  0
   22.6674   -5.0705  -16.0421 C   0  0  0  0  0  0  0  0  0  0  0  0
   22.5369   -3.8458  -15.2394 C   0  0  0  0  0  0  0  0  0  0  0  0
   21.6501   -3.7228  -14.3439 O   0  0  0  0  0  0  0  0  0  0  0  0
   21.0454   -6.2754  -14.6239 C   0  0  0  0  0  0  0  0  0  0  0  0
   20.9016   -5.9153  -13.2945 O   0  0  0  0  0  0  0  0  0  0  0  0
   23.3868   -2.7612  -15.4289 O   0  0  0  0  0  0  0  0  0  0  0  0
   20.0047   -6.5442  -15.2673 O   0  0  0  0  0  0  0  0  0  0  0  0
  2  1  1  0
  3  2  1  0
  3  5  1  0
  3  4  1  1
  5  7  1  0
  5  6  1  6
  7  8  2  0
 10 12  1  0
 10 11  1  0
 10  9  1  1
 12 13  1  1
 13  7  1  0
 14 12  1  0
 14 15  2  0
 16 14  1  0
 17 16  1  0
 17 21  1  0
 17 18  1  6
 19 23  1  0
 19 18  1  0
 20 19  2  0
 21 22  1  0
 24 21  2  0
M  END
$$$$
