ITD.pdb
     RDKit          3D

 24 23  0  0  1  0  0  0  0  0999 V2000
   23.4892  -16.2417  -16.6108 C   0  0  0  0  0  0  0  0  0  0  0  0
   22.5662  -15.2051  -16.0610 C   0  0  0  0  0  0  0  0  0  0  0  0
   23.1133  -13.7905  -16.2167 C   0  0  2  0  0  0  0  0  0  0  0  0
   24.3979  -13.6074  -15.4685 C   0  0  0  0  0  0  0  0  0  0  0  0
   22.0277  -12.8532  -15.7130 C   0  0  2  0  0  0  0  0  0  0  0  0
   20.7310  -13.3479  -16.1297 N   0  0  0  0  0  0  0  0  0  0  0  0
   22.2420  -11.4541  -16.1518 C   0  0  0  0  0  0  0  0  0  0  0  0
   23.3322  -10.8626  -15.9528 O   0  0  0  0  0  0  0  0  0  0  0  0
   21.1050   -9.9526  -19.7295 C   0  0  0  0  0  0  0  0  0  0  0  0
   20.6682   -9.1044  -18.5828 C   0  0  1  0  0  0  0  0  0  0  0  0
   19.2922   -9.1619  -18.3414 O   0  0  0  0  0  0  0  0  0  0  0  0
   21.3677   -9.3856  -17.2963 C   0  0  2  0  0  0  0  0  0  0  0  0
   21.2143  -10.7278  -16.8179 N   0  0  0  0  0  0  0  0  0  0  0  0
   21.0700   -8.3724  -16.2353 C   0  0  0  0  0  0  0  0  0  0  0  0
   20.7693   -8.7668  -15.0805 O   0  0  0  0  0  0  0  0  0  0  0  0
   21.1092   -6.9811  -16.4655 N   0  0  0  0  0  0  0  0  0  0  0  0
   20.8840   -5.9869  -15.4237 C   0  0  1  0  0  0  0  0  0  0  0  0
   22.0329   -6.1324  -14.4274 C   0  0  0  0  0  0  0  0  0  0  0  0
   21.9382   -5.1467  -13.3408 C   0  0  0  0  0  0  0  0  0  0  0  0
   20.8419   -4.8927  -12.7602 O   0  0  0  0  0  0  0  0  0  0  0  0
   20.8588   -4.6154  -15.9812 C   0  0  0  0  0  0  0  0  0  0  0  0
   20.0349   -3.6703  -15.3933 O   0  0  0  0  0  0  0  0  0  0  0  0
   23.0552   -4.4454  -12.8992 O   0  0  0  0  0  0  0  0  0  0  0  0
   21.5460   -4.2539  -16.9643 O   0  0  0  0  0  0  0  0  0  0  0  0
  2  1  1  0
  3  2  1  0
  3  5  1  0
  3  4  1  1
  5  7  1  0
  5  6  1  6
  7  8  2  0
 10 12  1  0
 10 11  1  0
 10  9  1  6
 12 13  1  1
 13  7  1  0
 14 12  1  0
 14 15  2  0
 16 14  1  0
 17 16  1  0
 17 21  1  0
 17 18  1  1
 19 23  1  0
 19 18  1  0
 20 19  2  0
 21 22  1  0
 24 21  2  0
M  END
$$$$
