HTD.pdb
     RDKit          3D

 26 26  0  0  1  0  0  0  0  0999 V2000
   13.7564  -10.3283  -10.7201 N   0  0  0  0  0  0  0  0  0  0  0  0
   15.1876  -10.1272  -10.5944 C   0  0  1  0  0  0  0  0  0  0  0  0
   15.8496  -10.8799  -11.7231 C   0  0  0  0  0  0  0  0  0  0  0  0
   15.6497  -12.3372  -11.6021 C   0  0  0  0  0  0  0  0  0  0  0  0
   15.1280  -13.0011  -10.5237 C   0  0  0  0  0  0  0  0  0  0  0  0
   15.1209  -14.3282  -10.8352 N   0  0  0  0  0  0  0  0  0  0  0  0
   15.6226  -14.4721  -12.0660 C   0  0  0  0  0  0  0  0  0  0  0  0
   15.9508  -13.2449  -12.5442 N   0  0  0  0  0  0  0  0  0  0  0  0
   15.4574   -8.6578  -10.8137 C   0  0  0  0  0  0  0  0  0  0  0  0
   14.7134   -8.0277  -11.6291 O   0  0  0  0  0  0  0  0  0  0  0  0
   15.0170   -5.8046   -8.7860 C   0  0  0  0  0  0  0  0  0  0  0  0
   16.4902   -5.8228   -9.1054 C   0  0  1  0  0  0  0  0  0  0  0  0
   17.2840   -6.2142   -8.0527 O   0  0  0  0  0  0  0  0  0  0  0  0
   16.7614   -6.6151  -10.3763 C   0  0  2  0  0  0  0  0  0  0  0  0
   16.5142   -8.0018  -10.1258 N   0  0  0  0  0  0  0  0  0  0  0  0
   18.1556   -6.3179  -10.7705 C   0  0  0  0  0  0  0  0  0  0  0  0
   19.0610   -6.9862  -10.2035 O   0  0  0  0  0  0  0  0  0  0  0  0
   18.5597   -5.3599  -11.7181 N   0  0  0  0  0  0  0  0  0  0  0  0
   19.8530   -5.2536  -12.3046 C   0  0  1  0  0  0  0  0  0  0  0  0
   20.3639   -6.5359  -12.9235 C   0  0  0  0  0  0  0  0  0  0  0  0
   21.7137   -6.3437  -13.5314 C   0  0  0  0  0  0  0  0  0  0  0  0
   22.5266   -5.4848  -13.1014 O   0  0  0  0  0  0  0  0  0  0  0  0
   20.0002   -4.1453  -13.2559 C   0  0  0  0  0  0  0  0  0  0  0  0
   19.0954   -3.9711  -14.1167 O   0  0  0  0  0  0  0  0  0  0  0  0
   22.1646   -7.1059  -14.6195 O   0  0  0  0  0  0  0  0  0  0  0  0
   21.0836   -3.2809  -13.2559 O   0  0  0  0  0  0  0  0  0  0  0  0
  2  1  1  6
  2  9  1  0
  3  4  1  0
  3  2  1  0
  4  8  1  0
  5  6  1  0
  5  4  2  0
  6  7  1  0
  7  8  2  0
  9 15  1  0
  9 10  2  0
 12 11  1  1
 12 14  1  0
 13 12  1  0
 14 16  1  0
 14 15  1  1
 16 17  2  0
 16 18  1  0
 18 19  1  0
 19 23  1  0
 19 20  1  6
 20 21  1  0
 21 25  1  0
 21 22  2  0
 23 26  1  0
 24 23  2  0
M  END
$$$$
