HTD.pdb
     RDKit          3D

 26 26  0  0  1  0  0  0  0  0999 V2000
   32.0947   -9.4061  -17.2396 N   0  0  0  0  0  0  0  0  0  0  0  0
   32.5621   -8.9092  -18.5201 C   0  0  1  0  0  0  0  0  0  0  0  0
   33.1070  -10.0881  -19.2896 C   0  0  0  0  0  0  0  0  0  0  0  0
   34.2759  -10.6886  -18.6178 C   0  0  0  0  0  0  0  0  0  0  0  0
   34.4274  -12.0040  -18.2675 C   0  0  0  0  0  0  0  0  0  0  0  0
   35.6498  -12.1230  -17.6759 N   0  0  0  0  0  0  0  0  0  0  0  0
   36.2284  -10.9179  -17.6645 C   0  0  0  0  0  0  0  0  0  0  0  0
   35.3838  -10.0282  -18.2453 N   0  0  0  0  0  0  0  0  0  0  0  0
   31.3568   -8.3984  -19.2727 C   0  0  0  0  0  0  0  0  0  0  0  0
   31.5228   -7.9965  -20.4669 O   0  0  0  0  0  0  0  0  0  0  0  0
   28.0437  -10.1774  -19.6654 C   0  0  0  0  0  0  0  0  0  0  0  0
   27.7595   -8.7835  -19.1665 C   0  0  1  0  0  0  0  0  0  0  0  0
   27.2932   -8.7386  -17.8734 O   0  0  0  0  0  0  0  0  0  0  0  0
   28.9548   -7.8695  -19.3955 C   0  0  2  0  0  0  0  0  0  0  0  0
   30.0749   -8.3696  -18.6592 N   0  0  0  0  0  0  0  0  0  0  0  0
   28.5319   -6.5111  -18.9915 C   0  0  0  0  0  0  0  0  0  0  0  0
   28.9057   -6.1140  -17.8555 O   0  0  0  0  0  0  0  0  0  0  0  0
   27.7531   -5.6261  -19.7591 N   0  0  0  0  0  0  0  0  0  0  0  0
   27.3844   -4.2999  -19.3937 C   0  0  1  0  0  0  0  0  0  0  0  0
   28.5501   -3.4066  -19.0311 C   0  0  0  0  0  0  0  0  0  0  0  0
   28.0857   -2.0447  -18.6338 C   0  0  0  0  0  0  0  0  0  0  0  0
   27.2394   -1.8649  -17.7202 O   0  0  0  0  0  0  0  0  0  0  0  0
   26.5161   -3.6211  -20.3632 C   0  0  0  0  0  0  0  0  0  0  0  0
   26.8121   -3.6952  -21.5867 O   0  0  0  0  0  0  0  0  0  0  0  0
   28.5608   -0.8777  -19.2509 O   0  0  0  0  0  0  0  0  0  0  0  0
   25.3875   -2.9023  -20.0018 O   0  0  0  0  0  0  0  0  0  0  0  0
  2  1  1  1
  2  9  1  0
  3  4  1  0
  3  2  1  0
  4  8  1  0
  5  6  1  0
  5  4  2  0
  6  7  1  0
  7  8  2  0
  9 15  1  0
  9 10  2  0
 12 11  1  1
 12 14  1  0
 13 12  1  0
 14 16  1  0
 14 15  1  1
 16 17  2  0
 16 18  1  0
 18 19  1  0
 19 23  1  0
 19 20  1  6
 20 21  1  0
 21 25  1  0
 21 22  2  0
 23 26  1  0
 24 23  2  0
M  END
$$$$
