HTD.pdb
     RDKit          3D

 26 26  0  0  1  0  0  0  0  0999 V2000
   19.4065  -13.0117  -17.1447 N   0  0  0  0  0  0  0  0  0  0  0  0
   19.6550  -11.6595  -17.6080 C   0  0  1  0  0  0  0  0  0  0  0  0
   18.3354  -11.0923  -18.0724 C   0  0  0  0  0  0  0  0  0  0  0  0
   17.8517  -11.7603  -19.2963 C   0  0  0  0  0  0  0  0  0  0  0  0
   16.8415  -12.6817  -19.3765 C   0  0  0  0  0  0  0  0  0  0  0  0
   16.7241  -13.0346  -20.6880 N   0  0  0  0  0  0  0  0  0  0  0  0
   17.6341  -12.3505  -21.3887 C   0  0  0  0  0  0  0  0  0  0  0  0
   18.3333  -11.5617  -20.5336 N   0  0  0  0  0  0  0  0  0  0  0  0
   20.0987  -10.8484  -16.4141 C   0  0  0  0  0  0  0  0  0  0  0  0
   19.4769  -11.0081  -15.3172 O   0  0  0  0  0  0  0  0  0  0  0  0
   23.2417  -10.8938  -14.6007 C   0  0  0  0  0  0  0  0  0  0  0  0
   23.0531   -9.4760  -15.0769 C   0  0  1  0  0  0  0  0  0  0  0  0
   23.8804   -9.1226  -16.1171 O   0  0  0  0  0  0  0  0  0  0  0  0
   21.5862   -9.1897  -15.3652 C   0  0  2  0  0  0  0  0  0  0  0  0
   21.1815   -9.9334  -16.5184 N   0  0  0  0  0  0  0  0  0  0  0  0
   21.4650   -7.7244  -15.5258 C   0  0  0  0  0  0  0  0  0  0  0  0
   21.5118   -7.2761  -16.7025 O   0  0  0  0  0  0  0  0  0  0  0  0
   21.3026   -6.7903  -14.4866 N   0  0  0  0  0  0  0  0  0  0  0  0
   21.2148   -5.3767  -14.6353 C   0  0  1  0  0  0  0  0  0  0  0  0
   19.8492   -4.8017  -14.3302 C   0  0  0  0  0  0  0  0  0  0  0  0
   19.8220   -3.3253  -14.5494 C   0  0  0  0  0  0  0  0  0  0  0  0
   19.9891   -2.5049  -13.6102 O   0  0  0  0  0  0  0  0  0  0  0  0
   22.2476   -4.6238  -13.9132 C   0  0  0  0  0  0  0  0  0  0  0  0
   22.6053   -5.0371  -12.7769 O   0  0  0  0  0  0  0  0  0  0  0  0
   19.6089   -2.7560  -15.8138 O   0  0  0  0  0  0  0  0  0  0  0  0
   22.8493   -3.4815  -14.4172 O   0  0  0  0  0  0  0  0  0  0  0  0
  2  1  1  1
  2  9  1  0
  3  4  1  0
  3  2  1  0
  4  8  1  0
  5  6  1  0
  5  4  2  0
  6  7  1  0
  7  8  2  0
  9 15  1  0
  9 10  2  0
 12 11  1  6
 12 14  1  0
 13 12  1  0
 14 16  1  0
 14 15  1  6
 16 17  2  0
 16 18  1  0
 18 19  1  0
 19 23  1  0
 19 20  1  1
 20 21  1  0
 21 25  1  0
 21 22  2  0
 23 26  1  0
 24 23  2  0
M  END
$$$$
