HTD.pdb
     RDKit          3D

 26 26  0  0  1  0  0  0  0  0999 V2000
   21.8411  -11.4257  -17.1262 N   0  0  0  0  0  0  0  0  0  0  0  0
   20.6960  -10.8713  -17.8234 C   0  0  1  0  0  0  0  0  0  0  0  0
   19.6043  -11.9135  -17.7974 C   0  0  0  0  0  0  0  0  0  0  0  0
   19.9856  -13.1260  -18.5476 C   0  0  0  0  0  0  0  0  0  0  0  0
   21.0830  -13.9132  -18.3201 C   0  0  0  0  0  0  0  0  0  0  0  0
   21.0492  -14.9224  -19.2359 N   0  0  0  0  0  0  0  0  0  0  0  0
   19.9647  -14.7580  -20.0002 C   0  0  0  0  0  0  0  0  0  0  0  0
   19.3041  -13.6496  -19.5790 N   0  0  0  0  0  0  0  0  0  0  0  0
   20.2088   -9.6886  -17.0209 C   0  0  0  0  0  0  0  0  0  0  0  0
   19.1862   -9.0611  -17.4401 O   0  0  0  0  0  0  0  0  0  0  0  0
   19.1202   -9.4873  -13.4258 C   0  0  0  0  0  0  0  0  0  0  0  0
   20.2639   -8.5274  -13.6336 C   0  0  1  0  0  0  0  0  0  0  0  0
   21.4496   -8.9436  -13.0746 O   0  0  0  0  0  0  0  0  0  0  0  0
   20.4021   -8.1559  -15.1032 C   0  0  2  0  0  0  0  0  0  0  0  0
   20.8777   -9.2920  -15.8311 N   0  0  0  0  0  0  0  0  0  0  0  0
   21.3067   -6.9873  -15.1607 C   0  0  0  0  0  0  0  0  0  0  0  0
   22.3443   -7.1061  -15.8658 O   0  0  0  0  0  0  0  0  0  0  0  0
   21.1132   -5.7597  -14.5013 N   0  0  0  0  0  0  0  0  0  0  0  0
   21.8639   -4.5677  -14.7101 C   0  0  1  0  0  0  0  0  0  0  0  0
   22.0926   -4.2222  -16.1650 C   0  0  0  0  0  0  0  0  0  0  0  0
   22.8586   -2.9485  -16.3053 C   0  0  0  0  0  0  0  0  0  0  0  0
   23.7614   -2.6163  -15.4942 O   0  0  0  0  0  0  0  0  0  0  0  0
   21.3540   -3.3940  -13.9910 C   0  0  0  0  0  0  0  0  0  0  0  0
   20.1054   -3.2448  -13.8979 O   0  0  0  0  0  0  0  0  0  0  0  0
   22.6235   -2.0398  -17.3480 O   0  0  0  0  0  0  0  0  0  0  0  0
   22.1756   -2.4412  -13.4095 O   0  0  0  0  0  0  0  0  0  0  0  0
  2  1  1  1
  2  9  1  0
  3  4  1  0
  3  2  1  0
  4  8  1  0
  5  6  1  0
  5  4  2  0
  6  7  1  0
  7  8  2  0
  9 15  1  0
  9 10  2  0
 12 11  1  6
 12 14  1  0
 13 12  1  0
 14 16  1  0
 14 15  1  6
 16 17  2  0
 16 18  1  0
 18 19  1  0
 19 23  1  0
 19 20  1  6
 20 21  1  0
 21 25  1  0
 21 22  2  0
 23 26  1  0
 24 23  2  0
M  END
$$$$
