HTD.pdb
     RDKit          3D

 26 26  0  0  1  0  0  0  0  0999 V2000
   16.9416  -14.8642  -15.0480 N   0  0  0  0  0  0  0  0  0  0  0  0
   16.3816  -13.7281  -15.7556 C   0  0  1  0  0  0  0  0  0  0  0  0
   14.9928  -13.4975  -15.2109 C   0  0  0  0  0  0  0  0  0  0  0  0
   14.0820  -14.6106  -15.5420 C   0  0  0  0  0  0  0  0  0  0  0  0
   13.3959  -14.7804  -16.7151 C   0  0  0  0  0  0  0  0  0  0  0  0
   12.6796  -15.9342  -16.5971 N   0  0  0  0  0  0  0  0  0  0  0  0
   12.9197  -16.4544  -15.3893 C   0  0  0  0  0  0  0  0  0  0  0  0
   13.7856  -15.6405  -14.7334 N   0  0  0  0  0  0  0  0  0  0  0  0
   17.2126  -12.5194  -15.3969 C   0  0  0  0  0  0  0  0  0  0  0  0
   17.5495  -12.3638  -14.1813 O   0  0  0  0  0  0  0  0  0  0  0  0
   20.6040  -11.6389  -16.3558 C   0  0  0  0  0  0  0  0  0  0  0  0
   19.7162  -10.5164  -16.8296 C   0  0  1  0  0  0  0  0  0  0  0  0
   19.5021  -10.5105  -18.1882 O   0  0  0  0  0  0  0  0  0  0  0  0
   18.4233  -10.4699  -16.0277 C   0  0  2  0  0  0  0  0  0  0  0  0
   17.6047  -11.5848  -16.3935 N   0  0  0  0  0  0  0  0  0  0  0  0
   17.8022   -9.1562  -16.3027 C   0  0  0  0  0  0  0  0  0  0  0  0
   16.6748   -9.1675  -16.8656 O   0  0  0  0  0  0  0  0  0  0  0  0
   18.3550   -7.9002  -15.9932 N   0  0  0  0  0  0  0  0  0  0  0  0
   17.7295   -6.6363  -16.1916 C   0  0  1  0  0  0  0  0  0  0  0  0
   16.3937   -6.4863  -15.4976 C   0  0  0  0  0  0  0  0  0  0  0  0
   15.8201   -5.1254  -15.7154 C   0  0  0  0  0  0  0  0  0  0  0  0
   15.9794   -4.4951  -16.7927 O   0  0  0  0  0  0  0  0  0  0  0  0
   18.5832   -5.4810  -15.8893 C   0  0  0  0  0  0  0  0  0  0  0  0
   19.4159   -5.5820  -14.9478 O   0  0  0  0  0  0  0  0  0  0  0  0
   15.0669   -4.4605  -14.7361 O   0  0  0  0  0  0  0  0  0  0  0  0
   18.5201   -4.2847  -16.5862 O   0  0  0  0  0  0  0  0  0  0  0  0
  2  1  1  1
  2  9  1  0
  3  4  1  0
  3  2  1  0
  4  8  1  0
  5  6  1  0
  5  4  2  0
  6  7  1  0
  7  8  2  0
  9 15  1  0
  9 10  2  0
 12 11  1  1
 12 14  1  0
 13 12  1  0
 14 16  1  0
 14 15  1  6
 16 17  2  0
 16 18  1  0
 18 19  1  0
 19 23  1  0
 19 20  1  1
 20 21  1  0
 21 25  1  0
 21 22  2  0
 23 26  1  0
 24 23  2  0
M  END
$$$$
