HTD.pdb
     RDKit          3D

 26 26  0  0  1  0  0  0  0  0999 V2000
   45.2568  -13.0395  -10.4107 N   0  0  0  0  0  0  0  0  0  0  0  0
   44.0646  -12.4556   -9.8253 C   0  0  1  0  0  0  0  0  0  0  0  0
   43.9548  -12.9758   -8.4125 C   0  0  0  0  0  0  0  0  0  0  0  0
   43.7552  -14.4377   -8.3802 C   0  0  0  0  0  0  0  0  0  0  0  0
   44.5418  -15.3533   -7.7331 C   0  0  0  0  0  0  0  0  0  0  0  0
   43.9977  -16.5821   -7.9619 N   0  0  0  0  0  0  0  0  0  0  0  0
   42.9118  -16.4236   -8.7253 C   0  0  0  0  0  0  0  0  0  0  0  0
   42.7574  -15.1006   -8.9865 N   0  0  0  0  0  0  0  0  0  0  0  0
   44.2881  -10.9647   -9.7402 C   0  0  0  0  0  0  0  0  0  0  0  0
   45.4845  -10.5417   -9.6690 O   0  0  0  0  0  0  0  0  0  0  0  0
   43.0594   -8.5851  -12.3001 C   0  0  0  0  0  0  0  0  0  0  0  0
   42.5901   -8.0778  -10.9603 C   0  0  1  0  0  0  0  0  0  0  0  0
   41.2397   -8.2298  -10.7485 O   0  0  0  0  0  0  0  0  0  0  0  0
   43.4336   -8.6570   -9.8335 C   0  0  2  0  0  0  0  0  0  0  0  0
   43.1889  -10.0635   -9.7402 N   0  0  0  0  0  0  0  0  0  0  0  0
   43.0782   -7.9057   -8.6101 C   0  0  0  0  0  0  0  0  0  0  0  0
   42.4771   -8.5447   -7.7055 O   0  0  0  0  0  0  0  0  0  0  0  0
   43.3504   -6.5471   -8.3668 N   0  0  0  0  0  0  0  0  0  0  0  0
   42.9964   -5.8171   -7.1964 C   0  0  1  0  0  0  0  0  0  0  0  0
   41.5431   -5.4015   -7.1370 C   0  0  0  0  0  0  0  0  0  0  0  0
   41.2530   -4.6220   -5.8972 C   0  0  0  0  0  0  0  0  0  0  0  0
   42.1513   -4.3198   -5.0697 O   0  0  0  0  0  0  0  0  0  0  0  0
   43.3844   -6.4626   -5.9364 C   0  0  0  0  0  0  0  0  0  0  0  0
   44.5341   -6.2299   -5.4737 O   0  0  0  0  0  0  0  0  0  0  0  0
   39.9629   -4.1757   -5.5735 O   0  0  0  0  0  0  0  0  0  0  0  0
   42.5510   -7.3151   -5.2296 O   0  0  0  0  0  0  0  0  0  0  0  0
  2  1  1  1
  2  9  1  0
  3  4  1  0
  3  2  1  0
  4  8  1  0
  5  6  1  0
  5  4  2  0
  6  7  1  0
  7  8  2  0
  9 15  1  0
  9 10  2  0
 12 11  1  6
 12 14  1  0
 13 12  1  0
 14 16  1  0
 14 15  1  1
 16 17  2  0
 16 18  1  0
 18 19  1  0
 19 23  1  0
 19 20  1  1
 20 21  1  0
 21 25  1  0
 21 22  2  0
 23 26  1  0
 24 23  2  0
M  END
$$$$
