NQE.pdb
     RDKit          3D

 27 26  0  0  1  0  0  0  0  0999 V2000
   23.7891  -12.6458  -16.8510 N   0  0  0  0  0  0  0  0  0  0  0  0
   22.8076  -12.7465  -17.8911 C   0  0  0  0  0  0  0  0  0  0  0  0
   23.0634  -13.4730  -18.8765 O   0  0  0  0  0  0  0  0  0  0  0  0
   21.5334  -12.0302  -17.8269 C   0  0  0  0  0  0  0  0  0  0  0  0
   21.4271  -11.2425  -16.5668 C   0  0  2  0  0  0  0  0  0  0  0  0
   21.2513  -12.0696  -15.4145 N   0  0  0  0  0  0  0  0  0  0  0  0
   20.3571  -10.1999  -16.6313 C   0  0  0  0  0  0  0  0  0  0  0  0
   20.3213   -9.3421  -17.5348 O   0  0  0  0  0  0  0  0  0  0  0  0
   14.6680  -11.1172  -14.4010 N   0  0  0  0  0  0  0  0  0  0  0  0
   15.1258  -11.5409  -15.6642 C   0  0  0  0  0  0  0  0  0  0  0  0
   14.5530  -12.3587  -16.3948 O   0  0  0  0  0  0  0  0  0  0  0  0
   16.4187  -10.9349  -16.1411 C   0  0  0  0  0  0  0  0  0  0  0  0
   16.9161   -9.9214  -15.1403 C   0  0  0  0  0  0  0  0  0  0  0  0
   18.2395   -9.2977  -15.5158 C   0  0  2  0  0  0  0  0  0  0  0  0
   19.3486  -10.1791  -15.6388 N   0  0  0  0  0  0  0  0  0  0  0  0
   18.5174   -7.9964  -14.8979 C   0  0  0  0  0  0  0  0  0  0  0  0
   19.2380   -7.9147  -13.8322 O   0  0  0  0  0  0  0  0  0  0  0  0
   18.0397   -6.7646  -15.3961 N   0  0  0  0  0  0  0  0  0  0  0  0
   18.4743   -5.4517  -14.8461 C   0  0  1  0  0  0  0  0  0  0  0  0
   19.9354   -5.4172  -14.7223 C   0  0  0  0  0  0  0  0  0  0  0  0
   20.5703   -4.1605  -14.2646 C   0  0  0  0  0  0  0  0  0  0  0  0
   22.0283   -4.1178  -14.1894 C   0  0  0  0  0  0  0  0  0  0  0  0
   22.7620   -5.1500  -14.3321 O   0  0  0  0  0  0  0  0  0  0  0  0
   17.8442   -4.3588  -15.5576 C   0  0  0  0  0  0  0  0  0  0  0  0
   17.4366   -4.5820  -16.7568 O   0  0  0  0  0  0  0  0  0  0  0  0
   22.7127   -2.9093  -13.9561 O   0  0  0  0  0  0  0  0  0  0  0  0
   17.6019   -3.0730  -15.1178 O   0  0  0  0  0  0  0  0  0  0  0  0
  2  3  2  0
  2  1  1  0
  4  5  1  0
  4  2  1  0
  5  7  1  0
  5  6  1  1
  7  8  2  0
 10  9  1  0
 10 12  1  0
 11 10  2  0
 13 12  1  0
 14 13  1  1
 15  7  1  0
 15 14  1  0
 16 14  1  0
 16 17  2  0
 18 16  1  0
 19 18  1  0
 19 24  1  0
 19 20  1  6
 21 22  1  0
 21 20  1  0
 22 23  2  0
 24 27  1  0
 25 24  2  0
 26 22  1  0
M  END
$$$$
