NQE.pdb
     RDKit          3D

 27 26  0  0  1  0  0  0  0  0999 V2000
   15.0072  -12.0384  -15.8490 N   0  0  0  0  0  0  0  0  0  0  0  0
   16.1277  -11.3081  -16.3653 C   0  0  0  0  0  0  0  0  0  0  0  0
   16.1162  -10.9849  -17.5735 O   0  0  0  0  0  0  0  0  0  0  0  0
   17.2663  -10.9380  -15.5243 C   0  0  0  0  0  0  0  0  0  0  0  0
   18.5515  -11.1226  -16.2550 C   0  0  2  0  0  0  0  0  0  0  0  0
   18.8593  -12.4989  -16.4868 N   0  0  0  0  0  0  0  0  0  0  0  0
   19.6968  -10.4359  -15.5821 C   0  0  0  0  0  0  0  0  0  0  0  0
   20.3530  -10.9789  -14.6722 O   0  0  0  0  0  0  0  0  0  0  0  0
   24.2148   -8.6990  -17.5582 N   0  0  0  0  0  0  0  0  0  0  0  0
   24.6160   -8.0609  -16.3680 C   0  0  0  0  0  0  0  0  0  0  0  0
   25.6661   -7.4240  -16.2171 O   0  0  0  0  0  0  0  0  0  0  0  0
   23.6738   -8.1780  -15.1998 C   0  0  0  0  0  0  0  0  0  0  0  0
   22.5132   -9.0730  -15.5580 C   0  0  0  0  0  0  0  0  0  0  0  0
   21.1848   -8.3555  -15.6001 C   0  0  2  0  0  0  0  0  0  0  0  0
   20.0542   -9.1273  -15.9850 N   0  0  0  0  0  0  0  0  0  0  0  0
   21.2301   -6.9813  -16.1123 C   0  0  0  0  0  0  0  0  0  0  0  0
   21.5497   -6.7467  -17.3388 O   0  0  0  0  0  0  0  0  0  0  0  0
   20.9385   -5.8373  -15.3378 N   0  0  0  0  0  0  0  0  0  0  0  0
   21.0589   -4.4531  -15.8712 C   0  0  1  0  0  0  0  0  0  0  0  0
   19.7263   -3.8859  -16.1032 C   0  0  0  0  0  0  0  0  0  0  0  0
   18.9311   -3.4616  -14.9286 C   0  0  0  0  0  0  0  0  0  0  0  0
   17.6179   -2.8692  -15.1686 C   0  0  0  0  0  0  0  0  0  0  0  0
   16.8510   -2.4757  -14.2300 O   0  0  0  0  0  0  0  0  0  0  0  0
   21.9820   -3.6706  -15.0752 C   0  0  0  0  0  0  0  0  0  0  0  0
   22.2988   -2.5005  -15.5048 O   0  0  0  0  0  0  0  0  0  0  0  0
   17.1235   -2.6935  -16.4755 O   0  0  0  0  0  0  0  0  0  0  0  0
   22.5836   -4.0060  -13.8791 O   0  0  0  0  0  0  0  0  0  0  0  0
  2  3  2  0
  2  1  1  0
  4  5  1  0
  4  2  1  0
  5  7  1  0
  5  6  1  1
  7  8  2  0
 10  9  1  0
 10 12  1  0
 11 10  2  0
 13 12  1  0
 14 13  1  6
 15  7  1  0
 15 14  1  0
 16 14  1  0
 16 17  2  0
 18 16  1  0
 19 18  1  0
 19 24  1  0
 19 20  1  1
 21 22  1  0
 21 20  1  0
 22 23  2  0
 24 27  1  0
 25 24  2  0
 26 22  1  0
M  END
$$$$
