NQE.pdb
     RDKit          3D

 27 26  0  0  1  0  0  0  0  0999 V2000
   20.7443  -18.2244  -15.9477 N   0  0  0  0  0  0  0  0  0  0  0  0
   20.7749  -17.7177  -14.6069 C   0  0  0  0  0  0  0  0  0  0  0  0
   20.3433  -18.4493  -13.6888 O   0  0  0  0  0  0  0  0  0  0  0  0
   21.2913  -16.3852  -14.2931 C   0  0  0  0  0  0  0  0  0  0  0  0
   21.6235  -15.6353  -15.5368 C   0  0  2  0  0  0  0  0  0  0  0  0
   22.5359  -16.3434  -16.3787 N   0  0  0  0  0  0  0  0  0  0  0  0
   22.1314  -14.2571  -15.2565 C   0  0  0  0  0  0  0  0  0  0  0  0
   21.5303  -13.4706  -14.4991 O   0  0  0  0  0  0  0  0  0  0  0  0
   28.1221  -12.5828  -16.2551 N   0  0  0  0  0  0  0  0  0  0  0  0
   27.6206  -11.3180  -15.8898 C   0  0  0  0  0  0  0  0  0  0  0  0
   28.3032  -10.3001  -15.7196 O   0  0  0  0  0  0  0  0  0  0  0  0
   26.1307  -11.2231  -15.6970 C   0  0  0  0  0  0  0  0  0  0  0  0
   25.4953  -12.5771  -15.8953 C   0  0  0  0  0  0  0  0  0  0  0  0
   23.9930  -12.5706  -15.7389 C   0  0  2  0  0  0  0  0  0  0  0  0
   23.3324  -13.8234  -15.8663 N   0  0  0  0  0  0  0  0  0  0  0  0
   23.3057  -11.4177  -16.3313 C   0  0  0  0  0  0  0  0  0  0  0  0
   22.9129  -11.4455  -17.5587 O   0  0  0  0  0  0  0  0  0  0  0  0
   23.0232  -10.2212  -15.6369 N   0  0  0  0  0  0  0  0  0  0  0  0
   22.2821   -9.0883  -16.2553 C   0  0  1  0  0  0  0  0  0  0  0  0
   21.3597   -8.4983  -15.2794 C   0  0  0  0  0  0  0  0  0  0  0  0
   20.5935   -7.2956  -15.6775 C   0  0  0  0  0  0  0  0  0  0  0  0
   19.6808   -6.7103  -14.6989 C   0  0  0  0  0  0  0  0  0  0  0  0
   18.9634   -5.6859  -14.9437 O   0  0  0  0  0  0  0  0  0  0  0  0
   23.1888   -8.1880  -16.9374 C   0  0  0  0  0  0  0  0  0  0  0  0
   24.3750   -8.0573  -16.4578 O   0  0  0  0  0  0  0  0  0  0  0  0
   19.5391   -7.2616  -13.4108 O   0  0  0  0  0  0  0  0  0  0  0  0
   22.9599   -7.4321  -18.0694 O   0  0  0  0  0  0  0  0  0  0  0  0
  2  3  2  0
  2  1  1  0
  4  5  1  0
  4  2  1  0
  5  7  1  0
  5  6  1  1
  7  8  2  0
 10  9  1  0
 10 12  1  0
 11 10  2  0
 13 12  1  0
 14 13  1  6
 15  7  1  0
 15 14  1  0
 16 14  1  0
 16 17  2  0
 18 16  1  0
 19 18  1  0
 19 24  1  0
 19 20  1  1
 21 22  1  0
 21 20  1  0
 22 23  2  0
 24 27  1  0
 25 24  2  0
 26 22  1  0
M  END
$$$$
