NQE.pdb
     RDKit          3D

 27 26  0  0  1  0  0  0  0  0999 V2000
   18.2086  -14.4299  -17.8682 N   0  0  0  0  0  0  0  0  0  0  0  0
   17.7524  -13.0858  -17.6665 C   0  0  0  0  0  0  0  0  0  0  0  0
   16.6588  -12.7508  -18.1726 O   0  0  0  0  0  0  0  0  0  0  0  0
   18.5250  -12.1124  -16.8942 C   0  0  0  0  0  0  0  0  0  0  0  0
   19.7787  -12.7223  -16.3691 C   0  0  2  0  0  0  0  0  0  0  0  0
   19.5297  -13.8293  -15.5002 N   0  0  0  0  0  0  0  0  0  0  0  0
   20.6665  -11.7215  -15.7010 C   0  0  0  0  0  0  0  0  0  0  0  0
   20.3376  -11.1432  -14.6471 O   0  0  0  0  0  0  0  0  0  0  0  0
   26.8781  -11.5676  -16.4966 N   0  0  0  0  0  0  0  0  0  0  0  0
   26.7501  -10.4121  -15.7008 C   0  0  0  0  0  0  0  0  0  0  0  0
   27.6901   -9.7711  -15.2146 O   0  0  0  0  0  0  0  0  0  0  0  0
   25.3459   -9.9393  -15.4351 C   0  0  0  0  0  0  0  0  0  0  0  0
   24.3528  -10.8882  -16.0593 C   0  0  0  0  0  0  0  0  0  0  0  0
   22.9123  -10.5028  -15.8187 C   0  0  2  0  0  0  0  0  0  0  0  0
   21.9223  -11.4150  -16.2768 N   0  0  0  0  0  0  0  0  0  0  0  0
   22.6061   -9.0789  -15.9954 C   0  0  0  0  0  0  0  0  0  0  0  0
   22.6757   -8.5307  -17.1600 O   0  0  0  0  0  0  0  0  0  0  0  0
   22.2219   -8.2151  -14.9466 N   0  0  0  0  0  0  0  0  0  0  0  0
   21.8864   -6.7820  -15.1672 C   0  0  1  0  0  0  0  0  0  0  0  0
   20.4352   -6.6210  -15.3072 C   0  0  0  0  0  0  0  0  0  0  0  0
   19.8960   -5.2540  -15.4872 C   0  0  0  0  0  0  0  0  0  0  0  0
   18.4580   -5.1073  -15.6969 C   0  0  0  0  0  0  0  0  0  0  0  0
   17.6443   -6.0866  -15.6427 O   0  0  0  0  0  0  0  0  0  0  0  0
   22.5554   -5.9391  -14.1978 C   0  0  0  0  0  0  0  0  0  0  0  0
   22.5409   -4.6689  -14.3989 O   0  0  0  0  0  0  0  0  0  0  0  0
   17.8840   -3.8506  -15.9698 O   0  0  0  0  0  0  0  0  0  0  0  0
   23.2204   -6.3128  -13.0475 O   0  0  0  0  0  0  0  0  0  0  0  0
  2  3  2  0
  2  1  1  0
  4  5  1  0
  4  2  1  0
  5  7  1  0
  5  6  1  1
  7  8  2  0
 10  9  1  0
 10 12  1  0
 11 10  2  0
 13 12  1  0
 14 13  1  6
 15  7  1  0
 15 14  1  0
 16 14  1  0
 16 17  2  0
 18 16  1  0
 19 18  1  0
 19 24  1  0
 19 20  1  1
 21 22  1  0
 21 20  1  0
 22 23  2  0
 24 27  1  0
 25 24  2  0
 26 22  1  0
M  END
$$$$
