SVV.pdb
     RDKit          3D

 21 20  0  0  1  0  0  0  0  0999 V2000
    8.0583  -17.2194   22.1706 O   0  0  0  0  0  0  0  0  0  0  0  0
    6.8543  -16.5597   22.0084 C   0  0  0  0  0  0  0  0  0  0  0  0
    7.0749  -15.0698   21.7247 C   0  0  2  0  0  0  0  0  0  0  0  0
    7.9525  -14.9518   20.5753 N   0  0  0  0  0  0  0  0  0  0  0  0
    7.7576  -14.4984   22.8889 C   0  0  0  0  0  0  0  0  0  0  0  0
    9.0090  -14.2897   22.8049 O   0  0  0  0  0  0  0  0  0  0  0  0
    6.3050  -11.7267   25.4438 C   0  0  0  0  0  0  0  0  0  0  0  0
    6.9359  -12.9082   26.1754 C   0  0  2  0  0  0  0  0  0  0  0  0
    7.6938  -12.4177   27.3835 C   0  0  0  0  0  0  0  0  0  0  0  0
    7.9198  -13.6237   25.2448 C   0  0  2  0  0  0  0  0  0  0  0  0
    7.1269  -14.1576   24.1104 N   0  0  0  0  0  0  0  0  0  0  0  0
    8.5065  -14.7489   25.9888 C   0  0  0  0  0  0  0  0  0  0  0  0
    7.7230  -15.7354   26.2610 O   0  0  0  0  0  0  0  0  0  0  0  0
   12.1715  -17.8174   27.1264 C   0  0  0  0  0  0  0  0  0  0  0  0
   11.6459  -16.5670   26.5060 C   0  0  1  0  0  0  0  0  0  0  0  0
   11.4975  -16.7095   25.0044 C   0  0  0  0  0  0  0  0  0  0  0  0
   10.2934  -16.1549   27.0538 C   0  0  2  0  0  0  0  0  0  0  0  0
    9.8311  -14.9109   26.4507 N   0  0  0  0  0  0  0  0  0  0  0  0
   10.3272  -16.0062   28.5125 C   0  0  0  0  0  0  0  0  0  0  0  0
   10.5186  -14.8827   29.0206 O   0  0  0  0  0  0  0  0  0  0  0  0
   10.1559  -17.0610   29.4011 O   0  0  0  0  0  0  0  0  0  0  0  0
  2  1  1  0
  2  3  1  0
  3  4  1  6
  5  3  1  0
  6  5  2  0
  8  7  1  6
  8 10  1  0
  9  8  1  0
 10 11  1  6
 10 12  1  0
 11  5  1  0
 12 18  1  0
 13 12  2  0
 15 14  1  1
 15 16  1  0
 17 15  1  0
 17 19  1  0
 17 18  1  6
 19 20  2  0
 19 21  1  0
M  END
$$$$
