SVV.pdb
     RDKit          3D

 21 20  0  0  1  0  0  0  0  0999 V2000
   11.0672  -18.3520   24.1140 O   0  0  0  0  0  0  0  0  0  0  0  0
   12.2253  -18.0786   23.4102 C   0  0  0  0  0  0  0  0  0  0  0  0
   11.9071  -17.5181   22.0198 C   0  0  2  0  0  0  0  0  0  0  0  0
   13.1539  -17.1158   21.3964 N   0  0  0  0  0  0  0  0  0  0  0  0
   11.0774  -16.3246   22.2077 C   0  0  0  0  0  0  0  0  0  0  0  0
   11.6590  -15.2325   22.5001 O   0  0  0  0  0  0  0  0  0  0  0  0
    8.1197  -15.0537   19.9222 C   0  0  0  0  0  0  0  0  0  0  0  0
    7.6866  -15.0893   21.3852 C   0  0  2  0  0  0  0  0  0  0  0  0
    6.8114  -13.8994   21.6900 C   0  0  0  0  0  0  0  0  0  0  0  0
    8.9215  -15.0256   22.2891 C   0  0  2  0  0  0  0  0  0  0  0  0
    9.6665  -16.2927   22.0880 N   0  0  0  0  0  0  0  0  0  0  0  0
    8.4565  -14.9612   23.6832 C   0  0  0  0  0  0  0  0  0  0  0  0
    8.5379  -16.0474   24.3723 O   0  0  0  0  0  0  0  0  0  0  0  0
    6.4043  -12.7447   27.6793 C   0  0  0  0  0  0  0  0  0  0  0  0
    6.9177  -12.6581   26.2816 C   0  0  1  0  0  0  0  0  0  0  0  0
    8.0008  -11.6061   26.1498 C   0  0  0  0  0  0  0  0  0  0  0  0
    7.4983  -13.9657   25.7796 C   0  0  2  0  0  0  0  0  0  0  0  0
    7.9303  -13.8587   24.3915 N   0  0  0  0  0  0  0  0  0  0  0  0
    6.5357  -15.0650   25.9070 C   0  0  0  0  0  0  0  0  0  0  0  0
    5.6199  -15.1922   25.0689 O   0  0  0  0  0  0  0  0  0  0  0  0
    6.5696  -16.0077   26.9276 O   0  0  0  0  0  0  0  0  0  0  0  0
  2  1  1  0
  2  3  1  0
  3  4  1  1
  5  3  1  0
  6  5  2  0
  8  7  1  6
  8 10  1  0
  9  8  1  0
 10 11  1  1
 10 12  1  0
 11  5  1  0
 12 18  1  0
 13 12  2  0
 15 14  1  1
 15 16  1  0
 17 15  1  0
 17 19  1  0
 17 18  1  6
 19 20  2  0
 19 21  1  0
M  END
$$$$
