SVV.pdb
     RDKit          3D

 21 20  0  0  1  0  0  0  0  0999 V2000
   11.7994  -20.1820   21.4659 O   0  0  0  0  0  0  0  0  0  0  0  0
   11.0369  -19.1485   21.9774 C   0  0  0  0  0  0  0  0  0  0  0  0
   10.9977  -17.9601   21.0104 C   0  0  2  0  0  0  0  0  0  0  0  0
   12.3408  -17.7395   20.5079 N   0  0  0  0  0  0  0  0  0  0  0  0
   10.5925  -16.7812   21.7811 C   0  0  0  0  0  0  0  0  0  0  0  0
   11.5053  -16.0592   22.2930 O   0  0  0  0  0  0  0  0  0  0  0  0
    7.5362  -14.1772   20.9237 C   0  0  0  0  0  0  0  0  0  0  0  0
    7.5331  -14.7118   22.3531 C   0  0  2  0  0  0  0  0  0  0  0  0
    7.0751  -13.6334   23.3028 C   0  0  0  0  0  0  0  0  0  0  0  0
    8.9517  -15.1335   22.7479 C   0  0  2  0  0  0  0  0  0  0  0  0
    9.2522  -16.3801   22.0020 N   0  0  0  0  0  0  0  0  0  0  0  0
    8.9494  -15.4281   24.1891 C   0  0  0  0  0  0  0  0  0  0  0  0
    8.4716  -16.5705   24.5465 O   0  0  0  0  0  0  0  0  0  0  0  0
    9.9582  -14.4939   29.0062 C   0  0  0  0  0  0  0  0  0  0  0  0
   10.0931  -14.1318   27.5655 C   0  0  1  0  0  0  0  0  0  0  0  0
   11.5435  -14.1248   27.1259 C   0  0  0  0  0  0  0  0  0  0  0  0
    9.3487  -15.0772   26.6429 C   0  0  2  0  0  0  0  0  0  0  0  0
    9.4104  -14.6281   25.2575 N   0  0  0  0  0  0  0  0  0  0  0  0
    7.9461  -15.2267   27.0448 C   0  0  0  0  0  0  0  0  0  0  0  0
    7.0948  -14.4011   26.6565 O   0  0  0  0  0  0  0  0  0  0  0  0
    7.4795  -16.2556   27.8542 O   0  0  0  0  0  0  0  0  0  0  0  0
  2  1  1  0
  2  3  1  0
  3  4  1  1
  5  3  1  0
  6  5  2  0
  8  7  1  6
  8 10  1  0
  9  8  1  0
 10 11  1  6
 10 12  1  0
 11  5  1  0
 12 18  1  0
 13 12  2  0
 15 14  1  1
 15 16  1  0
 17 15  1  0
 17 19  1  0
 17 18  1  6
 19 20  2  0
 19 21  1  0
M  END
$$$$
