SVV.pdb
     RDKit          3D

 21 20  0  0  1  0  0  0  0  0999 V2000
   13.2400  -18.4375   22.2580 O   0  0  0  0  0  0  0  0  0  0  0  0
   12.0393  -18.6370   21.6024 C   0  0  0  0  0  0  0  0  0  0  0  0
   11.6000  -17.3717   20.8575 C   0  0  2  0  0  0  0  0  0  0  0  0
   12.7688  -16.7873   20.2272 N   0  0  0  0  0  0  0  0  0  0  0  0
   11.0930  -16.4281   21.8577 C   0  0  0  0  0  0  0  0  0  0  0  0
   11.7982  -15.4044   22.1250 O   0  0  0  0  0  0  0  0  0  0  0  0
    7.5175  -14.8715   21.9695 C   0  0  0  0  0  0  0  0  0  0  0  0
    7.8794  -15.4339   23.3414 C   0  0  2  0  0  0  0  0  0  0  0  0
    7.3444  -14.5297   24.4235 C   0  0  0  0  0  0  0  0  0  0  0  0
    9.4029  -15.5073   23.4818 C   0  0  2  0  0  0  0  0  0  0  0  0
    9.8686  -16.5686   22.5557 N   0  0  0  0  0  0  0  0  0  0  0  0
    9.7090  -15.9107   24.8629 C   0  0  0  0  0  0  0  0  0  0  0  0
    9.9090  -17.1671   25.0691 O   0  0  0  0  0  0  0  0  0  0  0  0
   11.3892  -13.4739   27.8911 C   0  0  0  0  0  0  0  0  0  0  0  0
   10.4471  -14.5450   28.3269 C   0  0  1  0  0  0  0  0  0  0  0  0
    9.0691  -13.9884   28.6241 C   0  0  0  0  0  0  0  0  0  0  0  0
   10.2753  -15.6418   27.2941 C   0  0  2  0  0  0  0  0  0  0  0  0
    9.8247  -15.1043   26.0163 N   0  0  0  0  0  0  0  0  0  0  0  0
    9.3316  -16.6673   27.7514 C   0  0  0  0  0  0  0  0  0  0  0  0
    8.1393  -16.6250   27.3857 O   0  0  0  0  0  0  0  0  0  0  0  0
    9.6798  -17.7188   28.5908 O   0  0  0  0  0  0  0  0  0  0  0  0
  2  1  1  0
  2  3  1  0
  3  4  1  1
  5  3  1  0
  6  5  2  0
  8  7  1  6
  8 10  1  0
  9  8  1  0
 10 11  1  6
 10 12  1  0
 11  5  1  0
 12 18  1  0
 13 12  2  0
 15 14  1  6
 15 16  1  0
 17 15  1  0
 17 19  1  0
 17 18  1  6
 19 20  2  0
 19 21  1  0
M  END
$$$$
