SVV.pdb
     RDKit          3D

 21 20  0  0  1  0  0  0  0  0999 V2000
   11.6750  -20.0970   21.1525 O   0  0  0  0  0  0  0  0  0  0  0  0
   11.5586  -18.9218   21.8711 C   0  0  0  0  0  0  0  0  0  0  0  0
   11.3417  -17.7241   20.9398 C   0  0  2  0  0  0  0  0  0  0  0  0
   12.6274  -17.3391   20.3886 N   0  0  0  0  0  0  0  0  0  0  0  0
   10.8391  -16.6174   21.7588 C   0  0  0  0  0  0  0  0  0  0  0  0
   11.6878  -15.8786   22.3506 O   0  0  0  0  0  0  0  0  0  0  0  0
    7.8201  -14.2212   20.7527 C   0  0  0  0  0  0  0  0  0  0  0  0
    7.6962  -14.6772   22.2039 C   0  0  2  0  0  0  0  0  0  0  0  0
    7.1982  -13.5386   23.0584 C   0  0  0  0  0  0  0  0  0  0  0  0
    9.0697  -15.1093   22.7265 C   0  0  2  0  0  0  0  0  0  0  0  0
    9.4702  -16.3042   21.9439 N   0  0  0  0  0  0  0  0  0  0  0  0
    8.9143  -15.4929   24.1381 C   0  0  0  0  0  0  0  0  0  0  0  0
    8.4209  -16.6608   24.3705 O   0  0  0  0  0  0  0  0  0  0  0  0
   11.0031  -13.9225   27.5346 C   0  0  0  0  0  0  0  0  0  0  0  0
    9.5813  -14.3435   27.6960 C   0  0  1  0  0  0  0  0  0  0  0  0
    8.6391  -13.1576   27.6411 C   0  0  0  0  0  0  0  0  0  0  0  0
    9.1284  -15.3265   26.6341 C   0  0  2  0  0  0  0  0  0  0  0  0
    9.2401  -14.7557   25.2975 N   0  0  0  0  0  0  0  0  0  0  0  0
    7.7478  -15.7658   26.8625 C   0  0  0  0  0  0  0  0  0  0  0  0
    6.8006  -15.1416   26.3424 O   0  0  0  0  0  0  0  0  0  0  0  0
    7.4051  -16.8639   27.6424 O   0  0  0  0  0  0  0  0  0  0  0  0
  2  1  1  0
  2  3  1  0
  3  4  1  1
  5  3  1  0
  6  5  2  0
  8  7  1  6
  8 10  1  0
  9  8  1  0
 10 11  1  6
 10 12  1  0
 11  5  1  0
 12 18  1  0
 13 12  2  0
 15 14  1  6
 15 16  1  0
 17 15  1  0
 17 19  1  0
 17 18  1  6
 19 20  2  0
 19 21  1  0
M  END
$$$$
