SVV.pdb
     RDKit          3D

 21 20  0  0  1  0  0  0  0  0999 V2000
   13.0432  -16.9185   20.1815 O   0  0  0  0  0  0  0  0  0  0  0  0
   12.2491  -16.3795   21.1765 C   0  0  0  0  0  0  0  0  0  0  0  0
   10.7739  -16.7326   20.9577 C   0  0  2  0  0  0  0  0  0  0  0  0
   10.2666  -15.9119   19.8741 N   0  0  0  0  0  0  0  0  0  0  0  0
   10.0522  -16.3787   22.1833 C   0  0  0  0  0  0  0  0  0  0  0  0
    9.6504  -15.1797   22.3151 O   0  0  0  0  0  0  0  0  0  0  0  0
    6.9526  -18.1357   23.4414 C   0  0  0  0  0  0  0  0  0  0  0  0
    7.9154  -18.0120   24.6190 C   0  0  2  0  0  0  0  0  0  0  0  0
    7.1457  -17.7156   25.8817 C   0  0  0  0  0  0  0  0  0  0  0  0
    8.8922  -16.8596   24.3662 C   0  0  2  0  0  0  0  0  0  0  0  0
    9.7650  -17.2757   23.2411 N   0  0  0  0  0  0  0  0  0  0  0  0
    9.7158  -16.6940   25.5736 C   0  0  0  0  0  0  0  0  0  0  0  0
   10.6993  -17.5140   25.7215 O   0  0  0  0  0  0  0  0  0  0  0  0
   10.6675  -13.2115   27.6695 C   0  0  0  0  0  0  0  0  0  0  0  0
   10.3844  -14.4086   28.5130 C   0  0  1  0  0  0  0  0  0  0  0  0
    8.9915  -14.3547   29.1078 C   0  0  0  0  0  0  0  0  0  0  0  0
   10.4964  -15.7137   27.7493 C   0  0  2  0  0  0  0  0  0  0  0  0
    9.5869  -15.7442   26.6106 N   0  0  0  0  0  0  0  0  0  0  0  0
   10.2319  -16.8674   28.6154 C   0  0  0  0  0  0  0  0  0  0  0  0
    9.1106  -17.4149   28.5996 O   0  0  0  0  0  0  0  0  0  0  0  0
   11.1703  -17.4145   29.4822 O   0  0  0  0  0  0  0  0  0  0  0  0
  2  1  1  0
  2  3  1  0
  3  4  1  6
  5  3  1  0
  6  5  2  0
  8  7  1  6
  8 10  1  0
  9  8  1  0
 10 11  1  6
 10 12  1  0
 11  5  1  0
 12 18  1  0
 13 12  2  0
 15 14  1  6
 15 16  1  0
 17 15  1  0
 17 19  1  0
 17 18  1  6
 19 20  2  0
 19 21  1  0
M  END
$$$$
