SVV.pdb
     RDKit          3D

 21 20  0  0  1  0  0  0  0  0999 V2000
    9.2580  -17.3243   22.0940 O   0  0  0  0  0  0  0  0  0  0  0  0
    8.0463  -16.8713   21.6064 C   0  0  0  0  0  0  0  0  0  0  0  0
    8.0319  -15.3427   21.4966 C   0  0  2  0  0  0  0  0  0  0  0  0
    9.0556  -14.9461   20.5481 N   0  0  0  0  0  0  0  0  0  0  0  0
    8.3875  -14.8055   22.8131 C   0  0  0  0  0  0  0  0  0  0  0  0
    9.5821  -14.4096   22.9941 O   0  0  0  0  0  0  0  0  0  0  0  0
    5.8152  -12.6285   25.0674 C   0  0  0  0  0  0  0  0  0  0  0  0
    6.6276  -13.6188   25.8971 C   0  0  2  0  0  0  0  0  0  0  0  0
    7.0097  -12.9919   27.2145 C   0  0  0  0  0  0  0  0  0  0  0  0
    7.9110  -13.9876   25.1467 C   0  0  2  0  0  0  0  0  0  0  0  0
    7.4969  -14.6920   23.9085 N   0  0  0  0  0  0  0  0  0  0  0  0
    8.6757  -14.9174   25.9920 C   0  0  0  0  0  0  0  0  0  0  0  0
    8.3853  -16.1688   25.8870 O   0  0  0  0  0  0  0  0  0  0  0  0
   12.5565  -14.3146   27.5639 C   0  0  0  0  0  0  0  0  0  0  0  0
   11.6106  -15.1201   28.3893 C   0  0  1  0  0  0  0  0  0  0  0  0
   11.0145  -14.2989   29.5150 C   0  0  0  0  0  0  0  0  0  0  0  0
   10.4558  -15.6869   27.5866 C   0  0  2  0  0  0  0  0  0  0  0  0
    9.7063  -14.6328   26.9143 N   0  0  0  0  0  0  0  0  0  0  0  0
    9.5467  -16.4684   28.4316 C   0  0  0  0  0  0  0  0  0  0  0  0
    9.8469  -17.6347   28.7582 O   0  0  0  0  0  0  0  0  0  0  0  0
    8.3338  -15.9889   28.9117 O   0  0  0  0  0  0  0  0  0  0  0  0
  2  1  1  0
  2  3  1  0
  3  4  1  6
  5  3  1  0
  6  5  2  0
  8  7  1  6
  8 10  1  0
  9  8  1  0
 10 11  1  6
 10 12  1  0
 11  5  1  0
 12 18  1  0
 13 12  2  0
 15 14  1  6
 15 16  1  0
 17 15  1  0
 17 19  1  0
 17 18  1  1
 19 20  2  0
 19 21  1  0
M  END
$$$$
