SVV.pdb
     RDKit          3D

 21 20  0  0  1  0  0  0  0  0999 V2000
    7.8375  -17.2212   21.9430 O   0  0  0  0  0  0  0  0  0  0  0  0
    6.7109  -16.4303   21.8153 C   0  0  0  0  0  0  0  0  0  0  0  0
    7.0874  -14.9511   21.6765 C   0  0  2  0  0  0  0  0  0  0  0  0
    8.0124  -14.8206   20.5663 N   0  0  0  0  0  0  0  0  0  0  0  0
    7.7817  -14.5584   22.9060 C   0  0  0  0  0  0  0  0  0  0  0  0
    9.0523  -14.5161   22.8873 O   0  0  0  0  0  0  0  0  0  0  0  0
    6.2877  -11.8575   25.4711 C   0  0  0  0  0  0  0  0  0  0  0  0
    6.9537  -13.0125   26.2138 C   0  0  2  0  0  0  0  0  0  0  0  0
    7.7251  -12.4841   27.3972 C   0  0  0  0  0  0  0  0  0  0  0  0
    7.9330  -13.7289   25.2789 C   0  0  2  0  0  0  0  0  0  0  0  0
    7.1423  -14.2196   24.1236 N   0  0  0  0  0  0  0  0  0  0  0  0
    8.4856  -14.8832   26.0042 C   0  0  0  0  0  0  0  0  0  0  0  0
    7.6738  -15.8519   26.2568 O   0  0  0  0  0  0  0  0  0  0  0  0
   11.5390  -17.0355   25.0596 C   0  0  0  0  0  0  0  0  0  0  0  0
   11.5554  -16.8129   26.5343 C   0  0  1  0  0  0  0  0  0  0  0  0
   12.5889  -15.7775   26.9304 C   0  0  0  0  0  0  0  0  0  0  0  0
   10.2199  -16.3458   27.0797 C   0  0  2  0  0  0  0  0  0  0  0  0
    9.8037  -15.0906   26.4665 N   0  0  0  0  0  0  0  0  0  0  0  0
   10.2610  -16.1861   28.5371 C   0  0  0  0  0  0  0  0  0  0  0  0
   10.2143  -15.0454   29.0410 O   0  0  0  0  0  0  0  0  0  0  0  0
   10.3511  -17.2482   29.4288 O   0  0  0  0  0  0  0  0  0  0  0  0
  2  1  1  0
  2  3  1  0
  3  4  1  6
  5  3  1  0
  6  5  2  0
  8  7  1  6
  8 10  1  0
  9  8  1  0
 10 11  1  6
 10 12  1  0
 11  5  1  0
 12 18  1  0
 13 12  2  0
 15 14  1  6
 15 16  1  0
 17 15  1  0
 17 19  1  0
 17 18  1  6
 19 20  2  0
 19 21  1  0
M  END
$$$$
