SVV.pdb
     RDKit          3D

 21 20  0  0  1  0  0  0  0  0999 V2000
    8.2178  -17.7517   21.3687 O   0  0  0  0  0  0  0  0  0  0  0  0
    7.4348  -17.0168   22.2393 C   0  0  0  0  0  0  0  0  0  0  0  0
    7.4955  -15.5216   21.9086 C   0  0  2  0  0  0  0  0  0  0  0  0
    8.4225  -15.3376   20.8077 N   0  0  0  0  0  0  0  0  0  0  0  0
    8.0329  -14.8338   23.0860 C   0  0  0  0  0  0  0  0  0  0  0  0
    9.2740  -14.5583   23.1025 O   0  0  0  0  0  0  0  0  0  0  0  0
    6.1893  -12.0251   25.4255 C   0  0  0  0  0  0  0  0  0  0  0  0
    6.8189  -13.1663   26.2194 C   0  0  2  0  0  0  0  0  0  0  0  0
    7.4290  -12.6311   27.4906 C   0  0  0  0  0  0  0  0  0  0  0  0
    7.9274  -13.8205   25.3890 C   0  0  2  0  0  0  0  0  0  0  0  0
    7.2711  -14.4489   24.2164 N   0  0  0  0  0  0  0  0  0  0  0  0
    8.5450  -14.8723   26.2112 C   0  0  0  0  0  0  0  0  0  0  0  0
    7.8084  -15.8897   26.5002 O   0  0  0  0  0  0  0  0  0  0  0  0
   12.2465  -17.7456   27.5980 C   0  0  0  0  0  0  0  0  0  0  0  0
   11.6523  -16.6064   26.8405 C   0  0  1  0  0  0  0  0  0  0  0  0
   11.3660  -16.9832   25.4007 C   0  0  0  0  0  0  0  0  0  0  0  0
   10.3526  -16.1070   27.4409 C   0  0  2  0  0  0  0  0  0  0  0  0
    9.8555  -14.9333   26.7338 N   0  0  0  0  0  0  0  0  0  0  0  0
   10.5055  -15.7897   28.8647 C   0  0  0  0  0  0  0  0  0  0  0  0
   10.6525  -14.6047   29.2272 O   0  0  0  0  0  0  0  0  0  0  0  0
   10.4984  -16.7445   29.8745 O   0  0  0  0  0  0  0  0  0  0  0  0
  2  1  1  0
  2  3  1  0
  3  4  1  6
  5  3  1  0
  6  5  2  0
  8  7  1  6
  8 10  1  0
  9  8  1  0
 10 11  1  6
 10 12  1  0
 11  5  1  0
 12 18  1  0
 13 12  2  0
 15 14  1  1
 15 16  1  0
 17 15  1  0
 17 19  1  0
 17 18  1  6
 19 20  2  0
 19 21  1  0
M  END
$$$$
