QDW.pdb
     RDKit          3D

 32 33  0  0  1  0  0  0  0  0999 V2000
   27.2717  -20.6093  -18.7891 N   0  0  0  0  0  0  0  0  0  0  0  0
   28.7071  -20.5145  -18.9400 C   0  0  0  0  0  0  0  0  0  0  0  0
   29.2506  -20.9668  -19.9727 O   0  0  0  0  0  0  0  0  0  0  0  0
   29.4406  -19.8726  -17.8276 C   0  0  0  0  0  0  0  0  0  0  0  0
   28.5515  -19.4552  -16.7064 C   0  0  0  0  0  0  0  0  0  0  0  0
   28.2906  -20.5086  -15.6791 C   0  0  2  0  0  0  0  0  0  0  0  0
   27.7283  -21.6675  -16.3607 N   0  0  0  0  0  0  0  0  0  0  0  0
   27.5003  -20.1043  -14.5187 C   0  0  0  0  0  0  0  0  0  0  0  0
   27.8856  -19.1549  -13.7659 O   0  0  0  0  0  0  0  0  0  0  0  0
   26.2564  -20.7114  -14.1186 N   0  0  0  0  0  0  0  0  0  0  0  0
   25.5346  -20.2731  -12.9551 C   0  0  1  0  0  0  0  0  0  0  0  0
   24.0945  -19.9650  -13.1668 C   0  0  0  0  0  0  0  0  0  0  0  0
   23.8293  -18.9159  -14.1592 C   0  0  0  0  0  0  0  0  0  0  0  0
   24.4579  -18.9231  -15.2419 O   0  0  0  0  0  0  0  0  0  0  0  0
   25.7425  -21.2083  -11.8006 C   0  0  0  0  0  0  0  0  0  0  0  0
   25.6555  -22.4694  -11.9558 O   0  0  0  0  0  0  0  0  0  0  0  0
   22.9030  -17.9069  -13.9459 O   0  0  0  0  0  0  0  0  0  0  0  0
   26.0430  -20.7576  -10.4933 N   0  0  0  0  0  0  0  0  0  0  0  0
   25.7793  -21.5834   -9.2979 C   0  0  1  0  0  0  0  0  0  0  0  0
   27.0552  -21.5738   -8.5203 C   0  0  0  0  0  0  0  0  0  0  0  0
   27.3509  -20.3661   -7.7284 C   0  0  0  0  0  0  0  0  0  0  0  0
   26.7870  -19.0871   -7.9533 C   0  0  0  0  0  0  0  0  0  0  0  0
   27.3169  -18.2526   -7.0565 N   0  0  0  0  0  0  0  0  0  0  0  0
   28.1794  -18.8616   -6.2580 C   0  0  0  0  0  0  0  0  0  0  0  0
   28.9426  -18.3855   -5.1862 C   0  0  0  0  0  0  0  0  0  0  0  0
   29.7498  -19.2882   -4.5252 C   0  0  0  0  0  0  0  0  0  0  0  0
   29.7975  -20.6200   -4.9157 C   0  0  0  0  0  0  0  0  0  0  0  0
   29.0405  -21.0565   -5.9673 C   0  0  0  0  0  0  0  0  0  0  0  0
   28.2078  -20.1751   -6.6672 C   0  0  0  0  0  0  0  0  0  0  0  0
   24.6330  -21.1190   -8.5460 C   0  0  0  0  0  0  0  0  0  0  0  0
   24.3619  -21.7464   -7.4622 O   0  0  0  0  0  0  0  0  0  0  0  0
   23.8166  -20.0650   -8.8876 O   0  0  0  0  0  0  0  0  0  0  0  0
  2  1  1  0
  3  2  2  0
  4  2  1  0
  5  4  1  0
  6  5  1  0
  6  7  1  6
  8  6  1  0
  8  9  2  0
 10  8  1  0
 11 10  1  0
 11 12  1  6
 13 12  1  0
 13 17  1  0
 14 13  2  0
 15 11  1  0
 16 15  2  0
 18 15  1  0
 19 20  1  1
 19 18  1  0
 21 20  1  0
 22 21  2  0
 23 22  1  0
 24 23  1  0
 24 29  2  0
 25 26  2  0
 25 24  1  0
 26 27  1  0
 27 28  2  0
 29 28  1  0
 29 21  1  0
 30 32  1  0
 30 19  1  0
 31 30  2  0
M  END
$$$$
