QDW.pdb
     RDKit          3D

 32 33  0  0  1  0  0  0  0  0999 V2000
   21.5750  -21.1657  -20.1119 N   0  0  0  0  0  0  0  0  0  0  0  0
   20.7979  -20.0255  -19.6778 C   0  0  0  0  0  0  0  0  0  0  0  0
   19.9890  -19.4920  -20.4701 O   0  0  0  0  0  0  0  0  0  0  0  0
   21.0291  -19.5662  -18.2912 C   0  0  0  0  0  0  0  0  0  0  0  0
   22.0100  -20.4111  -17.5524 C   0  0  0  0  0  0  0  0  0  0  0  0
   23.1533  -19.6673  -16.9419 C   0  0  2  0  0  0  0  0  0  0  0  0
   23.5030  -18.5724  -17.8378 N   0  0  0  0  0  0  0  0  0  0  0  0
   24.3143  -20.4643  -16.5528 C   0  0  0  0  0  0  0  0  0  0  0  0
   24.2023  -21.4142  -15.7151 O   0  0  0  0  0  0  0  0  0  0  0  0
   25.6517  -20.2676  -17.0516 N   0  0  0  0  0  0  0  0  0  0  0  0
   26.7747  -20.9964  -16.5277 C   0  0  1  0  0  0  0  0  0  0  0  0
   28.0165  -20.9447  -17.3457 C   0  0  0  0  0  0  0  0  0  0  0  0
   27.8552  -21.3845  -18.7372 C   0  0  0  0  0  0  0  0  0  0  0  0
   27.9998  -20.5546  -19.6633 O   0  0  0  0  0  0  0  0  0  0  0  0
   27.0345  -20.6400  -15.0938 C   0  0  0  0  0  0  0  0  0  0  0  0
   27.4371  -19.4756  -14.7711 O   0  0  0  0  0  0  0  0  0  0  0  0
   27.5458  -22.6935  -19.0726 O   0  0  0  0  0  0  0  0  0  0  0  0
   26.8516  -21.5561  -14.0308 N   0  0  0  0  0  0  0  0  0  0  0  0
   27.1669  -21.2079  -12.6309 C   0  0  1  0  0  0  0  0  0  0  0  0
   26.3909  -19.9627  -12.3478 C   0  0  0  0  0  0  0  0  0  0  0  0
   25.2213  -20.0868  -11.4592 C   0  0  0  0  0  0  0  0  0  0  0  0
   25.2776  -20.3871  -10.0768 C   0  0  0  0  0  0  0  0  0  0  0  0
   24.0221  -20.4408   -9.6272 N   0  0  0  0  0  0  0  0  0  0  0  0
   23.1395  -20.2030  -10.5848 C   0  0  0  0  0  0  0  0  0  0  0  0
   21.7417  -20.1439  -10.5602 C   0  0  0  0  0  0  0  0  0  0  0  0
   21.0932  -19.8492  -11.7418 C   0  0  0  0  0  0  0  0  0  0  0  0
   21.8094  -19.6205  -12.9094 C   0  0  0  0  0  0  0  0  0  0  0  0
   23.1752  -19.6852  -12.9031 C   0  0  0  0  0  0  0  0  0  0  0  0
   23.8744  -19.9819  -11.7269 C   0  0  0  0  0  0  0  0  0  0  0  0
   26.8869  -22.2922  -11.7140 C   0  0  0  0  0  0  0  0  0  0  0  0
   26.1346  -23.2343  -12.1479 O   0  0  0  0  0  0  0  0  0  0  0  0
   27.3596  -22.4029  -10.4261 O   0  0  0  0  0  0  0  0  0  0  0  0
  2  1  1  0
  3  2  2  0
  4  2  1  0
  5  4  1  0
  6  5  1  0
  6  7  1  6
  8  6  1  0
  8  9  2  0
 10  8  1  0
 11 10  1  0
 11 12  1  6
 13 12  1  0
 13 17  1  0
 14 13  2  0
 15 11  1  0
 16 15  2  0
 18 15  1  0
 19 20  1  1
 19 18  1  0
 21 20  1  0
 22 21  2  0
 23 22  1  0
 24 23  1  0
 24 29  2  0
 25 26  2  0
 25 24  1  0
 26 27  1  0
 27 28  2  0
 29 28  1  0
 29 21  1  0
 30 32  1  0
 30 19  1  0
 31 30  2  0
M  END
$$$$
