QDW.pdb
     RDKit          3D

 32 33  0  0  1  0  0  0  0  0999 V2000
   18.1710  -18.7981  -12.3320 N   0  0  0  0  0  0  0  0  0  0  0  0
   17.2418  -19.5612  -13.1362 C   0  0  0  0  0  0  0  0  0  0  0  0
   16.1974  -19.0153  -13.5579 O   0  0  0  0  0  0  0  0  0  0  0  0
   17.6102  -20.9685  -13.4027 C   0  0  0  0  0  0  0  0  0  0  0  0
   18.9362  -21.3424  -12.8338 C   0  0  0  0  0  0  0  0  0  0  0  0
   19.4019  -22.7227  -13.1672 C   0  0  2  0  0  0  0  0  0  0  0  0
   18.5773  -23.6645  -12.4212 N   0  0  0  0  0  0  0  0  0  0  0  0
   20.8308  -22.9831  -13.0093 C   0  0  0  0  0  0  0  0  0  0  0  0
   21.4046  -22.8138  -11.8874 O   0  0  0  0  0  0  0  0  0  0  0  0
   21.7053  -23.4370  -14.0606 N   0  0  0  0  0  0  0  0  0  0  0  0
   23.1277  -23.5379  -13.8776 C   0  0  1  0  0  0  0  0  0  0  0  0
   23.8420  -24.4174  -14.8418 C   0  0  0  0  0  0  0  0  0  0  0  0
   25.2865  -24.5401  -14.6090 C   0  0  0  0  0  0  0  0  0  0  0  0
   25.8065  -23.9305  -13.6470 O   0  0  0  0  0  0  0  0  0  0  0  0
   23.7622  -22.1818  -13.7817 C   0  0  0  0  0  0  0  0  0  0  0  0
   23.5256  -21.2851  -14.6546 O   0  0  0  0  0  0  0  0  0  0  0  0
   26.1078  -25.3099  -15.4180 O   0  0  0  0  0  0  0  0  0  0  0  0
   24.6450  -21.8205  -12.7364 N   0  0  0  0  0  0  0  0  0  0  0  0
   25.2516  -20.4770  -12.6499 C   0  0  1  0  0  0  0  0  0  0  0  0
   25.5438  -20.2668  -11.1996 C   0  0  0  0  0  0  0  0  0  0  0  0
   26.8719  -20.6836  -10.7141 C   0  0  0  0  0  0  0  0  0  0  0  0
   27.8569  -21.3341  -11.4958 C   0  0  0  0  0  0  0  0  0  0  0  0
   28.9042  -21.5721  -10.7033 N   0  0  0  0  0  0  0  0  0  0  0  0
   28.7034  -21.1383   -9.4688 C   0  0  0  0  0  0  0  0  0  0  0  0
   29.5231  -21.1633   -8.3351 C   0  0  0  0  0  0  0  0  0  0  0  0
   29.0281  -20.6031   -7.1756 C   0  0  0  0  0  0  0  0  0  0  0  0
   27.7606  -20.0364   -7.1431 C   0  0  0  0  0  0  0  0  0  0  0  0
   26.9819  -20.0267   -8.2669 C   0  0  0  0  0  0  0  0  0  0  0  0
   27.4436  -20.5848   -9.4651 C   0  0  0  0  0  0  0  0  0  0  0  0
   26.4101  -20.3364  -13.5060 C   0  0  0  0  0  0  0  0  0  0  0  0
   26.7491  -21.3650  -14.1907 O   0  0  0  0  0  0  0  0  0  0  0  0
   27.1720  -19.1997  -13.6531 O   0  0  0  0  0  0  0  0  0  0  0  0
  2  1  1  0
  3  2  2  0
  4  2  1  0
  5  4  1  0
  6  5  1  0
  6  7  1  1
  8  6  1  0
  8  9  2  0
 10  8  1  0
 11 10  1  0
 11 12  1  6
 13 12  1  0
 13 17  1  0
 14 13  2  0
 15 11  1  0
 16 15  2  0
 18 15  1  0
 19 20  1  1
 19 18  1  0
 21 20  1  0
 22 21  2  0
 23 22  1  0
 24 23  1  0
 24 29  2  0
 25 26  2  0
 25 24  1  0
 26 27  1  0
 27 28  2  0
 29 28  1  0
 29 21  1  0
 30 32  1  0
 30 19  1  0
 31 30  2  0
M  END
$$$$
