QDW.pdb
     RDKit          3D

 32 33  0  0  1  0  0  0  0  0999 V2000
   30.7763  -15.5185  -17.3121 N   0  0  0  0  0  0  0  0  0  0  0  0
   31.1716  -16.7825  -17.8939 C   0  0  0  0  0  0  0  0  0  0  0  0
   31.6075  -16.8128  -19.0668 O   0  0  0  0  0  0  0  0  0  0  0  0
   31.0230  -17.9745  -17.0311 C   0  0  0  0  0  0  0  0  0  0  0  0
   29.9284  -17.8366  -16.0288 C   0  0  0  0  0  0  0  0  0  0  0  0
   28.8111  -18.8186  -16.1722 C   0  0  2  0  0  0  0  0  0  0  0  0
   28.1863  -18.5978  -17.4701 N   0  0  0  0  0  0  0  0  0  0  0  0
   27.8383  -18.8609  -15.0830 C   0  0  0  0  0  0  0  0  0  0  0  0
   27.3859  -17.7889  -14.5705 O   0  0  0  0  0  0  0  0  0  0  0  0
   27.3119  -20.0672  -14.4966 N   0  0  0  0  0  0  0  0  0  0  0  0
   26.2446  -20.0429  -13.5337 C   0  0  1  0  0  0  0  0  0  0  0  0
   24.8804  -20.2859  -14.0756 C   0  0  0  0  0  0  0  0  0  0  0  0
   23.8124  -20.3031  -13.0683 C   0  0  0  0  0  0  0  0  0  0  0  0
   23.7304  -19.3630  -12.2455 O   0  0  0  0  0  0  0  0  0  0  0  0
   26.5472  -20.9303  -12.3625 C   0  0  0  0  0  0  0  0  0  0  0  0
   26.9326  -22.1320  -12.5340 O   0  0  0  0  0  0  0  0  0  0  0  0
   22.8815  -21.3270  -12.9883 O   0  0  0  0  0  0  0  0  0  0  0  0
   26.4268  -20.4968  -11.0208 N   0  0  0  0  0  0  0  0  0  0  0  0
   26.1420  -21.4335   -9.9154 C   0  0  1  0  0  0  0  0  0  0  0  0
   27.3215  -21.3401   -9.0029 C   0  0  0  0  0  0  0  0  0  0  0  0
   27.2253  -20.3967   -7.8742 C   0  0  0  0  0  0  0  0  0  0  0  0
   26.3377  -19.2957   -7.8070 C   0  0  0  0  0  0  0  0  0  0  0  0
   26.5652  -18.6679   -6.6514 N   0  0  0  0  0  0  0  0  0  0  0  0
   27.5215  -19.2523   -5.9469 C   0  0  0  0  0  0  0  0  0  0  0  0
   28.0641  -18.9480   -4.6935 C   0  0  0  0  0  0  0  0  0  0  0  0
   29.0570  -19.7744   -4.2088 C   0  0  0  0  0  0  0  0  0  0  0  0
   29.4964  -20.8671   -4.9447 C   0  0  0  0  0  0  0  0  0  0  0  0
   28.9475  -21.1396   -6.1669 C   0  0  0  0  0  0  0  0  0  0  0  0
   27.9383  -20.3273   -6.6979 C   0  0  0  0  0  0  0  0  0  0  0  0
   24.8779  -21.1568   -9.2669 C   0  0  0  0  0  0  0  0  0  0  0  0
   24.2452  -20.1137   -9.6588 O   0  0  0  0  0  0  0  0  0  0  0  0
   24.2960  -21.9143   -8.2761 O   0  0  0  0  0  0  0  0  0  0  0  0
  2  1  1  0
  3  2  2  0
  4  2  1  0
  5  4  1  0
  6  5  1  0
  6  7  1  6
  8  6  1  0
  8  9  2  0
 10  8  1  0
 11 10  1  0
 11 12  1  6
 13 12  1  0
 13 17  1  0
 14 13  2  0
 15 11  1  0
 16 15  2  0
 18 15  1  0
 19 20  1  1
 19 18  1  0
 21 20  1  0
 22 21  2  0
 23 22  1  0
 24 23  1  0
 24 29  2  0
 25 26  2  0
 25 24  1  0
 26 27  1  0
 27 28  2  0
 29 28  1  0
 29 21  1  0
 30 32  1  0
 30 19  1  0
 31 30  2  0
M  END
$$$$
