QDW.pdb
     RDKit          3D

 32 33  0  0  1  0  0  0  0  0999 V2000
   31.0503  -25.9988  -15.8224 N   0  0  0  0  0  0  0  0  0  0  0  0
   31.6779  -25.6491  -17.0778 C   0  0  0  0  0  0  0  0  0  0  0  0
   32.2333  -26.5397  -17.7596 O   0  0  0  0  0  0  0  0  0  0  0  0
   31.6127  -24.2237  -17.4667 C   0  0  0  0  0  0  0  0  0  0  0  0
   30.8893  -23.3802  -16.4733 C   0  0  0  0  0  0  0  0  0  0  0  0
   29.4114  -23.2901  -16.6757 C   0  0  2  0  0  0  0  0  0  0  0  0
   29.1655  -23.1246  -18.1025 N   0  0  0  0  0  0  0  0  0  0  0  0
   28.7032  -22.3004  -15.8675 C   0  0  0  0  0  0  0  0  0  0  0  0
   28.9125  -22.2091  -14.6167 O   0  0  0  0  0  0  0  0  0  0  0  0
   27.7332  -21.3645  -16.3766 N   0  0  0  0  0  0  0  0  0  0  0  0
   27.0008  -20.4804  -15.5113 C   0  0  1  0  0  0  0  0  0  0  0  0
   26.3673  -19.3078  -16.1726 C   0  0  0  0  0  0  0  0  0  0  0  0
   27.2948  -18.4450  -16.9150 C   0  0  0  0  0  0  0  0  0  0  0  0
   28.1112  -17.7361  -16.2838 O   0  0  0  0  0  0  0  0  0  0  0  0
   26.0246  -21.2369  -14.6596 C   0  0  0  0  0  0  0  0  0  0  0  0
   25.2741  -22.1341  -15.1635 O   0  0  0  0  0  0  0  0  0  0  0  0
   27.3047  -18.3808  -18.2996 O   0  0  0  0  0  0  0  0  0  0  0  0
   25.8793  -21.0066  -13.2709 N   0  0  0  0  0  0  0  0  0  0  0  0
   24.9546  -21.7991  -12.4358 C   0  0  1  0  0  0  0  0  0  0  0  0
   25.7901  -22.3355  -11.3191 C   0  0  0  0  0  0  0  0  0  0  0  0
   26.2313  -21.3773  -10.2893 C   0  0  0  0  0  0  0  0  0  0  0  0
   25.3709  -20.6546   -9.4279 C   0  0  0  0  0  0  0  0  0  0  0  0
   26.1354  -19.8747   -8.6606 N   0  0  0  0  0  0  0  0  0  0  0  0
   27.4230  -20.0150   -8.9344 C   0  0  0  0  0  0  0  0  0  0  0  0
   28.5577  -19.4169   -8.3753 C   0  0  0  0  0  0  0  0  0  0  0  0
   29.7888  -19.7919   -8.8726 C   0  0  0  0  0  0  0  0  0  0  0  0
   29.8897  -20.7301   -9.8914 C   0  0  0  0  0  0  0  0  0  0  0  0
   28.7630  -21.2978  -10.4185 C   0  0  0  0  0  0  0  0  0  0  0  0
   27.4932  -20.9463   -9.9449 C   0  0  0  0  0  0  0  0  0  0  0  0
   23.8111  -21.0301  -11.9932 C   0  0  0  0  0  0  0  0  0  0  0  0
   22.8541  -21.6832  -11.4460 O   0  0  0  0  0  0  0  0  0  0  0  0
   23.6644  -19.6660  -12.1022 O   0  0  0  0  0  0  0  0  0  0  0  0
  2  1  1  0
  3  2  2  0
  4  2  1  0
  5  4  1  0
  6  5  1  0
  6  7  1  6
  8  6  1  0
  8  9  2  0
 10  8  1  0
 11 10  1  0
 11 12  1  6
 13 12  1  0
 13 17  1  0
 14 13  2  0
 15 11  1  0
 16 15  2  0
 18 15  1  0
 19 20  1  1
 19 18  1  0
 21 20  1  0
 22 21  2  0
 23 22  1  0
 24 23  1  0
 24 29  2  0
 25 26  2  0
 25 24  1  0
 26 27  1  0
 27 28  2  0
 29 28  1  0
 29 21  1  0
 30 32  1  0
 30 19  1  0
 31 30  2  0
M  END
$$$$
