QDW.pdb
     RDKit          3D

 32 33  0  0  1  0  0  0  0  0999 V2000
   28.0936  -25.7952  -18.2619 N   0  0  0  0  0  0  0  0  0  0  0  0
   28.3366  -25.3088  -16.9215 C   0  0  0  0  0  0  0  0  0  0  0  0
   27.5304  -25.5911  -16.0067 O   0  0  0  0  0  0  0  0  0  0  0  0
   29.5541  -24.4905  -16.7335 C   0  0  0  0  0  0  0  0  0  0  0  0
   29.2971  -23.2241  -15.9905 C   0  0  0  0  0  0  0  0  0  0  0  0
   28.2372  -22.3494  -16.5776 C   0  0  2  0  0  0  0  0  0  0  0  0
   28.7722  -21.7564  -17.7965 N   0  0  0  0  0  0  0  0  0  0  0  0
   27.6457  -21.3555  -15.6849 C   0  0  0  0  0  0  0  0  0  0  0  0
   28.2873  -20.3073  -15.3591 O   0  0  0  0  0  0  0  0  0  0  0  0
   26.3317  -21.4523  -15.1016 N   0  0  0  0  0  0  0  0  0  0  0  0
   25.7915  -20.4151  -14.2654 C   0  0  1  0  0  0  0  0  0  0  0  0
   24.6358  -19.6671  -14.8298 C   0  0  0  0  0  0  0  0  0  0  0  0
   24.0751  -18.6403  -13.9426 C   0  0  0  0  0  0  0  0  0  0  0  0
   22.8465  -18.4024  -13.9795 O   0  0  0  0  0  0  0  0  0  0  0  0
   25.5075  -20.9227  -12.8826 C   0  0  0  0  0  0  0  0  0  0  0  0
   24.5919  -21.7838  -12.6764 O   0  0  0  0  0  0  0  0  0  0  0  0
   24.8567  -17.9152  -13.0567 O   0  0  0  0  0  0  0  0  0  0  0  0
   26.2246  -20.4864  -11.7433 N   0  0  0  0  0  0  0  0  0  0  0  0
   25.8328  -20.8730  -10.3731 C   0  0  1  0  0  0  0  0  0  0  0  0
   26.9683  -20.4459   -9.5008 C   0  0  0  0  0  0  0  0  0  0  0  0
   26.7431  -20.4701   -8.0441 C   0  0  0  0  0  0  0  0  0  0  0  0
   25.5988  -21.0070   -7.4062 C   0  0  0  0  0  0  0  0  0  0  0  0
   25.7478  -20.8202   -6.0931 N   0  0  0  0  0  0  0  0  0  0  0  0
   26.8859  -20.2095   -5.8028 C   0  0  0  0  0  0  0  0  0  0  0  0
   27.4478  -19.8348   -4.5773 C   0  0  0  0  0  0  0  0  0  0  0  0
   28.6823  -19.2192   -4.6014 C   0  0  0  0  0  0  0  0  0  0  0  0
   29.3372  -18.9836   -5.8031 C   0  0  0  0  0  0  0  0  0  0  0  0
   28.7633  -19.3608   -6.9854 C   0  0  0  0  0  0  0  0  0  0  0  0
   27.5116  -19.9876   -7.0080 C   0  0  0  0  0  0  0  0  0  0  0  0
   24.5551  -20.3152   -9.9843 C   0  0  0  0  0  0  0  0  0  0  0  0
   23.7457  -21.0988   -9.3737 O   0  0  0  0  0  0  0  0  0  0  0  0
   24.1373  -19.0227  -10.2062 O   0  0  0  0  0  0  0  0  0  0  0  0
  2  1  1  0
  3  2  2  0
  4  2  1  0
  5  4  1  0
  6  5  1  0
  6  7  1  6
  8  6  1  0
  8  9  2  0
 10  8  1  0
 11 10  1  0
 11 12  1  6
 13 12  1  0
 13 17  1  0
 14 13  2  0
 15 11  1  0
 16 15  2  0
 18 15  1  0
 19 20  1  1
 19 18  1  0
 21 20  1  0
 22 21  2  0
 23 22  1  0
 24 23  1  0
 24 29  2  0
 25 26  2  0
 25 24  1  0
 26 27  1  0
 27 28  2  0
 29 28  1  0
 29 21  1  0
 30 32  1  0
 30 19  1  0
 31 30  2  0
M  END
$$$$
