CTA.pdb
     RDKit          3D

 19 18  0  0  1  0  0  0  0  0999 V2000
   21.7230  -13.6335  -17.3775 N   0  0  0  0  0  0  0  0  0  0  0  0
   22.4954  -12.6939  -16.5889 C   0  0  1  0  0  0  0  0  0  0  0  0
   23.9822  -12.9434  -16.6871 C   0  0  0  0  0  0  0  0  0  0  0  0
   24.9174  -11.8003  -15.6351 S   0  0  0  0  0  0  0  0  0  0  0  0
   22.2556  -11.3123  -17.1059 C   0  0  0  0  0  0  0  0  0  0  0  0
   22.5881  -11.0134  -18.2804 O   0  0  0  0  0  0  0  0  0  0  0  0
   19.2235   -9.6313  -17.8240 C   0  0  0  0  0  0  0  0  0  0  0  0
   19.8994   -8.8104  -16.7748 C   0  0  1  0  0  0  0  0  0  0  0  0
   19.4625   -9.3139  -15.5384 O   0  0  0  0  0  0  0  0  0  0  0  0
   21.4136   -8.9505  -16.7560 C   0  0  2  0  0  0  0  0  0  0  0  0
   21.6521  -10.3302  -16.2760 N   0  0  0  0  0  0  0  0  0  0  0  0
   22.0522   -7.9950  -15.8314 C   0  0  0  0  0  0  0  0  0  0  0  0
   22.2649   -8.3491  -14.6298 O   0  0  0  0  0  0  0  0  0  0  0  0
   23.5674   -4.5521  -15.9480 C   0  0  0  0  0  0  0  0  0  0  0  0
   23.0591   -5.7803  -15.1973 C   0  0  2  0  0  0  0  0  0  0  0  0
   22.4619   -6.6889  -16.1657 N   0  0  0  0  0  0  0  0  0  0  0  0
   22.0906   -5.3863  -14.1643 C   0  0  0  0  0  0  0  0  0  0  0  0
   20.8668   -5.4544  -14.4458 O   0  0  0  0  0  0  0  0  0  0  0  0
   22.4256   -4.9428  -12.8957 O   0  0  0  0  0  0  0  0  0  0  0  0
  2  1  1  6
  3  2  1  0
  4  3  1  0
  5  2  1  0
  6  5  2  0
  8  7  1  6
  8 10  1  0
  9  8  1  0
 10 12  1  0
 10 11  1  1
 11  5  1  0
 12 13  2  0
 15 14  1  6
 16 15  1  0
 16 12  1  0
 17 19  1  0
 17 15  1  0
 18 17  2  0
M  END
$$$$
