CTA.pdb
     RDKit          3D

 19 18  0  0  1  0  0  0  0  0999 V2000
   22.5270  -15.0192  -18.6484 N   0  0  0  0  0  0  0  0  0  0  0  0
   22.6622  -13.7928  -17.8874 C   0  0  1  0  0  0  0  0  0  0  0  0
   23.9969  -13.1203  -18.1089 C   0  0  0  0  0  0  0  0  0  0  0  0
   25.3529  -14.0839  -17.3873 S   0  0  0  0  0  0  0  0  0  0  0  0
   21.6136  -12.8256  -18.3329 C   0  0  0  0  0  0  0  0  0  0  0  0
   21.4081  -12.6408  -19.5588 O   0  0  0  0  0  0  0  0  0  0  0  0
   18.0147  -13.1378  -17.3389 C   0  0  0  0  0  0  0  0  0  0  0  0
   18.5360  -11.8017  -16.9210 C   0  0  1  0  0  0  0  0  0  0  0  0
   19.0782  -11.9744  -15.6367 O   0  0  0  0  0  0  0  0  0  0  0  0
   19.6820  -11.2861  -17.7775 C   0  0  2  0  0  0  0  0  0  0  0  0
   20.8441  -12.1106  -17.3767 N   0  0  0  0  0  0  0  0  0  0  0  0
   19.9791   -9.8650  -17.5174 C   0  0  0  0  0  0  0  0  0  0  0  0
   20.7150   -9.5608  -16.5272 O   0  0  0  0  0  0  0  0  0  0  0  0
   19.4982   -6.5427  -19.1947 C   0  0  0  0  0  0  0  0  0  0  0  0
   19.8372   -7.3970  -17.9757 C   0  0  2  0  0  0  0  0  0  0  0  0
   19.5114   -8.7815  -18.2874 N   0  0  0  0  0  0  0  0  0  0  0  0
   19.0978   -6.9252  -16.7963 C   0  0  0  0  0  0  0  0  0  0  0  0
   18.0637   -7.5553  -16.4568 O   0  0  0  0  0  0  0  0  0  0  0  0
   19.4557   -5.8319  -16.0251 O   0  0  0  0  0  0  0  0  0  0  0  0
  2  1  1  6
  3  2  1  0
  4  3  1  0
  5  2  1  0
  6  5  2  0
  8  7  1  6
  8 10  1  0
  9  8  1  0
 10 12  1  0
 10 11  1  1
 11  5  1  0
 12 13  2  0
 15 14  1  6
 16 15  1  0
 16 12  1  0
 17 19  1  0
 17 15  1  0
 18 17  2  0
M  END
$$$$
