CTA.pdb
     RDKit          3D

 19 18  0  0  1  0  0  0  0  0999 V2000
   17.7690  -12.5771  -16.2657 N   0  0  0  0  0  0  0  0  0  0  0  0
   17.5125  -11.2399  -15.7682 C   0  0  1  0  0  0  0  0  0  0  0  0
   17.0422  -11.2387  -14.3324 C   0  0  0  0  0  0  0  0  0  0  0  0
   15.4093  -12.0100  -14.1688 S   0  0  0  0  0  0  0  0  0  0  0  0
   18.7834  -10.4547  -15.8056 C   0  0  0  0  0  0  0  0  0  0  0  0
   19.8786  -11.0177  -15.5549 O   0  0  0  0  0  0  0  0  0  0  0  0
   20.2495   -8.8895  -18.7251 C   0  0  0  0  0  0  0  0  0  0  0  0
   19.9874   -7.8144  -17.7216 C   0  0  1  0  0  0  0  0  0  0  0  0
   18.6718   -7.3769  -17.9475 O   0  0  0  0  0  0  0  0  0  0  0  0
   20.0123   -8.2922  -16.2781 C   0  0  2  0  0  0  0  0  0  0  0  0
   18.7628   -9.0705  -16.1239 N   0  0  0  0  0  0  0  0  0  0  0  0
   20.0111   -7.1722  -15.3182 C   0  0  0  0  0  0  0  0  0  0  0  0
   18.9223   -6.5583  -15.0894 O   0  0  0  0  0  0  0  0  0  0  0  0
   22.3291   -5.6647  -12.7852 C   0  0  0  0  0  0  0  0  0  0  0  0
   21.0596   -5.6296  -13.6324 C   0  0  2  0  0  0  0  0  0  0  0  0
   21.1363   -6.7066  -14.6093 N   0  0  0  0  0  0  0  0  0  0  0  0
   20.9152   -4.3217  -14.2873 C   0  0  0  0  0  0  0  0  0  0  0  0
   21.2500   -4.2264  -15.4957 O   0  0  0  0  0  0  0  0  0  0  0  0
   20.4352   -3.1784  -13.6704 O   0  0  0  0  0  0  0  0  0  0  0  0
  2  1  1  1
  3  2  1  0
  4  3  1  0
  5  2  1  0
  6  5  2  0
  8  7  1  6
  8 10  1  0
  9  8  1  0
 10 12  1  0
 10 11  1  1
 11  5  1  0
 12 13  2  0
 15 14  1  6
 16 15  1  0
 16 12  1  0
 17 19  1  0
 17 15  1  0
 18 17  2  0
M  END
$$$$
