CTA.pdb
     RDKit          3D

 19 18  0  0  1  0  0  0  0  0999 V2000
   27.0113  -12.4258  -18.3108 N   0  0  0  0  0  0  0  0  0  0  0  0
   26.7837  -11.5096  -17.2107 C   0  0  1  0  0  0  0  0  0  0  0  0
   28.0708  -10.9594  -16.6422 C   0  0  0  0  0  0  0  0  0  0  0  0
   28.9683  -12.2177  -15.6940 S   0  0  0  0  0  0  0  0  0  0  0  0
   25.9972  -10.3396  -17.7067 C   0  0  0  0  0  0  0  0  0  0  0  0
   26.2741   -9.8204  -18.8171 O   0  0  0  0  0  0  0  0  0  0  0  0
   22.6599  -10.3566  -18.7666 C   0  0  0  0  0  0  0  0  0  0  0  0
   22.7094   -9.3823  -17.6353 C   0  0  1  0  0  0  0  0  0  0  0  0
   22.4844  -10.1257  -16.4649 O   0  0  0  0  0  0  0  0  0  0  0  0
   24.0663   -8.7238  -17.4413 C   0  0  2  0  0  0  0  0  0  0  0  0
   24.9343   -9.8077  -16.9289 N   0  0  0  0  0  0  0  0  0  0  0  0
   24.0203   -7.6281  -16.4549 C   0  0  0  0  0  0  0  0  0  0  0  0
   24.0938   -7.9094  -15.2179 O   0  0  0  0  0  0  0  0  0  0  0  0
   23.9187   -3.8648  -16.4412 C   0  0  0  0  0  0  0  0  0  0  0  0
   23.8700   -5.2215  -15.7430 C   0  0  2  0  0  0  0  0  0  0  0  0
   23.9006   -6.2586  -16.7645 N   0  0  0  0  0  0  0  0  0  0  0  0
   22.6645   -5.3267  -14.9087 C   0  0  0  0  0  0  0  0  0  0  0  0
   21.6587   -5.9042  -15.3949 O   0  0  0  0  0  0  0  0  0  0  0  0
   22.5513   -4.8349  -13.6190 O   0  0  0  0  0  0  0  0  0  0  0  0
  2  1  1  6
  3  2  1  0
  4  3  1  0
  5  2  1  0
  6  5  2  0
  8  7  1  6
  8 10  1  0
  9  8  1  0
 10 12  1  0
 10 11  1  1
 11  5  1  0
 12 13  2  0
 15 14  1  6
 16 15  1  0
 16 12  1  0
 17 19  1  0
 17 15  1  0
 18 17  2  0
M  END
$$$$
