CTA.pdb
     RDKit          3D

 19 18  0  0  1  0  0  0  0  0999 V2000
   22.3851  -13.1103  -17.4126 N   0  0  0  0  0  0  0  0  0  0  0  0
   22.7596  -12.2434  -16.3127 C   0  0  1  0  0  0  0  0  0  0  0  0
   24.2477  -11.9871  -16.2608 C   0  0  0  0  0  0  0  0  0  0  0  0
   25.1352  -13.3814  -15.5151 S   0  0  0  0  0  0  0  0  0  0  0  0
   22.0999  -10.9148  -16.4939 C   0  0  0  0  0  0  0  0  0  0  0  0
   22.1402  -10.3393  -17.6104 O   0  0  0  0  0  0  0  0  0  0  0  0
   18.5032   -7.9989  -14.8874 C   0  0  0  0  0  0  0  0  0  0  0  0
   19.3997   -9.1932  -14.8468 C   0  0  1  0  0  0  0  0  0  0  0  0
   18.7337  -10.2098  -15.5511 O   0  0  0  0  0  0  0  0  0  0  0  0
   20.7237   -9.0012  -15.5699 C   0  0  2  0  0  0  0  0  0  0  0  0
   21.4247  -10.2949  -15.4088 N   0  0  0  0  0  0  0  0  0  0  0  0
   21.5377   -7.9272  -14.9703 C   0  0  0  0  0  0  0  0  0  0  0  0
   21.9537   -8.0626  -13.7773 O   0  0  0  0  0  0  0  0  0  0  0  0
   22.9438   -4.5764  -15.9674 C   0  0  0  0  0  0  0  0  0  0  0  0
   22.6858   -5.6905  -14.9561 C   0  0  2  0  0  0  0  0  0  0  0  0
   21.9097   -6.7310  -15.6156 N   0  0  0  0  0  0  0  0  0  0  0  0
   21.9822   -5.1624  -13.7786 C   0  0  0  0  0  0  0  0  0  0  0  0
   22.6736   -4.6909  -12.8399 O   0  0  0  0  0  0  0  0  0  0  0  0
   20.6061   -5.1445  -13.6233 O   0  0  0  0  0  0  0  0  0  0  0  0
  2  1  1  6
  3  2  1  0
  4  3  1  0
  5  2  1  0
  6  5  2  0
  8  7  1  6
  8 10  1  0
  9  8  1  0
 10 12  1  0
 10 11  1  1
 11  5  1  0
 12 13  2  0
 15 14  1  6
 16 15  1  0
 16 12  1  0
 17 19  1  0
 17 15  1  0
 18 17  2  0
M  END
$$$$
