CTA.pdb
     RDKit          3D

 19 18  0  0  1  0  0  0  0  0999 V2000
   27.3715  -21.4018  -10.4870 N   0  0  0  0  0  0  0  0  0  0  0  0
   25.9384  -21.1869  -10.4486 C   0  0  1  0  0  0  0  0  0  0  0  0
   25.5332  -20.1846   -9.3932 C   0  0  0  0  0  0  0  0  0  0  0  0
   25.6229  -20.9003   -7.7296 S   0  0  0  0  0  0  0  0  0  0  0  0
   25.4943  -20.6315  -11.7630 C   0  0  0  0  0  0  0  0  0  0  0  0
   26.0173  -19.5803  -12.2109 O   0  0  0  0  0  0  0  0  0  0  0  0
   26.1593  -21.6727  -14.8479 C   0  0  0  0  0  0  0  0  0  0  0  0
   24.6657  -21.7014  -14.8419 C   0  0  1  0  0  0  0  0  0  0  0  0
   24.2981  -22.9964  -14.4406 O   0  0  0  0  0  0  0  0  0  0  0  0
   24.0303  -20.7671  -13.8240 C   0  0  2  0  0  0  0  0  0  0  0  0
   24.4810  -21.2859  -12.5131 N   0  0  0  0  0  0  0  0  0  0  0  0
   22.5567  -20.7977  -13.8805 C   0  0  0  0  0  0  0  0  0  0  0  0
   21.9320  -21.6679  -13.1970 O   0  0  0  0  0  0  0  0  0  0  0  0
   19.7660  -18.8895  -15.5436 C   0  0  0  0  0  0  0  0  0  0  0  0
   20.3030  -20.0440  -14.7014 C   0  0  2  0  0  0  0  0  0  0  0  0
   21.7530  -19.9259  -14.6419 N   0  0  0  0  0  0  0  0  0  0  0  0
   19.8938  -21.3331  -15.2769 C   0  0  0  0  0  0  0  0  0  0  0  0
   18.7393  -21.7570  -15.0142 O   0  0  0  0  0  0  0  0  0  0  0  0
   20.6884  -22.1218  -16.0921 O   0  0  0  0  0  0  0  0  0  0  0  0
  2  1  1  6
  3  2  1  0
  4  3  1  0
  5  2  1  0
  6  5  2  0
  8  7  1  1
  8 10  1  0
  9  8  1  0
 10 12  1  0
 10 11  1  1
 11  5  1  0
 12 13  2  0
 15 14  1  6
 16 15  1  0
 16 12  1  0
 17 19  1  0
 17 15  1  0
 18 17  2  0
M  END
$$$$
