CTA.pdb
     RDKit          3D

 19 18  0  0  1  0  0  0  0  0999 V2000
   25.4730  -11.8053  -16.6327 N   0  0  0  0  0  0  0  0  0  0  0  0
   25.8526  -10.4653  -16.2306 C   0  0  1  0  0  0  0  0  0  0  0  0
   27.2174  -10.0729  -16.7463 C   0  0  0  0  0  0  0  0  0  0  0  0
   28.5270  -11.0637  -15.9773 S   0  0  0  0  0  0  0  0  0  0  0  0
   24.8779   -9.4899  -16.8068 C   0  0  0  0  0  0  0  0  0  0  0  0
   24.5939   -9.5323  -18.0303 O   0  0  0  0  0  0  0  0  0  0  0  0
   21.4290   -9.3737  -15.8721 C   0  0  0  0  0  0  0  0  0  0  0  0
   21.9772   -8.0085  -15.6133 C   0  0  1  0  0  0  0  0  0  0  0  0
   22.4587   -8.0209  -14.2937 O   0  0  0  0  0  0  0  0  0  0  0  0
   23.1750   -7.6457  -16.4772 C   0  0  2  0  0  0  0  0  0  0  0  0
   24.2673   -8.5110  -15.9782 N   0  0  0  0  0  0  0  0  0  0  0  0
   23.5654   -6.2313  -16.3264 C   0  0  0  0  0  0  0  0  0  0  0  0
   24.3512   -5.9066  -15.3821 O   0  0  0  0  0  0  0  0  0  0  0  0
   23.1239   -2.9840  -18.1715 C   0  0  0  0  0  0  0  0  0  0  0  0
   23.5600   -3.7971  -16.9553 C   0  0  2  0  0  0  0  0  0  0  0  0
   23.1377   -5.1759  -17.1563 N   0  0  0  0  0  0  0  0  0  0  0  0
   22.9823   -3.2336  -15.7268 C   0  0  0  0  0  0  0  0  0  0  0  0
   21.9869   -3.8137  -15.2226 O   0  0  0  0  0  0  0  0  0  0  0  0
   23.4540   -2.1047  -15.0780 O   0  0  0  0  0  0  0  0  0  0  0  0
  2  1  1  6
  3  2  1  0
  4  3  1  0
  5  2  1  0
  6  5  2  0
  8  7  1  6
  8 10  1  0
  9  8  1  0
 10 12  1  0
 10 11  1  1
 11  5  1  0
 12 13  2  0
 15 14  1  6
 16 15  1  0
 16 12  1  0
 17 19  1  0
 17 15  1  0
 18 17  2  0
M  END
$$$$
