CTA.pdb
     RDKit          3D

 19 18  0  0  1  0  0  0  0  0999 V2000
   25.0761  -22.5742  -10.4655 N   0  0  0  0  0  0  0  0  0  0  0  0
   25.0144  -21.1515  -10.7369 C   0  0  1  0  0  0  0  0  0  0  0  0
   25.5591  -20.3225   -9.5973 C   0  0  0  0  0  0  0  0  0  0  0  0
   24.4152  -20.2959   -8.1907 S   0  0  0  0  0  0  0  0  0  0  0  0
   25.8579  -20.8472  -11.9324 C   0  0  0  0  0  0  0  0  0  0  0  0
   27.0650  -21.1959  -11.9560 O   0  0  0  0  0  0  0  0  0  0  0  0
   25.8627  -22.5481  -14.6895 C   0  0  0  0  0  0  0  0  0  0  0  0
   25.4907  -21.1869  -15.1796 C   0  0  1  0  0  0  0  0  0  0  0  0
   24.0929  -21.0979  -15.0724 O   0  0  0  0  0  0  0  0  0  0  0  0
   26.0345  -20.0498  -14.3287 C   0  0  2  0  0  0  0  0  0  0  0  0
   25.3030  -20.1636  -13.0470 N   0  0  0  0  0  0  0  0  0  0  0  0
   25.7690  -18.7277  -14.9263 C   0  0  0  0  0  0  0  0  0  0  0  0
   24.5917  -18.2527  -14.8727 O   0  0  0  0  0  0  0  0  0  0  0  0
   27.6926  -15.8558  -16.3757 C   0  0  0  0  0  0  0  0  0  0  0  0
   26.3949  -16.6322  -16.1667 C   0  0  2  0  0  0  0  0  0  0  0  0
   26.7267  -17.9175  -15.5684 N   0  0  0  0  0  0  0  0  0  0  0  0
   25.6870  -16.8025  -17.4435 C   0  0  0  0  0  0  0  0  0  0  0  0
   25.7711  -17.9165  -18.0211 O   0  0  0  0  0  0  0  0  0  0  0  0
   24.9292  -15.8228  -18.0631 O   0  0  0  0  0  0  0  0  0  0  0  0
  2  1  1  1
  3  2  1  0
  4  3  1  0
  5  2  1  0
  6  5  2  0
  8  7  1  1
  8 10  1  0
  9  8  1  0
 10 12  1  0
 10 11  1  1
 11  5  1  0
 12 13  2  0
 15 14  1  6
 16 15  1  0
 16 12  1  0
 17 19  1  0
 17 15  1  0
 18 17  2  0
M  END
$$$$
