FKL.pdb
     RDKit          3D

 29 29  0  0  1  0  0  0  0  0999 V2000
    5.6635  -17.1961   25.3246 N   0  0  0  0  0  0  0  0  0  0  0  0
    6.6090  -16.2311   24.8260 C   0  0  1  0  0  0  0  0  0  0  0  0
    7.0190  -15.2176   25.8592 C   0  0  0  0  0  0  0  0  0  0  0  0
    6.5859  -13.8540   25.5682 C   0  0  0  0  0  0  0  0  0  0  0  0
    7.3741  -13.0457   24.7791 C   0  0  0  0  0  0  0  0  0  0  0  0
    7.0059  -11.7383   24.4724 C   0  0  0  0  0  0  0  0  0  0  0  0
    5.8315  -11.2311   24.9622 C   0  0  0  0  0  0  0  0  0  0  0  0
    5.0384  -12.0347   25.7523 C   0  0  0  0  0  0  0  0  0  0  0  0
    5.4072  -13.3383   26.0571 C   0  0  0  0  0  0  0  0  0  0  0  0
    7.8280  -16.9636   24.4067 C   0  0  0  0  0  0  0  0  0  0  0  0
    8.2441  -17.8854   25.1481 O   0  0  0  0  0  0  0  0  0  0  0  0
    8.5604  -16.6922   23.2181 N   0  0  0  0  0  0  0  0  0  0  0  0
    9.9509  -17.0715   23.0710 C   0  0  1  0  0  0  0  0  0  0  0  0
   10.5361  -16.5867   21.7760 C   0  0  0  0  0  0  0  0  0  0  0  0
   11.9485  -17.1079   21.6577 C   0  0  0  0  0  0  0  0  0  0  0  0
   12.2964  -17.3823   20.2046 C   0  0  0  0  0  0  0  0  0  0  0  0
   13.7005  -17.8976   20.1107 C   0  0  0  0  0  0  0  0  0  0  0  0
   13.9471  -18.1727   18.6857 N   0  0  0  0  0  0  0  0  0  0  0  0
   10.7798  -16.5609   24.2159 C   0  0  0  0  0  0  0  0  0  0  0  0
   11.0341  -15.3413   24.2355 O   0  0  0  0  0  0  0  0  0  0  0  0
    9.3241  -15.0810   29.1044 C   0  0  0  0  0  0  0  0  0  0  0  0
   10.6319  -15.5562   28.4555 C   0  0  2  0  0  0  0  0  0  0  0  0
   11.6490  -14.4519   28.4956 C   0  0  0  0  0  0  0  0  0  0  0  0
   10.3848  -16.1054   27.1002 C   0  0  0  0  0  0  0  0  0  0  0  0
   11.5845  -16.7994   26.5407 C   0  0  2  0  0  0  0  0  0  0  0  0
   11.2640  -17.4053   25.2415 N   0  0  0  0  0  0  0  0  0  0  0  0
   12.0879  -17.8590   27.4260 C   0  0  0  0  0  0  0  0  0  0  0  0
   12.6449  -17.5235   28.5244 O   0  0  0  0  0  0  0  0  0  0  0  0
   11.9988  -19.2042   27.1534 O   0  0  0  0  0  0  0  0  0  0  0  0
  2 10  1  0
  2  1  1  1
  3  2  1  0
  4  9  2  0
  4  3  1  0
  5  4  1  0
  6  7  1  0
  6  5  2  0
  7  8  2  0
  8  9  1  0
 10 11  2  0
 12 13  1  0
 12 10  1  0
 13 14  1  6
 14 15  1  0
 15 16  1  0
 16 17  1  0
 17 18  1  0
 19 13  1  0
 20 19  2  0
 22 21  1  6
 23 22  1  0
 25 24  1  1
 24 22  1  0
 25 26  1  0
 26 19  1  0
 27 25  1  0
 27 29  1  0
 28 27  2  0
M  END
$$$$
