FKL.pdb
     RDKit          3D

 29 29  0  0  1  0  0  0  0  0999 V2000
    5.2569  -17.8954   25.5360 N   0  0  0  0  0  0  0  0  0  0  0  0
    5.9042  -16.6109   25.4676 C   0  0  1  0  0  0  0  0  0  0  0  0
    6.5247  -16.1918   26.7722 C   0  0  0  0  0  0  0  0  0  0  0  0
    6.8823  -14.7779   26.8407 C   0  0  0  0  0  0  0  0  0  0  0  0
    8.2014  -14.4192   27.0099 C   0  0  0  0  0  0  0  0  0  0  0  0
    8.5941  -13.0852   27.0814 C   0  0  0  0  0  0  0  0  0  0  0  0
    7.6534  -12.0944   26.9823 C   0  0  0  0  0  0  0  0  0  0  0  0
    6.3320  -12.4466   26.8129 C   0  0  0  0  0  0  0  0  0  0  0  0
    5.9422  -13.7775   26.7418 C   0  0  0  0  0  0  0  0  0  0  0  0
    6.9904  -16.7020   24.4624 C   0  0  0  0  0  0  0  0  0  0  0  0
    7.7309  -17.7137   24.4873 O   0  0  0  0  0  0  0  0  0  0  0  0
    7.2513  -15.7184   23.4688 N   0  0  0  0  0  0  0  0  0  0  0  0
    8.4328  -15.7686   22.6319 C   0  0  1  0  0  0  0  0  0  0  0  0
    8.3064  -14.8906   21.4205 C   0  0  0  0  0  0  0  0  0  0  0  0
    9.3413  -15.3139   20.4056 C   0  0  0  0  0  0  0  0  0  0  0  0
    9.3453  -16.8246   20.2454 C   0  0  0  0  0  0  0  0  0  0  0  0
    8.6519  -17.1986   18.9706 C   0  0  0  0  0  0  0  0  0  0  0  0
    9.6982  -17.6840   18.0560 N   0  0  0  0  0  0  0  0  0  0  0  0
    9.6640  -15.3827   23.4024 C   0  0  0  0  0  0  0  0  0  0  0  0
   10.2990  -14.3887   23.0007 O   0  0  0  0  0  0  0  0  0  0  0  0
   10.2123  -13.0917   26.4874 C   0  0  0  0  0  0  0  0  0  0  0  0
    9.8252  -14.4767   27.0251 C   0  0  2  0  0  0  0  0  0  0  0  0
    9.4385  -14.3695   28.4723 C   0  0  0  0  0  0  0  0  0  0  0  0
   10.8922  -15.4704   26.7536 C   0  0  0  0  0  0  0  0  0  0  0  0
   11.2368  -15.5519   25.3015 C   0  0  2  0  0  0  0  0  0  0  0  0
   10.1068  -16.0985   24.5385 N   0  0  0  0  0  0  0  0  0  0  0  0
   12.4109  -16.3982   25.0463 C   0  0  0  0  0  0  0  0  0  0  0  0
   12.2331  -17.5451   24.5149 O   0  0  0  0  0  0  0  0  0  0  0  0
   13.7051  -16.0376   25.3409 O   0  0  0  0  0  0  0  0  0  0  0  0
  2 10  1  0
  2  1  1  1
  3  2  1  0
  4  9  2  0
  4  3  1  0
  5  4  1  0
  6  7  1  0
  6  5  2  0
  7  8  2  0
  8  9  1  0
 10 11  2  0
 12 13  1  0
 12 10  1  0
 13 14  1  6
 14 15  1  0
 15 16  1  0
 16 17  1  0
 17 18  1  0
 19 13  1  0
 20 19  2  0
 22 21  1  1
 23 22  1  0
 25 24  1  1
 24 22  1  0
 25 26  1  0
 26 19  1  0
 27 25  1  0
 27 29  1  0
 28 27  2  0
M  END
$$$$
