FKL.pdb
     RDKit          3D

 29 29  0  0  1  0  0  0  0  0999 V2000
    6.1028  -18.1966   23.0187 N   0  0  0  0  0  0  0  0  0  0  0  0
    6.6804  -16.9186   23.3456 C   0  0  1  0  0  0  0  0  0  0  0  0
    5.9038  -16.1702   24.3941 C   0  0  0  0  0  0  0  0  0  0  0  0
    6.3503  -14.7963   24.6061 C   0  0  0  0  0  0  0  0  0  0  0  0
    6.2366  -14.2315   25.8572 C   0  0  0  0  0  0  0  0  0  0  0  0
    6.6476  -12.9256   26.1111 C   0  0  0  0  0  0  0  0  0  0  0  0
    7.1806  -12.1726   25.0985 C   0  0  0  0  0  0  0  0  0  0  0  0
    7.2971  -12.7319   23.8445 C   0  0  0  0  0  0  0  0  0  0  0  0
    6.8867  -14.0344   23.5931 C   0  0  0  0  0  0  0  0  0  0  0  0
    8.0421  -17.1587   23.8810 C   0  0  0  0  0  0  0  0  0  0  0  0
    8.2460  -16.9230   25.0956 O   0  0  0  0  0  0  0  0  0  0  0  0
    9.1363  -17.6392   23.1099 N   0  0  0  0  0  0  0  0  0  0  0  0
   10.3895  -16.9173   23.0244 C   0  0  1  0  0  0  0  0  0  0  0  0
   10.3523  -15.8404   21.9787 C   0  0  0  0  0  0  0  0  0  0  0  0
   11.6927  -15.1453   21.9517 C   0  0  0  0  0  0  0  0  0  0  0  0
   12.2209  -15.0592   20.5299 C   0  0  0  0  0  0  0  0  0  0  0  0
   13.5392  -14.3465   20.5238 C   0  0  0  0  0  0  0  0  0  0  0  0
   13.9266  -14.2027   19.1110 N   0  0  0  0  0  0  0  0  0  0  0  0
   10.7635  -16.3146   24.3493 C   0  0  0  0  0  0  0  0  0  0  0  0
   10.8416  -15.0724   24.4081 O   0  0  0  0  0  0  0  0  0  0  0  0
    8.7608  -14.3233   28.8518 C   0  0  0  0  0  0  0  0  0  0  0  0
   10.0915  -14.9821   28.4613 C   0  0  2  0  0  0  0  0  0  0  0  0
   11.2146  -14.0006   28.6372 C   0  0  0  0  0  0  0  0  0  0  0  0
   10.0127  -15.5781   27.1055 C   0  0  0  0  0  0  0  0  0  0  0  0
   11.2133  -16.4060   26.7779 C   0  0  2  0  0  0  0  0  0  0  0  0
   11.0213  -17.0990   25.4970 N   0  0  0  0  0  0  0  0  0  0  0  0
   11.4993  -17.4173   27.8051 C   0  0  0  0  0  0  0  0  0  0  0  0
   11.8512  -17.0245   28.9675 O   0  0  0  0  0  0  0  0  0  0  0  0
   11.4116  -18.7748   27.6019 O   0  0  0  0  0  0  0  0  0  0  0  0
  2 10  1  0
  2  1  1  1
  3  2  1  0
  4  9  2  0
  4  3  1  0
  5  4  1  0
  6  7  1  0
  6  5  2  0
  7  8  2  0
  8  9  1  0
 10 11  2  0
 12 13  1  0
 12 10  1  0
 13 14  1  6
 14 15  1  0
 15 16  1  0
 16 17  1  0
 17 18  1  0
 19 13  1  0
 20 19  2  0
 22 21  1  6
 23 22  1  0
 25 24  1  1
 24 22  1  0
 25 26  1  0
 26 19  1  0
 27 25  1  0
 27 29  1  0
 28 27  2  0
M  END
$$$$
