FKL.pdb
     RDKit          3D

 29 29  0  0  1  0  0  0  0  0999 V2000
    5.9785  -18.1762   25.3379 N   0  0  0  0  0  0  0  0  0  0  0  0
    6.1054  -16.7459   25.2297 C   0  0  1  0  0  0  0  0  0  0  0  0
    6.3614  -16.0740   26.5509 C   0  0  0  0  0  0  0  0  0  0  0  0
    6.3146  -14.6155   26.5023 C   0  0  0  0  0  0  0  0  0  0  0  0
    7.4786  -13.9055   26.3068 C   0  0  0  0  0  0  0  0  0  0  0  0
    7.4874  -12.5142   26.2527 C   0  0  0  0  0  0  0  0  0  0  0  0
    6.3142  -11.8218   26.3963 C   0  0  0  0  0  0  0  0  0  0  0  0
    5.1462  -12.5262   26.5922 C   0  0  0  0  0  0  0  0  0  0  0  0
    5.1393  -13.9138   26.6459 C   0  0  0  0  0  0  0  0  0  0  0  0
    7.2616  -16.4574   24.3475 C   0  0  0  0  0  0  0  0  0  0  0  0
    8.2351  -17.2472   24.3773 O   0  0  0  0  0  0  0  0  0  0  0  0
    7.3432  -15.3433   23.4671 N   0  0  0  0  0  0  0  0  0  0  0  0
    8.4384  -15.1836   22.5322 C   0  0  1  0  0  0  0  0  0  0  0  0
    8.2719  -13.9675   21.6674 C   0  0  0  0  0  0  0  0  0  0  0  0
    8.1288  -14.4108   20.2310 C   0  0  0  0  0  0  0  0  0  0  0  0
    8.7438  -13.3867   19.2924 C   0  0  0  0  0  0  0  0  0  0  0  0
    8.5066  -13.7986   17.8711 C   0  0  0  0  0  0  0  0  0  0  0  0
    9.0958  -12.7441   17.0297 N   0  0  0  0  0  0  0  0  0  0  0  0
    9.7590  -15.1121   23.2460 C   0  0  0  0  0  0  0  0  0  0  0  0
   10.3841  -14.0363   23.1807 O   0  0  0  0  0  0  0  0  0  0  0  0
    9.8072  -14.7796   28.6277 C   0  0  0  0  0  0  0  0  0  0  0  0
   10.8249  -15.0774   27.5174 C   0  0  2  0  0  0  0  0  0  0  0  0
   11.8849  -14.0136   27.5018 C   0  0  0  0  0  0  0  0  0  0  0  0
   10.1469  -15.2783   26.2137 C   0  0  0  0  0  0  0  0  0  0  0  0
   11.0414  -15.9157   25.2001 C   0  0  2  0  0  0  0  0  0  0  0  0
   10.2940  -16.2033   23.9686 N   0  0  0  0  0  0  0  0  0  0  0  0
   11.6317  -17.1734   25.6793 C   0  0  0  0  0  0  0  0  0  0  0  0
   12.8475  -17.1681   26.0684 O   0  0  0  0  0  0  0  0  0  0  0  0
   10.9587  -18.3713   25.7415 O   0  0  0  0  0  0  0  0  0  0  0  0
  2 10  1  0
  2  1  1  1
  3  2  1  0
  4  9  2  0
  4  3  1  0
  5  4  1  0
  6  7  1  0
  6  5  2  0
  7  8  2  0
  8  9  1  0
 10 11  2  0
 12 13  1  0
 12 10  1  0
 13 14  1  1
 14 15  1  0
 15 16  1  0
 16 17  1  0
 17 18  1  0
 19 13  1  0
 20 19  2  0
 22 21  1  1
 23 22  1  0
 25 24  1  1
 24 22  1  0
 25 26  1  0
 26 19  1  0
 27 25  1  0
 27 29  1  0
 28 27  2  0
M  END
$$$$
