FKL.pdb
     RDKit          3D

 29 29  0  0  1  0  0  0  0  0999 V2000
    6.1338  -18.2129   25.3181 N   0  0  0  0  0  0  0  0  0  0  0  0
    6.1578  -16.7809   25.1682 C   0  0  1  0  0  0  0  0  0  0  0  0
    6.2109  -16.0503   26.4820 C   0  0  0  0  0  0  0  0  0  0  0  0
    6.0422  -14.6042   26.3726 C   0  0  0  0  0  0  0  0  0  0  0  0
    7.1486  -13.7858   26.4299 C   0  0  0  0  0  0  0  0  0  0  0  0
    7.0411  -12.4011   26.3305 C   0  0  0  0  0  0  0  0  0  0  0  0
    5.8083  -11.8256   26.1714 C   0  0  0  0  0  0  0  0  0  0  0  0
    4.6973  -12.6388   26.1134 C   0  0  0  0  0  0  0  0  0  0  0  0
    4.8064  -14.0196   26.2126 C   0  0  0  0  0  0  0  0  0  0  0  0
    7.3784  -16.4239   24.4059 C   0  0  0  0  0  0  0  0  0  0  0  0
    8.4096  -17.1129   24.5911 O   0  0  0  0  0  0  0  0  0  0  0  0
    7.4608  -15.3506   23.4764 N   0  0  0  0  0  0  0  0  0  0  0  0
    8.6279  -15.1465   22.6425 C   0  0  1  0  0  0  0  0  0  0  0  0
    8.4839  -13.9471   21.7508 C   0  0  0  0  0  0  0  0  0  0  0  0
    8.8695  -14.3402   20.3447 C   0  0  0  0  0  0  0  0  0  0  0  0
    8.5209  -13.2319   19.3658 C   0  0  0  0  0  0  0  0  0  0  0  0
    8.8460  -13.6707   17.9702 C   0  0  0  0  0  0  0  0  0  0  0  0
    8.4649  -12.5573   17.0858 N   0  0  0  0  0  0  0  0  0  0  0  0
    9.8732  -15.0058   23.4719 C   0  0  0  0  0  0  0  0  0  0  0  0
   10.2359  -13.8500   23.7633 O   0  0  0  0  0  0  0  0  0  0  0  0
   10.7925  -15.6660   28.7346 C   0  0  0  0  0  0  0  0  0  0  0  0
   11.5625  -15.2836   27.4626 C   0  0  2  0  0  0  0  0  0  0  0  0
   12.1400  -13.9055   27.6138 C   0  0  0  0  0  0  0  0  0  0  0  0
   10.7182  -15.4593   26.2561 C   0  0  0  0  0  0  0  0  0  0  0  0
   11.5028  -15.9401   25.0783 C   0  0  2  0  0  0  0  0  0  0  0  0
   10.6216  -16.1199   23.9168 N   0  0  0  0  0  0  0  0  0  0  0  0
   12.1832  -17.2170   25.3362 C   0  0  0  0  0  0  0  0  0  0  0  0
   13.4336  -17.2017   25.5926 O   0  0  0  0  0  0  0  0  0  0  0  0
   11.5608  -18.4434   25.3232 O   0  0  0  0  0  0  0  0  0  0  0  0
  2 10  1  0
  2  1  1  1
  3  2  1  0
  4  9  2  0
  4  3  1  0
  5  4  1  0
  6  7  1  0
  6  5  2  0
  7  8  2  0
  8  9  1  0
 10 11  2  0
 12 13  1  0
 12 10  1  0
 13 14  1  1
 14 15  1  0
 15 16  1  0
 16 17  1  0
 17 18  1  0
 19 13  1  0
 20 19  2  0
 22 21  1  1
 23 22  1  0
 25 24  1  1
 24 22  1  0
 25 26  1  0
 26 19  1  0
 27 25  1  0
 27 29  1  0
 28 27  2  0
M  END
$$$$
