FKL.pdb
     RDKit          3D

 29 29  0  0  1  0  0  0  0  0999 V2000
    5.5331  -18.0857   23.9311 N   0  0  0  0  0  0  0  0  0  0  0  0
    6.2517  -16.8581   24.1551 C   0  0  1  0  0  0  0  0  0  0  0  0
    5.9270  -16.2162   25.4762 C   0  0  0  0  0  0  0  0  0  0  0  0
    6.4628  -14.8675   25.6367 C   0  0  0  0  0  0  0  0  0  0  0  0
    6.2333  -14.1814   26.8088 C   0  0  0  0  0  0  0  0  0  0  0  0
    6.7223  -12.8935   27.0111 C   0  0  0  0  0  0  0  0  0  0  0  0
    7.4521  -12.2819   26.0263 C   0  0  0  0  0  0  0  0  0  0  0  0
    7.6852  -12.9630   24.8513 C   0  0  0  0  0  0  0  0  0  0  0  0
    7.1968  -14.2474   24.6512 C   0  0  0  0  0  0  0  0  0  0  0  0
    7.7007  -17.1724   24.1524 C   0  0  0  0  0  0  0  0  0  0  0  0
    8.1160  -18.0374   24.9597 O   0  0  0  0  0  0  0  0  0  0  0  0
    8.6551  -16.5588   23.2949 N   0  0  0  0  0  0  0  0  0  0  0  0
   10.0679  -16.8702   23.3730 C   0  0  1  0  0  0  0  0  0  0  0  0
   10.8269  -16.3597   22.1822 C   0  0  0  0  0  0  0  0  0  0  0  0
   11.6763  -17.4808   21.6326 C   0  0  0  0  0  0  0  0  0  0  0  0
   11.8082  -17.3604   20.1239 C   0  0  0  0  0  0  0  0  0  0  0  0
   12.7029  -18.4460   19.6075 C   0  0  0  0  0  0  0  0  0  0  0  0
   12.5785  -18.4238   18.1409 N   0  0  0  0  0  0  0  0  0  0  0  0
   10.6797  -16.3179   24.6297 C   0  0  0  0  0  0  0  0  0  0  0  0
   11.4539  -15.3493   24.5082 O   0  0  0  0  0  0  0  0  0  0  0  0
   10.7507  -13.3811   27.2061 C   0  0  0  0  0  0  0  0  0  0  0  0
    9.6878  -14.4515   27.4919 C   0  0  2  0  0  0  0  0  0  0  0  0
    8.6035  -13.8724   28.3547 C   0  0  0  0  0  0  0  0  0  0  0  0
   10.3065  -15.6833   28.0389 C   0  0  0  0  0  0  0  0  0  0  0  0
   11.1946  -16.3622   27.0466 C   0  0  2  0  0  0  0  0  0  0  0  0
   10.4064  -16.8545   25.9090 N   0  0  0  0  0  0  0  0  0  0  0  0
   11.9206  -17.5015   27.6253 C   0  0  0  0  0  0  0  0  0  0  0  0
   12.7215  -17.2860   28.5956 O   0  0  0  0  0  0  0  0  0  0  0  0
   11.7957  -18.8009   27.1922 O   0  0  0  0  0  0  0  0  0  0  0  0
  2 10  1  0
  2  1  1  1
  3  2  1  0
  4  9  2  0
  4  3  1  0
  5  4  1  0
  6  7  1  0
  6  5  2  0
  7  8  2  0
  8  9  1  0
 10 11  2  0
 12 13  1  0
 12 10  1  0
 13 14  1  6
 14 15  1  0
 15 16  1  0
 16 17  1  0
 17 18  1  0
 19 13  1  0
 20 19  2  0
 22 21  1  1
 23 22  1  0
 25 24  1  1
 24 22  1  0
 25 26  1  0
 26 19  1  0
 27 25  1  0
 27 29  1  0
 28 27  2  0
M  END
$$$$
