FKL.pdb
     RDKit          3D

 29 29  0  0  1  0  0  0  0  0999 V2000
    5.5577  -17.9714   25.5825 N   0  0  0  0  0  0  0  0  0  0  0  0
    5.9624  -16.6089   25.3512 C   0  0  1  0  0  0  0  0  0  0  0  0
    6.0792  -15.8044   26.6169 C   0  0  0  0  0  0  0  0  0  0  0  0
    6.1848  -14.3636   26.4054 C   0  0  0  0  0  0  0  0  0  0  0  0
    5.0535  -13.6372   26.1060 C   0  0  0  0  0  0  0  0  0  0  0  0
    5.1010  -12.2616   25.8953 C   0  0  0  0  0  0  0  0  0  0  0  0
    6.2981  -11.6020   25.9855 C   0  0  0  0  0  0  0  0  0  0  0  0
    7.4336  -12.3229   26.2848 C   0  0  0  0  0  0  0  0  0  0  0  0
    7.3844  -13.6948   26.4946 C   0  0  0  0  0  0  0  0  0  0  0  0
    7.2990  -16.6342   24.7100 C   0  0  0  0  0  0  0  0  0  0  0  0
    8.1475  -17.4452   25.1514 O   0  0  0  0  0  0  0  0  0  0  0  0
    7.6867  -15.7996   23.6256 N   0  0  0  0  0  0  0  0  0  0  0  0
    9.0015  -15.8865   23.0232 C   0  0  1  0  0  0  0  0  0  0  0  0
    9.1263  -15.0136   21.8078 C   0  0  0  0  0  0  0  0  0  0  0  0
   10.4379  -15.3195   21.1248 C   0  0  0  0  0  0  0  0  0  0  0  0
   10.2450  -16.3705   20.0448 C   0  0  0  0  0  0  0  0  0  0  0  0
   11.5695  -16.7156   19.4345 C   0  0  0  0  0  0  0  0  0  0  0  0
   11.2983  -17.7247   18.3975 N   0  0  0  0  0  0  0  0  0  0  0  0
   10.0779  -15.5279   24.0086 C   0  0  0  0  0  0  0  0  0  0  0  0
   10.3443  -14.3185   24.1460 O   0  0  0  0  0  0  0  0  0  0  0  0
   10.7773  -13.9766   27.5108 C   0  0  0  0  0  0  0  0  0  0  0  0
   10.3279  -15.4409   27.6160 C   0  0  2  0  0  0  0  0  0  0  0  0
    9.8748  -15.7334   29.0176 C   0  0  0  0  0  0  0  0  0  0  0  0
   11.3798  -16.3579   27.1138 C   0  0  0  0  0  0  0  0  0  0  0  0
   11.7932  -16.0363   25.7139 C   0  0  2  0  0  0  0  0  0  0  0  0
   10.7755  -16.5003   24.7617 N   0  0  0  0  0  0  0  0  0  0  0  0
   13.0754  -16.6542   25.3478 C   0  0  0  0  0  0  0  0  0  0  0  0
   13.0769  -17.5871   24.4764 O   0  0  0  0  0  0  0  0  0  0  0  0
   14.2903  -16.2932   25.8819 O   0  0  0  0  0  0  0  0  0  0  0  0
  2 10  1  0
  2  1  1  1
  3  2  1  0
  4  9  2  0
  4  3  1  0
  5  4  1  0
  6  7  1  0
  6  5  2  0
  7  8  2  0
  8  9  1  0
 10 11  2  0
 12 13  1  0
 12 10  1  0
 13 14  1  6
 14 15  1  0
 15 16  1  0
 16 17  1  0
 17 18  1  0
 19 13  1  0
 20 19  2  0
 22 21  1  1
 23 22  1  0
 25 24  1  1
 24 22  1  0
 25 26  1  0
 26 19  1  0
 27 25  1  0
 27 29  1  0
 28 27  2  0
M  END
$$$$
