FKL.pdb
     RDKit          3D

 29 29  0  0  1  0  0  0  0  0999 V2000
    5.7897  -18.1218   25.4558 N   0  0  0  0  0  0  0  0  0  0  0  0
    6.0354  -16.7062   25.3588 C   0  0  1  0  0  0  0  0  0  0  0  0
    6.4585  -16.0894   26.6639 C   0  0  0  0  0  0  0  0  0  0  0  0
    6.5377  -14.6316   26.6418 C   0  0  0  0  0  0  0  0  0  0  0  0
    7.7604  -14.0211   26.4708 C   0  0  0  0  0  0  0  0  0  0  0  0
    7.8892  -12.6349   26.4425 C   0  0  0  0  0  0  0  0  0  0  0  0
    6.7782  -11.8469   26.5874 C   0  0  0  0  0  0  0  0  0  0  0  0
    5.5519  -12.4515   26.7589 C   0  0  0  0  0  0  0  0  0  0  0  0
    5.4253  -13.8341   26.7868 C   0  0  0  0  0  0  0  0  0  0  0  0
    7.1364  -16.5013   24.3872 C   0  0  0  0  0  0  0  0  0  0  0  0
    8.0531  -17.3561   24.3486 O   0  0  0  0  0  0  0  0  0  0  0  0
    7.2251  -15.3988   23.4930 N   0  0  0  0  0  0  0  0  0  0  0  0
    8.2515  -15.3192   22.4736 C   0  0  1  0  0  0  0  0  0  0  0  0
    7.9679  -14.2413   21.4675 C   0  0  0  0  0  0  0  0  0  0  0  0
    8.8558  -14.4557   20.2650 C   0  0  0  0  0  0  0  0  0  0  0  0
    8.5631  -13.4192   19.1935 C   0  0  0  0  0  0  0  0  0  0  0  0
    9.3435  -13.7397   17.9549 C   0  0  0  0  0  0  0  0  0  0  0  0
    9.0645  -12.6574   16.9970 N   0  0  0  0  0  0  0  0  0  0  0  0
    9.6072  -15.0915   23.0809 C   0  0  0  0  0  0  0  0  0  0  0  0
   10.1541  -13.9944   22.8580 O   0  0  0  0  0  0  0  0  0  0  0  0
   12.0097  -15.0595   27.4448 C   0  0  0  0  0  0  0  0  0  0  0  0
   10.6272  -14.4235   27.2417 C   0  0  2  0  0  0  0  0  0  0  0  0
    9.8106  -14.5734   28.4932 C   0  0  0  0  0  0  0  0  0  0  0  0
    9.9715  -14.9534   26.0216 C   0  0  0  0  0  0  0  0  0  0  0  0
   10.9422  -15.6116   25.0949 C   0  0  2  0  0  0  0  0  0  0  0  0
   10.2583  -16.0629   23.8757 N   0  0  0  0  0  0  0  0  0  0  0  0
   11.6041  -16.7742   25.7031 C   0  0  0  0  0  0  0  0  0  0  0  0
   10.9333  -17.8500   25.8523 O   0  0  0  0  0  0  0  0  0  0  0  0
   12.9125  -16.7874   26.1269 O   0  0  0  0  0  0  0  0  0  0  0  0
  2 10  1  0
  2  1  1  1
  3  2  1  0
  4  9  2  0
  4  3  1  0
  5  4  1  0
  6  7  1  0
  6  5  2  0
  7  8  2  0
  8  9  1  0
 10 11  2  0
 12 13  1  0
 12 10  1  0
 13 14  1  6
 14 15  1  0
 15 16  1  0
 16 17  1  0
 17 18  1  0
 19 13  1  0
 20 19  2  0
 22 21  1  1
 23 22  1  0
 25 24  1  1
 24 22  1  0
 25 26  1  0
 26 19  1  0
 27 25  1  0
 27 29  1  0
 28 27  2  0
M  END
$$$$
