FKL.pdb
     RDKit          3D

 29 29  0  0  1  0  0  0  0  0999 V2000
    8.7189  -15.2073   25.3279 N   0  0  0  0  0  0  0  0  0  0  0  0
    7.5891  -16.0989   25.3755 C   0  0  1  0  0  0  0  0  0  0  0  0
    6.2713  -15.3785   25.4608 C   0  0  0  0  0  0  0  0  0  0  0  0
    6.3865  -13.9364   25.6582 C   0  0  0  0  0  0  0  0  0  0  0  0
    5.2605  -13.1999   25.9529 C   0  0  0  0  0  0  0  0  0  0  0  0
    5.3172  -11.8227   26.1500 C   0  0  0  0  0  0  0  0  0  0  0  0
    6.5183  -11.1717   26.0511 C   0  0  0  0  0  0  0  0  0  0  0  0
    7.6486  -11.9028   25.7565 C   0  0  0  0  0  0  0  0  0  0  0  0
    7.5902  -13.2762   25.5602 C   0  0  0  0  0  0  0  0  0  0  0  0
    7.5855  -16.8954   24.1249 C   0  0  0  0  0  0  0  0  0  0  0  0
    6.8021  -17.8718   24.0522 O   0  0  0  0  0  0  0  0  0  0  0  0
    8.4117  -16.6278   22.9985 N   0  0  0  0  0  0  0  0  0  0  0  0
    9.7192  -17.2330   22.8458 C   0  0  1  0  0  0  0  0  0  0  0  0
   10.3406  -16.9106   21.5175 C   0  0  0  0  0  0  0  0  0  0  0  0
    9.5264  -17.5691   20.4295 C   0  0  0  0  0  0  0  0  0  0  0  0
   10.4310  -18.0836   19.3227 C   0  0  0  0  0  0  0  0  0  0  0  0
    9.6161  -18.8319   18.3119 C   0  0  0  0  0  0  0  0  0  0  0  0
    9.7259  -18.0797   17.0513 N   0  0  0  0  0  0  0  0  0  0  0  0
   10.6486  -16.8094   23.9481 C   0  0  0  0  0  0  0  0  0  0  0  0
   11.2142  -15.7062   23.8238 O   0  0  0  0  0  0  0  0  0  0  0  0
    9.1991  -14.9013   28.7850 C   0  0  0  0  0  0  0  0  0  0  0  0
   10.4804  -15.3314   28.0567 C   0  0  2  0  0  0  0  0  0  0  0  0
   11.3990  -14.1528   27.9067 C   0  0  0  0  0  0  0  0  0  0  0  0
   10.1626  -16.0199   26.7821 C   0  0  0  0  0  0  0  0  0  0  0  0
   11.2609  -16.9319   26.3396 C   0  0  2  0  0  0  0  0  0  0  0  0
   10.8902  -17.6083   25.0895 N   0  0  0  0  0  0  0  0  0  0  0  0
   11.5766  -17.9621   27.3390 C   0  0  0  0  0  0  0  0  0  0  0  0
   10.8022  -18.9719   27.4407 O   0  0  0  0  0  0  0  0  0  0  0  0
   12.6622  -17.9171   28.1823 O   0  0  0  0  0  0  0  0  0  0  0  0
  2 10  1  0
  2  1  1  6
  3  2  1  0
  4  9  2  0
  4  3  1  0
  5  4  1  0
  6  7  1  0
  6  5  2  0
  7  8  2  0
  8  9  1  0
 10 11  2  0
 12 13  1  0
 12 10  1  0
 13 14  1  6
 14 15  1  0
 15 16  1  0
 16 17  1  0
 17 18  1  0
 19 13  1  0
 20 19  2  0
 22 21  1  6
 23 22  1  0
 25 24  1  1
 24 22  1  0
 25 26  1  0
 26 19  1  0
 27 25  1  0
 27 29  1  0
 28 27  2  0
M  END
$$$$
