FKL.pdb
     RDKit          3D

 29 29  0  0  1  0  0  0  0  0999 V2000
    7.4210  -17.2291   25.2164 N   0  0  0  0  0  0  0  0  0  0  0  0
    6.3636  -17.0229   24.2609 C   0  0  1  0  0  0  0  0  0  0  0  0
    5.3899  -15.9552   24.6787 C   0  0  0  0  0  0  0  0  0  0  0  0
    6.0151  -14.7339   25.1781 C   0  0  0  0  0  0  0  0  0  0  0  0
    5.9073  -14.4137   26.5134 C   0  0  0  0  0  0  0  0  0  0  0  0
    6.4851  -13.2610   27.0389 C   0  0  0  0  0  0  0  0  0  0  0  0
    7.1815  -12.4152   26.2167 C   0  0  0  0  0  0  0  0  0  0  0  0
    7.2931  -12.7299   24.8798 C   0  0  0  0  0  0  0  0  0  0  0  0
    6.7162  -13.8799   24.3574 C   0  0  0  0  0  0  0  0  0  0  0  0
    6.9821  -16.5922   22.9841 C   0  0  0  0  0  0  0  0  0  0  0  0
    6.2849  -15.9142   22.1925 O   0  0  0  0  0  0  0  0  0  0  0  0
    8.3157  -16.8957   22.5938 N   0  0  0  0  0  0  0  0  0  0  0  0
    9.2831  -15.8582   22.2989 C   0  0  1  0  0  0  0  0  0  0  0  0
    8.6264  -14.5712   21.8903 C   0  0  0  0  0  0  0  0  0  0  0  0
    7.9798  -14.7652   20.5396 C   0  0  0  0  0  0  0  0  0  0  0  0
    8.6472  -13.8848   19.4968 C   0  0  0  0  0  0  0  0  0  0  0  0
    7.9502  -14.0457   18.1799 C   0  0  0  0  0  0  0  0  0  0  0  0
    8.6954  -13.2233   17.2128 N   0  0  0  0  0  0  0  0  0  0  0  0
   10.1882  -15.6069   23.4719 C   0  0  0  0  0  0  0  0  0  0  0  0
   11.2672  -15.0266   23.2447 O   0  0  0  0  0  0  0  0  0  0  0  0
   10.1436  -14.7821   29.5298 C   0  0  0  0  0  0  0  0  0  0  0  0
   10.9344  -14.8935   28.2185 C   0  0  2  0  0  0  0  0  0  0  0  0
   11.7701  -13.6610   28.0235 C   0  0  0  0  0  0  0  0  0  0  0  0
   10.0362  -15.2046   27.0801 C   0  0  0  0  0  0  0  0  0  0  0  0
   10.7883  -15.6543   25.8692 C   0  0  2  0  0  0  0  0  0  0  0  0
    9.8556  -16.0009   24.7885 N   0  0  0  0  0  0  0  0  0  0  0  0
   11.6355  -16.8257   26.1333 C   0  0  0  0  0  0  0  0  0  0  0  0
   12.6139  -16.7014   26.9437 O   0  0  0  0  0  0  0  0  0  0  0  0
   11.4462  -18.0634   25.5641 O   0  0  0  0  0  0  0  0  0  0  0  0
  2 10  1  0
  2  1  1  1
  3  2  1  0
  4  9  2  0
  4  3  1  0
  5  4  1  0
  6  7  1  0
  6  5  2  0
  7  8  2  0
  8  9  1  0
 10 11  2  0
 12 13  1  0
 12 10  1  0
 13 14  1  1
 14 15  1  0
 15 16  1  0
 16 17  1  0
 17 18  1  0
 19 13  1  0
 20 19  2  0
 22 21  1  1
 23 22  1  0
 25 24  1  1
 24 22  1  0
 25 26  1  0
 26 19  1  0
 27 25  1  0
 27 29  1  0
 28 27  2  0
M  END
$$$$
