FKL.pdb
     RDKit          3D

 29 29  0  0  1  0  0  0  0  0999 V2000
    5.7273  -16.4595   25.1827 N   0  0  0  0  0  0  0  0  0  0  0  0
    6.9046  -15.7567   24.7426 C   0  0  1  0  0  0  0  0  0  0  0  0
    7.4626  -14.8279   25.7861 C   0  0  0  0  0  0  0  0  0  0  0  0
    6.8020  -13.5273   25.8479 C   0  0  0  0  0  0  0  0  0  0  0  0
    7.2055  -12.5203   24.9992 C   0  0  0  0  0  0  0  0  0  0  0  0
    6.6080  -11.2628   25.0187 C   0  0  0  0  0  0  0  0  0  0  0  0
    5.5912  -11.0080   25.9004 C   0  0  0  0  0  0  0  0  0  0  0  0
    5.1827  -12.0112   26.7523 C   0  0  0  0  0  0  0  0  0  0  0  0
    5.7798  -13.2648   26.7314 C   0  0  0  0  0  0  0  0  0  0  0  0
    7.9474  -16.7646   24.4345 C   0  0  0  0  0  0  0  0  0  0  0  0
    7.9895  -17.8011   25.1390 O   0  0  0  0  0  0  0  0  0  0  0  0
    8.9062  -16.6369   23.3918 N   0  0  0  0  0  0  0  0  0  0  0  0
   10.1837  -17.3188   23.4373 C   0  0  1  0  0  0  0  0  0  0  0  0
   10.9724  -17.1285   22.1739 C   0  0  0  0  0  0  0  0  0  0  0  0
   11.1303  -18.4683   21.4953 C   0  0  0  0  0  0  0  0  0  0  0  0
   10.5052  -18.4425   20.1109 C   0  0  0  0  0  0  0  0  0  0  0  0
   10.6562  -19.7860   19.4642 C   0  0  0  0  0  0  0  0  0  0  0  0
   10.0140  -19.6852   18.1435 N   0  0  0  0  0  0  0  0  0  0  0  0
   11.0037  -16.8634   24.6115 C   0  0  0  0  0  0  0  0  0  0  0  0
   11.9190  -16.0488   24.3854 O   0  0  0  0  0  0  0  0  0  0  0  0
   11.6381  -14.1464   27.1847 C   0  0  0  0  0  0  0  0  0  0  0  0
   10.5885  -15.0690   27.8207 C   0  0  2  0  0  0  0  0  0  0  0  0
    9.9487  -14.3790   28.9912 C   0  0  0  0  0  0  0  0  0  0  0  0
   11.1697  -16.3953   28.1409 C   0  0  0  0  0  0  0  0  0  0  0  0
   11.7902  -17.0471   26.9475 C   0  0  2  0  0  0  0  0  0  0  0  0
   10.7692  -17.3230   25.9280 N   0  0  0  0  0  0  0  0  0  0  0  0
   12.4572  -18.3140   27.2790 C   0  0  0  0  0  0  0  0  0  0  0  0
   11.8573  -19.4084   27.0109 O   0  0  0  0  0  0  0  0  0  0  0  0
   13.6990  -18.4065   27.8630 O   0  0  0  0  0  0  0  0  0  0  0  0
  2 10  1  0
  2  1  1  1
  3  2  1  0
  4  9  2  0
  4  3  1  0
  5  4  1  0
  6  7  1  0
  6  5  2  0
  7  8  2  0
  8  9  1  0
 10 11  2  0
 12 13  1  0
 12 10  1  0
 13 14  1  6
 14 15  1  0
 15 16  1  0
 16 17  1  0
 17 18  1  0
 19 13  1  0
 20 19  2  0
 22 21  1  1
 23 22  1  0
 25 24  1  1
 24 22  1  0
 25 26  1  0
 26 19  1  0
 27 25  1  0
 27 29  1  0
 28 27  2  0
M  END
$$$$
