QDV.pdb
     RDKit          3D

 25 24  0  0  1  0  0  0  0  0999 V2000
   13.5429  -13.6283  -13.0287 N   0  0  0  0  0  0  0  0  0  0  0  0
   14.6858  -12.9684  -13.6147 C   0  0  0  0  0  0  0  0  0  0  0  0
   15.6005  -13.6274  -14.1380 O   0  0  0  0  0  0  0  0  0  0  0  0
   14.7680  -11.4906  -13.5888 C   0  0  0  0  0  0  0  0  0  0  0  0
   15.9217  -10.9967  -14.3783 C   0  0  0  0  0  0  0  0  0  0  0  0
   15.4897  -10.0899  -15.4975 C   0  0  2  0  0  0  0  0  0  0  0  0
   15.3655  -10.9804  -16.6712 N   0  0  0  0  0  0  0  0  0  0  0  0
   16.5403   -9.0740  -15.7433 C   0  0  0  0  0  0  0  0  0  0  0  0
   17.3513   -9.1539  -16.6968 O   0  0  0  0  0  0  0  0  0  0  0  0
   16.6971   -7.9217  -14.8956 N   0  0  0  0  0  0  0  0  0  0  0  0
   17.6906   -6.9129  -15.1967 C   0  0  1  0  0  0  0  0  0  0  0  0
   16.9954   -5.6018  -15.4300 C   0  0  0  0  0  0  0  0  0  0  0  0
   17.9024   -4.4956  -15.7418 C   0  0  0  0  0  0  0  0  0  0  0  0
   18.9231   -4.7612  -16.4363 O   0  0  0  0  0  0  0  0  0  0  0  0
   18.7516   -6.8412  -14.1742 C   0  0  0  0  0  0  0  0  0  0  0  0
   18.4147   -6.8050  -12.9649 O   0  0  0  0  0  0  0  0  0  0  0  0
   17.7451   -3.1848  -15.3459 O   0  0  0  0  0  0  0  0  0  0  0  0
   22.8566   -7.6566  -14.9779 C   0  0  0  0  0  0  0  0  0  0  0  0
   22.2484   -7.7749  -13.5888 C   0  0  2  0  0  0  0  0  0  0  0  0
   21.7091   -9.2031  -13.5216 C   0  0  0  0  0  0  0  0  0  0  0  0
   21.1833   -6.7555  -13.4791 C   0  0  2  0  0  0  0  0  0  0  0  0
   20.1241   -6.8091  -14.4318 N   0  0  0  0  0  0  0  0  0  0  0  0
   21.7641   -5.3945  -13.5034 C   0  0  0  0  0  0  0  0  0  0  0  0
   21.4628   -4.4869  -14.5003 O   0  0  0  0  0  0  0  0  0  0  0  0
   22.5544   -5.0294  -12.6063 O   0  0  0  0  0  0  0  0  0  0  0  0
  1  2  1  0
  2  3  2  0
  4  2  1  0
  4  5  1  0
  6  5  1  0
  6  8  1  0
  6  7  1  6
  8  9  2  0
  8 10  1  0
 10 11  1  0
 11 12  1  1
 12 13  1  0
 13 14  2  0
 15 11  1  0
 15 22  1  0
 16 15  2  0
 17 13  1  0
 19 21  1  0
 19 18  1  6
 20 19  1  0
 21 23  1  0
 21 22  1  6
 23 25  2  0
 23 24  1  0
M  END
$$$$
