QDV.pdb
     RDKit          3D

 25 24  0  0  1  0  0  0  0  0999 V2000
   15.5474  -14.3846  -16.2220 N   0  0  0  0  0  0  0  0  0  0  0  0
   16.4911  -13.2941  -16.1492 C   0  0  0  0  0  0  0  0  0  0  0  0
   17.6706  -13.4497  -16.5092 O   0  0  0  0  0  0  0  0  0  0  0  0
   16.0474  -11.9777  -15.6378 C   0  0  0  0  0  0  0  0  0  0  0  0
   16.8536  -11.5488  -14.4698 C   0  0  0  0  0  0  0  0  0  0  0  0
   17.6630  -10.3167  -14.7676 C   0  0  2  0  0  0  0  0  0  0  0  0
   18.9989  -10.8299  -15.1391 N   0  0  0  0  0  0  0  0  0  0  0  0
   17.7636   -9.4847  -13.5453 C   0  0  0  0  0  0  0  0  0  0  0  0
   17.8350   -9.9767  -12.3938 O   0  0  0  0  0  0  0  0  0  0  0  0
   17.7857   -8.0469  -13.6039 N   0  0  0  0  0  0  0  0  0  0  0  0
   17.9623   -7.2614  -12.4009 C   0  0  1  0  0  0  0  0  0  0  0  0
   18.8601   -6.0971  -12.7092 C   0  0  0  0  0  0  0  0  0  0  0  0
   20.2241   -6.4800  -13.0783 C   0  0  0  0  0  0  0  0  0  0  0  0
   20.9468   -6.9902  -12.1771 O   0  0  0  0  0  0  0  0  0  0  0  0
   16.6789   -6.8674  -11.7893 C   0  0  0  0  0  0  0  0  0  0  0  0
   15.7655   -6.4416  -12.5388 O   0  0  0  0  0  0  0  0  0  0  0  0
   20.7959   -6.3347  -14.3240 O   0  0  0  0  0  0  0  0  0  0  0  0
   13.5377   -6.7612   -7.9769 C   0  0  0  0  0  0  0  0  0  0  0  0
   14.9524   -7.1187   -8.4058 C   0  0  2  0  0  0  0  0  0  0  0  0
   15.8558   -6.3676   -7.4286 C   0  0  0  0  0  0  0  0  0  0  0  0
   15.1228   -6.6687   -9.8037 C   0  0  2  0  0  0  0  0  0  0  0  0
   16.3794   -6.9252  -10.4262 N   0  0  0  0  0  0  0  0  0  0  0  0
   14.8302   -5.2227   -9.9219 C   0  0  0  0  0  0  0  0  0  0  0  0
   15.8332   -4.2776  -10.0174 O   0  0  0  0  0  0  0  0  0  0  0  0
   13.6479   -4.8174   -9.9383 O   0  0  0  0  0  0  0  0  0  0  0  0
  1  2  1  0
  2  3  2  0
  4  2  1  0
  4  5  1  0
  6  5  1  0
  6  8  1  0
  6  7  1  1
  8  9  2  0
  8 10  1  0
 10 11  1  0
 11 12  1  6
 12 13  1  0
 13 14  2  0
 15 11  1  0
 15 22  1  0
 16 15  2  0
 17 13  1  0
 19 21  1  0
 19 18  1  1
 20 19  1  0
 21 23  1  0
 21 22  1  1
 23 25  2  0
 23 24  1  0
M  END
$$$$
