QDV.pdb
     RDKit          3D

 25 24  0  0  1  0  0  0  0  0999 V2000
   19.9927   -8.9518  -20.2216 N   0  0  0  0  0  0  0  0  0  0  0  0
   19.4930  -10.0117  -19.3779 C   0  0  0  0  0  0  0  0  0  0  0  0
   19.8480  -11.1890  -19.5594 O   0  0  0  0  0  0  0  0  0  0  0  0
   18.5458   -9.6908  -18.2865 C   0  0  0  0  0  0  0  0  0  0  0  0
   18.2008   -8.2488  -18.2731 C   0  0  0  0  0  0  0  0  0  0  0  0
   19.2087   -7.4370  -17.5070 C   0  0  2  0  0  0  0  0  0  0  0  0
   19.0833   -7.9089  -16.1115 N   0  0  0  0  0  0  0  0  0  0  0  0
   18.8509   -6.0011  -17.5887 C   0  0  0  0  0  0  0  0  0  0  0  0
   18.7435   -5.3899  -18.6787 O   0  0  0  0  0  0  0  0  0  0  0  0
   18.6021   -5.2113  -16.4118 N   0  0  0  0  0  0  0  0  0  0  0  0
   18.3218   -3.7952  -16.5183 C   0  0  1  0  0  0  0  0  0  0  0  0
   17.1767   -3.4574  -15.6066 C   0  0  0  0  0  0  0  0  0  0  0  0
   16.6654   -2.0958  -15.7741 C   0  0  0  0  0  0  0  0  0  0  0  0
   15.4359   -1.9660  -16.0312 O   0  0  0  0  0  0  0  0  0  0  0  0
   19.5185   -2.9631  -16.2910 C   0  0  0  0  0  0  0  0  0  0  0  0
   20.2525   -3.2281  -15.3070 O   0  0  0  0  0  0  0  0  0  0  0  0
   17.4047   -0.9367  -15.6768 O   0  0  0  0  0  0  0  0  0  0  0  0
   20.7418    0.2191  -18.9508 C   0  0  0  0  0  0  0  0  0  0  0  0
   21.7484   -0.6770  -18.2461 C   0  0  2  0  0  0  0  0  0  0  0  0
   22.0087   -1.8171  -19.2298 C   0  0  0  0  0  0  0  0  0  0  0  0
   21.1296   -1.1393  -16.9856 C   0  0  2  0  0  0  0  0  0  0  0  0
   19.9191   -1.8859  -17.0850 N   0  0  0  0  0  0  0  0  0  0  0  0
   20.8999    0.0021  -16.0719 C   0  0  0  0  0  0  0  0  0  0  0  0
   21.9429    0.6944  -15.4877 O   0  0  0  0  0  0  0  0  0  0  0  0
   19.7363    0.3716  -15.8037 O   0  0  0  0  0  0  0  0  0  0  0  0
  1  2  1  0
  2  3  2  0
  4  2  1  0
  4  5  1  0
  6  5  1  0
  6  8  1  0
  6  7  1  1
  8  9  2  0
  8 10  1  0
 10 11  1  0
 11 12  1  1
 12 13  1  0
 13 14  2  0
 15 11  1  0
 15 22  1  0
 16 15  2  0
 17 13  1  0
 19 21  1  0
 19 18  1  6
 20 19  1  0
 21 23  1  0
 21 22  1  6
 23 25  2  0
 23 24  1  0
M  END
$$$$
