QDV.pdb
     RDKit          3D

 25 24  0  0  1  0  0  0  0  0999 V2000
   27.8899  -18.1561  -19.7968 N   0  0  0  0  0  0  0  0  0  0  0  0
   29.2232  -17.8135  -19.3609 C   0  0  0  0  0  0  0  0  0  0  0  0
   30.1727  -17.8109  -20.1630 O   0  0  0  0  0  0  0  0  0  0  0  0
   29.4600  -17.4638  -17.9421 C   0  0  0  0  0  0  0  0  0  0  0  0
   28.1903  -17.3998  -17.1791 C   0  0  0  0  0  0  0  0  0  0  0  0
   27.9256  -18.6715  -16.4211 C   0  0  2  0  0  0  0  0  0  0  0  0
   27.8232  -19.7129  -17.4655 N   0  0  0  0  0  0  0  0  0  0  0  0
   26.6383  -18.5552  -15.6960 C   0  0  0  0  0  0  0  0  0  0  0  0
   26.4663  -17.7581  -14.7429 O   0  0  0  0  0  0  0  0  0  0  0  0
   25.4948  -19.3568  -16.0433 N   0  0  0  0  0  0  0  0  0  0  0  0
   24.2477  -19.2162  -15.3219 C   0  0  1  0  0  0  0  0  0  0  0  0
   23.1246  -19.1001  -16.3127 C   0  0  0  0  0  0  0  0  0  0  0  0
   21.8016  -18.9717  -15.6989 C   0  0  0  0  0  0  0  0  0  0  0  0
   21.7295  -18.3500  -14.6021 O   0  0  0  0  0  0  0  0  0  0  0  0
   24.0454  -20.2875  -14.3280 C   0  0  0  0  0  0  0  0  0  0  0  0
   23.8317  -21.4539  -14.7417 O   0  0  0  0  0  0  0  0  0  0  0  0
   20.6217  -19.4687  -16.2092 O   0  0  0  0  0  0  0  0  0  0  0  0
   24.7453  -20.0837   -9.9458 C   0  0  0  0  0  0  0  0  0  0  0  0
   24.8888  -21.2626  -10.8960 C   0  0  2  0  0  0  0  0  0  0  0  0
   26.3104  -21.1482  -11.4448 C   0  0  0  0  0  0  0  0  0  0  0  0
   23.8574  -21.1190  -11.9453 C   0  0  2  0  0  0  0  0  0  0  0  0
   24.0702  -20.1214  -12.9413 N   0  0  0  0  0  0  0  0  0  0  0  0
   22.5270  -20.8944  -11.3370 C   0  0  0  0  0  0  0  0  0  0  0  0
   21.8680  -21.8820  -10.6308 O   0  0  0  0  0  0  0  0  0  0  0  0
   21.9599  -19.7862  -11.4507 O   0  0  0  0  0  0  0  0  0  0  0  0
  1  2  1  0
  2  3  2  0
  4  2  1  0
  4  5  1  0
  6  5  1  0
  6  8  1  0
  6  7  1  6
  8  9  2  0
  8 10  1  0
 10 11  1  0
 11 12  1  6
 12 13  1  0
 13 14  2  0
 15 11  1  0
 15 22  1  0
 16 15  2  0
 17 13  1  0
 19 21  1  0
 19 18  1  1
 20 19  1  0
 21 23  1  0
 21 22  1  6
 23 25  2  0
 23 24  1  0
M  END
$$$$
