QDV.pdb
     RDKit          3D

 25 24  0  0  1  0  0  0  0  0999 V2000
   29.2638  -24.6980  -19.7023 N   0  0  0  0  0  0  0  0  0  0  0  0
   30.1506  -24.1893  -18.6826 C   0  0  0  0  0  0  0  0  0  0  0  0
   31.2934  -23.7961  -18.9731 O   0  0  0  0  0  0  0  0  0  0  0  0
   29.6925  -24.1385  -17.2759 C   0  0  0  0  0  0  0  0  0  0  0  0
   29.4205  -22.7467  -16.8430 C   0  0  0  0  0  0  0  0  0  0  0  0
   28.0702  -22.2693  -17.3016 C   0  0  2  0  0  0  0  0  0  0  0  0
   28.3378  -21.5581  -18.5698 N   0  0  0  0  0  0  0  0  0  0  0  0
   27.5139  -21.3272  -16.3019 C   0  0  0  0  0  0  0  0  0  0  0  0
   28.2285  -20.5243  -15.6554 O   0  0  0  0  0  0  0  0  0  0  0  0
   26.1061  -21.2742  -16.0079 N   0  0  0  0  0  0  0  0  0  0  0  0
   25.5826  -20.2985  -15.0756 C   0  0  1  0  0  0  0  0  0  0  0  0
   24.6320  -19.3922  -15.8048 C   0  0  0  0  0  0  0  0  0  0  0  0
   25.2867  -18.4618  -16.7262 C   0  0  0  0  0  0  0  0  0  0  0  0
   26.3333  -17.8837  -16.3197 O   0  0  0  0  0  0  0  0  0  0  0  0
   24.9949  -20.9221  -13.8748 C   0  0  0  0  0  0  0  0  0  0  0  0
   24.1922  -21.8757  -14.0289 O   0  0  0  0  0  0  0  0  0  0  0  0
   24.8651  -18.1565  -18.0025 O   0  0  0  0  0  0  0  0  0  0  0  0
   24.5339  -21.4194   -8.9758 C   0  0  0  0  0  0  0  0  0  0  0  0
   25.3054  -20.7149  -10.0811 C   0  0  2  0  0  0  0  0  0  0  0  0
   25.1610  -19.2263   -9.7673 C   0  0  0  0  0  0  0  0  0  0  0  0
   24.6845  -21.0908  -11.3690 C   0  0  2  0  0  0  0  0  0  0  0  0
   25.2537  -20.5427  -12.5557 N   0  0  0  0  0  0  0  0  0  0  0  0
   23.2380  -20.7779  -11.3579 C   0  0  0  0  0  0  0  0  0  0  0  0
   22.3244  -21.5600  -10.6783 O   0  0  0  0  0  0  0  0  0  0  0  0
   22.8032  -19.7811  -11.9742 O   0  0  0  0  0  0  0  0  0  0  0  0
  1  2  1  0
  2  3  2  0
  4  2  1  0
  4  5  1  0
  6  5  1  0
  6  8  1  0
  6  7  1  6
  8  9  2  0
  8 10  1  0
 10 11  1  0
 11 12  1  6
 12 13  1  0
 13 14  2  0
 15 11  1  0
 15 22  1  0
 16 15  2  0
 17 13  1  0
 19 21  1  0
 19 18  1  1
 20 19  1  0
 21 23  1  0
 21 22  1  6
 23 25  2  0
 23 24  1  0
M  END
$$$$
