QDV.pdb
     RDKit          3D

 25 24  0  0  1  0  0  0  0  0999 V2000
   19.3472  -15.3553  -17.8731 N   0  0  0  0  0  0  0  0  0  0  0  0
   18.9647  -14.2784  -16.9904 C   0  0  0  0  0  0  0  0  0  0  0  0
   17.7857  -14.1502  -16.6185 O   0  0  0  0  0  0  0  0  0  0  0  0
   19.9895  -13.3162  -16.5263 C   0  0  0  0  0  0  0  0  0  0  0  0
   19.7543  -11.9618  -17.0819 C   0  0  0  0  0  0  0  0  0  0  0  0
   18.4486  -11.3811  -16.6131 C   0  0  2  0  0  0  0  0  0  0  0  0
   17.5207  -11.5899  -17.7451 N   0  0  0  0  0  0  0  0  0  0  0  0
   18.6164   -9.9308  -16.3584 C   0  0  0  0  0  0  0  0  0  0  0  0
   19.1053   -9.1455  -17.2055 O   0  0  0  0  0  0  0  0  0  0  0  0
   18.2251   -9.3274  -15.1119 N   0  0  0  0  0  0  0  0  0  0  0  0
   18.2640   -7.8903  -14.9428 C   0  0  1  0  0  0  0  0  0  0  0  0
   17.0072   -7.4496  -14.2480 C   0  0  0  0  0  0  0  0  0  0  0  0
   15.7837   -7.7180  -15.0060 C   0  0  0  0  0  0  0  0  0  0  0  0
   15.7585   -7.3515  -16.2143 O   0  0  0  0  0  0  0  0  0  0  0  0
   19.4963   -7.4327  -14.2733 C   0  0  0  0  0  0  0  0  0  0  0  0
   19.7413   -7.8576  -13.1171 O   0  0  0  0  0  0  0  0  0  0  0  0
   14.6513   -8.3364  -14.5214 O   0  0  0  0  0  0  0  0  0  0  0  0
   22.5404   -5.3040  -16.3893 C   0  0  0  0  0  0  0  0  0  0  0  0
   22.8593   -6.2856  -15.2722 C   0  0  2  0  0  0  0  0  0  0  0  0
   23.0006   -7.6370  -15.9714 C   0  0  0  0  0  0  0  0  0  0  0  0
   21.7344   -6.2524  -14.3135 C   0  0  2  0  0  0  0  0  0  0  0  0
   20.4350   -6.5529  -14.8172 N   0  0  0  0  0  0  0  0  0  0  0  0
   21.6771   -4.9426  -13.6269 C   0  0  0  0  0  0  0  0  0  0  0  0
   20.6161   -4.0738  -13.7933 O   0  0  0  0  0  0  0  0  0  0  0  0
   22.6041   -4.5871  -12.8675 O   0  0  0  0  0  0  0  0  0  0  0  0
  1  2  1  0
  2  3  2  0
  4  2  1  0
  4  5  1  0
  6  5  1  0
  6  8  1  0
  6  7  1  6
  8  9  2  0
  8 10  1  0
 10 11  1  0
 11 12  1  1
 12 13  1  0
 13 14  2  0
 15 11  1  0
 15 22  1  0
 16 15  2  0
 17 13  1  0
 19 21  1  0
 19 18  1  6
 20 19  1  0
 21 23  1  0
 21 22  1  6
 23 25  2  0
 23 24  1  0
M  END
$$$$
