QDV.pdb
     RDKit          3D

 25 24  0  0  1  0  0  0  0  0999 V2000
   27.5043  -16.4350  -15.3985 N   0  0  0  0  0  0  0  0  0  0  0  0
   28.2698  -16.6717  -16.5997 C   0  0  0  0  0  0  0  0  0  0  0  0
   29.0497  -15.8081  -17.0365 O   0  0  0  0  0  0  0  0  0  0  0  0
   28.1209  -17.9572  -17.3187 C   0  0  0  0  0  0  0  0  0  0  0  0
   27.2309  -18.8896  -16.5860 C   0  0  0  0  0  0  0  0  0  0  0  0
   27.9844  -19.7053  -15.5718 C   0  0  2  0  0  0  0  0  0  0  0  0
   28.6955  -20.7267  -16.3699 N   0  0  0  0  0  0  0  0  0  0  0  0
   27.0237  -20.3609  -14.6533 C   0  0  0  0  0  0  0  0  0  0  0  0
   26.2023  -21.2279  -15.0367 O   0  0  0  0  0  0  0  0  0  0  0  0
   26.9728  -20.0407  -13.2512 N   0  0  0  0  0  0  0  0  0  0  0  0
   25.9711  -20.6373  -12.3933 C   0  0  1  0  0  0  0  0  0  0  0  0
   26.3286  -20.3559  -10.9617 C   0  0  0  0  0  0  0  0  0  0  0  0
   25.4641  -21.0283   -9.9901 C   0  0  0  0  0  0  0  0  0  0  0  0
   25.4077  -20.5380   -8.8277 O   0  0  0  0  0  0  0  0  0  0  0  0
   24.6012  -20.2211  -12.7491 C   0  0  0  0  0  0  0  0  0  0  0  0
   24.3348  -18.9939  -12.7657 O   0  0  0  0  0  0  0  0  0  0  0  0
   24.7023  -22.1523  -10.2271 O   0  0  0  0  0  0  0  0  0  0  0  0
   21.7543  -22.7915  -14.6489 C   0  0  0  0  0  0  0  0  0  0  0  0
   21.7424  -21.2749  -14.7628 C   0  0  2  0  0  0  0  0  0  0  0  0
   22.6761  -20.9661  -15.9325 C   0  0  0  0  0  0  0  0  0  0  0  0
   22.2318  -20.7265  -13.4801 C   0  0  2  0  0  0  0  0  0  0  0  0
   23.5517  -21.0830  -13.0759 N   0  0  0  0  0  0  0  0  0  0  0  0
   21.2998  -21.0667  -12.3818 C   0  0  0  0  0  0  0  0  0  0  0  0
   20.0201  -20.5502  -12.3204 O   0  0  0  0  0  0  0  0  0  0  0  0
   21.6564  -21.8428  -11.4691 O   0  0  0  0  0  0  0  0  0  0  0  0
  1  2  1  0
  2  3  2  0
  4  2  1  0
  4  5  1  0
  6  5  1  0
  6  8  1  0
  6  7  1  6
  8  9  2  0
  8 10  1  0
 10 11  1  0
 11 12  1  1
 12 13  1  0
 13 14  2  0
 15 11  1  0
 15 22  1  0
 16 15  2  0
 17 13  1  0
 19 21  1  0
 19 18  1  1
 20 19  1  0
 21 23  1  0
 21 22  1  1
 23 25  2  0
 23 24  1  0
M  END
$$$$
