QDV.pdb
     RDKit          3D

 25 24  0  0  1  0  0  0  0  0999 V2000
   25.6058  -22.5506  -12.6305 N   0  0  0  0  0  0  0  0  0  0  0  0
   26.5474  -21.5242  -12.2498 C   0  0  0  0  0  0  0  0  0  0  0  0
   26.6592  -21.1734  -11.0627 O   0  0  0  0  0  0  0  0  0  0  0  0
   27.3863  -20.8823  -13.2869 C   0  0  0  0  0  0  0  0  0  0  0  0
   27.1212  -21.4524  -14.6297 C   0  0  0  0  0  0  0  0  0  0  0  0
   26.6522  -20.4054  -15.6021 C   0  0  2  0  0  0  0  0  0  0  0  0
   27.6401  -19.3125  -15.4774 N   0  0  0  0  0  0  0  0  0  0  0  0
   25.3107  -19.9221  -15.1983 C   0  0  0  0  0  0  0  0  0  0  0  0
   25.1451  -18.9751  -14.3927 O   0  0  0  0  0  0  0  0  0  0  0  0
   24.1032  -20.5145  -15.7100 N   0  0  0  0  0  0  0  0  0  0  0  0
   22.8064  -20.0094  -15.3117 C   0  0  1  0  0  0  0  0  0  0  0  0
   21.9154  -19.9540  -16.5199 C   0  0  0  0  0  0  0  0  0  0  0  0
   21.1525  -18.7102  -16.6390 C   0  0  0  0  0  0  0  0  0  0  0  0
   21.3767  -17.8086  -15.7837 O   0  0  0  0  0  0  0  0  0  0  0  0
   22.2250  -20.7676  -14.1877 C   0  0  0  0  0  0  0  0  0  0  0  0
   22.1736  -22.0195  -14.2744 O   0  0  0  0  0  0  0  0  0  0  0  0
   20.2075  -18.4302  -17.6025 O   0  0  0  0  0  0  0  0  0  0  0  0
   20.6461  -18.8872  -10.6551 C   0  0  0  0  0  0  0  0  0  0  0  0
   21.2428  -20.2841  -10.5776 C   0  0  2  0  0  0  0  0  0  0  0  0
   22.6968  -20.0627  -10.1627 C   0  0  0  0  0  0  0  0  0  0  0  0
   21.1171  -20.8986  -11.9163 C   0  0  2  0  0  0  0  0  0  0  0  0
   21.7162  -20.2109  -13.0120 N   0  0  0  0  0  0  0  0  0  0  0  0
   19.6946  -21.1452  -12.2419 C   0  0  0  0  0  0  0  0  0  0  0  0
   19.0719  -20.5357  -13.3138 O   0  0  0  0  0  0  0  0  0  0  0  0
   19.0128  -21.9245  -11.5416 O   0  0  0  0  0  0  0  0  0  0  0  0
  1  2  1  0
  2  3  2  0
  4  2  1  0
  4  5  1  0
  6  5  1  0
  6  8  1  0
  6  7  1  1
  8  9  2  0
  8 10  1  0
 10 11  1  0
 11 12  1  6
 12 13  1  0
 13 14  2  0
 15 11  1  0
 15 22  1  0
 16 15  2  0
 17 13  1  0
 19 21  1  0
 19 18  1  6
 20 19  1  0
 21 23  1  0
 21 22  1  6
 23 25  2  0
 23 24  1  0
M  END
$$$$
