QDV.pdb
     RDKit          3D

 25 24  0  0  1  0  0  0  0  0999 V2000
   26.3995  -22.3558  -15.4448 N   0  0  0  0  0  0  0  0  0  0  0  0
   27.7677  -22.0008  -15.7397 C   0  0  0  0  0  0  0  0  0  0  0  0
   28.6184  -22.8795  -15.9613 O   0  0  0  0  0  0  0  0  0  0  0  0
   28.1599  -20.5738  -15.7759 C   0  0  0  0  0  0  0  0  0  0  0  0
   27.0387  -19.6918  -15.3720 C   0  0  0  0  0  0  0  0  0  0  0  0
   26.0549  -19.4856  -16.4906 C   0  0  2  0  0  0  0  0  0  0  0  0
   26.6693  -18.4423  -17.3390 N   0  0  0  0  0  0  0  0  0  0  0  0
   24.7717  -18.9941  -15.9353 C   0  0  0  0  0  0  0  0  0  0  0  0
   24.6591  -17.8788  -15.3726 O   0  0  0  0  0  0  0  0  0  0  0  0
   23.5638  -19.7729  -16.0077 N   0  0  0  0  0  0  0  0  0  0  0  0
   22.3273  -19.2720  -15.4459 C   0  0  1  0  0  0  0  0  0  0  0  0
   21.3255  -19.1023  -16.5523 C   0  0  0  0  0  0  0  0  0  0  0  0
   21.3510  -17.7796  -17.1794 C   0  0  0  0  0  0  0  0  0  0  0  0
   21.3594  -17.7366  -18.4415 O   0  0  0  0  0  0  0  0  0  0  0  0
   21.8353  -20.1029  -14.3306 C   0  0  0  0  0  0  0  0  0  0  0  0
   21.7964  -21.3486  -14.4855 O   0  0  0  0  0  0  0  0  0  0  0  0
   21.3667  -16.5709  -16.5172 O   0  0  0  0  0  0  0  0  0  0  0  0
   20.2585  -20.6574   -9.6731 C   0  0  0  0  0  0  0  0  0  0  0  0
   20.9377  -19.7178  -10.6575 C   0  0  2  0  0  0  0  0  0  0  0  0
   20.0767  -18.4553  -10.6462 C   0  0  0  0  0  0  0  0  0  0  0  0
   20.9541  -20.3872  -11.9755 C   0  0  2  0  0  0  0  0  0  0  0  0
   21.3999  -19.6228  -13.0933 N   0  0  0  0  0  0  0  0  0  0  0  0
   19.6188  -20.9413  -12.2921 C   0  0  0  0  0  0  0  0  0  0  0  0
   18.7250  -20.2773  -13.1098 O   0  0  0  0  0  0  0  0  0  0  0  0
   19.2637  -22.0420  -11.8181 O   0  0  0  0  0  0  0  0  0  0  0  0
  1  2  1  0
  2  3  2  0
  4  2  1  0
  4  5  1  0
  6  5  1  0
  6  8  1  0
  6  7  1  6
  8  9  2  0
  8 10  1  0
 10 11  1  0
 11 12  1  6
 12 13  1  0
 13 14  2  0
 15 11  1  0
 15 22  1  0
 16 15  2  0
 17 13  1  0
 19 21  1  0
 19 18  1  1
 20 19  1  0
 21 23  1  0
 21 22  1  6
 23 25  2  0
 23 24  1  0
M  END
$$$$
