QDV.pdb
     RDKit          3D

 25 24  0  0  1  0  0  0  0  0999 V2000
   12.0401  -12.7242  -15.2936 N   0  0  0  0  0  0  0  0  0  0  0  0
   12.7845  -12.6620  -14.0579 C   0  0  0  0  0  0  0  0  0  0  0  0
   12.2503  -12.2484  -13.0146 O   0  0  0  0  0  0  0  0  0  0  0  0
   14.2003  -13.0939  -14.0362 C   0  0  0  0  0  0  0  0  0  0  0  0
   15.0567  -12.1132  -13.3268 C   0  0  0  0  0  0  0  0  0  0  0  0
   15.8703  -11.2836  -14.2815 C   0  0  2  0  0  0  0  0  0  0  0  0
   16.8850  -12.2175  -14.8146 N   0  0  0  0  0  0  0  0  0  0  0  0
   16.5345  -10.1861  -13.5394 C   0  0  0  0  0  0  0  0  0  0  0  0
   17.7773  -10.0166  -13.5478 O   0  0  0  0  0  0  0  0  0  0  0  0
   15.7882   -9.2374  -12.7558 N   0  0  0  0  0  0  0  0  0  0  0  0
   16.4088   -8.0171  -12.2858 C   0  0  1  0  0  0  0  0  0  0  0  0
   17.0373   -7.3115  -13.4536 C   0  0  0  0  0  0  0  0  0  0  0  0
   17.6739   -6.0395  -13.1069 C   0  0  0  0  0  0  0  0  0  0  0  0
   17.7306   -5.1556  -14.0070 O   0  0  0  0  0  0  0  0  0  0  0  0
   15.4776   -7.1681  -11.5187 C   0  0  0  0  0  0  0  0  0  0  0  0
   14.4668   -6.7084  -12.1054 O   0  0  0  0  0  0  0  0  0  0  0  0
   18.2198   -5.7153  -11.8835 O   0  0  0  0  0  0  0  0  0  0  0  0
   14.8102   -5.3098   -7.0827 C   0  0  0  0  0  0  0  0  0  0  0  0
   14.6069   -6.5614   -7.9226 C   0  0  2  0  0  0  0  0  0  0  0  0
   15.7538   -7.4883   -7.5220 C   0  0  0  0  0  0  0  0  0  0  0  0
   14.6658   -6.1599   -9.3442 C   0  0  2  0  0  0  0  0  0  0  0  0
   15.6188   -6.8212  -10.1730 N   0  0  0  0  0  0  0  0  0  0  0  0
   14.8785   -4.7001   -9.4621 C   0  0  0  0  0  0  0  0  0  0  0  0
   13.8740   -3.7895   -9.1969 O   0  0  0  0  0  0  0  0  0  0  0  0
   15.9916   -4.2506   -9.8104 O   0  0  0  0  0  0  0  0  0  0  0  0
  1  2  1  0
  2  3  2  0
  4  2  1  0
  4  5  1  0
  6  5  1  0
  6  8  1  0
  6  7  1  1
  8  9  2  0
  8 10  1  0
 10 11  1  0
 11 12  1  6
 12 13  1  0
 13 14  2  0
 15 11  1  0
 15 22  1  0
 16 15  2  0
 17 13  1  0
 19 21  1  0
 19 18  1  1
 20 19  1  0
 21 23  1  0
 21 22  1  1
 23 25  2  0
 23 24  1  0
M  END
$$$$
