FPC.pdb
     RDKit          3D

 25 26  0  0  1  0  0  0  0  0999 V2000
   16.4610  -14.9232    4.9233 N   0  0  0  0  0  0  0  0  0  0  0  0
   17.1772  -16.1539    4.9358 C   0  0  1  0  0  0  0  0  0  0  0  0
   18.4999  -16.0135    4.2500 C   0  0  0  0  0  0  0  0  0  0  0  0
   18.3285  -16.1954    2.7987 C   0  0  0  0  0  0  0  0  0  0  0  0
   18.3775  -17.4279    2.1960 C   0  0  0  0  0  0  0  0  0  0  0  0
   18.2256  -17.5682    0.8147 C   0  0  0  0  0  0  0  0  0  0  0  0
   18.0211  -16.4559    0.0266 C   0  0  0  0  0  0  0  0  0  0  0  0
   17.9689  -15.2052    0.6218 C   0  0  0  0  0  0  0  0  0  0  0  0
   18.1227  -15.0924    1.9948 C   0  0  0  0  0  0  0  0  0  0  0  0
   17.3421  -16.7231    6.2935 C   0  0  0  0  0  0  0  0  0  0  0  0
   17.6482  -15.8686    7.1920 O   0  0  0  0  0  0  0  0  0  0  0  0
   17.1895  -18.0843    6.6305 N   0  0  0  0  0  0  0  0  0  0  0  0
   16.5087  -19.0849    5.8412 C   0  0  0  0  0  0  0  0  0  0  0  0
   16.3610  -20.2470    6.8332 C   0  0  0  0  0  0  0  0  0  0  0  0
   17.6782  -20.1740    7.5623 C   0  0  0  0  0  0  0  0  0  0  0  0
   17.7097  -18.6699    7.8705 C   0  0  1  0  0  0  0  0  0  0  0  0
   19.1290  -18.3227    8.1096 C   0  0  0  0  0  0  0  0  0  0  0  0
   20.0156  -18.2241    7.2424 O   0  0  0  0  0  0  0  0  0  0  0  0
   19.5137  -18.0795    9.4545 N   0  0  0  0  0  0  0  0  0  0  0  0
   20.9207  -17.8648    9.8173 C   0  0  1  0  0  0  0  0  0  0  0  0
   21.0452  -16.4659   10.4193 C   0  0  0  0  0  0  0  0  0  0  0  0
   22.3947  -15.6117    9.5275 S   0  0  0  0  0  0  0  0  0  0  0  0
   21.3246  -18.8159   10.8844 C   0  0  0  0  0  0  0  0  0  0  0  0
   20.4383  -19.2966   11.6297 O   0  0  0  0  0  0  0  0  0  0  0  0
   22.6350  -19.1945   11.0919 O   0  0  0  0  0  0  0  0  0  0  0  0
  2  1  1  1
  2 10  1  0
  3  2  1  0
  4  3  1  0
  5  4  2  0
  6  5  1  0
  7  8  1  0
  7  6  2  0
  8  9  2  0
  9  4  1  0
 10 12  1  0
 10 11  2  0
 12 16  1  0
 13 12  1  0
 14 13  1  0
 14 15  1  0
 15 16  1  0
 17 19  1  0
 16 17  1  6
 18 17  2  0
 20 19  1  0
 20 21  1  1
 21 22  1  0
 23 25  1  0
 23 20  1  0
 24 23  2  0
M  END
$$$$
