FPC.pdb
     RDKit          3D

 25 26  0  0  1  0  0  0  0  0999 V2000
   24.2820  -19.0423  -16.4241 N   0  0  0  0  0  0  0  0  0  0  0  0
   25.0594  -18.5041  -15.3594 C   0  0  1  0  0  0  0  0  0  0  0  0
   24.3473  -17.3684  -14.6940 C   0  0  0  0  0  0  0  0  0  0  0  0
   24.3816  -16.1818  -15.5655 C   0  0  0  0  0  0  0  0  0  0  0  0
   23.3883  -15.8984  -16.4699 C   0  0  0  0  0  0  0  0  0  0  0  0
   23.4551  -14.7725  -17.2938 C   0  0  0  0  0  0  0  0  0  0  0  0
   24.5336  -13.9184  -17.2088 C   0  0  0  0  0  0  0  0  0  0  0  0
   25.5436  -14.1920  -16.2997 C   0  0  0  0  0  0  0  0  0  0  0  0
   25.4541  -15.3159  -15.4934 C   0  0  0  0  0  0  0  0  0  0  0  0
   25.4789  -19.5207  -14.3670 C   0  0  0  0  0  0  0  0  0  0  0  0
   24.5169  -20.1770  -13.8426 O   0  0  0  0  0  0  0  0  0  0  0  0
   26.8110  -19.7885  -13.9881 N   0  0  0  0  0  0  0  0  0  0  0  0
   27.9983  -19.3509  -14.6857 C   0  0  0  0  0  0  0  0  0  0  0  0
   29.0979  -20.2039  -14.0381 C   0  0  0  0  0  0  0  0  0  0  0  0
   28.6456  -20.2158  -12.6003 C   0  0  0  0  0  0  0  0  0  0  0  0
   27.1682  -20.5808  -12.8066 C   0  0  1  0  0  0  0  0  0  0  0  0
   26.4543  -20.1354  -11.5883 C   0  0  0  0  0  0  0  0  0  0  0  0
   26.0349  -18.9859  -11.3637 O   0  0  0  0  0  0  0  0  0  0  0  0
   26.2276  -21.1117  -10.5828 N   0  0  0  0  0  0  0  0  0  0  0  0
   25.6355  -20.7489   -9.2886 C   0  0  1  0  0  0  0  0  0  0  0  0
   24.6172  -21.8256   -8.9163 C   0  0  0  0  0  0  0  0  0  0  0  0
   24.0072  -21.4351   -7.2365 S   0  0  0  0  0  0  0  0  0  0  0  0
   26.6739  -20.7715   -8.2267 C   0  0  0  0  0  0  0  0  0  0  0  0
   27.5588  -21.6590   -8.2685 O   0  0  0  0  0  0  0  0  0  0  0  0
   26.7078  -19.8571   -7.1942 O   0  0  0  0  0  0  0  0  0  0  0  0
  2  1  1  6
  2 10  1  0
  3  2  1  0
  4  3  1  0
  5  4  2  0
  6  5  1  0
  7  8  1  0
  7  6  2  0
  8  9  2  0
  9  4  1  0
 10 12  1  0
 10 11  2  0
 12 16  1  0
 13 12  1  0
 14 13  1  0
 14 15  1  0
 15 16  1  0
 17 19  1  0
 16 17  1  1
 18 17  2  0
 20 19  1  0
 20 21  1  1
 21 22  1  0
 23 25  1  0
 23 20  1  0
 24 23  2  0
M  END
$$$$
