FPC.pdb
     RDKit          3D

 25 26  0  0  1  0  0  0  0  0999 V2000
   25.4311  -19.1301   -7.9011 N   0  0  0  0  0  0  0  0  0  0  0  0
   26.5277  -19.7826   -8.5330 C   0  0  1  0  0  0  0  0  0  0  0  0
   26.9688  -20.9768   -7.7462 C   0  0  0  0  0  0  0  0  0  0  0  0
   27.7334  -20.5393   -6.5661 C   0  0  0  0  0  0  0  0  0  0  0  0
   27.1322  -20.0363   -5.4391 C   0  0  0  0  0  0  0  0  0  0  0  0
   27.8845  -19.6157   -4.3400 C   0  0  0  0  0  0  0  0  0  0  0  0
   29.2599  -19.7014   -4.3719 C   0  0  0  0  0  0  0  0  0  0  0  0
   29.8803  -20.2077   -5.5033 C   0  0  0  0  0  0  0  0  0  0  0  0
   29.1114  -20.6183   -6.5810 C   0  0  0  0  0  0  0  0  0  0  0  0
   26.2601  -20.1469   -9.9437 C   0  0  0  0  0  0  0  0  0  0  0  0
   25.0291  -20.3564  -10.2118 O   0  0  0  0  0  0  0  0  0  0  0  0
   27.2377  -20.2702  -10.9530 N   0  0  0  0  0  0  0  0  0  0  0  0
   28.6692  -20.2602  -10.7565 C   0  0  0  0  0  0  0  0  0  0  0  0
   29.1996  -20.0793  -12.1856 C   0  0  0  0  0  0  0  0  0  0  0  0
   28.2329  -20.9351  -12.9634 C   0  0  0  0  0  0  0  0  0  0  0  0
   26.9122  -20.4168  -12.3756 C   0  0  1  0  0  0  0  0  0  0  0  0
   25.9036  -21.4727  -12.6205 C   0  0  0  0  0  0  0  0  0  0  0  0
   25.9101  -22.6188  -12.1365 O   0  0  0  0  0  0  0  0  0  0  0  0
   24.8289  -21.1463  -13.4889 N   0  0  0  0  0  0  0  0  0  0  0  0
   23.8078  -22.1405  -13.8441 C   0  0  1  0  0  0  0  0  0  0  0  0
   22.4401  -21.4645  -13.7587 C   0  0  0  0  0  0  0  0  0  0  0  0
   22.2831  -20.7733  -12.0723 S   0  0  0  0  0  0  0  0  0  0  0  0
   23.9763  -22.5642  -15.2578 C   0  0  0  0  0  0  0  0  0  0  0  0
   24.7469  -21.9057  -15.9960 O   0  0  0  0  0  0  0  0  0  0  0  0
   23.3208  -23.6526  -15.7955 O   0  0  0  0  0  0  0  0  0  0  0  0
  2  1  1  1
  2 10  1  0
  3  2  1  0
  4  3  1  0
  5  4  2  0
  6  5  1  0
  7  8  1  0
  7  6  2  0
  8  9  2  0
  9  4  1  0
 10 12  1  0
 10 11  2  0
 12 16  1  0
 13 12  1  0
 14 13  1  0
 14 15  1  0
 15 16  1  0
 17 19  1  0
 16 17  1  1
 18 17  2  0
 20 19  1  0
 20 21  1  6
 21 22  1  0
 23 25  1  0
 23 20  1  0
 24 23  2  0
M  END
$$$$
