FPC.pdb
     RDKit          3D

 25 26  0  0  1  0  0  0  0  0999 V2000
   25.5268  -18.9662   -7.9965 N   0  0  0  0  0  0  0  0  0  0  0  0
   26.6225  -19.6846   -8.5542 C   0  0  1  0  0  0  0  0  0  0  0  0
   26.9633  -20.8790   -7.7193 C   0  0  0  0  0  0  0  0  0  0  0  0
   27.6454  -20.4459   -6.4881 C   0  0  0  0  0  0  0  0  0  0  0  0
   27.0512  -20.5065   -5.2520 C   0  0  0  0  0  0  0  0  0  0  0  0
   27.7180  -20.0751   -4.1030 C   0  0  0  0  0  0  0  0  0  0  0  0
   28.9996  -19.5761   -4.1955 C   0  0  0  0  0  0  0  0  0  0  0  0
   29.6121  -19.5097   -5.4372 C   0  0  0  0  0  0  0  0  0  0  0  0
   28.9290  -19.9439   -6.5625 C   0  0  0  0  0  0  0  0  0  0  0  0
   26.4124  -20.0697   -9.9692 C   0  0  0  0  0  0  0  0  0  0  0  0
   25.1875  -20.2020  -10.3054 O   0  0  0  0  0  0  0  0  0  0  0  0
   27.4360  -20.2883  -10.9147 N   0  0  0  0  0  0  0  0  0  0  0  0
   28.8564  -20.2712  -10.6501 C   0  0  0  0  0  0  0  0  0  0  0  0
   29.4570  -20.2205  -12.0619 C   0  0  0  0  0  0  0  0  0  0  0  0
   28.5191  -21.1346  -12.8081 C   0  0  0  0  0  0  0  0  0  0  0  0
   27.1777  -20.5571  -12.3332 C   0  0  1  0  0  0  0  0  0  0  0  0
   26.1701  -21.6234  -12.5338 C   0  0  0  0  0  0  0  0  0  0  0  0
   25.8515  -22.4957  -11.7060 O   0  0  0  0  0  0  0  0  0  0  0  0
   25.5058  -21.6524  -13.7882 N   0  0  0  0  0  0  0  0  0  0  0  0
   24.1179  -22.1189  -13.9045 C   0  0  1  0  0  0  0  0  0  0  0  0
   23.2543  -21.2699  -12.9728 C   0  0  0  0  0  0  0  0  0  0  0  0
   21.5435  -21.9063  -13.0920 S   0  0  0  0  0  0  0  0  0  0  0  0
   23.6106  -21.8773  -15.2795 C   0  0  0  0  0  0  0  0  0  0  0  0
   23.1069  -22.8353  -15.9125 O   0  0  0  0  0  0  0  0  0  0  0  0
   23.6693  -20.6424  -15.8920 O   0  0  0  0  0  0  0  0  0  0  0  0
  2  1  1  1
  2 10  1  0
  3  2  1  0
  4  3  1  0
  5  4  2  0
  6  5  1  0
  7  8  1  0
  7  6  2  0
  8  9  2  0
  9  4  1  0
 10 12  1  0
 10 11  2  0
 12 16  1  0
 13 12  1  0
 14 13  1  0
 14 15  1  0
 15 16  1  0
 17 19  1  0
 16 17  1  1
 18 17  2  0
 20 19  1  0
 20 21  1  1
 21 22  1  0
 23 25  1  0
 23 20  1  0
 24 23  2  0
M  END
$$$$
