FPC.pdb
     RDKit          3D

 25 26  0  0  1  0  0  0  0  0999 V2000
   25.4625  -16.7951  -12.9389 N   0  0  0  0  0  0  0  0  0  0  0  0
   25.6696  -17.9863  -12.1867 C   0  0  1  0  0  0  0  0  0  0  0  0
   24.7400  -18.0514  -11.0157 C   0  0  0  0  0  0  0  0  0  0  0  0
   25.2773  -18.9794  -10.0062 C   0  0  0  0  0  0  0  0  0  0  0  0
   24.8341  -20.2725   -9.8788 C   0  0  0  0  0  0  0  0  0  0  0  0
   25.3526  -21.1257   -8.9020 C   0  0  0  0  0  0  0  0  0  0  0  0
   26.3303  -20.6752   -8.0410 C   0  0  0  0  0  0  0  0  0  0  0  0
   26.7875  -19.3719   -8.1586 C   0  0  0  0  0  0  0  0  0  0  0  0
   26.2567  -18.5448   -9.1360 C   0  0  0  0  0  0  0  0  0  0  0  0
   25.5803  -19.2189  -13.0034 C   0  0  0  0  0  0  0  0  0  0  0  0
   24.4116  -19.4736  -13.4511 O   0  0  0  0  0  0  0  0  0  0  0  0
   26.6569  -20.0818  -13.2968 N   0  0  0  0  0  0  0  0  0  0  0  0
   28.0350  -19.8846  -12.9098 C   0  0  0  0  0  0  0  0  0  0  0  0
   28.7739  -20.9152  -13.7748 C   0  0  0  0  0  0  0  0  0  0  0  0
   27.8072  -22.0712  -13.7365 C   0  0  0  0  0  0  0  0  0  0  0  0
   26.5085  -21.3212  -14.0670 C   0  0  1  0  0  0  0  0  0  0  0  0
   25.3999  -22.1678  -13.5704 C   0  0  0  0  0  0  0  0  0  0  0  0
   25.2011  -22.4949  -12.3867 O   0  0  0  0  0  0  0  0  0  0  0  0
   24.4780  -22.6513  -14.5359 N   0  0  0  0  0  0  0  0  0  0  0  0
   23.4304  -23.6147  -14.1732 C   0  0  1  0  0  0  0  0  0  0  0  0
   22.0749  -22.9593  -14.4337 C   0  0  0  0  0  0  0  0  0  0  0  0
   21.8738  -21.6242  -13.1995 S   0  0  0  0  0  0  0  0  0  0  0  0
   23.4975  -24.8025  -15.0627 C   0  0  0  0  0  0  0  0  0  0  0  0
   24.2371  -24.7562  -16.0742 O   0  0  0  0  0  0  0  0  0  0  0  0
   22.7804  -25.9568  -14.8243 O   0  0  0  0  0  0  0  0  0  0  0  0
  2  1  1  6
  2 10  1  0
  3  2  1  0
  4  3  1  0
  5  4  2  0
  6  5  1  0
  7  8  1  0
  7  6  2  0
  8  9  2  0
  9  4  1  0
 10 12  1  0
 10 11  2  0
 12 16  1  0
 13 12  1  0
 14 13  1  0
 14 15  1  0
 15 16  1  0
 17 19  1  0
 16 17  1  1
 18 17  2  0
 20 19  1  0
 20 21  1  6
 21 22  1  0
 23 25  1  0
 23 20  1  0
 24 23  2  0
M  END
$$$$
