FPC.pdb
     RDKit          3D

 25 26  0  0  1  0  0  0  0  0999 V2000
   28.6880  -21.0009   -9.0490 N   0  0  0  0  0  0  0  0  0  0  0  0
   27.3124  -20.6810   -9.2310 C   0  0  1  0  0  0  0  0  0  0  0  0
   26.9110  -19.5236   -8.3714 C   0  0  0  0  0  0  0  0  0  0  0  0
   27.2297  -19.8164   -6.9638 C   0  0  0  0  0  0  0  0  0  0  0  0
   26.4940  -20.6926   -6.2049 C   0  0  0  0  0  0  0  0  0  0  0  0
   26.8117  -20.9398   -4.8675 C   0  0  0  0  0  0  0  0  0  0  0  0
   27.8832  -20.2992   -4.2830 C   0  0  0  0  0  0  0  0  0  0  0  0
   28.6351  -19.4123   -5.0376 C   0  0  0  0  0  0  0  0  0  0  0  0
   28.2993  -19.1839   -6.3629 C   0  0  0  0  0  0  0  0  0  0  0  0
   26.9482  -20.4410  -10.6468 C   0  0  0  0  0  0  0  0  0  0  0  0
   27.5381  -19.4433  -11.1832 O   0  0  0  0  0  0  0  0  0  0  0  0
   26.0334  -21.2113  -11.3946 N   0  0  0  0  0  0  0  0  0  0  0  0
   25.3939  -22.4319  -10.9597 C   0  0  0  0  0  0  0  0  0  0  0  0
   24.8090  -22.9848  -12.2667 C   0  0  0  0  0  0  0  0  0  0  0  0
   24.3477  -21.7158  -12.9368 C   0  0  0  0  0  0  0  0  0  0  0  0
   25.6130  -20.8644  -12.7563 C   0  0  1  0  0  0  0  0  0  0  0  0
   25.1857  -19.4517  -12.8750 C   0  0  0  0  0  0  0  0  0  0  0  0
   24.5290  -18.8116  -12.0343 O   0  0  0  0  0  0  0  0  0  0  0  0
   25.5607  -18.7639  -14.0590 N   0  0  0  0  0  0  0  0  0  0  0  0
   25.0668  -17.4100  -14.3423 C   0  0  1  0  0  0  0  0  0  0  0  0
   26.2603  -16.5471  -14.7495 C   0  0  0  0  0  0  0  0  0  0  0  0
   25.6187  -14.8725  -15.1103 S   0  0  0  0  0  0  0  0  0  0  0  0
   24.1508  -17.4337  -15.5113 C   0  0  0  0  0  0  0  0  0  0  0  0
   24.4367  -18.1695  -16.4856 O   0  0  0  0  0  0  0  0  0  0  0  0
   22.9966  -16.6803  -15.5725 O   0  0  0  0  0  0  0  0  0  0  0  0
  2  1  1  6
  2 10  1  0
  3  2  1  0
  4  3  1  0
  5  4  2  0
  6  5  1  0
  7  8  1  0
  7  6  2  0
  8  9  2  0
  9  4  1  0
 10 12  1  0
 10 11  2  0
 12 16  1  0
 13 12  1  0
 14 13  1  0
 14 15  1  0
 15 16  1  0
 17 19  1  0
 16 17  1  1
 18 17  2  0
 20 19  1  0
 20 21  1  6
 21 22  1  0
 23 25  1  0
 23 20  1  0
 24 23  2  0
M  END
$$$$
