FPC.pdb
     RDKit          3D

 25 26  0  0  1  0  0  0  0  0999 V2000
   23.0304  -20.2451  -16.6469 N   0  0  0  0  0  0  0  0  0  0  0  0
   23.9284  -19.3628  -15.9815 C   0  0  1  0  0  0  0  0  0  0  0  0
   23.2106  -18.1580  -15.4592 C   0  0  0  0  0  0  0  0  0  0  0  0
   22.8339  -17.2798  -16.5797 C   0  0  0  0  0  0  0  0  0  0  0  0
   21.5481  -17.1941  -17.0534 C   0  0  0  0  0  0  0  0  0  0  0  0
   21.2231  -16.3626  -18.1275 C   0  0  0  0  0  0  0  0  0  0  0  0
   22.2021  -15.6058  -18.7350 C   0  0  0  0  0  0  0  0  0  0  0  0
   23.5045  -15.6821  -18.2669 C   0  0  0  0  0  0  0  0  0  0  0  0
   23.8015  -16.5151  -17.1995 C   0  0  0  0  0  0  0  0  0  0  0  0
   24.7100  -20.0205  -14.9086 C   0  0  0  0  0  0  0  0  0  0  0  0
   24.0208  -20.7626  -14.1307 O   0  0  0  0  0  0  0  0  0  0  0  0
   26.0990  -19.8784  -14.7084 N   0  0  0  0  0  0  0  0  0  0  0  0
   27.0364  -19.2886  -15.6365 C   0  0  0  0  0  0  0  0  0  0  0  0
   28.3919  -19.7150  -15.0559 C   0  0  0  0  0  0  0  0  0  0  0  0
   28.1265  -19.5871  -13.5776 C   0  0  0  0  0  0  0  0  0  0  0  0
   26.7892  -20.3379  -13.4985 C   0  0  1  0  0  0  0  0  0  0  0  0
   26.1251  -19.8777  -12.2577 C   0  0  0  0  0  0  0  0  0  0  0  0
   25.5820  -18.7720  -12.0840 O   0  0  0  0  0  0  0  0  0  0  0  0
   26.1068  -20.7832  -11.1644 N   0  0  0  0  0  0  0  0  0  0  0  0
   25.6540  -20.3604   -9.8327 C   0  0  1  0  0  0  0  0  0  0  0  0
   24.6765  -21.4121   -9.3100 C   0  0  0  0  0  0  0  0  0  0  0  0
   23.1598  -21.2928  -10.3258 S   0  0  0  0  0  0  0  0  0  0  0  0
   26.7972  -20.3453   -8.8845 C   0  0  0  0  0  0  0  0  0  0  0  0
   27.8674  -20.9045   -9.2227 O   0  0  0  0  0  0  0  0  0  0  0  0
   26.7333  -19.7418   -7.6455 O   0  0  0  0  0  0  0  0  0  0  0  0
  2  1  1  1
  2 10  1  0
  3  2  1  0
  4  3  1  0
  5  4  2  0
  6  5  1  0
  7  8  1  0
  7  6  2  0
  8  9  2  0
  9  4  1  0
 10 12  1  0
 10 11  2  0
 12 16  1  0
 13 12  1  0
 14 13  1  0
 14 15  1  0
 15 16  1  0
 17 19  1  0
 16 17  1  1
 18 17  2  0
 20 19  1  0
 20 21  1  1
 21 22  1  0
 23 25  1  0
 23 20  1  0
 24 23  2  0
M  END
$$$$
