FPC.pdb
     RDKit          3D

 25 26  0  0  1  0  0  0  0  0999 V2000
   18.3219  -11.3067  -15.5671 N   0  0  0  0  0  0  0  0  0  0  0  0
   19.0648  -10.2663  -16.1942 C   0  0  1  0  0  0  0  0  0  0  0  0
   18.5904  -10.0355  -17.5947 C   0  0  0  0  0  0  0  0  0  0  0  0
   19.0074  -11.1583  -18.4516 C   0  0  0  0  0  0  0  0  0  0  0  0
   20.2074  -11.1750  -19.1183 C   0  0  0  0  0  0  0  0  0  0  0  0
   20.5699  -12.2479  -19.9358 C   0  0  0  0  0  0  0  0  0  0  0  0
   19.7164  -13.3198  -20.0862 C   0  0  0  0  0  0  0  0  0  0  0  0
   18.5017  -13.3166  -19.4185 C   0  0  0  0  0  0  0  0  0  0  0  0
   18.1650  -12.2397  -18.6132 C   0  0  0  0  0  0  0  0  0  0  0  0
   19.0712   -9.0022  -15.4219 C   0  0  0  0  0  0  0  0  0  0  0  0
   17.9387   -8.6776  -14.9288 O   0  0  0  0  0  0  0  0  0  0  0  0
   20.1984   -8.1803  -15.2136 N   0  0  0  0  0  0  0  0  0  0  0  0
   21.5560   -8.4829  -15.6051 C   0  0  0  0  0  0  0  0  0  0  0  0
   22.3664   -7.4311  -14.8350 C   0  0  0  0  0  0  0  0  0  0  0  0
   21.4631   -6.2297  -14.9487 C   0  0  0  0  0  0  0  0  0  0  0  0
   20.1325   -6.8788  -14.5406 C   0  0  1  0  0  0  0  0  0  0  0  0
   19.0618   -6.0128  -15.0848 C   0  0  0  0  0  0  0  0  0  0  0  0
   18.6208   -6.0359  -16.2479 O   0  0  0  0  0  0  0  0  0  0  0  0
   18.4848   -5.0682  -14.1957 N   0  0  0  0  0  0  0  0  0  0  0  0
   17.5320   -4.0570  -14.6721 C   0  0  1  0  0  0  0  0  0  0  0  0
   16.3130   -4.0853  -13.7513 C   0  0  0  0  0  0  0  0  0  0  0  0
   15.0759   -2.9370  -14.4564 S   0  0  0  0  0  0  0  0  0  0  0  0
   18.1204   -2.6991  -14.5440 C   0  0  0  0  0  0  0  0  0  0  0  0
   17.8132   -1.8273  -15.3912 O   0  0  0  0  0  0  0  0  0  0  0  0
   18.9920   -2.3543  -13.5316 O   0  0  0  0  0  0  0  0  0  0  0  0
  2  1  1  1
  2 10  1  0
  3  2  1  0
  4  3  1  0
  5  4  2  0
  6  5  1  0
  7  8  1  0
  7  6  2  0
  8  9  2  0
  9  4  1  0
 10 12  1  0
 10 11  2  0
 12 16  1  0
 13 12  1  0
 14 13  1  0
 14 15  1  0
 15 16  1  0
 17 19  1  0
 16 17  1  6
 18 17  2  0
 20 19  1  0
 20 21  1  1
 21 22  1  0
 23 25  1  0
 23 20  1  0
 24 23  2  0
M  END
$$$$
