FPC.pdb
     RDKit          3D

 25 26  0  0  1  0  0  0  0  0999 V2000
   23.8486  -20.7208  -11.3382 N   0  0  0  0  0  0  0  0  0  0  0  0
   25.1681  -20.3056  -11.6760 C   0  0  1  0  0  0  0  0  0  0  0  0
   26.1749  -20.9004  -10.7420 C   0  0  0  0  0  0  0  0  0  0  0  0
   26.0736  -20.2516   -9.4239 C   0  0  0  0  0  0  0  0  0  0  0  0
   26.2230  -18.8978   -9.2516 C   0  0  0  0  0  0  0  0  0  0  0  0
   26.1358  -18.3121   -7.9866 C   0  0  0  0  0  0  0  0  0  0  0  0
   25.8946  -19.0958   -6.8785 C   0  0  0  0  0  0  0  0  0  0  0  0
   25.7411  -20.4641   -7.0379 C   0  0  0  0  0  0  0  0  0  0  0  0
   25.8323  -21.0213   -8.3038 C   0  0  0  0  0  0  0  0  0  0  0  0
   25.5268  -20.5806  -13.0868 C   0  0  0  0  0  0  0  0  0  0  0  0
   24.8520  -21.5183  -13.6312 O   0  0  0  0  0  0  0  0  0  0  0  0
   26.5205  -19.9014  -13.8221 N   0  0  0  0  0  0  0  0  0  0  0  0
   27.2682  -18.7475  -13.3778 C   0  0  0  0  0  0  0  0  0  0  0  0
   27.9200  -18.2533  -14.6768 C   0  0  0  0  0  0  0  0  0  0  0  0
   28.2663  -19.5608  -15.3422 C   0  0  0  0  0  0  0  0  0  0  0  0
   26.9232  -20.2873  -15.1787 C   0  0  1  0  0  0  0  0  0  0  0  0
   27.2149  -21.7343  -15.2933 C   0  0  0  0  0  0  0  0  0  0  0  0
   28.0898  -22.3575  -14.6658 O   0  0  0  0  0  0  0  0  0  0  0  0
   26.4218  -22.4799  -16.2048 N   0  0  0  0  0  0  0  0  0  0  0  0
   26.6436  -23.9174  -16.4084 C   0  0  1  0  0  0  0  0  0  0  0  0
   25.2807  -24.6081  -16.4258 C   0  0  0  0  0  0  0  0  0  0  0  0
   25.5546  -26.3565  -15.9631 S   0  0  0  0  0  0  0  0  0  0  0  0
   27.2502  -24.1575  -17.7429 C   0  0  0  0  0  0  0  0  0  0  0  0
   28.0088  -25.1449  -17.8907 O   0  0  0  0  0  0  0  0  0  0  0  0
   27.0152  -23.3400  -18.8292 O   0  0  0  0  0  0  0  0  0  0  0  0
  2  1  1  1
  2 10  1  0
  3  2  1  0
  4  3  1  0
  5  4  2  0
  6  5  1  0
  7  8  1  0
  7  6  2  0
  8  9  2  0
  9  4  1  0
 10 12  1  0
 10 11  2  0
 12 16  1  0
 13 12  1  0
 14 13  1  0
 14 15  1  0
 15 16  1  0
 17 19  1  0
 16 17  1  1
 18 17  2  0
 20 19  1  0
 20 21  1  6
 21 22  1  0
 23 25  1  0
 23 20  1  0
 24 23  2  0
M  END
$$$$
