FPC.pdb
     RDKit          3D

 25 26  0  0  1  0  0  0  0  0999 V2000
   22.3088  -12.7348  -18.9378 N   0  0  0  0  0  0  0  0  0  0  0  0
   23.4404  -11.8898  -18.7558 C   0  0  1  0  0  0  0  0  0  0  0  0
   23.6937  -11.0598  -19.9751 C   0  0  0  0  0  0  0  0  0  0  0  0
   24.1420  -11.9243  -21.0799 C   0  0  0  0  0  0  0  0  0  0  0  0
   25.1850  -12.8078  -20.9524 C   0  0  0  0  0  0  0  0  0  0  0  0
   25.5973  -13.6051  -22.0225 C   0  0  0  0  0  0  0  0  0  0  0  0
   24.9534  -13.5151  -23.2381 C   0  0  0  0  0  0  0  0  0  0  0  0
   23.8983  -12.6276  -23.3809 C   0  0  0  0  0  0  0  0  0  0  0  0
   23.5084  -11.8472  -22.3037 C   0  0  0  0  0  0  0  0  0  0  0  0
   23.3496  -11.0400  -17.5458 C   0  0  0  0  0  0  0  0  0  0  0  0
   22.1695  -10.6375  -17.2691 O   0  0  0  0  0  0  0  0  0  0  0  0
   24.4367  -10.6690  -16.7272 N   0  0  0  0  0  0  0  0  0  0  0  0
   25.7856  -11.1784  -16.8217 C   0  0  0  0  0  0  0  0  0  0  0  0
   26.4145  -10.7003  -15.5056 C   0  0  0  0  0  0  0  0  0  0  0  0
   25.7948   -9.3331  -15.3688 C   0  0  0  0  0  0  0  0  0  0  0  0
   24.3266   -9.6971  -15.6343 C   0  0  1  0  0  0  0  0  0  0  0  0
   23.6559   -8.4456  -16.0540 C   0  0  0  0  0  0  0  0  0  0  0  0
   23.7128   -7.9268  -17.1833 O   0  0  0  0  0  0  0  0  0  0  0  0
   22.8749   -7.7755  -15.0759 N   0  0  0  0  0  0  0  0  0  0  0  0
   22.2534   -6.4748  -15.3576 C   0  0  1  0  0  0  0  0  0  0  0  0
   20.7370   -6.6611  -15.3365 C   0  0  0  0  0  0  0  0  0  0  0  0
   20.3287   -7.9158  -16.6035 S   0  0  0  0  0  0  0  0  0  0  0  0
   22.5707   -5.5107  -14.2730 C   0  0  0  0  0  0  0  0  0  0  0  0
   23.0595   -5.9466  -13.2038 O   0  0  0  0  0  0  0  0  0  0  0  0
   22.3506   -4.1538  -14.3907 O   0  0  0  0  0  0  0  0  0  0  0  0
  2  1  1  6
  2 10  1  0
  3  2  1  0
  4  3  1  0
  5  4  2  0
  6  5  1  0
  7  8  1  0
  7  6  2  0
  8  9  2  0
  9  4  1  0
 10 12  1  0
 10 11  2  0
 12 16  1  0
 13 12  1  0
 14 13  1  0
 14 15  1  0
 15 16  1  0
 17 19  1  0
 16 17  1  6
 18 17  2  0
 20 19  1  0
 20 21  1  1
 21 22  1  0
 23 25  1  0
 23 20  1  0
 24 23  2  0
M  END
$$$$
