IMM.pdb
     RDKit          3D

 25 24  0  0  1  0  0  0  0  0999 V2000
   29.8005  -18.5563  -17.6801 C   0  0  0  0  0  0  0  0  0  0  0  0
   28.3887  -19.0379  -17.9129 C   0  0  0  0  0  0  0  0  0  0  0  0
   27.5877  -18.8302  -16.6530 C   0  0  2  0  0  0  0  0  0  0  0  0
   28.2288  -19.6940  -15.5825 C   0  0  0  0  0  0  0  0  0  0  0  0
   26.1347  -19.1756  -16.7991 C   0  0  2  0  0  0  0  0  0  0  0  0
   25.4732  -18.3979  -17.7950 N   0  0  0  0  0  0  0  0  0  0  0  0
   25.4917  -19.0439  -15.4680 C   0  0  0  0  0  0  0  0  0  0  0  0
   25.0990  -17.9112  -15.0907 O   0  0  0  0  0  0  0  0  0  0  0  0
   20.9464  -22.4674  -13.7087 C   0  0  0  0  0  0  0  0  0  0  0  0
   20.6797  -20.9964  -12.6719 S   0  0  0  0  0  0  0  0  0  0  0  0
   22.2974  -20.1779  -12.3823 C   0  0  0  0  0  0  0  0  0  0  0  0
   23.1396  -20.4634  -13.5922 C   0  0  0  0  0  0  0  0  0  0  0  0
   24.5318  -19.9206  -13.3753 C   0  0  2  0  0  0  0  0  0  0  0  0
   25.2889  -20.1300  -14.5808 N   0  0  0  0  0  0  0  0  0  0  0  0
   25.1010  -20.6234  -12.2039 C   0  0  0  0  0  0  0  0  0  0  0  0
   24.9614  -21.8848  -12.2021 O   0  0  0  0  0  0  0  0  0  0  0  0
   28.8552  -18.2668   -7.2031 C   0  0  0  0  0  0  0  0  0  0  0  0
   27.9081  -19.5936   -6.4322 S   0  0  0  0  0  0  0  0  0  0  0  0
   26.9286  -20.5393   -7.5892 C   0  0  0  0  0  0  0  0  0  0  0  0
   26.7829  -19.8977   -8.9223 C   0  0  0  0  0  0  0  0  0  0  0  0
   26.0181  -20.7412   -9.9201 C   0  0  2  0  0  0  0  0  0  0  0  0
   25.7581  -20.0047  -11.1399 N   0  0  0  0  0  0  0  0  0  0  0  0
   24.7732  -21.2918   -9.3895 C   0  0  0  0  0  0  0  0  0  0  0  0
   24.7628  -22.5256   -8.7602 O   0  0  0  0  0  0  0  0  0  0  0  0
   23.6887  -20.6689   -9.4878 O   0  0  0  0  0  0  0  0  0  0  0  0
  2  1  1  0
  2  3  1  0
  3  4  1  1
  5  3  1  0
  5  6  1  6
  7  8  2  0
  7  5  1  0
 10 11  1  0
 10  9  1  0
 11 12  1  0
 13 12  1  6
 13 14  1  0
 14  7  1  0
 15 13  1  0
 16 15  2  0
 18 17  1  0
 19 20  1  0
 19 18  1  0
 21 20  1  1
 21 22  1  0
 22 15  1  0
 23 21  1  0
 24 23  1  0
 25 23  2  0
M  END
$$$$
