IMM.pdb
     RDKit          3D

 25 24  0  0  1  0  0  0  0  0999 V2000
   15.6969  -12.8256  -12.4909 C   0  0  0  0  0  0  0  0  0  0  0  0
   15.2007  -12.2396  -11.1910 C   0  0  0  0  0  0  0  0  0  0  0  0
   15.4839  -10.7591  -11.1830 C   0  0  2  0  0  0  0  0  0  0  0  0
   16.9905  -10.6037  -11.2783 C   0  0  0  0  0  0  0  0  0  0  0  0
   14.9641  -10.0528   -9.9653 C   0  0  2  0  0  0  0  0  0  0  0  0
   13.5888  -10.3269   -9.7053 N   0  0  0  0  0  0  0  0  0  0  0  0
   15.2245   -8.6007  -10.1261 C   0  0  0  0  0  0  0  0  0  0  0  0
   14.6881   -7.9881  -11.0835 O   0  0  0  0  0  0  0  0  0  0  0  0
   11.8528   -4.4211   -7.0873 C   0  0  0  0  0  0  0  0  0  0  0  0
   13.6471   -4.6873   -6.9480 S   0  0  0  0  0  0  0  0  0  0  0  0
   14.2139   -5.6569   -8.4005 C   0  0  0  0  0  0  0  0  0  0  0  0
   15.7144   -5.6656   -8.3450 C   0  0  0  0  0  0  0  0  0  0  0  0
   16.2565   -6.4481   -9.5171 C   0  0  2  0  0  0  0  0  0  0  0  0
   16.0521   -7.8482   -9.2562 N   0  0  0  0  0  0  0  0  0  0  0  0
   17.6844   -6.0883   -9.6643 C   0  0  0  0  0  0  0  0  0  0  0  0
   18.4705   -6.6119   -8.8166 O   0  0  0  0  0  0  0  0  0  0  0  0
   22.7875   -9.2463  -13.5392 C   0  0  0  0  0  0  0  0  0  0  0  0
   21.1601   -8.8882  -12.8500 S   0  0  0  0  0  0  0  0  0  0  0  0
   20.9601   -7.1898  -12.3325 C   0  0  0  0  0  0  0  0  0  0  0  0
   19.6665   -6.9141  -11.6538 C   0  0  0  0  0  0  0  0  0  0  0  0
   19.5176   -5.4794  -11.1937 C   0  0  2  0  0  0  0  0  0  0  0  0
   18.1995   -5.2385  -10.6437 N   0  0  0  0  0  0  0  0  0  0  0  0
   19.8167   -4.4968  -12.2327 C   0  0  0  0  0  0  0  0  0  0  0  0
   21.1262   -4.1332  -12.4997 O   0  0  0  0  0  0  0  0  0  0  0  0
   18.9048   -3.9596  -12.9063 O   0  0  0  0  0  0  0  0  0  0  0  0
  2  1  1  0
  2  3  1  0
  3  4  1  1
  5  3  1  0
  5  6  1  6
  7  8  2  0
  7  5  1  0
 10 11  1  0
 10  9  1  0
 11 12  1  0
 13 12  1  1
 13 14  1  0
 14  7  1  0
 15 13  1  0
 16 15  2  0
 18 17  1  0
 19 20  1  0
 19 18  1  0
 21 20  1  6
 21 22  1  0
 22 15  1  0
 23 21  1  0
 24 23  1  0
 25 23  2  0
M  END
$$$$
