IMM.pdb
     RDKit          3D

 25 24  0  0  1  0  0  0  0  0999 V2000
   25.0488  -14.0905  -16.6395 C   0  0  0  0  0  0  0  0  0  0  0  0
   26.3733  -14.8134  -16.6898 C   0  0  0  0  0  0  0  0  0  0  0  0
   26.1871  -16.2117  -16.1586 C   0  0  2  0  0  0  0  0  0  0  0  0
   25.6785  -16.0724  -14.7356 C   0  0  0  0  0  0  0  0  0  0  0  0
   27.4394  -17.0380  -16.1850 C   0  0  2  0  0  0  0  0  0  0  0  0
   27.9876  -17.1795  -17.4941 N   0  0  0  0  0  0  0  0  0  0  0  0
   27.1415  -18.3499  -15.5585 C   0  0  0  0  0  0  0  0  0  0  0  0
   26.5793  -19.2394  -16.2456 O   0  0  0  0  0  0  0  0  0  0  0  0
   30.2471  -20.5051  -10.6578 C   0  0  0  0  0  0  0  0  0  0  0  0
   29.0950  -21.9128  -10.6894 S   0  0  0  0  0  0  0  0  0  0  0  0
   27.8792  -21.6495  -12.0396 C   0  0  0  0  0  0  0  0  0  0  0  0
   28.1695  -20.2924  -12.6129 C   0  0  0  0  0  0  0  0  0  0  0  0
   27.1957  -19.9990  -13.7290 C   0  0  2  0  0  0  0  0  0  0  0  0
   27.4547  -18.6694  -14.2139 N   0  0  0  0  0  0  0  0  0  0  0  0
   25.8319  -20.1593  -13.1771 C   0  0  0  0  0  0  0  0  0  0  0  0
   25.3450  -19.1308  -12.6152 O   0  0  0  0  0  0  0  0  0  0  0  0
   23.6728  -20.3532   -7.7014 C   0  0  0  0  0  0  0  0  0  0  0  0
   22.5813  -19.7167   -8.9880 S   0  0  0  0  0  0  0  0  0  0  0  0
   22.5720  -20.7089  -10.4739 C   0  0  0  0  0  0  0  0  0  0  0  0
   23.8725  -20.7297  -11.1938 C   0  0  0  0  0  0  0  0  0  0  0  0
   23.8065  -21.4113  -12.5441 C   0  0  2  0  0  0  0  0  0  0  0  0
   25.0768  -21.3310  -13.2353 N   0  0  0  0  0  0  0  0  0  0  0  0
   22.7345  -20.9108  -13.4013 C   0  0  0  0  0  0  0  0  0  0  0  0
   21.4491  -21.4134  -13.2845 O   0  0  0  0  0  0  0  0  0  0  0  0
   22.9455  -20.0203  -14.2593 O   0  0  0  0  0  0  0  0  0  0  0  0
  2  1  1  0
  2  3  1  0
  3  4  1  1
  5  3  1  0
  5  6  1  6
  7  8  2  0
  7  5  1  0
 10 11  1  0
 10  9  1  0
 11 12  1  0
 13 12  1  1
 13 14  1  0
 14  7  1  0
 15 13  1  0
 16 15  2  0
 18 17  1  0
 19 20  1  0
 19 18  1  0
 21 20  1  1
 21 22  1  0
 22 15  1  0
 23 21  1  0
 24 23  1  0
 25 23  2  0
M  END
$$$$
