IMM.pdb
     RDKit          3D

 25 24  0  0  1  0  0  0  0  0999 V2000
   27.5547  -17.5678  -17.0423 C   0  0  0  0  0  0  0  0  0  0  0  0
   28.2525  -18.6312  -16.2289 C   0  0  0  0  0  0  0  0  0  0  0  0
   27.2493  -19.2796  -15.3095 C   0  0  2  0  0  0  0  0  0  0  0  0
   26.7255  -18.1862  -14.3966 C   0  0  0  0  0  0  0  0  0  0  0  0
   27.8166  -20.4073  -14.4981 C   0  0  2  0  0  0  0  0  0  0  0  0
   28.3214  -21.4733  -15.3000 N   0  0  0  0  0  0  0  0  0  0  0  0
   26.7713  -20.8669  -13.5502 C   0  0  0  0  0  0  0  0  0  0  0  0
   25.8717  -21.6408  -13.9639 O   0  0  0  0  0  0  0  0  0  0  0  0
   26.1720  -19.7399   -7.2130 C   0  0  0  0  0  0  0  0  0  0  0  0
   27.5421  -20.7723   -7.8185 S   0  0  0  0  0  0  0  0  0  0  0  0
   27.1614  -21.3120   -9.5315 C   0  0  0  0  0  0  0  0  0  0  0  0
   25.9157  -20.5797   -9.9398 C   0  0  0  0  0  0  0  0  0  0  0  0
   25.5996  -20.8907  -11.3832 C   0  0  2  0  0  0  0  0  0  0  0  0
   26.7211  -20.4831  -12.1870 N   0  0  0  0  0  0  0  0  0  0  0  0
   24.3507  -20.1740  -11.7248 C   0  0  0  0  0  0  0  0  0  0  0  0
   24.5000  -18.9886  -12.1526 O   0  0  0  0  0  0  0  0  0  0  0  0
   23.6210  -20.0505  -17.0190 C   0  0  0  0  0  0  0  0  0  0  0  0
   21.9099  -20.4973  -16.6665 S   0  0  0  0  0  0  0  0  0  0  0  0
   21.4236  -20.1890  -14.9751 C   0  0  0  0  0  0  0  0  0  0  0  0
   22.4543  -20.5665  -13.9725 C   0  0  0  0  0  0  0  0  0  0  0  0
   22.0303  -20.3100  -12.5419 C   0  0  2  0  0  0  0  0  0  0  0  0
   23.0654  -20.7043  -11.6087 N   0  0  0  0  0  0  0  0  0  0  0  0
   20.7627  -20.9421  -12.1841 C   0  0  0  0  0  0  0  0  0  0  0  0
   19.5988  -20.1940  -12.1175 O   0  0  0  0  0  0  0  0  0  0  0  0
   20.6927  -22.1685  -11.9295 O   0  0  0  0  0  0  0  0  0  0  0  0
  2  1  1  0
  2  3  1  0
  3  4  1  1
  5  3  1  0
  5  6  1  6
  7  8  2  0
  7  5  1  0
 10 11  1  0
 10  9  1  0
 11 12  1  0
 13 12  1  1
 13 14  1  0
 14  7  1  0
 15 13  1  0
 16 15  2  0
 18 17  1  0
 19 20  1  0
 19 18  1  0
 21 20  1  6
 21 22  1  0
 22 15  1  0
 23 21  1  0
 24 23  1  0
 25 23  2  0
M  END
$$$$
