IMM.pdb
     RDKit          3D

 25 24  0  0  1  0  0  0  0  0999 V2000
   29.6299  -19.6447  -19.4577 C   0  0  0  0  0  0  0  0  0  0  0  0
   29.3755  -18.8480  -18.2008 C   0  0  0  0  0  0  0  0  0  0  0  0
   28.8919  -19.7812  -17.1204 C   0  0  2  0  0  0  0  0  0  0  0  0
   27.6636  -20.4833  -17.6695 C   0  0  0  0  0  0  0  0  0  0  0  0
   28.5626  -19.0897  -15.8300 C   0  0  2  0  0  0  0  0  0  0  0  0
   29.5661  -18.1621  -15.4216 N   0  0  0  0  0  0  0  0  0  0  0  0
   28.3082  -20.1279  -14.8005 C   0  0  0  0  0  0  0  0  0  0  0  0
   27.4352  -21.0045  -15.0220 O   0  0  0  0  0  0  0  0  0  0  0  0
   32.2696  -21.0118  -10.0974 C   0  0  0  0  0  0  0  0  0  0  0  0
   31.7806  -22.5906  -10.8577 S   0  0  0  0  0  0  0  0  0  0  0  0
   30.4879  -22.2621  -12.1194 C   0  0  0  0  0  0  0  0  0  0  0  0
   29.5344  -21.2792  -11.5035 C   0  0  0  0  0  0  0  0  0  0  0  0
   28.4323  -20.9641  -12.4864 C   0  0  2  0  0  0  0  0  0  0  0  0
   28.9969  -20.1958  -13.5639 N   0  0  0  0  0  0  0  0  0  0  0  0
   27.3772  -20.2365  -11.7465 C   0  0  0  0  0  0  0  0  0  0  0  0
   27.1093  -19.0736  -12.1783 O   0  0  0  0  0  0  0  0  0  0  0  0
   20.2344  -20.2994  -12.5735 C   0  0  0  0  0  0  0  0  0  0  0  0
   21.9515  -20.8116  -12.7761 S   0  0  0  0  0  0  0  0  0  0  0  0
   22.9987  -20.3649  -11.3991 C   0  0  0  0  0  0  0  0  0  0  0  0
   24.4303  -20.7169  -11.5906 C   0  0  0  0  0  0  0  0  0  0  0  0
   25.3078  -20.3464  -10.4138 C   0  0  2  0  0  0  0  0  0  0  0  0
   26.6843  -20.7345  -10.6426 N   0  0  0  0  0  0  0  0  0  0  0  0
   24.8379  -20.8855   -9.1398 C   0  0  0  0  0  0  0  0  0  0  0  0
   23.9170  -20.1858   -8.3778 O   0  0  0  0  0  0  0  0  0  0  0  0
   25.2511  -21.9869   -8.7040 O   0  0  0  0  0  0  0  0  0  0  0  0
  2  1  1  0
  2  3  1  0
  3  4  1  6
  5  3  1  0
  5  6  1  1
  7  8  2  0
  7  5  1  0
 10 11  1  0
 10  9  1  0
 11 12  1  0
 13 12  1  1
 13 14  1  0
 14  7  1  0
 15 13  1  0
 16 15  2  0
 18 17  1  0
 19 20  1  0
 19 18  1  0
 21 20  1  6
 21 22  1  0
 22 15  1  0
 23 21  1  0
 24 23  1  0
 25 23  2  0
M  END
$$$$
