NCP.pdb
     RDKit          3D

 22 22  0  0  1  0  0  0  0  0999 V2000
   20.8977  -23.1057  -15.2967 N   0  0  0  0  0  0  0  0  0  0  0  0
   20.5676  -21.7741  -15.6455 C   0  0  0  0  0  0  0  0  0  0  0  0
   20.1068  -21.5359  -16.7821 O   0  0  0  0  0  0  0  0  0  0  0  0
   20.7739  -20.7034  -14.6646 C   0  0  0  0  0  0  0  0  0  0  0  0
   21.3888  -21.2399  -13.3932 C   0  0  2  0  0  0  0  0  0  0  0  0
   20.4958  -21.1057  -12.2793 N   0  0  0  0  0  0  0  0  0  0  0  0
   22.6839  -20.5702  -13.1228 C   0  0  0  0  0  0  0  0  0  0  0  0
   22.7704  -19.3333  -12.9852 O   0  0  0  0  0  0  0  0  0  0  0  0
   23.8473  -21.3481  -13.0183 N   0  0  0  0  0  0  0  0  0  0  0  0
   25.1843  -20.7685  -12.8204 C   0  0  1  0  0  0  0  0  0  0  0  0
   25.8013  -21.6034  -11.6900 C   0  0  0  0  0  0  0  0  0  0  0  0
   25.6637  -20.6813  -10.1169 S   0  0  0  0  0  0  0  0  0  0  0  0
   25.9461  -20.9457  -14.0797 C   0  0  0  0  0  0  0  0  0  0  0  0
   25.7964  -22.0044  -14.7842 O   0  0  0  0  0  0  0  0  0  0  0  0
   26.8575  -19.9785  -14.5609 N   0  0  0  0  0  0  0  0  0  0  0  0
   27.2191  -18.7511  -13.8421 C   0  0  0  0  0  0  0  0  0  0  0  0
   27.5195  -17.7873  -15.0031 C   0  0  0  0  0  0  0  0  0  0  0  0
   28.3606  -18.6896  -15.8748 C   0  0  0  0  0  0  0  0  0  0  0  0
   27.5908  -19.9906  -15.8126 C   0  0  1  0  0  0  0  0  0  0  0  0
   28.5210  -21.1422  -15.8439 C   0  0  0  0  0  0  0  0  0  0  0  0
   28.8153  -21.7693  -14.8153 O   0  0  0  0  0  0  0  0  0  0  0  0
   29.0751  -21.5252  -17.0594 O   0  0  0  0  0  0  0  0  0  0  0  0
  2  1  1  0
  3  2  2  0
  4  2  1  0
  4  5  1  0
  5  6  1  1
  7  5  1  0
  7  9  1  0
  8  7  2  0
 10 11  1  1
 10  9  1  0
 10 13  1  0
 12 11  1  0
 13 15  1  0
 14 13  2  0
 15 19  1  0
 15 16  1  0
 16 17  1  0
 18 17  1  0
 19 18  1  0
 19 20  1  1
 20 22  1  0
 21 20  2  0
M  END
$$$$
