NCP.pdb
     RDKit          3D

 22 22  0  0  1  0  0  0  0  0999 V2000
   26.5339  -14.2979  -15.3386 N   0  0  0  0  0  0  0  0  0  0  0  0
   25.9488  -14.5063  -16.6107 C   0  0  0  0  0  0  0  0  0  0  0  0
   26.3876  -15.4180  -17.3437 O   0  0  0  0  0  0  0  0  0  0  0  0
   24.8401  -13.6474  -17.0398 C   0  0  0  0  0  0  0  0  0  0  0  0
   24.5454  -12.5823  -16.0097 C   0  0  2  0  0  0  0  0  0  0  0  0
   24.1307  -13.1563  -14.7629 N   0  0  0  0  0  0  0  0  0  0  0  0
   23.5295  -11.6326  -16.5243 C   0  0  0  0  0  0  0  0  0  0  0  0
   23.7152  -10.9675  -17.5633 O   0  0  0  0  0  0  0  0  0  0  0  0
   22.3234  -11.4756  -15.8241 N   0  0  0  0  0  0  0  0  0  0  0  0
   21.2789  -10.5232  -16.2297 C   0  0  1  0  0  0  0  0  0  0  0  0
   20.0054  -11.0340  -15.5419 C   0  0  0  0  0  0  0  0  0  0  0  0
   19.6561  -12.7366  -16.1100 S   0  0  0  0  0  0  0  0  0  0  0  0
   21.6566   -9.1874  -15.7096 C   0  0  0  0  0  0  0  0  0  0  0  0
   22.2581   -9.0764  -14.5845 O   0  0  0  0  0  0  0  0  0  0  0  0
   21.3809   -7.9915  -16.4104 N   0  0  0  0  0  0  0  0  0  0  0  0
   20.7998   -7.9355  -17.7569 C   0  0  0  0  0  0  0  0  0  0  0  0
   21.4209   -6.6413  -18.3106 C   0  0  0  0  0  0  0  0  0  0  0  0
   21.2174   -5.7304  -17.1231 C   0  0  0  0  0  0  0  0  0  0  0  0
   21.6086   -6.6281  -15.9698 C   0  0  1  0  0  0  0  0  0  0  0  0
   20.7757   -6.3337  -14.7815 C   0  0  0  0  0  0  0  0  0  0  0  0
   19.8312   -7.0662  -14.4511 O   0  0  0  0  0  0  0  0  0  0  0  0
   21.0645   -5.2067  -14.0214 O   0  0  0  0  0  0  0  0  0  0  0  0
  2  1  1  0
  3  2  2  0
  4  2  1  0
  4  5  1  0
  5  6  1  1
  7  5  1  0
  7  9  1  0
  8  7  2  0
 10 11  1  1
 10  9  1  0
 10 13  1  0
 12 11  1  0
 13 15  1  0
 14 13  2  0
 15 19  1  0
 15 16  1  0
 16 17  1  0
 18 17  1  0
 19 18  1  0
 19 20  1  1
 20 22  1  0
 21 20  2  0
M  END
$$$$
