NCP.pdb
     RDKit          3D

 22 22  0  0  1  0  0  0  0  0999 V2000
   20.2561  -12.8933  -19.4937 N   0  0  0  0  0  0  0  0  0  0  0  0
   20.2644  -12.5321  -18.1249 C   0  0  0  0  0  0  0  0  0  0  0  0
   19.7262  -13.2893  -17.2894 O   0  0  0  0  0  0  0  0  0  0  0  0
   20.9049  -11.2771  -17.7181 C   0  0  0  0  0  0  0  0  0  0  0  0
   21.3369  -10.4707  -18.9204 C   0  0  2  0  0  0  0  0  0  0  0  0
   22.3561  -11.1468  -19.6689 N   0  0  0  0  0  0  0  0  0  0  0  0
   21.7879   -9.1213  -18.5027 C   0  0  0  0  0  0  0  0  0  0  0  0
   22.9971   -8.8345  -18.3943 O   0  0  0  0  0  0  0  0  0  0  0  0
   20.8286   -8.1366  -18.2205 N   0  0  0  0  0  0  0  0  0  0  0  0
   21.1768   -6.7377  -17.9299 C   0  0  1  0  0  0  0  0  0  0  0  0
   20.6979   -5.9585  -19.1624 C   0  0  0  0  0  0  0  0  0  0  0  0
   20.7296   -4.1681  -18.7921 S   0  0  0  0  0  0  0  0  0  0  0  0
   20.4231   -6.3244  -16.7221 C   0  0  0  0  0  0  0  0  0  0  0  0
   19.1945   -6.6562  -16.5799 O   0  0  0  0  0  0  0  0  0  0  0  0
   21.0053   -5.5602  -15.6855 N   0  0  0  0  0  0  0  0  0  0  0  0
   22.4233   -5.1861  -15.6283 C   0  0  0  0  0  0  0  0  0  0  0  0
   22.6673   -5.1217  -14.1106 C   0  0  0  0  0  0  0  0  0  0  0  0
   21.4389   -4.3525  -13.6854 C   0  0  0  0  0  0  0  0  0  0  0  0
   20.3556   -5.0134  -14.5093 C   0  0  1  0  0  0  0  0  0  0  0  0
   19.3341   -4.0194  -14.9105 C   0  0  0  0  0  0  0  0  0  0  0  0
   19.3011   -3.5463  -16.0564 O   0  0  0  0  0  0  0  0  0  0  0  0
   18.3913   -3.6102  -13.9751 O   0  0  0  0  0  0  0  0  0  0  0  0
  2  1  1  0
  3  2  2  0
  4  2  1  0
  4  5  1  0
  5  6  1  1
  7  5  1  0
  7  9  1  0
  8  7  2  0
 10 11  1  6
 10  9  1  0
 10 13  1  0
 12 11  1  0
 13 15  1  0
 14 13  2  0
 15 19  1  0
 15 16  1  0
 16 17  1  0
 18 17  1  0
 19 18  1  0
 19 20  1  6
 20 22  1  0
 21 20  2  0
M  END
$$$$
