NCP.pdb
     RDKit          3D

 22 22  0  0  1  0  0  0  0  0999 V2000
   14.5019  -12.5838  -15.1622 N   0  0  0  0  0  0  0  0  0  0  0  0
   15.4709  -12.7113  -14.1381 C   0  0  0  0  0  0  0  0  0  0  0  0
   15.1053  -13.0294  -12.9865 O   0  0  0  0  0  0  0  0  0  0  0  0
   16.8826  -12.4674  -14.4519 C   0  0  0  0  0  0  0  0  0  0  0  0
   17.0562  -12.0471  -15.8926 C   0  0  2  0  0  0  0  0  0  0  0  0
   16.8842  -13.1537  -16.7881 N   0  0  0  0  0  0  0  0  0  0  0  0
   18.3775  -11.4030  -16.0875 C   0  0  0  0  0  0  0  0  0  0  0  0
   19.3364  -12.0093  -16.6065 O   0  0  0  0  0  0  0  0  0  0  0  0
   18.5573  -10.0731  -15.6770 N   0  0  0  0  0  0  0  0  0  0  0  0
   19.7842   -9.3091  -15.9480 C   0  0  1  0  0  0  0  0  0  0  0  0
   19.8712   -9.2526  -17.4793 C   0  0  0  0  0  0  0  0  0  0  0  0
   18.3391   -8.5061  -18.1420 S   0  0  0  0  0  0  0  0  0  0  0  0
   19.6066   -7.9505  -15.3820 C   0  0  0  0  0  0  0  0  0  0  0  0
   18.4598   -7.3815  -15.4103 O   0  0  0  0  0  0  0  0  0  0  0  0
   20.6678   -7.2261  -14.7934 N   0  0  0  0  0  0  0  0  0  0  0  0
   22.0518   -7.7070  -14.7074 C   0  0  0  0  0  0  0  0  0  0  0  0
   22.5358   -7.0330  -13.4118 C   0  0  0  0  0  0  0  0  0  0  0  0
   22.0013   -5.6378  -13.6330 C   0  0  0  0  0  0  0  0  0  0  0  0
   20.6154   -5.9159  -14.1727 C   0  0  1  0  0  0  0  0  0  0  0  0
   20.2381   -4.8944  -15.1760 C   0  0  0  0  0  0  0  0  0  0  0  0
   20.3533   -5.1038  -16.3929 O   0  0  0  0  0  0  0  0  0  0  0  0
   19.7433   -3.6723  -14.7370 O   0  0  0  0  0  0  0  0  0  0  0  0
  2  1  1  0
  3  2  2  0
  4  2  1  0
  4  5  1  0
  5  6  1  6
  7  5  1  0
  7  9  1  0
  8  7  2  0
 10 11  1  6
 10  9  1  0
 10 13  1  0
 12 11  1  0
 13 15  1  0
 14 13  2  0
 15 19  1  0
 15 16  1  0
 16 17  1  0
 18 17  1  0
 19 18  1  0
 19 20  1  6
 20 22  1  0
 21 20  2  0
M  END
$$$$
