NCP.pdb
     RDKit          3D

 22 22  0  0  1  0  0  0  0  0999 V2000
   19.8157  -25.1461  -10.6950 N   0  0  0  0  0  0  0  0  0  0  0  0
   18.7347  -25.9669  -10.2931 C   0  0  0  0  0  0  0  0  0  0  0  0
   17.8994  -26.3385  -11.1447 O   0  0  0  0  0  0  0  0  0  0  0  0
   18.6194  -26.3632   -8.8858 C   0  0  0  0  0  0  0  0  0  0  0  0
   17.8128  -25.3560   -8.1001 C   0  0  2  0  0  0  0  0  0  0  0  0
   18.6493  -24.3384   -7.5336 N   0  0  0  0  0  0  0  0  0  0  0  0
   17.0159  -26.0370   -7.0513 C   0  0  0  0  0  0  0  0  0  0  0  0
   16.2546  -26.9892   -7.3159 O   0  0  0  0  0  0  0  0  0  0  0  0
   17.1194  -25.5996   -5.7218 N   0  0  0  0  0  0  0  0  0  0  0  0
   16.3704  -26.2133   -4.6151 C   0  0  1  0  0  0  0  0  0  0  0  0
   17.4031  -27.0873   -3.8903 C   0  0  0  0  0  0  0  0  0  0  0  0
   18.9525  -26.1390   -3.6804 S   0  0  0  0  0  0  0  0  0  0  0  0
   15.8927  -25.1231   -3.7314 C   0  0  0  0  0  0  0  0  0  0  0  0
   16.5380  -24.0196   -3.6570 O   0  0  0  0  0  0  0  0  0  0  0  0
   14.7263  -25.2387   -2.9417 N   0  0  0  0  0  0  0  0  0  0  0  0
   13.8121  -26.3863   -2.9774 C   0  0  0  0  0  0  0  0  0  0  0  0
   12.4670  -25.7237   -2.6327 C   0  0  0  0  0  0  0  0  0  0  0  0
   12.8975  -24.8568   -1.4731 C   0  0  0  0  0  0  0  0  0  0  0  0
   14.2062  -24.2885   -1.9767 C   0  0  1  0  0  0  0  0  0  0  0  0
   15.1628  -24.1272   -0.8581 C   0  0  0  0  0  0  0  0  0  0  0  0
   16.0545  -24.9607   -0.6388 O   0  0  0  0  0  0  0  0  0  0  0  0
   15.0535  -23.0117   -0.0365 O   0  0  0  0  0  0  0  0  0  0  0  0
  2  1  1  0
  3  2  2  0
  4  2  1  0
  4  5  1  0
  5  6  1  1
  7  5  1  0
  7  9  1  0
  8  7  2  0
 10 11  1  1
 10  9  1  0
 10 13  1  0
 12 11  1  0
 13 15  1  0
 14 13  2  0
 15 19  1  0
 15 16  1  0
 16 17  1  0
 18 17  1  0
 19 18  1  0
 19 20  1  1
 20 22  1  0
 21 20  2  0
M  END
$$$$
