NCP.pdb
     RDKit          3D

 22 22  0  0  1  0  0  0  0  0999 V2000
   22.4464  -13.9583  -18.1438 N   0  0  0  0  0  0  0  0  0  0  0  0
   23.0538  -12.7874  -18.6575 C   0  0  0  0  0  0  0  0  0  0  0  0
   24.2204  -12.8476  -19.1007 O   0  0  0  0  0  0  0  0  0  0  0  0
   22.3000  -11.5293  -18.6581 C   0  0  0  0  0  0  0  0  0  0  0  0
   20.9233  -11.7184  -18.0653 C   0  0  2  0  0  0  0  0  0  0  0  0
   20.0516  -12.4106  -18.9692 N   0  0  0  0  0  0  0  0  0  0  0  0
   20.3487  -10.4112  -17.6655 C   0  0  0  0  0  0  0  0  0  0  0  0
   19.8132   -9.6458  -18.4923 O   0  0  0  0  0  0  0  0  0  0  0  0
   20.4080  -10.0214  -16.3186 N   0  0  0  0  0  0  0  0  0  0  0  0
   19.7766   -8.7943  -15.8104 C   0  0  1  0  0  0  0  0  0  0  0  0
   18.9972   -9.2492  -14.5688 C   0  0  0  0  0  0  0  0  0  0  0  0
   17.5910  -10.2950  -15.0908 S   0  0  0  0  0  0  0  0  0  0  0  0
   20.8566   -7.8505  -15.4356 C   0  0  0  0  0  0  0  0  0  0  0  0
   21.9529   -8.2853  -14.9368 O   0  0  0  0  0  0  0  0  0  0  0  0
   20.7386   -6.4523  -15.6047 N   0  0  0  0  0  0  0  0  0  0  0  0
   19.5822   -5.7864  -16.2156 C   0  0  0  0  0  0  0  0  0  0  0  0
   20.2358   -4.5458  -16.8487 C   0  0  0  0  0  0  0  0  0  0  0  0
   21.1194   -4.1088  -15.7042 C   0  0  0  0  0  0  0  0  0  0  0  0
   21.6944   -5.4263  -15.2325 C   0  0  1  0  0  0  0  0  0  0  0  0
   21.8769   -5.4127  -13.7632 C   0  0  0  0  0  0  0  0  0  0  0  0
   21.0951   -6.0055  -13.0047 O   0  0  0  0  0  0  0  0  0  0  0  0
   22.9531   -4.7164  -13.2264 O   0  0  0  0  0  0  0  0  0  0  0  0
  2  1  1  0
  3  2  2  0
  4  2  1  0
  4  5  1  0
  5  6  1  6
  7  5  1  0
  7  9  1  0
  8  7  2  0
 10 11  1  1
 10  9  1  0
 10 13  1  0
 12 11  1  0
 13 15  1  0
 14 13  2  0
 15 19  1  0
 15 16  1  0
 16 17  1  0
 18 17  1  0
 19 18  1  0
 19 20  1  1
 20 22  1  0
 21 20  2  0
M  END
$$$$
