NCP.pdb
     RDKit          3D

 22 22  0  0  1  0  0  0  0  0999 V2000
   12.3166  -20.4590    1.7883 N   0  0  0  0  0  0  0  0  0  0  0  0
   12.5812  -21.3258    2.8758 C   0  0  0  0  0  0  0  0  0  0  0  0
   11.6455  -21.9898    3.3703 O   0  0  0  0  0  0  0  0  0  0  0  0
   13.9483  -21.4253    3.3976 C   0  0  0  0  0  0  0  0  0  0  0  0
   14.9567  -21.4952    2.2749 C   0  0  2  0  0  0  0  0  0  0  0  0
   14.9958  -22.8006    1.6831 N   0  0  0  0  0  0  0  0  0  0  0  0
   16.2980  -21.0881    2.7589 C   0  0  0  0  0  0  0  0  0  0  0  0
   17.1543  -21.9248    3.1095 O   0  0  0  0  0  0  0  0  0  0  0  0
   16.6156  -19.7227    2.8254 N   0  0  0  0  0  0  0  0  0  0  0  0
   17.9432  -19.2265    3.2176 C   0  0  1  0  0  0  0  0  0  0  0  0
   18.0756  -17.8758    2.5007 C   0  0  0  0  0  0  0  0  0  0  0  0
   19.6234  -17.0609    3.0338 S   0  0  0  0  0  0  0  0  0  0  0  0
   17.9419  -19.0421    4.6885 C   0  0  0  0  0  0  0  0  0  0  0  0
   16.8551  -18.7634    5.3057 O   0  0  0  0  0  0  0  0  0  0  0  0
   19.1121  -19.1614    5.4720 N   0  0  0  0  0  0  0  0  0  0  0  0
   20.3955  -19.6685    4.9723 C   0  0  0  0  0  0  0  0  0  0  0  0
   20.9907  -20.3103    6.2376 C   0  0  0  0  0  0  0  0  0  0  0  0
   20.6982  -19.2195    7.2406 C   0  0  0  0  0  0  0  0  0  0  0  0
   19.2834  -18.8286    6.8736 C   0  0  1  0  0  0  0  0  0  0  0  0
   19.0800  -17.3764    7.0783 C   0  0  0  0  0  0  0  0  0  0  0  0
   19.0068  -16.5885    6.1234 O   0  0  0  0  0  0  0  0  0  0  0  0
   18.9694  -16.8898    8.3753 O   0  0  0  0  0  0  0  0  0  0  0  0
  2  1  1  0
  3  2  2  0
  4  2  1  0
  4  5  1  0
  5  6  1  1
  7  5  1  0
  7  9  1  0
  8  7  2  0
 10 11  1  6
 10  9  1  0
 10 13  1  0
 12 11  1  0
 13 15  1  0
 14 13  2  0
 15 19  1  0
 15 16  1  0
 16 17  1  0
 18 17  1  0
 19 18  1  0
 19 20  1  6
 20 22  1  0
 21 20  2  0
M  END
$$$$
