NCP.pdb
     RDKit          3D

 22 22  0  0  1  0  0  0  0  0999 V2000
   18.8480  -12.5604  -17.2386 N   0  0  0  0  0  0  0  0  0  0  0  0
   19.1905  -12.7579  -15.8794 C   0  0  0  0  0  0  0  0  0  0  0  0
   19.1964  -13.9167  -15.4123 O   0  0  0  0  0  0  0  0  0  0  0  0
   19.5310  -11.5975  -15.0495 C   0  0  0  0  0  0  0  0  0  0  0  0
   19.4378  -10.3145  -15.8418 C   0  0  2  0  0  0  0  0  0  0  0  0
   20.4743  -10.2291  -16.8289 N   0  0  0  0  0  0  0  0  0  0  0  0
   19.4679   -9.1429  -14.9334 C   0  0  0  0  0  0  0  0  0  0  0  0
   18.6151   -8.9813  -14.0374 O   0  0  0  0  0  0  0  0  0  0  0  0
   20.4840   -8.1866  -15.0842 N   0  0  0  0  0  0  0  0  0  0  0  0
   20.5258   -6.9332  -14.3161 C   0  0  1  0  0  0  0  0  0  0  0  0
   22.0219   -6.6555  -14.1154 C   0  0  0  0  0  0  0  0  0  0  0  0
   22.2279   -5.0384  -13.2869 S   0  0  0  0  0  0  0  0  0  0  0  0
   19.9017   -5.8734  -15.1437 C   0  0  0  0  0  0  0  0  0  0  0  0
   20.2546   -5.7120  -16.3640 O   0  0  0  0  0  0  0  0  0  0  0  0
   18.9061   -5.0039  -14.6434 N   0  0  0  0  0  0  0  0  0  0  0  0
   18.2547   -5.1549  -13.3369 C   0  0  0  0  0  0  0  0  0  0  0  0
   16.8624   -4.5612  -13.6126 C   0  0  0  0  0  0  0  0  0  0  0  0
   17.2598   -3.3130  -14.3647 C   0  0  0  0  0  0  0  0  0  0  0  0
   18.3387   -3.8347  -15.2882 C   0  0  1  0  0  0  0  0  0  0  0  0
   19.3865   -2.8080  -15.4889 C   0  0  0  0  0  0  0  0  0  0  0  0
   20.5413   -2.9651  -15.0649 O   0  0  0  0  0  0  0  0  0  0  0  0
   19.0618   -1.6411  -16.1701 O   0  0  0  0  0  0  0  0  0  0  0  0
  2  1  1  0
  3  2  2  0
  4  2  1  0
  4  5  1  0
  5  6  1  6
  7  5  1  0
  7  9  1  0
  8  7  2  0
 10 11  1  6
 10  9  1  0
 10 13  1  0
 12 11  1  0
 13 15  1  0
 14 13  2  0
 15 19  1  0
 15 16  1  0
 16 17  1  0
 18 17  1  0
 19 18  1  0
 19 20  1  1
 20 22  1  0
 21 20  2  0
M  END
$$$$
