NCP.pdb
     RDKit          3D

 22 22  0  0  1  0  0  0  0  0999 V2000
   18.2274  -17.7027  -14.2762 N   0  0  0  0  0  0  0  0  0  0  0  0
   19.0323  -17.1318  -15.2912 C   0  0  0  0  0  0  0  0  0  0  0  0
   20.1907  -17.5650  -15.4691 O   0  0  0  0  0  0  0  0  0  0  0  0
   18.4884  -16.0445  -16.1114 C   0  0  0  0  0  0  0  0  0  0  0  0
   17.0781  -15.6995  -15.6938 C   0  0  2  0  0  0  0  0  0  0  0  0
   16.1384  -16.6803  -16.1530 N   0  0  0  0  0  0  0  0  0  0  0  0
   16.7135  -14.3449  -16.1742 C   0  0  0  0  0  0  0  0  0  0  0  0
   16.6340  -14.0758  -17.3898 O   0  0  0  0  0  0  0  0  0  0  0  0
   16.4500  -13.3346  -15.2364 N   0  0  0  0  0  0  0  0  0  0  0  0
   15.9554  -12.0015  -15.6116 C   0  0  1  0  0  0  0  0  0  0  0  0
   14.8530  -11.6985  -14.5875 C   0  0  0  0  0  0  0  0  0  0  0  0
   13.5435  -12.9680  -14.7198 S   0  0  0  0  0  0  0  0  0  0  0  0
   17.0792  -11.0450  -15.4714 C   0  0  0  0  0  0  0  0  0  0  0  0
   17.9789  -11.2285  -14.5789 O   0  0  0  0  0  0  0  0  0  0  0  0
   17.2166   -9.9053  -16.2959 N   0  0  0  0  0  0  0  0  0  0  0  0
   16.3669   -9.6155  -17.4570 C   0  0  0  0  0  0  0  0  0  0  0  0
   17.3369   -8.8430  -18.3678 C   0  0  0  0  0  0  0  0  0  0  0  0
   17.9523   -7.9084  -17.3533 C   0  0  0  0  0  0  0  0  0  0  0  0
   18.1859   -8.8324  -16.1783 C   0  0  1  0  0  0  0  0  0  0  0  0
   17.9859   -8.1062  -14.9035 C   0  0  0  0  0  0  0  0  0  0  0  0
   16.9496   -8.2379  -14.2351 O   0  0  0  0  0  0  0  0  0  0  0  0
   18.9880   -7.2571  -14.4498 O   0  0  0  0  0  0  0  0  0  0  0  0
  2  1  1  0
  3  2  2  0
  4  2  1  0
  4  5  1  0
  5  6  1  6
  7  5  1  0
  7  9  1  0
  8  7  2  0
 10 11  1  1
 10  9  1  0
 10 13  1  0
 12 11  1  0
 13 15  1  0
 14 13  2  0
 15 19  1  0
 15 16  1  0
 16 17  1  0
 18 17  1  0
 19 18  1  0
 19 20  1  1
 20 22  1  0
 21 20  2  0
M  END
$$$$
