NCP.pdb
     RDKit          3D

 22 22  0  0  1  0  0  0  0  0999 V2000
   25.9523  -13.2025  -15.2661 N   0  0  0  0  0  0  0  0  0  0  0  0
   26.1747  -12.8084  -16.6074 C   0  0  0  0  0  0  0  0  0  0  0  0
   27.3448  -12.7504  -17.0418 O   0  0  0  0  0  0  0  0  0  0  0  0
   25.0265  -12.4770  -17.4575 C   0  0  0  0  0  0  0  0  0  0  0  0
   23.7245  -12.6799  -16.7186 C   0  0  2  0  0  0  0  0  0  0  0  0
   23.1353  -13.9497  -17.0294 N   0  0  0  0  0  0  0  0  0  0  0  0
   22.7858  -11.5699  -17.0111 C   0  0  0  0  0  0  0  0  0  0  0  0
   21.9155  -11.6596  -17.9004 O   0  0  0  0  0  0  0  0  0  0  0  0
   22.8771  -10.3832  -16.2676 N   0  0  0  0  0  0  0  0  0  0  0  0
   21.8341   -9.3466  -16.2805 C   0  0  1  0  0  0  0  0  0  0  0  0
   20.6414   -9.9927  -15.5623 C   0  0  0  0  0  0  0  0  0  0  0  0
   19.3796   -8.7138  -15.2215 S   0  0  0  0  0  0  0  0  0  0  0  0
   22.3413   -8.1836  -15.5138 C   0  0  0  0  0  0  0  0  0  0  0  0
   22.8684   -8.3491  -14.3586 O   0  0  0  0  0  0  0  0  0  0  0  0
   22.2731   -6.8599  -16.0042 N   0  0  0  0  0  0  0  0  0  0  0  0
   21.7526   -6.4920  -17.3262 C   0  0  0  0  0  0  0  0  0  0  0  0
   22.5803   -5.2356  -17.6482 C   0  0  0  0  0  0  0  0  0  0  0  0
   22.4771   -4.5141  -16.3253 C   0  0  0  0  0  0  0  0  0  0  0  0
   22.6893   -5.6404  -15.3376 C   0  0  1  0  0  0  0  0  0  0  0  0
   21.8711   -5.4222  -14.1230 C   0  0  0  0  0  0  0  0  0  0  0  0
   20.8114   -6.0376  -13.9328 O   0  0  0  0  0  0  0  0  0  0  0  0
   22.3067   -4.5032  -13.1758 O   0  0  0  0  0  0  0  0  0  0  0  0
  2  1  1  0
  3  2  2  0
  4  2  1  0
  4  5  1  0
  5  6  1  6
  7  5  1  0
  7  9  1  0
  8  7  2  0
 10 11  1  1
 10  9  1  0
 10 13  1  0
 12 11  1  0
 13 15  1  0
 14 13  2  0
 15 19  1  0
 15 16  1  0
 16 17  1  0
 18 17  1  0
 19 18  1  0
 19 20  1  1
 20 22  1  0
 21 20  2  0
M  END
$$$$
