GHN.pdb
     RDKit          3D

 23 23  0  0  1  0  0  0  0  0999 V2000
   23.2340  -14.0929  -18.1563 N   0  0  0  0  0  0  0  0  0  0  0  0
   22.3541  -13.0334  -17.7753 C   0  0  0  0  0  0  0  0  0  0  0  0
   23.0014  -12.0211  -16.9138 C   0  0  0  0  0  0  0  0  0  0  0  0
   22.8244  -12.0605  -15.6692 O   0  0  0  0  0  0  0  0  0  0  0  0
   23.8288  -10.9791  -17.3849 N   0  0  0  0  0  0  0  0  0  0  0  0
   24.3928   -9.9500  -16.5619 C   0  0  1  0  0  0  0  0  0  0  0  0
   25.8550   -9.8610  -16.5262 C   0  0  0  0  0  0  0  0  0  0  0  0
   26.6253  -11.0467  -16.1524 C   0  0  0  0  0  0  0  0  0  0  0  0
   26.3116  -12.3041  -15.7501 C   0  0  0  0  0  0  0  0  0  0  0  0
   27.4448  -13.0186  -15.5528 N   0  0  0  0  0  0  0  0  0  0  0  0
   28.4603  -12.1885  -15.8382 C   0  0  0  0  0  0  0  0  0  0  0  0
   27.9973  -10.9974  -16.2013 N   0  0  0  0  0  0  0  0  0  0  0  0
   23.7184   -8.6365  -16.7774 C   0  0  0  0  0  0  0  0  0  0  0  0
   23.3031   -8.3091  -17.9144 O   0  0  0  0  0  0  0  0  0  0  0  0
   21.4510   -4.0253  -16.0966 N   0  0  0  0  0  0  0  0  0  0  0  0
   21.5597   -4.6101  -14.8160 C   0  0  0  0  0  0  0  0  0  0  0  0
   21.0548   -4.0293  -13.8356 O   0  0  0  0  0  0  0  0  0  0  0  0
   22.2601   -5.8936  -14.6269 C   0  0  0  0  0  0  0  0  0  0  0  0
   22.8717   -6.4433  -15.8662 C   0  0  2  0  0  0  0  0  0  0  0  0
   23.5192   -7.7157  -15.7261 N   0  0  0  0  0  0  0  0  0  0  0  0
   23.8688   -5.4595  -16.3637 C   0  0  0  0  0  0  0  0  0  0  0  0
   25.0494   -5.4428  -15.9296 O   0  0  0  0  0  0  0  0  0  0  0  0
   23.5371   -4.5182  -17.3287 O   0  0  0  0  0  0  0  0  0  0  0  0
  2  1  1  0
  3  2  1  0
  4  3  2  0
  5  3  1  0
  6 13  1  0
  6  5  1  0
  6  7  1  6
  8 12  1  0
  8  7  1  0
  9  8  2  0
 10  9  1  0
 10 11  1  0
 11 12  2  0
 13 20  1  0
 14 13  2  0
 16 15  1  0
 17 16  2  0
 18 16  1  0
 19 21  1  0
 19 18  1  1
 20 19  1  0
 21 23  1  0
 22 21  2  0
M  END
$$$$
