GHN.pdb
     RDKit          3D

 23 23  0  0  1  0  0  0  0  0999 V2000
   21.3462  -18.2106  -15.9262 N   0  0  0  0  0  0  0  0  0  0  0  0
   21.0606  -16.8909  -16.3937 C   0  0  0  0  0  0  0  0  0  0  0  0
   21.8013  -15.8414  -15.6616 C   0  0  0  0  0  0  0  0  0  0  0  0
   21.7569  -15.8121  -14.4051 O   0  0  0  0  0  0  0  0  0  0  0  0
   22.5802  -14.8358  -16.2734 N   0  0  0  0  0  0  0  0  0  0  0  0
   23.2639  -13.7917  -15.5684 C   0  0  1  0  0  0  0  0  0  0  0  0
   24.7152  -13.7112  -15.7536 C   0  0  0  0  0  0  0  0  0  0  0  0
   25.5086  -14.9356  -15.6511 C   0  0  0  0  0  0  0  0  0  0  0  0
   25.2259  -16.2430  -15.4233 C   0  0  0  0  0  0  0  0  0  0  0  0
   26.3667  -16.9715  -15.4560 N   0  0  0  0  0  0  0  0  0  0  0  0
   27.3558  -16.0994  -15.7069 C   0  0  0  0  0  0  0  0  0  0  0  0
   26.8693  -14.8693  -15.8288 N   0  0  0  0  0  0  0  0  0  0  0  0
   22.5687  -12.4792  -15.7119 C   0  0  0  0  0  0  0  0  0  0  0  0
   21.8297  -12.2506  -16.6990 O   0  0  0  0  0  0  0  0  0  0  0  0
   20.6048   -7.7594  -14.7739 N   0  0  0  0  0  0  0  0  0  0  0  0
   21.4830   -8.0289  -13.7016 C   0  0  0  0  0  0  0  0  0  0  0  0
   21.6325   -7.1747  -12.8064 O   0  0  0  0  0  0  0  0  0  0  0  0
   22.2212   -9.3031  -13.6296 C   0  0  0  0  0  0  0  0  0  0  0  0
   22.0282  -10.1876  -14.8097 C   0  0  2  0  0  0  0  0  0  0  0  0
   22.7085  -11.4494  -14.7564 N   0  0  0  0  0  0  0  0  0  0  0  0
   22.4909   -9.4535  -16.0166 C   0  0  0  0  0  0  0  0  0  0  0  0
   21.6893   -8.8128  -16.7443 O   0  0  0  0  0  0  0  0  0  0  0  0
   23.8279   -9.4452  -16.3900 O   0  0  0  0  0  0  0  0  0  0  0  0
  2  1  1  0
  3  2  1  0
  4  3  2  0
  5  3  1  0
  6 13  1  0
  6  5  1  0
  6  7  1  6
  8 12  1  0
  8  7  1  0
  9  8  2  0
 10  9  1  0
 10 11  1  0
 11 12  2  0
 13 20  1  0
 14 13  2  0
 16 15  1  0
 17 16  2  0
 18 16  1  0
 19 21  1  0
 19 18  1  1
 20 19  1  0
 21 23  1  0
 22 21  2  0
M  END
$$$$
