GHN.pdb
     RDKit          3D

 23 23  0  0  1  0  0  0  0  0999 V2000
   24.8170  -32.9426  -18.3204 N   0  0  0  0  0  0  0  0  0  0  0  0
   23.5359  -32.8593  -17.6931 C   0  0  0  0  0  0  0  0  0  0  0  0
   23.5345  -32.0087  -16.4837 C   0  0  0  0  0  0  0  0  0  0  0  0
   24.6001  -31.4513  -16.1157 O   0  0  0  0  0  0  0  0  0  0  0  0
   22.4011  -31.7608  -15.6800 N   0  0  0  0  0  0  0  0  0  0  0  0
   22.3953  -30.9296  -14.5122 C   0  0  1  0  0  0  0  0  0  0  0  0
   21.5979  -29.7021  -14.5800 C   0  0  0  0  0  0  0  0  0  0  0  0
   21.8549  -28.7525  -15.6623 C   0  0  0  0  0  0  0  0  0  0  0  0
   21.8098  -28.8105  -17.0172 C   0  0  0  0  0  0  0  0  0  0  0  0
   22.1301  -27.6028  -17.5389 N   0  0  0  0  0  0  0  0  0  0  0  0
   22.3727  -26.7994  -16.4912 C   0  0  0  0  0  0  0  0  0  0  0  0
   22.2147  -27.4636  -15.3516 N   0  0  0  0  0  0  0  0  0  0  0  0
   22.1681  -31.7228  -13.2689 C   0  0  0  0  0  0  0  0  0  0  0  0
   21.5288  -32.8010  -13.3052 O   0  0  0  0  0  0  0  0  0  0  0  0
   23.4274  -34.1635   -9.1942 N   0  0  0  0  0  0  0  0  0  0  0  0
   23.8855  -32.8622   -8.8937 C   0  0  0  0  0  0  0  0  0  0  0  0
   24.6412  -32.6921   -7.9172 O   0  0  0  0  0  0  0  0  0  0  0  0
   23.4819  -31.7083   -9.7179 C   0  0  0  0  0  0  0  0  0  0  0  0
   22.5044  -32.0363  -10.7899 C   0  0  2  0  0  0  0  0  0  0  0  0
   22.6561  -31.3021  -12.0128 N   0  0  0  0  0  0  0  0  0  0  0  0
   21.1380  -31.7899  -10.2588 C   0  0  0  0  0  0  0  0  0  0  0  0
   20.4327  -30.8353  -10.6756 O   0  0  0  0  0  0  0  0  0  0  0  0
   20.5844  -32.6042   -9.2803 O   0  0  0  0  0  0  0  0  0  0  0  0
  2  1  1  0
  3  2  1  0
  4  3  2  0
  5  3  1  0
  6 13  1  0
  6  5  1  0
  6  7  1  6
  8 12  1  0
  8  7  1  0
  9  8  2  0
 10  9  1  0
 10 11  1  0
 11 12  2  0
 13 20  1  0
 14 13  2  0
 16 15  1  0
 17 16  2  0
 18 16  1  0
 19 21  1  0
 19 18  1  1
 20 19  1  0
 21 23  1  0
 22 21  2  0
M  END
$$$$
