GHN.pdb
     RDKit          3D

 23 23  0  0  1  0  0  0  0  0999 V2000
   23.9858  -13.8983  -18.0694 N   0  0  0  0  0  0  0  0  0  0  0  0
   23.5935  -12.6331  -18.6052 C   0  0  0  0  0  0  0  0  0  0  0  0
   23.6476  -11.5389  -17.6124 C   0  0  0  0  0  0  0  0  0  0  0  0
   23.5586  -11.8076  -16.3870 O   0  0  0  0  0  0  0  0  0  0  0  0
   23.7954  -10.1724  -17.9334 N   0  0  0  0  0  0  0  0  0  0  0  0
   23.7813   -9.1039  -16.9780 C   0  0  1  0  0  0  0  0  0  0  0  0
   25.0688   -8.4740  -16.6736 C   0  0  0  0  0  0  0  0  0  0  0  0
   26.2251   -9.3273  -16.4017 C   0  0  0  0  0  0  0  0  0  0  0  0
   27.2049   -9.8814  -17.1594 C   0  0  0  0  0  0  0  0  0  0  0  0
   28.0547  -10.5806  -16.3706 N   0  0  0  0  0  0  0  0  0  0  0  0
   27.5887  -10.4514  -15.1184 C   0  0  0  0  0  0  0  0  0  0  0  0
   26.4908   -9.7036  -15.1074 N   0  0  0  0  0  0  0  0  0  0  0  0
   22.6880   -8.1271  -17.2557 C   0  0  0  0  0  0  0  0  0  0  0  0
   22.3329   -7.8812  -18.4329 O   0  0  0  0  0  0  0  0  0  0  0  0
   18.7746   -4.7434  -16.7311 N   0  0  0  0  0  0  0  0  0  0  0  0
   19.0427   -5.2365  -15.4355 C   0  0  0  0  0  0  0  0  0  0  0  0
   18.3417   -4.8516  -14.4794 O   0  0  0  0  0  0  0  0  0  0  0  0
   20.1369   -6.1966  -15.2022 C   0  0  0  0  0  0  0  0  0  0  0  0
   20.9254   -6.5304  -16.4184 C   0  0  2  0  0  0  0  0  0  0  0  0
   22.0125   -7.4452  -16.2204 N   0  0  0  0  0  0  0  0  0  0  0  0
   21.4701   -5.2649  -16.9762 C   0  0  0  0  0  0  0  0  0  0  0  0
   20.7292   -4.4276  -17.5529 O   0  0  0  0  0  0  0  0  0  0  0  0
   22.8202   -4.9552  -16.8833 O   0  0  0  0  0  0  0  0  0  0  0  0
  2  1  1  0
  3  2  1  0
  4  3  2  0
  5  3  1  0
  6 13  1  0
  6  5  1  0
  6  7  1  6
  8 12  1  0
  8  7  1  0
  9  8  2  0
 10  9  1  0
 10 11  1  0
 11 12  2  0
 13 20  1  0
 14 13  2  0
 16 15  1  0
 17 16  2  0
 18 16  1  0
 19 21  1  0
 19 18  1  1
 20 19  1  0
 21 23  1  0
 22 21  2  0
M  END
$$$$
