GHN.pdb
     RDKit          3D

 23 23  0  0  1  0  0  0  0  0999 V2000
   24.0318  -12.6227  -20.4686 N   0  0  0  0  0  0  0  0  0  0  0  0
   22.8568  -11.9757  -19.9761 C   0  0  0  0  0  0  0  0  0  0  0  0
   23.0557  -11.3314  -18.6603 C   0  0  0  0  0  0  0  0  0  0  0  0
   22.4767  -11.7987  -17.6465 O   0  0  0  0  0  0  0  0  0  0  0  0
   23.8673  -10.1983  -18.4377 N   0  0  0  0  0  0  0  0  0  0  0  0
   24.0605   -9.5710  -17.1634 C   0  0  1  0  0  0  0  0  0  0  0  0
   25.4292   -9.5467  -16.6407 C   0  0  0  0  0  0  0  0  0  0  0  0
   26.1273  -10.8148  -16.4314 C   0  0  0  0  0  0  0  0  0  0  0  0
   25.7932  -12.1237  -16.5593 C   0  0  0  0  0  0  0  0  0  0  0  0
   26.8571  -12.9012  -16.2482 N   0  0  0  0  0  0  0  0  0  0  0  0
   27.8509  -12.0577  -15.9276 C   0  0  0  0  0  0  0  0  0  0  0  0
   27.4407  -10.7983  -16.0291 N   0  0  0  0  0  0  0  0  0  0  0  0
   23.3662   -8.2526  -17.0842 C   0  0  0  0  0  0  0  0  0  0  0  0
   23.3061   -7.4995  -18.0850 O   0  0  0  0  0  0  0  0  0  0  0  0
   20.2618   -4.3752  -15.5563 N   0  0  0  0  0  0  0  0  0  0  0  0
   19.8959   -5.3870  -16.4707 C   0  0  0  0  0  0  0  0  0  0  0  0
   18.8738   -5.2379  -17.1683 O   0  0  0  0  0  0  0  0  0  0  0  0
   20.7052   -6.6116  -16.6088 C   0  0  0  0  0  0  0  0  0  0  0  0
   21.9481   -6.6168  -15.7917 C   0  0  2  0  0  0  0  0  0  0  0  0
   22.7533   -7.7995  -15.8959 N   0  0  0  0  0  0  0  0  0  0  0  0
   21.5642   -6.4321  -14.3676 C   0  0  0  0  0  0  0  0  0  0  0  0
   21.4912   -7.4059  -13.5745 O   0  0  0  0  0  0  0  0  0  0  0  0
   21.2704   -5.1761  -13.8545 O   0  0  0  0  0  0  0  0  0  0  0  0
  2  1  1  0
  3  2  1  0
  4  3  2  0
  5  3  1  0
  6 13  1  0
  6  5  1  0
  6  7  1  6
  8 12  1  0
  8  7  1  0
  9  8  2  0
 10  9  1  0
 10 11  1  0
 11 12  2  0
 13 20  1  0
 14 13  2  0
 16 15  1  0
 17 16  2  0
 18 16  1  0
 19 21  1  0
 19 18  1  6
 20 19  1  0
 21 23  1  0
 22 21  2  0
M  END
$$$$
