GHN.pdb
     RDKit          3D

 23 23  0  0  1  0  0  0  0  0999 V2000
   23.1994  -11.4639  -20.1084 N   0  0  0  0  0  0  0  0  0  0  0  0
   22.2165  -11.3382  -19.0789 C   0  0  0  0  0  0  0  0  0  0  0  0
   22.7372  -10.6973  -17.8525 C   0  0  0  0  0  0  0  0  0  0  0  0
   22.1461  -10.8802  -16.7576 O   0  0  0  0  0  0  0  0  0  0  0  0
   23.8796   -9.8698  -17.8043 N   0  0  0  0  0  0  0  0  0  0  0  0
   24.3358   -9.1765  -16.6356 C   0  0  1  0  0  0  0  0  0  0  0  0
   25.7583   -9.3019  -16.3072 C   0  0  0  0  0  0  0  0  0  0  0  0
   26.3247  -10.6376  -16.1221 C   0  0  0  0  0  0  0  0  0  0  0  0
   25.8243  -11.8988  -16.1297 C   0  0  0  0  0  0  0  0  0  0  0  0
   26.8224  -12.7895  -15.9205 N   0  0  0  0  0  0  0  0  0  0  0  0
   27.9435  -12.0641  -15.7842 C   0  0  0  0  0  0  0  0  0  0  0  0
   27.6743  -10.7685  -15.9009 N   0  0  0  0  0  0  0  0  0  0  0  0
   23.8335   -7.7720  -16.5934 C   0  0  0  0  0  0  0  0  0  0  0  0
   24.2609   -6.9146  -17.4025 O   0  0  0  0  0  0  0  0  0  0  0  0
   21.0758   -3.4995  -15.6083 N   0  0  0  0  0  0  0  0  0  0  0  0
   20.4822   -4.5089  -16.3974 C   0  0  0  0  0  0  0  0  0  0  0  0
   19.4577   -4.2445  -17.0562 O   0  0  0  0  0  0  0  0  0  0  0  0
   21.0580   -5.8651  -16.4505 C   0  0  0  0  0  0  0  0  0  0  0  0
   22.2785   -6.0427  -15.6193 C   0  0  2  0  0  0  0  0  0  0  0  0
   22.8674   -7.3504  -15.6544 N   0  0  0  0  0  0  0  0  0  0  0  0
   21.9278   -5.7216  -14.2109 C   0  0  0  0  0  0  0  0  0  0  0  0
   21.5512   -4.5697  -13.8732 O   0  0  0  0  0  0  0  0  0  0  0  0
   22.0017   -6.6808  -13.2101 O   0  0  0  0  0  0  0  0  0  0  0  0
  2  1  1  0
  3  2  1  0
  4  3  2  0
  5  3  1  0
  6 13  1  0
  6  5  1  0
  6  7  1  6
  8 12  1  0
  8  7  1  0
  9  8  2  0
 10  9  1  0
 10 11  1  0
 11 12  2  0
 13 20  1  0
 14 13  2  0
 16 15  1  0
 17 16  2  0
 18 16  1  0
 19 21  1  0
 19 18  1  6
 20 19  1  0
 21 23  1  0
 22 21  2  0
M  END
$$$$
