GHN.pdb
     RDKit          3D

 23 23  0  0  1  0  0  0  0  0999 V2000
   20.1667  -10.9474  -15.0498 N   0  0  0  0  0  0  0  0  0  0  0  0
   21.3048  -10.6319  -14.2454 C   0  0  0  0  0  0  0  0  0  0  0  0
   22.1925   -9.6239  -14.8634 C   0  0  0  0  0  0  0  0  0  0  0  0
   22.4300   -8.5493  -14.2547 O   0  0  0  0  0  0  0  0  0  0  0  0
   22.8172   -9.7698  -16.1207 N   0  0  0  0  0  0  0  0  0  0  0  0
   23.7226   -8.8196  -16.6967 C   0  0  1  0  0  0  0  0  0  0  0  0
   24.8826   -9.3617  -17.4093 C   0  0  0  0  0  0  0  0  0  0  0  0
   25.7703  -10.2896  -16.7093 C   0  0  0  0  0  0  0  0  0  0  0  0
   25.8419  -11.6394  -16.5899 C   0  0  0  0  0  0  0  0  0  0  0  0
   26.9036  -11.9760  -15.8199 N   0  0  0  0  0  0  0  0  0  0  0  0
   27.4860  -10.8195  -15.4663 C   0  0  0  0  0  0  0  0  0  0  0  0
   26.8265   -9.7903  -15.9865 N   0  0  0  0  0  0  0  0  0  0  0  0
   23.0008   -7.7540  -17.4518 C   0  0  0  0  0  0  0  0  0  0  0  0
   22.0144   -8.0365  -18.1727 O   0  0  0  0  0  0  0  0  0  0  0  0
   21.3886   -3.1507  -19.2594 N   0  0  0  0  0  0  0  0  0  0  0  0
   21.2622   -3.3052  -17.8616 C   0  0  0  0  0  0  0  0  0  0  0  0
   20.5543   -2.5039  -17.2210 O   0  0  0  0  0  0  0  0  0  0  0  0
   21.9547   -4.3983  -17.1549 C   0  0  0  0  0  0  0  0  0  0  0  0
   22.7061   -5.3216  -18.0467 C   0  0  2  0  0  0  0  0  0  0  0  0
   23.3895   -6.3983  -17.3897 N   0  0  0  0  0  0  0  0  0  0  0  0
   23.7047   -4.5213  -18.8027 C   0  0  0  0  0  0  0  0  0  0  0  0
   24.9406   -4.7109  -18.6640 O   0  0  0  0  0  0  0  0  0  0  0  0
   23.3136   -3.5311  -19.6936 O   0  0  0  0  0  0  0  0  0  0  0  0
  2  1  1  0
  3  2  1  0
  4  3  2  0
  5  3  1  0
  6 13  1  0
  6  5  1  0
  6  7  1  6
  8 12  1  0
  8  7  1  0
  9  8  2  0
 10  9  1  0
 10 11  1  0
 11 12  2  0
 13 20  1  0
 14 13  2  0
 16 15  1  0
 17 16  2  0
 18 16  1  0
 19 21  1  0
 19 18  1  1
 20 19  1  0
 21 23  1  0
 22 21  2  0
M  END
$$$$
