GHN.pdb
     RDKit          3D

 23 23  0  0  1  0  0  0  0  0999 V2000
   46.4328  -10.8111   -5.7942 N   0  0  0  0  0  0  0  0  0  0  0  0
   45.2997  -10.3243   -5.0726 C   0  0  0  0  0  0  0  0  0  0  0  0
   44.1294  -10.0601   -5.9366 C   0  0  0  0  0  0  0  0  0  0  0  0
   44.3063   -9.7141   -7.1327 O   0  0  0  0  0  0  0  0  0  0  0  0
   42.7852  -10.1667   -5.5194 N   0  0  0  0  0  0  0  0  0  0  0  0
   41.6499   -9.8668   -6.3412 C   0  0  1  0  0  0  0  0  0  0  0  0
   40.4086  -10.5847   -6.0392 C   0  0  0  0  0  0  0  0  0  0  0  0
   39.2550  -10.4005   -6.9191 C   0  0  0  0  0  0  0  0  0  0  0  0
   39.0441   -9.7688   -8.1013 C   0  0  0  0  0  0  0  0  0  0  0  0
   37.7580   -9.9385   -8.4890 N   0  0  0  0  0  0  0  0  0  0  0  0
   37.1782  -10.6819   -7.5336 C   0  0  0  0  0  0  0  0  0  0  0  0
   38.0540  -10.9741   -6.5784 N   0  0  0  0  0  0  0  0  0  0  0  0
   41.4639   -8.3963   -6.5136 C   0  0  0  0  0  0  0  0  0  0  0  0
   41.6470   -7.6109   -5.5533 O   0  0  0  0  0  0  0  0  0  0  0  0
   42.4903   -3.6901   -9.6897 N   0  0  0  0  0  0  0  0  0  0  0  0
   41.3841   -4.5658   -9.6334 C   0  0  0  0  0  0  0  0  0  0  0  0
   40.2397   -4.1167   -9.8387 O   0  0  0  0  0  0  0  0  0  0  0  0
   41.5668   -5.9983   -9.3360 C   0  0  0  0  0  0  0  0  0  0  0  0
   41.0219   -6.4223   -8.0186 C   0  0  2  0  0  0  0  0  0  0  0  0
   41.0793   -7.8299   -7.7482 N   0  0  0  0  0  0  0  0  0  0  0  0
   39.6028   -5.9858   -7.9448 C   0  0  0  0  0  0  0  0  0  0  0  0
   38.6651   -6.7287   -8.3338 O   0  0  0  0  0  0  0  0  0  0  0  0
   39.2545   -4.7392   -7.4430 O   0  0  0  0  0  0  0  0  0  0  0  0
  2  1  1  0
  3  2  1  0
  4  3  2  0
  5  3  1  0
  6 13  1  0
  6  5  1  0
  6  7  1  1
  8 12  1  0
  8  7  1  0
  9  8  2  0
 10  9  1  0
 10 11  1  0
 11 12  2  0
 13 20  1  0
 14 13  2  0
 16 15  1  0
 17 16  2  0
 18 16  1  0
 19 21  1  0
 19 18  1  6
 20 19  1  0
 21 23  1  0
 22 21  2  0
M  END
$$$$
