LLR.pdb
     RDKit          3D

 28 27  0  0  1  0  0  0  0  0999 V2000
    7.3398  -20.2373   21.1466 C   0  0  0  0  0  0  0  0  0  0  0  0
    7.7585  -18.8626   20.6681 C   0  0  1  0  0  0  0  0  0  0  0  0
    6.8406  -18.5335   19.4870 C   0  0  0  0  0  0  0  0  0  0  0  0
    7.5407  -17.8757   21.7954 C   0  0  0  0  0  0  0  0  0  0  0  0
    7.8131  -16.4498   21.3299 C   0  0  2  0  0  0  0  0  0  0  0  0
    8.8214  -16.4445   20.3190 N   0  0  0  0  0  0  0  0  0  0  0  0
    8.1477  -15.6671   22.5419 C   0  0  0  0  0  0  0  0  0  0  0  0
    9.3655  -15.6105   22.8718 O   0  0  0  0  0  0  0  0  0  0  0  0
    8.0458  -11.5318   26.0176 C   0  0  0  0  0  0  0  0  0  0  0  0
    6.8752  -12.5041   26.2367 C   0  0  1  0  0  0  0  0  0  0  0  0
    5.7094  -11.7686   26.8418 C   0  0  0  0  0  0  0  0  0  0  0  0
    6.5606  -13.2228   24.9658 C   0  0  0  0  0  0  0  0  0  0  0  0
    7.5832  -14.2510   24.5531 C   0  0  2  0  0  0  0  0  0  0  0  0
    7.2155  -14.9793   23.3580 N   0  0  0  0  0  0  0  0  0  0  0  0
    7.7996  -15.1649   25.7088 C   0  0  0  0  0  0  0  0  0  0  0  0
    6.8420  -15.2452   26.5348 O   0  0  0  0  0  0  0  0  0  0  0  0
    6.1103  -21.6263   27.9209 N   0  0  0  0  0  0  0  0  0  0  0  0
    7.4763  -22.0104   27.7929 C   0  0  0  0  0  0  0  0  0  0  0  0
    7.9926  -22.7536   28.6977 N   0  0  0  0  0  0  0  0  0  0  0  0
    8.2858  -21.6034   26.7081 N   0  0  0  0  0  0  0  0  0  0  0  0
    7.7345  -20.6711   25.6564 C   0  0  0  0  0  0  0  0  0  0  0  0
    7.5615  -19.3917   26.3668 C   0  0  0  0  0  0  0  0  0  0  0  0
    7.9929  -18.1085   25.8680 C   0  0  0  0  0  0  0  0  0  0  0  0
    8.9386  -17.2529   26.5995 C   0  0  2  0  0  0  0  0  0  0  0  0
    8.9451  -15.9081   25.9290 N   0  0  0  0  0  0  0  0  0  0  0  0
   10.3464  -17.6496   26.5459 C   0  0  0  0  0  0  0  0  0  0  0  0
   11.1429  -17.5611   27.6966 O   0  0  0  0  0  0  0  0  0  0  0  0
   10.9054  -18.0688   25.5357 O   0  0  0  0  0  0  0  0  0  0  0  0
  2  4  1  0
  2  1  1  1
  2  3  1  0
  5  4  1  0
  5  6  1  6
  7  5  1  0
  8  7  2  0
 10  9  1  6
 10 11  1  0
 13 12  1  1
 12 10  1  0
 13 14  1  0
 14  7  1  0
 15 13  1  0
 15 16  2  0
 18 17  1  0
 18 20  1  0
 19 18  2  0
 20 21  1  0
 21 22  1  0
 22 23  1  0
 24 23  1  6
 24 25  1  0
 24 26  1  0
 25 15  1  0
 26 28  2  0
 26 27  1  0
M  END
$$$$
