LLR.pdb
     RDKit          3D

 28 27  0  0  1  0  0  0  0  0999 V2000
    9.8975  -14.1467   30.4520 C   0  0  0  0  0  0  0  0  0  0  0  0
   10.4535  -15.0480   29.3691 C   0  0  1  0  0  0  0  0  0  0  0  0
   11.4863  -15.9435   30.0599 C   0  0  0  0  0  0  0  0  0  0  0  0
    9.3203  -15.8836   28.8123 C   0  0  0  0  0  0  0  0  0  0  0  0
    9.7339  -16.5630   27.5117 C   0  0  2  0  0  0  0  0  0  0  0  0
   11.0232  -16.1051   27.1037 N   0  0  0  0  0  0  0  0  0  0  0  0
    8.6485  -16.3051   26.5375 C   0  0  0  0  0  0  0  0  0  0  0  0
    7.6062  -17.0112   26.6378 O   0  0  0  0  0  0  0  0  0  0  0  0
    6.8118  -13.8351   26.5573 C   0  0  0  0  0  0  0  0  0  0  0  0
    6.6200  -13.0891   25.2268 C   0  0  1  0  0  0  0  0  0  0  0  0
    7.0535  -11.6557   25.3803 C   0  0  0  0  0  0  0  0  0  0  0  0
    7.3027  -13.8266   24.1219 C   0  0  0  0  0  0  0  0  0  0  0  0
    7.6927  -15.2440   24.4568 C   0  0  2  0  0  0  0  0  0  0  0  0
    8.6849  -15.3339   25.5063 N   0  0  0  0  0  0  0  0  0  0  0  0
    8.1602  -15.8945   23.2014 C   0  0  0  0  0  0  0  0  0  0  0  0
    7.3041  -15.9750   22.2706 O   0  0  0  0  0  0  0  0  0  0  0  0
    8.4229  -11.9426   19.6121 N   0  0  0  0  0  0  0  0  0  0  0  0
    7.9857  -12.8019   18.5631 C   0  0  0  0  0  0  0  0  0  0  0  0
    6.8810  -12.5383   17.9735 N   0  0  0  0  0  0  0  0  0  0  0  0
    8.7213  -13.9350   18.1473 N   0  0  0  0  0  0  0  0  0  0  0  0
    9.9766  -14.3378   18.8827 C   0  0  0  0  0  0  0  0  0  0  0  0
    9.5065  -15.3019   19.8931 C   0  0  0  0  0  0  0  0  0  0  0  0
   10.3600  -16.0049   20.8198 C   0  0  0  0  0  0  0  0  0  0  0  0
    9.8581  -17.0585   21.7140 C   0  0  2  0  0  0  0  0  0  0  0  0
    9.4310  -16.3999   22.9953 N   0  0  0  0  0  0  0  0  0  0  0  0
   10.8393  -18.0455   22.1671 C   0  0  0  0  0  0  0  0  0  0  0  0
   11.0920  -18.2032   23.5374 O   0  0  0  0  0  0  0  0  0  0  0  0
   11.4823  -18.7725   21.4144 O   0  0  0  0  0  0  0  0  0  0  0  0
  2  4  1  0
  2  1  1  1
  2  3  1  0
  5  4  1  0
  5  6  1  6
  7  5  1  0
  8  7  2  0
 10  9  1  1
 10 11  1  0
 13 12  1  6
 12 10  1  0
 13 14  1  0
 14  7  1  0
 15 13  1  0
 15 16  2  0
 18 17  1  0
 18 20  1  0
 19 18  2  0
 20 21  1  0
 21 22  1  0
 22 23  1  0
 24 23  1  6
 24 25  1  0
 24 26  1  0
 25 15  1  0
 26 28  2  0
 26 27  1  0
M  END
$$$$
