LLR.pdb
     RDKit          3D

 28 27  0  0  1  0  0  0  0  0999 V2000
    7.8462  -12.1369   19.0431 C   0  0  0  0  0  0  0  0  0  0  0  0
    7.6283  -13.5454   19.5558 C   0  0  1  0  0  0  0  0  0  0  0  0
    7.1808  -14.3672   18.3433 C   0  0  0  0  0  0  0  0  0  0  0  0
    8.9441  -14.0696   20.0909 C   0  0  0  0  0  0  0  0  0  0  0  0
    8.7164  -15.2333   21.0491 C   0  0  2  0  0  0  0  0  0  0  0  0
    7.4698  -15.8692   20.7662 N   0  0  0  0  0  0  0  0  0  0  0  0
    8.8329  -14.6811   22.4184 C   0  0  0  0  0  0  0  0  0  0  0  0
    9.9915  -14.3782   22.8195 O   0  0  0  0  0  0  0  0  0  0  0  0
    7.8679  -11.6941   26.7322 C   0  0  0  0  0  0  0  0  0  0  0  0
    6.8369  -12.8302   26.6303 C   0  0  1  0  0  0  0  0  0  0  0  0
    5.5410  -12.3994   27.2635 C   0  0  0  0  0  0  0  0  0  0  0  0
    6.7118  -13.2838   25.2128 C   0  0  0  0  0  0  0  0  0  0  0  0
    7.9214  -14.0034   24.6720 C   0  0  2  0  0  0  0  0  0  0  0  0
    7.7537  -14.4658   23.3111 N   0  0  0  0  0  0  0  0  0  0  0  0
    8.2336  -15.1260   25.5993 C   0  0  0  0  0  0  0  0  0  0  0  0
    8.5473  -14.7935   26.7812 O   0  0  0  0  0  0  0  0  0  0  0  0
    8.3661  -21.1194   29.7162 N   0  0  0  0  0  0  0  0  0  0  0  0
    8.2062  -22.1820   28.7806 C   0  0  0  0  0  0  0  0  0  0  0  0
    8.7453  -23.3135   29.0383 N   0  0  0  0  0  0  0  0  0  0  0  0
    7.4775  -22.0377   27.5781 N   0  0  0  0  0  0  0  0  0  0  0  0
    6.8202  -20.7211   27.2411 C   0  0  0  0  0  0  0  0  0  0  0  0
    7.7929  -20.0497   26.3609 C   0  0  0  0  0  0  0  0  0  0  0  0
    7.6239  -18.7301   25.8028 C   0  0  0  0  0  0  0  0  0  0  0  0
    8.4090  -17.5729   26.2567 C   0  0  2  0  0  0  0  0  0  0  0  0
    8.2028  -16.4666   25.2608 N   0  0  0  0  0  0  0  0  0  0  0  0
    9.8632  -17.7384   26.2622 C   0  0  0  0  0  0  0  0  0  0  0  0
   10.5915  -17.5690   25.0759 O   0  0  0  0  0  0  0  0  0  0  0  0
   10.5196  -18.0247   27.2601 O   0  0  0  0  0  0  0  0  0  0  0  0
  2  4  1  0
  2  1  1  6
  2  3  1  0
  5  4  1  0
  5  6  1  1
  7  5  1  0
  8  7  2  0
 10  9  1  6
 10 11  1  0
 13 12  1  1
 12 10  1  0
 13 14  1  0
 14  7  1  0
 15 13  1  0
 15 16  2  0
 18 17  1  0
 18 20  1  0
 19 18  2  0
 20 21  1  0
 21 22  1  0
 22 23  1  0
 24 23  1  6
 24 25  1  0
 24 26  1  0
 25 15  1  0
 26 28  2  0
 26 27  1  0
M  END
$$$$
