LLR.pdb
     RDKit          3D

 28 27  0  0  1  0  0  0  0  0999 V2000
    7.9254  -12.0108   18.4089 C   0  0  0  0  0  0  0  0  0  0  0  0
    7.8619  -13.4280   18.9395 C   0  0  1  0  0  0  0  0  0  0  0  0
    8.1429  -14.3368   17.7392 C   0  0  0  0  0  0  0  0  0  0  0  0
    8.9389  -13.5952   19.9904 C   0  0  0  0  0  0  0  0  0  0  0  0
    8.7039  -14.8564   20.8139 C   0  0  2  0  0  0  0  0  0  0  0  0
    7.4199  -15.4066   20.5190 N   0  0  0  0  0  0  0  0  0  0  0  0
    8.9044  -14.4779   22.2316 C   0  0  0  0  0  0  0  0  0  0  0  0
   10.0892  -14.2471   22.6031 O   0  0  0  0  0  0  0  0  0  0  0  0
    8.2886  -11.8677   26.7509 C   0  0  0  0  0  0  0  0  0  0  0  0
    7.1773  -12.9268   26.6660 C   0  0  1  0  0  0  0  0  0  0  0  0
    5.9475  -12.4319   27.3791 C   0  0  0  0  0  0  0  0  0  0  0  0
    6.9509  -13.3199   25.2430 C   0  0  0  0  0  0  0  0  0  0  0  0
    8.1221  -14.0029   24.5835 C   0  0  2  0  0  0  0  0  0  0  0  0
    7.8783  -14.3541   23.2011 N   0  0  0  0  0  0  0  0  0  0  0  0
    8.4692  -15.1983   25.4011 C   0  0  0  0  0  0  0  0  0  0  0  0
    8.6677  -14.9839   26.6342 O   0  0  0  0  0  0  0  0  0  0  0  0
    9.5027  -24.1800   23.6948 N   0  0  0  0  0  0  0  0  0  0  0  0
    9.8155  -23.8040   25.0330 C   0  0  0  0  0  0  0  0  0  0  0  0
   10.2561  -24.6984   25.8351 N   0  0  0  0  0  0  0  0  0  0  0  0
    9.6579  -22.4836   25.5121 N   0  0  0  0  0  0  0  0  0  0  0  0
    9.0262  -21.4280   24.6370 C   0  0  0  0  0  0  0  0  0  0  0  0
    9.1704  -20.1845   25.4145 C   0  0  0  0  0  0  0  0  0  0  0  0
    8.7530  -18.8791   24.9639 C   0  0  0  0  0  0  0  0  0  0  0  0
    8.9353  -17.6667   25.7753 C   0  0  2  0  0  0  0  0  0  0  0  0
    8.5843  -16.4872   24.9129 N   0  0  0  0  0  0  0  0  0  0  0  0
   10.3054  -17.3670   26.1939 C   0  0  0  0  0  0  0  0  0  0  0  0
   10.6612  -17.4645   27.5468 O   0  0  0  0  0  0  0  0  0  0  0  0
   11.2003  -17.0241   25.4257 O   0  0  0  0  0  0  0  0  0  0  0  0
  2  4  1  0
  2  1  1  6
  2  3  1  0
  5  4  1  0
  5  6  1  1
  7  5  1  0
  8  7  2  0
 10  9  1  6
 10 11  1  0
 13 12  1  1
 12 10  1  0
 13 14  1  0
 14  7  1  0
 15 13  1  0
 15 16  2  0
 18 17  1  0
 18 20  1  0
 19 18  2  0
 20 21  1  0
 21 22  1  0
 22 23  1  0
 24 23  1  6
 24 25  1  0
 24 26  1  0
 25 15  1  0
 26 28  2  0
 26 27  1  0
M  END
$$$$
