LLR.pdb
     RDKit          3D

 28 27  0  0  1  0  0  0  0  0999 V2000
    7.8080  -11.9205   18.5335 C   0  0  0  0  0  0  0  0  0  0  0  0
    7.8549  -13.3606   19.0007 C   0  0  1  0  0  0  0  0  0  0  0  0
    8.8272  -14.0748   18.0572 C   0  0  0  0  0  0  0  0  0  0  0  0
    8.3824  -13.3873   20.4196 C   0  0  0  0  0  0  0  0  0  0  0  0
    8.3881  -14.8086   20.9709 C   0  0  2  0  0  0  0  0  0  0  0  0
    7.1209  -15.4285   20.7513 N   0  0  0  0  0  0  0  0  0  0  0  0
    8.7898  -14.7078   22.3929 C   0  0  0  0  0  0  0  0  0  0  0  0
   10.0186  -14.5423   22.6329 O   0  0  0  0  0  0  0  0  0  0  0  0
    5.2894  -13.0006   26.4194 C   0  0  0  0  0  0  0  0  0  0  0  0
    6.6241  -13.0744   25.6598 C   0  0  1  0  0  0  0  0  0  0  0  0
    7.4990  -11.9149   26.0550 C   0  0  0  0  0  0  0  0  0  0  0  0
    7.2509  -14.4162   25.8532 C   0  0  0  0  0  0  0  0  0  0  0  0
    8.3536  -14.7433   24.8783 C   0  0  2  0  0  0  0  0  0  0  0  0
    7.9102  -14.7817   23.5014 N   0  0  0  0  0  0  0  0  0  0  0  0
    8.9598  -16.0376   25.2967 C   0  0  0  0  0  0  0  0  0  0  0  0
    8.1773  -17.0342   25.3090 O   0  0  0  0  0  0  0  0  0  0  0  0
   11.8668  -16.8298   20.4227 N   0  0  0  0  0  0  0  0  0  0  0  0
   12.9410  -16.1632   21.0798 C   0  0  0  0  0  0  0  0  0  0  0  0
   13.4500  -15.1269   20.5280 N   0  0  0  0  0  0  0  0  0  0  0  0
   13.4692  -16.6002   22.3159 N   0  0  0  0  0  0  0  0  0  0  0  0
   13.1182  -17.9672   22.8515 C   0  0  0  0  0  0  0  0  0  0  0  0
   11.9784  -17.7178   23.7516 C   0  0  0  0  0  0  0  0  0  0  0  0
   12.0383  -17.7783   25.1918 C   0  0  0  0  0  0  0  0  0  0  0  0
   10.8620  -17.5461   26.0427 C   0  0  2  0  0  0  0  0  0  0  0  0
   10.2825  -16.2132   25.6608 N   0  0  0  0  0  0  0  0  0  0  0  0
   11.1190  -17.3904   27.4751 C   0  0  0  0  0  0  0  0  0  0  0  0
   11.3155  -18.5230   28.2782 O   0  0  0  0  0  0  0  0  0  0  0  0
   11.1779  -16.3066   28.0500 O   0  0  0  0  0  0  0  0  0  0  0  0
  2  4  1  0
  2  1  1  6
  2  3  1  0
  5  4  1  0
  5  6  1  1
  7  5  1  0
  8  7  2  0
 10  9  1  1
 10 11  1  0
 13 12  1  1
 12 10  1  0
 13 14  1  0
 14  7  1  0
 15 13  1  0
 15 16  2  0
 18 17  1  0
 18 20  1  0
 19 18  2  0
 20 21  1  0
 21 22  1  0
 22 23  1  0
 24 23  1  6
 24 25  1  0
 24 26  1  0
 25 15  1  0
 26 28  2  0
 26 27  1  0
M  END
$$$$
