LLR.pdb
     RDKit          3D

 28 27  0  0  1  0  0  0  0  0999 V2000
    7.2447  -11.7658   18.7356 C   0  0  0  0  0  0  0  0  0  0  0  0
    7.3943  -13.2040   19.1867 C   0  0  1  0  0  0  0  0  0  0  0  0
    8.2840  -13.8802   18.1394 C   0  0  0  0  0  0  0  0  0  0  0  0
    8.0730  -13.2138   20.5400 C   0  0  0  0  0  0  0  0  0  0  0  0
    8.1896  -14.6348   21.0795 C   0  0  2  0  0  0  0  0  0  0  0  0
    6.9348  -15.3077   20.9736 N   0  0  0  0  0  0  0  0  0  0  0  0
    8.7162  -14.5204   22.4590 C   0  0  0  0  0  0  0  0  0  0  0  0
    9.9181  -14.1542   22.5871 O   0  0  0  0  0  0  0  0  0  0  0  0
    6.0201  -12.5721   26.8121 C   0  0  0  0  0  0  0  0  0  0  0  0
    7.1644  -12.8852   25.8342 C   0  0  1  0  0  0  0  0  0  0  0  0
    8.2374  -11.8361   25.9542 C   0  0  0  0  0  0  0  0  0  0  0  0
    7.6433  -14.2854   26.0361 C   0  0  0  0  0  0  0  0  0  0  0  0
    8.5726  -14.7948   24.9636 C   0  0  2  0  0  0  0  0  0  0  0  0
    7.9833  -14.7874   23.6421 N   0  0  0  0  0  0  0  0  0  0  0  0
    9.0172  -16.1598   25.3595 C   0  0  0  0  0  0  0  0  0  0  0  0
    8.1037  -17.0339   25.4448 O   0  0  0  0  0  0  0  0  0  0  0  0
   14.5554  -14.9209   21.2235 N   0  0  0  0  0  0  0  0  0  0  0  0
   13.2717  -15.4821   20.9645 C   0  0  0  0  0  0  0  0  0  0  0  0
   12.5923  -15.0317   19.9781 N   0  0  0  0  0  0  0  0  0  0  0  0
   12.7165  -16.5153   21.7532 N   0  0  0  0  0  0  0  0  0  0  0  0
   12.8655  -16.4884   23.2552 C   0  0  0  0  0  0  0  0  0  0  0  0
   12.1921  -17.7198   23.7044 C   0  0  0  0  0  0  0  0  0  0  0  0
   12.0314  -18.1141   25.0828 C   0  0  0  0  0  0  0  0  0  0  0  0
   10.7652  -17.9461   25.8110 C   0  0  2  0  0  0  0  0  0  0  0  0
   10.3245  -16.5209   25.6307 N   0  0  0  0  0  0  0  0  0  0  0  0
   10.8316  -18.0842   27.2665 C   0  0  0  0  0  0  0  0  0  0  0  0
   11.0698  -19.3415   27.8403 O   0  0  0  0  0  0  0  0  0  0  0  0
   10.6894  -17.1520   28.0535 O   0  0  0  0  0  0  0  0  0  0  0  0
  2  4  1  0
  2  1  1  6
  2  3  1  0
  5  4  1  0
  5  6  1  1
  7  5  1  0
  8  7  2  0
 10  9  1  1
 10 11  1  0
 13 12  1  1
 12 10  1  0
 13 14  1  0
 14  7  1  0
 15 13  1  0
 15 16  2  0
 18 17  1  0
 18 20  1  0
 19 18  2  0
 20 21  1  0
 21 22  1  0
 22 23  1  0
 24 23  1  6
 24 25  1  0
 24 26  1  0
 25 15  1  0
 26 28  2  0
 26 27  1  0
M  END
$$$$
