LLR.pdb
     RDKit          3D

 28 27  0  0  1  0  0  0  0  0999 V2000
    5.9217  -12.0225   26.2707 C   0  0  0  0  0  0  0  0  0  0  0  0
    7.0976  -12.9255   25.9610 C   0  0  1  0  0  0  0  0  0  0  0  0
    8.0349  -12.8200   27.1676 C   0  0  0  0  0  0  0  0  0  0  0  0
    6.5873  -14.3432   25.8128 C   0  0  0  0  0  0  0  0  0  0  0  0
    7.7051  -15.2798   25.3685 C   0  0  2  0  0  0  0  0  0  0  0  0
    8.9759  -14.7371   25.7276 N   0  0  0  0  0  0  0  0  0  0  0  0
    7.5156  -15.5038   23.9168 C   0  0  0  0  0  0  0  0  0  0  0  0
    6.4478  -16.0748   23.5578 O   0  0  0  0  0  0  0  0  0  0  0  0
    8.2990  -12.0323   19.8186 C   0  0  0  0  0  0  0  0  0  0  0  0
    7.7594  -13.1649   20.7074 C   0  0  1  0  0  0  0  0  0  0  0  0
    6.2972  -13.3819   20.4230 C   0  0  0  0  0  0  0  0  0  0  0  0
    8.6069  -14.3852   20.5544 C   0  0  0  0  0  0  0  0  0  0  0  0
    8.2812  -15.5032   21.5121 C   0  0  2  0  0  0  0  0  0  0  0  0
    8.4318  -15.1307   22.9022 N   0  0  0  0  0  0  0  0  0  0  0  0
    9.1398  -16.6676   21.1590 C   0  0  0  0  0  0  0  0  0  0  0  0
    8.8698  -17.2384   20.0604 O   0  0  0  0  0  0  0  0  0  0  0  0
   12.1183  -15.8552   15.6133 N   0  0  0  0  0  0  0  0  0  0  0  0
   11.0718  -16.8159   15.7212 C   0  0  0  0  0  0  0  0  0  0  0  0
   10.1522  -16.8249   14.8315 N   0  0  0  0  0  0  0  0  0  0  0  0
   11.0064  -17.7593   16.7717 N   0  0  0  0  0  0  0  0  0  0  0  0
   12.0865  -17.7992   17.8257 C   0  0  0  0  0  0  0  0  0  0  0  0
   11.3634  -17.5686   19.0889 C   0  0  0  0  0  0  0  0  0  0  0  0
   11.8941  -17.8409   20.4025 C   0  0  0  0  0  0  0  0  0  0  0  0
   11.0516  -18.3010   21.5161 C   0  0  2  0  0  0  0  0  0  0  0  0
   10.1811  -17.1487   21.9317 N   0  0  0  0  0  0  0  0  0  0  0  0
   11.7483  -18.6459   22.7562 C   0  0  0  0  0  0  0  0  0  0  0  0
   12.3467  -17.6384   23.5264 O   0  0  0  0  0  0  0  0  0  0  0  0
   11.8542  -19.7898   23.1908 O   0  0  0  0  0  0  0  0  0  0  0  0
  2  4  1  0
  2  1  1  1
  2  3  1  0
  5  4  1  0
  5  6  1  6
  7  5  1  0
  8  7  2  0
 10  9  1  6
 10 11  1  0
 13 12  1  6
 12 10  1  0
 13 14  1  0
 14  7  1  0
 15 13  1  0
 15 16  2  0
 18 17  1  0
 18 20  1  0
 19 18  2  0
 20 21  1  0
 21 22  1  0
 22 23  1  0
 24 23  1  6
 24 25  1  0
 24 26  1  0
 25 15  1  0
 26 28  2  0
 26 27  1  0
M  END
$$$$
