LLR.pdb
     RDKit          3D

 28 27  0  0  1  0  0  0  0  0999 V2000
    7.4117  -12.2388   19.0121 C   0  0  0  0  0  0  0  0  0  0  0  0
    7.6357  -13.6296   19.5687 C   0  0  1  0  0  0  0  0  0  0  0  0
    8.5567  -14.3363   18.5697 C   0  0  0  0  0  0  0  0  0  0  0  0
    8.3170  -13.5031   20.9149 C   0  0  0  0  0  0  0  0  0  0  0  0
    8.4253  -14.8611   21.5991 C   0  0  2  0  0  0  0  0  0  0  0  0
    7.2071  -15.5898   21.4458 N   0  0  0  0  0  0  0  0  0  0  0  0
    8.8156  -14.5961   23.0030 C   0  0  0  0  0  0  0  0  0  0  0  0
   10.0217  -14.2880   23.2161 O   0  0  0  0  0  0  0  0  0  0  0  0
    5.4435  -12.3345   26.7174 C   0  0  0  0  0  0  0  0  0  0  0  0
    6.7198  -12.6417   25.9170 C   0  0  1  0  0  0  0  0  0  0  0  0
    7.6445  -11.4546   25.9588 C   0  0  0  0  0  0  0  0  0  0  0  0
    7.3303  -13.9183   26.3950 C   0  0  0  0  0  0  0  0  0  0  0  0
    8.3921  -14.4875   25.4885 C   0  0  2  0  0  0  0  0  0  0  0  0
    7.9485  -14.6600   24.1220 N   0  0  0  0  0  0  0  0  0  0  0  0
    8.8544  -15.7725   26.0826 C   0  0  0  0  0  0  0  0  0  0  0  0
    8.7929  -15.8493   27.3459 O   0  0  0  0  0  0  0  0  0  0  0  0
    5.8482  -21.6251   27.8774 N   0  0  0  0  0  0  0  0  0  0  0  0
    6.9521  -22.5125   28.0321 C   0  0  0  0  0  0  0  0  0  0  0  0
    6.7187  -23.7586   28.2057 N   0  0  0  0  0  0  0  0  0  0  0  0
    8.2952  -22.0732   28.0030 N   0  0  0  0  0  0  0  0  0  0  0  0
    8.6118  -20.6077   27.8263 C   0  0  0  0  0  0  0  0  0  0  0  0
    8.4298  -20.3731   26.3830 C   0  0  0  0  0  0  0  0  0  0  0  0
    8.5473  -19.0886   25.7366 C   0  0  0  0  0  0  0  0  0  0  0  0
    9.6714  -18.1755   25.9904 C   0  0  2  0  0  0  0  0  0  0  0  0
    9.3314  -16.8530   25.3629 N   0  0  0  0  0  0  0  0  0  0  0  0
   10.9430  -18.5204   25.3529 C   0  0  0  0  0  0  0  0  0  0  0  0
   11.9521  -19.1473   26.0980 O   0  0  0  0  0  0  0  0  0  0  0  0
   11.2054  -18.2954   24.1743 O   0  0  0  0  0  0  0  0  0  0  0  0
  2  4  1  0
  2  1  1  6
  2  3  1  0
  5  4  1  0
  5  6  1  1
  7  5  1  0
  8  7  2  0
 10  9  1  1
 10 11  1  0
 13 12  1  1
 12 10  1  0
 13 14  1  0
 14  7  1  0
 15 13  1  0
 15 16  2  0
 18 17  1  0
 18 20  1  0
 19 18  2  0
 20 21  1  0
 21 22  1  0
 22 23  1  0
 24 23  1  6
 24 25  1  0
 24 26  1  0
 25 15  1  0
 26 28  2  0
 26 27  1  0
M  END
$$$$
