LLR.pdb
     RDKit          3D

 28 27  0  0  1  0  0  0  0  0999 V2000
    7.2448  -12.2505   28.0052 C   0  0  0  0  0  0  0  0  0  0  0  0
    6.3260  -13.2235   27.2958 C   0  0  1  0  0  0  0  0  0  0  0  0
    5.4147  -12.3682   26.4105 C   0  0  0  0  0  0  0  0  0  0  0  0
    7.1712  -14.1472   26.4446 C   0  0  0  0  0  0  0  0  0  0  0  0
    6.2932  -15.0500   25.5854 C   0  0  2  0  0  0  0  0  0  0  0  0
    5.9158  -16.2151   26.3193 N   0  0  0  0  0  0  0  0  0  0  0  0
    7.0537  -15.3200   24.3435 C   0  0  0  0  0  0  0  0  0  0  0  0
    7.6545  -16.4282   24.2667 O   0  0  0  0  0  0  0  0  0  0  0  0
    8.2289  -14.5985   19.0224 C   0  0  0  0  0  0  0  0  0  0  0  0
    9.0021  -13.6876   19.9900 C   0  0  1  0  0  0  0  0  0  0  0  0
    9.4290  -12.4330   19.2759 C   0  0  0  0  0  0  0  0  0  0  0  0
    8.1979  -13.4523   21.2264 C   0  0  0  0  0  0  0  0  0  0  0  0
    8.0686  -14.6507   22.1320 C   0  0  2  0  0  0  0  0  0  0  0  0
    7.1610  -14.4389   23.2389 N   0  0  0  0  0  0  0  0  0  0  0  0
    9.4343  -15.0130   22.6027 C   0  0  0  0  0  0  0  0  0  0  0  0
    9.9935  -14.1737   23.3699 O   0  0  0  0  0  0  0  0  0  0  0  0
   12.0599  -14.6816   27.1335 N   0  0  0  0  0  0  0  0  0  0  0  0
   11.3605  -15.6558   27.9029 C   0  0  0  0  0  0  0  0  0  0  0  0
   11.1874  -15.4426   29.1527 N   0  0  0  0  0  0  0  0  0  0  0  0
   10.8508  -16.8493   27.3429 N   0  0  0  0  0  0  0  0  0  0  0  0
   11.6706  -17.6312   26.3451 C   0  0  0  0  0  0  0  0  0  0  0  0
   11.6540  -16.7937   25.1327 C   0  0  0  0  0  0  0  0  0  0  0  0
   11.5831  -17.2999   23.7836 C   0  0  0  0  0  0  0  0  0  0  0  0
   11.5506  -16.4171   22.6083 C   0  0  2  0  0  0  0  0  0  0  0  0
   10.1082  -16.1726   22.2650 N   0  0  0  0  0  0  0  0  0  0  0  0
   12.0909  -16.9716   21.3663 C   0  0  0  0  0  0  0  0  0  0  0  0
   13.4369  -16.7623   21.0335 O   0  0  0  0  0  0  0  0  0  0  0  0
   11.4342  -17.6293   20.5632 O   0  0  0  0  0  0  0  0  0  0  0  0
  2  4  1  0
  2  1  1  6
  2  3  1  0
  5  4  1  0
  5  6  1  1
  7  5  1  0
  8  7  2  0
 10  9  1  6
 10 11  1  0
 13 12  1  1
 12 10  1  0
 13 14  1  0
 14  7  1  0
 15 13  1  0
 15 16  2  0
 18 17  1  0
 18 20  1  0
 19 18  2  0
 20 21  1  0
 21 22  1  0
 22 23  1  0
 24 23  1  1
 24 25  1  0
 24 26  1  0
 25 15  1  0
 26 28  2  0
 26 27  1  0
M  END
$$$$
