FYA.pdb
     RDKit          3D

 29 30  0  0  1  0  0  0  0  0999 V2000
   10.1908  -17.3895   19.8853 N   0  0  0  0  0  0  0  0  0  0  0  0
    9.8177  -16.1987   20.6663 C   0  0  1  0  0  0  0  0  0  0  0  0
    8.3607  -15.9649   20.3394 C   0  0  0  0  0  0  0  0  0  0  0  0
    7.7824  -14.7698   20.9552 C   0  0  0  0  0  0  0  0  0  0  0  0
    6.9934  -14.8290   22.0902 C   0  0  0  0  0  0  0  0  0  0  0  0
    6.4669  -13.6783   22.6490 C   0  0  0  0  0  0  0  0  0  0  0  0
    6.7551  -12.4753   22.0373 C   0  0  0  0  0  0  0  0  0  0  0  0
    7.5447  -12.4058   20.8994 C   0  0  0  0  0  0  0  0  0  0  0  0
    8.0639  -13.5420   20.3486 C   0  0  0  0  0  0  0  0  0  0  0  0
    9.9484  -16.4332   22.1050 C   0  0  0  0  0  0  0  0  0  0  0  0
   10.0927  -17.5969   22.5591 O   0  0  0  0  0  0  0  0  0  0  0  0
   10.4542  -15.2454   30.8539 O   0  0  0  0  0  0  0  0  0  0  0  0
   10.2720  -15.0284   29.4778 C   0  0  0  0  0  0  0  0  0  0  0  0
   11.3465  -14.6135   28.7315 C   0  0  0  0  0  0  0  0  0  0  0  0
   11.1959  -14.3909   27.3675 C   0  0  0  0  0  0  0  0  0  0  0  0
    9.9796  -14.5809   26.7492 C   0  0  0  0  0  0  0  0  0  0  0  0
    9.8043  -14.3486   25.3001 C   0  0  0  0  0  0  0  0  0  0  0  0
   10.1306  -15.6081   24.4849 C   0  0  2  0  0  0  0  0  0  0  0  0
    9.9241  -15.3922   23.0870 N   0  0  0  0  0  0  0  0  0  0  0  0
    9.3545  -16.7605   25.0165 C   0  0  0  0  0  0  0  0  0  0  0  0
    9.7197  -17.3396   26.0723 O   0  0  0  0  0  0  0  0  0  0  0  0
    8.9195  -14.9976   27.5239 C   0  0  0  0  0  0  0  0  0  0  0  0
    9.0446  -15.2256   28.8819 C   0  0  0  0  0  0  0  0  0  0  0  0
    6.0007  -18.3771   24.3146 C   0  0  0  0  0  0  0  0  0  0  0  0
    7.3719  -18.3182   24.9758 C   0  0  2  0  0  0  0  0  0  0  0  0
    8.1843  -17.2706   24.3885 N   0  0  0  0  0  0  0  0  0  0  0  0
    8.0501  -19.6382   24.9155 C   0  0  0  0  0  0  0  0  0  0  0  0
    9.3283  -19.8097   24.4013 O   0  0  0  0  0  0  0  0  0  0  0  0
    7.4661  -20.6671   25.3420 O   0  0  0  0  0  0  0  0  0  0  0  0
  2  1  1  6
  3  4  1  0
  3  2  1  0
  4  9  1  0
  4  5  2  0
  5  6  1  0
  6  7  2  0
  8  7  1  0
  9  8  2  0
 10 19  1  0
 10  2  1  0
 11 10  2  0
 12 13  1  0
 13 14  2  0
 14 15  1  0
 16 17  1  0
 16 15  2  0
 18 17  1  1
 18 19  1  0
 20 18  1  0
 21 20  2  0
 22 16  1  0
 23 22  2  0
 23 13  1  0
 25 24  1  6
 25 26  1  0
 26 20  1  0
 27 25  1  0
 27 28  1  0
 29 27  2  0
M  END
$$$$
