FYA.pdb
     RDKit          3D

 29 30  0  0  1  0  0  0  0  0999 V2000
   10.4424  -14.5920   20.0663 N   0  0  0  0  0  0  0  0  0  0  0  0
    9.4210  -14.3254   21.0925 C   0  0  1  0  0  0  0  0  0  0  0  0
    8.1952  -15.0718   20.6186 C   0  0  0  0  0  0  0  0  0  0  0  0
    7.4901  -14.4391   19.5031 C   0  0  0  0  0  0  0  0  0  0  0  0
    6.9814  -13.1548   19.5809 C   0  0  0  0  0  0  0  0  0  0  0  0
    6.3245  -12.5855   18.5048 C   0  0  0  0  0  0  0  0  0  0  0  0
    6.1951  -13.3403   17.3567 C   0  0  0  0  0  0  0  0  0  0  0  0
    6.7014  -14.6284   17.2692 C   0  0  0  0  0  0  0  0  0  0  0  0
    7.3497  -15.1894   18.3317 C   0  0  0  0  0  0  0  0  0  0  0  0
    9.8186  -14.8496   22.3997 C   0  0  0  0  0  0  0  0  0  0  0  0
   10.7076  -15.7335   22.4979 O   0  0  0  0  0  0  0  0  0  0  0  0
   10.8535  -15.6940   31.1498 O   0  0  0  0  0  0  0  0  0  0  0  0
   10.3740  -15.3117   29.8857 C   0  0  0  0  0  0  0  0  0  0  0  0
    9.4746  -16.1309   29.2503 C   0  0  0  0  0  0  0  0  0  0  0  0
    8.9830  -15.7781   27.9987 C   0  0  0  0  0  0  0  0  0  0  0  0
    9.3858  -14.6138   27.3822 C   0  0  0  0  0  0  0  0  0  0  0  0
    8.8717  -14.2256   26.0520 C   0  0  0  0  0  0  0  0  0  0  0  0
    9.7146  -14.8360   24.9230 C   0  0  2  0  0  0  0  0  0  0  0  0
    9.2485  -14.4155   23.6387 N   0  0  0  0  0  0  0  0  0  0  0  0
    9.7512  -16.3156   25.0730 C   0  0  0  0  0  0  0  0  0  0  0  0
    8.6810  -16.9752   25.1303 O   0  0  0  0  0  0  0  0  0  0  0  0
   10.2893  -13.8119   28.0441 C   0  0  0  0  0  0  0  0  0  0  0  0
   10.7923  -14.1413   29.2892 C   0  0  0  0  0  0  0  0  0  0  0  0
   11.9478  -19.1311   24.2981 C   0  0  0  0  0  0  0  0  0  0  0  0
   10.9809  -18.5059   25.2957 C   0  0  2  0  0  0  0  0  0  0  0  0
   10.9591  -17.0625   25.1590 N   0  0  0  0  0  0  0  0  0  0  0  0
   11.3049  -18.9213   26.6844 C   0  0  0  0  0  0  0  0  0  0  0  0
   12.0495  -18.1368   27.5550 O   0  0  0  0  0  0  0  0  0  0  0  0
   10.9006  -20.0290   27.1216 O   0  0  0  0  0  0  0  0  0  0  0  0
  2  1  1  6
  3  4  1  0
  3  2  1  0
  4  9  1  0
  4  5  2  0
  5  6  1  0
  6  7  2  0
  8  7  1  0
  9  8  2  0
 10 19  1  0
 10  2  1  0
 11 10  2  0
 12 13  1  0
 13 14  2  0
 14 15  1  0
 16 17  1  0
 16 15  2  0
 18 17  1  1
 18 19  1  0
 20 18  1  0
 21 20  2  0
 22 16  1  0
 23 22  2  0
 23 13  1  0
 25 24  1  6
 25 26  1  0
 26 20  1  0
 27 25  1  0
 27 28  1  0
 29 27  2  0
M  END
$$$$
