FYA.pdb
     RDKit          3D

 29 30  0  0  1  0  0  0  0  0999 V2000
    5.4402  -17.6476   24.2738 N   0  0  0  0  0  0  0  0  0  0  0  0
    6.1541  -16.3863   24.5324 C   0  0  1  0  0  0  0  0  0  0  0  0
    6.1316  -16.2325   26.0358 C   0  0  0  0  0  0  0  0  0  0  0  0
    6.7609  -15.0081   26.5324 C   0  0  0  0  0  0  0  0  0  0  0  0
    7.5950  -14.9987   27.6362 C   0  0  0  0  0  0  0  0  0  0  0  0
    8.1774  -13.8233   28.0753 C   0  0  0  0  0  0  0  0  0  0  0  0
    7.8982  -12.6661   27.3770 C   0  0  0  0  0  0  0  0  0  0  0  0
    7.0632  -12.6655   26.2696 C   0  0  0  0  0  0  0  0  0  0  0  0
    6.4890  -13.8260   25.8370 C   0  0  0  0  0  0  0  0  0  0  0  0
    7.5457  -16.4512   24.0839 C   0  0  0  0  0  0  0  0  0  0  0  0
    8.1761  -17.5392   24.0899 O   0  0  0  0  0  0  0  0  0  0  0  0
    7.2577  -14.0889   17.4512 O   0  0  0  0  0  0  0  0  0  0  0  0
    7.9531  -14.1243   18.6715 C   0  0  0  0  0  0  0  0  0  0  0  0
    8.0829  -12.9599   19.3864 C   0  0  0  0  0  0  0  0  0  0  0  0
    8.7658  -12.9649   20.5972 C   0  0  0  0  0  0  0  0  0  0  0  0
    9.3174  -14.1252   21.0943 C   0  0  0  0  0  0  0  0  0  0  0  0
   10.0459  -14.1460   22.3802 C   0  0  0  0  0  0  0  0  0  0  0  0
    9.6595  -15.3679   23.2259 C   0  0  2  0  0  0  0  0  0  0  0  0
    8.2849  -15.3187   23.6152 N   0  0  0  0  0  0  0  0  0  0  0  0
   10.5878  -15.4869   24.3823 C   0  0  0  0  0  0  0  0  0  0  0  0
   11.8330  -15.4710   24.2019 O   0  0  0  0  0  0  0  0  0  0  0  0
    9.1709  -15.2782   20.3548 C   0  0  0  0  0  0  0  0  0  0  0  0
    8.4963  -15.2984   19.1481 C   0  0  0  0  0  0  0  0  0  0  0  0
   10.8478  -13.9417   27.3652 C   0  0  0  0  0  0  0  0  0  0  0  0
   11.0090  -15.3719   26.8660 C   0  0  2  0  0  0  0  0  0  0  0  0
   10.1461  -15.6224   25.7280 N   0  0  0  0  0  0  0  0  0  0  0  0
   10.7728  -16.3484   27.9599 C   0  0  0  0  0  0  0  0  0  0  0  0
   11.6662  -17.3638   28.2742 O   0  0  0  0  0  0  0  0  0  0  0  0
    9.7249  -16.2788   28.6517 O   0  0  0  0  0  0  0  0  0  0  0  0
  2  1  1  1
  3  4  1  0
  3  2  1  0
  4  9  1  0
  4  5  2  0
  5  6  1  0
  6  7  2  0
  8  7  1  0
  9  8  2  0
 10 19  1  0
 10  2  1  0
 11 10  2  0
 12 13  1  0
 13 14  2  0
 14 15  1  0
 16 17  1  0
 16 15  2  0
 18 17  1  1
 18 19  1  0
 20 18  1  0
 21 20  2  0
 22 16  1  0
 23 22  2  0
 23 13  1  0
 25 24  1  1
 25 26  1  0
 26 20  1  0
 27 25  1  0
 27 28  1  0
 29 27  2  0
M  END
$$$$
