FYA.pdb
     RDKit          3D

 29 30  0  0  1  0  0  0  0  0999 V2000
   14.7511  -26.2656   18.1026 N   0  0  0  0  0  0  0  0  0  0  0  0
   15.1160  -24.8548   18.3117 C   0  0  1  0  0  0  0  0  0  0  0  0
   14.9788  -24.6384   19.8012 C   0  0  0  0  0  0  0  0  0  0  0  0
   13.5983  -24.5650   20.2815 C   0  0  0  0  0  0  0  0  0  0  0  0
   13.2552  -24.8344   21.5945 C   0  0  0  0  0  0  0  0  0  0  0  0
   11.9402  -24.7504   22.0156 C   0  0  0  0  0  0  0  0  0  0  0  0
   10.9875  -24.3903   21.0844 C   0  0  0  0  0  0  0  0  0  0  0  0
   11.3216  -24.1185   19.7661 C   0  0  0  0  0  0  0  0  0  0  0  0
   12.6197  -24.2017   19.3514 C   0  0  0  0  0  0  0  0  0  0  0  0
   16.5014  -24.5912   17.9206 C   0  0  0  0  0  0  0  0  0  0  0  0
   17.2912  -25.5358   17.6651 O   0  0  0  0  0  0  0  0  0  0  0  0
   23.7914  -21.8733   14.1766 O   0  0  0  0  0  0  0  0  0  0  0  0
   22.4803  -21.9236   14.6789 C   0  0  0  0  0  0  0  0  0  0  0  0
   21.7158  -23.0305   14.4068 C   0  0  0  0  0  0  0  0  0  0  0  0
   20.4149  -23.1078   14.8909 C   0  0  0  0  0  0  0  0  0  0  0  0
   19.8774  -22.0865   15.6431 C   0  0  0  0  0  0  0  0  0  0  0  0
   18.4961  -22.1547   16.1645 C   0  0  0  0  0  0  0  0  0  0  0  0
   18.4153  -23.0176   17.4320 C   0  0  2  0  0  0  0  0  0  0  0  0
   17.0586  -23.2784   17.7993 N   0  0  0  0  0  0  0  0  0  0  0  0
   19.2001  -22.3772   18.5214 C   0  0  0  0  0  0  0  0  0  0  0  0
   20.4357  -22.1822   18.3845 O   0  0  0  0  0  0  0  0  0  0  0  0
   20.6685  -20.9884   15.8998 C   0  0  0  0  0  0  0  0  0  0  0  0
   21.9648  -20.8885   15.4295 C   0  0  0  0  0  0  0  0  0  0  0  0
   18.7231  -20.1332   21.3872 C   0  0  0  0  0  0  0  0  0  0  0  0
   19.4104  -21.3707   20.8241 C   0  0  2  0  0  0  0  0  0  0  0  0
   18.6266  -21.9549   19.7531 N   0  0  0  0  0  0  0  0  0  0  0  0
   19.6955  -22.3572   21.8972 C   0  0  0  0  0  0  0  0  0  0  0  0
   18.7679  -22.7076   22.8692 O   0  0  0  0  0  0  0  0  0  0  0  0
   20.8194  -22.9183   21.9554 O   0  0  0  0  0  0  0  0  0  0  0  0
  2  1  1  1
  3  4  1  0
  3  2  1  0
  4  9  1  0
  4  5  2  0
  5  6  1  0
  6  7  2  0
  8  7  1  0
  9  8  2  0
 10 19  1  0
 10  2  1  0
 11 10  2  0
 12 13  1  0
 13 14  2  0
 14 15  1  0
 16 17  1  0
 16 15  2  0
 18 17  1  6
 18 19  1  0
 20 18  1  0
 21 20  2  0
 22 16  1  0
 23 22  2  0
 23 13  1  0
 25 24  1  1
 25 26  1  0
 26 20  1  0
 27 25  1  0
 27 28  1  0
 29 27  2  0
M  END
$$$$
