FYA.pdb
     RDKit          3D

 29 30  0  0  1  0  0  0  0  0999 V2000
    7.4196  -19.0212   27.0130 N   0  0  0  0  0  0  0  0  0  0  0  0
    7.9978  -17.6832   26.8070 C   0  0  1  0  0  0  0  0  0  0  0  0
    9.2899  -17.6973   27.5910 C   0  0  0  0  0  0  0  0  0  0  0  0
    9.8211  -16.3723   27.9138 C   0  0  0  0  0  0  0  0  0  0  0  0
   10.9955  -16.1976   28.6239 C   0  0  0  0  0  0  0  0  0  0  0  0
   11.4715  -14.9300   28.9071 C   0  0  0  0  0  0  0  0  0  0  0  0
   10.7369  -13.8512   28.4586 C   0  0  0  0  0  0  0  0  0  0  0  0
    9.5584  -14.0162   27.7462 C   0  0  0  0  0  0  0  0  0  0  0  0
    9.0896  -15.2676   27.4672 C   0  0  0  0  0  0  0  0  0  0  0  0
    8.3024  -17.4373   25.3968 C   0  0  0  0  0  0  0  0  0  0  0  0
    8.5131  -18.3918   24.6057 O   0  0  0  0  0  0  0  0  0  0  0  0
    5.3258  -12.0025   27.3019 O   0  0  0  0  0  0  0  0  0  0  0  0
    5.9863  -12.6430   26.2401 C   0  0  0  0  0  0  0  0  0  0  0  0
    6.9728  -11.9597   25.5739 C   0  0  0  0  0  0  0  0  0  0  0  0
    7.6434  -12.5683   24.5191 C   0  0  0  0  0  0  0  0  0  0  0  0
    7.3328  -13.8526   24.1294 C   0  0  0  0  0  0  0  0  0  0  0  0
    8.0372  -14.5127   23.0102 C   0  0  0  0  0  0  0  0  0  0  0  0
    8.5784  -15.8899   23.4201 C   0  0  2  0  0  0  0  0  0  0  0  0
    8.3841  -16.1319   24.8155 N   0  0  0  0  0  0  0  0  0  0  0  0
   10.0006  -16.0110   23.0011 C   0  0  0  0  0  0  0  0  0  0  0  0
   10.3083  -15.9829   21.7813 O   0  0  0  0  0  0  0  0  0  0  0  0
    6.3384  -14.5133   24.8167 C   0  0  0  0  0  0  0  0  0  0  0  0
    5.6573  -13.9292   25.8687 C   0  0  0  0  0  0  0  0  0  0  0  0
   13.3474  -15.2846   24.1795 C   0  0  0  0  0  0  0  0  0  0  0  0
   12.4544  -16.3134   23.4976 C   0  0  2  0  0  0  0  0  0  0  0  0
   11.0757  -16.1622   23.9206 N   0  0  0  0  0  0  0  0  0  0  0  0
   12.9533  -17.6923   23.7334 C   0  0  0  0  0  0  0  0  0  0  0  0
   13.3639  -18.1460   24.9799 O   0  0  0  0  0  0  0  0  0  0  0  0
   13.0190  -18.5105   22.7807 O   0  0  0  0  0  0  0  0  0  0  0  0
  2  1  1  6
  3  4  1  0
  3  2  1  0
  4  9  1  0
  4  5  2  0
  5  6  1  0
  6  7  2  0
  8  7  1  0
  9  8  2  0
 10 19  1  0
 10  2  1  0
 11 10  2  0
 12 13  1  0
 13 14  2  0
 14 15  1  0
 16 17  1  0
 16 15  2  0
 18 17  1  1
 18 19  1  0
 20 18  1  0
 21 20  2  0
 22 16  1  0
 23 22  2  0
 23 13  1  0
 25 24  1  1
 25 26  1  0
 26 20  1  0
 27 25  1  0
 27 28  1  0
 29 27  2  0
M  END
$$$$
