FYA.pdb
     RDKit          3D

 29 30  0  0  1  0  0  0  0  0999 V2000
    5.6985  -17.8373   24.3897 N   0  0  0  0  0  0  0  0  0  0  0  0
    6.2619  -16.4822   24.5066 C   0  0  1  0  0  0  0  0  0  0  0  0
    5.9599  -16.0609   25.9263 C   0  0  0  0  0  0  0  0  0  0  0  0
    6.2668  -14.6614   26.2247 C   0  0  0  0  0  0  0  0  0  0  0  0
    5.5383  -13.6130   25.6914 C   0  0  0  0  0  0  0  0  0  0  0  0
    5.8530  -12.3016   25.9992 C   0  0  0  0  0  0  0  0  0  0  0  0
    6.9141  -12.0772   26.8525 C   0  0  0  0  0  0  0  0  0  0  0  0
    7.6504  -13.1214   27.3918 C   0  0  0  0  0  0  0  0  0  0  0  0
    7.3390  -14.4153   27.0876 C   0  0  0  0  0  0  0  0  0  0  0  0
    7.7123  -16.4813   24.3108 C   0  0  0  0  0  0  0  0  0  0  0  0
    8.4011  -17.4978   24.5816 O   0  0  0  0  0  0  0  0  0  0  0  0
    7.1659  -13.8286   17.8389 O   0  0  0  0  0  0  0  0  0  0  0  0
    7.9296  -13.9372   19.0131 C   0  0  0  0  0  0  0  0  0  0  0  0
    7.9659  -12.8681   19.8731 C   0  0  0  0  0  0  0  0  0  0  0  0
    8.7132  -12.9471   21.0426 C   0  0  0  0  0  0  0  0  0  0  0  0
    9.4217  -14.0866   21.3546 C   0  0  0  0  0  0  0  0  0  0  0  0
   10.2204  -14.1852   22.5943 C   0  0  0  0  0  0  0  0  0  0  0  0
    9.8226  -15.4148   23.4234 C   0  0  2  0  0  0  0  0  0  0  0  0
    8.4475  -15.3598   23.8105 N   0  0  0  0  0  0  0  0  0  0  0  0
   10.7474  -15.5561   24.5800 C   0  0  0  0  0  0  0  0  0  0  0  0
   11.9331  -15.9382   24.4026 O   0  0  0  0  0  0  0  0  0  0  0  0
    9.3662  -15.1432   20.4725 C   0  0  0  0  0  0  0  0  0  0  0  0
    8.6302  -15.0885   19.3033 C   0  0  0  0  0  0  0  0  0  0  0  0
   10.9690  -14.3059   28.0884 C   0  0  0  0  0  0  0  0  0  0  0  0
   11.2970  -15.3542   27.0329 C   0  0  2  0  0  0  0  0  0  0  0  0
   10.3674  -15.2782   25.9226 N   0  0  0  0  0  0  0  0  0  0  0  0
   11.3336  -16.7153   27.6264 C   0  0  0  0  0  0  0  0  0  0  0  0
   12.3423  -17.1421   28.4797 O   0  0  0  0  0  0  0  0  0  0  0  0
   10.4236  -17.5424   27.3633 O   0  0  0  0  0  0  0  0  0  0  0  0
  2  1  1  1
  3  4  1  0
  3  2  1  0
  4  9  1  0
  4  5  2  0
  5  6  1  0
  6  7  2  0
  8  7  1  0
  9  8  2  0
 10 19  1  0
 10  2  1  0
 11 10  2  0
 12 13  1  0
 13 14  2  0
 14 15  1  0
 16 17  1  0
 16 15  2  0
 18 17  1  1
 18 19  1  0
 20 18  1  0
 21 20  2  0
 22 16  1  0
 23 22  2  0
 23 13  1  0
 25 24  1  1
 25 26  1  0
 26 20  1  0
 27 25  1  0
 27 28  1  0
 29 27  2  0
M  END
$$$$
