VCT.pdb
     RDKit          3D

 21 20  0  0  1  0  0  0  0  0999 V2000
    7.6490  -12.2785   21.0751 C   0  0  0  0  0  0  0  0  0  0  0  0
    8.5063  -13.3497   20.3808 C   0  0  2  0  0  0  0  0  0  0  0  0
    8.0104  -13.3751   18.9532 C   0  0  0  0  0  0  0  0  0  0  0  0
    8.2822  -14.6751   21.0908 C   0  0  2  0  0  0  0  0  0  0  0  0
    6.8757  -15.0111   20.8480 N   0  0  0  0  0  0  0  0  0  0  0  0
    8.4908  -14.6176   22.5371 C   0  0  0  0  0  0  0  0  0  0  0  0
    9.6848  -14.5182   22.9776 O   0  0  0  0  0  0  0  0  0  0  0  0
    7.4959  -14.6592   23.5406 N   0  0  0  0  0  0  0  0  0  0  0  0
    7.7829  -14.7335   24.9611 C   0  0  1  0  0  0  0  0  0  0  0  0
    6.6106  -14.0314   25.6596 C   0  0  0  0  0  0  0  0  0  0  0  0
    6.7511  -12.2584   25.2879 S   0  0  0  0  0  0  0  0  0  0  0  0
    7.7618  -16.1392   25.4487 C   0  0  0  0  0  0  0  0  0  0  0  0
    6.8239  -16.9364   25.1898 O   0  0  0  0  0  0  0  0  0  0  0  0
    8.8504  -18.4954   24.1677 C   0  0  0  0  0  0  0  0  0  0  0  0
    9.7765  -18.5845   25.3439 C   0  0  1  0  0  0  0  0  0  0  0  0
   10.9494  -17.8990   25.0380 O   0  0  0  0  0  0  0  0  0  0  0  0
    9.1018  -17.9535   26.5696 C   0  0  2  0  0  0  0  0  0  0  0  0
    8.8602  -16.5692   26.2367 N   0  0  0  0  0  0  0  0  0  0  0  0
   10.0942  -17.9946   27.6844 C   0  0  0  0  0  0  0  0  0  0  0  0
   10.3503  -19.1730   28.3723 O   0  0  0  0  0  0  0  0  0  0  0  0
   10.7307  -16.9737   28.0403 O   0  0  0  0  0  0  0  0  0  0  0  0
  2  4  1  0
  2  1  1  1
  3  2  1  0
  4  5  1  1
  6  7  2  0
  6  4  1  0
  8  6  1  0
  9 12  1  0
  9  8  1  0
 10 11  1  0
  9 10  1  1
 12 18  1  0
 13 12  2  0
 15 14  1  6
 15 16  1  0
 17 19  1  0
 17 15  1  0
 17 18  1  6
 19 20  1  0
 21 19  2  0
M  END
$$$$
