VCT.pdb
     RDKit          3D

 21 20  0  0  1  0  0  0  0  0999 V2000
    9.4495  -15.4702   16.5087 C   0  0  0  0  0  0  0  0  0  0  0  0
    7.9431  -15.4375   16.8160 C   0  0  2  0  0  0  0  0  0  0  0  0
    7.2796  -15.2373   15.4727 C   0  0  0  0  0  0  0  0  0  0  0  0
    7.6747  -14.2828   17.7676 C   0  0  2  0  0  0  0  0  0  0  0  0
    8.2014  -13.0933   17.0909 N   0  0  0  0  0  0  0  0  0  0  0  0
    8.3512  -14.4063   19.0582 C   0  0  0  0  0  0  0  0  0  0  0  0
    9.6137  -14.2234   19.1050 O   0  0  0  0  0  0  0  0  0  0  0  0
    7.7554  -14.7133   20.3029 N   0  0  0  0  0  0  0  0  0  0  0  0
    8.4991  -14.8650   21.5397 C   0  0  1  0  0  0  0  0  0  0  0  0
    7.4451  -14.9351   22.6529 C   0  0  0  0  0  0  0  0  0  0  0  0
    7.0197  -13.2248   23.0949 S   0  0  0  0  0  0  0  0  0  0  0  0
    9.2229  -16.1644   21.5847 C   0  0  0  0  0  0  0  0  0  0  0  0
    8.7696  -17.2154   21.0632 O   0  0  0  0  0  0  0  0  0  0  0  0
   13.6989  -18.0273   22.1449 C   0  0  0  0  0  0  0  0  0  0  0  0
   12.7546  -16.8658   22.0518 C   0  0  1  0  0  0  0  0  0  0  0  0
   12.8535  -16.3148   20.7768 O   0  0  0  0  0  0  0  0  0  0  0  0
   11.3221  -17.3553   22.3048 C   0  0  2  0  0  0  0  0  0  0  0  0
   10.4748  -16.1870   22.2513 N   0  0  0  0  0  0  0  0  0  0  0  0
   11.2831  -17.8914   23.6978 C   0  0  0  0  0  0  0  0  0  0  0  0
   11.5061  -19.2375   23.9537 O   0  0  0  0  0  0  0  0  0  0  0  0
   11.0490  -17.1519   24.6840 O   0  0  0  0  0  0  0  0  0  0  0  0
  2  4  1  0
  2  1  1  6
  3  2  1  0
  4  5  1  6
  6  7  2  0
  6  4  1  0
  8  6  1  0
  9 12  1  0
  9  8  1  0
 10 11  1  0
  9 10  1  1
 12 18  1  0
 13 12  2  0
 15 14  1  6
 15 16  1  0
 17 19  1  0
 17 15  1  0
 17 18  1  1
 19 20  1  0
 21 19  2  0
M  END
$$$$
