VCT.pdb
     RDKit          3D

 21 20  0  0  1  0  0  0  0  0999 V2000
    6.8243  -14.9164   19.0525 C   0  0  0  0  0  0  0  0  0  0  0  0
    7.5808  -15.1133   20.3767 C   0  0  2  0  0  0  0  0  0  0  0  0
    6.8626  -16.2509   21.0658 C   0  0  0  0  0  0  0  0  0  0  0  0
    7.5009  -13.8188   21.1697 C   0  0  2  0  0  0  0  0  0  0  0  0
    8.1997  -12.8211   20.3532 N   0  0  0  0  0  0  0  0  0  0  0  0
    8.1599  -13.8786   22.4737 C   0  0  0  0  0  0  0  0  0  0  0  0
    9.4289  -14.0128   22.5102 O   0  0  0  0  0  0  0  0  0  0  0  0
    7.5404  -13.8022   23.7422 N   0  0  0  0  0  0  0  0  0  0  0  0
    8.2325  -14.0387   24.9955 C   0  0  1  0  0  0  0  0  0  0  0  0
    7.4918  -13.1988   26.0447 C   0  0  0  0  0  0  0  0  0  0  0  0
    5.7135  -13.4680   25.7867 S   0  0  0  0  0  0  0  0  0  0  0  0
    8.0931  -15.4530   25.4368 C   0  0  0  0  0  0  0  0  0  0  0  0
    7.0072  -16.0842   25.3690 O   0  0  0  0  0  0  0  0  0  0  0  0
    9.4340  -18.1858   24.0077 C   0  0  0  0  0  0  0  0  0  0  0  0
   10.1232  -18.2258   25.3391 C   0  0  1  0  0  0  0  0  0  0  0  0
   11.3711  -17.6213   25.2110 O   0  0  0  0  0  0  0  0  0  0  0  0
    9.2754  -17.4708   26.3720 C   0  0  2  0  0  0  0  0  0  0  0  0
    9.2518  -16.0894   25.9513 N   0  0  0  0  0  0  0  0  0  0  0  0
   10.0033  -17.5454   27.6735 C   0  0  0  0  0  0  0  0  0  0  0  0
   10.1020  -18.7414   28.3714 O   0  0  0  0  0  0  0  0  0  0  0  0
   10.5501  -16.5378   28.1834 O   0  0  0  0  0  0  0  0  0  0  0  0
  2  4  1  0
  2  1  1  6
  3  2  1  0
  4  5  1  6
  6  7  2  0
  6  4  1  0
  8  6  1  0
  9 12  1  0
  9  8  1  0
 10 11  1  0
  9 10  1  1
 12 18  1  0
 13 12  2  0
 15 14  1  6
 15 16  1  0
 17 19  1  0
 17 15  1  0
 17 18  1  6
 19 20  1  0
 21 19  2  0
M  END
$$$$
