VCT.pdb
     RDKit          3D

 21 20  0  0  1  0  0  0  0  0999 V2000
    6.2420  -15.3253   20.2073 C   0  0  0  0  0  0  0  0  0  0  0  0
    7.2717  -14.5054   19.4124 C   0  0  2  0  0  0  0  0  0  0  0  0
    8.4783  -15.4086   19.2975 C   0  0  0  0  0  0  0  0  0  0  0  0
    7.5760  -13.2360   20.1916 C   0  0  2  0  0  0  0  0  0  0  0  0
    8.5962  -12.5347   19.4057 N   0  0  0  0  0  0  0  0  0  0  0  0
    8.1189  -13.4747   21.5283 C   0  0  0  0  0  0  0  0  0  0  0  0
    9.3703  -13.6969   21.6476 O   0  0  0  0  0  0  0  0  0  0  0  0
    7.4010  -13.4884   22.7461 N   0  0  0  0  0  0  0  0  0  0  0  0
    7.9966  -13.7996   24.0322 C   0  0  1  0  0  0  0  0  0  0  0  0
    6.9969  -13.3021   25.0849 C   0  0  0  0  0  0  0  0  0  0  0  0
    7.7492  -13.5881   26.7140 S   0  0  0  0  0  0  0  0  0  0  0  0
    8.1069  -15.2688   24.2409 C   0  0  0  0  0  0  0  0  0  0  0  0
    7.1140  -16.0397   24.1975 O   0  0  0  0  0  0  0  0  0  0  0  0
    9.8922  -17.5731   22.3505 C   0  0  0  0  0  0  0  0  0  0  0  0
   10.5806  -17.6981   23.6771 C   0  0  1  0  0  0  0  0  0  0  0  0
   11.7464  -16.9372   23.6453 O   0  0  0  0  0  0  0  0  0  0  0  0
    9.6472  -17.1865   24.7828 C   0  0  2  0  0  0  0  0  0  0  0  0
    9.4000  -15.7925   24.4975 N   0  0  0  0  0  0  0  0  0  0  0  0
   10.4049  -17.2683   26.0668 C   0  0  0  0  0  0  0  0  0  0  0  0
   10.6853  -18.4936   26.6562 O   0  0  0  0  0  0  0  0  0  0  0  0
   10.8147  -16.2408   26.6588 O   0  0  0  0  0  0  0  0  0  0  0  0
  2  4  1  0
  2  1  1  1
  3  2  1  0
  4  5  1  6
  6  7  2  0
  6  4  1  0
  8  6  1  0
  9 12  1  0
  9  8  1  0
 10 11  1  0
  9 10  1  1
 12 18  1  0
 13 12  2  0
 15 14  1  6
 15 16  1  0
 17 19  1  0
 17 15  1  0
 17 18  1  6
 19 20  1  0
 21 19  2  0
M  END
$$$$
