VCT.pdb
     RDKit          3D

 21 20  0  0  1  0  0  0  0  0999 V2000
    7.6065  -14.4491   16.5054 C   0  0  0  0  0  0  0  0  0  0  0  0
    8.6763  -14.4331   17.6098 C   0  0  2  0  0  0  0  0  0  0  0  0
    8.9773  -15.8901   17.8765 C   0  0  0  0  0  0  0  0  0  0  0  0
    8.0948  -13.7339   18.8281 C   0  0  2  0  0  0  0  0  0  0  0  0
    7.9757  -12.3236   18.4446 N   0  0  0  0  0  0  0  0  0  0  0  0
    8.9416  -13.8097   20.0178 C   0  0  0  0  0  0  0  0  0  0  0  0
   10.0077  -13.1083   20.0533 O   0  0  0  0  0  0  0  0  0  0  0  0
    8.7141  -14.5918   21.1733 N   0  0  0  0  0  0  0  0  0  0  0  0
    9.6864  -14.7654   22.2364 C   0  0  1  0  0  0  0  0  0  0  0  0
    8.8923  -15.2731   23.4475 C   0  0  0  0  0  0  0  0  0  0  0  0
   10.0990  -15.6996   24.7373 S   0  0  0  0  0  0  0  0  0  0  0  0
   10.6625  -15.8409   21.9123 C   0  0  0  0  0  0  0  0  0  0  0  0
   10.3173  -17.0292   21.6870 O   0  0  0  0  0  0  0  0  0  0  0  0
   12.9271  -15.6475   19.2413 C   0  0  0  0  0  0  0  0  0  0  0  0
   13.8700  -15.8645   20.3872 C   0  0  1  0  0  0  0  0  0  0  0  0
   14.4507  -14.6437   20.7211 O   0  0  0  0  0  0  0  0  0  0  0  0
   13.0911  -16.4230   21.5860 C   0  0  2  0  0  0  0  0  0  0  0  0
   12.0333  -15.4795   21.8626 N   0  0  0  0  0  0  0  0  0  0  0  0
   14.0249  -16.4254   22.7511 C   0  0  0  0  0  0  0  0  0  0  0  0
   15.0684  -17.3376   22.8307 O   0  0  0  0  0  0  0  0  0  0  0  0
   13.9040  -15.6094   23.6964 O   0  0  0  0  0  0  0  0  0  0  0  0
  2  4  1  0
  2  1  1  6
  3  2  1  0
  4  5  1  6
  6  7  2  0
  6  4  1  0
  8  6  1  0
  9 12  1  0
  9  8  1  0
 10 11  1  0
  9 10  1  1
 12 18  1  0
 13 12  2  0
 15 14  1  6
 15 16  1  0
 17 19  1  0
 17 15  1  0
 17 18  1  1
 19 20  1  0
 21 19  2  0
M  END
$$$$
