TCQ.pdb
     RDKit          3D

 23 22  0  0  1  0  0  0  0  0999 V2000
    6.6832  -17.1413   22.6253 C   0  0  0  0  0  0  0  0  0  0  0  0
    7.6776  -16.7828   21.5300 C   0  0  1  0  0  0  0  0  0  0  0  0
    7.3142  -17.3477   20.3263 O   0  0  0  0  0  0  0  0  0  0  0  0
    7.7412  -15.2854   21.4068 C   0  0  2  0  0  0  0  0  0  0  0  0
    8.7151  -14.9249   20.3892 N   0  0  0  0  0  0  0  0  0  0  0  0
    8.2396  -14.7436   22.7199 C   0  0  0  0  0  0  0  0  0  0  0  0
    9.4398  -14.9071   23.0667 O   0  0  0  0  0  0  0  0  0  0  0  0
    7.3655  -14.0454   23.5769 N   0  0  0  0  0  0  0  0  0  0  0  0
    7.8602  -13.6382   24.8981 C   0  0  1  0  0  0  0  0  0  0  0  0
    6.7942  -12.7644   25.5347 C   0  0  0  0  0  0  0  0  0  0  0  0
    7.2096  -12.3498   27.2322 S   0  0  0  0  0  0  0  0  0  0  0  0
    8.0583  -14.8775   25.7088 C   0  0  0  0  0  0  0  0  0  0  0  0
    7.1982  -15.8180   25.6155 O   0  0  0  0  0  0  0  0  0  0  0  0
   10.9184  -19.0399   24.2950 N   0  0  0  0  0  0  0  0  0  0  0  0
   11.5326  -18.9471   25.5627 C   0  0  0  0  0  0  0  0  0  0  0  0
   12.5628  -19.6669   25.7919 O   0  0  0  0  0  0  0  0  0  0  0  0
   11.0603  -18.0588   26.6469 C   0  0  0  0  0  0  0  0  0  0  0  0
    9.8907  -17.2184   26.3216 C   0  0  0  0  0  0  0  0  0  0  0  0
    9.3911  -16.2579   27.3350 C   0  0  2  0  0  0  0  0  0  0  0  0
    9.1535  -15.0067   26.5432 N   0  0  0  0  0  0  0  0  0  0  0  0
   10.2702  -15.9011   28.4466 C   0  0  0  0  0  0  0  0  0  0  0  0
   10.5398  -16.7422   29.5164 O   0  0  0  0  0  0  0  0  0  0  0  0
   10.8244  -14.7716   28.4541 O   0  0  0  0  0  0  0  0  0  0  0  0
  2  1  1  1
  2  4  1  0
  3  2  1  0
  4  5  1  6
  6  8  1  0
  6  4  1  0
  7  6  2  0
  9 12  1  0
  9  8  1  0
  9 10  1  1
 11 10  1  0
 12 20  1  0
 13 12  2  0
 15 17  1  0
 15 14  1  0
 16 15  2  0
 18 17  1  0
 19 21  1  0
 19 18  1  6
 20 19  1  0
 21 22  1  0
 23 21  2  0
M  END
$$$$
