TCQ.pdb
     RDKit          3D

 23 22  0  0  1  0  0  0  0  0999 V2000
    7.6483  -15.6385   15.0540 C   0  0  0  0  0  0  0  0  0  0  0  0
    8.2403  -15.4100   16.4375 C   0  0  1  0  0  0  0  0  0  0  0  0
    9.6174  -15.4576   16.4016 O   0  0  0  0  0  0  0  0  0  0  0  0
    7.7765  -14.0730   16.9464 C   0  0  2  0  0  0  0  0  0  0  0  0
    8.3454  -13.0184   16.1230 N   0  0  0  0  0  0  0  0  0  0  0  0
    8.3243  -13.9034   18.3383 C   0  0  0  0  0  0  0  0  0  0  0  0
    9.4827  -13.4419   18.5195 O   0  0  0  0  0  0  0  0  0  0  0  0
    7.5439  -14.2599   19.4563 N   0  0  0  0  0  0  0  0  0  0  0  0
    8.1636  -14.2063   20.7864 C   0  0  1  0  0  0  0  0  0  0  0  0
    7.0494  -14.3059   21.8129 C   0  0  0  0  0  0  0  0  0  0  0  0
    7.6965  -14.6154   23.4595 S   0  0  0  0  0  0  0  0  0  0  0  0
    9.0781  -15.3817   20.9071 C   0  0  0  0  0  0  0  0  0  0  0  0
    8.6566  -16.5300   20.5373 O   0  0  0  0  0  0  0  0  0  0  0  0
   14.1653  -15.8902   18.2202 N   0  0  0  0  0  0  0  0  0  0  0  0
   14.1457  -14.9928   19.3098 C   0  0  0  0  0  0  0  0  0  0  0  0
   14.9263  -13.9821   19.2776 O   0  0  0  0  0  0  0  0  0  0  0  0
   13.2684  -15.1457   20.4907 C   0  0  0  0  0  0  0  0  0  0  0  0
   12.2336  -16.1940   20.3875 C   0  0  0  0  0  0  0  0  0  0  0  0
   11.2974  -16.3943   21.5200 C   0  0  2  0  0  0  0  0  0  0  0  0
   10.3585  -15.2305   21.4072 N   0  0  0  0  0  0  0  0  0  0  0  0
   11.8368  -16.3796   22.8781 C   0  0  0  0  0  0  0  0  0  0  0  0
   12.7557  -17.3046   23.3523 O   0  0  0  0  0  0  0  0  0  0  0  0
   11.4601  -15.4861   23.6798 O   0  0  0  0  0  0  0  0  0  0  0  0
  2  1  1  6
  2  4  1  0
  3  2  1  0
  4  5  1  6
  6  8  1  0
  6  4  1  0
  7  6  2  0
  9 12  1  0
  9  8  1  0
  9 10  1  1
 11 10  1  0
 12 20  1  0
 13 12  2  0
 15 17  1  0
 15 14  1  0
 16 15  2  0
 18 17  1  0
 19 21  1  0
 19 18  1  6
 20 19  1  0
 21 22  1  0
 23 21  2  0
M  END
$$$$
