TCQ.pdb
     RDKit          3D

 23 22  0  0  1  0  0  0  0  0999 V2000
    7.8367  -19.2743   16.4168 C   0  0  0  0  0  0  0  0  0  0  0  0
    8.3938  -18.5352   17.6253 C   0  0  1  0  0  0  0  0  0  0  0  0
    9.4159  -19.2481   18.2145 O   0  0  0  0  0  0  0  0  0  0  0  0
    8.8862  -17.1855   17.1811 C   0  0  2  0  0  0  0  0  0  0  0  0
   10.0514  -17.3527   16.3276 N   0  0  0  0  0  0  0  0  0  0  0  0
    9.3311  -16.4388   18.4101 C   0  0  0  0  0  0  0  0  0  0  0  0
   10.5264  -16.5053   18.8031 O   0  0  0  0  0  0  0  0  0  0  0  0
    8.4118  -15.6547   19.1355 N   0  0  0  0  0  0  0  0  0  0  0  0
    8.8981  -14.9103   20.3041 C   0  0  1  0  0  0  0  0  0  0  0  0
    7.7666  -14.0156   20.7779 C   0  0  0  0  0  0  0  0  0  0  0  0
    7.3108  -12.8112   19.5258 S   0  0  0  0  0  0  0  0  0  0  0  0
    9.2421  -15.9058   21.3637 C   0  0  0  0  0  0  0  0  0  0  0  0
    8.7765  -17.0920   21.2682 O   0  0  0  0  0  0  0  0  0  0  0  0
   13.0815  -20.0288   21.1874 N   0  0  0  0  0  0  0  0  0  0  0  0
   13.1277  -18.7353   21.7510 C   0  0  0  0  0  0  0  0  0  0  0  0
   13.8994  -17.8682   21.2175 O   0  0  0  0  0  0  0  0  0  0  0  0
   12.3292  -18.3155   22.9231 C   0  0  0  0  0  0  0  0  0  0  0  0
   11.8970  -16.9037   22.9303 C   0  0  0  0  0  0  0  0  0  0  0  0
   10.5358  -16.5707   23.4156 C   0  0  2  0  0  0  0  0  0  0  0  0
   10.0520  -15.5520   22.4274 N   0  0  0  0  0  0  0  0  0  0  0  0
   10.3978  -15.9782   24.7444 C   0  0  0  0  0  0  0  0  0  0  0  0
    9.9349  -14.6898   24.9693 O   0  0  0  0  0  0  0  0  0  0  0  0
   10.7109  -16.6574   25.7561 O   0  0  0  0  0  0  0  0  0  0  0  0
  2  1  1  6
  2  4  1  0
  3  2  1  0
  4  5  1  6
  6  8  1  0
  6  4  1  0
  7  6  2  0
  9 12  1  0
  9  8  1  0
  9 10  1  1
 11 10  1  0
 12 20  1  0
 13 12  2  0
 15 17  1  0
 15 14  1  0
 16 15  2  0
 18 17  1  0
 19 21  1  0
 19 18  1  6
 20 19  1  0
 21 22  1  0
 23 21  2  0
M  END
$$$$
