TCQ.pdb
     RDKit          3D

 23 22  0  0  1  0  0  0  0  0999 V2000
    9.3198  -18.0059   15.6423 C   0  0  0  0  0  0  0  0  0  0  0  0
    9.6025  -16.9435   14.5895 C   0  0  1  0  0  0  0  0  0  0  0  0
    9.3152  -17.4102   13.3247 O   0  0  0  0  0  0  0  0  0  0  0  0
    8.7754  -15.7259   14.8978 C   0  0  2  0  0  0  0  0  0  0  0  0
    8.8902  -14.7739   13.8048 N   0  0  0  0  0  0  0  0  0  0  0  0
    9.3623  -15.0782   16.1234 C   0  0  0  0  0  0  0  0  0  0  0  0
   10.5792  -14.7528   16.1561 O   0  0  0  0  0  0  0  0  0  0  0  0
    8.5535  -14.8281   17.2500 N   0  0  0  0  0  0  0  0  0  0  0  0
    9.1403  -14.1027   18.3839 C   0  0  1  0  0  0  0  0  0  0  0  0
    8.0301  -13.8528   19.3889 C   0  0  0  0  0  0  0  0  0  0  0  0
    6.7575  -12.7812   18.7118 S   0  0  0  0  0  0  0  0  0  0  0  0
   10.1898  -14.9785   18.9870 C   0  0  0  0  0  0  0  0  0  0  0  0
   10.1156  -16.2415   18.8068 O   0  0  0  0  0  0  0  0  0  0  0  0
   15.8649  -13.3534   18.3042 N   0  0  0  0  0  0  0  0  0  0  0  0
   16.0320  -14.3360   19.3040 C   0  0  0  0  0  0  0  0  0  0  0  0
   17.2181  -14.6166   19.6867 O   0  0  0  0  0  0  0  0  0  0  0  0
   14.9137  -15.0609   19.9455 C   0  0  0  0  0  0  0  0  0  0  0  0
   13.5624  -14.5469   19.6457 C   0  0  0  0  0  0  0  0  0  0  0  0
   12.3832  -15.2675   20.1835 C   0  0  2  0  0  0  0  0  0  0  0  0
   11.2247  -14.4333   19.7246 N   0  0  0  0  0  0  0  0  0  0  0  0
   12.2593  -15.4129   21.6324 C   0  0  0  0  0  0  0  0  0  0  0  0
   12.9760  -16.3375   22.3782 O   0  0  0  0  0  0  0  0  0  0  0  0
   11.4630  -14.6673   22.2593 O   0  0  0  0  0  0  0  0  0  0  0  0
  2  1  1  1
  2  4  1  0
  3  2  1  0
  4  5  1  6
  6  8  1  0
  6  4  1  0
  7  6  2  0
  9 12  1  0
  9  8  1  0
  9 10  1  1
 11 10  1  0
 12 20  1  0
 13 12  2  0
 15 17  1  0
 15 14  1  0
 16 15  2  0
 18 17  1  0
 19 21  1  0
 19 18  1  1
 20 19  1  0
 21 22  1  0
 23 21  2  0
M  END
$$$$
