TCQ.pdb
     RDKit          3D

 23 22  0  0  1  0  0  0  0  0999 V2000
   17.0239  -16.9676   17.6218 C   0  0  0  0  0  0  0  0  0  0  0  0
   16.2805  -16.4440   16.4011 C   0  0  1  0  0  0  0  0  0  0  0  0
   17.1329  -16.2938   15.3283 O   0  0  0  0  0  0  0  0  0  0  0  0
   15.1751  -17.4049   16.0599 C   0  0  2  0  0  0  0  0  0  0  0  0
   14.4813  -16.9408   14.8694 N   0  0  0  0  0  0  0  0  0  0  0  0
   14.1873  -17.3805   17.1956 C   0  0  0  0  0  0  0  0  0  0  0  0
   13.4200  -16.3941   17.3569 O   0  0  0  0  0  0  0  0  0  0  0  0
   14.1104  -18.4649   18.0924 N   0  0  0  0  0  0  0  0  0  0  0  0
   13.2334  -18.3417   19.2637 C   0  0  1  0  0  0  0  0  0  0  0  0
   12.4848  -19.6541   19.4127 C   0  0  0  0  0  0  0  0  0  0  0  0
   11.5057  -19.6867   20.9182 S   0  0  0  0  0  0  0  0  0  0  0  0
   14.1020  -18.1090   20.4569 C   0  0  0  0  0  0  0  0  0  0  0  0
   15.2905  -18.5786   20.4539 O   0  0  0  0  0  0  0  0  0  0  0  0
   17.7440  -15.7566   21.8853 N   0  0  0  0  0  0  0  0  0  0  0  0
   17.2328  -15.0604   23.0019 C   0  0  0  0  0  0  0  0  0  0  0  0
   18.0607  -14.5672   23.8405 O   0  0  0  0  0  0  0  0  0  0  0  0
   15.7906  -14.8584   23.2606 C   0  0  0  0  0  0  0  0  0  0  0  0
   14.8716  -15.5875   22.3639 C   0  0  0  0  0  0  0  0  0  0  0  0
   14.5355  -16.9987   22.6717 C   0  0  2  0  0  0  0  0  0  0  0  0
   13.6305  -17.3962   21.5441 N   0  0  0  0  0  0  0  0  0  0  0  0
   13.8237  -17.2880   23.9149 C   0  0  0  0  0  0  0  0  0  0  0  0
   14.4517  -17.6700   25.0914 O   0  0  0  0  0  0  0  0  0  0  0  0
   12.5695  -17.1914   23.9421 O   0  0  0  0  0  0  0  0  0  0  0  0
  2  1  1  1
  2  4  1  0
  3  2  1  0
  4  5  1  6
  6  8  1  0
  6  4  1  0
  7  6  2  0
  9 12  1  0
  9  8  1  0
  9 10  1  1
 11 10  1  0
 12 20  1  0
 13 12  2  0
 15 17  1  0
 15 14  1  0
 16 15  2  0
 18 17  1  0
 19 21  1  0
 19 18  1  6
 20 19  1  0
 21 22  1  0
 23 21  2  0
M  END
$$$$
