TCQ.pdb
     RDKit          3D

 23 22  0  0  1  0  0  0  0  0999 V2000
    7.4839  -15.3633   18.1805 C   0  0  0  0  0  0  0  0  0  0  0  0
    7.9736  -15.1314   19.6029 C   0  0  1  0  0  0  0  0  0  0  0  0
    9.3418  -15.2773   19.6861 O   0  0  0  0  0  0  0  0  0  0  0  0
    7.5681  -13.7489   20.0340 C   0  0  2  0  0  0  0  0  0  0  0  0
    8.2863  -12.7648   19.2404 N   0  0  0  0  0  0  0  0  0  0  0  0
    8.0002  -13.5759   21.4656 C   0  0  0  0  0  0  0  0  0  0  0  0
    9.1254  -13.0797   21.7401 O   0  0  0  0  0  0  0  0  0  0  0  0
    7.1472  -13.9682   22.5165 N   0  0  0  0  0  0  0  0  0  0  0  0
    7.5793  -13.7177   23.8973 C   0  0  1  0  0  0  0  0  0  0  0  0
    6.3295  -13.5536   24.7435 C   0  0  0  0  0  0  0  0  0  0  0  0
    6.7349  -13.2961   26.4743 S   0  0  0  0  0  0  0  0  0  0  0  0
    8.3533  -14.9118   24.3529 C   0  0  0  0  0  0  0  0  0  0  0  0
    8.0586  -16.0574   23.8693 O   0  0  0  0  0  0  0  0  0  0  0  0
   11.1429  -16.0002   29.6841 N   0  0  0  0  0  0  0  0  0  0  0  0
   10.4957  -14.8367   29.2145 C   0  0  0  0  0  0  0  0  0  0  0  0
    9.9761  -14.0439   30.0709 O   0  0  0  0  0  0  0  0  0  0  0  0
   10.3862  -14.4716   27.7854 C   0  0  0  0  0  0  0  0  0  0  0  0
   11.0024  -15.4181   26.8343 C   0  0  0  0  0  0  0  0  0  0  0  0
   10.1801  -15.9617   25.7263 C   0  0  2  0  0  0  0  0  0  0  0  0
    9.3721  -14.7805   25.2787 N   0  0  0  0  0  0  0  0  0  0  0  0
    9.2373  -17.0379   26.0243 C   0  0  0  0  0  0  0  0  0  0  0  0
    7.8609  -16.8679   26.0624 O   0  0  0  0  0  0  0  0  0  0  0  0
    9.6772  -18.1922   26.2629 O   0  0  0  0  0  0  0  0  0  0  0  0
  2  1  1  6
  2  4  1  0
  3  2  1  0
  4  5  1  6
  6  8  1  0
  6  4  1  0
  7  6  2  0
  9 12  1  0
  9  8  1  0
  9 10  1  1
 11 10  1  0
 12 20  1  0
 13 12  2  0
 15 17  1  0
 15 14  1  0
 16 15  2  0
 18 17  1  0
 19 21  1  0
 19 18  1  1
 20 19  1  0
 21 22  1  0
 23 21  2  0
M  END
$$$$
