FGA.pdb
     RDKit          3D

 21 21  0  0  1  0  0  0  0  0999 V2000
    6.3867  -16.1152   25.6703 N   0  0  0  0  0  0  0  0  0  0  0  0
    6.7645  -15.4846   24.4236 C   0  0  1  0  0  0  0  0  0  0  0  0
    7.7750  -14.3900   24.7941 C   0  0  0  0  0  0  0  0  0  0  0  0
    7.1913  -13.4044   25.7232 C   0  0  0  0  0  0  0  0  0  0  0  0
    7.7157  -13.3005   27.0085 C   0  0  0  0  0  0  0  0  0  0  0  0
    7.2291  -12.4086   27.9337 C   0  0  0  0  0  0  0  0  0  0  0  0
    6.1830  -11.6014   27.5437 C   0  0  0  0  0  0  0  0  0  0  0  0
    5.6515  -11.6923   26.2718 C   0  0  0  0  0  0  0  0  0  0  0  0
    6.1596  -12.5996   25.3573 C   0  0  0  0  0  0  0  0  0  0  0  0
    7.5071  -16.4283   23.5421 C   0  0  0  0  0  0  0  0  0  0  0  0
    8.0385  -15.9701   22.5021 O   0  0  0  0  0  0  0  0  0  0  0  0
    7.6432  -17.8060   23.8152 N   0  0  0  0  0  0  0  0  0  0  0  0
    8.3530  -18.7507   23.0304 C   0  0  0  0  0  0  0  0  0  0  0  0
    9.8034  -18.5850   22.9342 C   0  0  0  0  0  0  0  0  0  0  0  0
   10.4494  -19.6100   22.5853 O   0  0  0  0  0  0  0  0  0  0  0  0
   12.4183  -16.0763   22.5916 C   0  0  0  0  0  0  0  0  0  0  0  0
   11.9810  -17.4542   23.0390 C   0  0  2  0  0  0  0  0  0  0  0  0
   10.5394  -17.4049   23.1924 N   0  0  0  0  0  0  0  0  0  0  0  0
   12.6080  -17.7102   24.3662 C   0  0  0  0  0  0  0  0  0  0  0  0
   13.8594  -17.8083   24.4408 O   0  0  0  0  0  0  0  0  0  0  0  0
   11.8795  -17.8465   25.5280 O   0  0  0  0  0  0  0  0  0  0  0  0
  2  1  1  1
  2 10  1  0
  3  2  1  0
  3  4  1  0
  4  5  2  0
  5  6  1  0
  7  6  2  0
  8  7  1  0
  9  4  1  0
  9  8  2  0
 10 11  2  0
 12 13  1  0
 12 10  1  0
 13 14  1  0
 14 15  2  0
 14 18  1  0
 17 16  1  1
 17 19  1  0
 18 17  1  0
 19 21  1  0
 20 19  2  0
M  END
$$$$
