FGA.pdb
     RDKit          3D

 21 21  0  0  1  0  0  0  0  0999 V2000
    7.9667  -15.3979   25.6545 N   0  0  0  0  0  0  0  0  0  0  0  0
    7.5598  -15.3859   24.2657 C   0  0  1  0  0  0  0  0  0  0  0  0
    7.2770  -13.9168   23.9219 C   0  0  0  0  0  0  0  0  0  0  0  0
    6.9419  -13.1326   25.1252 C   0  0  0  0  0  0  0  0  0  0  0  0
    7.9437  -12.3891   25.7429 C   0  0  0  0  0  0  0  0  0  0  0  0
    7.7142  -11.6326   26.8667 C   0  0  0  0  0  0  0  0  0  0  0  0
    6.4344  -11.6308   27.3766 C   0  0  0  0  0  0  0  0  0  0  0  0
    5.4292  -12.3632   26.7754 C   0  0  0  0  0  0  0  0  0  0  0  0
    5.6859  -13.1181   25.6431 C   0  0  0  0  0  0  0  0  0  0  0  0
    8.6775  -15.7951   23.3699 C   0  0  0  0  0  0  0  0  0  0  0  0
    9.8130  -15.3058   23.5821 O   0  0  0  0  0  0  0  0  0  0  0  0
    8.5257  -16.7013   22.2989 N   0  0  0  0  0  0  0  0  0  0  0  0
    9.5518  -17.1513   21.4290 C   0  0  0  0  0  0  0  0  0  0  0  0
   10.7523  -17.7153   22.0464 C   0  0  0  0  0  0  0  0  0  0  0  0
   11.5846  -18.2321   21.2528 O   0  0  0  0  0  0  0  0  0  0  0  0
   13.1416  -17.4463   24.5455 C   0  0  0  0  0  0  0  0  0  0  0  0
   12.2551  -18.4520   23.8438 C   0  0  2  0  0  0  0  0  0  0  0  0
   11.0636  -17.7378   23.4260 N   0  0  0  0  0  0  0  0  0  0  0  0
   11.8804  -19.4893   24.8456 C   0  0  0  0  0  0  0  0  0  0  0  0
   10.7196  -19.4792   25.3290 O   0  0  0  0  0  0  0  0  0  0  0  0
   12.7495  -20.4692   25.2740 O   0  0  0  0  0  0  0  0  0  0  0  0
  2  1  1  1
  2 10  1  0
  3  2  1  0
  3  4  1  0
  4  5  2  0
  5  6  1  0
  7  6  2  0
  8  7  1  0
  9  4  1  0
  9  8  2  0
 10 11  2  0
 12 13  1  0
 12 10  1  0
 13 14  1  0
 14 15  2  0
 14 18  1  0
 17 16  1  1
 17 19  1  0
 18 17  1  0
 19 21  1  0
 20 19  2  0
M  END
$$$$
