FGA.pdb
     RDKit          3D

 21 21  0  0  1  0  0  0  0  0999 V2000
    7.1946  -15.9331   23.4337 N   0  0  0  0  0  0  0  0  0  0  0  0
    8.1396  -14.9016   23.8046 C   0  0  1  0  0  0  0  0  0  0  0  0
    7.8725  -14.5979   25.2854 C   0  0  0  0  0  0  0  0  0  0  0  0
    7.0338  -13.3960   25.4505 C   0  0  0  0  0  0  0  0  0  0  0  0
    7.5416  -12.1629   25.0513 C   0  0  0  0  0  0  0  0  0  0  0  0
    6.8250  -10.9966   25.1711 C   0  0  0  0  0  0  0  0  0  0  0  0
    5.5602  -11.0846   25.7101 C   0  0  0  0  0  0  0  0  0  0  0  0
    5.0420  -12.3008   26.1110 C   0  0  0  0  0  0  0  0  0  0  0  0
    5.7843  -13.4625   25.9798 C   0  0  0  0  0  0  0  0  0  0  0  0
    9.5407  -15.4046   23.7489 C   0  0  0  0  0  0  0  0  0  0  0  0
   10.4462  -14.5951   23.4350 O   0  0  0  0  0  0  0  0  0  0  0  0
    9.9007  -16.7398   24.0299 N   0  0  0  0  0  0  0  0  0  0  0  0
   11.1837  -17.1970   24.4261 C   0  0  0  0  0  0  0  0  0  0  0  0
   11.6031  -16.9063   25.7974 C   0  0  0  0  0  0  0  0  0  0  0  0
   12.8263  -17.0849   26.0450 O   0  0  0  0  0  0  0  0  0  0  0  0
   10.6411  -15.1248   28.8234 C   0  0  0  0  0  0  0  0  0  0  0  0
   11.3926  -16.2561   28.1562 C   0  0  2  0  0  0  0  0  0  0  0  0
   10.7813  -16.4530   26.8556 N   0  0  0  0  0  0  0  0  0  0  0  0
   11.1869  -17.4765   28.9859 C   0  0  0  0  0  0  0  0  0  0  0  0
   10.4975  -18.4202   28.5221 O   0  0  0  0  0  0  0  0  0  0  0  0
   11.7187  -17.6255   30.2485 O   0  0  0  0  0  0  0  0  0  0  0  0
  2  1  1  1
  2 10  1  0
  3  2  1  0
  3  4  1  0
  4  5  2  0
  5  6  1  0
  7  6  2  0
  8  7  1  0
  9  4  1  0
  9  8  2  0
 10 11  2  0
 12 13  1  0
 12 10  1  0
 13 14  1  0
 14 15  2  0
 14 18  1  0
 17 16  1  1
 17 19  1  0
 18 17  1  0
 19 21  1  0
 20 19  2  0
M  END
$$$$
