FGA.pdb
     RDKit          3D

 21 21  0  0  1  0  0  0  0  0999 V2000
    6.6967  -16.3732   24.6534 N   0  0  0  0  0  0  0  0  0  0  0  0
    7.1910  -15.9774   23.3520 C   0  0  1  0  0  0  0  0  0  0  0  0
    6.7439  -14.5220   23.1561 C   0  0  0  0  0  0  0  0  0  0  0  0
    6.9064  -13.7331   24.3916 C   0  0  0  0  0  0  0  0  0  0  0  0
    5.9445  -13.8456   25.3916 C   0  0  0  0  0  0  0  0  0  0  0  0
    6.0219  -13.1456   26.5714 C   0  0  0  0  0  0  0  0  0  0  0  0
    7.1040  -12.3098   26.7403 C   0  0  0  0  0  0  0  0  0  0  0  0
    8.0671  -12.1871   25.7575 C   0  0  0  0  0  0  0  0  0  0  0  0
    7.9664  -12.9036   24.5768 C   0  0  0  0  0  0  0  0  0  0  0  0
    8.6801  -15.9422   23.3256 C   0  0  0  0  0  0  0  0  0  0  0  0
    9.2382  -15.2500   22.4407 O   0  0  0  0  0  0  0  0  0  0  0  0
    9.4922  -16.6446   24.2411 N   0  0  0  0  0  0  0  0  0  0  0  0
   10.8834  -16.4563   24.4444 C   0  0  0  0  0  0  0  0  0  0  0  0
   11.3031  -15.9179   25.7385 C   0  0  0  0  0  0  0  0  0  0  0  0
   12.5468  -15.8953   25.9444 O   0  0  0  0  0  0  0  0  0  0  0  0
   10.2940  -13.9520   28.6212 C   0  0  0  0  0  0  0  0  0  0  0  0
   11.0615  -15.1243   28.0501 C   0  0  2  0  0  0  0  0  0  0  0  0
   10.4615  -15.4296   26.7651 N   0  0  0  0  0  0  0  0  0  0  0  0
   10.8621  -16.2777   28.9721 C   0  0  0  0  0  0  0  0  0  0  0  0
   10.2087  -17.2740   28.5700 O   0  0  0  0  0  0  0  0  0  0  0  0
   11.3619  -16.3089   30.2559 O   0  0  0  0  0  0  0  0  0  0  0  0
  2  1  1  1
  2 10  1  0
  3  2  1  0
  3  4  1  0
  4  5  2  0
  5  6  1  0
  7  6  2  0
  8  7  1  0
  9  4  1  0
  9  8  2  0
 10 11  2  0
 12 13  1  0
 12 10  1  0
 13 14  1  0
 14 15  2  0
 14 18  1  0
 17 16  1  1
 17 19  1  0
 18 17  1  0
 19 21  1  0
 20 19  2  0
M  END
$$$$
