FGA.pdb
     RDKit          3D

 21 21  0  0  1  0  0  0  0  0999 V2000
    7.3096  -14.2505   22.4623 N   0  0  0  0  0  0  0  0  0  0  0  0
    8.3690  -14.4431   23.4294 C   0  0  1  0  0  0  0  0  0  0  0  0
    7.6720  -14.6854   24.7755 C   0  0  0  0  0  0  0  0  0  0  0  0
    7.1244  -13.4359   25.3359 C   0  0  0  0  0  0  0  0  0  0  0  0
    7.9610  -12.3295   25.4539 C   0  0  0  0  0  0  0  0  0  0  0  0
    7.5291  -11.1295   25.9653 C   0  0  0  0  0  0  0  0  0  0  0  0
    6.2137  -11.0508   26.3674 C   0  0  0  0  0  0  0  0  0  0  0  0
    5.3709  -12.1398   26.2568 C   0  0  0  0  0  0  0  0  0  0  0  0
    5.8303  -13.3387   25.7379 C   0  0  0  0  0  0  0  0  0  0  0  0
    9.1376  -15.6883   23.1505 C   0  0  0  0  0  0  0  0  0  0  0  0
    9.3404  -16.0006   21.9525 O   0  0  0  0  0  0  0  0  0  0  0  0
    9.6474  -16.5318   24.1604 N   0  0  0  0  0  0  0  0  0  0  0  0
   11.0153  -16.7173   24.4869 C   0  0  0  0  0  0  0  0  0  0  0  0
   11.4227  -16.4116   25.8585 C   0  0  0  0  0  0  0  0  0  0  0  0
   12.6409  -16.6008   26.1225 O   0  0  0  0  0  0  0  0  0  0  0  0
   10.3166  -14.7352   28.9362 C   0  0  0  0  0  0  0  0  0  0  0  0
   11.1920  -15.7311   28.2069 C   0  0  2  0  0  0  0  0  0  0  0  0
   10.5945  -15.9335   26.9007 N   0  0  0  0  0  0  0  0  0  0  0  0
   11.1444  -17.0086   28.9724 C   0  0  0  0  0  0  0  0  0  0  0  0
   10.5726  -18.0050   28.4612 O   0  0  0  0  0  0  0  0  0  0  0  0
   11.7007  -17.1557   30.2246 O   0  0  0  0  0  0  0  0  0  0  0  0
  2  1  1  6
  2 10  1  0
  3  2  1  0
  3  4  1  0
  4  5  2  0
  5  6  1  0
  7  6  2  0
  8  7  1  0
  9  4  1  0
  9  8  2  0
 10 11  2  0
 12 13  1  0
 12 10  1  0
 13 14  1  0
 14 15  2  0
 14 18  1  0
 17 16  1  1
 17 19  1  0
 18 17  1  0
 19 21  1  0
 20 19  2  0
M  END
$$$$
