FGA.pdb
     RDKit          3D

 21 21  0  0  1  0  0  0  0  0999 V2000
    7.0373  -15.6772   24.3156 N   0  0  0  0  0  0  0  0  0  0  0  0
    7.2836  -14.6366   23.3404 C   0  0  1  0  0  0  0  0  0  0  0  0
    8.1387  -13.5818   24.0563 C   0  0  0  0  0  0  0  0  0  0  0  0
    7.4216  -12.9863   25.1993 C   0  0  0  0  0  0  0  0  0  0  0  0
    8.0715  -12.8969   26.4271 C   0  0  0  0  0  0  0  0  0  0  0  0
    7.4742  -12.3562   27.5401 C   0  0  0  0  0  0  0  0  0  0  0  0
    6.1836  -11.8942   27.4030 C   0  0  0  0  0  0  0  0  0  0  0  0
    5.5249  -11.9756   26.1914 C   0  0  0  0  0  0  0  0  0  0  0  0
    6.1488  -12.5251   25.0839 C   0  0  0  0  0  0  0  0  0  0  0  0
    8.1258  -15.1348   22.2172 C   0  0  0  0  0  0  0  0  0  0  0  0
    8.5181  -14.3058   21.3612 O   0  0  0  0  0  0  0  0  0  0  0  0
    8.5038  -16.4860   22.0668 N   0  0  0  0  0  0  0  0  0  0  0  0
    9.7524  -16.9594   21.5882 C   0  0  0  0  0  0  0  0  0  0  0  0
   10.8456  -17.0578   22.5557 C   0  0  0  0  0  0  0  0  0  0  0  0
   11.9734  -17.3575   22.0785 O   0  0  0  0  0  0  0  0  0  0  0  0
   11.8540  -16.2970   25.9899 C   0  0  0  0  0  0  0  0  0  0  0  0
   11.9211  -17.1766   24.7604 C   0  0  2  0  0  0  0  0  0  0  0  0
   10.7601  -16.8538   23.9528 N   0  0  0  0  0  0  0  0  0  0  0  0
   11.8226  -18.5906   25.2197 C   0  0  0  0  0  0  0  0  0  0  0  0
   12.7149  -19.0492   25.9777 O   0  0  0  0  0  0  0  0  0  0  0  0
   10.7932  -19.4302   24.8527 O   0  0  0  0  0  0  0  0  0  0  0  0
  2  1  1  1
  2 10  1  0
  3  2  1  0
  3  4  1  0
  4  5  2  0
  5  6  1  0
  7  6  2  0
  8  7  1  0
  9  4  1  0
  9  8  2  0
 10 11  2  0
 12 13  1  0
 12 10  1  0
 13 14  1  0
 14 15  2  0
 14 18  1  0
 17 16  1  1
 17 19  1  0
 18 17  1  0
 19 21  1  0
 20 19  2  0
M  END
$$$$
