FGA.pdb
     RDKit          3D

 21 21  0  0  1  0  0  0  0  0999 V2000
    7.7602  -16.5531   26.2596 N   0  0  0  0  0  0  0  0  0  0  0  0
    6.6033  -16.4304   25.3986 C   0  0  1  0  0  0  0  0  0  0  0  0
    6.7509  -15.0798   24.6841 C   0  0  0  0  0  0  0  0  0  0  0  0
    6.7249  -13.9553   25.6380 C   0  0  0  0  0  0  0  0  0  0  0  0
    7.8862  -13.2128   25.8327 C   0  0  0  0  0  0  0  0  0  0  0  0
    7.9454  -12.1509   26.7027 C   0  0  0  0  0  0  0  0  0  0  0  0
    6.7957  -11.8347   27.3929 C   0  0  0  0  0  0  0  0  0  0  0  0
    5.6353  -12.5618   27.2108 C   0  0  0  0  0  0  0  0  0  0  0  0
    5.6011  -13.6280   26.3279 C   0  0  0  0  0  0  0  0  0  0  0  0
    6.6211  -17.4554   24.3177 C   0  0  0  0  0  0  0  0  0  0  0  0
    5.7769  -17.3547   23.3952 O   0  0  0  0  0  0  0  0  0  0  0  0
    7.5349  -18.5299   24.2779 N   0  0  0  0  0  0  0  0  0  0  0  0
    8.2442  -18.9861   23.1373 C   0  0  0  0  0  0  0  0  0  0  0  0
    9.4393  -18.2366   22.7491 C   0  0  0  0  0  0  0  0  0  0  0  0
   10.2542  -18.8512   22.0091 O   0  0  0  0  0  0  0  0  0  0  0  0
   10.9724  -14.9479   22.5331 C   0  0  0  0  0  0  0  0  0  0  0  0
   11.0991  -16.4280   22.8212 C   0  0  2  0  0  0  0  0  0  0  0  0
    9.7641  -16.9107   23.1195 N   0  0  0  0  0  0  0  0  0  0  0  0
   11.9561  -16.5733   24.0314 C   0  0  0  0  0  0  0  0  0  0  0  0
   13.1756  -16.2763   23.9545 O   0  0  0  0  0  0  0  0  0  0  0  0
   11.4760  -17.0210   25.2431 O   0  0  0  0  0  0  0  0  0  0  0  0
  2  1  1  1
  2 10  1  0
  3  2  1  0
  3  4  1  0
  4  5  2  0
  5  6  1  0
  7  6  2  0
  8  7  1  0
  9  4  1  0
  9  8  2  0
 10 11  2  0
 12 13  1  0
 12 10  1  0
 13 14  1  0
 14 15  2  0
 14 18  1  0
 17 16  1  1
 17 19  1  0
 18 17  1  0
 19 21  1  0
 20 19  2  0
M  END
$$$$
