FGA.pdb
     RDKit          3D

 21 21  0  0  1  0  0  0  0  0999 V2000
    8.6520  -15.7605   25.0267 N   0  0  0  0  0  0  0  0  0  0  0  0
    7.2451  -15.9551   24.7485 C   0  0  1  0  0  0  0  0  0  0  0  0
    6.6982  -14.5754   24.3562 C   0  0  0  0  0  0  0  0  0  0  0  0
    6.8467  -13.6007   25.4530 C   0  0  0  0  0  0  0  0  0  0  0  0
    7.9970  -12.8184   25.5051 C   0  0  0  0  0  0  0  0  0  0  0  0
    8.2121  -11.8881   26.4931 C   0  0  0  0  0  0  0  0  0  0  0  0
    7.2340  -11.7484   27.4532 C   0  0  0  0  0  0  0  0  0  0  0  0
    6.0868  -12.5172   27.4156 C   0  0  0  0  0  0  0  0  0  0  0  0
    5.8934  -13.4484   26.4090 C   0  0  0  0  0  0  0  0  0  0  0  0
    7.0437  -16.8173   23.5505 C   0  0  0  0  0  0  0  0  0  0  0  0
    6.0257  -17.5495   23.5150 O   0  0  0  0  0  0  0  0  0  0  0  0
    7.9355  -16.8528   22.4575 N   0  0  0  0  0  0  0  0  0  0  0  0
    8.7410  -17.9533   22.0675 C   0  0  0  0  0  0  0  0  0  0  0  0
   10.0906  -18.0258   22.6278 C   0  0  0  0  0  0  0  0  0  0  0  0
   10.8716  -18.8432   22.0697 O   0  0  0  0  0  0  0  0  0  0  0  0
   12.7226  -16.2315   23.8922 C   0  0  0  0  0  0  0  0  0  0  0  0
   11.9651  -17.5194   24.1316 C   0  0  2  0  0  0  0  0  0  0  0  0
   10.5951  -17.2803   23.7189 N   0  0  0  0  0  0  0  0  0  0  0  0
   11.9973  -17.7880   25.5968 C   0  0  0  0  0  0  0  0  0  0  0  0
   13.0895  -18.1009   26.1357 O   0  0  0  0  0  0  0  0  0  0  0  0
   10.8801  -17.7105   26.3999 O   0  0  0  0  0  0  0  0  0  0  0  0
  2  1  1  6
  2 10  1  0
  3  2  1  0
  3  4  1  0
  4  5  2  0
  5  6  1  0
  7  6  2  0
  8  7  1  0
  9  4  1  0
  9  8  2  0
 10 11  2  0
 12 13  1  0
 12 10  1  0
 13 14  1  0
 14 15  2  0
 14 18  1  0
 17 16  1  1
 17 19  1  0
 18 17  1  0
 19 21  1  0
 20 19  2  0
M  END
$$$$
