FGA.pdb
     RDKit          3D

 21 21  0  0  1  0  0  0  0  0999 V2000
    9.2887  -14.1563   22.1100 N   0  0  0  0  0  0  0  0  0  0  0  0
    8.8766  -14.7891   23.3447 C   0  0  1  0  0  0  0  0  0  0  0  0
    7.3575  -14.5877   23.4350 C   0  0  0  0  0  0  0  0  0  0  0  0
    7.0029  -13.5803   24.4521 C   0  0  0  0  0  0  0  0  0  0  0  0
    7.2822  -12.2408   24.1965 C   0  0  0  0  0  0  0  0  0  0  0  0
    6.9839  -11.2415   25.0912 C   0  0  0  0  0  0  0  0  0  0  0  0
    6.3866  -11.6119   26.2762 C   0  0  0  0  0  0  0  0  0  0  0  0
    6.1030  -12.9370   26.5448 C   0  0  0  0  0  0  0  0  0  0  0  0
    6.4135  -13.9259   25.6265 C   0  0  0  0  0  0  0  0  0  0  0  0
    9.0791  -16.2640   23.2916 C   0  0  0  0  0  0  0  0  0  0  0  0
    9.3854  -16.7782   22.1891 O   0  0  0  0  0  0  0  0  0  0  0  0
    8.9447  -17.1096   24.4133 N   0  0  0  0  0  0  0  0  0  0  0  0
    9.9973  -17.7725   25.0950 C   0  0  0  0  0  0  0  0  0  0  0  0
   10.5915  -17.0822   26.2400 C   0  0  0  0  0  0  0  0  0  0  0  0
   11.7923  -17.3730   26.4913 O   0  0  0  0  0  0  0  0  0  0  0  0
   10.0030  -14.3072   28.5992 C   0  0  0  0  0  0  0  0  0  0  0  0
   10.7350  -15.5563   28.1590 C   0  0  2  0  0  0  0  0  0  0  0  0
    9.9584  -16.1363   27.0797 N   0  0  0  0  0  0  0  0  0  0  0  0
   10.7468  -16.4954   29.3157 C   0  0  0  0  0  0  0  0  0  0  0  0
   11.3579  -16.1645   30.3637 O   0  0  0  0  0  0  0  0  0  0  0  0
   10.1161  -17.7205   29.2958 O   0  0  0  0  0  0  0  0  0  0  0  0
  2  1  1  6
  2 10  1  0
  3  2  1  0
  3  4  1  0
  4  5  2  0
  5  6  1  0
  7  6  2  0
  8  7  1  0
  9  4  1  0
  9  8  2  0
 10 11  2  0
 12 13  1  0
 12 10  1  0
 13 14  1  0
 14 15  2  0
 14 18  1  0
 17 16  1  1
 17 19  1  0
 18 17  1  0
 19 21  1  0
 20 19  2  0
M  END
$$$$
