FGA.pdb
     RDKit          3D

 21 21  0  0  1  0  0  0  0  0999 V2000
    7.3242  -14.3354   23.7117 N   0  0  0  0  0  0  0  0  0  0  0  0
    7.4908  -15.6032   24.3896 C   0  0  1  0  0  0  0  0  0  0  0  0
    6.6856  -15.4939   25.6919 C   0  0  0  0  0  0  0  0  0  0  0  0
    6.9122  -14.2004   26.3633 C   0  0  0  0  0  0  0  0  0  0  0  0
    5.8360  -13.3338   26.5323 C   0  0  0  0  0  0  0  0  0  0  0  0
    5.9629  -12.1114   27.1468 C   0  0  0  0  0  0  0  0  0  0  0  0
    7.2149  -11.7597   27.6015 C   0  0  0  0  0  0  0  0  0  0  0  0
    8.2930  -12.6086   27.4414 C   0  0  0  0  0  0  0  0  0  0  0  0
    8.1393  -13.8357   26.8185 C   0  0  0  0  0  0  0  0  0  0  0  0
    6.8591  -16.7142   23.6243 C   0  0  0  0  0  0  0  0  0  0  0  0
    7.1361  -17.8918   23.9566 O   0  0  0  0  0  0  0  0  0  0  0  0
    5.9683  -16.5114   22.5488 N   0  0  0  0  0  0  0  0  0  0  0  0
    6.1157  -17.0154   21.2311 C   0  0  0  0  0  0  0  0  0  0  0  0
    6.9410  -16.2381   20.3063 C   0  0  0  0  0  0  0  0  0  0  0  0
    7.1266  -16.7551   19.1715 O   0  0  0  0  0  0  0  0  0  0  0  0
    8.0779  -12.8445   19.6670 C   0  0  0  0  0  0  0  0  0  0  0  0
    8.2495  -14.3351   19.4707 C   0  0  2  0  0  0  0  0  0  0  0  0
    7.5427  -14.9832   20.5592 N   0  0  0  0  0  0  0  0  0  0  0  0
    9.7049  -14.6335   19.5832 C   0  0  0  0  0  0  0  0  0  0  0  0
   10.1206  -15.2754   20.5814 O   0  0  0  0  0  0  0  0  0  0  0  0
   10.6284  -14.2381   18.6398 O   0  0  0  0  0  0  0  0  0  0  0  0
  2  1  1  6
  2 10  1  0
  3  2  1  0
  3  4  1  0
  4  5  2  0
  5  6  1  0
  7  6  2  0
  8  7  1  0
  9  4  1  0
  9  8  2  0
 10 11  2  0
 12 13  1  0
 12 10  1  0
 13 14  1  0
 14 15  2  0
 14 18  1  0
 17 16  1  1
 17 19  1  0
 18 17  1  0
 19 21  1  0
 20 19  2  0
M  END
$$$$
