HPI.pdb
     RDKit          3D

 26 27  0  0  1  0  0  0  0  0999 V2000
   22.1973  -21.3012  -13.9812 N   0  0  0  0  0  0  0  0  0  0  0  0
   21.8805  -20.6539  -12.7381 C   0  0  1  0  0  0  0  0  0  0  0  0
   20.5869  -19.8916  -12.9568 C   0  0  0  0  0  0  0  0  0  0  0  0
   20.7315  -18.8831  -14.0384 C   0  0  0  0  0  0  0  0  0  0  0  0
   21.6630  -18.8954  -15.0574 C   0  0  0  0  0  0  0  0  0  0  0  0
   21.4727  -17.8153  -15.8332 N   0  0  0  0  0  0  0  0  0  0  0  0
   20.4362  -17.1135  -15.3278 C   0  0  0  0  0  0  0  0  0  0  0  0
   19.9932  -17.7678  -14.2403 N   0  0  0  0  0  0  0  0  0  0  0  0
   21.7280  -21.5789  -11.5966 C   0  0  0  0  0  0  0  0  0  0  0  0
   21.4072  -22.7892  -11.9120 O   0  0  0  0  0  0  0  0  0  0  0  0
   21.9085  -21.2217  -10.2375 N   0  0  0  0  0  0  0  0  0  0  0  0
   22.1694  -19.8295   -9.8378 C   0  0  0  0  0  0  0  0  0  0  0  0
   23.3064  -20.0443   -8.8599 C   0  0  0  0  0  0  0  0  0  0  0  0
   22.8906  -21.2891   -8.1291 C   0  0  0  0  0  0  0  0  0  0  0  0
   21.8744  -21.9875   -9.0347 C   0  0  1  0  0  0  0  0  0  0  0  0
   20.5297  -22.0177   -8.3951 C   0  0  0  0  0  0  0  0  0  0  0  0
   19.8494  -20.9676   -8.3660 O   0  0  0  0  0  0  0  0  0  0  0  0
   15.7345  -25.0431   -9.4235 C   0  0  0  0  0  0  0  0  0  0  0  0
   16.3603  -24.2600   -8.2916 C   0  0  0  0  0  0  0  0  0  0  0  0
   17.8333  -24.0976   -8.6156 C   0  0  2  0  0  0  0  0  0  0  0  0
   18.4185  -25.4783   -8.8021 C   0  0  0  0  0  0  0  0  0  0  0  0
   18.5604  -23.3295   -7.5309 C   0  0  2  0  0  0  0  0  0  0  0  0
   19.9561  -23.1761   -7.8055 N   0  0  0  0  0  0  0  0  0  0  0  0
   18.2768  -23.8693   -6.1848 C   0  0  0  0  0  0  0  0  0  0  0  0
   19.2673  -24.4398   -5.3731 O   0  0  0  0  0  0  0  0  0  0  0  0
   17.1289  -23.8565   -5.6698 O   0  0  0  0  0  0  0  0  0  0  0  0
  2  1  1  6
  3  2  1  0
  4  3  1  0
  5  4  2  0
  6  7  1  0
  6  5  1  0
  7  8  2  0
  8  4  1  0
  9 11  1  0
  9  2  1  0
 10  9  2  0
 11 15  1  0
 12 13  1  0
 12 11  1  0
 13 14  1  0
 15 14  1  0
 15 16  1  1
 16 17  2  0
 18 19  1  0
 19 20  1  0
 20 21  1  1
 20 22  1  0
 22 24  1  0
 22 23  1  6
 23 16  1  0
 24 25  1  0
 26 24  2  0
M  END
$$$$
