HPI.pdb
     RDKit          3D

 26 27  0  0  1  0  0  0  0  0999 V2000
   14.8241  -26.9535   -8.9625 N   0  0  0  0  0  0  0  0  0  0  0  0
   14.2685  -26.6149   -7.6814 C   0  0  1  0  0  0  0  0  0  0  0  0
   13.5027  -27.8327   -7.1989 C   0  0  0  0  0  0  0  0  0  0  0  0
   12.3855  -28.1669   -8.1197 C   0  0  0  0  0  0  0  0  0  0  0  0
   12.2570  -29.3142   -8.8771 C   0  0  0  0  0  0  0  0  0  0  0  0
   11.1136  -29.2457   -9.5789 N   0  0  0  0  0  0  0  0  0  0  0  0
   10.5095  -28.0752   -9.2832 C   0  0  0  0  0  0  0  0  0  0  0  0
   11.2873  -27.4279   -8.3983 N   0  0  0  0  0  0  0  0  0  0  0  0
   15.2728  -26.2242   -6.6712 C   0  0  0  0  0  0  0  0  0  0  0  0
   16.4795  -26.6095   -6.9216 O   0  0  0  0  0  0  0  0  0  0  0  0
   14.9919  -25.4822   -5.4974 N   0  0  0  0  0  0  0  0  0  0  0  0
   13.6194  -25.0731   -5.1580 C   0  0  0  0  0  0  0  0  0  0  0  0
   13.8627  -23.6286   -4.7711 C   0  0  0  0  0  0  0  0  0  0  0  0
   15.1585  -23.6970   -4.0142 C   0  0  0  0  0  0  0  0  0  0  0  0
   15.8277  -25.0033   -4.4455 C   0  0  1  0  0  0  0  0  0  0  0  0
   15.9294  -25.9486   -3.2990 C   0  0  0  0  0  0  0  0  0  0  0  0
   14.9653  -26.7078   -3.0530 O   0  0  0  0  0  0  0  0  0  0  0  0
   21.0401  -27.5153   -1.4099 C   0  0  0  0  0  0  0  0  0  0  0  0
   19.7398  -26.7437   -1.4086 C   0  0  0  0  0  0  0  0  0  0  0  0
   18.6196  -27.7471   -1.6065 C   0  0  2  0  0  0  0  0  0  0  0  0
   18.8103  -28.3886   -2.9614 C   0  0  0  0  0  0  0  0  0  0  0  0
   17.2585  -27.0920   -1.4903 C   0  0  2  0  0  0  0  0  0  0  0  0
   17.0647  -26.0496   -2.4509 N   0  0  0  0  0  0  0  0  0  0  0  0
   16.9573  -26.6829   -0.1026 C   0  0  0  0  0  0  0  0  0  0  0  0
   16.8479  -25.3400    0.2846 O   0  0  0  0  0  0  0  0  0  0  0  0
   16.7774  -27.5074    0.8307 O   0  0  0  0  0  0  0  0  0  0  0  0
  2  1  1  6
  3  2  1  0
  4  3  1  0
  5  4  2  0
  6  7  1  0
  6  5  1  0
  7  8  2  0
  8  4  1  0
  9 11  1  0
  9  2  1  0
 10  9  2  0
 11 15  1  0
 12 13  1  0
 12 11  1  0
 13 14  1  0
 15 14  1  0
 15 16  1  1
 16 17  2  0
 18 19  1  0
 19 20  1  0
 20 21  1  6
 20 22  1  0
 22 24  1  0
 22 23  1  6
 23 16  1  0
 24 25  1  0
 26 24  2  0
M  END
$$$$
