HPI.pdb
     RDKit          3D

 26 27  0  0  1  0  0  0  0  0999 V2000
   24.8983  -21.8410  -12.6111 N   0  0  0  0  0  0  0  0  0  0  0  0
   25.9493  -20.9821  -12.1398 C   0  0  1  0  0  0  0  0  0  0  0  0
   25.3912  -19.5711  -12.1272 C   0  0  0  0  0  0  0  0  0  0  0  0
   25.1523  -19.0733  -13.5066 C   0  0  0  0  0  0  0  0  0  0  0  0
   26.1121  -18.7838  -14.4559 C   0  0  0  0  0  0  0  0  0  0  0  0
   25.5021  -18.3597  -15.5752 N   0  0  0  0  0  0  0  0  0  0  0  0
   24.1700  -18.3732  -15.3575 C   0  0  0  0  0  0  0  0  0  0  0  0
   23.9671  -18.8069  -14.1015 N   0  0  0  0  0  0  0  0  0  0  0  0
   26.4578  -21.3299  -10.7973 C   0  0  0  0  0  0  0  0  0  0  0  0
   25.5786  -21.8212   -9.9894 O   0  0  0  0  0  0  0  0  0  0  0  0
   27.7986  -21.1603  -10.3723 N   0  0  0  0  0  0  0  0  0  0  0  0
   28.7985  -20.5035  -11.2296 C   0  0  0  0  0  0  0  0  0  0  0  0
   29.9568  -21.4670  -11.0700 C   0  0  0  0  0  0  0  0  0  0  0  0
   29.8941  -21.8294   -9.6135 C   0  0  0  0  0  0  0  0  0  0  0  0
   28.4691  -21.5051   -9.1614 C   0  0  1  0  0  0  0  0  0  0  0  0
   28.4708  -20.4054   -8.1569 C   0  0  0  0  0  0  0  0  0  0  0  0
   28.6428  -19.2288   -8.5476 O   0  0  0  0  0  0  0  0  0  0  0  0
   28.3572  -21.1538   -2.3443 C   0  0  0  0  0  0  0  0  0  0  0  0
   28.9437  -20.6547   -3.6454 C   0  0  0  0  0  0  0  0  0  0  0  0
   27.8171  -20.0095   -4.4300 C   0  0  2  0  0  0  0  0  0  0  0  0
   26.6966  -21.0174   -4.5398 C   0  0  0  0  0  0  0  0  0  0  0  0
   28.2830  -19.5481   -5.7957 C   0  0  2  0  0  0  0  0  0  0  0  0
   28.2877  -20.6032   -6.7620 N   0  0  0  0  0  0  0  0  0  0  0  0
   29.5579  -18.8042   -5.7240 C   0  0  0  0  0  0  0  0  0  0  0  0
   29.6710  -17.5526   -5.1026 O   0  0  0  0  0  0  0  0  0  0  0  0
   30.6325  -19.2383   -6.2141 O   0  0  0  0  0  0  0  0  0  0  0  0
  2  1  1  1
  3  2  1  0
  4  3  1  0
  5  4  2  0
  6  7  1  0
  6  5  1  0
  7  8  2  0
  8  4  1  0
  9 11  1  0
  9  2  1  0
 10  9  2  0
 11 15  1  0
 12 13  1  0
 12 11  1  0
 13 14  1  0
 15 14  1  0
 15 16  1  1
 16 17  2  0
 18 19  1  0
 19 20  1  0
 20 21  1  6
 20 22  1  0
 22 24  1  0
 22 23  1  6
 23 16  1  0
 24 25  1  0
 26 24  2  0
M  END
$$$$
