HPI.pdb
     RDKit          3D

 26 27  0  0  1  0  0  0  0  0999 V2000
   27.7217  -20.7682  -17.8023 N   0  0  0  0  0  0  0  0  0  0  0  0
   27.8685  -20.0194  -16.5848 C   0  0  1  0  0  0  0  0  0  0  0  0
   26.9451  -18.8202  -16.6925 C   0  0  0  0  0  0  0  0  0  0  0  0
   27.2984  -17.9704  -17.8590 C   0  0  0  0  0  0  0  0  0  0  0  0
   28.2787  -16.9991  -17.9040 C   0  0  0  0  0  0  0  0  0  0  0  0
   28.2923  -16.4523  -19.1310 N   0  0  0  0  0  0  0  0  0  0  0  0
   27.3384  -17.0570  -19.8703 C   0  0  0  0  0  0  0  0  0  0  0  0
   26.7411  -17.9756  -19.0915 N   0  0  0  0  0  0  0  0  0  0  0  0
   27.5517  -20.7853  -15.3622 C   0  0  0  0  0  0  0  0  0  0  0  0
   26.6430  -21.6916  -15.5042 O   0  0  0  0  0  0  0  0  0  0  0  0
   28.1664  -20.5854  -14.1015 N   0  0  0  0  0  0  0  0  0  0  0  0
   29.1870  -19.5440  -13.9016 C   0  0  0  0  0  0  0  0  0  0  0  0
   30.2207  -20.3332  -13.1244 C   0  0  0  0  0  0  0  0  0  0  0  0
   29.3807  -21.1740  -12.2058 C   0  0  0  0  0  0  0  0  0  0  0  0
   27.9888  -21.2243  -12.8386 C   0  0  1  0  0  0  0  0  0  0  0  0
   26.9887  -20.5426  -11.9706 C   0  0  0  0  0  0  0  0  0  0  0  0
   26.9945  -19.2926  -11.9068 O   0  0  0  0  0  0  0  0  0  0  0  0
   21.2419  -20.3124  -11.7689 C   0  0  0  0  0  0  0  0  0  0  0  0
   22.4338  -20.0316  -10.8820 C   0  0  0  0  0  0  0  0  0  0  0  0
   23.6084  -20.8089  -11.4451 C   0  0  2  0  0  0  0  0  0  0  0  0
   23.2161  -22.2676  -11.4898 C   0  0  0  0  0  0  0  0  0  0  0  0
   24.8622  -20.5974  -10.6215 C   0  0  2  0  0  0  0  0  0  0  0  0
   26.0120  -21.2249  -11.1968 N   0  0  0  0  0  0  0  0  0  0  0  0
   24.6531  -20.9340   -9.1978 C   0  0  0  0  0  0  0  0  0  0  0  0
   25.3719  -21.9451   -8.5448 O   0  0  0  0  0  0  0  0  0  0  0  0
   23.8170  -20.3396   -8.4692 O   0  0  0  0  0  0  0  0  0  0  0  0
  2  1  1  6
  3  2  1  0
  4  3  1  0
  5  4  2  0
  6  7  1  0
  6  5  1  0
  7  8  2  0
  8  4  1  0
  9 11  1  0
  9  2  1  0
 10  9  2  0
 11 15  1  0
 12 13  1  0
 12 11  1  0
 13 14  1  0
 15 14  1  0
 15 16  1  1
 16 17  2  0
 18 19  1  0
 19 20  1  0
 20 21  1  1
 20 22  1  0
 22 24  1  0
 22 23  1  6
 23 16  1  0
 24 25  1  0
 26 24  2  0
M  END
$$$$
