HPI.pdb
     RDKit          3D

 26 27  0  0  1  0  0  0  0  0999 V2000
   23.2401  -21.6910  -13.4394 N   0  0  0  0  0  0  0  0  0  0  0  0
   24.2133  -20.7466  -12.9648 C   0  0  1  0  0  0  0  0  0  0  0  0
   23.4922  -19.4230  -12.7898 C   0  0  0  0  0  0  0  0  0  0  0  0
   23.2617  -18.7572  -14.0980 C   0  0  0  0  0  0  0  0  0  0  0  0
   24.2056  -18.1113  -14.8714 C   0  0  0  0  0  0  0  0  0  0  0  0
   23.6104  -17.6402  -15.9798 N   0  0  0  0  0  0  0  0  0  0  0  0
   22.3034  -17.9737  -15.9280 C   0  0  0  0  0  0  0  0  0  0  0  0
   22.1010  -18.6505  -14.7843 N   0  0  0  0  0  0  0  0  0  0  0  0
   24.8620  -21.1333  -11.6955 C   0  0  0  0  0  0  0  0  0  0  0  0
   24.1088  -21.7817  -10.8712 O   0  0  0  0  0  0  0  0  0  0  0  0
   26.2060  -20.8430  -11.3536 N   0  0  0  0  0  0  0  0  0  0  0  0
   27.0214  -19.9211  -12.1607 C   0  0  0  0  0  0  0  0  0  0  0  0
   28.3040  -20.7213  -12.2601 C   0  0  0  0  0  0  0  0  0  0  0  0
   28.4359  -21.3169  -10.8874 C   0  0  0  0  0  0  0  0  0  0  0  0
   27.0340  -21.2768  -10.2763 C   0  0  1  0  0  0  0  0  0  0  0  0
   26.9958  -20.3629   -9.1008 C   0  0  0  0  0  0  0  0  0  0  0  0
   26.7803  -19.1443   -9.2882 O   0  0  0  0  0  0  0  0  0  0  0  0
   29.2900  -20.4553   -3.9726 C   0  0  0  0  0  0  0  0  0  0  0  0
   28.6458  -21.2308   -5.0994 C   0  0  0  0  0  0  0  0  0  0  0  0
   27.2600  -20.6513   -5.3115 C   0  0  2  0  0  0  0  0  0  0  0  0
   26.2695  -21.7905   -5.2443 C   0  0  0  0  0  0  0  0  0  0  0  0
   27.1626  -19.9092   -6.6287 C   0  0  2  0  0  0  0  0  0  0  0  0
   27.1907  -20.7862   -7.7587 N   0  0  0  0  0  0  0  0  0  0  0  0
   28.1369  -18.8013   -6.7137 C   0  0  0  0  0  0  0  0  0  0  0  0
   29.2362  -18.8240   -7.5835 O   0  0  0  0  0  0  0  0  0  0  0  0
   28.0516  -17.7592   -6.0138 O   0  0  0  0  0  0  0  0  0  0  0  0
  2  1  1  1
  3  2  1  0
  4  3  1  0
  5  4  2  0
  6  7  1  0
  6  5  1  0
  7  8  2  0
  8  4  1  0
  9 11  1  0
  9  2  1  0
 10  9  2  0
 11 15  1  0
 12 13  1  0
 12 11  1  0
 13 14  1  0
 15 14  1  0
 15 16  1  1
 16 17  2  0
 18 19  1  0
 19 20  1  0
 20 21  1  6
 20 22  1  0
 22 24  1  0
 22 23  1  6
 23 16  1  0
 24 25  1  0
 26 24  2  0
M  END
$$$$
