HPI.pdb
     RDKit          3D

 26 27  0  0  1  0  0  0  0  0999 V2000
   24.2600  -21.8102  -13.0637 N   0  0  0  0  0  0  0  0  0  0  0  0
   25.2498  -20.8978  -12.5616 C   0  0  1  0  0  0  0  0  0  0  0  0
   24.5753  -19.5446  -12.4334 C   0  0  0  0  0  0  0  0  0  0  0  0
   24.2317  -18.9849  -13.7662 C   0  0  0  0  0  0  0  0  0  0  0  0
   25.1076  -18.4290  -14.6772 C   0  0  0  0  0  0  0  0  0  0  0  0
   24.4168  -18.0376  -15.7609 N   0  0  0  0  0  0  0  0  0  0  0  0
   23.1155  -18.3335  -15.5581 C   0  0  0  0  0  0  0  0  0  0  0  0
   23.0124  -18.9073  -14.3469 N   0  0  0  0  0  0  0  0  0  0  0  0
   25.8305  -21.2913  -11.2617 C   0  0  0  0  0  0  0  0  0  0  0  0
   25.0311  -21.9337  -10.4772 O   0  0  0  0  0  0  0  0  0  0  0  0
   27.1580  -21.0131  -10.8523 N   0  0  0  0  0  0  0  0  0  0  0  0
   28.0298  -20.1185  -11.6306 C   0  0  0  0  0  0  0  0  0  0  0  0
   29.3039  -20.9382  -11.6447 C   0  0  0  0  0  0  0  0  0  0  0  0
   29.3519  -21.5086  -10.2559 C   0  0  0  0  0  0  0  0  0  0  0  0
   27.9196  -21.4372   -9.7233 C   0  0  1  0  0  0  0  0  0  0  0  0
   27.8311  -20.5001   -8.5690 C   0  0  0  0  0  0  0  0  0  0  0  0
   27.5815  -19.2932   -8.7869 O   0  0  0  0  0  0  0  0  0  0  0  0
   30.1182  -20.3169   -3.5986 C   0  0  0  0  0  0  0  0  0  0  0  0
   29.4114  -21.2561   -4.5497 C   0  0  0  0  0  0  0  0  0  0  0  0
   28.0140  -20.7083   -4.7693 C   0  0  2  0  0  0  0  0  0  0  0  0
   27.0460  -21.8649   -4.6745 C   0  0  0  0  0  0  0  0  0  0  0  0
   27.8981  -19.9967   -6.1018 C   0  0  2  0  0  0  0  0  0  0  0  0
   28.0137  -20.8883   -7.2147 N   0  0  0  0  0  0  0  0  0  0  0  0
   28.7959  -18.8259   -6.1844 C   0  0  0  0  0  0  0  0  0  0  0  0
   28.5920  -17.6600   -5.4330 O   0  0  0  0  0  0  0  0  0  0  0  0
   29.8066  -18.7894   -6.9331 O   0  0  0  0  0  0  0  0  0  0  0  0
  2  1  1  1
  3  2  1  0
  4  3  1  0
  5  4  2  0
  6  7  1  0
  6  5  1  0
  7  8  2  0
  8  4  1  0
  9 11  1  0
  9  2  1  0
 10  9  2  0
 11 15  1  0
 12 13  1  0
 12 11  1  0
 13 14  1  0
 15 14  1  0
 15 16  1  1
 16 17  2  0
 18 19  1  0
 19 20  1  0
 20 21  1  6
 20 22  1  0
 22 24  1  0
 22 23  1  6
 23 16  1  0
 24 25  1  0
 26 24  2  0
M  END
$$$$
