CGP.pdb
     RDKit          3D

 18 18  0  0  1  0  0  0  0  0999 V2000
    8.2531  -16.0479   19.7494 N   0  0  0  0  0  0  0  0  0  0  0  0
    8.5180  -14.6050   19.8730 C   0  0  1  0  0  0  0  0  0  0  0  0
    7.8125  -13.9781   18.6824 C   0  0  0  0  0  0  0  0  0  0  0  0
    7.9349  -12.1791   18.6743 S   0  0  0  0  0  0  0  0  0  0  0  0
    7.9930  -14.1642   21.1686 C   0  0  0  0  0  0  0  0  0  0  0  0
    8.3131  -13.0202   21.6452 O   0  0  0  0  0  0  0  0  0  0  0  0
    7.1218  -14.9229   21.9822 N   0  0  0  0  0  0  0  0  0  0  0  0
    6.5709  -14.3840   23.2106 C   0  0  0  0  0  0  0  0  0  0  0  0
    7.5801  -14.2173   24.2590 C   0  0  0  0  0  0  0  0  0  0  0  0
    8.6315  -14.9372   24.2066 O   0  0  0  0  0  0  0  0  0  0  0  0
    7.3829  -13.2809   25.2953 N   0  0  0  0  0  0  0  0  0  0  0  0
    6.3031  -12.3135   25.3456 C   0  0  0  0  0  0  0  0  0  0  0  0
    6.0391  -12.2658   26.8564 C   0  0  0  0  0  0  0  0  0  0  0  0
    7.4821  -12.0929   27.3454 C   0  0  0  0  0  0  0  0  0  0  0  0
    8.2046  -13.0959   26.5027 C   0  0  1  0  0  0  0  0  0  0  0  0
    8.3960  -14.3584   27.2195 C   0  0  0  0  0  0  0  0  0  0  0  0
    7.5701  -15.2981   27.1190 O   0  0  0  0  0  0  0  0  0  0  0  0
    9.5009  -14.5491   28.0325 O   0  0  0  0  0  0  0  0  0  0  0  0
  2  1  1  6
  2  3  1  0
  3  4  1  0
  5  6  2  0
  5  2  1  0
  7  5  1  0
  8  9  1  0
  8  7  1  0
  9 11  1  0
 10  9  2  0
 11 12  1  0
 12 13  1  0
 14 13  1  0
 15 11  1  0
 15 14  1  0
 15 16  1  1
 16 17  2  0
 16 18  1  0
M  END
$$$$
