CGP.pdb
     RDKit          3D

 18 18  0  0  1  0  0  0  0  0999 V2000
   10.1347  -14.6408   19.8285 N   0  0  0  0  0  0  0  0  0  0  0  0
    8.8892  -13.9240   20.1482 C   0  0  1  0  0  0  0  0  0  0  0  0
    8.0147  -14.0991   18.9182 C   0  0  0  0  0  0  0  0  0  0  0  0
    6.2911  -13.6692   19.2278 S   0  0  0  0  0  0  0  0  0  0  0  0
    8.3274  -14.5248   21.3614 C   0  0  0  0  0  0  0  0  0  0  0  0
    8.6504  -15.7138   21.7084 O   0  0  0  0  0  0  0  0  0  0  0  0
    7.4161  -13.8810   22.2283 N   0  0  0  0  0  0  0  0  0  0  0  0
    6.8707  -14.5552   23.3906 C   0  0  0  0  0  0  0  0  0  0  0  0
    7.6729  -14.3423   24.5976 C   0  0  0  0  0  0  0  0  0  0  0  0
    8.6886  -15.0895   24.7884 O   0  0  0  0  0  0  0  0  0  0  0  0
    7.3208  -13.3333   25.5181 N   0  0  0  0  0  0  0  0  0  0  0  0
    6.2057  -12.4188   25.3613 C   0  0  0  0  0  0  0  0  0  0  0  0
    5.7669  -12.2579   26.8229 C   0  0  0  0  0  0  0  0  0  0  0  0
    7.1359  -11.9746   27.4531 C   0  0  0  0  0  0  0  0  0  0  0  0
    7.9894  -13.0082   26.7887 C   0  0  1  0  0  0  0  0  0  0  0  0
    8.1455  -14.1955   27.6316 C   0  0  0  0  0  0  0  0  0  0  0  0
    7.3985  -15.1950   27.4966 O   0  0  0  0  0  0  0  0  0  0  0  0
    9.1284  -14.2463   28.6060 O   0  0  0  0  0  0  0  0  0  0  0  0
  2  1  1  6
  2  3  1  0
  3  4  1  0
  5  6  2  0
  5  2  1  0
  7  5  1  0
  8  9  1  0
  8  7  1  0
  9 11  1  0
 10  9  2  0
 11 12  1  0
 12 13  1  0
 14 13  1  0
 15 11  1  0
 15 14  1  0
 15 16  1  1
 16 17  2  0
 16 18  1  0
M  END
$$$$
