CGP.pdb
     RDKit          3D

 18 18  0  0  1  0  0  0  0  0999 V2000
    9.4181  -19.4622   24.0933 N   0  0  0  0  0  0  0  0  0  0  0  0
    8.0299  -19.5524   24.5748 C   0  0  1  0  0  0  0  0  0  0  0  0
    8.0250  -20.7390   25.5235 C   0  0  0  0  0  0  0  0  0  0  0  0
    6.6651  -20.6741   26.7058 S   0  0  0  0  0  0  0  0  0  0  0  0
    7.6982  -18.2793   25.2213 C   0  0  0  0  0  0  0  0  0  0  0  0
    8.4564  -17.7949   26.1318 O   0  0  0  0  0  0  0  0  0  0  0  0
    6.5616  -17.4967   24.9177 N   0  0  0  0  0  0  0  0  0  0  0  0
    6.2726  -16.2702   25.6354 C   0  0  0  0  0  0  0  0  0  0  0  0
    7.1843  -15.1792   25.2830 C   0  0  0  0  0  0  0  0  0  0  0  0
    8.2851  -15.4720   24.7096 O   0  0  0  0  0  0  0  0  0  0  0  0
    6.8422  -13.8424   25.5756 N   0  0  0  0  0  0  0  0  0  0  0  0
    5.5086  -13.3812   25.9116 C   0  0  0  0  0  0  0  0  0  0  0  0
    5.8404  -12.2736   26.9204 C   0  0  0  0  0  0  0  0  0  0  0  0
    6.9180  -11.5348   26.1176 C   0  0  0  0  0  0  0  0  0  0  0  0
    7.7379  -12.6744   25.6004 C   0  0  1  0  0  0  0  0  0  0  0  0
    8.9106  -12.9157   26.4435 C   0  0  0  0  0  0  0  0  0  0  0  0
    8.8826  -13.7550   27.3764 O   0  0  0  0  0  0  0  0  0  0  0  0
   10.0888  -12.2193   26.2318 O   0  0  0  0  0  0  0  0  0  0  0  0
  2  1  1  1
  2  3  1  0
  3  4  1  0
  5  6  2  0
  5  2  1  0
  7  5  1  0
  8  9  1  0
  8  7  1  0
  9 11  1  0
 10  9  2  0
 11 12  1  0
 12 13  1  0
 14 13  1  0
 15 11  1  0
 15 14  1  0
 15 16  1  1
 16 17  2  0
 16 18  1  0
M  END
$$$$
