CGP.pdb
     RDKit          3D

 18 18  0  0  1  0  0  0  0  0999 V2000
    6.2855  -16.3961   20.4918 N   0  0  0  0  0  0  0  0  0  0  0  0
    7.4716  -15.6204   20.8900 C   0  0  1  0  0  0  0  0  0  0  0  0
    7.4383  -14.3823   20.0102 C   0  0  0  0  0  0  0  0  0  0  0  0
    8.7286  -13.1966   20.4352 S   0  0  0  0  0  0  0  0  0  0  0  0
    7.3546  -15.3296   22.3219 C   0  0  0  0  0  0  0  0  0  0  0  0
    6.2425  -14.9334   22.8166 O   0  0  0  0  0  0  0  0  0  0  0  0
    8.4085  -15.4522   23.2550 N   0  0  0  0  0  0  0  0  0  0  0  0
    8.2057  -15.1870   24.6661 C   0  0  0  0  0  0  0  0  0  0  0  0
    9.4197  -15.3881   25.4607 C   0  0  0  0  0  0  0  0  0  0  0  0
   10.2825  -16.2300   25.0446 O   0  0  0  0  0  0  0  0  0  0  0  0
    9.6182  -14.6631   26.6542 N   0  0  0  0  0  0  0  0  0  0  0  0
    8.8189  -13.5298   27.0799 C   0  0  0  0  0  0  0  0  0  0  0  0
    8.8211  -13.7398   28.5999 C   0  0  0  0  0  0  0  0  0  0  0  0
   10.3239  -13.9636   28.8076 C   0  0  0  0  0  0  0  0  0  0  0  0
   10.6443  -14.8974   27.6835 C   0  0  1  0  0  0  0  0  0  0  0  0
   10.6467  -16.2918   28.1306 C   0  0  0  0  0  0  0  0  0  0  0  0
    9.6015  -16.9864   28.1087 O   0  0  0  0  0  0  0  0  0  0  0  0
   11.8104  -16.8841   28.5922 O   0  0  0  0  0  0  0  0  0  0  0  0
  2  1  1  6
  2  3  1  0
  3  4  1  0
  5  6  2  0
  5  2  1  0
  7  5  1  0
  8  9  1  0
  8  7  1  0
  9 11  1  0
 10  9  2  0
 11 12  1  0
 12 13  1  0
 14 13  1  0
 15 11  1  0
 15 14  1  0
 15 16  1  1
 16 17  2  0
 16 18  1  0
M  END
$$$$
