CGP.pdb
     RDKit          3D

 18 18  0  0  1  0  0  0  0  0999 V2000
    7.5850  -16.9747   19.3544 N   0  0  0  0  0  0  0  0  0  0  0  0
    8.1551  -15.6992   19.8185 C   0  0  1  0  0  0  0  0  0  0  0  0
    8.0003  -14.7537   18.6394 C   0  0  0  0  0  0  0  0  0  0  0  0
    8.3524  -13.0400   19.0759 S   0  0  0  0  0  0  0  0  0  0  0  0
    7.4084  -15.2837   21.0094 C   0  0  0  0  0  0  0  0  0  0  0  0
    6.1308  -15.2098   20.9835 O   0  0  0  0  0  0  0  0  0  0  0  0
    7.9973  -14.9398   22.2469 N   0  0  0  0  0  0  0  0  0  0  0  0
    7.1985  -14.4654   23.3603 C   0  0  0  0  0  0  0  0  0  0  0  0
    8.0011  -14.1761   24.5510 C   0  0  0  0  0  0  0  0  0  0  0  0
    9.1327  -14.7515   24.6722 O   0  0  0  0  0  0  0  0  0  0  0  0
    7.5237  -13.2818   25.5318 N   0  0  0  0  0  0  0  0  0  0  0  0
    6.2776  -12.5442   25.4468 C   0  0  0  0  0  0  0  0  0  0  0  0
    5.8597  -12.5276   26.9231 C   0  0  0  0  0  0  0  0  0  0  0  0
    7.1858  -12.0683   27.5412 C   0  0  0  0  0  0  0  0  0  0  0  0
    8.1693  -12.9221   26.8050 C   0  0  1  0  0  0  0  0  0  0  0  0
    8.5291  -14.1122   27.5788 C   0  0  0  0  0  0  0  0  0  0  0  0
    9.5090  -14.1095   28.3630 O   0  0  0  0  0  0  0  0  0  0  0  0
    7.7922  -15.2792   27.4643 O   0  0  0  0  0  0  0  0  0  0  0  0
  2  1  1  6
  2  3  1  0
  3  4  1  0
  5  6  2  0
  5  2  1  0
  7  5  1  0
  8  9  1  0
  8  7  1  0
  9 11  1  0
 10  9  2  0
 11 12  1  0
 12 13  1  0
 14 13  1  0
 15 11  1  0
 15 14  1  0
 15 16  1  1
 16 17  2  0
 16 18  1  0
M  END
$$$$
