CGP.pdb
     RDKit          3D

 18 18  0  0  1  0  0  0  0  0999 V2000
    8.3397  -15.8115   18.5776 N   0  0  0  0  0  0  0  0  0  0  0  0
    8.9121  -14.9111   19.5919 C   0  0  1  0  0  0  0  0  0  0  0  0
    9.0689  -13.5771   18.8819 C   0  0  0  0  0  0  0  0  0  0  0  0
    7.4992  -12.7135   18.6774 S   0  0  0  0  0  0  0  0  0  0  0  0
    7.9847  -14.8698   20.7263 C   0  0  0  0  0  0  0  0  0  0  0  0
    6.8959  -15.5423   20.7015 O   0  0  0  0  0  0  0  0  0  0  0  0
    8.1910  -14.1186   21.9051 N   0  0  0  0  0  0  0  0  0  0  0  0
    7.3012  -14.2367   23.0441 C   0  0  0  0  0  0  0  0  0  0  0  0
    8.0050  -14.1416   24.3252 C   0  0  0  0  0  0  0  0  0  0  0  0
    9.0365  -14.8698   24.5043 O   0  0  0  0  0  0  0  0  0  0  0  0
    7.5438  -13.2632   25.3279 N   0  0  0  0  0  0  0  0  0  0  0  0
    6.4531  -12.3203   25.1681 C   0  0  0  0  0  0  0  0  0  0  0  0
    5.8437  -12.3547   26.5759 C   0  0  0  0  0  0  0  0  0  0  0  0
    7.1276  -12.1796   27.3960 C   0  0  0  0  0  0  0  0  0  0  0  0
    8.0562  -13.1245   26.7010 C   0  0  1  0  0  0  0  0  0  0  0  0
    8.1140  -14.4180   27.3850 C   0  0  0  0  0  0  0  0  0  0  0  0
    7.2937  -15.3316   27.1246 O   0  0  0  0  0  0  0  0  0  0  0  0
    9.0819  -14.6682   28.3434 O   0  0  0  0  0  0  0  0  0  0  0  0
  2  1  1  6
  2  3  1  0
  3  4  1  0
  5  6  2  0
  5  2  1  0
  7  5  1  0
  8  9  1  0
  8  7  1  0
  9 11  1  0
 10  9  2  0
 11 12  1  0
 12 13  1  0
 14 13  1  0
 15 11  1  0
 15 14  1  0
 15 16  1  1
 16 17  2  0
 16 18  1  0
M  END
$$$$
