CGP.pdb
     RDKit          3D

 18 18  0  0  1  0  0  0  0  0999 V2000
    7.6853  -16.0412   18.7530 N   0  0  0  0  0  0  0  0  0  0  0  0
    8.1814  -14.9064   19.5488 C   0  0  1  0  0  0  0  0  0  0  0  0
    7.9228  -13.6842   18.6841 C   0  0  0  0  0  0  0  0  0  0  0  0
    8.1877  -12.1385   19.5739 S   0  0  0  0  0  0  0  0  0  0  0  0
    7.4478  -14.8967   20.8178 C   0  0  0  0  0  0  0  0  0  0  0  0
    6.2161  -15.2424   20.8600 O   0  0  0  0  0  0  0  0  0  0  0  0
    8.0016  -14.5224   22.0626 N   0  0  0  0  0  0  0  0  0  0  0  0
    7.2297  -14.5956   23.2880 C   0  0  0  0  0  0  0  0  0  0  0  0
    8.0208  -14.2682   24.4765 C   0  0  0  0  0  0  0  0  0  0  0  0
    9.1189  -14.8896   24.6623 O   0  0  0  0  0  0  0  0  0  0  0  0
    7.5692  -13.2885   25.3853 N   0  0  0  0  0  0  0  0  0  0  0  0
    6.3934  -12.4601   25.1965 C   0  0  0  0  0  0  0  0  0  0  0  0
    5.9041  -12.3328   26.6453 C   0  0  0  0  0  0  0  0  0  0  0  0
    7.2304  -11.9479   27.3120 C   0  0  0  0  0  0  0  0  0  0  0  0
    8.1767  -12.9145   26.6730 C   0  0  1  0  0  0  0  0  0  0  0  0
    8.3983  -14.0868   27.5220 C   0  0  0  0  0  0  0  0  0  0  0  0
    9.3274  -14.1161   28.3653 O   0  0  0  0  0  0  0  0  0  0  0  0
    7.5828  -15.2011   27.4154 O   0  0  0  0  0  0  0  0  0  0  0  0
  2  1  1  6
  2  3  1  0
  3  4  1  0
  5  6  2  0
  5  2  1  0
  7  5  1  0
  8  9  1  0
  8  7  1  0
  9 11  1  0
 10  9  2  0
 11 12  1  0
 12 13  1  0
 14 13  1  0
 15 11  1  0
 15 14  1  0
 15 16  1  1
 16 17  2  0
 16 18  1  0
M  END
$$$$
