QVE.pdb
     RDKit          3D

 26 25  0  0  1  0  0  0  0  0999 V2000
    5.5064  -19.1358   20.2713 N   0  0  0  0  0  0  0  0  0  0  0  0
    6.5842  -18.2941   19.9493 C   0  0  0  0  0  0  0  0  0  0  0  0
    7.7186  -18.7591   19.6171 O   0  0  0  0  0  0  0  0  0  0  0  0
    6.4481  -16.8103   19.9894 C   0  0  0  0  0  0  0  0  0  0  0  0
    7.0981  -16.3214   21.2409 C   0  0  0  0  0  0  0  0  0  0  0  0
    7.0030  -14.8833   21.5327 C   0  0  2  0  0  0  0  0  0  0  0  0
    7.2194  -14.0515   20.3461 N   0  0  0  0  0  0  0  0  0  0  0  0
    7.8665  -14.3766   22.6595 C   0  0  0  0  0  0  0  0  0  0  0  0
    9.0779  -14.2576   22.4206 O   0  0  0  0  0  0  0  0  0  0  0  0
    7.5476  -12.7275   27.4037 C   0  0  0  0  0  0  0  0  0  0  0  0
    6.9117  -13.0837   26.0558 C   0  0  1  0  0  0  0  0  0  0  0  0
    6.6600  -11.6824   25.4414 C   0  0  0  0  0  0  0  0  0  0  0  0
    7.9619  -13.7056   25.1337 C   0  0  2  0  0  0  0  0  0  0  0  0
    7.2884  -14.0787   23.8878 N   0  0  0  0  0  0  0  0  0  0  0  0
    8.4205  -15.0060   25.6926 C   0  0  0  0  0  0  0  0  0  0  0  0
    7.5628  -15.9096   25.8674 O   0  0  0  0  0  0  0  0  0  0  0  0
    9.7589  -15.3148   26.0388 N   0  0  0  0  0  0  0  0  0  0  0  0
   10.1568  -16.6235   26.5536 C   0  0  1  0  0  0  0  0  0  0  0  0
   11.4414  -17.0033   25.8742 C   0  0  0  0  0  0  0  0  0  0  0  0
   12.0743  -18.2645   26.4308 C   0  0  0  0  0  0  0  0  0  0  0  0
   13.3647  -18.5958   25.7184 C   0  0  0  0  0  0  0  0  0  0  0  0
   14.1781  -17.7096   25.4983 O   0  0  0  0  0  0  0  0  0  0  0  0
   10.3519  -16.5922   28.0058 C   0  0  0  0  0  0  0  0  0  0  0  0
   10.5346  -15.3843   28.7106 O   0  0  0  0  0  0  0  0  0  0  0  0
   13.6227  -19.8994   25.3214 O   0  0  0  0  0  0  0  0  0  0  0  0
   10.3802  -17.6014   28.7238 O   0  0  0  0  0  0  0  0  0  0  0  0
  2  1  1  0
  2  3  2  0
  4  5  1  0
  4  2  1  0
  6  7  1  6
  6  5  1  0
  8  6  1  0
  9  8  2  0
 11 10  1  1
 11 13  1  0
 12 11  1  0
 13 15  1  0
 13 14  1  6
 14  8  1  0
 15 16  2  0
 17 18  1  0
 17 15  1  0
 18 19  1  6
 19 20  1  0
 20 21  1  0
 21 25  1  0
 21 22  2  0
 23 24  1  0
 23 18  1  0
 26 23  2  0
M  END
$$$$
