QVE.pdb
     RDKit          3D

 26 25  0  0  1  0  0  0  0  0999 V2000
    4.9105  -18.9730   22.3519 N   0  0  0  0  0  0  0  0  0  0  0  0
    6.3141  -18.9494   22.2941 C   0  0  0  0  0  0  0  0  0  0  0  0
    7.0037  -20.0132   22.3735 O   0  0  0  0  0  0  0  0  0  0  0  0
    7.0625  -17.6692   22.1431 C   0  0  0  0  0  0  0  0  0  0  0  0
    6.0670  -16.5596   22.0674 C   0  0  0  0  0  0  0  0  0  0  0  0
    6.5881  -15.1985   21.8719 C   0  0  2  0  0  0  0  0  0  0  0  0
    7.1176  -14.9856   20.5224 N   0  0  0  0  0  0  0  0  0  0  0  0
    7.5997  -14.7237   22.8836 C   0  0  0  0  0  0  0  0  0  0  0  0
    8.7876  -14.9927   22.6494 O   0  0  0  0  0  0  0  0  0  0  0  0
    5.9646  -13.6381   26.6203 C   0  0  0  0  0  0  0  0  0  0  0  0
    7.0614  -12.7356   26.0452 C   0  0  1  0  0  0  0  0  0  0  0  0
    7.9330  -12.4554   27.2967 C   0  0  0  0  0  0  0  0  0  0  0  0
    7.9799  -13.5506   25.1331 C   0  0  2  0  0  0  0  0  0  0  0  0
    7.1719  -14.0300   24.0095 N   0  0  0  0  0  0  0  0  0  0  0  0
    8.4027  -14.7986   25.8243 C   0  0  0  0  0  0  0  0  0  0  0  0
    7.5238  -15.6638   26.0721 O   0  0  0  0  0  0  0  0  0  0  0  0
    9.7290  -15.0976   26.2219 N   0  0  0  0  0  0  0  0  0  0  0  0
   10.0849  -16.3403   26.9040 C   0  0  1  0  0  0  0  0  0  0  0  0
   11.4561  -16.7349   26.4349 C   0  0  0  0  0  0  0  0  0  0  0  0
   11.5939  -16.7763   24.9248 C   0  0  0  0  0  0  0  0  0  0  0  0
   12.9836  -17.1981   24.5083 C   0  0  0  0  0  0  0  0  0  0  0  0
   13.1392  -17.8230   23.4687 O   0  0  0  0  0  0  0  0  0  0  0  0
   10.0860  -16.1719   28.3598 C   0  0  0  0  0  0  0  0  0  0  0  0
   10.2864  -17.2567   29.2387 O   0  0  0  0  0  0  0  0  0  0  0  0
   14.0738  -16.8732   25.3016 O   0  0  0  0  0  0  0  0  0  0  0  0
    9.9076  -15.0881   28.9330 O   0  0  0  0  0  0  0  0  0  0  0  0
  2  1  1  0
  2  3  2  0
  4  5  1  0
  4  2  1  0
  6  7  1  6
  6  5  1  0
  8  6  1  0
  9  8  2  0
 11 10  1  1
 11 13  1  0
 12 11  1  0
 13 15  1  0
 13 14  1  6
 14  8  1  0
 15 16  2  0
 17 18  1  0
 17 15  1  0
 18 19  1  6
 19 20  1  0
 20 21  1  0
 21 25  1  0
 21 22  2  0
 23 24  1  0
 23 18  1  0
 26 23  2  0
M  END
$$$$
