QVE.pdb
     RDKit          3D

 26 25  0  0  1  0  0  0  0  0999 V2000
    6.6814  -20.7648   20.3776 N   0  0  0  0  0  0  0  0  0  0  0  0
    7.9336  -20.8590   19.7474 C   0  0  0  0  0  0  0  0  0  0  0  0
    8.8046  -21.7069   20.1160 O   0  0  0  0  0  0  0  0  0  0  0  0
    8.3023  -19.9601   18.6169 C   0  0  0  0  0  0  0  0  0  0  0  0
    7.1729  -19.0094   18.3969 C   0  0  0  0  0  0  0  0  0  0  0  0
    7.4766  -17.7519   17.6976 C   0  0  2  0  0  0  0  0  0  0  0  0
    7.9538  -17.9684   16.3293 N   0  0  0  0  0  0  0  0  0  0  0  0
    8.4130  -16.8076   18.4073 C   0  0  0  0  0  0  0  0  0  0  0  0
    9.6204  -16.9238   18.1482 O   0  0  0  0  0  0  0  0  0  0  0  0
    6.7952  -14.5311   21.7502 C   0  0  0  0  0  0  0  0  0  0  0  0
    7.6166  -13.8803   20.6322 C   0  0  1  0  0  0  0  0  0  0  0  0
    8.4797  -12.8623   21.4215 C   0  0  0  0  0  0  0  0  0  0  0  0
    8.6366  -14.8812   20.0865 C   0  0  2  0  0  0  0  0  0  0  0  0
    7.9011  -15.8765   19.3033 N   0  0  0  0  0  0  0  0  0  0  0  0
    9.2204  -15.6702   21.2048 C   0  0  0  0  0  0  0  0  0  0  0  0
    8.5351  -16.6085   21.6869 O   0  0  0  0  0  0  0  0  0  0  0  0
   10.5011  -15.4537   21.7699 N   0  0  0  0  0  0  0  0  0  0  0  0
   11.0262  -16.2675   22.8645 C   0  0  1  0  0  0  0  0  0  0  0  0
   12.4343  -15.8151   23.1268 C   0  0  0  0  0  0  0  0  0  0  0  0
   13.4344  -16.3131   22.1007 C   0  0  0  0  0  0  0  0  0  0  0  0
   14.8130  -15.7494   22.3542 C   0  0  0  0  0  0  0  0  0  0  0  0
   15.2466  -14.8647   21.6299 O   0  0  0  0  0  0  0  0  0  0  0  0
   10.2204  -16.1171   24.0793 C   0  0  0  0  0  0  0  0  0  0  0  0
   10.3039  -17.0305   25.1508 O   0  0  0  0  0  0  0  0  0  0  0  0
   15.5773  -16.2331   23.4056 O   0  0  0  0  0  0  0  0  0  0  0  0
    9.4084  -15.1997   24.2640 O   0  0  0  0  0  0  0  0  0  0  0  0
  2  1  1  0
  2  3  2  0
  4  5  1  0
  4  2  1  0
  6  7  1  6
  6  5  1  0
  8  6  1  0
  9  8  2  0
 11 10  1  1
 11 13  1  0
 12 11  1  0
 13 15  1  0
 13 14  1  6
 14  8  1  0
 15 16  2  0
 17 18  1  0
 17 15  1  0
 18 19  1  1
 19 20  1  0
 20 21  1  0
 21 25  1  0
 21 22  2  0
 23 24  1  0
 23 18  1  0
 26 23  2  0
M  END
$$$$
