QVE.pdb
     RDKit          3D

 26 25  0  0  1  0  0  0  0  0999 V2000
    8.3066  -18.4868   19.7368 N   0  0  0  0  0  0  0  0  0  0  0  0
    7.2204  -17.7244   20.1981 C   0  0  0  0  0  0  0  0  0  0  0  0
    6.1708  -18.2694   20.6617 O   0  0  0  0  0  0  0  0  0  0  0  0
    7.2464  -16.2345   20.1585 C   0  0  0  0  0  0  0  0  0  0  0  0
    6.8972  -15.7311   21.5196 C   0  0  0  0  0  0  0  0  0  0  0  0
    7.1774  -14.3167   21.8077 C   0  0  2  0  0  0  0  0  0  0  0  0
    7.6939  -13.5950   20.6419 N   0  0  0  0  0  0  0  0  0  0  0  0
    8.0659  -14.0448   22.9947 C   0  0  0  0  0  0  0  0  0  0  0  0
    9.2803  -13.9371   22.7662 O   0  0  0  0  0  0  0  0  0  0  0  0
    6.8871  -11.4913   25.7560 C   0  0  0  0  0  0  0  0  0  0  0  0
    7.1939  -12.8494   26.3959 C   0  0  1  0  0  0  0  0  0  0  0  0
    5.8537  -13.6045   26.2002 C   0  0  0  0  0  0  0  0  0  0  0  0
    8.1826  -13.6240   25.5226 C   0  0  2  0  0  0  0  0  0  0  0  0
    7.5055  -13.9363   24.2620 N   0  0  0  0  0  0  0  0  0  0  0  0
    8.4501  -14.9592   26.1222 C   0  0  0  0  0  0  0  0  0  0  0  0
    7.4849  -15.7570   26.2428 O   0  0  0  0  0  0  0  0  0  0  0  0
    9.7173  -15.4121   26.5643 N   0  0  0  0  0  0  0  0  0  0  0  0
    9.9189  -16.7341   27.1540 C   0  0  1  0  0  0  0  0  0  0  0  0
   10.9657  -17.4367   26.3376 C   0  0  0  0  0  0  0  0  0  0  0  0
   12.2589  -16.6551   26.2040 C   0  0  0  0  0  0  0  0  0  0  0  0
   12.8749  -16.8359   24.8364 C   0  0  0  0  0  0  0  0  0  0  0  0
   12.3519  -17.5961   24.0339 O   0  0  0  0  0  0  0  0  0  0  0  0
   10.3568  -16.6382   28.5492 C   0  0  0  0  0  0  0  0  0  0  0  0
   10.5798  -15.3966   29.1801 O   0  0  0  0  0  0  0  0  0  0  0  0
   14.0247  -16.1390   24.4961 O   0  0  0  0  0  0  0  0  0  0  0  0
   10.5718  -17.6170   29.2777 O   0  0  0  0  0  0  0  0  0  0  0  0
  2  1  1  0
  2  3  2  0
  4  5  1  0
  4  2  1  0
  6  7  1  6
  6  5  1  0
  8  6  1  0
  9  8  2  0
 11 10  1  6
 11 13  1  0
 12 11  1  0
 13 15  1  0
 13 14  1  6
 14  8  1  0
 15 16  2  0
 17 18  1  0
 17 15  1  0
 18 19  1  6
 19 20  1  0
 20 21  1  0
 21 25  1  0
 21 22  2  0
 23 24  1  0
 23 18  1  0
 26 23  2  0
M  END
$$$$
