QVE.pdb
     RDKit          3D

 26 25  0  0  1  0  0  0  0  0999 V2000
    9.4054  -20.6784   16.5113 N   0  0  0  0  0  0  0  0  0  0  0  0
    9.0007  -19.9733   15.3654 C   0  0  0  0  0  0  0  0  0  0  0  0
    9.0340  -20.5008   14.2102 O   0  0  0  0  0  0  0  0  0  0  0  0
    8.5179  -18.5657   15.4513 C   0  0  0  0  0  0  0  0  0  0  0  0
    8.4251  -18.1976   16.8948 C   0  0  0  0  0  0  0  0  0  0  0  0
    8.0417  -16.8144   17.2146 C   0  0  2  0  0  0  0  0  0  0  0  0
    7.8844  -15.9819   16.0192 N   0  0  0  0  0  0  0  0  0  0  0  0
    8.9179  -16.0963   18.2090 C   0  0  0  0  0  0  0  0  0  0  0  0
   10.1382  -16.3011   18.1235 O   0  0  0  0  0  0  0  0  0  0  0  0
    7.4238  -12.6727   19.6116 C   0  0  0  0  0  0  0  0  0  0  0  0
    8.0041  -13.4938   20.7680 C   0  0  1  0  0  0  0  0  0  0  0  0
    6.7855  -14.3540   21.1916 C   0  0  0  0  0  0  0  0  0  0  0  0
    9.0054  -14.5164   20.2282 C   0  0  2  0  0  0  0  0  0  0  0  0
    8.3389  -15.2633   19.1591 N   0  0  0  0  0  0  0  0  0  0  0  0
    9.2828  -15.5490   21.2630 C   0  0  0  0  0  0  0  0  0  0  0  0
    8.5347  -16.5595   21.3049 O   0  0  0  0  0  0  0  0  0  0  0  0
   10.3362  -15.4896   22.2081 N   0  0  0  0  0  0  0  0  0  0  0  0
   10.6061  -16.5699   23.1547 C   0  0  1  0  0  0  0  0  0  0  0  0
   12.0283  -17.0061   22.9469 C   0  0  0  0  0  0  0  0  0  0  0  0
   13.0403  -15.8921   23.1365 C   0  0  0  0  0  0  0  0  0  0  0  0
   14.4489  -16.3767   22.8849 C   0  0  0  0  0  0  0  0  0  0  0  0
   15.2485  -16.4162   23.8093 O   0  0  0  0  0  0  0  0  0  0  0  0
   10.4178  -16.1294   24.5397 C   0  0  0  0  0  0  0  0  0  0  0  0
   10.5266  -17.0183   25.6293 O   0  0  0  0  0  0  0  0  0  0  0  0
   14.8276  -16.7768   21.6121 O   0  0  0  0  0  0  0  0  0  0  0  0
   10.1453  -14.9659   24.8666 O   0  0  0  0  0  0  0  0  0  0  0  0
  2  1  1  0
  2  3  2  0
  4  5  1  0
  4  2  1  0
  6  7  1  6
  6  5  1  0
  8  6  1  0
  9  8  2  0
 11 10  1  6
 11 13  1  0
 12 11  1  0
 13 15  1  0
 13 14  1  6
 14  8  1  0
 15 16  2  0
 17 18  1  0
 17 15  1  0
 18 19  1  1
 19 20  1  0
 20 21  1  0
 21 25  1  0
 21 22  2  0
 23 24  1  0
 23 18  1  0
 26 23  2  0
M  END
$$$$
