QVE.pdb
     RDKit          3D

 26 25  0  0  1  0  0  0  0  0999 V2000
    9.2517  -13.4643   18.3614 N   0  0  0  0  0  0  0  0  0  0  0  0
    7.9055  -13.2633   18.7101 C   0  0  0  0  0  0  0  0  0  0  0  0
    7.1308  -12.5506   17.9992 O   0  0  0  0  0  0  0  0  0  0  0  0
    7.3233  -13.8739   19.9389 C   0  0  0  0  0  0  0  0  0  0  0  0
    8.4097  -14.6156   20.6441 C   0  0  0  0  0  0  0  0  0  0  0  0
    8.0692  -15.2542   21.9242 C   0  0  2  0  0  0  0  0  0  0  0  0
    6.6235  -15.3281   22.1507 N   0  0  0  0  0  0  0  0  0  0  0  0
    8.7359  -14.6819   23.1491 C   0  0  0  0  0  0  0  0  0  0  0  0
    9.9341  -14.3808   23.0396 O   0  0  0  0  0  0  0  0  0  0  0  0
    7.0470  -11.9539   25.3802 C   0  0  0  0  0  0  0  0  0  0  0  0
    7.3159  -13.2059   26.2217 C   0  0  1  0  0  0  0  0  0  0  0  0
    6.0620  -14.0674   25.9218 C   0  0  0  0  0  0  0  0  0  0  0  0
    8.4664  -14.0066   25.6092 C   0  0  2  0  0  0  0  0  0  0  0  0
    8.0040  -14.5263   24.3204 N   0  0  0  0  0  0  0  0  0  0  0  0
    8.7175  -15.2311   26.4163 C   0  0  0  0  0  0  0  0  0  0  0  0
    7.7710  -16.0466   26.5630 O   0  0  0  0  0  0  0  0  0  0  0  0
    9.9504  -15.5601   27.0314 N   0  0  0  0  0  0  0  0  0  0  0  0
   10.1276  -16.7598   27.8471 C   0  0  1  0  0  0  0  0  0  0  0  0
   11.4009  -17.4219   27.4039 C   0  0  0  0  0  0  0  0  0  0  0  0
   11.4531  -17.7045   25.9144 C   0  0  0  0  0  0  0  0  0  0  0  0
   12.7821  -18.2994   25.5113 C   0  0  0  0  0  0  0  0  0  0  0  0
   13.6454  -18.4794   26.3585 O   0  0  0  0  0  0  0  0  0  0  0  0
   10.2071  -16.4321   29.2733 C   0  0  0  0  0  0  0  0  0  0  0  0
   10.2732  -17.4298   30.2680 O   0  0  0  0  0  0  0  0  0  0  0  0
   13.0159  -18.6413   24.1877 O   0  0  0  0  0  0  0  0  0  0  0  0
   10.2153  -15.2766   29.7201 O   0  0  0  0  0  0  0  0  0  0  0  0
  2  1  1  0
  2  3  2  0
  4  5  1  0
  4  2  1  0
  6  7  1  1
  6  5  1  0
  8  6  1  0
  9  8  2  0
 11 10  1  6
 11 13  1  0
 12 11  1  0
 13 15  1  0
 13 14  1  6
 14  8  1  0
 15 16  2  0
 17 18  1  0
 17 15  1  0
 18 19  1  6
 19 20  1  0
 20 21  1  0
 21 25  1  0
 21 22  2  0
 23 24  1  0
 23 18  1  0
 26 23  2  0
M  END
$$$$
