QVE.pdb
     RDKit          3D

 26 25  0  0  1  0  0  0  0  0999 V2000
    7.1567  -20.5995   17.9743 N   0  0  0  0  0  0  0  0  0  0  0  0
    6.7135  -20.3170   16.6713 C   0  0  0  0  0  0  0  0  0  0  0  0
    6.2092  -21.2151   15.9280 O   0  0  0  0  0  0  0  0  0  0  0  0
    6.8210  -18.9461   16.0959 C   0  0  0  0  0  0  0  0  0  0  0  0
    7.2729  -18.0253   17.1801 C   0  0  0  0  0  0  0  0  0  0  0  0
    8.2053  -16.9510   16.8074 C   0  0  2  0  0  0  0  0  0  0  0  0
    9.1933  -17.3809   15.8145 N   0  0  0  0  0  0  0  0  0  0  0  0
    8.9122  -16.2613   17.9461 C   0  0  0  0  0  0  0  0  0  0  0  0
   10.0796  -16.6152   18.1708 O   0  0  0  0  0  0  0  0  0  0  0  0
    6.4704  -14.1430   20.7644 C   0  0  0  0  0  0  0  0  0  0  0  0
    7.6935  -13.4535   20.1507 C   0  0  1  0  0  0  0  0  0  0  0  0
    8.2888  -12.7108   21.3748 C   0  0  0  0  0  0  0  0  0  0  0  0
    8.7569  -14.4960   19.8010 C   0  0  2  0  0  0  0  0  0  0  0  0
    8.2441  -15.2898   18.6821 N   0  0  0  0  0  0  0  0  0  0  0  0
    8.8826  -15.4825   20.9078 C   0  0  0  0  0  0  0  0  0  0  0  0
    7.9913  -16.3632   21.0186 O   0  0  0  0  0  0  0  0  0  0  0  0
    9.9394  -15.5155   21.8505 N   0  0  0  0  0  0  0  0  0  0  0  0
   10.0168  -16.5180   22.9113 C   0  0  1  0  0  0  0  0  0  0  0  0
   11.2941  -17.2836   22.7152 C   0  0  0  0  0  0  0  0  0  0  0  0
   12.5380  -16.4177   22.7767 C   0  0  0  0  0  0  0  0  0  0  0  0
   13.7883  -17.2283   22.5274 C   0  0  0  0  0  0  0  0  0  0  0  0
   14.0253  -18.2037   23.2259 O   0  0  0  0  0  0  0  0  0  0  0  0
   10.0074  -15.8966   24.2385 C   0  0  0  0  0  0  0  0  0  0  0  0
    9.9948  -14.4966   24.4094 O   0  0  0  0  0  0  0  0  0  0  0  0
   14.6575  -16.8669   21.5089 O   0  0  0  0  0  0  0  0  0  0  0  0
   10.0171  -16.5319   25.3021 O   0  0  0  0  0  0  0  0  0  0  0  0
  2  1  1  0
  2  3  2  0
  4  5  1  0
  4  2  1  0
  6  7  1  6
  6  5  1  0
  8  6  1  0
  9  8  2  0
 11 10  1  1
 11 13  1  0
 12 11  1  0
 13 15  1  0
 13 14  1  6
 14  8  1  0
 15 16  2  0
 17 18  1  0
 17 15  1  0
 18 19  1  6
 19 20  1  0
 20 21  1  0
 21 25  1  0
 21 22  2  0
 23 24  1  0
 23 18  1  0
 26 23  2  0
M  END
$$$$
