QVE.pdb
     RDKit          3D

 26 25  0  0  1  0  0  0  0  0999 V2000
    7.5836  -12.7352   18.4924 N   0  0  0  0  0  0  0  0  0  0  0  0
    8.6312  -13.6681   18.5704 C   0  0  0  0  0  0  0  0  0  0  0  0
    9.6536  -13.5884   17.8208 O   0  0  0  0  0  0  0  0  0  0  0  0
    8.5884  -14.8033   19.5355 C   0  0  0  0  0  0  0  0  0  0  0  0
    7.2846  -14.7435   20.2598 C   0  0  0  0  0  0  0  0  0  0  0  0
    7.2235  -15.3660   21.5906 C   0  0  2  0  0  0  0  0  0  0  0  0
    5.8503  -15.5271   22.0754 N   0  0  0  0  0  0  0  0  0  0  0  0
    8.0575  -14.7170   22.6655 C   0  0  0  0  0  0  0  0  0  0  0  0
    9.2153  -14.3991   22.3540 O   0  0  0  0  0  0  0  0  0  0  0  0
    6.0361  -13.9529   26.4370 C   0  0  0  0  0  0  0  0  0  0  0  0
    7.1032  -13.0520   25.8064 C   0  0  1  0  0  0  0  0  0  0  0  0
    7.8444  -12.5119   27.0568 C   0  0  0  0  0  0  0  0  0  0  0  0
    8.1542  -13.9086   25.0982 C   0  0  2  0  0  0  0  0  0  0  0  0
    7.5136  -14.5135   23.9282 N   0  0  0  0  0  0  0  0  0  0  0  0
    8.5139  -15.0753   25.9488 C   0  0  0  0  0  0  0  0  0  0  0  0
    7.5871  -15.8329   26.3355 O   0  0  0  0  0  0  0  0  0  0  0  0
    9.8291  -15.4097   26.3550 N   0  0  0  0  0  0  0  0  0  0  0  0
   10.1238  -16.5760   27.1851 C   0  0  1  0  0  0  0  0  0  0  0  0
   11.4270  -17.1507   26.7082 C   0  0  0  0  0  0  0  0  0  0  0  0
   11.4280  -17.5169   25.2362 C   0  0  0  0  0  0  0  0  0  0  0  0
   12.8249  -17.8090   24.7405 C   0  0  0  0  0  0  0  0  0  0  0  0
   13.3984  -18.8229   25.1129 O   0  0  0  0  0  0  0  0  0  0  0  0
   10.2278  -16.2140   28.6014 C   0  0  0  0  0  0  0  0  0  0  0  0
   10.2900  -17.1874   29.6202 O   0  0  0  0  0  0  0  0  0  0  0  0
   13.4480  -16.9316   23.8656 O   0  0  0  0  0  0  0  0  0  0  0  0
   10.2619  -15.0480   29.0188 O   0  0  0  0  0  0  0  0  0  0  0  0
  2  1  1  0
  2  3  2  0
  4  5  1  0
  4  2  1  0
  6  7  1  1
  6  5  1  0
  8  6  1  0
  9  8  2  0
 11 10  1  1
 11 13  1  0
 12 11  1  0
 13 15  1  0
 13 14  1  6
 14  8  1  0
 15 16  2  0
 17 18  1  0
 17 15  1  0
 18 19  1  6
 19 20  1  0
 20 21  1  0
 21 25  1  0
 21 22  2  0
 23 24  1  0
 23 18  1  0
 26 23  2  0
M  END
$$$$
