QVE.pdb
     RDKit          3D

 26 25  0  0  1  0  0  0  0  0999 V2000
    5.6837  -18.9339   22.9037 N   0  0  0  0  0  0  0  0  0  0  0  0
    6.7780  -18.8098   22.0313 C   0  0  0  0  0  0  0  0  0  0  0  0
    7.4956  -19.8088   21.7139 O   0  0  0  0  0  0  0  0  0  0  0  0
    7.1535  -17.4937   21.4407 C   0  0  0  0  0  0  0  0  0  0  0  0
    6.1453  -16.4858   21.8826 C   0  0  0  0  0  0  0  0  0  0  0  0
    6.5494  -15.0721   21.8573 C   0  0  2  0  0  0  0  0  0  0  0  0
    7.0785  -14.6599   20.5547 N   0  0  0  0  0  0  0  0  0  0  0  0
    7.5008  -14.6346   22.9416 C   0  0  0  0  0  0  0  0  0  0  0  0
    8.7080  -14.6408   22.6568 O   0  0  0  0  0  0  0  0  0  0  0  0
    7.4569  -12.5222   27.5045 C   0  0  0  0  0  0  0  0  0  0  0  0
    6.7300  -13.1239   26.2972 C   0  0  1  0  0  0  0  0  0  0  0  0
    6.2377  -11.8541   25.5556 C   0  0  0  0  0  0  0  0  0  0  0  0
    7.7453  -13.7411   25.3338 C   0  0  2  0  0  0  0  0  0  0  0  0
    7.0018  -14.2598   24.1834 N   0  0  0  0  0  0  0  0  0  0  0  0
    8.3485  -14.9568   25.9440 C   0  0  0  0  0  0  0  0  0  0  0  0
    7.5746  -15.8694   26.3321 O   0  0  0  0  0  0  0  0  0  0  0  0
    9.7374  -15.1752   26.1168 N   0  0  0  0  0  0  0  0  0  0  0  0
   10.2745  -16.4041   26.6978 C   0  0  1  0  0  0  0  0  0  0  0  0
   11.7176  -16.5006   26.2928 C   0  0  0  0  0  0  0  0  0  0  0  0
   11.9478  -16.2948   24.8076 C   0  0  0  0  0  0  0  0  0  0  0  0
   13.4152  -16.3804   24.4590 C   0  0  0  0  0  0  0  0  0  0  0  0
   14.1559  -15.4455   24.7287 O   0  0  0  0  0  0  0  0  0  0  0  0
   10.1668  -16.3982   28.1594 C   0  0  0  0  0  0  0  0  0  0  0  0
    9.6577  -15.2900   28.8680 O   0  0  0  0  0  0  0  0  0  0  0  0
   13.9158  -17.5162   23.8400 O   0  0  0  0  0  0  0  0  0  0  0  0
   10.5126  -17.3416   28.8843 O   0  0  0  0  0  0  0  0  0  0  0  0
  2  1  1  0
  2  3  2  0
  4  5  1  0
  4  2  1  0
  6  7  1  6
  6  5  1  0
  8  6  1  0
  9  8  2  0
 11 10  1  1
 11 13  1  0
 12 11  1  0
 13 15  1  0
 13 14  1  6
 14  8  1  0
 15 16  2  0
 17 18  1  0
 17 15  1  0
 18 19  1  1
 19 20  1  0
 20 21  1  0
 21 25  1  0
 21 22  2  0
 23 24  1  0
 23 18  1  0
 26 23  2  0
M  END
$$$$
