QVE.pdb
     RDKit          3D

 26 25  0  0  1  0  0  0  0  0999 V2000
   10.5673  -15.5169   12.4321 N   0  0  0  0  0  0  0  0  0  0  0  0
    9.6329  -15.9825   13.3725 C   0  0  0  0  0  0  0  0  0  0  0  0
    8.5405  -16.5242   13.0166 O   0  0  0  0  0  0  0  0  0  0  0  0
    9.8781  -15.8558   14.8374 C   0  0  0  0  0  0  0  0  0  0  0  0
    9.6361  -17.1895   15.4622 C   0  0  0  0  0  0  0  0  0  0  0  0
    9.0042  -17.2075   16.7898 C   0  0  2  0  0  0  0  0  0  0  0  0
    7.5511  -17.0316   16.7254 N   0  0  0  0  0  0  0  0  0  0  0  0
    9.5757  -16.2555   17.8094 C   0  0  0  0  0  0  0  0  0  0  0  0
   10.8095  -16.2531   17.9365 O   0  0  0  0  0  0  0  0  0  0  0  0
    6.8260  -14.5721   20.7073 C   0  0  0  0  0  0  0  0  0  0  0  0
    7.8111  -13.6897   19.9333 C   0  0  1  0  0  0  0  0  0  0  0  0
    8.2785  -12.6966   21.0287 C   0  0  0  0  0  0  0  0  0  0  0  0
    9.0724  -14.4881   19.5993 C   0  0  2  0  0  0  0  0  0  0  0  0
    8.7210  -15.4476   18.5500 N   0  0  0  0  0  0  0  0  0  0  0  0
    9.4489  -15.3472   20.7543 C   0  0  0  0  0  0  0  0  0  0  0  0
    8.7754  -16.3896   20.9599 O   0  0  0  0  0  0  0  0  0  0  0  0
   10.5201  -15.0882   21.6443 N   0  0  0  0  0  0  0  0  0  0  0  0
   11.0359  -16.0954   22.5693 C   0  0  1  0  0  0  0  0  0  0  0  0
   12.5280  -15.9327   22.6262 C   0  0  0  0  0  0  0  0  0  0  0  0
   13.2033  -16.8575   23.6211 C   0  0  0  0  0  0  0  0  0  0  0  0
   14.6999  -16.6521   23.6384 C   0  0  0  0  0  0  0  0  0  0  0  0
   15.4433  -17.6228   23.6160 O   0  0  0  0  0  0  0  0  0  0  0  0
   10.4659  -15.9348   23.9098 C   0  0  0  0  0  0  0  0  0  0  0  0
   10.4682  -16.9822   24.8545 O   0  0  0  0  0  0  0  0  0  0  0  0
   15.2233  -15.3683   23.6757 O   0  0  0  0  0  0  0  0  0  0  0  0
    9.9376  -14.8914   24.3187 O   0  0  0  0  0  0  0  0  0  0  0  0
  2  1  1  0
  2  3  2  0
  4  5  1  0
  4  2  1  0
  6  7  1  6
  6  5  1  0
  8  6  1  0
  9  8  2  0
 11 10  1  1
 11 13  1  0
 12 11  1  0
 13 15  1  0
 13 14  1  6
 14  8  1  0
 15 16  2  0
 17 18  1  0
 17 15  1  0
 18 19  1  1
 19 20  1  0
 20 21  1  0
 21 25  1  0
 21 22  2  0
 23 24  1  0
 23 18  1  0
 26 23  2  0
M  END
$$$$
