QVE.pdb
     RDKit          3D

 26 25  0  0  1  0  0  0  0  0999 V2000
    8.9496  -15.9645   14.9302 N   0  0  0  0  0  0  0  0  0  0  0  0
    7.9759  -16.7692   14.3150 C   0  0  0  0  0  0  0  0  0  0  0  0
    7.4133  -16.4246   13.2295 O   0  0  0  0  0  0  0  0  0  0  0  0
    7.5513  -18.0667   14.9134 C   0  0  0  0  0  0  0  0  0  0  0  0
    8.4703  -18.3733   16.0488 C   0  0  0  0  0  0  0  0  0  0  0  0
    8.0250  -17.9943   17.3980 C   0  0  2  0  0  0  0  0  0  0  0  0
    6.5865  -17.7234   17.4619 N   0  0  0  0  0  0  0  0  0  0  0  0
    8.7741  -16.8600   18.0496 C   0  0  0  0  0  0  0  0  0  0  0  0
    9.9440  -16.6814   17.6782 O   0  0  0  0  0  0  0  0  0  0  0  0
    6.8308  -14.9815   21.4750 C   0  0  0  0  0  0  0  0  0  0  0  0
    7.5645  -14.1863   20.3900 C   0  0  1  0  0  0  0  0  0  0  0  0
    8.2654  -13.0818   21.2228 C   0  0  0  0  0  0  0  0  0  0  0  0
    8.7224  -15.0152   19.8314 C   0  0  2  0  0  0  0  0  0  0  0  0
    8.1442  -16.0870   19.0177 N   0  0  0  0  0  0  0  0  0  0  0  0
    9.4071  -15.7386   20.9367 C   0  0  0  0  0  0  0  0  0  0  0  0
    8.8161  -16.7203   21.4559 O   0  0  0  0  0  0  0  0  0  0  0  0
   10.6865  -15.4136   21.4506 N   0  0  0  0  0  0  0  0  0  0  0  0
   11.3627  -16.2325   22.4547 C   0  0  1  0  0  0  0  0  0  0  0  0
   12.8139  -15.8455   22.4488 C   0  0  0  0  0  0  0  0  0  0  0  0
   13.6535  -16.6175   23.4489 C   0  0  0  0  0  0  0  0  0  0  0  0
   15.1165  -16.2577   23.3362 C   0  0  0  0  0  0  0  0  0  0  0  0
   15.9249  -17.1125   23.0026 O   0  0  0  0  0  0  0  0  0  0  0  0
   10.7963  -16.0209   23.7897 C   0  0  0  0  0  0  0  0  0  0  0  0
   10.8512  -17.0119   24.7918 O   0  0  0  0  0  0  0  0  0  0  0  0
   15.5352  -14.9635   23.6069 O   0  0  0  0  0  0  0  0  0  0  0  0
   10.2261  -14.9797   24.1443 O   0  0  0  0  0  0  0  0  0  0  0  0
  2  1  1  0
  2  3  2  0
  4  5  1  0
  4  2  1  0
  6  7  1  6
  6  5  1  0
  8  6  1  0
  9  8  2  0
 11 10  1  1
 11 13  1  0
 12 11  1  0
 13 15  1  0
 13 14  1  6
 14  8  1  0
 15 16  2  0
 17 18  1  0
 17 15  1  0
 18 19  1  1
 19 20  1  0
 20 21  1  0
 21 25  1  0
 21 22  2  0
 23 24  1  0
 23 18  1  0
 26 23  2  0
M  END
$$$$
