WET.pdb
     RDKit          3D

 31 32  0  0  1  0  0  0  0  0999 V2000
   25.7096  -18.9443   -8.6421 N   0  0  0  0  0  0  0  0  0  0  0  0
   26.2838  -20.1260   -9.1871 C   0  0  1  0  0  0  0  0  0  0  0  0
   26.1482  -21.2799   -8.2614 C   0  0  0  0  0  0  0  0  0  0  0  0
   26.5525  -20.8671   -6.8947 C   0  0  0  0  0  0  0  0  0  0  0  0
   25.7241  -20.7714   -5.7769 C   0  0  0  0  0  0  0  0  0  0  0  0
   26.4384  -20.4047   -4.7089 N   0  0  0  0  0  0  0  0  0  0  0  0
   27.7090  -20.2586   -5.1022 C   0  0  0  0  0  0  0  0  0  0  0  0
   28.8390  -19.8860   -4.3919 C   0  0  0  0  0  0  0  0  0  0  0  0
   30.0520  -19.7971   -5.0413 C   0  0  0  0  0  0  0  0  0  0  0  0
   30.1942  -20.0649   -6.3814 C   0  0  0  0  0  0  0  0  0  0  0  0
   29.0521  -20.4383   -7.0831 C   0  0  0  0  0  0  0  0  0  0  0  0
   27.8168  -20.5390   -6.4626 C   0  0  0  0  0  0  0  0  0  0  0  0
   25.7129  -20.3843  -10.5333 C   0  0  0  0  0  0  0  0  0  0  0  0
   24.5197  -20.0953  -10.8022 O   0  0  0  0  0  0  0  0  0  0  0  0
   26.4774  -20.9696  -11.5882 N   0  0  0  0  0  0  0  0  0  0  0  0
   26.1001  -20.9197  -12.9839 C   0  0  1  0  0  0  0  0  0  0  0  0
   27.2140  -21.5313  -13.7915 C   0  0  0  0  0  0  0  0  0  0  0  0
   26.9600  -21.3639  -15.2627 C   0  0  0  0  0  0  0  0  0  0  0  0
   28.0913  -21.9065  -16.0776 C   0  0  0  0  0  0  0  0  0  0  0  0
   29.0562  -22.4292  -15.4579 O   0  0  0  0  0  0  0  0  0  0  0  0
   24.8338  -21.6156  -13.2830 C   0  0  0  0  0  0  0  0  0  0  0  0
   24.6982  -22.7805  -12.8472 O   0  0  0  0  0  0  0  0  0  0  0  0
   28.0581  -21.8272  -17.4522 O   0  0  0  0  0  0  0  0  0  0  0  0
   21.5479  -19.2198  -14.2376 C   0  0  0  0  0  0  0  0  0  0  0  0
   21.5051  -20.5571  -13.4899 C   0  0  1  0  0  0  0  0  0  0  0  0
   20.2182  -21.0932  -13.5690 O   0  0  0  0  0  0  0  0  0  0  0  0
   22.4349  -21.5565  -14.1446 C   0  0  2  0  0  0  0  0  0  0  0  0
   23.7777  -21.0515  -14.0260 N   0  0  0  0  0  0  0  0  0  0  0  0
   22.1075  -21.8305  -15.5484 C   0  0  0  0  0  0  0  0  0  0  0  0
   21.0000  -22.6180  -15.9176 O   0  0  0  0  0  0  0  0  0  0  0  0
   22.7986  -21.3759  -16.4806 O   0  0  0  0  0  0  0  0  0  0  0  0
  2  1  1  1
  2  3  1  0
  3  4  1  0
  4  5  2  0
  5  6  1  0
  7  6  1  0
  8  7  2  0
  9  8  1  0
 10 11  1  0
 10  9  2  0
 11 12  2  0
 12  4  1  0
 12  7  1  0
 13 14  2  0
 13  2  1  0
 15 13  1  0
 16 15  1  0
 16 17  1  6
 17 18  1  0
 18 19  1  0
 19 23  1  0
 20 19  2  0
 21 16  1  0
 22 21  2  0
 25 24  1  6
 25 27  1  0
 25 26  1  0
 27 28  1  6
 28 21  1  0
 29 27  1  0
 29 30  1  0
 31 29  2  0
M  END
$$$$
