WET.pdb
     RDKit          3D

 31 32  0  0  1  0  0  0  0  0999 V2000
   27.3981  -21.3736  -13.9901 N   0  0  0  0  0  0  0  0  0  0  0  0
   26.3267  -21.3972  -13.0547 C   0  0  1  0  0  0  0  0  0  0  0  0
   26.4002  -20.2559  -12.1067 C   0  0  0  0  0  0  0  0  0  0  0  0
   27.5044  -20.4848  -11.1424 C   0  0  0  0  0  0  0  0  0  0  0  0
   28.8592  -20.6144  -11.4468 C   0  0  0  0  0  0  0  0  0  0  0  0
   29.5664  -20.7747  -10.3245 N   0  0  0  0  0  0  0  0  0  0  0  0
   28.7079  -20.7536   -9.2984 C   0  0  0  0  0  0  0  0  0  0  0  0
   28.9229  -20.8849   -7.9357 C   0  0  0  0  0  0  0  0  0  0  0  0
   27.8505  -20.8379   -7.0703 C   0  0  0  0  0  0  0  0  0  0  0  0
   26.5582  -20.6643   -7.5035 C   0  0  0  0  0  0  0  0  0  0  0  0
   26.3559  -20.5334   -8.8740 C   0  0  0  0  0  0  0  0  0  0  0  0
   27.4102  -20.5747   -9.7728 C   0  0  0  0  0  0  0  0  0  0  0  0
   25.0327  -21.4754  -13.7787 C   0  0  0  0  0  0  0  0  0  0  0  0
   24.7431  -20.6569  -14.6874 O   0  0  0  0  0  0  0  0  0  0  0  0
   24.0532  -22.4734  -13.4878 N   0  0  0  0  0  0  0  0  0  0  0  0
   22.8294  -22.6482  -14.2390 C   0  0  1  0  0  0  0  0  0  0  0  0
   22.7488  -24.0879  -14.6728 C   0  0  0  0  0  0  0  0  0  0  0  0
   23.6244  -24.3345  -15.8683 C   0  0  0  0  0  0  0  0  0  0  0  0
   24.9674  -24.8550  -15.4638 C   0  0  0  0  0  0  0  0  0  0  0  0
   25.9677  -24.4531  -16.1166 O   0  0  0  0  0  0  0  0  0  0  0  0
   21.6125  -22.2909  -13.4852 C   0  0  0  0  0  0  0  0  0  0  0  0
   21.2980  -23.0188  -12.5174 O   0  0  0  0  0  0  0  0  0  0  0  0
   25.0826  -25.7394  -14.4143 O   0  0  0  0  0  0  0  0  0  0  0  0
   21.0569  -19.3526  -11.5917 C   0  0  0  0  0  0  0  0  0  0  0  0
   19.8713  -19.3580  -12.5631 C   0  0  1  0  0  0  0  0  0  0  0  0
   20.1790  -18.5739  -13.6768 O   0  0  0  0  0  0  0  0  0  0  0  0
   19.6155  -20.7599  -13.0739 C   0  0  2  0  0  0  0  0  0  0  0  0
   20.7888  -21.1887  -13.7892 N   0  0  0  0  0  0  0  0  0  0  0  0
   18.4240  -20.8666  -13.9236 C   0  0  0  0  0  0  0  0  0  0  0  0
   17.1258  -20.6566  -13.4201 O   0  0  0  0  0  0  0  0  0  0  0  0
   18.5089  -21.1492  -15.1344 O   0  0  0  0  0  0  0  0  0  0  0  0
  2  1  1  6
  2  3  1  0
  3  4  1  0
  4  5  2  0
  5  6  1  0
  7  6  1  0
  8  7  2  0
  9  8  1  0
 10 11  1  0
 10  9  2  0
 11 12  2  0
 12  4  1  0
 12  7  1  0
 13 14  2  0
 13  2  1  0
 15 13  1  0
 16 15  1  0
 16 17  1  1
 17 18  1  0
 18 19  1  0
 19 23  1  0
 20 19  2  0
 21 16  1  0
 22 21  2  0
 25 24  1  1
 25 27  1  0
 25 26  1  0
 27 28  1  6
 28 21  1  0
 29 27  1  0
 29 30  1  0
 31 29  2  0
M  END
$$$$
