WET.pdb
     RDKit          3D

 31 32  0  0  1  0  0  0  0  0999 V2000
   19.0941  -32.4072   -4.4140 N   0  0  0  0  0  0  0  0  0  0  0  0
   20.0678  -32.0762   -3.4314 C   0  0  1  0  0  0  0  0  0  0  0  0
   19.4424  -31.7785   -2.1172 C   0  0  0  0  0  0  0  0  0  0  0  0
   18.7686  -30.4580   -2.1784 C   0  0  0  0  0  0  0  0  0  0  0  0
   17.4189  -30.2258   -2.4421 C   0  0  0  0  0  0  0  0  0  0  0  0
   17.1600  -28.9164   -2.3807 N   0  0  0  0  0  0  0  0  0  0  0  0
   18.3052  -28.2906   -2.0847 C   0  0  0  0  0  0  0  0  0  0  0  0
   18.5828  -26.9435   -1.9157 C   0  0  0  0  0  0  0  0  0  0  0  0
   19.8696  -26.5461   -1.6200 C   0  0  0  0  0  0  0  0  0  0  0  0
   20.9056  -27.4382   -1.4832 C   0  0  0  0  0  0  0  0  0  0  0  0
   20.6135  -28.7878   -1.6550 C   0  0  0  0  0  0  0  0  0  0  0  0
   19.3316  -29.2233   -1.9518 C   0  0  0  0  0  0  0  0  0  0  0  0
   21.0935  -33.1476   -3.3631 C   0  0  0  0  0  0  0  0  0  0  0  0
   20.7707  -34.3620   -3.3848 O   0  0  0  0  0  0  0  0  0  0  0  0
   22.4902  -32.8637   -3.2697 N   0  0  0  0  0  0  0  0  0  0  0  0
   23.4888  -33.8364   -2.8835 C   0  0  1  0  0  0  0  0  0  0  0  0
   24.8119  -33.4002   -3.4545 C   0  0  0  0  0  0  0  0  0  0  0  0
   25.8554  -34.4621   -3.2540 C   0  0  0  0  0  0  0  0  0  0  0  0
   27.1956  -34.0102   -3.7419 C   0  0  0  0  0  0  0  0  0  0  0  0
   28.0847  -34.8896   -3.8980 O   0  0  0  0  0  0  0  0  0  0  0  0
   23.6149  -34.0120   -1.4239 C   0  0  0  0  0  0  0  0  0  0  0  0
   23.7360  -32.9804   -0.7265 O   0  0  0  0  0  0  0  0  0  0  0  0
   27.4265  -32.6780   -4.0043 O   0  0  0  0  0  0  0  0  0  0  0  0
   21.2500  -35.5027    0.9732 C   0  0  0  0  0  0  0  0  0  0  0  0
   22.5355  -36.3319    1.0697 C   0  0  1  0  0  0  0  0  0  0  0  0
   22.4579  -37.4141    0.1908 O   0  0  0  0  0  0  0  0  0  0  0  0
   23.7287  -35.5054    0.6396 C   0  0  2  0  0  0  0  0  0  0  0  0
   23.6092  -35.2625   -0.7743 N   0  0  0  0  0  0  0  0  0  0  0  0
   25.0189  -36.1317    0.9495 C   0  0  0  0  0  0  0  0  0  0  0  0
   25.5253  -36.1897    2.2622 O   0  0  0  0  0  0  0  0  0  0  0  0
   25.7269  -36.6426    0.0602 O   0  0  0  0  0  0  0  0  0  0  0  0
  2  1  1  6
  2  3  1  0
  3  4  1  0
  4  5  2  0
  5  6  1  0
  7  6  1  0
  8  7  2  0
  9  8  1  0
 10 11  1  0
 10  9  2  0
 11 12  2  0
 12  4  1  0
 12  7  1  0
 13 14  2  0
 13  2  1  0
 15 13  1  0
 16 15  1  0
 16 17  1  1
 17 18  1  0
 18 19  1  0
 19 23  1  0
 20 19  2  0
 21 16  1  0
 22 21  2  0
 25 24  1  6
 25 27  1  0
 25 26  1  0
 27 28  1  6
 28 21  1  0
 29 27  1  0
 29 30  1  0
 31 29  2  0
M  END
$$$$
