WET.pdb
     RDKit          3D

 31 32  0  0  1  0  0  0  0  0999 V2000
   26.6294  -22.7082  -10.3404 N   0  0  0  0  0  0  0  0  0  0  0  0
   26.2293  -21.3974  -10.7212 C   0  0  1  0  0  0  0  0  0  0  0  0
   27.3995  -20.5199  -10.9809 C   0  0  0  0  0  0  0  0  0  0  0  0
   28.3183  -20.5640   -9.8168 C   0  0  0  0  0  0  0  0  0  0  0  0
   29.6065  -21.0978   -9.7953 C   0  0  0  0  0  0  0  0  0  0  0  0
   30.1506  -20.9301   -8.5866 N   0  0  0  0  0  0  0  0  0  0  0  0
   29.2506  -20.3021   -7.8210 C   0  0  0  0  0  0  0  0  0  0  0  0
   29.3114  -19.9029   -6.4953 C   0  0  0  0  0  0  0  0  0  0  0  0
   28.2263  -19.2720   -5.9246 C   0  0  0  0  0  0  0  0  0  0  0  0
   27.0694  -19.0171   -6.6205 C   0  0  0  0  0  0  0  0  0  0  0  0
   27.0213  -19.4226   -7.9507 C   0  0  0  0  0  0  0  0  0  0  0  0
   28.0933  -20.0583   -8.5572 C   0  0  0  0  0  0  0  0  0  0  0  0
   25.2889  -21.4750  -11.8677 C   0  0  0  0  0  0  0  0  0  0  0  0
   25.4245  -22.3447  -12.7648 O   0  0  0  0  0  0  0  0  0  0  0  0
   24.1888  -20.5763  -12.0160 N   0  0  0  0  0  0  0  0  0  0  0  0
   23.2546  -20.6174  -13.1197 C   0  0  1  0  0  0  0  0  0  0  0  0
   22.0285  -19.8382  -12.7236 C   0  0  0  0  0  0  0  0  0  0  0  0
   20.9923  -19.8858  -13.8103 C   0  0  0  0  0  0  0  0  0  0  0  0
   19.6253  -20.1257  -13.2516 C   0  0  0  0  0  0  0  0  0  0  0  0
   19.4862  -21.0852  -12.4464 O   0  0  0  0  0  0  0  0  0  0  0  0
   23.7982  -20.0753  -14.3797 C   0  0  0  0  0  0  0  0  0  0  0  0
   24.0889  -18.8587  -14.4072 O   0  0  0  0  0  0  0  0  0  0  0  0
   18.5732  -19.3158  -13.6174 O   0  0  0  0  0  0  0  0  0  0  0  0
   26.7786  -21.2073  -16.3433 C   0  0  0  0  0  0  0  0  0  0  0  0
   25.5735  -21.2943  -17.2865 C   0  0  1  0  0  0  0  0  0  0  0  0
   25.0490  -22.5880  -17.2527 O   0  0  0  0  0  0  0  0  0  0  0  0
   24.4726  -20.3650  -16.8215 C   0  0  2  0  0  0  0  0  0  0  0  0
   24.0058  -20.8397  -15.5452 N   0  0  0  0  0  0  0  0  0  0  0  0
   23.3592  -20.2531  -17.7705 C   0  0  0  0  0  0  0  0  0  0  0  0
   23.5276  -19.7127  -19.0599 O   0  0  0  0  0  0  0  0  0  0  0  0
   22.2095  -20.6334  -17.4758 O   0  0  0  0  0  0  0  0  0  0  0  0
  2  1  1  6
  2  3  1  0
  3  4  1  0
  4  5  2  0
  5  6  1  0
  7  6  1  0
  8  7  2  0
  9  8  1  0
 10 11  1  0
 10  9  2  0
 11 12  2  0
 12  4  1  0
 12  7  1  0
 13 14  2  0
 13  2  1  0
 15 13  1  0
 16 15  1  0
 16 17  1  1
 17 18  1  0
 18 19  1  0
 19 23  1  0
 20 19  2  0
 21 16  1  0
 22 21  2  0
 25 24  1  1
 25 27  1  0
 25 26  1  0
 27 28  1  1
 28 21  1  0
 29 27  1  0
 29 30  1  0
 31 29  2  0
M  END
$$$$
