WET.pdb
     RDKit          3D

 31 32  0  0  1  0  0  0  0  0999 V2000
   18.2713  -10.0128  -15.5288 N   0  0  0  0  0  0  0  0  0  0  0  0
   18.6035   -8.9891  -16.4589 C   0  0  1  0  0  0  0  0  0  0  0  0
   17.7678   -9.0686  -17.6845 C   0  0  0  0  0  0  0  0  0  0  0  0
   18.2562  -10.1745  -18.5448 C   0  0  0  0  0  0  0  0  0  0  0  0
   17.9340  -11.5258  -18.4228 C   0  0  0  0  0  0  0  0  0  0  0  0
   18.5285  -12.2267  -19.3927 N   0  0  0  0  0  0  0  0  0  0  0  0
   19.2293  -11.3675  -20.1418 C   0  0  0  0  0  0  0  0  0  0  0  0
   20.0254  -11.5791  -21.2563 C   0  0  0  0  0  0  0  0  0  0  0  0
   20.6607  -10.5098  -21.8513 C   0  0  0  0  0  0  0  0  0  0  0  0
   20.5392   -9.2239  -21.3827 C   0  0  0  0  0  0  0  0  0  0  0  0
   19.7369   -9.0249  -20.2633 C   0  0  0  0  0  0  0  0  0  0  0  0
   19.0825  -10.0760  -19.6404 C   0  0  0  0  0  0  0  0  0  0  0  0
   18.5381   -7.6653  -15.7897 C   0  0  0  0  0  0  0  0  0  0  0  0
   17.7096   -7.4382  -14.8723 O   0  0  0  0  0  0  0  0  0  0  0  0
   19.4026   -6.5855  -16.1457 N   0  0  0  0  0  0  0  0  0  0  0  0
   19.2890   -5.2477  -15.6071 C   0  0  1  0  0  0  0  0  0  0  0  0
   20.6006   -4.8918  -14.9589 C   0  0  0  0  0  0  0  0  0  0  0  0
   20.7090   -5.5162  -13.5968 C   0  0  0  0  0  0  0  0  0  0  0  0
   22.0599   -5.2860  -12.9963 C   0  0  0  0  0  0  0  0  0  0  0  0
   22.5841   -6.2398  -12.3609 O   0  0  0  0  0  0  0  0  0  0  0  0
   18.9440   -4.2276  -16.6158 C   0  0  0  0  0  0  0  0  0  0  0  0
   19.4897   -4.3175  -17.7381 O   0  0  0  0  0  0  0  0  0  0  0  0
   22.6883   -4.0695  -13.1449 O   0  0  0  0  0  0  0  0  0  0  0  0
   15.5930   -3.4598  -18.0245 C   0  0  0  0  0  0  0  0  0  0  0  0
   16.1112   -2.1718  -17.3750 C   0  0  1  0  0  0  0  0  0  0  0  0
   15.6803   -2.1142  -16.0481 O   0  0  0  0  0  0  0  0  0  0  0  0
   17.6248   -2.1704  -17.3426 C   0  0  2  0  0  0  0  0  0  0  0  0
   18.0455   -3.1655  -16.3913 N   0  0  0  0  0  0  0  0  0  0  0  0
   18.2035   -0.8629  -17.0134 C   0  0  0  0  0  0  0  0  0  0  0  0
   18.0961    0.2416  -17.8803 O   0  0  0  0  0  0  0  0  0  0  0  0
   18.8188   -0.6713  -15.9466 O   0  0  0  0  0  0  0  0  0  0  0  0
  2  1  1  1
  2  3  1  0
  3  4  1  0
  4  5  2  0
  5  6  1  0
  7  6  1  0
  8  7  2  0
  9  8  1  0
 10 11  1  0
 10  9  2  0
 11 12  2  0
 12  4  1  0
 12  7  1  0
 13 14  2  0
 13  2  1  0
 15 13  1  0
 16 15  1  0
 16 17  1  6
 17 18  1  0
 18 19  1  0
 19 23  1  0
 20 19  2  0
 21 16  1  0
 22 21  2  0
 25 24  1  1
 25 27  1  0
 25 26  1  0
 27 28  1  1
 28 21  1  0
 29 27  1  0
 29 30  1  0
 31 29  2  0
M  END
$$$$
