WET.pdb
     RDKit          3D

 31 32  0  0  1  0  0  0  0  0999 V2000
   24.6016  -11.9680  -17.6797 N   0  0  0  0  0  0  0  0  0  0  0  0
   23.4413  -11.6402  -16.9249 C   0  0  1  0  0  0  0  0  0  0  0  0
   23.5980  -12.0010  -15.4924 C   0  0  0  0  0  0  0  0  0  0  0  0
   23.7135  -13.4746  -15.3637 C   0  0  0  0  0  0  0  0  0  0  0  0
   24.8261  -14.1842  -14.9128 C   0  0  0  0  0  0  0  0  0  0  0  0
   24.5572  -15.4929  -14.8954 N   0  0  0  0  0  0  0  0  0  0  0  0
   23.2997  -15.6536  -15.3236 C   0  0  0  0  0  0  0  0  0  0  0  0
   22.5435  -16.8014  -15.5001 C   0  0  0  0  0  0  0  0  0  0  0  0
   21.2523  -16.6993  -15.9727 C   0  0  0  0  0  0  0  0  0  0  0  0
   20.6717  -15.4930  -16.2818 C   0  0  0  0  0  0  0  0  0  0  0  0
   21.4414  -14.3482  -16.0999 C   0  0  0  0  0  0  0  0  0  0  0  0
   22.7422  -14.4131  -15.6257 C   0  0  0  0  0  0  0  0  0  0  0  0
   23.0952  -10.2117  -17.1352 C   0  0  0  0  0  0  0  0  0  0  0  0
   23.9693   -9.3115  -17.0645 O   0  0  0  0  0  0  0  0  0  0  0  0
   21.7644   -9.7826  -17.4263 N   0  0  0  0  0  0  0  0  0  0  0  0
   21.3800   -8.3982  -17.5947 C   0  0  1  0  0  0  0  0  0  0  0  0
   20.2639   -8.3422  -18.6039 C   0  0  0  0  0  0  0  0  0  0  0  0
   19.8557   -6.9210  -18.8692 C   0  0  0  0  0  0  0  0  0  0  0  0
   18.7464   -6.8492  -19.8705 C   0  0  0  0  0  0  0  0  0  0  0  0
   17.6296   -7.3282  -19.5366 O   0  0  0  0  0  0  0  0  0  0  0  0
   20.9483   -7.7444  -16.3444 C   0  0  0  0  0  0  0  0  0  0  0  0
   20.2303   -8.4081  -15.5638 O   0  0  0  0  0  0  0  0  0  0  0  0
   18.9603   -6.2764  -21.1046 O   0  0  0  0  0  0  0  0  0  0  0  0
   22.9346   -4.2808  -14.9262 C   0  0  0  0  0  0  0  0  0  0  0  0
   22.1582   -5.2883  -14.0708 C   0  0  1  0  0  0  0  0  0  0  0  0
   21.7535   -4.6756  -12.8831 O   0  0  0  0  0  0  0  0  0  0  0  0
   20.8983   -5.7264  -14.7868 C   0  0  2  0  0  0  0  0  0  0  0  0
   21.2919   -6.4269  -15.9812 N   0  0  0  0  0  0  0  0  0  0  0  0
   19.9925   -4.6187  -15.1117 C   0  0  0  0  0  0  0  0  0  0  0  0
   19.1823   -4.0055  -14.1368 O   0  0  0  0  0  0  0  0  0  0  0  0
   19.8999   -4.1696  -16.2705 O   0  0  0  0  0  0  0  0  0  0  0  0
  2  1  1  6
  2  3  1  0
  3  4  1  0
  4  5  2  0
  5  6  1  0
  7  6  1  0
  8  7  2  0
  9  8  1  0
 10 11  1  0
 10  9  2  0
 11 12  2  0
 12  4  1  0
 12  7  1  0
 13 14  2  0
 13  2  1  0
 15 13  1  0
 16 15  1  0
 16 17  1  6
 17 18  1  0
 18 19  1  0
 19 23  1  0
 20 19  2  0
 21 16  1  0
 22 21  2  0
 25 24  1  6
 25 27  1  0
 25 26  1  0
 27 28  1  6
 28 21  1  0
 29 27  1  0
 29 30  1  0
 31 29  2  0
M  END
$$$$
