WET.pdb
     RDKit          3D

 31 32  0  0  1  0  0  0  0  0999 V2000
   21.0902  -20.6160  -13.7916 N   0  0  0  0  0  0  0  0  0  0  0  0
   22.4589  -20.2308  -13.7513 C   0  0  1  0  0  0  0  0  0  0  0  0
   23.3044  -21.2741  -13.1160 C   0  0  0  0  0  0  0  0  0  0  0  0
   23.1134  -21.2369  -11.6451 C   0  0  0  0  0  0  0  0  0  0  0  0
   21.9360  -21.5198  -10.9532 C   0  0  0  0  0  0  0  0  0  0  0  0
   22.1443  -21.4204   -9.6371 N   0  0  0  0  0  0  0  0  0  0  0  0
   23.4254  -21.0797   -9.4544 C   0  0  0  0  0  0  0  0  0  0  0  0
   24.1423  -20.8441   -8.2921 C   0  0  0  0  0  0  0  0  0  0  0  0
   25.4723  -20.4899   -8.3733 C   0  0  0  0  0  0  0  0  0  0  0  0
   26.1299  -20.3572   -9.5724 C   0  0  0  0  0  0  0  0  0  0  0  0
   25.3989  -20.5968  -10.7319 C   0  0  0  0  0  0  0  0  0  0  0  0
   24.0609  -20.9558  -10.6880 C   0  0  0  0  0  0  0  0  0  0  0  0
   22.9137  -19.8579  -15.1147 C   0  0  0  0  0  0  0  0  0  0  0  0
   22.7042  -20.6089  -16.1004 O   0  0  0  0  0  0  0  0  0  0  0  0
   23.6076  -18.6384  -15.3820 N   0  0  0  0  0  0  0  0  0  0  0  0
   24.4157  -18.4097  -16.5598 C   0  0  1  0  0  0  0  0  0  0  0  0
   24.2395  -16.9734  -16.9759 C   0  0  0  0  0  0  0  0  0  0  0  0
   22.8049  -16.6900  -17.3202 C   0  0  0  0  0  0  0  0  0  0  0  0
   22.5982  -15.2465  -17.6546 C   0  0  0  0  0  0  0  0  0  0  0  0
   22.4085  -14.9513  -18.8651 O   0  0  0  0  0  0  0  0  0  0  0  0
   25.8499  -18.6938  -16.3616 C   0  0  0  0  0  0  0  0  0  0  0  0
   26.4964  -17.9157  -15.6254 O   0  0  0  0  0  0  0  0  0  0  0  0
   22.6183  -14.2932  -16.6608 O   0  0  0  0  0  0  0  0  0  0  0  0
   27.4541  -19.3121  -14.3483 C   0  0  0  0  0  0  0  0  0  0  0  0
   27.9011  -20.5398  -15.1498 C   0  0  1  0  0  0  0  0  0  0  0  0
   27.0135  -21.5931  -14.9208 O   0  0  0  0  0  0  0  0  0  0  0  0
   27.8548  -20.2452  -16.6340 C   0  0  2  0  0  0  0  0  0  0  0  0
   26.5297  -19.7794  -16.9491 N   0  0  0  0  0  0  0  0  0  0  0  0
   28.2115  -21.3957  -17.4721 C   0  0  0  0  0  0  0  0  0  0  0  0
   27.3230  -21.9303  -18.4247 O   0  0  0  0  0  0  0  0  0  0  0  0
   29.3222  -21.9530  -17.3771 O   0  0  0  0  0  0  0  0  0  0  0  0
  2  1  1  6
  2  3  1  0
  3  4  1  0
  4  5  2  0
  5  6  1  0
  7  6  1  0
  8  7  2  0
  9  8  1  0
 10 11  1  0
 10  9  2  0
 11 12  2  0
 12  4  1  0
 12  7  1  0
 13 14  2  0
 13  2  1  0
 15 13  1  0
 16 15  1  0
 16 17  1  1
 17 18  1  0
 18 19  1  0
 19 23  1  0
 20 19  2  0
 21 16  1  0
 22 21  2  0
 25 24  1  1
 25 27  1  0
 25 26  1  0
 27 28  1  6
 28 21  1  0
 29 27  1  0
 29 30  1  0
 31 29  2  0
M  END
$$$$
