VYF.pdb
     RDKit          3D

 31 32  0  0  1  0  0  0  0  0999 V2000
   29.6552  -19.5716  -16.3294 C   0  0  0  0  0  0  0  0  0  0  0  0
   28.7753  -19.3508  -15.1311 C   0  0  1  0  0  0  0  0  0  0  0  0
   28.8875  -17.9744  -14.5620 C   0  0  0  0  0  0  0  0  0  0  0  0
   27.3281  -19.6565  -15.4040 C   0  0  2  0  0  0  0  0  0  0  0  0
   26.9334  -18.9921  -16.6053 N   0  0  0  0  0  0  0  0  0  0  0  0
   26.4279  -19.3382  -14.2999 C   0  0  0  0  0  0  0  0  0  0  0  0
   25.6270  -18.3685  -14.2786 O   0  0  0  0  0  0  0  0  0  0  0  0
   19.2834  -20.7547   -9.8961 O   0  0  0  0  0  0  0  0  0  0  0  0
   20.4685  -20.7739  -10.6253 C   0  0  0  0  0  0  0  0  0  0  0  0
   21.0770  -19.6025  -11.0016 C   0  0  0  0  0  0  0  0  0  0  0  0
   22.2548  -19.6253  -11.7262 C   0  0  0  0  0  0  0  0  0  0  0  0
   22.8728  -20.8036  -12.1043 C   0  0  0  0  0  0  0  0  0  0  0  0
   24.1113  -20.8718  -12.8861 C   0  0  0  0  0  0  0  0  0  0  0  0
   25.3284  -20.2979  -12.2277 C   0  0  2  0  0  0  0  0  0  0  0  0
   26.4420  -20.1757  -13.1518 N   0  0  0  0  0  0  0  0  0  0  0  0
   25.7434  -21.1885  -11.1259 C   0  0  0  0  0  0  0  0  0  0  0  0
   25.1282  -22.2390  -10.7856 O   0  0  0  0  0  0  0  0  0  0  0  0
   22.2532  -21.9720  -11.7215 C   0  0  0  0  0  0  0  0  0  0  0  0
   21.0641  -21.9627  -10.9898 C   0  0  0  0  0  0  0  0  0  0  0  0
   26.9036  -20.8962  -10.3616 N   0  0  0  0  0  0  0  0  0  0  0  0
   26.9220  -20.9445   -8.8902 C   0  0  1  0  0  0  0  0  0  0  0  0
   27.8851  -19.8708   -8.4512 C   0  0  0  0  0  0  0  0  0  0  0  0
   27.9541  -19.7620   -6.9816 C   0  0  0  0  0  0  0  0  0  0  0  0
   28.5325  -20.7349   -6.1972 C   0  0  0  0  0  0  0  0  0  0  0  0
   28.6053  -20.6364   -4.8150 C   0  0  0  0  0  0  0  0  0  0  0  0
   28.0894  -19.5366   -4.1645 C   0  0  0  0  0  0  0  0  0  0  0  0
   27.5064  -18.5534   -4.9382 C   0  0  0  0  0  0  0  0  0  0  0  0
   27.4342  -18.6508   -6.3085 C   0  0  0  0  0  0  0  0  0  0  0  0
   25.5845  -20.6986   -8.3681 C   0  0  0  0  0  0  0  0  0  0  0  0
   25.0207  -21.5849   -7.4599 O   0  0  0  0  0  0  0  0  0  0  0  0
   24.9506  -19.6723   -8.7557 O   0  0  0  0  0  0  0  0  0  0  0  0
  2  1  1  6
  3  2  1  0
  4  5  1  6
  4  2  1  0
  6  4  1  0
  7  6  2  0
  8  9  1  0
  9 10  2  0
 10 11  1  0
 12 11  2  0
 12 13  1  0
 14 13  1  6
 14 15  1  0
 15  6  1  0
 16 14  1  0
 16 20  1  0
 17 16  2  0
 18 12  1  0
 19 18  2  0
 19  9  1  0
 21 22  1  1
 21 20  1  0
 21 29  1  0
 23 28  1  0
 23 22  1  0
 24 23  2  0
 25 26  2  0
 25 24  1  0
 26 27  1  0
 27 28  2  0
 29 30  1  0
 31 29  2  0
M  END
$$$$
