VYF.pdb
     RDKit          3D

 31 32  0  0  1  0  0  0  0  0999 V2000
   31.7157  -36.6423  -18.5628 C   0  0  0  0  0  0  0  0  0  0  0  0
   31.0428  -35.3201  -18.8034 C   0  0  1  0  0  0  0  0  0  0  0  0
   31.9010  -34.1487  -18.4537 C   0  0  0  0  0  0  0  0  0  0  0  0
   30.5457  -35.1653  -20.2145 C   0  0  2  0  0  0  0  0  0  0  0  0
   31.6570  -35.2482  -21.1083 N   0  0  0  0  0  0  0  0  0  0  0  0
   29.7654  -33.9539  -20.4474 C   0  0  0  0  0  0  0  0  0  0  0  0
   30.1593  -32.9574  -21.1063 O   0  0  0  0  0  0  0  0  0  0  0  0
   24.0839  -38.1339  -20.6279 O   0  0  0  0  0  0  0  0  0  0  0  0
   24.6577  -36.8676  -20.6870 C   0  0  0  0  0  0  0  0  0  0  0  0
   24.5511  -36.0014  -19.6274 C   0  0  0  0  0  0  0  0  0  0  0  0
   25.1228  -34.7436  -19.6895 C   0  0  0  0  0  0  0  0  0  0  0  0
   25.8189  -34.2969  -20.7982 C   0  0  0  0  0  0  0  0  0  0  0  0
   26.4248  -32.9666  -20.9110 C   0  0  0  0  0  0  0  0  0  0  0  0
   27.5997  -32.7091  -20.0180 C   0  0  2  0  0  0  0  0  0  0  0  0
   28.4579  -33.8742  -19.8961 N   0  0  0  0  0  0  0  0  0  0  0  0
   27.1106  -32.3577  -18.6701 C   0  0  0  0  0  0  0  0  0  0  0  0
   26.9217  -33.1910  -17.7386 O   0  0  0  0  0  0  0  0  0  0  0  0
   25.9189  -35.1740  -21.8547 C   0  0  0  0  0  0  0  0  0  0  0  0
   25.3466  -36.4465  -21.8046 C   0  0  0  0  0  0  0  0  0  0  0  0
   26.8157  -31.0088  -18.3400 N   0  0  0  0  0  0  0  0  0  0  0  0
   26.4820  -30.5774  -16.9724 C   0  0  1  0  0  0  0  0  0  0  0  0
   27.7172  -30.8275  -16.1448 C   0  0  0  0  0  0  0  0  0  0  0  0
   28.8511  -29.9922  -16.5839 C   0  0  0  0  0  0  0  0  0  0  0  0
   29.8403  -30.4703  -17.4142 C   0  0  0  0  0  0  0  0  0  0  0  0
   30.9067  -29.6885  -17.8350 C   0  0  0  0  0  0  0  0  0  0  0  0
   31.0155  -28.3768  -17.4273 C   0  0  0  0  0  0  0  0  0  0  0  0
   30.0311  -27.8840  -16.5946 C   0  0  0  0  0  0  0  0  0  0  0  0
   28.9737  -28.6589  -16.1774 C   0  0  0  0  0  0  0  0  0  0  0  0
   26.1229  -29.1656  -16.9704 C   0  0  0  0  0  0  0  0  0  0  0  0
   25.6780  -28.5648  -15.8002 O   0  0  0  0  0  0  0  0  0  0  0  0
   26.2213  -28.5032  -18.0459 O   0  0  0  0  0  0  0  0  0  0  0  0
  2  1  1  6
  3  2  1  0
  4  5  1  6
  4  2  1  0
  6  4  1  0
  7  6  2  0
  8  9  1  0
  9 10  2  0
 10 11  1  0
 12 11  2  0
 12 13  1  0
 14 13  1  6
 14 15  1  0
 15  6  1  0
 16 14  1  0
 16 20  1  0
 17 16  2  0
 18 12  1  0
 19 18  2  0
 19  9  1  0
 21 22  1  1
 21 20  1  0
 21 29  1  0
 23 28  1  0
 23 22  1  0
 24 23  2  0
 25 26  2  0
 25 24  1  0
 26 27  1  0
 27 28  2  0
 29 30  1  0
 31 29  2  0
M  END
$$$$
