VYF.pdb
     RDKit          3D

 31 32  0  0  1  0  0  0  0  0999 V2000
   21.1978  -19.5228  -12.3504 C   0  0  0  0  0  0  0  0  0  0  0  0
   22.5052  -20.2642  -12.3498 C   0  0  1  0  0  0  0  0  0  0  0  0
   22.3673  -21.7043  -12.7214 C   0  0  0  0  0  0  0  0  0  0  0  0
   23.5415  -19.6230  -13.2314 C   0  0  2  0  0  0  0  0  0  0  0  0
   23.0047  -19.4797  -14.5474 N   0  0  0  0  0  0  0  0  0  0  0  0
   24.8250  -20.3178  -13.2535 C   0  0  0  0  0  0  0  0  0  0  0  0
   25.1111  -21.2811  -14.0102 O   0  0  0  0  0  0  0  0  0  0  0  0
   27.7019  -16.8926  -17.7524 O   0  0  0  0  0  0  0  0  0  0  0  0
   27.8352  -17.5065  -16.5107 C   0  0  0  0  0  0  0  0  0  0  0  0
   28.3916  -18.7569  -16.4050 C   0  0  0  0  0  0  0  0  0  0  0  0
   28.5226  -19.3640  -15.1692 C   0  0  0  0  0  0  0  0  0  0  0  0
   28.1097  -18.7591  -13.9958 C   0  0  0  0  0  0  0  0  0  0  0  0
   28.2150  -19.3743  -12.6691 C   0  0  0  0  0  0  0  0  0  0  0  0
   27.1928  -20.4236  -12.3556 C   0  0  2  0  0  0  0  0  0  0  0  0
   25.8429  -19.8883  -12.3594 N   0  0  0  0  0  0  0  0  0  0  0  0
   27.4640  -20.9721  -11.0122 C   0  0  0  0  0  0  0  0  0  0  0  0
   28.5724  -21.4602  -10.6497 O   0  0  0  0  0  0  0  0  0  0  0  0
   27.5530  -17.5055  -14.1143 C   0  0  0  0  0  0  0  0  0  0  0  0
   27.4152  -16.8816  -15.3557 C   0  0  0  0  0  0  0  0  0  0  0  0
   26.4498  -20.9788  -10.0188 N   0  0  0  0  0  0  0  0  0  0  0  0
   26.7375  -21.1661   -8.5870 C   0  0  1  0  0  0  0  0  0  0  0  0
   27.6019  -19.9995   -8.1809 C   0  0  0  0  0  0  0  0  0  0  0  0
   27.8660  -19.9904   -6.7295 C   0  0  0  0  0  0  0  0  0  0  0  0
   28.9196  -20.6767   -6.1680 C   0  0  0  0  0  0  0  0  0  0  0  0
   29.1766  -20.6681   -4.8044 C   0  0  0  0  0  0  0  0  0  0  0  0
   28.3680  -19.9565   -3.9452 C   0  0  0  0  0  0  0  0  0  0  0  0
   27.3077  -19.2637   -4.4940 C   0  0  0  0  0  0  0  0  0  0  0  0
   27.0528  -19.2720   -5.8459 C   0  0  0  0  0  0  0  0  0  0  0  0
   25.4936  -21.1896   -7.8292 C   0  0  0  0  0  0  0  0  0  0  0  0
   25.4485  -21.8134   -6.5894 O   0  0  0  0  0  0  0  0  0  0  0  0
   24.4635  -20.6375   -8.3183 O   0  0  0  0  0  0  0  0  0  0  0  0
  2  1  1  6
  3  2  1  0
  4  5  1  6
  4  2  1  0
  6  4  1  0
  7  6  2  0
  8  9  1  0
  9 10  2  0
 10 11  1  0
 12 11  2  0
 12 13  1  0
 14 13  1  1
 14 15  1  0
 15  6  1  0
 16 14  1  0
 16 20  1  0
 17 16  2  0
 18 12  1  0
 19 18  2  0
 19  9  1  0
 21 22  1  1
 21 20  1  0
 21 29  1  0
 23 28  1  0
 23 22  1  0
 24 23  2  0
 25 26  2  0
 25 24  1  0
 26 27  1  0
 27 28  2  0
 29 30  1  0
 31 29  2  0
M  END
$$$$
