VYF.pdb
     RDKit          3D

 31 32  0  0  1  0  0  0  0  0999 V2000
   27.3963  -21.2647  -19.1483 C   0  0  0  0  0  0  0  0  0  0  0  0
   26.3908  -22.3390  -18.8422 C   0  0  1  0  0  0  0  0  0  0  0  0
   25.4882  -22.6474  -19.9916 C   0  0  0  0  0  0  0  0  0  0  0  0
   27.0258  -23.6130  -18.3564 C   0  0  2  0  0  0  0  0  0  0  0  0
   27.8826  -24.1223  -19.3796 N   0  0  0  0  0  0  0  0  0  0  0  0
   26.0750  -24.6250  -17.9065 C   0  0  0  0  0  0  0  0  0  0  0  0
   25.5561  -25.5046  -18.6409 O   0  0  0  0  0  0  0  0  0  0  0  0
   28.4041  -30.7050  -17.0921 O   0  0  0  0  0  0  0  0  0  0  0  0
   27.6359  -29.6627  -16.5822 C   0  0  0  0  0  0  0  0  0  0  0  0
   28.1911  -28.4263  -16.3650 C   0  0  0  0  0  0  0  0  0  0  0  0
   27.4247  -27.3926  -15.8581 C   0  0  0  0  0  0  0  0  0  0  0  0
   26.0850  -27.5426  -15.5482 C   0  0  0  0  0  0  0  0  0  0  0  0
   25.2422  -26.4786  -14.9940 C   0  0  0  0  0  0  0  0  0  0  0  0
   24.6753  -25.5130  -15.9892 C   0  0  2  0  0  0  0  0  0  0  0  0
   25.6931  -24.6344  -16.5376 N   0  0  0  0  0  0  0  0  0  0  0  0
   23.6593  -24.6758  -15.3211 C   0  0  0  0  0  0  0  0  0  0  0  0
   23.9120  -23.6036  -14.7011 O   0  0  0  0  0  0  0  0  0  0  0  0
   25.5393  -28.7871  -15.7699 C   0  0  0  0  0  0  0  0  0  0  0  0
   26.3020  -29.8388  -16.2812 C   0  0  0  0  0  0  0  0  0  0  0  0
   22.2900  -25.0500  -15.3431 N   0  0  0  0  0  0  0  0  0  0  0  0
   21.2356  -24.2546  -14.6924 C   0  0  1  0  0  0  0  0  0  0  0  0
   21.2122  -22.9291  -15.4104 C   0  0  0  0  0  0  0  0  0  0  0  0
   20.7228  -23.0632  -16.7956 C   0  0  0  0  0  0  0  0  0  0  0  0
   21.5615  -22.9795  -17.8846 C   0  0  0  0  0  0  0  0  0  0  0  0
   21.1085  -23.1098  -19.1898 C   0  0  0  0  0  0  0  0  0  0  0  0
   19.7733  -23.3324  -19.4473 C   0  0  0  0  0  0  0  0  0  0  0  0
   18.9208  -23.4184  -18.3651 C   0  0  0  0  0  0  0  0  0  0  0  0
   19.3697  -23.2893  -17.0712 C   0  0  0  0  0  0  0  0  0  0  0  0
   19.9548  -24.9391  -14.8068 C   0  0  0  0  0  0  0  0  0  0  0  0
   19.8567  -26.1068  -15.5519 O   0  0  0  0  0  0  0  0  0  0  0  0
   18.9418  -24.4530  -14.2214 O   0  0  0  0  0  0  0  0  0  0  0  0
  2  1  1  6
  3  2  1  0
  4  5  1  6
  4  2  1  0
  6  4  1  0
  7  6  2  0
  8  9  1  0
  9 10  2  0
 10 11  1  0
 12 11  2  0
 12 13  1  0
 14 13  1  1
 14 15  1  0
 15  6  1  0
 16 14  1  0
 16 20  1  0
 17 16  2  0
 18 12  1  0
 19 18  2  0
 19  9  1  0
 21 22  1  6
 21 20  1  0
 21 29  1  0
 23 28  1  0
 23 22  1  0
 24 23  2  0
 25 26  2  0
 25 24  1  0
 26 27  1  0
 27 28  2  0
 29 30  1  0
 31 29  2  0
M  END
$$$$
