VYF.pdb
     RDKit          3D

 31 32  0  0  1  0  0  0  0  0999 V2000
   40.1004   -0.7520  -12.2076 C   0  0  0  0  0  0  0  0  0  0  0  0
   39.4313   -0.8206  -10.8635 C   0  0  1  0  0  0  0  0  0  0  0  0
   38.4333    0.2689  -10.6446 C   0  0  0  0  0  0  0  0  0  0  0  0
   38.7774   -2.1498  -10.6030 C   0  0  2  0  0  0  0  0  0  0  0  0
   37.7629   -2.3667  -11.5849 N   0  0  0  0  0  0  0  0  0  0  0  0
   38.2505   -2.3057   -9.2507 C   0  0  0  0  0  0  0  0  0  0  0  0
   37.0291   -2.3491   -8.9528 O   0  0  0  0  0  0  0  0  0  0  0  0
   36.5281   -8.1874   -9.0735 O   0  0  0  0  0  0  0  0  0  0  0  0
   37.1434   -7.1419   -8.3918 C   0  0  0  0  0  0  0  0  0  0  0  0
   38.3310   -6.6185   -8.8390 C   0  0  0  0  0  0  0  0  0  0  0  0
   38.9396   -5.5793   -8.1590 C   0  0  0  0  0  0  0  0  0  0  0  0
   38.3983   -5.0206   -7.0153 C   0  0  0  0  0  0  0  0  0  0  0  0
   39.0191   -3.9307   -6.2561 C   0  0  0  0  0  0  0  0  0  0  0  0
   38.7752   -2.5498   -6.7831 C   0  0  2  0  0  0  0  0  0  0  0  0
   39.1713   -2.4189   -8.1741 N   0  0  0  0  0  0  0  0  0  0  0  0
   39.5643   -1.5867   -5.9898 C   0  0  0  0  0  0  0  0  0  0  0  0
   40.7389   -1.2175   -6.2763 O   0  0  0  0  0  0  0  0  0  0  0  0
   37.2073   -5.5539   -6.5762 C   0  0  0  0  0  0  0  0  0  0  0  0
   36.5826   -6.6028   -7.2534 C   0  0  0  0  0  0  0  0  0  0  0  0
   39.0193   -1.0030   -4.8161 N   0  0  0  0  0  0  0  0  0  0  0  0
   39.7264    0.0255   -4.0350 C   0  0  1  0  0  0  0  0  0  0  0  0
   39.9158    1.1966   -4.9653 C   0  0  0  0  0  0  0  0  0  0  0  0
   40.5572    2.3390   -4.2871 C   0  0  0  0  0  0  0  0  0  0  0  0
   41.8967    2.3486   -3.9675 C   0  0  0  0  0  0  0  0  0  0  0  0
   42.5072    3.4219   -3.3343 C   0  0  0  0  0  0  0  0  0  0  0  0
   41.7777    4.5406   -2.9954 C   0  0  0  0  0  0  0  0  0  0  0  0
   40.4336    4.5449   -3.3095 C   0  0  0  0  0  0  0  0  0  0  0  0
   39.8282    3.4810   -3.9374 C   0  0  0  0  0  0  0  0  0  0  0  0
   38.9327    0.3991   -2.8719 C   0  0  0  0  0  0  0  0  0  0  0  0
   39.5540    0.9351   -1.7516 O   0  0  0  0  0  0  0  0  0  0  0  0
   37.6780    0.2259   -2.9005 O   0  0  0  0  0  0  0  0  0  0  0  0
  2  1  1  6
  3  2  1  0
  4  5  1  6
  4  2  1  0
  6  4  1  0
  7  6  2  0
  8  9  1  0
  9 10  2  0
 10 11  1  0
 12 11  2  0
 12 13  1  0
 14 13  1  1
 14 15  1  0
 15  6  1  0
 16 14  1  0
 16 20  1  0
 17 16  2  0
 18 12  1  0
 19 18  2  0
 19  9  1  0
 21 22  1  6
 21 20  1  0
 21 29  1  0
 23 28  1  0
 23 22  1  0
 24 23  2  0
 25 26  2  0
 25 24  1  0
 26 27  1  0
 27 28  2  0
 29 30  1  0
 31 29  2  0
M  END
$$$$
