VYF.pdb
     RDKit          3D

 31 32  0  0  1  0  0  0  0  0999 V2000
   28.7499  -19.0160  -16.7683 C   0  0  0  0  0  0  0  0  0  0  0  0
   27.8740  -18.8055  -15.5653 C   0  0  1  0  0  0  0  0  0  0  0  0
   26.4259  -18.6706  -15.9058 C   0  0  0  0  0  0  0  0  0  0  0  0
   28.0397  -19.8801  -14.5260 C   0  0  2  0  0  0  0  0  0  0  0  0
   27.6983  -21.1404  -15.1052 N   0  0  0  0  0  0  0  0  0  0  0  0
   27.2962  -19.6431  -13.2924 C   0  0  0  0  0  0  0  0  0  0  0  0
   27.3841  -18.6068  -12.5848 O   0  0  0  0  0  0  0  0  0  0  0  0
   21.2138  -18.1583  -15.9805 O   0  0  0  0  0  0  0  0  0  0  0  0
   21.9321  -18.8567  -15.0148 C   0  0  0  0  0  0  0  0  0  0  0  0
   22.5680  -20.0317  -15.3300 C   0  0  0  0  0  0  0  0  0  0  0  0
   23.2812  -20.7232  -14.3676 C   0  0  0  0  0  0  0  0  0  0  0  0
   23.3917  -20.2800  -13.0620 C   0  0  0  0  0  0  0  0  0  0  0  0
   24.1230  -20.9907  -12.0086 C   0  0  0  0  0  0  0  0  0  0  0  0
   25.4988  -20.4775  -11.7122 C   0  0  2  0  0  0  0  0  0  0  0  0
   26.3990  -20.6477  -12.8390 N   0  0  0  0  0  0  0  0  0  0  0  0
   26.0536  -21.2247  -10.5661 C   0  0  0  0  0  0  0  0  0  0  0  0
   26.4729  -22.4157  -10.6249 O   0  0  0  0  0  0  0  0  0  0  0  0
   22.7495  -19.1008  -12.7576 C   0  0  0  0  0  0  0  0  0  0  0  0
   22.0266  -18.3930  -13.7197 C   0  0  0  0  0  0  0  0  0  0  0  0
   26.1473  -20.6160   -9.2870 N   0  0  0  0  0  0  0  0  0  0  0  0
   26.6959  -21.3120   -8.1112 C   0  0  1  0  0  0  0  0  0  0  0  0
   28.1199  -20.8363   -7.9738 C   0  0  0  0  0  0  0  0  0  0  0  0
   28.3283  -20.0796   -6.7246 C   0  0  0  0  0  0  0  0  0  0  0  0
   27.8601  -18.7958   -6.5541 C   0  0  0  0  0  0  0  0  0  0  0  0
   28.0481  -18.0804   -5.3800 C   0  0  0  0  0  0  0  0  0  0  0  0
   28.7254  -18.6426   -4.3199 C   0  0  0  0  0  0  0  0  0  0  0  0
   29.2006  -19.9290   -4.4766 C   0  0  0  0  0  0  0  0  0  0  0  0
   29.0142  -20.6384   -5.6405 C   0  0  0  0  0  0  0  0  0  0  0  0
   25.9130  -20.9814   -6.9280 C   0  0  0  0  0  0  0  0  0  0  0  0
   24.9444  -19.9884   -6.9926 O   0  0  0  0  0  0  0  0  0  0  0  0
   26.1313  -21.6091   -5.8494 O   0  0  0  0  0  0  0  0  0  0  0  0
  2  1  1  6
  3  2  1  0
  4  5  1  6
  4  2  1  0
  6  4  1  0
  7  6  2  0
  8  9  1  0
  9 10  2  0
 10 11  1  0
 12 11  2  0
 12 13  1  0
 14 13  1  6
 14 15  1  0
 15  6  1  0
 16 14  1  0
 16 20  1  0
 17 16  2  0
 18 12  1  0
 19 18  2  0
 19  9  1  0
 21 22  1  1
 21 20  1  0
 21 29  1  0
 23 28  1  0
 23 22  1  0
 24 23  2  0
 25 26  2  0
 25 24  1  0
 26 27  1  0
 27 28  2  0
 29 30  1  0
 31 29  2  0
M  END
$$$$
