VYF.pdb
     RDKit          3D

 31 32  0  0  1  0  0  0  0  0999 V2000
   23.6363  -24.2697  -25.3329 C   0  0  0  0  0  0  0  0  0  0  0  0
   24.1747  -22.9752  -24.7913 C   0  0  1  0  0  0  0  0  0  0  0  0
   24.1101  -21.8520  -25.7737 C   0  0  0  0  0  0  0  0  0  0  0  0
   23.5051  -22.5528  -23.5124 C   0  0  2  0  0  0  0  0  0  0  0  0
   23.8271  -23.4952  -22.4884 N   0  0  0  0  0  0  0  0  0  0  0  0
   22.0624  -22.3613  -23.6241 C   0  0  0  0  0  0  0  0  0  0  0  0
   21.5042  -21.4686  -24.3125 O   0  0  0  0  0  0  0  0  0  0  0  0
   13.4876  -24.4412  -23.9319 O   0  0  0  0  0  0  0  0  0  0  0  0
   14.8706  -24.4488  -23.7783 C   0  0  0  0  0  0  0  0  0  0  0  0
   15.6940  -24.6045  -24.8654 C   0  0  0  0  0  0  0  0  0  0  0  0
   17.0682  -24.6114  -24.7091 C   0  0  0  0  0  0  0  0  0  0  0  0
   17.6773  -24.4649  -23.4759 C   0  0  0  0  0  0  0  0  0  0  0  0
   19.1281  -24.4834  -23.2648 C   0  0  0  0  0  0  0  0  0  0  0  0
   19.7556  -23.1614  -22.9441 C   0  0  2  0  0  0  0  0  0  0  0  0
   21.2052  -23.2402  -22.9081 N   0  0  0  0  0  0  0  0  0  0  0  0
   19.2881  -22.7175  -21.6160 C   0  0  0  0  0  0  0  0  0  0  0  0
   19.6532  -23.2325  -20.5208 O   0  0  0  0  0  0  0  0  0  0  0  0
   16.8414  -24.3098  -22.3930 C   0  0  0  0  0  0  0  0  0  0  0  0
   15.4527  -24.3010  -22.5372 C   0  0  0  0  0  0  0  0  0  0  0  0
   18.3660  -21.6445  -21.4987 N   0  0  0  0  0  0  0  0  0  0  0  0
   17.9203  -21.1147  -20.1993 C   0  0  1  0  0  0  0  0  0  0  0  0
   17.9893  -19.6133  -20.3169 C   0  0  0  0  0  0  0  0  0  0  0  0
   17.0959  -19.1034  -21.3743 C   0  0  0  0  0  0  0  0  0  0  0  0
   15.7753  -18.7934  -21.1368 C   0  0  0  0  0  0  0  0  0  0  0  0
   14.9309  -18.3086  -22.1256 C   0  0  0  0  0  0  0  0  0  0  0  0
   15.3951  -18.1163  -23.4086 C   0  0  0  0  0  0  0  0  0  0  0  0
   16.7169  -18.4230  -23.6613 C   0  0  0  0  0  0  0  0  0  0  0  0
   17.5542  -18.9036  -22.6812 C   0  0  0  0  0  0  0  0  0  0  0  0
   16.5615  -21.5599  -19.9208 C   0  0  0  0  0  0  0  0  0  0  0  0
   15.8581  -22.2804  -20.8771 O   0  0  0  0  0  0  0  0  0  0  0  0
   16.0379  -21.2787  -18.8020 O   0  0  0  0  0  0  0  0  0  0  0  0
  2  1  1  6
  3  2  1  0
  4  5  1  1
  4  2  1  0
  6  4  1  0
  7  6  2  0
  8  9  1  0
  9 10  2  0
 10 11  1  0
 12 11  2  0
 12 13  1  0
 14 13  1  1
 14 15  1  0
 15  6  1  0
 16 14  1  0
 16 20  1  0
 17 16  2  0
 18 12  1  0
 19 18  2  0
 19  9  1  0
 21 22  1  6
 21 20  1  0
 21 29  1  0
 23 28  1  0
 23 22  1  0
 24 23  2  0
 25 26  2  0
 25 24  1  0
 26 27  1  0
 27 28  2  0
 29 30  1  0
 31 29  2  0
M  END
$$$$
