YYK.pdb
     RDKit          3D

 34 35  0  0  1  0  0  0  0  0999 V2000
   22.5555  -29.6261   -9.8958 O   0  0  0  0  0  0  0  0  0  0  0  0
   23.3258  -30.4573   -9.0794 C   0  0  0  0  0  0  0  0  0  0  0  0
   22.8817  -31.7177   -8.7340 C   0  0  0  0  0  0  0  0  0  0  0  0
   23.6287  -32.5518   -7.9292 C   0  0  0  0  0  0  0  0  0  0  0  0
   24.8547  -32.1606   -7.4340 C   0  0  0  0  0  0  0  0  0  0  0  0
   25.6559  -33.0739   -6.5620 C   0  0  0  0  0  0  0  0  0  0  0  0
   26.7493  -33.6939   -7.4413 C   0  0  2  0  0  0  0  0  0  0  0  0
   26.1290  -34.7036   -8.2815 N   0  0  0  0  0  0  0  0  0  0  0  0
   27.7571  -34.3543   -6.5565 C   0  0  0  0  0  0  0  0  0  0  0  0
   27.5531  -35.5414   -6.1365 O   0  0  0  0  0  0  0  0  0  0  0  0
   25.3025  -30.8969   -7.7788 C   0  0  0  0  0  0  0  0  0  0  0  0
   24.5522  -30.0606   -8.5865 C   0  0  0  0  0  0  0  0  0  0  0  0
   35.1871  -36.5628   -2.4649 O   0  0  0  0  0  0  0  0  0  0  0  0
   34.2459  -35.8962   -3.2392 C   0  0  0  0  0  0  0  0  0  0  0  0
   34.0119  -36.2816   -4.5421 C   0  0  0  0  0  0  0  0  0  0  0  0
   33.0624  -35.6064   -5.3177 C   0  0  0  0  0  0  0  0  0  0  0  0
   32.3322  -34.5498   -4.8314 C   0  0  0  0  0  0  0  0  0  0  0  0
   31.3178  -33.8016   -5.6101 C   0  0  0  0  0  0  0  0  0  0  0  0
   29.9230  -34.3712   -5.3935 C   0  0  2  0  0  0  0  0  0  0  0  0
   28.9430  -33.6855   -6.1712 N   0  0  0  0  0  0  0  0  0  0  0  0
   29.6641  -34.3969   -3.9386 C   0  0  0  0  0  0  0  0  0  0  0  0
   29.4793  -33.3090   -3.2957 O   0  0  0  0  0  0  0  0  0  0  0  0
   32.5932  -34.1826   -3.5041 C   0  0  0  0  0  0  0  0  0  0  0  0
   33.5250  -34.8375   -2.7275 C   0  0  0  0  0  0  0  0  0  0  0  0
   29.5995  -35.5853   -3.1764 N   0  0  0  0  0  0  0  0  0  0  0  0
   29.2657  -35.5914   -1.7516 C   0  0  1  0  0  0  0  0  0  0  0  0
   28.0584  -36.4578   -1.5286 C   0  0  0  0  0  0  0  0  0  0  0  0
   27.6772  -36.7281   -0.1337 C   0  0  0  0  0  0  0  0  0  0  0  0
   26.5498  -37.6786    0.0336 C   0  0  0  0  0  0  0  0  0  0  0  0
   26.2578  -37.8609    1.5175 C   0  0  0  0  0  0  0  0  0  0  0  0
   25.0831  -38.7406    1.6128 N   0  0  0  0  0  0  0  0  0  0  0  0
   30.4557  -35.8637   -0.9617 C   0  0  0  0  0  0  0  0  0  0  0  0
   30.7473  -35.2385    0.2683 O   0  0  0  0  0  0  0  0  0  0  0  0
   31.3132  -36.7035   -1.3532 O   0  0  0  0  0  0  0  0  0  0  0  0
  2  1  1  0
  3  2  2  0
  4  3  1  0
  5  4  2  0
  5 11  1  0
  6  5  1  0
  7  8  1  6
  7  6  1  0
  9  7  1  0
  9 10  2  0
 11 12  2  0
 12  2  1  0
 14 24  2  0
 14 13  1  0
 15 14  1  0
 16 17  1  0
 16 15  2  0
 17 23  2  0
 18 17  1  0
 19 18  1  1
 19 20  1  0
 20  9  1  0
 21 19  1  0
 22 21  2  0
 23 24  1  0
 25 21  1  0
 26 25  1  0
 26 27  1  6
 27 28  1  0
 28 29  1  0
 29 30  1  0
 30 31  1  0
 32 26  1  0
 33 32  1  0
 34 32  2  0
M  END
$$$$
