YYK.pdb
     RDKit          3D

 34 35  0  0  1  0  0  0  0  0999 V2000
   28.0720  -15.0571  -22.8425 O   0  0  0  0  0  0  0  0  0  0  0  0
   27.6150  -15.8816  -21.8120 C   0  0  0  0  0  0  0  0  0  0  0  0
   27.0442  -17.1077  -22.0878 C   0  0  0  0  0  0  0  0  0  0  0  0
   26.5876  -17.9346  -21.0832 C   0  0  0  0  0  0  0  0  0  0  0  0
   26.6822  -17.5704  -19.7568 C   0  0  0  0  0  0  0  0  0  0  0  0
   26.1834  -18.4757  -18.6759 C   0  0  0  0  0  0  0  0  0  0  0  0
   27.4060  -19.1875  -18.0828 C   0  0  2  0  0  0  0  0  0  0  0  0
   27.8470  -20.1898  -19.0373 N   0  0  0  0  0  0  0  0  0  0  0  0
   26.9944  -19.8718  -16.8191 C   0  0  0  0  0  0  0  0  0  0  0  0
   26.2916  -20.9350  -16.8720 O   0  0  0  0  0  0  0  0  0  0  0  0
   27.2543  -16.3412  -19.4772 C   0  0  0  0  0  0  0  0  0  0  0  0
   27.7122  -15.5120  -20.4860 C   0  0  0  0  0  0  0  0  0  0  0  0
   25.1850  -21.5344   -8.3660 O   0  0  0  0  0  0  0  0  0  0  0  0
   25.7581  -21.0280   -9.5257 C   0  0  0  0  0  0  0  0  0  0  0  0
   26.5720  -21.8198  -10.3077 C   0  0  0  0  0  0  0  0  0  0  0  0
   27.1468  -21.3044  -11.4751 C   0  0  0  0  0  0  0  0  0  0  0  0
   26.9342  -20.0131  -11.8915 C   0  0  0  0  0  0  0  0  0  0  0  0
   27.5191  -19.4192  -13.1165 C   0  0  0  0  0  0  0  0  0  0  0  0
   26.8180  -19.9288  -14.3676 C   0  0  2  0  0  0  0  0  0  0  0  0
   27.3708  -19.3615  -15.5543 N   0  0  0  0  0  0  0  0  0  0  0  0
   25.3655  -19.7211  -14.1905 C   0  0  0  0  0  0  0  0  0  0  0  0
   24.8645  -18.5496  -14.2788 O   0  0  0  0  0  0  0  0  0  0  0  0
   26.1026  -19.2341  -11.0753 C   0  0  0  0  0  0  0  0  0  0  0  0
   25.5291  -19.7271   -9.9228 C   0  0  0  0  0  0  0  0  0  0  0  0
   24.4525  -20.7665  -13.9237 N   0  0  0  0  0  0  0  0  0  0  0  0
   23.0241  -20.5309  -13.7099 C   0  0  1  0  0  0  0  0  0  0  0  0
   22.2454  -21.1488  -14.8367 C   0  0  0  0  0  0  0  0  0  0  0  0
   21.6365  -20.2307  -15.8118 C   0  0  0  0  0  0  0  0  0  0  0  0
   20.8267  -20.8874  -16.8679 C   0  0  0  0  0  0  0  0  0  0  0  0
   20.2336  -19.8249  -17.7844 C   0  0  0  0  0  0  0  0  0  0  0  0
   19.3632  -20.5276  -18.7393 N   0  0  0  0  0  0  0  0  0  0  0  0
   22.6573  -20.8907  -12.3497 C   0  0  0  0  0  0  0  0  0  0  0  0
   21.6633  -20.2298  -11.5987 O   0  0  0  0  0  0  0  0  0  0  0  0
   23.2308  -21.8465  -11.7569 O   0  0  0  0  0  0  0  0  0  0  0  0
  2  1  1  0
  3  2  2  0
  4  3  1  0
  5  4  2  0
  5 11  1  0
  6  5  1  0
  7  8  1  6
  7  6  1  0
  9  7  1  0
  9 10  2  0
 11 12  2  0
 12  2  1  0
 14 24  2  0
 14 13  1  0
 15 14  1  0
 16 17  1  0
 16 15  2  0
 17 23  2  0
 18 17  1  0
 19 18  1  1
 19 20  1  0
 20  9  1  0
 21 19  1  0
 22 21  2  0
 23 24  1  0
 25 21  1  0
 26 25  1  0
 26 27  1  6
 27 28  1  0
 28 29  1  0
 29 30  1  0
 30 31  1  0
 32 26  1  0
 33 32  1  0
 34 32  2  0
M  END
$$$$
