YYK.pdb
     RDKit          3D

 34 35  0  0  1  0  0  0  0  0999 V2000
   24.5722  -18.6459  -21.2794 O   0  0  0  0  0  0  0  0  0  0  0  0
   24.1129  -17.6344  -20.4329 C   0  0  0  0  0  0  0  0  0  0  0  0
   24.7750  -16.4261  -20.3511 C   0  0  0  0  0  0  0  0  0  0  0  0
   24.3360  -15.4162  -19.5211 C   0  0  0  0  0  0  0  0  0  0  0  0
   23.2136  -15.5715  -18.7354 C   0  0  0  0  0  0  0  0  0  0  0  0
   22.7470  -14.4691  -17.8390 C   0  0  0  0  0  0  0  0  0  0  0  0
   23.4966  -14.6202  -16.5092 C   0  0  2  0  0  0  0  0  0  0  0  0
   22.9337  -15.7593  -15.8051 N   0  0  0  0  0  0  0  0  0  0  0  0
   23.2733  -13.3886  -15.6919 C   0  0  0  0  0  0  0  0  0  0  0  0
   22.2141  -13.2748  -14.9904 O   0  0  0  0  0  0  0  0  0  0  0  0
   22.5476  -16.7824  -18.8155 C   0  0  0  0  0  0  0  0  0  0  0  0
   22.9889  -17.7952  -19.6488 C   0  0  0  0  0  0  0  0  0  0  0  0
   29.5719  -10.2281  -17.8865 O   0  0  0  0  0  0  0  0  0  0  0  0
   28.5153  -10.3316  -16.9905 C   0  0  0  0  0  0  0  0  0  0  0  0
   27.6096   -9.3011  -16.8544 C   0  0  0  0  0  0  0  0  0  0  0  0
   26.5469   -9.4108  -15.9501 C   0  0  0  0  0  0  0  0  0  0  0  0
   26.3568  -10.5251  -15.1702 C   0  0  0  0  0  0  0  0  0  0  0  0
   25.2509  -10.6904  -14.1981 C   0  0  0  0  0  0  0  0  0  0  0  0
   23.9815  -11.1780  -14.8819 C   0  0  2  0  0  0  0  0  0  0  0  0
   24.2198  -12.3369  -15.6794 N   0  0  0  0  0  0  0  0  0  0  0  0
   23.3849  -10.0331  -15.6012 C   0  0  0  0  0  0  0  0  0  0  0  0
   23.6945   -9.8021  -16.8185 O   0  0  0  0  0  0  0  0  0  0  0  0
   27.2941  -11.5546  -15.3319 C   0  0  0  0  0  0  0  0  0  0  0  0
   28.3460  -11.4617  -16.2182 C   0  0  0  0  0  0  0  0  0  0  0  0
   22.4562   -9.1412  -15.0185 N   0  0  0  0  0  0  0  0  0  0  0  0
   21.8246   -8.0569  -15.7715 C   0  0  1  0  0  0  0  0  0  0  0  0
   20.5233   -8.5431  -16.3443 C   0  0  0  0  0  0  0  0  0  0  0  0
   19.3885   -8.6670  -15.4164 C   0  0  0  0  0  0  0  0  0  0  0  0
   18.1314   -9.1643  -16.0287 C   0  0  0  0  0  0  0  0  0  0  0  0
   17.0453   -9.2401  -14.9633 C   0  0  0  0  0  0  0  0  0  0  0  0
   15.8052   -9.6318  -15.6500 N   0  0  0  0  0  0  0  0  0  0  0  0
   21.8069   -6.8407  -14.9747 C   0  0  0  0  0  0  0  0  0  0  0  0
   21.4209   -5.5779  -15.4697 O   0  0  0  0  0  0  0  0  0  0  0  0
   22.1468   -6.8594  -13.7590 O   0  0  0  0  0  0  0  0  0  0  0  0
  2  1  1  0
  3  2  2  0
  4  3  1  0
  5  4  2  0
  5 11  1  0
  6  5  1  0
  7  8  1  1
  7  6  1  0
  9  7  1  0
  9 10  2  0
 11 12  2  0
 12  2  1  0
 14 24  2  0
 14 13  1  0
 15 14  1  0
 16 17  1  0
 16 15  2  0
 17 23  2  0
 18 17  1  0
 19 18  1  6
 19 20  1  0
 20  9  1  0
 21 19  1  0
 22 21  2  0
 23 24  1  0
 25 21  1  0
 26 25  1  0
 26 27  1  1
 27 28  1  0
 28 29  1  0
 29 30  1  0
 30 31  1  0
 32 26  1  0
 33 32  1  0
 34 32  2  0
M  END
$$$$
