YYK.pdb
     RDKit          3D

 34 35  0  0  1  0  0  0  0  0999 V2000
   18.4833  -18.3355  -11.7649 O   0  0  0  0  0  0  0  0  0  0  0  0
   18.9946  -18.3969  -13.0631 C   0  0  0  0  0  0  0  0  0  0  0  0
   20.0415  -19.2418  -13.3715 C   0  0  0  0  0  0  0  0  0  0  0  0
   20.5590  -19.3156  -14.6475 C   0  0  0  0  0  0  0  0  0  0  0  0
   20.0507  -18.5459  -15.6725 C   0  0  0  0  0  0  0  0  0  0  0  0
   20.6201  -18.6344  -17.0525 C   0  0  0  0  0  0  0  0  0  0  0  0
   21.7041  -17.5548  -17.1641 C   0  0  2  0  0  0  0  0  0  0  0  0
   21.7390  -17.0964  -18.5421 N   0  0  0  0  0  0  0  0  0  0  0  0
   23.0251  -18.1669  -16.8250 C   0  0  0  0  0  0  0  0  0  0  0  0
   23.6480  -18.8581  -17.6976 O   0  0  0  0  0  0  0  0  0  0  0  0
   19.0007  -17.6975  -15.3660 C   0  0  0  0  0  0  0  0  0  0  0  0
   18.4820  -17.6241  -14.0852 C   0  0  0  0  0  0  0  0  0  0  0  0
   29.9710  -21.3404  -12.5283 O   0  0  0  0  0  0  0  0  0  0  0  0
   28.8398  -20.5989  -12.8451 C   0  0  0  0  0  0  0  0  0  0  0  0
   27.6806  -20.7433  -12.1128 C   0  0  0  0  0  0  0  0  0  0  0  0
   26.5438  -19.9936  -12.4364 C   0  0  0  0  0  0  0  0  0  0  0  0
   26.5258  -19.0966  -13.4762 C   0  0  0  0  0  0  0  0  0  0  0  0
   25.3501  -18.2808  -13.8605 C   0  0  0  0  0  0  0  0  0  0  0  0
   24.7624  -18.7468  -15.1850 C   0  0  2  0  0  0  0  0  0  0  0  0
   23.6050  -17.9946  -15.5459 N   0  0  0  0  0  0  0  0  0  0  0  0
   24.5604  -20.2085  -15.1027 C   0  0  0  0  0  0  0  0  0  0  0  0
   23.4932  -20.6857  -14.5886 O   0  0  0  0  0  0  0  0  0  0  0  0
   27.7191  -18.9729  -14.2009 C   0  0  0  0  0  0  0  0  0  0  0  0
   28.8470  -19.7040  -13.8946 C   0  0  0  0  0  0  0  0  0  0  0  0
   25.4978  -21.1555  -15.5740 N   0  0  0  0  0  0  0  0  0  0  0  0
   25.2788  -22.5990  -15.4746 C   0  0  1  0  0  0  0  0  0  0  0  0
   26.4882  -23.3214  -15.9975 C   0  0  0  0  0  0  0  0  0  0  0  0
   26.4099  -24.7884  -16.0747 C   0  0  0  0  0  0  0  0  0  0  0  0
   27.6137  -25.4502  -16.6364 C   0  0  0  0  0  0  0  0  0  0  0  0
   27.3678  -26.9506  -16.7318 C   0  0  0  0  0  0  0  0  0  0  0  0
   28.5659  -27.5373  -17.3509 N   0  0  0  0  0  0  0  0  0  0  0  0
   24.8028  -22.9408  -14.1439 C   0  0  0  0  0  0  0  0  0  0  0  0
   23.9805  -24.0509  -13.8603 O   0  0  0  0  0  0  0  0  0  0  0  0
   25.1156  -22.2357  -13.1446 O   0  0  0  0  0  0  0  0  0  0  0  0
  2  1  1  0
  3  2  2  0
  4  3  1  0
  5  4  2  0
  5 11  1  0
  6  5  1  0
  7  8  1  6
  7  6  1  0
  9  7  1  0
  9 10  2  0
 11 12  2  0
 12  2  1  0
 14 24  2  0
 14 13  1  0
 15 14  1  0
 16 17  1  0
 16 15  2  0
 17 23  2  0
 18 17  1  0
 19 18  1  1
 19 20  1  0
 20  9  1  0
 21 19  1  0
 22 21  2  0
 23 24  1  0
 25 21  1  0
 26 25  1  0
 26 27  1  1
 27 28  1  0
 28 29  1  0
 29 30  1  0
 30 31  1  0
 32 26  1  0
 33 32  1  0
 34 32  2  0
M  END
$$$$
