YYK.pdb
     RDKit          3D

 34 35  0  0  1  0  0  0  0  0999 V2000
   18.0891  -22.5386  -12.7314 O   0  0  0  0  0  0  0  0  0  0  0  0
   19.3259  -22.3357  -13.3476 C   0  0  0  0  0  0  0  0  0  0  0  0
   19.8089  -23.2348  -14.2768 C   0  0  0  0  0  0  0  0  0  0  0  0
   21.0276  -23.0506  -14.8951 C   0  0  0  0  0  0  0  0  0  0  0  0
   21.8175  -21.9570  -14.6103 C   0  0  0  0  0  0  0  0  0  0  0  0
   23.1376  -21.7678  -15.2873 C   0  0  0  0  0  0  0  0  0  0  0  0
   22.9715  -20.6168  -16.2876 C   0  0  2  0  0  0  0  0  0  0  0  0
   22.0981  -21.0737  -17.3547 N   0  0  0  0  0  0  0  0  0  0  0  0
   24.3103  -20.2891  -16.8660 C   0  0  0  0  0  0  0  0  0  0  0  0
   24.7335  -20.9237  -17.8884 O   0  0  0  0  0  0  0  0  0  0  0  0
   21.3356  -21.0536  -13.6787 C   0  0  0  0  0  0  0  0  0  0  0  0
   20.1125  -21.2393  -13.0587 C   0  0  0  0  0  0  0  0  0  0  0  0
   31.9956  -16.5344  -18.7888 O   0  0  0  0  0  0  0  0  0  0  0  0
   30.7816  -16.8241  -18.1788 C   0  0  0  0  0  0  0  0  0  0  0  0
   30.7471  -17.4497  -16.9506 C   0  0  0  0  0  0  0  0  0  0  0  0
   29.5211  -17.7392  -16.3406 C   0  0  0  0  0  0  0  0  0  0  0  0
   28.3176  -17.4221  -16.9212 C   0  0  0  0  0  0  0  0  0  0  0  0
   26.9942  -17.7075  -16.3191 C   0  0  0  0  0  0  0  0  0  0  0  0
   26.4012  -18.9958  -16.8716 C   0  0  2  0  0  0  0  0  0  0  0  0
   25.1258  -19.2812  -16.2992 N   0  0  0  0  0  0  0  0  0  0  0  0
   27.4115  -20.0634  -16.7172 C   0  0  0  0  0  0  0  0  0  0  0  0
   27.7294  -20.4894  -15.5560 O   0  0  0  0  0  0  0  0  0  0  0  0
   28.3865  -16.7871  -18.1689 C   0  0  0  0  0  0  0  0  0  0  0  0
   29.5859  -16.4953  -18.7825 C   0  0  0  0  0  0  0  0  0  0  0  0
   28.0757  -20.6750  -17.8045 N   0  0  0  0  0  0  0  0  0  0  0  0
   29.0364  -21.7650  -17.6298 C   0  0  1  0  0  0  0  0  0  0  0  0
   28.2933  -23.0634  -17.4888 C   0  0  0  0  0  0  0  0  0  0  0  0
   29.1001  -24.2914  -17.4144 C   0  0  0  0  0  0  0  0  0  0  0  0
   28.3180  -25.5522  -17.3790 C   0  0  0  0  0  0  0  0  0  0  0  0
   29.2725  -26.7395  -17.3767 C   0  0  0  0  0  0  0  0  0  0  0  0
   28.4490  -27.9442  -17.1940 N   0  0  0  0  0  0  0  0  0  0  0  0
   30.0759  -21.6807  -18.6429 C   0  0  0  0  0  0  0  0  0  0  0  0
   29.9320  -20.9956  -19.8671 O   0  0  0  0  0  0  0  0  0  0  0  0
   31.1963  -22.2354  -18.4671 O   0  0  0  0  0  0  0  0  0  0  0  0
  2  1  1  0
  3  2  2  0
  4  3  1  0
  5  4  2  0
  5 11  1  0
  6  5  1  0
  7  8  1  6
  7  6  1  0
  9  7  1  0
  9 10  2  0
 11 12  2  0
 12  2  1  0
 14 24  2  0
 14 13  1  0
 15 14  1  0
 16 17  1  0
 16 15  2  0
 17 23  2  0
 18 17  1  0
 19 18  1  1
 19 20  1  0
 20  9  1  0
 21 19  1  0
 22 21  2  0
 23 24  1  0
 25 21  1  0
 26 25  1  0
 26 27  1  6
 27 28  1  0
 28 29  1  0
 29 30  1  0
 30 31  1  0
 32 26  1  0
 33 32  1  0
 34 32  2  0
M  END
$$$$
