YYK.pdb
     RDKit          3D

 34 35  0  0  1  0  0  0  0  0999 V2000
   29.3160  -19.8238   -5.7271 O   0  0  0  0  0  0  0  0  0  0  0  0
   28.6693  -19.9319   -6.9602 C   0  0  0  0  0  0  0  0  0  0  0  0
   27.4392  -19.3412   -7.1677 C   0  0  0  0  0  0  0  0  0  0  0  0
   26.7862  -19.4374   -8.3783 C   0  0  0  0  0  0  0  0  0  0  0  0
   27.3363  -20.1301   -9.4361 C   0  0  0  0  0  0  0  0  0  0  0  0
   26.6186  -20.2277  -10.7445 C   0  0  0  0  0  0  0  0  0  0  0  0
   25.7177  -21.4673  -10.6743 C   0  0  2  0  0  0  0  0  0  0  0  0
   26.4859  -22.6062  -11.1465 N   0  0  0  0  0  0  0  0  0  0  0  0
   24.5498  -21.2616  -11.5844 C   0  0  0  0  0  0  0  0  0  0  0  0
   24.5410  -21.8030  -12.7393 O   0  0  0  0  0  0  0  0  0  0  0  0
   28.5699  -20.7237   -9.2308 C   0  0  0  0  0  0  0  0  0  0  0  0
   29.2245  -20.6265   -8.0155 C   0  0  0  0  0  0  0  0  0  0  0  0
   19.2102  -24.4754   -7.7262 O   0  0  0  0  0  0  0  0  0  0  0  0
   19.6464  -23.4313   -8.5321 C   0  0  0  0  0  0  0  0  0  0  0  0
   19.1632  -23.2887   -9.8154 C   0  0  0  0  0  0  0  0  0  0  0  0
   19.6062  -22.2348  -10.6229 C   0  0  0  0  0  0  0  0  0  0  0  0
   20.5238  -21.3103  -10.1878 C   0  0  0  0  0  0  0  0  0  0  0  0
   21.0258  -20.1787  -11.0020 C   0  0  0  0  0  0  0  0  0  0  0  0
   22.1991  -20.6023  -11.8742 C   0  0  2  0  0  0  0  0  0  0  0  0
   23.4439  -20.4724  -11.1891 N   0  0  0  0  0  0  0  0  0  0  0  0
   22.1055  -19.8637  -13.1509 C   0  0  0  0  0  0  0  0  0  0  0  0
   22.4619  -18.6391  -13.2170 O   0  0  0  0  0  0  0  0  0  0  0  0
   20.9955  -21.4826   -8.8793 C   0  0  0  0  0  0  0  0  0  0  0  0
   20.5690  -22.5153   -8.0717 C   0  0  0  0  0  0  0  0  0  0  0  0
   21.6350  -20.4375  -14.3539 N   0  0  0  0  0  0  0  0  0  0  0  0
   21.6078  -19.7040  -15.6198 C   0  0  1  0  0  0  0  0  0  0  0  0
   22.6698  -20.2496  -16.5323 C   0  0  0  0  0  0  0  0  0  0  0  0
   22.7915  -19.6319  -17.8619 C   0  0  0  0  0  0  0  0  0  0  0  0
   23.7480  -20.3022  -18.7776 C   0  0  0  0  0  0  0  0  0  0  0  0
   23.8071  -19.5387  -20.0944 C   0  0  0  0  0  0  0  0  0  0  0  0
   24.7909  -20.2304  -20.9410 N   0  0  0  0  0  0  0  0  0  0  0  0
   20.2463  -19.6313  -16.1250 C   0  0  0  0  0  0  0  0  0  0  0  0
   19.8189  -18.7230  -17.1155 O   0  0  0  0  0  0  0  0  0  0  0  0
   19.3517  -20.4064  -15.6860 O   0  0  0  0  0  0  0  0  0  0  0  0
  2  1  1  0
  3  2  2  0
  4  3  1  0
  5  4  2  0
  5 11  1  0
  6  5  1  0
  7  8  1  6
  7  6  1  0
  9  7  1  0
  9 10  2  0
 11 12  2  0
 12  2  1  0
 14 24  2  0
 14 13  1  0
 15 14  1  0
 16 17  1  0
 16 15  2  0
 17 23  2  0
 18 17  1  0
 19 18  1  1
 19 20  1  0
 20  9  1  0
 21 19  1  0
 22 21  2  0
 23 24  1  0
 25 21  1  0
 26 25  1  0
 26 27  1  6
 27 28  1  0
 28 29  1  0
 29 30  1  0
 30 31  1  0
 32 26  1  0
 33 32  1  0
 34 32  2  0
M  END
$$$$
