YYK.pdb
     RDKit          3D

 34 35  0  0  1  0  0  0  0  0999 V2000
   31.2125  -16.6842  -20.1879 O   0  0  0  0  0  0  0  0  0  0  0  0
   30.2576  -17.3507  -19.4169 C   0  0  0  0  0  0  0  0  0  0  0  0
   29.7186  -18.5491  -19.8395 C   0  0  0  0  0  0  0  0  0  0  0  0
   28.7750  -19.2210  -19.0915 C   0  0  0  0  0  0  0  0  0  0  0  0
   28.3288  -18.7224  -17.8858 C   0  0  0  0  0  0  0  0  0  0  0  0
   27.3050  -19.4601  -17.0832 C   0  0  0  0  0  0  0  0  0  0  0  0
   28.0642  -20.3502  -16.0910 C   0  0  2  0  0  0  0  0  0  0  0  0
   28.5778  -21.4966  -16.8204 N   0  0  0  0  0  0  0  0  0  0  0  0
   27.1058  -20.8303  -15.0491 C   0  0  0  0  0  0  0  0  0  0  0  0
   26.3785  -21.8531  -15.2776 O   0  0  0  0  0  0  0  0  0  0  0  0
   28.8676  -17.5208  -17.4595 C   0  0  0  0  0  0  0  0  0  0  0  0
   29.8145  -16.8472  -18.2109 C   0  0  0  0  0  0  0  0  0  0  0  0
   22.1237  -21.5665   -7.8586 O   0  0  0  0  0  0  0  0  0  0  0  0
   23.1220  -21.1781   -8.7432 C   0  0  0  0  0  0  0  0  0  0  0  0
   24.3635  -21.7765   -8.7040 C   0  0  0  0  0  0  0  0  0  0  0  0
   25.3656  -21.3812   -9.5976 C   0  0  0  0  0  0  0  0  0  0  0  0
   25.1677  -20.3996  -10.5374 C   0  0  0  0  0  0  0  0  0  0  0  0
   26.1940  -19.9439  -11.5040 C   0  0  0  0  0  0  0  0  0  0  0  0
   26.0017  -20.5980  -12.8648 C   0  0  2  0  0  0  0  0  0  0  0  0
   26.9865  -20.1692  -13.8039 N   0  0  0  0  0  0  0  0  0  0  0  0
   24.6005  -20.3778  -13.2803 C   0  0  0  0  0  0  0  0  0  0  0  0
   24.2481  -19.2669  -13.8024 O   0  0  0  0  0  0  0  0  0  0  0  0
   23.8957  -19.8110  -10.5516 C   0  0  0  0  0  0  0  0  0  0  0  0
   22.8984  -20.1893   -9.6783 C   0  0  0  0  0  0  0  0  0  0  0  0
   23.5815  -21.3472  -13.1402 N   0  0  0  0  0  0  0  0  0  0  0  0
   22.2065  -21.1160  -13.5844 C   0  0  1  0  0  0  0  0  0  0  0  0
   22.0151  -21.7266  -14.9440 C   0  0  0  0  0  0  0  0  0  0  0  0
   20.6792  -21.6081  -15.5486 C   0  0  0  0  0  0  0  0  0  0  0  0
   20.5473  -22.2132  -16.8974 C   0  0  0  0  0  0  0  0  0  0  0  0
   19.1494  -21.9424  -17.4387 C   0  0  0  0  0  0  0  0  0  0  0  0
   19.0915  -22.5423  -18.7803 N   0  0  0  0  0  0  0  0  0  0  0  0
   21.2735  -21.4871  -12.5327 C   0  0  0  0  0  0  0  0  0  0  0  0
   20.0432  -20.8371  -12.3029 O   0  0  0  0  0  0  0  0  0  0  0  0
   21.5296  -22.4434  -11.7493 O   0  0  0  0  0  0  0  0  0  0  0  0
  2  1  1  0
  3  2  2  0
  4  3  1  0
  5  4  2  0
  5 11  1  0
  6  5  1  0
  7  8  1  6
  7  6  1  0
  9  7  1  0
  9 10  2  0
 11 12  2  0
 12  2  1  0
 14 24  2  0
 14 13  1  0
 15 14  1  0
 16 17  1  0
 16 15  2  0
 17 23  2  0
 18 17  1  0
 19 18  1  1
 19 20  1  0
 20  9  1  0
 21 19  1  0
 22 21  2  0
 23 24  1  0
 25 21  1  0
 26 25  1  0
 26 27  1  6
 27 28  1  0
 28 29  1  0
 29 30  1  0
 30 31  1  0
 32 26  1  0
 33 32  1  0
 34 32  2  0
M  END
$$$$
