NHY.pdb
     RDKit          3D

 31 32  0  0  1  0  0  0  0  0999 V2000
   23.7103  -13.8928  -18.9334 N   0  0  0  0  0  0  0  0  0  0  0  0
   24.0730  -12.5333  -18.9931 C   0  0  0  0  0  0  0  0  0  0  0  0
   25.2370  -12.1431  -19.2975 O   0  0  0  0  0  0  0  0  0  0  0  0
   23.0785  -11.4827  -18.6934 C   0  0  0  0  0  0  0  0  0  0  0  0
   21.7602  -12.1153  -18.2924 C   0  0  2  0  0  0  0  0  0  0  0  0
   21.0498  -12.7070  -19.3749 N   0  0  0  0  0  0  0  0  0  0  0  0
   20.9680  -11.1426  -17.5031 C   0  0  0  0  0  0  0  0  0  0  0  0
   20.6275  -10.0488  -18.0526 O   0  0  0  0  0  0  0  0  0  0  0  0
   20.5585  -11.3343  -16.1796 N   0  0  0  0  0  0  0  0  0  0  0  0
   19.6898  -10.3168  -15.4722 C   0  0  1  0  0  0  0  0  0  0  0  0
   18.8198  -11.1275  -14.5897 C   0  0  0  0  0  0  0  0  0  0  0  0
   17.4859  -11.4893  -15.0184 C   0  0  0  0  0  0  0  0  0  0  0  0
   16.9186  -10.8364  -16.1359 C   0  0  0  0  0  0  0  0  0  0  0  0
   15.7097  -11.3054  -16.3634 N   0  0  0  0  0  0  0  0  0  0  0  0
   15.4722  -12.2433  -15.4287 C   0  0  0  0  0  0  0  0  0  0  0  0
   16.5417  -12.3342  -14.6415 N   0  0  0  0  0  0  0  0  0  0  0  0
   20.6299   -9.5026  -14.6381 C   0  0  0  0  0  0  0  0  0  0  0  0
   21.6548  -10.0901  -14.1410 O   0  0  0  0  0  0  0  0  0  0  0  0
   21.7411   -1.5768  -16.2915 O   0  0  0  0  0  0  0  0  0  0  0  0
   21.9541   -2.8809  -15.8540 C   0  0  0  0  0  0  0  0  0  0  0  0
   22.3719   -3.1784  -14.5769 C   0  0  0  0  0  0  0  0  0  0  0  0
   22.5799   -4.4854  -14.1555 C   0  0  0  0  0  0  0  0  0  0  0  0
   22.3696   -5.5511  -15.0236 C   0  0  0  0  0  0  0  0  0  0  0  0
   22.6068   -6.9149  -14.5462 C   0  0  0  0  0  0  0  0  0  0  0  0
   21.5441   -7.4387  -13.6017 C   0  0  2  0  0  0  0  0  0  0  0  0
   20.4988   -8.1350  -14.3486 N   0  0  0  0  0  0  0  0  0  0  0  0
   20.9564   -6.3423  -12.8047 C   0  0  0  0  0  0  0  0  0  0  0  0
   19.8110   -5.8945  -12.9719 O   0  0  0  0  0  0  0  0  0  0  0  0
   21.9510   -5.2407  -16.3013 C   0  0  0  0  0  0  0  0  0  0  0  0
   21.7465   -3.9398  -16.7124 C   0  0  0  0  0  0  0  0  0  0  0  0
   21.7190   -5.7531  -11.7896 O   0  0  0  0  0  0  0  0  0  0  0  0
  2  3  2  0
  2  1  1  0
  4  2  1  0
  5  4  1  0
  5  6  1  6
  7  5  1  0
  8  7  2  0
  9  7  1  0
 10  9  1  0
 10 11  1  1
 12 11  1  0
 12 13  2  0
 14 13  1  0
 15 14  1  0
 16 15  2  0
 16 12  1  0
 17 10  1  0
 17 18  2  0
 20 21  2  0
 20 19  1  0
 22 21  1  0
 23 22  2  0
 24 23  1  0
 25 24  1  6
 25 26  1  0
 26 17  1  0
 27 25  1  0
 28 27  2  0
 29 23  1  0
 29 30  2  0
 30 20  1  0
 31 27  1  0
M  END
$$$$
