NHY.pdb
     RDKit          3D

 31 32  0  0  1  0  0  0  0  0999 V2000
   19.9439  -14.1253  -17.8951 N   0  0  0  0  0  0  0  0  0  0  0  0
   20.9544  -13.5426  -17.1057 C   0  0  0  0  0  0  0  0  0  0  0  0
   21.5218  -14.1512  -16.1530 O   0  0  0  0  0  0  0  0  0  0  0  0
   21.4012  -12.1593  -17.3688 C   0  0  0  0  0  0  0  0  0  0  0  0
   20.5380  -11.5311  -18.4455 C   0  0  2  0  0  0  0  0  0  0  0  0
   20.7550  -12.0668  -19.7464 N   0  0  0  0  0  0  0  0  0  0  0  0
   20.6514  -10.0553  -18.3677 C   0  0  0  0  0  0  0  0  0  0  0  0
   21.5713   -9.4812  -19.0299 O   0  0  0  0  0  0  0  0  0  0  0  0
   19.8138   -9.2295  -17.6111 N   0  0  0  0  0  0  0  0  0  0  0  0
   19.9508   -7.7230  -17.6539 C   0  0  1  0  0  0  0  0  0  0  0  0
   18.5568   -7.2262  -17.6007 C   0  0  0  0  0  0  0  0  0  0  0  0
   17.8220   -6.9923  -18.8252 C   0  0  0  0  0  0  0  0  0  0  0  0
   18.4599   -7.2131  -20.0666 C   0  0  0  0  0  0  0  0  0  0  0  0
   17.6283   -6.9470  -21.0519 N   0  0  0  0  0  0  0  0  0  0  0  0
   16.4687   -6.5598  -20.4906 C   0  0  0  0  0  0  0  0  0  0  0  0
   16.6085   -6.5948  -19.1674 N   0  0  0  0  0  0  0  0  0  0  0  0
   20.6633   -7.3523  -16.3900 C   0  0  0  0  0  0  0  0  0  0  0  0
   20.3475   -7.9776  -15.3168 O   0  0  0  0  0  0  0  0  0  0  0  0
   25.2565  -11.6158  -16.9969 O   0  0  0  0  0  0  0  0  0  0  0  0
   24.9165  -10.3438  -16.5455 C   0  0  0  0  0  0  0  0  0  0  0  0
   24.7550  -10.0460  -15.2115 C   0  0  0  0  0  0  0  0  0  0  0  0
   24.4155   -8.7712  -14.7771 C   0  0  0  0  0  0  0  0  0  0  0  0
   24.2250   -7.7396  -15.6897 C   0  0  0  0  0  0  0  0  0  0  0  0
   23.8601   -6.4106  -15.1950 C   0  0  0  0  0  0  0  0  0  0  0  0
   22.3717   -6.2051  -14.9990 C   0  0  2  0  0  0  0  0  0  0  0  0
   21.6640   -6.3753  -16.2661 N   0  0  0  0  0  0  0  0  0  0  0  0
   22.0911   -4.8691  -14.4341 C   0  0  0  0  0  0  0  0  0  0  0  0
   21.4697   -3.9758  -15.0308 O   0  0  0  0  0  0  0  0  0  0  0  0
   24.3893   -8.0498  -17.0242 C   0  0  0  0  0  0  0  0  0  0  0  0
   24.7267   -9.3186  -17.4479 C   0  0  0  0  0  0  0  0  0  0  0  0
   22.5439   -4.5654  -13.1450 O   0  0  0  0  0  0  0  0  0  0  0  0
  2  3  2  0
  2  1  1  0
  4  2  1  0
  5  4  1  0
  5  6  1  6
  7  5  1  0
  8  7  2  0
  9  7  1  0
 10  9  1  0
 10 11  1  1
 12 11  1  0
 12 13  2  0
 14 13  1  0
 15 14  1  0
 16 15  2  0
 16 12  1  0
 17 10  1  0
 17 18  2  0
 20 21  2  0
 20 19  1  0
 22 21  1  0
 23 22  2  0
 24 23  1  0
 25 24  1  6
 25 26  1  0
 26 17  1  0
 27 25  1  0
 28 27  2  0
 29 23  1  0
 29 30  2  0
 30 20  1  0
 31 27  1  0
M  END
$$$$
