NHY.pdb
     RDKit          3D

 31 32  0  0  1  0  0  0  0  0999 V2000
   24.0728  -13.2269  -19.8771 N   0  0  0  0  0  0  0  0  0  0  0  0
   24.6942  -12.1950  -19.1473 C   0  0  0  0  0  0  0  0  0  0  0  0
   25.9149  -12.2227  -18.8174 O   0  0  0  0  0  0  0  0  0  0  0  0
   23.9205  -11.0084  -18.7280 C   0  0  0  0  0  0  0  0  0  0  0  0
   22.4568  -11.1930  -19.0780 C   0  0  2  0  0  0  0  0  0  0  0  0
   22.2127  -11.3710  -20.4690 N   0  0  0  0  0  0  0  0  0  0  0  0
   21.6616  -10.1091  -18.4538 C   0  0  0  0  0  0  0  0  0  0  0  0
   21.6699   -8.9603  -18.9963 O   0  0  0  0  0  0  0  0  0  0  0  0
   20.8900  -10.2509  -17.2959 N   0  0  0  0  0  0  0  0  0  0  0  0
   20.1382   -9.0776  -16.7058 C   0  0  1  0  0  0  0  0  0  0  0  0
   18.9578   -9.6889  -16.0533 C   0  0  0  0  0  0  0  0  0  0  0  0
   17.6945   -9.7585  -16.7557 C   0  0  0  0  0  0  0  0  0  0  0  0
   17.4701   -8.9055  -17.8597 C   0  0  0  0  0  0  0  0  0  0  0  0
   16.2709   -9.1227  -18.3579 N   0  0  0  0  0  0  0  0  0  0  0  0
   15.7077  -10.0907  -17.6125 C   0  0  0  0  0  0  0  0  0  0  0  0
   16.5725  -10.4519  -16.6673 N   0  0  0  0  0  0  0  0  0  0  0  0
   21.0478   -8.5066  -15.6622 C   0  0  0  0  0  0  0  0  0  0  0  0
   21.5488   -9.3092  -14.7976 O   0  0  0  0  0  0  0  0  0  0  0  0
   25.0276   -4.0146  -19.7660 O   0  0  0  0  0  0  0  0  0  0  0  0
   24.7280   -4.7482  -18.6217 C   0  0  0  0  0  0  0  0  0  0  0  0
   24.3054   -6.0572  -18.6665 C   0  0  0  0  0  0  0  0  0  0  0  0
   24.0104   -6.7759  -17.5151 C   0  0  0  0  0  0  0  0  0  0  0  0
   24.1344   -6.1869  -16.2617 C   0  0  0  0  0  0  0  0  0  0  0  0
   23.8069   -6.9734  -15.0707 C   0  0  0  0  0  0  0  0  0  0  0  0
   22.4037   -6.7517  -14.5434 C   0  0  2  0  0  0  0  0  0  0  0  0
   21.4160   -7.1571  -15.5411 N   0  0  0  0  0  0  0  0  0  0  0  0
   22.1965   -5.3384  -14.1662 C   0  0  0  0  0  0  0  0  0  0  0  0
   21.3661   -4.5878  -14.7023 O   0  0  0  0  0  0  0  0  0  0  0  0
   24.5586   -4.8743  -16.2291 C   0  0  0  0  0  0  0  0  0  0  0  0
   24.8498   -4.1670  -17.3772 C   0  0  0  0  0  0  0  0  0  0  0  0
   22.9733   -4.7855  -13.1416 O   0  0  0  0  0  0  0  0  0  0  0  0
  2  3  2  0
  2  1  1  0
  4  2  1  0
  5  4  1  0
  5  6  1  6
  7  5  1  0
  8  7  2  0
  9  7  1  0
 10  9  1  0
 10 11  1  1
 12 11  1  0
 12 13  2  0
 14 13  1  0
 15 14  1  0
 16 15  2  0
 16 12  1  0
 17 10  1  0
 17 18  2  0
 20 21  2  0
 20 19  1  0
 22 21  1  0
 23 22  2  0
 24 23  1  0
 25 24  1  6
 25 26  1  0
 26 17  1  0
 27 25  1  0
 28 27  2  0
 29 23  1  0
 29 30  2  0
 30 20  1  0
 31 27  1  0
M  END
$$$$
