NHY.pdb
     RDKit          3D

 31 32  0  0  1  0  0  0  0  0999 V2000
   25.8146  -12.2778  -21.0154 N   0  0  0  0  0  0  0  0  0  0  0  0
   24.5473  -12.8833  -20.9109 C   0  0  0  0  0  0  0  0  0  0  0  0
   24.2279  -13.9280  -21.5483 O   0  0  0  0  0  0  0  0  0  0  0  0
   23.5148  -12.3035  -20.0275 C   0  0  0  0  0  0  0  0  0  0  0  0
   24.0511  -11.0569  -19.3510 C   0  0  2  0  0  0  0  0  0  0  0  0
   25.2220  -11.2796  -18.5728 N   0  0  0  0  0  0  0  0  0  0  0  0
   22.9522  -10.3834  -18.6192 C   0  0  0  0  0  0  0  0  0  0  0  0
   21.9355   -9.9942  -19.2742 O   0  0  0  0  0  0  0  0  0  0  0  0
   22.9439  -10.1370  -17.2425 N   0  0  0  0  0  0  0  0  0  0  0  0
   21.7299   -9.5464  -16.5587 C   0  0  1  0  0  0  0  0  0  0  0  0
   21.9957   -9.7326  -15.1139 C   0  0  0  0  0  0  0  0  0  0  0  0
   21.0414   -9.2615  -14.1333 C   0  0  0  0  0  0  0  0  0  0  0  0
   19.8452   -8.6502  -14.5717 C   0  0  0  0  0  0  0  0  0  0  0  0
   19.1163   -8.2957  -13.5343 N   0  0  0  0  0  0  0  0  0  0  0  0
   19.8007   -8.6573  -12.4340 C   0  0  0  0  0  0  0  0  0  0  0  0
   20.9407   -9.2287  -12.8156 N   0  0  0  0  0  0  0  0  0  0  0  0
   21.7584   -8.0861  -16.8892 C   0  0  0  0  0  0  0  0  0  0  0  0
   22.8542   -7.4487  -16.7006 O   0  0  0  0  0  0  0  0  0  0  0  0
   20.5183    0.0851  -19.9995 O   0  0  0  0  0  0  0  0  0  0  0  0
   20.5121   -1.2850  -19.7545 C   0  0  0  0  0  0  0  0  0  0  0  0
   21.6637   -2.0371  -19.7041 C   0  0  0  0  0  0  0  0  0  0  0  0
   21.6407   -3.4040  -19.4585 C   0  0  0  0  0  0  0  0  0  0  0  0
   20.4355   -4.0661  -19.2525 C   0  0  0  0  0  0  0  0  0  0  0  0
   20.4501   -5.5091  -19.0041 C   0  0  0  0  0  0  0  0  0  0  0  0
   20.8208   -5.8941  -17.5863 C   0  0  2  0  0  0  0  0  0  0  0  0
   20.6861   -7.3371  -17.3998 N   0  0  0  0  0  0  0  0  0  0  0  0
   19.9837   -5.1733  -16.6053 C   0  0  0  0  0  0  0  0  0  0  0  0
   18.8809   -5.5743  -16.2009 O   0  0  0  0  0  0  0  0  0  0  0  0
   19.2877   -3.3020  -19.3055 C   0  0  0  0  0  0  0  0  0  0  0  0
   19.3187   -1.9446  -19.5500 C   0  0  0  0  0  0  0  0  0  0  0  0
   20.4400   -3.9577  -16.0827 O   0  0  0  0  0  0  0  0  0  0  0  0
  2  3  2  0
  2  1  1  0
  4  2  1  0
  5  4  1  0
  5  6  1  1
  7  5  1  0
  8  7  2  0
  9  7  1  0
 10  9  1  0
 10 11  1  1
 12 11  1  0
 12 13  2  0
 14 13  1  0
 15 14  1  0
 16 15  2  0
 16 12  1  0
 17 10  1  0
 17 18  2  0
 20 21  2  0
 20 19  1  0
 22 21  1  0
 23 22  2  0
 24 23  1  0
 25 24  1  6
 25 26  1  0
 26 17  1  0
 27 25  1  0
 28 27  2  0
 29 23  1  0
 29 30  2  0
 30 20  1  0
 31 27  1  0
M  END
$$$$
