NHY.pdb
     RDKit          3D

 31 32  0  0  1  0  0  0  0  0999 V2000
   22.0574  -15.6748  -18.9877 N   0  0  0  0  0  0  0  0  0  0  0  0
   22.2444  -16.8797  -19.6926 C   0  0  0  0  0  0  0  0  0  0  0  0
   21.5690  -17.1920  -20.7153 O   0  0  0  0  0  0  0  0  0  0  0  0
   23.2657  -17.8512  -19.2502 C   0  0  0  0  0  0  0  0  0  0  0  0
   23.9139  -17.3737  -17.9652 C   0  0  2  0  0  0  0  0  0  0  0  0
   24.5974  -16.1312  -18.0893 N   0  0  0  0  0  0  0  0  0  0  0  0
   24.7358  -18.4667  -17.3936 C   0  0  0  0  0  0  0  0  0  0  0  0
   24.2428  -19.6368  -17.3476 O   0  0  0  0  0  0  0  0  0  0  0  0
   26.0320  -18.3115  -16.8918 N   0  0  0  0  0  0  0  0  0  0  0  0
   26.7817  -19.4762  -16.2822 C   0  0  1  0  0  0  0  0  0  0  0  0
   28.1836  -19.0067  -16.1984 C   0  0  0  0  0  0  0  0  0  0  0  0
   29.0471  -19.0879  -17.3568 C   0  0  0  0  0  0  0  0  0  0  0  0
   28.5367  -19.6182  -18.5631 C   0  0  0  0  0  0  0  0  0  0  0  0
   29.4714  -19.6045  -19.4901 N   0  0  0  0  0  0  0  0  0  0  0  0
   30.5746  -19.0816  -18.9248 C   0  0  0  0  0  0  0  0  0  0  0  0
   30.2977  -18.7828  -17.6576 N   0  0  0  0  0  0  0  0  0  0  0  0
   26.2219  -19.6308  -14.9019 C   0  0  0  0  0  0  0  0  0  0  0  0
   26.1888  -18.5953  -14.1475 O   0  0  0  0  0  0  0  0  0  0  0  0
   20.5335  -20.3442   -8.4574 O   0  0  0  0  0  0  0  0  0  0  0  0
   21.3422  -20.2421   -9.5856 C   0  0  0  0  0  0  0  0  0  0  0  0
   22.3173  -19.2798   -9.7176 C   0  0  0  0  0  0  0  0  0  0  0  0
   23.1164  -19.1912  -10.8501 C   0  0  0  0  0  0  0  0  0  0  0  0
   22.9543  -20.0852  -11.9027 C   0  0  0  0  0  0  0  0  0  0  0  0
   23.8100  -19.9559  -13.0839 C   0  0  0  0  0  0  0  0  0  0  0  0
   25.0683  -20.7987  -13.0378 C   0  0  2  0  0  0  0  0  0  0  0  0
   25.7157  -20.8174  -14.3476 N   0  0  0  0  0  0  0  0  0  0  0  0
   24.7672  -22.1768  -12.5985 C   0  0  0  0  0  0  0  0  0  0  0  0
   24.3723  -23.0792  -13.3536 O   0  0  0  0  0  0  0  0  0  0  0  0
   21.9737  -21.0454  -11.7593 C   0  0  0  0  0  0  0  0  0  0  0  0
   21.1840  -21.1270  -10.6312 C   0  0  0  0  0  0  0  0  0  0  0  0
   24.9292  -22.5129  -11.2495 O   0  0  0  0  0  0  0  0  0  0  0  0
  2  3  2  0
  2  1  1  0
  4  2  1  0
  5  4  1  0
  5  6  1  6
  7  5  1  0
  8  7  2  0
  9  7  1  0
 10  9  1  0
 10 11  1  1
 12 11  1  0
 12 13  2  0
 14 13  1  0
 15 14  1  0
 16 15  2  0
 16 12  1  0
 17 10  1  0
 17 18  2  0
 20 21  2  0
 20 19  1  0
 22 21  1  0
 23 22  2  0
 24 23  1  0
 25 24  1  6
 25 26  1  0
 26 17  1  0
 27 25  1  0
 28 27  2  0
 29 23  1  0
 29 30  2  0
 30 20  1  0
 31 27  1  0
M  END
$$$$
