HAF.pdb
     RDKit          3D

 27 28  0  0  1  0  0  0  0  0999 V2000
    6.6715  -16.3065   20.9277 N   0  0  0  0  0  0  0  0  0  0  0  0
    8.0357  -15.9601   21.2818 C   0  0  1  0  0  0  0  0  0  0  0  0
    8.1017  -14.4377   21.3135 C   0  0  0  0  0  0  0  0  0  0  0  0
    8.1092  -13.8707   19.9477 C   0  0  0  0  0  0  0  0  0  0  0  0
    8.1468  -14.5767   18.7516 C   0  0  0  0  0  0  0  0  0  0  0  0
    8.1394  -13.6633   17.7467 N   0  0  0  0  0  0  0  0  0  0  0  0
    8.0994  -12.4488   18.2779 C   0  0  0  0  0  0  0  0  0  0  0  0
    8.0804  -12.5555   19.6221 N   0  0  0  0  0  0  0  0  0  0  0  0
    8.3473  -16.4782   22.6216 C   0  0  0  0  0  0  0  0  0  0  0  0
    7.3951  -16.4630   23.4743 O   0  0  0  0  0  0  0  0  0  0  0  0
   10.8551  -18.6347   24.1758 C   0  0  0  0  0  0  0  0  0  0  0  0
    9.8038  -17.5235   24.2898 C   0  0  2  0  0  0  0  0  0  0  0  0
    9.6256  -16.9780   22.9884 N   0  0  0  0  0  0  0  0  0  0  0  0
   10.2152  -16.5187   25.3031 C   0  0  0  0  0  0  0  0  0  0  0  0
   10.9871  -15.5899   24.9496 O   0  0  0  0  0  0  0  0  0  0  0  0
    9.7827  -16.5537   26.6449 N   0  0  0  0  0  0  0  0  0  0  0  0
   10.2081  -15.5536   27.6378 C   0  0  1  0  0  0  0  0  0  0  0  0
    8.9594  -14.9949   28.2366 C   0  0  0  0  0  0  0  0  0  0  0  0
    8.2059  -14.0874   27.3720 C   0  0  0  0  0  0  0  0  0  0  0  0
    8.7655  -12.8792   27.0134 C   0  0  0  0  0  0  0  0  0  0  0  0
    8.0996  -11.9741   26.1933 C   0  0  0  0  0  0  0  0  0  0  0  0
    6.8554  -12.2869   25.7275 C   0  0  0  0  0  0  0  0  0  0  0  0
    6.2737  -13.4822   26.0680 C   0  0  0  0  0  0  0  0  0  0  0  0
    6.9475  -14.3678   26.8817 C   0  0  0  0  0  0  0  0  0  0  0  0
   11.1323  -16.1577   28.6214 C   0  0  0  0  0  0  0  0  0  0  0  0
   11.4139  -17.5151   28.5982 O   0  0  0  0  0  0  0  0  0  0  0  0
   11.7127  -15.4792   29.5305 O   0  0  0  0  0  0  0  0  0  0  0  0
  2  1  1  1
  2  9  1  0
  2  3  1  0
  4  3  1  0
  5  4  2  0
  6  5  1  0
  7  6  1  0
  7  8  2  0
  8  4  1  0
  9 13  1  0
  9 10  2  0
 12 11  1  6
 13 12  1  0
 14 15  2  0
 14 12  1  0
 16 14  1  0
 17 16  1  0
 17 18  1  1
 19 20  2  0
 19 18  1  0
 21 20  1  0
 22 21  2  0
 23 22  1  0
 23 24  2  0
 24 19  1  0
 25 26  1  0
 25 17  1  0
 27 25  2  0
M  END
$$$$
