HAF.pdb
     RDKit          3D

 27 28  0  0  1  0  0  0  0  0999 V2000
    8.6493  -18.3951   19.8046 N   0  0  0  0  0  0  0  0  0  0  0  0
    9.8674  -17.6071   19.7612 C   0  0  1  0  0  0  0  0  0  0  0  0
   10.2151  -17.4279   18.2882 C   0  0  0  0  0  0  0  0  0  0  0  0
   10.5617  -18.7190   17.6560 C   0  0  0  0  0  0  0  0  0  0  0  0
   11.5714  -19.5922   18.0415 C   0  0  0  0  0  0  0  0  0  0  0  0
   11.5351  -20.6485   17.1888 N   0  0  0  0  0  0  0  0  0  0  0  0
   10.5576  -20.4537   16.3138 C   0  0  0  0  0  0  0  0  0  0  0  0
    9.9514  -19.2796   16.5836 N   0  0  0  0  0  0  0  0  0  0  0  0
    9.6247  -16.2857   20.3575 C   0  0  0  0  0  0  0  0  0  0  0  0
   10.6161  -15.4790   20.3785 O   0  0  0  0  0  0  0  0  0  0  0  0
    6.7990  -14.2874   21.6898 C   0  0  0  0  0  0  0  0  0  0  0  0
    8.2843  -14.6622   21.6084 C   0  0  2  0  0  0  0  0  0  0  0  0
    8.3700  -15.8882   20.8925 N   0  0  0  0  0  0  0  0  0  0  0  0
    8.8812  -14.7254   22.9668 C   0  0  0  0  0  0  0  0  0  0  0  0
    9.8518  -13.9700   23.2325 O   0  0  0  0  0  0  0  0  0  0  0  0
    8.4131  -15.5920   23.9761 N   0  0  0  0  0  0  0  0  0  0  0  0
    9.0021  -15.6241   25.3248 C   0  0  1  0  0  0  0  0  0  0  0  0
    7.8648  -15.5078   26.2855 C   0  0  0  0  0  0  0  0  0  0  0  0
    7.2817  -14.1717   26.4018 C   0  0  0  0  0  0  0  0  0  0  0  0
    8.1111  -13.0914   26.6172 C   0  0  0  0  0  0  0  0  0  0  0  0
    7.6173  -11.7963   26.7357 C   0  0  0  0  0  0  0  0  0  0  0  0
    6.2727  -11.5839   26.6364 C   0  0  0  0  0  0  0  0  0  0  0  0
    5.4233  -12.6401   26.4221 C   0  0  0  0  0  0  0  0  0  0  0  0
    5.9294  -13.9172   26.3071 C   0  0  0  0  0  0  0  0  0  0  0  0
    9.8236  -16.8403   25.5049 C   0  0  0  0  0  0  0  0  0  0  0  0
   10.6357  -16.9964   26.6178 O   0  0  0  0  0  0  0  0  0  0  0  0
    9.8333  -17.7976   24.6640 O   0  0  0  0  0  0  0  0  0  0  0  0
  2  1  1  6
  2  9  1  0
  2  3  1  0
  4  3  1  0
  5  4  2  0
  6  5  1  0
  7  6  1  0
  7  8  2  0
  8  4  1  0
  9 13  1  0
  9 10  2  0
 12 11  1  1
 13 12  1  0
 14 15  2  0
 14 12  1  0
 16 14  1  0
 17 16  1  0
 17 18  1  1
 19 20  2  0
 19 18  1  0
 21 20  1  0
 22 21  2  0
 23 22  1  0
 23 24  2  0
 24 19  1  0
 25 26  1  0
 25 17  1  0
 27 25  2  0
M  END
$$$$
