HAF.pdb
     RDKit          3D

 27 28  0  0  1  0  0  0  0  0999 V2000
   10.4704  -16.4471   18.6106 N   0  0  0  0  0  0  0  0  0  0  0  0
   11.0154  -16.1503   19.9227 C   0  0  1  0  0  0  0  0  0  0  0  0
   11.2736  -14.6485   19.9548 C   0  0  0  0  0  0  0  0  0  0  0  0
   12.6900  -14.3395   19.6632 C   0  0  0  0  0  0  0  0  0  0  0  0
   13.7856  -14.6020   20.4763 C   0  0  0  0  0  0  0  0  0  0  0  0
   14.8876  -14.1545   19.8209 N   0  0  0  0  0  0  0  0  0  0  0  0
   14.5095  -13.6384   18.6591 C   0  0  0  0  0  0  0  0  0  0  0  0
   13.1698  -13.7425   18.5451 N   0  0  0  0  0  0  0  0  0  0  0  0
   10.0272  -16.4859   20.9577 C   0  0  0  0  0  0  0  0  0  0  0  0
    8.8287  -16.0929   20.7503 O   0  0  0  0  0  0  0  0  0  0  0  0
    9.1354  -18.9841   23.1587 C   0  0  0  0  0  0  0  0  0  0  0  0
    9.3199  -17.4629   23.0890 C   0  0  2  0  0  0  0  0  0  0  0  0
   10.3473  -17.2069   22.1393 N   0  0  0  0  0  0  0  0  0  0  0  0
    9.6074  -16.9104   24.4372 C   0  0  0  0  0  0  0  0  0  0  0  0
   10.8034  -16.6701   24.7459 O   0  0  0  0  0  0  0  0  0  0  0  0
    8.6041  -16.6410   25.3912 N   0  0  0  0  0  0  0  0  0  0  0  0
    8.9127  -16.1515   26.7446 C   0  0  1  0  0  0  0  0  0  0  0  0
    7.7081  -15.3998   27.2070 C   0  0  0  0  0  0  0  0  0  0  0  0
    7.5359  -14.0738   26.6146 C   0  0  0  0  0  0  0  0  0  0  0  0
    6.4970  -13.8597   25.7336 C   0  0  0  0  0  0  0  0  0  0  0  0
    6.2803  -12.6213   25.1381 C   0  0  0  0  0  0  0  0  0  0  0  0
    7.1182  -11.5847   25.4316 C   0  0  0  0  0  0  0  0  0  0  0  0
    8.1605  -11.7687   26.3049 C   0  0  0  0  0  0  0  0  0  0  0  0
    8.3610  -13.0025   26.8863 C   0  0  0  0  0  0  0  0  0  0  0  0
    9.3013  -17.2724   27.6272 C   0  0  0  0  0  0  0  0  0  0  0  0
   10.0268  -17.0505   28.7878 O   0  0  0  0  0  0  0  0  0  0  0  0
    8.9983  -18.4847   27.3775 O   0  0  0  0  0  0  0  0  0  0  0  0
  2  1  1  6
  2  9  1  0
  2  3  1  0
  4  3  1  0
  5  4  2  0
  6  5  1  0
  7  6  1  0
  7  8  2  0
  8  4  1  0
  9 13  1  0
  9 10  2  0
 12 11  1  1
 13 12  1  0
 14 15  2  0
 14 12  1  0
 16 14  1  0
 17 16  1  0
 17 18  1  1
 19 20  2  0
 19 18  1  0
 21 20  1  0
 22 21  2  0
 23 22  1  0
 23 24  2  0
 24 19  1  0
 25 26  1  0
 25 17  1  0
 27 25  2  0
M  END
$$$$
