HAF.pdb
     RDKit          3D

 27 28  0  0  1  0  0  0  0  0999 V2000
    8.7227  -19.9312   20.6189 N   0  0  0  0  0  0  0  0  0  0  0  0
    7.9102  -18.9170   21.2654 C   0  0  1  0  0  0  0  0  0  0  0  0
    7.3097  -19.5687   22.5054 C   0  0  0  0  0  0  0  0  0  0  0  0
    6.3104  -20.5966   22.1428 C   0  0  0  0  0  0  0  0  0  0  0  0
    5.9396  -20.9842   20.8611 C   0  0  0  0  0  0  0  0  0  0  0  0
    4.9961  -21.9521   20.9922 N   0  0  0  0  0  0  0  0  0  0  0  0
    4.7827  -22.1641   22.2839 C   0  0  0  0  0  0  0  0  0  0  0  0
    5.5770  -21.3448   23.0026 N   0  0  0  0  0  0  0  0  0  0  0  0
    8.7598  -17.7924   21.6825 C   0  0  0  0  0  0  0  0  0  0  0  0
    9.9891  -18.0601   21.9089 O   0  0  0  0  0  0  0  0  0  0  0  0
    8.6138  -14.1090   21.9021 C   0  0  0  0  0  0  0  0  0  0  0  0
    9.1542  -15.4711   22.3555 C   0  0  2  0  0  0  0  0  0  0  0  0
    8.2784  -16.4647   21.8372 N   0  0  0  0  0  0  0  0  0  0  0  0
    9.2896  -15.5123   23.8339 C   0  0  0  0  0  0  0  0  0  0  0  0
   10.1762  -14.8030   24.3763 O   0  0  0  0  0  0  0  0  0  0  0  0
    8.4719  -16.3088   24.6621 N   0  0  0  0  0  0  0  0  0  0  0  0
    8.6281  -16.3455   26.1253 C   0  0  1  0  0  0  0  0  0  0  0  0
    7.3937  -15.7300   26.6976 C   0  0  0  0  0  0  0  0  0  0  0  0
    7.2984  -14.2776   26.5555 C   0  0  0  0  0  0  0  0  0  0  0  0
    6.4717  -13.7485   25.5870 C   0  0  0  0  0  0  0  0  0  0  0  0
    6.3377  -12.3761   25.4031 C   0  0  0  0  0  0  0  0  0  0  0  0
    7.0433  -11.5243   26.2028 C   0  0  0  0  0  0  0  0  0  0  0  0
    7.8737  -12.0226   27.1749 C   0  0  0  0  0  0  0  0  0  0  0  0
    7.9950  -13.3854   27.3437 C   0  0  0  0  0  0  0  0  0  0  0  0
    8.8845  -17.7267   26.5866 C   0  0  0  0  0  0  0  0  0  0  0  0
    9.1783  -17.9941   27.9150 O   0  0  0  0  0  0  0  0  0  0  0  0
    8.8513  -18.7328   25.8054 O   0  0  0  0  0  0  0  0  0  0  0  0
  2  1  1  1
  2  9  1  0
  2  3  1  0
  4  3  1  0
  5  4  2  0
  6  5  1  0
  7  6  1  0
  7  8  2  0
  8  4  1  0
  9 13  1  0
  9 10  2  0
 12 11  1  1
 13 12  1  0
 14 15  2  0
 14 12  1  0
 16 14  1  0
 17 16  1  0
 17 18  1  1
 19 20  2  0
 19 18  1  0
 21 20  1  0
 22 21  2  0
 23 22  1  0
 23 24  2  0
 24 19  1  0
 25 26  1  0
 25 17  1  0
 27 25  2  0
M  END
$$$$
