HAF.pdb
     RDKit          3D

 27 28  0  0  1  0  0  0  0  0999 V2000
    6.8085  -16.8429   20.7790 N   0  0  0  0  0  0  0  0  0  0  0  0
    7.9405  -16.1040   21.3074 C   0  0  1  0  0  0  0  0  0  0  0  0
    7.4986  -14.6489   21.4088 C   0  0  0  0  0  0  0  0  0  0  0  0
    7.8270  -13.8995   20.1770 C   0  0  0  0  0  0  0  0  0  0  0  0
    8.4664  -14.3924   19.0462 C   0  0  0  0  0  0  0  0  0  0  0  0
    8.5630  -13.3668   18.1613 N   0  0  0  0  0  0  0  0  0  0  0  0
    8.0154  -12.2869   18.7025 C   0  0  0  0  0  0  0  0  0  0  0  0
    7.5602  -12.5931   19.9344 N   0  0  0  0  0  0  0  0  0  0  0  0
    8.2699  -16.5965   22.6525 C   0  0  0  0  0  0  0  0  0  0  0  0
    7.2887  -16.7641   23.4544 O   0  0  0  0  0  0  0  0  0  0  0  0
   10.8888  -18.5103   24.2363 C   0  0  0  0  0  0  0  0  0  0  0  0
    9.7986  -17.4395   24.3700 C   0  0  2  0  0  0  0  0  0  0  0  0
    9.5952  -16.8827   23.0771 N   0  0  0  0  0  0  0  0  0  0  0  0
   10.1780  -16.4347   25.3957 C   0  0  0  0  0  0  0  0  0  0  0  0
   10.9718  -15.5141   25.0705 O   0  0  0  0  0  0  0  0  0  0  0  0
    9.6916  -16.4610   26.7192 N   0  0  0  0  0  0  0  0  0  0  0  0
   10.1416  -15.5057   27.7447 C   0  0  1  0  0  0  0  0  0  0  0  0
    8.9081  -14.8918   28.3206 C   0  0  0  0  0  0  0  0  0  0  0  0
    8.2222  -13.9378   27.4498 C   0  0  0  0  0  0  0  0  0  0  0  0
    6.9245  -14.1941   27.0603 C   0  0  0  0  0  0  0  0  0  0  0  0
    6.2187  -13.3253   26.2343 C   0  0  0  0  0  0  0  0  0  0  0  0
    6.8246  -12.1843   25.7940 C   0  0  0  0  0  0  0  0  0  0  0  0
    8.1153  -11.9034   26.1655 C   0  0  0  0  0  0  0  0  0  0  0  0
    8.8004  -12.7752   26.9847 C   0  0  0  0  0  0  0  0  0  0  0  0
   11.0032  -16.1787   28.7403 C   0  0  0  0  0  0  0  0  0  0  0  0
   11.2286  -17.5456   28.6833 O   0  0  0  0  0  0  0  0  0  0  0  0
   11.5778  -15.5540   29.6906 O   0  0  0  0  0  0  0  0  0  0  0  0
  2  1  1  1
  2  9  1  0
  2  3  1  0
  4  3  1  0
  5  4  2  0
  6  5  1  0
  7  6  1  0
  7  8  2  0
  8  4  1  0
  9 13  1  0
  9 10  2  0
 12 11  1  6
 13 12  1  0
 14 15  2  0
 14 12  1  0
 16 14  1  0
 17 16  1  0
 17 18  1  1
 19 20  2  0
 19 18  1  0
 21 20  1  0
 22 21  2  0
 23 22  1  0
 23 24  2  0
 24 19  1  0
 25 26  1  0
 25 17  1  0
 27 25  2  0
M  END
$$$$
