HAF.pdb
     RDKit          3D

 27 28  0  0  1  0  0  0  0  0999 V2000
    7.3780  -16.8870   19.9771 N   0  0  0  0  0  0  0  0  0  0  0  0
    8.2910  -16.0405   20.7231 C   0  0  1  0  0  0  0  0  0  0  0  0
    7.6479  -14.6602   20.7865 C   0  0  0  0  0  0  0  0  0  0  0  0
    7.7509  -13.9582   19.4891 C   0  0  0  0  0  0  0  0  0  0  0  0
    8.4925  -12.8156   19.2154 C   0  0  0  0  0  0  0  0  0  0  0  0
    8.2995  -12.5168   17.9048 N   0  0  0  0  0  0  0  0  0  0  0  0
    7.4819  -13.4197   17.3800 C   0  0  0  0  0  0  0  0  0  0  0  0
    7.1361  -14.3087   18.3333 N   0  0  0  0  0  0  0  0  0  0  0  0
    8.4427  -16.5586   22.0902 C   0  0  0  0  0  0  0  0  0  0  0  0
    7.3634  -16.8033   22.7301 O   0  0  0  0  0  0  0  0  0  0  0  0
   10.7564  -18.5843   23.8579 C   0  0  0  0  0  0  0  0  0  0  0  0
    9.7453  -17.4362   23.9691 C   0  0  2  0  0  0  0  0  0  0  0  0
    9.7034  -16.7886   22.7035 N   0  0  0  0  0  0  0  0  0  0  0  0
   10.1076  -16.5292   25.0879 C   0  0  0  0  0  0  0  0  0  0  0  0
   10.9751  -15.6406   24.8845 O   0  0  0  0  0  0  0  0  0  0  0  0
    9.5262  -16.6143   26.3700 N   0  0  0  0  0  0  0  0  0  0  0  0
    9.9280  -15.7337   27.4790 C   0  0  1  0  0  0  0  0  0  0  0  0
    8.6680  -15.1704   28.0491 C   0  0  0  0  0  0  0  0  0  0  0  0
    8.1087  -14.0325   27.3202 C   0  0  0  0  0  0  0  0  0  0  0  0
    6.8934  -14.1721   26.6836 C   0  0  0  0  0  0  0  0  0  0  0  0
    6.3092  -13.1271   25.9754 C   0  0  0  0  0  0  0  0  0  0  0  0
    6.9542  -11.9263   25.9057 C   0  0  0  0  0  0  0  0  0  0  0  0
    8.1649  -11.7585   26.5294 C   0  0  0  0  0  0  0  0  0  0  0  0
    8.7299  -12.8046   27.2272 C   0  0  0  0  0  0  0  0  0  0  0  0
   10.7561  -16.4726   28.4561 C   0  0  0  0  0  0  0  0  0  0  0  0
   11.4949  -15.8024   29.4191 O   0  0  0  0  0  0  0  0  0  0  0  0
   10.8377  -17.7442   28.4700 O   0  0  0  0  0  0  0  0  0  0  0  0
  2  1  1  6
  2  9  1  0
  2  3  1  0
  4  3  1  0
  5  4  2  0
  6  5  1  0
  7  6  1  0
  7  8  2  0
  8  4  1  0
  9 13  1  0
  9 10  2  0
 12 11  1  6
 13 12  1  0
 14 15  2  0
 14 12  1  0
 16 14  1  0
 17 16  1  0
 17 18  1  1
 19 20  2  0
 19 18  1  0
 21 20  1  0
 22 21  2  0
 23 22  1  0
 23 24  2  0
 24 19  1  0
 25 26  1  0
 25 17  1  0
 27 25  2  0
M  END
$$$$
