HAF.pdb
     RDKit          3D

 27 28  0  0  1  0  0  0  0  0999 V2000
    8.2794  -16.8836   18.9176 N   0  0  0  0  0  0  0  0  0  0  0  0
    8.6403  -15.9400   19.9597 C   0  0  1  0  0  0  0  0  0  0  0  0
    7.6152  -14.8138   19.8983 C   0  0  0  0  0  0  0  0  0  0  0  0
    7.7174  -14.0615   18.6294 C   0  0  0  0  0  0  0  0  0  0  0  0
    8.5336  -12.9669   18.3720 C   0  0  0  0  0  0  0  0  0  0  0  0
    8.3090  -12.5930   17.0859 N   0  0  0  0  0  0  0  0  0  0  0  0
    7.4021  -13.4055   16.5603 C   0  0  0  0  0  0  0  0  0  0  0  0
    7.0287  -14.3096   17.4888 N   0  0  0  0  0  0  0  0  0  0  0  0
    8.5515  -16.5937   21.2732 C   0  0  0  0  0  0  0  0  0  0  0  0
    7.3776  -16.7471   21.7554 O   0  0  0  0  0  0  0  0  0  0  0  0
   10.5352  -18.9162   23.2016 C   0  0  0  0  0  0  0  0  0  0  0  0
    9.4860  -17.7973   23.1904 C   0  0  2  0  0  0  0  0  0  0  0  0
    9.6858  -17.0453   21.9998 N   0  0  0  0  0  0  0  0  0  0  0  0
    9.5790  -16.9831   24.4289 C   0  0  0  0  0  0  0  0  0  0  0  0
   10.4032  -16.0328   24.4630 O   0  0  0  0  0  0  0  0  0  0  0  0
    8.7877  -17.2225   25.5715 N   0  0  0  0  0  0  0  0  0  0  0  0
    8.9402  -16.4478   26.8138 C   0  0  1  0  0  0  0  0  0  0  0  0
    7.5749  -15.9690   27.1835 C   0  0  0  0  0  0  0  0  0  0  0  0
    7.3508  -14.5339   27.0131 C   0  0  0  0  0  0  0  0  0  0  0  0
    6.1484  -14.0964   26.4990 C   0  0  0  0  0  0  0  0  0  0  0  0
    5.8749  -12.7451   26.3141 C   0  0  0  0  0  0  0  0  0  0  0  0
    6.8217  -11.8212   26.6501 C   0  0  0  0  0  0  0  0  0  0  0  0
    8.0275  -12.2276   27.1640 C   0  0  0  0  0  0  0  0  0  0  0  0
    8.2822  -13.5708   27.3407 C   0  0  0  0  0  0  0  0  0  0  0  0
    9.5981  -17.2628   27.8576 C   0  0  0  0  0  0  0  0  0  0  0  0
   10.2874  -16.6660   28.9022 O   0  0  0  0  0  0  0  0  0  0  0  0
    9.5707  -18.5367   27.8581 O   0  0  0  0  0  0  0  0  0  0  0  0
  2  1  1  6
  2  9  1  0
  2  3  1  0
  4  3  1  0
  5  4  2  0
  6  5  1  0
  7  6  1  0
  7  8  2  0
  8  4  1  0
  9 13  1  0
  9 10  2  0
 12 11  1  1
 13 12  1  0
 14 15  2  0
 14 12  1  0
 16 14  1  0
 17 16  1  0
 17 18  1  1
 19 20  2  0
 19 18  1  0
 21 20  1  0
 22 21  2  0
 23 22  1  0
 23 24  2  0
 24 19  1  0
 25 26  1  0
 25 17  1  0
 27 25  2  0
M  END
$$$$
