HAF.pdb
     RDKit          3D

 27 28  0  0  1  0  0  0  0  0999 V2000
    8.2868  -16.9442   19.8620 N   0  0  0  0  0  0  0  0  0  0  0  0
    8.6292  -15.8581   20.7619 C   0  0  1  0  0  0  0  0  0  0  0  0
    7.6079  -14.7538   20.5162 C   0  0  0  0  0  0  0  0  0  0  0  0
    7.8206  -14.1060   19.2040 C   0  0  0  0  0  0  0  0  0  0  0  0
    8.5360  -12.9413   18.9549 C   0  0  0  0  0  0  0  0  0  0  0  0
    8.4743  -12.7112   17.6179 N   0  0  0  0  0  0  0  0  0  0  0  0
    7.7602  -13.6761   17.0541 C   0  0  0  0  0  0  0  0  0  0  0  0
    7.3522  -14.5379   18.0078 N   0  0  0  0  0  0  0  0  0  0  0  0
    8.5131  -16.3128   22.1548 C   0  0  0  0  0  0  0  0  0  0  0  0
    7.3663  -16.7432   22.5203 O   0  0  0  0  0  0  0  0  0  0  0  0
   10.1501  -18.2383   24.3277 C   0  0  0  0  0  0  0  0  0  0  0  0
    9.4203  -16.8894   24.3553 C   0  0  2  0  0  0  0  0  0  0  0  0
    9.5940  -16.2911   23.0767 N   0  0  0  0  0  0  0  0  0  0  0  0
    9.9175  -16.0505   25.4753 C   0  0  0  0  0  0  0  0  0  0  0  0
   10.9405  -15.3423   25.2876 O   0  0  0  0  0  0  0  0  0  0  0  0
    9.2987  -16.0081   26.7419 N   0  0  0  0  0  0  0  0  0  0  0  0
    9.8490  -15.2301   27.8637 C   0  0  1  0  0  0  0  0  0  0  0  0
    8.6913  -14.5424   28.5092 C   0  0  0  0  0  0  0  0  0  0  0  0
    8.0341  -13.5258   27.6885 C   0  0  0  0  0  0  0  0  0  0  0  0
    6.7234  -13.7148   27.3042 C   0  0  0  0  0  0  0  0  0  0  0  0
    6.0434  -12.7845   26.5248 C   0  0  0  0  0  0  0  0  0  0  0  0
    6.6887  -11.6497   26.1265 C   0  0  0  0  0  0  0  0  0  0  0  0
    7.9933  -11.4351   26.4940 C   0  0  0  0  0  0  0  0  0  0  0  0
    8.6524  -12.3673   27.2667 C   0  0  0  0  0  0  0  0  0  0  0  0
   10.6177  -16.1043   28.7755 C   0  0  0  0  0  0  0  0  0  0  0  0
   11.4280  -15.5692   29.7652 O   0  0  0  0  0  0  0  0  0  0  0  0
   10.5813  -17.3761   28.7062 O   0  0  0  0  0  0  0  0  0  0  0  0
  2  1  1  6
  2  9  1  0
  2  3  1  0
  4  3  1  0
  5  4  2  0
  6  5  1  0
  7  6  1  0
  7  8  2  0
  8  4  1  0
  9 13  1  0
  9 10  2  0
 12 11  1  6
 13 12  1  0
 14 15  2  0
 14 12  1  0
 16 14  1  0
 17 16  1  0
 17 18  1  1
 19 20  2  0
 19 18  1  0
 21 20  1  0
 22 21  2  0
 23 22  1  0
 23 24  2  0
 24 19  1  0
 25 26  1  0
 25 17  1  0
 27 25  2  0
M  END
$$$$
