HAF.pdb
     RDKit          3D

 27 28  0  0  1  0  0  0  0  0999 V2000
    6.4350  -16.9378   19.1370 N   0  0  0  0  0  0  0  0  0  0  0  0
    7.4543  -16.3481   19.9855 C   0  0  1  0  0  0  0  0  0  0  0  0
    7.3678  -14.8401   19.7823 C   0  0  0  0  0  0  0  0  0  0  0  0
    7.8212  -14.4524   18.4292 C   0  0  0  0  0  0  0  0  0  0  0  0
    9.1346  -14.3332   17.9918 C   0  0  0  0  0  0  0  0  0  0  0  0
    9.0901  -13.9570   16.6877 N   0  0  0  0  0  0  0  0  0  0  0  0
    7.8203  -13.8449   16.3217 C   0  0  0  0  0  0  0  0  0  0  0  0
    7.0301  -14.1438   17.3729 N   0  0  0  0  0  0  0  0  0  0  0  0
    7.1665  -16.6562   21.3936 C   0  0  0  0  0  0  0  0  0  0  0  0
    6.2274  -15.9856   21.9435 O   0  0  0  0  0  0  0  0  0  0  0  0
    7.4934  -19.1396   23.9474 C   0  0  0  0  0  0  0  0  0  0  0  0
    7.7167  -17.6744   23.5519 C   0  0  2  0  0  0  0  0  0  0  0  0
    7.8718  -17.6393   22.1385 N   0  0  0  0  0  0  0  0  0  0  0  0
    8.8732  -17.1057   24.2899 C   0  0  0  0  0  0  0  0  0  0  0  0
   10.0348  -17.4074   23.9116 O   0  0  0  0  0  0  0  0  0  0  0  0
    8.7340  -16.2423   25.3963 N   0  0  0  0  0  0  0  0  0  0  0  0
    9.8913  -15.7260   26.1452 C   0  0  1  0  0  0  0  0  0  0  0  0
    9.8722  -14.2417   25.9819 C   0  0  0  0  0  0  0  0  0  0  0  0
    8.6607  -13.5778   26.4618 C   0  0  0  0  0  0  0  0  0  0  0  0
    7.5190  -13.6198   25.6898 C   0  0  0  0  0  0  0  0  0  0  0  0
    6.3357  -13.0088   26.0918 C   0  0  0  0  0  0  0  0  0  0  0  0
    6.2991  -12.3469   27.2850 C   0  0  0  0  0  0  0  0  0  0  0  0
    7.4203  -12.2887   28.0740 C   0  0  0  0  0  0  0  0  0  0  0  0
    8.5848  -12.8998   27.6605 C   0  0  0  0  0  0  0  0  0  0  0  0
    9.8453  -16.1799   27.5517 C   0  0  0  0  0  0  0  0  0  0  0  0
    8.7979  -16.9600   28.0175 O   0  0  0  0  0  0  0  0  0  0  0  0
   10.7480  -15.8864   28.4017 O   0  0  0  0  0  0  0  0  0  0  0  0
  2  1  1  6
  2  9  1  0
  2  3  1  0
  4  3  1  0
  5  4  2  0
  6  5  1  0
  7  6  1  0
  7  8  2  0
  8  4  1  0
  9 13  1  0
  9 10  2  0
 12 11  1  1
 13 12  1  0
 14 15  2  0
 14 12  1  0
 16 14  1  0
 17 16  1  0
 17 18  1  1
 19 20  2  0
 19 18  1  0
 21 20  1  0
 22 21  2  0
 23 22  1  0
 23 24  2  0
 24 19  1  0
 25 26  1  0
 25 17  1  0
 27 25  2  0
M  END
$$$$
