PKL.pdb
     RDKit          3D

 25 25  0  0  1  0  0  0  0  0999 V2000
   21.0451  -15.9380  -16.8973 N   0  0  0  0  0  0  0  0  0  0  0  0
   21.8712  -17.1171  -17.0880 C   0  0  0  0  0  0  0  0  0  0  0  0
   21.3569  -17.8034  -18.3373 C   0  0  0  0  0  0  0  0  0  0  0  0
   20.3276  -16.8127  -18.8963 C   0  0  0  0  0  0  0  0  0  0  0  0
   20.8045  -15.5247  -18.2668 C   0  0  1  0  0  0  0  0  0  0  0  0
   19.8102  -14.4506  -18.3018 C   0  0  0  0  0  0  0  0  0  0  0  0
   19.3890  -13.9003  -19.3475 O   0  0  0  0  0  0  0  0  0  0  0  0
   19.2492  -13.9599  -17.0746 N   0  0  0  0  0  0  0  0  0  0  0  0
   18.2330  -12.9327  -17.0617 C   0  0  1  0  0  0  0  0  0  0  0  0
   17.3072  -13.2840  -15.8806 C   0  0  0  0  0  0  0  0  0  0  0  0
   16.0193  -12.5844  -16.1577 C   0  0  0  0  0  0  0  0  0  0  0  0
   14.9202  -13.1575  -15.3098 C   0  0  0  0  0  0  0  0  0  0  0  0
   13.6769  -12.3231  -15.4864 C   0  0  0  0  0  0  0  0  0  0  0  0
   12.7322  -12.7698  -14.4598 N   0  0  0  0  0  0  0  0  0  0  0  0
   18.8884  -11.6442  -16.6857 C   0  0  0  0  0  0  0  0  0  0  0  0
   19.7670  -11.6697  -15.7969 O   0  0  0  0  0  0  0  0  0  0  0  0
   18.5927   -6.0460  -18.1139 C   0  0  0  0  0  0  0  0  0  0  0  0
   18.6071   -7.4514  -18.5813 C   0  0  1  0  0  0  0  0  0  0  0  0
   18.6163   -7.4703  -20.1181 C   0  0  0  0  0  0  0  0  0  0  0  0
   19.5740   -8.3862  -18.0063 C   0  0  0  0  0  0  0  0  0  0  0  0
   19.2638   -9.1948  -16.8054 C   0  0  2  0  0  0  0  0  0  0  0  0
   18.5623  -10.4230  -17.2815 N   0  0  0  0  0  0  0  0  0  0  0  0
   18.3776   -8.6106  -15.8144 C   0  0  0  0  0  0  0  0  0  0  0  0
   18.8237   -7.5812  -14.9847 O   0  0  0  0  0  0  0  0  0  0  0  0
   17.2015   -8.9804  -15.6481 O   0  0  0  0  0  0  0  0  0  0  0  0
  1  2  1  0
  2  3  1  0
  4  3  1  0
  5  1  1  0
  5  4  1  0
  5  6  1  1
  7  6  2  0
  8  6  1  0
  9  8  1  0
  9 10  1  1
 10 11  1  0
 11 12  1  0
 12 13  1  0
 13 14  1  0
 15 16  2  0
 15  9  1  0
 18 17  1  6
 19 18  1  0
 21 20  1  6
 20 18  1  0
 21 22  1  0
 22 15  1  0
 23 24  1  0
 23 21  1  0
 25 23  2  0
M  END
$$$$
