PKL.pdb
     RDKit          3D

 25 25  0  0  1  0  0  0  0  0999 V2000
   27.2651  -21.2605  -15.0858 N   0  0  0  0  0  0  0  0  0  0  0  0
   28.0142  -21.3601  -16.3259 C   0  0  0  0  0  0  0  0  0  0  0  0
   28.4350  -19.9499  -16.6869 C   0  0  0  0  0  0  0  0  0  0  0  0
   28.0191  -19.1239  -15.4629 C   0  0  0  0  0  0  0  0  0  0  0  0
   27.9742  -20.1969  -14.4001 C   0  0  1  0  0  0  0  0  0  0  0  0
   27.2441  -19.7995  -13.1950 C   0  0  0  0  0  0  0  0  0  0  0  0
   27.4923  -18.7757  -12.5138 O   0  0  0  0  0  0  0  0  0  0  0  0
   26.1577  -20.6102  -12.7214 N   0  0  0  0  0  0  0  0  0  0  0  0
   25.2339  -20.1311  -11.7188 C   0  0  1  0  0  0  0  0  0  0  0  0
   23.8660  -20.7306  -12.0992 C   0  0  0  0  0  0  0  0  0  0  0  0
   23.3053  -19.8230  -13.1416 C   0  0  0  0  0  0  0  0  0  0  0  0
   21.9790  -20.3368  -13.6237 C   0  0  0  0  0  0  0  0  0  0  0  0
   21.4211  -19.3772  -14.6439 C   0  0  0  0  0  0  0  0  0  0  0  0
   20.1278  -19.9249  -15.0602 N   0  0  0  0  0  0  0  0  0  0  0  0
   25.6000  -20.7659  -10.4173 C   0  0  0  0  0  0  0  0  0  0  0  0
   25.8537  -21.9899  -10.4117 O   0  0  0  0  0  0  0  0  0  0  0  0
   28.3697  -18.3307   -6.2873 C   0  0  0  0  0  0  0  0  0  0  0  0
   27.8571  -19.3960   -7.1798 C   0  0  1  0  0  0  0  0  0  0  0  0
   28.8956  -20.5261   -7.2620 C   0  0  0  0  0  0  0  0  0  0  0  0
   26.4984  -19.9005   -6.9837 C   0  0  0  0  0  0  0  0  0  0  0  0
   25.8567  -20.8204   -7.9503 C   0  0  2  0  0  0  0  0  0  0  0  0
   25.6699  -20.0538   -9.2170 N   0  0  0  0  0  0  0  0  0  0  0  0
   24.5388  -21.3308   -7.6167 C   0  0  0  0  0  0  0  0  0  0  0  0
   24.3838  -22.2917   -6.6167 O   0  0  0  0  0  0  0  0  0  0  0  0
   23.4976  -20.9551   -8.1844 O   0  0  0  0  0  0  0  0  0  0  0  0
  1  2  1  0
  2  3  1  0
  4  3  1  0
  5  1  1  0
  5  4  1  0
  5  6  1  1
  7  6  2  0
  8  6  1  0
  9  8  1  0
  9 10  1  6
 10 11  1  0
 11 12  1  0
 12 13  1  0
 13 14  1  0
 15 16  2  0
 15  9  1  0
 18 17  1  1
 19 18  1  0
 21 20  1  1
 20 18  1  0
 21 22  1  0
 22 15  1  0
 23 24  1  0
 23 21  1  0
 25 23  2  0
M  END
$$$$
