PKL.pdb
     RDKit          3D

 25 25  0  0  1  0  0  0  0  0999 V2000
   22.0690  -12.8584  -18.3598 N   0  0  0  0  0  0  0  0  0  0  0  0
   22.5823  -13.9171  -19.2110 C   0  0  0  0  0  0  0  0  0  0  0  0
   21.7289  -13.9123  -20.4631 C   0  0  0  0  0  0  0  0  0  0  0  0
   20.8521  -12.6643  -20.2982 C   0  0  0  0  0  0  0  0  0  0  0  0
   21.6907  -11.8550  -19.3367 C   0  0  1  0  0  0  0  0  0  0  0  0
   20.9548  -10.7698  -18.6855 C   0  0  0  0  0  0  0  0  0  0  0  0
   20.5602   -9.7275  -19.2615 O   0  0  0  0  0  0  0  0  0  0  0  0
   20.6398  -10.8621  -17.2877 N   0  0  0  0  0  0  0  0  0  0  0  0
   19.8170   -9.8741  -16.6281 C   0  0  1  0  0  0  0  0  0  0  0  0
   19.0491  -10.6417  -15.5342 C   0  0  0  0  0  0  0  0  0  0  0  0
   17.7143  -10.9523  -16.1231 C   0  0  0  0  0  0  0  0  0  0  0  0
   16.8829  -11.7368  -15.1490 C   0  0  0  0  0  0  0  0  0  0  0  0
   15.5591  -12.0699  -15.7889 C   0  0  0  0  0  0  0  0  0  0  0  0
   14.7399  -12.6868  -14.7428 N   0  0  0  0  0  0  0  0  0  0  0  0
   20.7224   -8.9373  -15.8976 C   0  0  0  0  0  0  0  0  0  0  0  0
   21.7477   -9.4101  -15.3614 O   0  0  0  0  0  0  0  0  0  0  0  0
   22.3981   -3.0560  -16.0585 C   0  0  0  0  0  0  0  0  0  0  0  0
   22.2706   -4.2830  -15.2384 C   0  0  1  0  0  0  0  0  0  0  0  0
   21.8508   -3.8933  -13.8122 C   0  0  0  0  0  0  0  0  0  0  0  0
   21.5004   -5.4129  -15.7573 C   0  0  0  0  0  0  0  0  0  0  0  0
   21.4656   -6.7214  -15.0655 C   0  0  2  0  0  0  0  0  0  0  0  0
   20.4720   -7.5667  -15.7904 N   0  0  0  0  0  0  0  0  0  0  0  0
   21.0363   -6.7351  -13.6783 C   0  0  0  0  0  0  0  0  0  0  0  0
   21.9696   -6.6211  -12.6471 O   0  0  0  0  0  0  0  0  0  0  0  0
   19.8464   -6.8463  -13.3331 O   0  0  0  0  0  0  0  0  0  0  0  0
  1  2  1  0
  2  3  1  0
  4  3  1  0
  5  1  1  0
  5  4  1  0
  5  6  1  1
  7  6  2  0
  8  6  1  0
  9  8  1  0
  9 10  1  1
 10 11  1  0
 11 12  1  0
 12 13  1  0
 13 14  1  0
 15 16  2  0
 15  9  1  0
 18 17  1  6
 19 18  1  0
 21 20  1  6
 20 18  1  0
 21 22  1  0
 22 15  1  0
 23 24  1  0
 23 21  1  0
 25 23  2  0
M  END
$$$$
