PKL.pdb
     RDKit          3D

 25 25  0  0  1  0  0  0  0  0999 V2000
   27.2809  -22.0026  -17.7325 N   0  0  0  0  0  0  0  0  0  0  0  0
   27.9794  -22.6621  -18.8216 C   0  0  0  0  0  0  0  0  0  0  0  0
   29.1567  -21.7759  -19.1748 C   0  0  0  0  0  0  0  0  0  0  0  0
   29.1407  -20.7005  -18.0808 C   0  0  0  0  0  0  0  0  0  0  0  0
   28.3816  -21.4189  -16.9897 C   0  0  1  0  0  0  0  0  0  0  0  0
   27.8697  -20.5285  -15.9464 C   0  0  0  0  0  0  0  0  0  0  0  0
   28.5817  -19.7896  -15.2246 O   0  0  0  0  0  0  0  0  0  0  0  0
   26.4573  -20.4635  -15.6963 N   0  0  0  0  0  0  0  0  0  0  0  0
   25.8884  -19.4767  -14.8071 C   0  0  1  0  0  0  0  0  0  0  0  0
   24.6245  -18.9589  -15.5210 C   0  0  0  0  0  0  0  0  0  0  0  0
   24.9861  -17.6127  -16.0521 C   0  0  0  0  0  0  0  0  0  0  0  0
   23.8422  -17.0354  -16.8356 C   0  0  0  0  0  0  0  0  0  0  0  0
   24.2686  -15.7166  -17.4289 C   0  0  0  0  0  0  0  0  0  0  0  0
   23.1502  -15.2565  -18.2556 N   0  0  0  0  0  0  0  0  0  0  0  0
   25.3961  -20.1871  -13.5889 C   0  0  0  0  0  0  0  0  0  0  0  0
   24.7974  -21.2733  -13.7442 O   0  0  0  0  0  0  0  0  0  0  0  0
   25.9051  -22.0196   -8.3630 C   0  0  0  0  0  0  0  0  0  0  0  0
   25.5774  -20.5978   -8.6179 C   0  0  1  0  0  0  0  0  0  0  0  0
   26.1764  -19.7347   -7.4961 C   0  0  0  0  0  0  0  0  0  0  0  0
   25.8218  -20.0348   -9.9455 C   0  0  0  0  0  0  0  0  0  0  0  0
   25.1097  -20.5245  -11.1478 C   0  0  2  0  0  0  0  0  0  0  0  0
   25.5759  -19.6914  -12.2949 N   0  0  0  0  0  0  0  0  0  0  0  0
   23.6619  -20.4137  -11.1610 C   0  0  0  0  0  0  0  0  0  0  0  0
   23.0451  -19.2455  -11.6107 O   0  0  0  0  0  0  0  0  0  0  0  0
   22.9042  -21.3252  -10.7834 O   0  0  0  0  0  0  0  0  0  0  0  0
  1  2  1  0
  2  3  1  0
  4  3  1  0
  5  1  1  0
  5  4  1  0
  5  6  1  1
  7  6  2  0
  8  6  1  0
  9  8  1  0
  9 10  1  6
 10 11  1  0
 11 12  1  0
 12 13  1  0
 13 14  1  0
 15 16  2  0
 15  9  1  0
 18 17  1  6
 19 18  1  0
 21 20  1  1
 20 18  1  0
 21 22  1  0
 22 15  1  0
 23 24  1  0
 23 21  1  0
 25 23  2  0
M  END
$$$$
