PKL.pdb
     RDKit          3D

 25 25  0  0  1  0  0  0  0  0999 V2000
   28.2641  -22.4086  -15.8121 N   0  0  0  0  0  0  0  0  0  0  0  0
   28.9344  -22.9167  -16.9960 C   0  0  0  0  0  0  0  0  0  0  0  0
   28.8887  -21.8050  -18.0247 C   0  0  0  0  0  0  0  0  0  0  0  0
   28.3156  -20.6145  -17.2452 C   0  0  0  0  0  0  0  0  0  0  0  0
   28.6585  -21.0128  -15.8287 C   0  0  1  0  0  0  0  0  0  0  0  0
   27.9146  -20.2666  -14.8124 C   0  0  0  0  0  0  0  0  0  0  0  0
   27.9285  -19.0182  -14.6891 O   0  0  0  0  0  0  0  0  0  0  0  0
   27.0967  -20.9732  -13.8672 N   0  0  0  0  0  0  0  0  0  0  0  0
   26.0092  -20.3250  -13.1704 C   0  0  1  0  0  0  0  0  0  0  0  0
   24.7258  -20.7922  -13.8846 C   0  0  0  0  0  0  0  0  0  0  0  0
   23.8299  -19.6002  -13.9213 C   0  0  0  0  0  0  0  0  0  0  0  0
   22.5137  -19.9548  -14.5519 C   0  0  0  0  0  0  0  0  0  0  0  0
   21.6759  -18.7075  -14.6759 C   0  0  0  0  0  0  0  0  0  0  0  0
   20.4010  -19.1248  -15.2643 N   0  0  0  0  0  0  0  0  0  0  0  0
   25.9350  -20.9051  -11.7960 C   0  0  0  0  0  0  0  0  0  0  0  0
   25.9504  -22.1498  -11.6824 O   0  0  0  0  0  0  0  0  0  0  0  0
   28.4201  -18.7953   -7.4486 C   0  0  0  0  0  0  0  0  0  0  0  0
   27.8069  -19.8311   -8.3118 C   0  0  1  0  0  0  0  0  0  0  0  0
   28.5432  -21.1633   -8.0993 C   0  0  0  0  0  0  0  0  0  0  0  0
   26.3531  -19.9916   -8.3132 C   0  0  0  0  0  0  0  0  0  0  0  0
   25.6557  -20.8079   -9.3328 C   0  0  2  0  0  0  0  0  0  0  0  0
   25.8498  -20.1203  -10.6431 N   0  0  0  0  0  0  0  0  0  0  0  0
   24.2188  -20.9671   -9.1961 C   0  0  0  0  0  0  0  0  0  0  0  0
   23.3511  -20.3932  -10.1261 O   0  0  0  0  0  0  0  0  0  0  0  0
   23.6879  -21.6050   -8.2694 O   0  0  0  0  0  0  0  0  0  0  0  0
  1  2  1  0
  2  3  1  0
  4  3  1  0
  5  1  1  0
  5  4  1  0
  5  6  1  1
  7  6  2  0
  8  6  1  0
  9  8  1  0
  9 10  1  6
 10 11  1  0
 11 12  1  0
 12 13  1  0
 13 14  1  0
 15 16  2  0
 15  9  1  0
 18 17  1  1
 19 18  1  0
 21 20  1  1
 20 18  1  0
 21 22  1  0
 22 15  1  0
 23 24  1  0
 23 21  1  0
 25 23  2  0
M  END
$$$$
