PKL.pdb
     RDKit          3D

 25 25  0  0  1  0  0  0  0  0999 V2000
   24.5597  -18.4179  -17.4111 N   0  0  0  0  0  0  0  0  0  0  0  0
   25.4051  -17.4124  -18.0302 C   0  0  0  0  0  0  0  0  0  0  0  0
   24.5832  -16.7836  -19.1371 C   0  0  0  0  0  0  0  0  0  0  0  0
   23.1887  -17.3925  -18.9424 C   0  0  0  0  0  0  0  0  0  0  0  0
   23.2545  -17.7892  -17.4860 C   0  0  1  0  0  0  0  0  0  0  0  0
   22.2139  -18.7392  -17.0885 C   0  0  0  0  0  0  0  0  0  0  0  0
   20.9865  -18.4818  -17.0538 O   0  0  0  0  0  0  0  0  0  0  0  0
   22.5781  -20.0734  -16.7027 N   0  0  0  0  0  0  0  0  0  0  0  0
   21.5813  -21.0802  -16.4182 C   0  0  1  0  0  0  0  0  0  0  0  0
   22.3180  -22.4300  -16.5220 C   0  0  0  0  0  0  0  0  0  0  0  0
   21.2485  -23.4682  -16.5770 C   0  0  0  0  0  0  0  0  0  0  0  0
   21.8459  -24.8207  -16.8407 C   0  0  0  0  0  0  0  0  0  0  0  0
   20.7343  -25.8257  -17.0054 C   0  0  0  0  0  0  0  0  0  0  0  0
   21.3800  -27.1153  -17.2624 N   0  0  0  0  0  0  0  0  0  0  0  0
   21.1923  -20.9472  -14.9822 C   0  0  0  0  0  0  0  0  0  0  0  0
   22.1027  -20.9360  -14.1258 O   0  0  0  0  0  0  0  0  0  0  0  0
   18.7989  -16.8966  -13.0884 C   0  0  0  0  0  0  0  0  0  0  0  0
   19.5925  -18.1456  -13.0239 C   0  0  1  0  0  0  0  0  0  0  0  0
   20.7123  -17.9769  -11.9847 C   0  0  0  0  0  0  0  0  0  0  0  0
   18.8994  -19.4270  -12.8936 C   0  0  0  0  0  0  0  0  0  0  0  0
   19.5942  -20.7183  -13.0984 C   0  0  2  0  0  0  0  0  0  0  0  0
   19.8645  -20.8359  -14.5614 N   0  0  0  0  0  0  0  0  0  0  0  0
   18.8753  -21.9297  -12.7458 C   0  0  0  0  0  0  0  0  0  0  0  0
   18.7186  -22.2964  -11.4086 O   0  0  0  0  0  0  0  0  0  0  0  0
   18.3702  -22.6932  -13.5882 O   0  0  0  0  0  0  0  0  0  0  0  0
  1  2  1  0
  2  3  1  0
  4  3  1  0
  5  1  1  0
  5  4  1  0
  5  6  1  6
  7  6  2  0
  8  6  1  0
  9  8  1  0
  9 10  1  1
 10 11  1  0
 11 12  1  0
 12 13  1  0
 13 14  1  0
 15 16  2  0
 15  9  1  0
 18 17  1  1
 19 18  1  0
 21 20  1  6
 20 18  1  0
 21 22  1  0
 22 15  1  0
 23 24  1  0
 23 21  1  0
 25 23  2  0
M  END
$$$$
