PKL.pdb
     RDKit          3D

 25 25  0  0  1  0  0  0  0  0999 V2000
   27.4067  -22.1904  -17.8362 N   0  0  0  0  0  0  0  0  0  0  0  0
   28.5639  -22.7358  -18.5235 C   0  0  0  0  0  0  0  0  0  0  0  0
   29.6599  -21.6957  -18.4094 C   0  0  0  0  0  0  0  0  0  0  0  0
   29.0659  -20.6471  -17.4602 C   0  0  0  0  0  0  0  0  0  0  0  0
   28.0287  -21.4752  -16.7381 C   0  0  1  0  0  0  0  0  0  0  0  0
   27.0296  -20.6755  -16.0271 C   0  0  0  0  0  0  0  0  0  0  0  0
   27.2758  -19.9280  -15.0501 O   0  0  0  0  0  0  0  0  0  0  0  0
   25.6562  -20.7185  -16.4435 N   0  0  0  0  0  0  0  0  0  0  0  0
   24.6632  -19.8347  -15.8769 C   0  0  1  0  0  0  0  0  0  0  0  0
   23.5231  -19.7785  -16.9125 C   0  0  0  0  0  0  0  0  0  0  0  0
   22.5197  -18.8265  -16.3542 C   0  0  0  0  0  0  0  0  0  0  0  0
   21.3023  -18.7756  -17.2323 C   0  0  0  0  0  0  0  0  0  0  0  0
   20.3186  -17.7911  -16.6525 C   0  0  0  0  0  0  0  0  0  0  0  0
   19.0946  -17.9156  -17.4477 N   0  0  0  0  0  0  0  0  0  0  0  0
   24.0805  -20.5085  -14.6780 C   0  0  0  0  0  0  0  0  0  0  0  0
   23.6790  -21.6856  -14.8030 O   0  0  0  0  0  0  0  0  0  0  0  0
   26.1097  -21.9674  -10.9047 C   0  0  0  0  0  0  0  0  0  0  0  0
   25.0545  -21.1462  -10.2675 C   0  0  1  0  0  0  0  0  0  0  0  0
   25.6352  -20.4603   -9.0206 C   0  0  0  0  0  0  0  0  0  0  0  0
   24.2662  -20.2303  -11.0915 C   0  0  0  0  0  0  0  0  0  0  0  0
   23.5043  -20.6968  -12.2723 C   0  0  2  0  0  0  0  0  0  0  0  0
   23.9672  -19.8823  -13.4340 N   0  0  0  0  0  0  0  0  0  0  0  0
   22.0614  -20.5356  -12.2456 C   0  0  0  0  0  0  0  0  0  0  0  0
   21.2430  -21.5613  -11.7706 O   0  0  0  0  0  0  0  0  0  0  0  0
   21.4825  -19.5049  -12.6329 O   0  0  0  0  0  0  0  0  0  0  0  0
  1  2  1  0
  2  3  1  0
  4  3  1  0
  5  1  1  0
  5  4  1  0
  5  6  1  6
  7  6  2  0
  8  6  1  0
  9  8  1  0
  9 10  1  6
 10 11  1  0
 11 12  1  0
 12 13  1  0
 13 14  1  0
 15 16  2  0
 15  9  1  0
 18 17  1  6
 19 18  1  0
 21 20  1  1
 20 18  1  0
 21 22  1  0
 22 15  1  0
 23 24  1  0
 23 21  1  0
 25 23  2  0
M  END
$$$$
