PKL.pdb
     RDKit          3D

 25 25  0  0  1  0  0  0  0  0999 V2000
   20.9574  -15.2483  -19.3003 N   0  0  0  0  0  0  0  0  0  0  0  0
   20.5701  -16.6091  -18.9729 C   0  0  0  0  0  0  0  0  0  0  0  0
   20.4883  -16.6797  -17.4614 C   0  0  0  0  0  0  0  0  0  0  0  0
   20.6767  -15.2224  -17.0208 C   0  0  0  0  0  0  0  0  0  0  0  0
   20.2620  -14.4917  -18.2765 C   0  0  1  0  0  0  0  0  0  0  0  0
   20.6871  -13.0912  -18.3085 C   0  0  0  0  0  0  0  0  0  0  0  0
   21.8327  -12.6992  -18.6370 O   0  0  0  0  0  0  0  0  0  0  0  0
   19.7592  -12.0573  -17.9457 N   0  0  0  0  0  0  0  0  0  0  0  0
   20.0941  -10.6575  -18.0736 C   0  0  1  0  0  0  0  0  0  0  0  0
   18.7493   -9.9275  -18.2586 C   0  0  0  0  0  0  0  0  0  0  0  0
   18.4692   -9.9664  -19.7231 C   0  0  0  0  0  0  0  0  0  0  0  0
   17.1000   -9.4190  -20.0081 C   0  0  0  0  0  0  0  0  0  0  0  0
   16.8095   -9.5630  -21.4805 C   0  0  0  0  0  0  0  0  0  0  0  0
   15.3895   -9.2466  -21.6527 N   0  0  0  0  0  0  0  0  0  0  0  0
   20.6239  -10.1908  -16.7574 C   0  0  0  0  0  0  0  0  0  0  0  0
   20.0718  -10.6137  -15.7188 O   0  0  0  0  0  0  0  0  0  0  0  0
   25.7851  -10.6976  -15.5698 C   0  0  0  0  0  0  0  0  0  0  0  0
   24.3376  -10.5556  -15.2894 C   0  0  1  0  0  0  0  0  0  0  0  0
   24.0071  -11.2774  -13.9733 C   0  0  0  0  0  0  0  0  0  0  0  0
   23.7204   -9.2320  -15.3697 C   0  0  0  0  0  0  0  0  0  0  0  0
   22.2544   -9.0442  -15.2804 C   0  0  2  0  0  0  0  0  0  0  0  0
   21.7016   -9.3089  -16.6410 N   0  0  0  0  0  0  0  0  0  0  0  0
   21.7684   -7.7234  -14.9227 C   0  0  0  0  0  0  0  0  0  0  0  0
   21.7128   -7.3273  -13.5858 O   0  0  0  0  0  0  0  0  0  0  0  0
   21.3826   -6.8882  -15.7601 O   0  0  0  0  0  0  0  0  0  0  0  0
  1  2  1  0
  2  3  1  0
  4  3  1  0
  5  1  1  0
  5  4  1  0
  5  6  1  1
  7  6  2  0
  8  6  1  0
  9  8  1  0
  9 10  1  1
 10 11  1  0
 11 12  1  0
 12 13  1  0
 13 14  1  0
 15 16  2  0
 15  9  1  0
 18 17  1  1
 19 18  1  0
 21 20  1  6
 20 18  1  0
 21 22  1  0
 22 15  1  0
 23 24  1  0
 23 21  1  0
 25 23  2  0
M  END
$$$$
