GDA.pdb
     RDKit          3D

 18 17  0  0  1  0  0  0  0  0999 V2000
   -1.3933  -25.7259   27.9535 N   0  0  0  0  0  0  0  0  0  0  0  0
   -2.5613  -25.6949   27.1119 C   0  0  0  0  0  0  0  0  0  0  0  0
   -3.7875  -25.5464   27.9324 C   0  0  0  0  0  0  0  0  0  0  0  0
   -4.8956  -25.7901   27.4036 O   0  0  0  0  0  0  0  0  0  0  0  0
   -3.7626  -25.1402   29.2907 N   0  0  0  0  0  0  0  0  0  0  0  0
   -4.9487  -25.0750   30.1103 C   0  0  1  0  0  0  0  0  0  0  0  0
   -4.6664  -25.3423   31.5587 C   0  0  0  0  0  0  0  0  0  0  0  0
   -4.4681  -26.7775   31.8489 C   0  0  0  0  0  0  0  0  0  0  0  0
   -5.0380  -27.6335   31.1373 O   0  0  0  0  0  0  0  0  0  0  0  0
   -5.6227  -23.7650   29.9049 C   0  0  0  0  0  0  0  0  0  0  0  0
   -4.9772  -22.7074   30.0903 O   0  0  0  0  0  0  0  0  0  0  0  0
   -3.6684  -27.2140   32.8879 O   0  0  0  0  0  0  0  0  0  0  0  0
   -8.9348  -22.6329   28.5302 C   0  0  0  0  0  0  0  0  0  0  0  0
   -7.6320  -22.3841   29.2615 C   0  0  2  0  0  0  0  0  0  0  0  0
   -6.9760  -23.6535   29.5048 N   0  0  0  0  0  0  0  0  0  0  0  0
   -7.8623  -21.6465   30.5456 C   0  0  0  0  0  0  0  0  0  0  0  0
   -7.8718  -20.2608   30.5716 O   0  0  0  0  0  0  0  0  0  0  0  0
   -8.0524  -22.2597   31.6296 O   0  0  0  0  0  0  0  0  0  0  0  0
  1  2  1  0
  3  4  2  0
  3  2  1  0
  5  3  1  0
  6 10  1  0
  6  5  1  0
  6  7  1  1
  8 12  1  0
  8  7  1  0
  9  8  2  0
 10 11  2  0
 14 13  1  1
 14 16  1  0
 15 14  1  0
 15 10  1  0
 16 17  1  0
 18 16  2  0
M  END
$$$$
