GDA.pdb
     RDKit          3D

 18 17  0  0  1  0  0  0  0  0999 V2000
    8.5499  -13.9013   12.5139 N   0  0  0  0  0  0  0  0  0  0  0  0
    9.3374  -14.8219   13.2921 C   0  0  0  0  0  0  0  0  0  0  0  0
    8.7283  -15.0236   14.6290 C   0  0  0  0  0  0  0  0  0  0  0  0
    7.7801  -14.2827   14.9735 O   0  0  0  0  0  0  0  0  0  0  0  0
    9.1714  -16.0189   15.5366 N   0  0  0  0  0  0  0  0  0  0  0  0
    8.4958  -16.3009   16.7804 C   0  0  1  0  0  0  0  0  0  0  0  0
    8.6558  -17.7272   17.2151 C   0  0  0  0  0  0  0  0  0  0  0  0
    7.7853  -18.6563   16.4653 C   0  0  0  0  0  0  0  0  0  0  0  0
    6.5442  -18.5780   16.5968 O   0  0  0  0  0  0  0  0  0  0  0  0
    8.9549  -15.3441   17.8227 C   0  0  0  0  0  0  0  0  0  0  0  0
   10.1816  -15.2233   18.0467 O   0  0  0  0  0  0  0  0  0  0  0  0
    8.2963  -19.6186   15.6153 O   0  0  0  0  0  0  0  0  0  0  0  0
    7.3582  -12.7765   20.0599 C   0  0  0  0  0  0  0  0  0  0  0  0
    8.4820  -13.7247   19.6967 C   0  0  2  0  0  0  0  0  0  0  0  0
    8.0615  -14.5529   18.5840 N   0  0  0  0  0  0  0  0  0  0  0  0
    8.8817  -14.5677   20.8696 C   0  0  0  0  0  0  0  0  0  0  0  0
    8.5843  -15.9210   20.9001 O   0  0  0  0  0  0  0  0  0  0  0  0
    9.4947  -14.0746   21.8536 O   0  0  0  0  0  0  0  0  0  0  0  0
  1  2  1  0
  3  4  2  0
  3  2  1  0
  5  3  1  0
  6 10  1  0
  6  5  1  0
  6  7  1  1
  8 12  1  0
  8  7  1  0
  9  8  2  0
 10 11  2  0
 14 13  1  1
 14 16  1  0
 15 14  1  0
 15 10  1  0
 16 17  1  0
 18 16  2  0
M  END
$$$$
