GDA.pdb
     RDKit          3D

 18 17  0  0  1  0  0  0  0  0999 V2000
    7.1795  -13.2351   17.2618 N   0  0  0  0  0  0  0  0  0  0  0  0
    8.5470  -13.0321   17.6643 C   0  0  0  0  0  0  0  0  0  0  0  0
    9.0261  -14.1811   18.4701 C   0  0  0  0  0  0  0  0  0  0  0  0
    8.1891  -15.0179   18.8775 O   0  0  0  0  0  0  0  0  0  0  0  0
   10.3912  -14.3757   18.8008 N   0  0  0  0  0  0  0  0  0  0  0  0
   10.8737  -15.5606   19.4688 C   0  0  1  0  0  0  0  0  0  0  0  0
   12.1943  -16.0287   18.9343 C   0  0  0  0  0  0  0  0  0  0  0  0
   12.5972  -17.3443   19.4728 C   0  0  0  0  0  0  0  0  0  0  0  0
   13.7982  -17.5533   19.7518 O   0  0  0  0  0  0  0  0  0  0  0  0
   10.9181  -15.3201   20.9360 C   0  0  0  0  0  0  0  0  0  0  0  0
   11.8318  -14.6082   21.4134 O   0  0  0  0  0  0  0  0  0  0  0  0
   11.6874  -18.3632   19.6821 O   0  0  0  0  0  0  0  0  0  0  0  0
    8.6150  -15.7029   23.8256 C   0  0  0  0  0  0  0  0  0  0  0  0
   10.0222  -15.6713   23.2667 C   0  0  2  0  0  0  0  0  0  0  0  0
    9.9658  -15.8637   21.8312 N   0  0  0  0  0  0  0  0  0  0  0  0
   10.8864  -16.7119   23.9121 C   0  0  0  0  0  0  0  0  0  0  0  0
   11.2864  -16.5774   25.2322 O   0  0  0  0  0  0  0  0  0  0  0  0
   11.2711  -17.7304   23.2783 O   0  0  0  0  0  0  0  0  0  0  0  0
  1  2  1  0
  3  4  2  0
  3  2  1  0
  5  3  1  0
  6 10  1  0
  6  5  1  0
  6  7  1  6
  8 12  1  0
  8  7  1  0
  9  8  2  0
 10 11  2  0
 14 13  1  1
 14 16  1  0
 15 14  1  0
 15 10  1  0
 16 17  1  0
 18 16  2  0
M  END
$$$$
