GDA.pdb
     RDKit          3D

 18 17  0  0  1  0  0  0  0  0999 V2000
    7.7812  -13.2662   18.1513 N   0  0  0  0  0  0  0  0  0  0  0  0
    9.1459  -12.8818   18.4023 C   0  0  0  0  0  0  0  0  0  0  0  0
    9.9257  -14.0379   18.9065 C   0  0  0  0  0  0  0  0  0  0  0  0
    9.3434  -15.1366   19.0504 O   0  0  0  0  0  0  0  0  0  0  0  0
   11.3029  -13.9559   19.2337 N   0  0  0  0  0  0  0  0  0  0  0  0
   12.0501  -15.0723   19.7615 C   0  0  1  0  0  0  0  0  0  0  0  0
   13.5113  -14.9978   19.4322 C   0  0  0  0  0  0  0  0  0  0  0  0
   13.7867  -15.2071   17.9957 C   0  0  0  0  0  0  0  0  0  0  0  0
   14.1965  -14.2507   17.3021 O   0  0  0  0  0  0  0  0  0  0  0  0
   11.8120  -15.1812   21.2258 C   0  0  0  0  0  0  0  0  0  0  0  0
   12.5003  -14.4902   22.0120 O   0  0  0  0  0  0  0  0  0  0  0  0
   13.6067  -16.4328   17.3834 O   0  0  0  0  0  0  0  0  0  0  0  0
    9.3011  -16.8223   23.4753 C   0  0  0  0  0  0  0  0  0  0  0  0
   10.6787  -16.2533   23.2068 C   0  0  2  0  0  0  0  0  0  0  0  0
   10.8327  -16.0390   21.7816 N   0  0  0  0  0  0  0  0  0  0  0  0
   11.7519  -17.1588   23.7304 C   0  0  0  0  0  0  0  0  0  0  0  0
   12.0200  -17.2238   25.0886 O   0  0  0  0  0  0  0  0  0  0  0  0
   12.4358  -17.8812   22.9574 O   0  0  0  0  0  0  0  0  0  0  0  0
  1  2  1  0
  3  4  2  0
  3  2  1  0
  5  3  1  0
  6 10  1  0
  6  5  1  0
  6  7  1  1
  8 12  1  0
  8  7  1  0
  9  8  2  0
 10 11  2  0
 14 13  1  6
 14 16  1  0
 15 14  1  0
 15 10  1  0
 16 17  1  0
 18 16  2  0
M  END
$$$$
