GDA.pdb
     RDKit          3D

 18 17  0  0  1  0  0  0  0  0999 V2000
   12.3034  -20.0460   16.5435 N   0  0  0  0  0  0  0  0  0  0  0  0
   12.1074  -20.4013   17.9250 C   0  0  0  0  0  0  0  0  0  0  0  0
   11.8632  -19.1885   18.7425 C   0  0  0  0  0  0  0  0  0  0  0  0
   12.7165  -18.2728   18.7262 O   0  0  0  0  0  0  0  0  0  0  0  0
   10.7055  -19.0180   19.5433 N   0  0  0  0  0  0  0  0  0  0  0  0
   10.4772  -17.8429   20.3495 C   0  0  1  0  0  0  0  0  0  0  0  0
    9.0218  -17.5986   20.6168 C   0  0  0  0  0  0  0  0  0  0  0  0
    8.2315  -17.4330   19.3795 C   0  0  0  0  0  0  0  0  0  0  0  0
    8.6827  -16.7270   18.4511 O   0  0  0  0  0  0  0  0  0  0  0  0
   11.2673  -17.9415   21.6059 C   0  0  0  0  0  0  0  0  0  0  0  0
   11.2629  -19.0158   22.2504 O   0  0  0  0  0  0  0  0  0  0  0  0
    6.9995  -18.0351   19.2076 O   0  0  0  0  0  0  0  0  0  0  0  0
   13.6965  -15.7452   23.4602 C   0  0  0  0  0  0  0  0  0  0  0  0
   12.7548  -16.9280   23.3718 C   0  0  2  0  0  0  0  0  0  0  0  0
   12.0341  -16.8664   22.1158 N   0  0  0  0  0  0  0  0  0  0  0  0
   11.8061  -16.9549   24.5318 C   0  0  0  0  0  0  0  0  0  0  0  0
   12.2464  -17.3161   25.7953 O   0  0  0  0  0  0  0  0  0  0  0  0
   10.5911  -16.6524   24.3928 O   0  0  0  0  0  0  0  0  0  0  0  0
  1  2  1  0
  3  4  2  0
  3  2  1  0
  5  3  1  0
  6 10  1  0
  6  5  1  0
  6  7  1  1
  8 12  1  0
  8  7  1  0
  9  8  2  0
 10 11  2  0
 14 13  1  1
 14 16  1  0
 15 14  1  0
 15 10  1  0
 16 17  1  0
 18 16  2  0
M  END
$$$$
