GDA.pdb
     RDKit          3D

 18 17  0  0  1  0  0  0  0  0999 V2000
    7.2725  -12.8606   18.8971 N   0  0  0  0  0  0  0  0  0  0  0  0
    8.3074  -13.4759   19.6868 C   0  0  0  0  0  0  0  0  0  0  0  0
    7.7485  -13.9989   20.9569 C   0  0  0  0  0  0  0  0  0  0  0  0
    6.5728  -13.6976   21.2633 O   0  0  0  0  0  0  0  0  0  0  0  0
    8.4858  -14.8260   21.8417 N   0  0  0  0  0  0  0  0  0  0  0  0
    7.9183  -15.3885   23.0435 C   0  0  1  0  0  0  0  0  0  0  0  0
    8.3131  -16.8198   23.2546 C   0  0  0  0  0  0  0  0  0  0  0  0
    7.8004  -17.3749   24.5243 C   0  0  0  0  0  0  0  0  0  0  0  0
    6.5789  -17.2972   24.7810 O   0  0  0  0  0  0  0  0  0  0  0  0
    8.2733  -14.5334   24.2077 C   0  0  0  0  0  0  0  0  0  0  0  0
    9.4783  -14.2786   24.4366 O   0  0  0  0  0  0  0  0  0  0  0  0
    8.6284  -17.9830   25.4486 O   0  0  0  0  0  0  0  0  0  0  0  0
    6.4022  -12.2863   26.5395 C   0  0  0  0  0  0  0  0  0  0  0  0
    7.6302  -13.0946   26.1761 C   0  0  2  0  0  0  0  0  0  0  0  0
    7.3030  -13.9863   25.0812 N   0  0  0  0  0  0  0  0  0  0  0  0
    8.1436  -13.8629   27.3561 C   0  0  0  0  0  0  0  0  0  0  0  0
    8.1863  -15.2480   27.3320 O   0  0  0  0  0  0  0  0  0  0  0  0
    8.5478  -13.2766   28.3953 O   0  0  0  0  0  0  0  0  0  0  0  0
  1  2  1  0
  3  4  2  0
  3  2  1  0
  5  3  1  0
  6 10  1  0
  6  5  1  0
  6  7  1  1
  8 12  1  0
  8  7  1  0
  9  8  2  0
 10 11  2  0
 14 13  1  1
 14 16  1  0
 15 14  1  0
 15 10  1  0
 16 17  1  0
 18 16  2  0
M  END
$$$$
