WYI.pdb
     RDKit          3D

 35 37  0  0  1  0  0  0  0  0999 V2000
   27.4084  -22.8254  -13.7863 N   0  0  0  0  0  0  0  0  0  0  0  0
   26.7304  -21.9695  -12.8401 C   0  0  1  0  0  0  0  0  0  0  0  0
   27.4089  -20.6128  -12.6985 C   0  0  0  0  0  0  0  0  0  0  0  0
   28.2897  -20.6139  -11.5037 C   0  0  0  0  0  0  0  0  0  0  0  0
   29.6360  -20.8523  -11.4468 C   0  0  0  0  0  0  0  0  0  0  0  0
   30.0247  -20.7615  -10.1622 N   0  0  0  0  0  0  0  0  0  0  0  0
   28.9873  -20.4705   -9.3573 C   0  0  0  0  0  0  0  0  0  0  0  0
   28.8209  -20.2708   -8.0077 C   0  0  0  0  0  0  0  0  0  0  0  0
   27.5856  -19.9831   -7.5213 C   0  0  0  0  0  0  0  0  0  0  0  0
   26.4678  -19.8790   -8.3268 C   0  0  0  0  0  0  0  0  0  0  0  0
   26.6271  -20.0792   -9.6810 C   0  0  0  0  0  0  0  0  0  0  0  0
   27.8722  -20.3723  -10.1952 C   0  0  0  0  0  0  0  0  0  0  0  0
   25.3063  -21.8151  -13.1404 C   0  0  0  0  0  0  0  0  0  0  0  0
   24.9288  -22.0122  -14.3305 O   0  0  0  0  0  0  0  0  0  0  0  0
   16.5683  -20.5021  -12.1937 O   0  0  0  0  0  0  0  0  0  0  0  0
   17.9489  -20.6443  -11.9423 C   0  0  0  0  0  0  0  0  0  0  0  0
   18.5260  -21.8946  -11.9862 C   0  0  0  0  0  0  0  0  0  0  0  0
   19.8709  -22.0645  -11.7438 C   0  0  0  0  0  0  0  0  0  0  0  0
   20.6911  -20.9938  -11.4504 C   0  0  0  0  0  0  0  0  0  0  0  0
   22.1274  -21.0974  -11.1839 C   0  0  0  0  0  0  0  0  0  0  0  0
   22.9710  -21.2834  -12.3959 C   0  0  2  0  0  0  0  0  0  0  0  0
   24.3824  -21.4563  -12.1340 N   0  0  0  0  0  0  0  0  0  0  0  0
   22.7725  -20.0929  -13.3199 C   0  0  0  0  0  0  0  0  0  0  0  0
   23.2428  -18.9767  -12.9922 O   0  0  0  0  0  0  0  0  0  0  0  0
   20.0960  -19.7476  -11.4122 C   0  0  0  0  0  0  0  0  0  0  0  0
   18.7425  -19.5711  -11.6537 C   0  0  0  0  0  0  0  0  0  0  0  0
   22.7417  -20.7799  -18.7525 C   0  0  0  0  0  0  0  0  0  0  0  0
   22.1005  -20.6152  -17.4155 C   0  0  0  0  0  0  0  0  0  0  0  0
   22.4448  -19.3663  -16.6789 C   0  0  2  0  0  0  0  0  0  0  0  0
   23.9364  -19.3459  -16.4016 C   0  0  0  0  0  0  0  0  0  0  0  0
   21.7399  -19.1664  -15.3736 C   0  0  2  0  0  0  0  0  0  0  0  0
   22.0572  -20.2916  -14.5251 N   0  0  0  0  0  0  0  0  0  0  0  0
   20.2670  -19.0433  -15.5668 C   0  0  0  0  0  0  0  0  0  0  0  0
   19.3604  -19.9865  -15.1298 O   0  0  0  0  0  0  0  0  0  0  0  0
   19.8186  -18.0351  -16.1550 O   0  0  0  0  0  0  0  0  0  0  0  0
  2  1  1  6
  2  3  1  0
  3  4  1  0
  4  5  2  0
  5  6  1  0
  7  6  1  0
  8  7  2  0
  9  8  1  0
 10 11  1  0
 10  9  2  0
 11 12  2  0
 12  4  1  0
 12  7  1  0
 13  2  1  0
 13 22  1  0
 14 13  2  0
 15 16  1  0
 16 17  2  0
 17 18  1  0
 19 20  1  0
 19 18  2  0
 21 20  1  1
 21 22  1  0
 21 23  1  0
 23 32  1  0
 23 24  2  0
 25 19  1  0
 26 25  2  0
 26 16  1  0
 28 27  1  0
 29 28  1  0
 29 30  1  1
 31 29  1  0
 31 32  1  1
 33 31  1  0
 33 34  1  0
 35 33  2  0
M  END
$$$$
