WYI.pdb
     RDKit          3D

 35 37  0  0  1  0  0  0  0  0999 V2000
   23.6695  -18.8812  -20.0674 N   0  0  0  0  0  0  0  0  0  0  0  0
   22.6637  -18.0330  -19.4704 C   0  0  1  0  0  0  0  0  0  0  0  0
   21.5861  -17.6249  -20.4671 C   0  0  0  0  0  0  0  0  0  0  0  0
   22.1765  -16.7603  -21.5192 C   0  0  0  0  0  0  0  0  0  0  0  0
   22.6805  -17.1339  -22.7353 C   0  0  0  0  0  0  0  0  0  0  0  0
   23.1209  -16.0296  -23.3648 N   0  0  0  0  0  0  0  0  0  0  0  0
   22.9293  -14.9303  -22.6142 C   0  0  0  0  0  0  0  0  0  0  0  0
   23.1828  -13.5875  -22.7615 C   0  0  0  0  0  0  0  0  0  0  0  0
   22.8443  -12.7295  -21.7642 C   0  0  0  0  0  0  0  0  0  0  0  0
   22.2480  -13.1435  -20.5886 C   0  0  0  0  0  0  0  0  0  0  0  0
   21.9921  -14.4887  -20.4335 C   0  0  0  0  0  0  0  0  0  0  0  0
   22.3277  -15.3766  -21.4334 C   0  0  0  0  0  0  0  0  0  0  0  0
   22.0710  -18.6223  -18.2689 C   0  0  0  0  0  0  0  0  0  0  0  0
   21.8646  -19.8693  -18.2627 O   0  0  0  0  0  0  0  0  0  0  0  0
   19.6187  -19.9506   -9.8866 O   0  0  0  0  0  0  0  0  0  0  0  0
   20.1159  -19.3838  -11.0786 C   0  0  0  0  0  0  0  0  0  0  0  0
   19.4585  -18.3189  -11.6548 C   0  0  0  0  0  0  0  0  0  0  0  0
   19.9195  -17.7460  -12.8191 C   0  0  0  0  0  0  0  0  0  0  0  0
   21.0544  -18.2122  -13.4514 C   0  0  0  0  0  0  0  0  0  0  0  0
   21.6042  -17.6531  -14.6882 C   0  0  0  0  0  0  0  0  0  0  0  0
   21.2094  -18.3792  -15.9260 C   0  0  2  0  0  0  0  0  0  0  0  0
   21.7387  -17.8243  -17.1518 N   0  0  0  0  0  0  0  0  0  0  0  0
   19.6922  -18.4228  -16.0070 C   0  0  0  0  0  0  0  0  0  0  0  0
   19.0610  -17.3700  -16.2675 O   0  0  0  0  0  0  0  0  0  0  0  0
   21.7017  -19.2792  -12.8589 C   0  0  0  0  0  0  0  0  0  0  0  0
   21.2410  -19.8609  -11.6880 C   0  0  0  0  0  0  0  0  0  0  0  0
   17.3004  -23.3867  -17.1943 C   0  0  0  0  0  0  0  0  0  0  0  0
   17.6775  -22.2448  -16.3114 C   0  0  0  0  0  0  0  0  0  0  0  0
   17.2813  -20.8916  -16.7939 C   0  0  2  0  0  0  0  0  0  0  0  0
   17.9610  -20.6169  -18.1224 C   0  0  0  0  0  0  0  0  0  0  0  0
   17.6057  -19.7539  -15.8768 C   0  0  2  0  0  0  0  0  0  0  0  0
   19.0441  -19.6610  -15.7823 N   0  0  0  0  0  0  0  0  0  0  0  0
   16.9949  -19.9517  -14.5315 C   0  0  0  0  0  0  0  0  0  0  0  0
   17.7150  -20.3252  -13.4160 O   0  0  0  0  0  0  0  0  0  0  0  0
   15.7650  -19.7719  -14.3958 O   0  0  0  0  0  0  0  0  0  0  0  0
  2  1  1  6
  2  3  1  0
  3  4  1  0
  4  5  2  0
  5  6  1  0
  7  6  1  0
  8  7  2  0
  9  8  1  0
 10 11  1  0
 10  9  2  0
 11 12  2  0
 12  4  1  0
 12  7  1  0
 13  2  1  0
 13 22  1  0
 14 13  2  0
 15 16  1  0
 16 17  2  0
 17 18  1  0
 19 20  1  0
 19 18  2  0
 21 20  1  1
 21 22  1  0
 21 23  1  0
 23 32  1  0
 23 24  2  0
 25 19  1  0
 26 25  2  0
 26 16  1  0
 28 27  1  0
 29 28  1  0
 29 30  1  6
 31 29  1  0
 31 32  1  1
 33 31  1  0
 33 34  1  0
 35 33  2  0
M  END
$$$$
