WYI.pdb
     RDKit          3D

 35 37  0  0  1  0  0  0  0  0999 V2000
   25.5114  -22.8419  -12.4096 N   0  0  0  0  0  0  0  0  0  0  0  0
   25.1810  -21.5400  -12.9419 C   0  0  1  0  0  0  0  0  0  0  0  0
   25.6039  -20.4106  -12.0109 C   0  0  0  0  0  0  0  0  0  0  0  0
   24.8911  -20.5345  -10.7148 C   0  0  0  0  0  0  0  0  0  0  0  0
   25.4185  -20.8178   -9.4844 C   0  0  0  0  0  0  0  0  0  0  0  0
   24.4124  -20.8422   -8.5917 N   0  0  0  0  0  0  0  0  0  0  0  0
   23.2308  -20.5849   -9.1801 C   0  0  0  0  0  0  0  0  0  0  0  0
   21.9265  -20.4889   -8.7574 C   0  0  0  0  0  0  0  0  0  0  0  0
   20.9507  -20.2032   -9.6581 C   0  0  0  0  0  0  0  0  0  0  0  0
   21.2053  -20.0006  -11.0010 C   0  0  0  0  0  0  0  0  0  0  0  0
   22.5107  -20.0965  -11.4321 C   0  0  0  0  0  0  0  0  0  0  0  0
   23.5163  -20.3857  -10.5344 C   0  0  0  0  0  0  0  0  0  0  0  0
   25.7085  -21.3329  -14.2913 C   0  0  0  0  0  0  0  0  0  0  0  0
   26.9221  -21.6173  -14.5012 O   0  0  0  0  0  0  0  0  0  0  0  0
   24.5447  -26.9485  -15.6982 O   0  0  0  0  0  0  0  0  0  0  0  0
   24.6407  -25.6298  -16.1893 C   0  0  0  0  0  0  0  0  0  0  0  0
   23.6567  -24.7144  -15.8856 C   0  0  0  0  0  0  0  0  0  0  0  0
   23.7227  -23.4204  -16.3520 C   0  0  0  0  0  0  0  0  0  0  0  0
   24.7733  -22.9901  -17.1370 C   0  0  0  0  0  0  0  0  0  0  0  0
   24.9115  -21.6316  -17.6663 C   0  0  0  0  0  0  0  0  0  0  0  0
   25.3729  -20.6233  -16.6734 C   0  0  2  0  0  0  0  0  0  0  0  0
   24.8894  -20.8304  -15.3265 N   0  0  0  0  0  0  0  0  0  0  0  0
   24.9594  -19.2403  -17.1497 C   0  0  0  0  0  0  0  0  0  0  0  0
   24.3218  -18.4889  -16.3728 O   0  0  0  0  0  0  0  0  0  0  0  0
   25.7515  -23.9205  -17.4301 C   0  0  0  0  0  0  0  0  0  0  0  0
   25.6892  -25.2248  -16.9648 C   0  0  0  0  0  0  0  0  0  0  0  0
   28.4706  -17.4577  -15.7638 C   0  0  0  0  0  0  0  0  0  0  0  0
   27.1678  -17.5415  -16.4859 C   0  0  0  0  0  0  0  0  0  0  0  0
   27.2495  -17.5651  -17.9737 C   0  0  2  0  0  0  0  0  0  0  0  0
   28.0304  -16.3544  -18.4497 C   0  0  0  0  0  0  0  0  0  0  0  0
   25.9387  -17.5699  -18.6965 C   0  0  2  0  0  0  0  0  0  0  0  0
   25.3124  -18.8505  -18.4639 N   0  0  0  0  0  0  0  0  0  0  0  0
   26.1236  -17.3242  -20.1551 C   0  0  0  0  0  0  0  0  0  0  0  0
   25.6832  -16.1858  -20.7972 O   0  0  0  0  0  0  0  0  0  0  0  0
   26.7081  -18.1898  -20.8426 O   0  0  0  0  0  0  0  0  0  0  0  0
  2  1  1  1
  2  3  1  0
  3  4  1  0
  4  5  2  0
  5  6  1  0
  7  6  1  0
  8  7  2  0
  9  8  1  0
 10 11  1  0
 10  9  2  0
 11 12  2  0
 12  4  1  0
 12  7  1  0
 13  2  1  0
 13 22  1  0
 14 13  2  0
 15 16  1  0
 16 17  2  0
 17 18  1  0
 19 20  1  0
 19 18  2  0
 21 20  1  6
 21 22  1  0
 21 23  1  0
 23 32  1  0
 23 24  2  0
 25 19  1  0
 26 25  2  0
 26 16  1  0
 28 27  1  0
 29 28  1  0
 29 30  1  6
 31 29  1  0
 31 32  1  6
 33 31  1  0
 33 34  1  0
 35 33  2  0
M  END
$$$$
