WYI.pdb
     RDKit          3D

 35 37  0  0  1  0  0  0  0  0999 V2000
   24.9066  -19.8653  -19.2089 N   0  0  0  0  0  0  0  0  0  0  0  0
   23.5196  -20.1975  -18.9782 C   0  0  1  0  0  0  0  0  0  0  0  0
   23.3092  -21.6929  -18.7769 C   0  0  0  0  0  0  0  0  0  0  0  0
   23.8338  -22.4363  -19.9496 C   0  0  0  0  0  0  0  0  0  0  0  0
   25.0266  -23.0965  -20.0668 C   0  0  0  0  0  0  0  0  0  0  0  0
   25.0969  -23.6207  -21.3037 N   0  0  0  0  0  0  0  0  0  0  0  0
   23.9939  -23.3356  -22.0185 C   0  0  0  0  0  0  0  0  0  0  0  0
   23.5535  -23.6104  -23.2911 C   0  0  0  0  0  0  0  0  0  0  0  0
   22.3418  -23.1472  -23.6942 C   0  0  0  0  0  0  0  0  0  0  0  0
   21.5143  -22.4008  -22.8773 C   0  0  0  0  0  0  0  0  0  0  0  0
   21.9501  -22.1204  -21.6003 C   0  0  0  0  0  0  0  0  0  0  0  0
   23.1767  -22.5809  -21.1712 C   0  0  0  0  0  0  0  0  0  0  0  0
   22.9329  -19.4322  -17.8771 C   0  0  0  0  0  0  0  0  0  0  0  0
   23.6330  -19.2593  -16.8390 O   0  0  0  0  0  0  0  0  0  0  0  0
   17.6787  -14.0036  -13.2526 O   0  0  0  0  0  0  0  0  0  0  0  0
   18.2713  -14.7658  -14.2808 C   0  0  0  0  0  0  0  0  0  0  0  0
   17.6495  -15.9114  -14.7270 C   0  0  0  0  0  0  0  0  0  0  0  0
   18.2048  -16.6766  -15.7282 C   0  0  0  0  0  0  0  0  0  0  0  0
   19.4001  -16.3269  -16.3234 C   0  0  0  0  0  0  0  0  0  0  0  0
   20.0486  -17.0887  -17.3928 C   0  0  0  0  0  0  0  0  0  0  0  0
   21.0325  -18.1021  -16.9232 C   0  0  2  0  0  0  0  0  0  0  0  0
   21.6261  -18.9042  -17.9696 N   0  0  0  0  0  0  0  0  0  0  0  0
   20.3546  -19.0136  -15.9134 C   0  0  0  0  0  0  0  0  0  0  0  0
   19.6262  -19.9495  -16.3234 O   0  0  0  0  0  0  0  0  0  0  0  0
   20.0087  -15.1745  -15.8649 C   0  0  0  0  0  0  0  0  0  0  0  0
   19.4550  -14.4016  -14.8562 C   0  0  0  0  0  0  0  0  0  0  0  0
   21.1741  -20.1993   -9.8878 C   0  0  0  0  0  0  0  0  0  0  0  0
   20.3512  -20.3137  -11.1270 C   0  0  0  0  0  0  0  0  0  0  0  0
   20.8246  -19.5217  -12.2972 C   0  0  2  0  0  0  0  0  0  0  0  0
   20.8581  -18.0514  -11.9237 C   0  0  0  0  0  0  0  0  0  0  0  0
   20.0069  -19.6525  -13.5441 C   0  0  2  0  0  0  0  0  0  0  0  0
   20.5727  -18.7683  -14.5364 N   0  0  0  0  0  0  0  0  0  0  0  0
   18.5756  -19.3222  -13.2903 C   0  0  0  0  0  0  0  0  0  0  0  0
   17.9860  -18.1390  -13.6837 O   0  0  0  0  0  0  0  0  0  0  0  0
   17.8623  -20.1553  -12.6896 O   0  0  0  0  0  0  0  0  0  0  0  0
  2  1  1  1
  2  3  1  0
  3  4  1  0
  4  5  2  0
  5  6  1  0
  7  6  1  0
  8  7  2  0
  9  8  1  0
 10 11  1  0
 10  9  2  0
 11 12  2  0
 12  4  1  0
 12  7  1  0
 13  2  1  0
 13 22  1  0
 14 13  2  0
 15 16  1  0
 16 17  2  0
 17 18  1  0
 19 20  1  0
 19 18  2  0
 21 20  1  6
 21 22  1  0
 21 23  1  0
 23 32  1  0
 23 24  2  0
 25 19  1  0
 26 25  2  0
 26 16  1  0
 28 27  1  0
 29 28  1  0
 29 30  1  1
 31 29  1  0
 31 32  1  6
 33 31  1  0
 33 34  1  0
 35 33  2  0
M  END
$$$$
