WYI.pdb
     RDKit          3D

 35 37  0  0  1  0  0  0  0  0999 V2000
   25.2265  -22.4624  -12.6687 N   0  0  0  0  0  0  0  0  0  0  0  0
   25.7363  -21.2432  -12.0847 C   0  0  1  0  0  0  0  0  0  0  0  0
   24.6287  -20.2451  -11.7714 C   0  0  0  0  0  0  0  0  0  0  0  0
   24.0975  -19.6719  -13.0334 C   0  0  0  0  0  0  0  0  0  0  0  0
   22.8437  -19.8127  -13.5631 C   0  0  0  0  0  0  0  0  0  0  0  0
   22.7992  -19.1334  -14.7234 N   0  0  0  0  0  0  0  0  0  0  0  0
   23.9778  -18.5427  -14.9891 C   0  0  0  0  0  0  0  0  0  0  0  0
   24.4726  -17.7556  -16.0014 C   0  0  0  0  0  0  0  0  0  0  0  0
   25.7578  -17.3196  -15.9426 C   0  0  0  0  0  0  0  0  0  0  0  0
   26.6088  -17.6317  -14.8997 C   0  0  0  0  0  0  0  0  0  0  0  0
   26.1197  -18.4216  -13.8818 C   0  0  0  0  0  0  0  0  0  0  0  0
   24.8183  -18.8747  -13.9220 C   0  0  0  0  0  0  0  0  0  0  0  0
   26.5699  -21.4886  -10.9069 C   0  0  0  0  0  0  0  0  0  0  0  0
   26.3300  -22.5210  -10.2182 O   0  0  0  0  0  0  0  0  0  0  0  0
   32.6926  -24.0566  -13.1298 O   0  0  0  0  0  0  0  0  0  0  0  0
   32.0028  -23.1672  -12.2799 C   0  0  0  0  0  0  0  0  0  0  0  0
   32.2244  -23.2107  -10.9208 C   0  0  0  0  0  0  0  0  0  0  0  0
   31.5646  -22.3559  -10.0662 C   0  0  0  0  0  0  0  0  0  0  0  0
   30.6604  -21.4244  -10.5351 C   0  0  0  0  0  0  0  0  0  0  0  0
   29.9242  -20.4833   -9.6884 C   0  0  0  0  0  0  0  0  0  0  0  0
   28.5034  -20.8519   -9.4417 C   0  0  2  0  0  0  0  0  0  0  0  0
   27.6087  -20.6008  -10.5495 N   0  0  0  0  0  0  0  0  0  0  0  0
   28.0079  -20.1037   -8.2149 C   0  0  0  0  0  0  0  0  0  0  0  0
   27.2277  -19.1320   -8.3622 O   0  0  0  0  0  0  0  0  0  0  0  0
   30.4517  -21.3937  -11.9004 C   0  0  0  0  0  0  0  0  0  0  0  0
   31.1119  -22.2529  -12.7649 C   0  0  0  0  0  0  0  0  0  0  0  0
   27.4713  -22.8913   -3.4804 C   0  0  0  0  0  0  0  0  0  0  0  0
   27.2780  -21.9129   -4.5899 C   0  0  0  0  0  0  0  0  0  0  0  0
   28.1955  -20.7385   -4.5883 C   0  0  2  0  0  0  0  0  0  0  0  0
   27.9640  -19.9264   -3.3278 C   0  0  0  0  0  0  0  0  0  0  0  0
   28.0641  -19.8096   -5.7547 C   0  0  2  0  0  0  0  0  0  0  0  0
   28.4507  -20.5361   -6.9418 N   0  0  0  0  0  0  0  0  0  0  0  0
   28.9071  -18.5933   -5.5760 C   0  0  0  0  0  0  0  0  0  0  0  0
   28.4329  -17.4084   -5.0531 O   0  0  0  0  0  0  0  0  0  0  0  0
   30.1099  -18.6387   -5.9149 O   0  0  0  0  0  0  0  0  0  0  0  0
  2  1  1  1
  2  3  1  0
  3  4  1  0
  4  5  2  0
  5  6  1  0
  7  6  1  0
  8  7  2  0
  9  8  1  0
 10 11  1  0
 10  9  2  0
 11 12  2  0
 12  4  1  0
 12  7  1  0
 13  2  1  0
 13 22  1  0
 14 13  2  0
 15 16  1  0
 16 17  2  0
 17 18  1  0
 19 20  1  0
 19 18  2  0
 21 20  1  6
 21 22  1  0
 21 23  1  0
 23 32  1  0
 23 24  2  0
 25 19  1  0
 26 25  2  0
 26 16  1  0
 28 27  1  0
 29 28  1  0
 29 30  1  1
 31 29  1  0
 31 32  1  6
 33 31  1  0
 33 34  1  0
 35 33  2  0
M  END
$$$$
