WYI.pdb
     RDKit          3D

 35 37  0  0  1  0  0  0  0  0999 V2000
   26.5852  -21.7210  -19.0687 N   0  0  0  0  0  0  0  0  0  0  0  0
   26.3026  -20.6246  -18.1712 C   0  0  1  0  0  0  0  0  0  0  0  0
   25.2791  -19.6546  -18.7479 C   0  0  0  0  0  0  0  0  0  0  0  0
   25.8447  -18.9794  -19.9427 C   0  0  0  0  0  0  0  0  0  0  0  0
   25.7819  -19.3814  -21.2492 C   0  0  0  0  0  0  0  0  0  0  0  0
   26.4360  -18.4762  -21.9991 N   0  0  0  0  0  0  0  0  0  0  0  0
   26.9338  -17.4825  -21.2418 C   0  0  0  0  0  0  0  0  0  0  0  0
   27.6610  -16.3406  -21.4790 C   0  0  0  0  0  0  0  0  0  0  0  0
   28.0031  -15.5372  -20.4385 C   0  0  0  0  0  0  0  0  0  0  0  0
   27.6521  -15.8129  -19.1308 C   0  0  0  0  0  0  0  0  0  0  0  0
   26.9239  -16.9569  -18.8855 C   0  0  0  0  0  0  0  0  0  0  0  0
   26.5664  -17.7862  -19.9272 C   0  0  0  0  0  0  0  0  0  0  0  0
   25.9033  -21.0771  -16.8377 C   0  0  0  0  0  0  0  0  0  0  0  0
   25.1311  -22.0747  -16.7591 O   0  0  0  0  0  0  0  0  0  0  0  0
   24.4662  -20.9930   -8.0751 O   0  0  0  0  0  0  0  0  0  0  0  0
   25.0283  -20.8124   -9.3560 C   0  0  0  0  0  0  0  0  0  0  0  0
   24.9496  -19.5811   -9.9691 C   0  0  0  0  0  0  0  0  0  0  0  0
   25.4879  -19.3753  -11.2199 C   0  0  0  0  0  0  0  0  0  0  0  0
   26.1264  -20.3890  -11.9052 C   0  0  0  0  0  0  0  0  0  0  0  0
   26.7234  -20.2440  -13.2346 C   0  0  0  0  0  0  0  0  0  0  0  0
   25.8750  -20.7398  -14.3526 C   0  0  2  0  0  0  0  0  0  0  0  0
   26.3641  -20.4204  -15.6752 N   0  0  0  0  0  0  0  0  0  0  0  0
   24.4703  -20.1833  -14.1872 C   0  0  0  0  0  0  0  0  0  0  0  0
   24.2817  -18.9483  -14.3047 O   0  0  0  0  0  0  0  0  0  0  0  0
   26.1975  -21.6163  -11.2748 C   0  0  0  0  0  0  0  0  0  0  0  0
   25.6559  -21.8294  -10.0168 C   0  0  0  0  0  0  0  0  0  0  0  0
   20.1627  -22.7681  -16.2028 C   0  0  0  0  0  0  0  0  0  0  0  0
   21.0747  -22.4074  -15.0785 C   0  0  0  0  0  0  0  0  0  0  0  0
   21.2263  -20.9500  -14.8064 C   0  0  2  0  0  0  0  0  0  0  0  0
   21.8126  -20.2723  -16.0308 C   0  0  0  0  0  0  0  0  0  0  0  0
   22.0891  -20.5938  -13.6362 C   0  0  2  0  0  0  0  0  0  0  0  0
   23.4196  -21.0885  -13.9035 N   0  0  0  0  0  0  0  0  0  0  0  0
   21.5507  -21.1696  -12.3711 C   0  0  0  0  0  0  0  0  0  0  0  0
   22.1465  -22.2145  -11.6961 O   0  0  0  0  0  0  0  0  0  0  0  0
   20.5035  -20.6871  -11.8871 O   0  0  0  0  0  0  0  0  0  0  0  0
  2  1  1  6
  2  3  1  0
  3  4  1  0
  4  5  2  0
  5  6  1  0
  7  6  1  0
  8  7  2  0
  9  8  1  0
 10 11  1  0
 10  9  2  0
 11 12  2  0
 12  4  1  0
 12  7  1  0
 13  2  1  0
 13 22  1  0
 14 13  2  0
 15 16  1  0
 16 17  2  0
 17 18  1  0
 19 20  1  0
 19 18  2  0
 21 20  1  1
 21 22  1  0
 21 23  1  0
 23 32  1  0
 23 24  2  0
 25 19  1  0
 26 25  2  0
 26 16  1  0
 28 27  1  0
 29 28  1  0
 29 30  1  6
 31 29  1  0
 31 32  1  6
 33 31  1  0
 33 34  1  0
 35 33  2  0
M  END
$$$$
