WYI.pdb
     RDKit          3D

 35 37  0  0  1  0  0  0  0  0999 V2000
   23.4914  -19.6618  -18.5640 N   0  0  0  0  0  0  0  0  0  0  0  0
   23.5220  -19.1020  -17.2324 C   0  0  1  0  0  0  0  0  0  0  0  0
   22.2141  -19.3221  -16.4827 C   0  0  0  0  0  0  0  0  0  0  0  0
   21.1959  -18.3498  -16.9530 C   0  0  0  0  0  0  0  0  0  0  0  0
   21.1543  -17.6805  -18.1458 C   0  0  0  0  0  0  0  0  0  0  0  0
   20.0628  -16.8942  -18.1485 N   0  0  0  0  0  0  0  0  0  0  0  0
   19.3721  -17.0134  -17.0008 C   0  0  0  0  0  0  0  0  0  0  0  0
   18.2227  -16.4613  -16.4877 C   0  0  0  0  0  0  0  0  0  0  0  0
   17.8016  -16.8245  -15.2483 C   0  0  0  0  0  0  0  0  0  0  0  0
   18.4805  -17.7360  -14.4625 C   0  0  0  0  0  0  0  0  0  0  0  0
   19.6345  -18.2927  -14.9702 C   0  0  0  0  0  0  0  0  0  0  0  0
   20.0794  -17.9378  -16.2259 C   0  0  0  0  0  0  0  0  0  0  0  0
   24.6627  -19.5770  -16.4479 C   0  0  0  0  0  0  0  0  0  0  0  0
   24.8464  -20.8251  -16.3686 O   0  0  0  0  0  0  0  0  0  0  0  0
   30.3896  -18.4945  -20.0975 O   0  0  0  0  0  0  0  0  0  0  0  0
   29.7566  -18.4441  -18.8381 C   0  0  0  0  0  0  0  0  0  0  0  0
   29.9958  -19.4367  -17.9131 C   0  0  0  0  0  0  0  0  0  0  0  0
   29.3911  -19.4150  -16.6761 C   0  0  0  0  0  0  0  0  0  0  0  0
   28.5267  -18.4016  -16.3144 C   0  0  0  0  0  0  0  0  0  0  0  0
   27.8498  -18.3111  -15.0189 C   0  0  0  0  0  0  0  0  0  0  0  0
   26.5936  -19.1032  -14.9190 C   0  0  2  0  0  0  0  0  0  0  0  0
   25.5306  -18.6712  -15.7988 N   0  0  0  0  0  0  0  0  0  0  0  0
   26.1031  -19.0667  -13.4808 C   0  0  0  0  0  0  0  0  0  0  0  0
   25.2479  -18.2117  -13.1456 O   0  0  0  0  0  0  0  0  0  0  0  0
   28.2997  -17.4140  -17.2534 C   0  0  0  0  0  0  0  0  0  0  0  0
   28.9043  -17.4319  -18.5006 C   0  0  0  0  0  0  0  0  0  0  0  0
   22.6558  -21.2838  -10.0197 C   0  0  0  0  0  0  0  0  0  0  0  0
   24.0256  -20.6954   -9.9644 C   0  0  0  0  0  0  0  0  0  0  0  0
   24.7001  -20.4938  -11.2779 C   0  0  2  0  0  0  0  0  0  0  0  0
   24.6417  -21.7853  -12.0720 C   0  0  0  0  0  0  0  0  0  0  0  0
   26.1335  -20.0674  -11.2137 C   0  0  2  0  0  0  0  0  0  0  0  0
   26.6358  -20.0070  -12.5666 N   0  0  0  0  0  0  0  0  0  0  0  0
   26.9418  -21.0079  -10.3866 C   0  0  0  0  0  0  0  0  0  0  0  0
   27.0488  -20.9159   -9.0146 O   0  0  0  0  0  0  0  0  0  0  0  0
   27.5597  -21.9334  -10.9569 O   0  0  0  0  0  0  0  0  0  0  0  0
  2  1  1  6
  2  3  1  0
  3  4  1  0
  4  5  2  0
  5  6  1  0
  7  6  1  0
  8  7  2  0
  9  8  1  0
 10 11  1  0
 10  9  2  0
 11 12  2  0
 12  4  1  0
 12  7  1  0
 13  2  1  0
 13 22  1  0
 14 13  2  0
 15 16  1  0
 16 17  2  0
 17 18  1  0
 19 20  1  0
 19 18  2  0
 21 20  1  1
 21 22  1  0
 21 23  1  0
 23 32  1  0
 23 24  2  0
 25 19  1  0
 26 25  2  0
 26 16  1  0
 28 27  1  0
 29 28  1  0
 29 30  1  6
 31 29  1  0
 31 32  1  6
 33 31  1  0
 33 34  1  0
 35 33  2  0
M  END
$$$$
