WYI.pdb
     RDKit          3D

 35 37  0  0  1  0  0  0  0  0999 V2000
   25.2977  -18.9787  -15.4329 N   0  0  0  0  0  0  0  0  0  0  0  0
   26.2172  -18.9046  -14.3209 C   0  0  1  0  0  0  0  0  0  0  0  0
   26.9841  -17.5885  -14.2918 C   0  0  0  0  0  0  0  0  0  0  0  0
   27.6162  -17.3462  -15.6128 C   0  0  0  0  0  0  0  0  0  0  0  0
   27.4176  -16.2933  -16.4640 C   0  0  0  0  0  0  0  0  0  0  0  0
   28.1867  -16.4815  -17.5515 N   0  0  0  0  0  0  0  0  0  0  0  0
   28.8932  -17.6220  -17.4588 C   0  0  0  0  0  0  0  0  0  0  0  0
   29.8014  -18.2788  -18.2543 C   0  0  0  0  0  0  0  0  0  0  0  0
   30.3356  -19.4536  -17.8302 C   0  0  0  0  0  0  0  0  0  0  0  0
   30.0078  -20.0330  -16.6194 C   0  0  0  0  0  0  0  0  0  0  0  0
   29.0968  -19.3805  -15.8172 C   0  0  0  0  0  0  0  0  0  0  0  0
   28.5426  -18.1871  -16.2287 C   0  0  0  0  0  0  0  0  0  0  0  0
   25.5675  -19.1617  -13.0348 C   0  0  0  0  0  0  0  0  0  0  0  0
   24.5774  -18.4423  -12.7189 O   0  0  0  0  0  0  0  0  0  0  0  0
   19.9304  -21.0462  -14.2354 O   0  0  0  0  0  0  0  0  0  0  0  0
   21.0645  -21.1931  -13.4098 C   0  0  0  0  0  0  0  0  0  0  0  0
   21.0254  -20.7415  -12.1087 C   0  0  0  0  0  0  0  0  0  0  0  0
   22.1175  -20.8699  -11.2798 C   0  0  0  0  0  0  0  0  0  0  0  0
   23.2888  -21.4550  -11.7165 C   0  0  0  0  0  0  0  0  0  0  0  0
   24.4876  -21.6274  -10.8931 C   0  0  0  0  0  0  0  0  0  0  0  0
   25.4145  -20.4629  -10.8961 C   0  0  2  0  0  0  0  0  0  0  0  0
   26.0315  -20.1799  -12.1728 N   0  0  0  0  0  0  0  0  0  0  0  0
   26.4968  -20.6940   -9.8541 C   0  0  0  0  0  0  0  0  0  0  0  0
   27.5575  -21.2746  -10.1894 O   0  0  0  0  0  0  0  0  0  0  0  0
   23.3097  -21.9035  -13.0230 C   0  0  0  0  0  0  0  0  0  0  0  0
   22.2139  -21.7752  -13.8623 C   0  0  0  0  0  0  0  0  0  0  0  0
   28.4168  -17.1164   -6.4978 C   0  0  0  0  0  0  0  0  0  0  0  0
   28.0960  -18.3091   -7.3346 C   0  0  0  0  0  0  0  0  0  0  0  0
   27.4331  -19.4406   -6.6268 C   0  0  2  0  0  0  0  0  0  0  0  0
   28.3063  -19.8843   -5.4680 C   0  0  0  0  0  0  0  0  0  0  0  0
   27.1424  -20.6484   -7.4618 C   0  0  2  0  0  0  0  0  0  0  0  0
   26.2632  -20.2417   -8.5333 N   0  0  0  0  0  0  0  0  0  0  0  0
   26.5240  -21.7334   -6.6479 C   0  0  0  0  0  0  0  0  0  0  0  0
   27.2490  -22.7383   -6.0423 O   0  0  0  0  0  0  0  0  0  0  0  0
   25.2824  -21.7424   -6.4996 O   0  0  0  0  0  0  0  0  0  0  0  0
  2  1  1  6
  2  3  1  0
  3  4  1  0
  4  5  2  0
  5  6  1  0
  7  6  1  0
  8  7  2  0
  9  8  1  0
 10 11  1  0
 10  9  2  0
 11 12  2  0
 12  4  1  0
 12  7  1  0
 13  2  1  0
 13 22  1  0
 14 13  2  0
 15 16  1  0
 16 17  2  0
 17 18  1  0
 19 20  1  0
 19 18  2  0
 21 20  1  6
 21 22  1  0
 21 23  1  0
 23 32  1  0
 23 24  2  0
 25 19  1  0
 26 25  2  0
 26 16  1  0
 28 27  1  0
 29 28  1  0
 29 30  1  1
 31 29  1  0
 31 32  1  6
 33 31  1  0
 33 34  1  0
 35 33  2  0
M  END
$$$$
