FDD.pdb
     RDKit          3D

 28 28  0  0  1  0  0  0  0  0999 V2000
   25.5839  -10.5852  -18.8928 N   0  0  0  0  0  0  0  0  0  0  0  0
   25.5574   -9.7743  -17.6892 C   0  0  1  0  0  0  0  0  0  0  0  0
   26.4594   -8.5862  -17.9769 C   0  0  0  0  0  0  0  0  0  0  0  0
   27.8610   -9.0679  -18.1237 C   0  0  0  0  0  0  0  0  0  0  0  0
   28.4336   -9.1840  -19.3923 C   0  0  0  0  0  0  0  0  0  0  0  0
   29.7283   -9.6252  -19.5072 C   0  0  0  0  0  0  0  0  0  0  0  0
   30.4886   -9.9583  -18.3853 C   0  0  0  0  0  0  0  0  0  0  0  0
   29.9419   -9.8503  -17.1261 C   0  0  0  0  0  0  0  0  0  0  0  0
   28.6217   -9.4001  -17.0319 C   0  0  0  0  0  0  0  0  0  0  0  0
   24.1589   -9.2312  -17.5108 C   0  0  0  0  0  0  0  0  0  0  0  0
   23.3679   -9.0457  -18.4649 O   0  0  0  0  0  0  0  0  0  0  0  0
   23.6913   -8.9054  -16.1853 N   0  0  0  0  0  0  0  0  0  0  0  0
   22.3416   -8.4560  -15.9834 C   0  0  1  0  0  0  0  0  0  0  0  0
   21.9142   -8.8836  -14.5714 C   0  0  0  0  0  0  0  0  0  0  0  0
   20.4735   -8.5887  -14.4296 C   0  0  0  0  0  0  0  0  0  0  0  0
   19.9819   -7.6240  -13.7932 O   0  0  0  0  0  0  0  0  0  0  0  0
   22.1840   -7.0057  -16.0857 C   0  0  0  0  0  0  0  0  0  0  0  0
   22.9371   -6.1623  -15.5320 O   0  0  0  0  0  0  0  0  0  0  0  0
   19.5293   -9.4363  -15.0425 O   0  0  0  0  0  0  0  0  0  0  0  0
   21.1132   -6.4764  -16.8550 N   0  0  0  0  0  0  0  0  0  0  0  0
   20.8764   -5.0570  -17.0236 C   0  0  1  0  0  0  0  0  0  0  0  0
   20.0493   -4.9559  -18.3140 C   0  0  0  0  0  0  0  0  0  0  0  0
   19.7316   -3.5558  -18.6499 C   0  0  0  0  0  0  0  0  0  0  0  0
   18.5286   -3.1556  -18.5539 O   0  0  0  0  0  0  0  0  0  0  0  0
   19.9989   -4.5895  -15.9470 C   0  0  0  0  0  0  0  0  0  0  0  0
   19.3155   -5.4087  -15.3005 O   0  0  0  0  0  0  0  0  0  0  0  0
   20.6817   -2.6514  -19.0618 O   0  0  0  0  0  0  0  0  0  0  0  0
   19.8802   -3.2386  -15.5925 O   0  0  0  0  0  0  0  0  0  0  0  0
  2  1  1  6
  3  4  1  0
  3  2  1  0
  4  9  2  0
  5  6  2  0
  5  4  1  0
  6  7  1  0
  7  8  2  0
  9  8  1  0
 10  2  1  0
 10 12  1  0
 11 10  2  0
 13 12  1  0
 13 14  1  1
 14 15  1  0
 15 16  2  0
 17 13  1  0
 18 17  2  0
 19 15  1  0
 20 17  1  0
 21 20  1  0
 21 25  1  0
 21 22  1  6
 23 24  2  0
 23 22  1  0
 25 28  1  0
 26 25  2  0
 27 23  1  0
M  END
$$$$
