FDD.pdb
     RDKit          3D

 28 28  0  0  1  0  0  0  0  0999 V2000
   28.2912  -34.6018   -7.8547 N   0  0  0  0  0  0  0  0  0  0  0  0
   29.2836  -34.1824   -6.8820 C   0  0  1  0  0  0  0  0  0  0  0  0
   29.1223  -32.6771   -6.7565 C   0  0  0  0  0  0  0  0  0  0  0  0
   27.6784  -32.3339   -6.8807 C   0  0  0  0  0  0  0  0  0  0  0  0
   27.1574  -31.9271   -8.1110 C   0  0  0  0  0  0  0  0  0  0  0  0
   25.8231  -31.6195   -8.2070 C   0  0  0  0  0  0  0  0  0  0  0  0
   24.9725  -31.7062   -7.1040 C   0  0  0  0  0  0  0  0  0  0  0  0
   25.4673  -32.1054   -5.8826 C   0  0  0  0  0  0  0  0  0  0  0  0
   26.8290  -32.4129   -5.8068 C   0  0  0  0  0  0  0  0  0  0  0  0
   28.9185  -34.7768   -5.5418 C   0  0  0  0  0  0  0  0  0  0  0  0
   27.7616  -35.1637   -5.2550 O   0  0  0  0  0  0  0  0  0  0  0  0
   29.9371  -34.9157   -4.5294 N   0  0  0  0  0  0  0  0  0  0  0  0
   29.6248  -35.5250   -3.2663 C   0  0  1  0  0  0  0  0  0  0  0  0
   30.9378  -35.6745   -2.4834 C   0  0  0  0  0  0  0  0  0  0  0  0
   31.9265  -36.3064   -3.3811 C   0  0  0  0  0  0  0  0  0  0  0  0
   33.1729  -36.2876   -3.2278 O   0  0  0  0  0  0  0  0  0  0  0  0
   28.6964  -34.7430   -2.4505 C   0  0  0  0  0  0  0  0  0  0  0  0
   28.1197  -33.6907   -2.8313 O   0  0  0  0  0  0  0  0  0  0  0  0
   31.4808  -37.0010   -4.5232 O   0  0  0  0  0  0  0  0  0  0  0  0
   28.4039  -35.1717   -1.1280 N   0  0  0  0  0  0  0  0  0  0  0  0
   27.4194  -34.5307   -0.2801 C   0  0  1  0  0  0  0  0  0  0  0  0
   26.0737  -34.8363   -0.9547 C   0  0  0  0  0  0  0  0  0  0  0  0
   24.9426  -34.2716   -0.1959 C   0  0  0  0  0  0  0  0  0  0  0  0
   25.1460  -33.2722    0.5633 O   0  0  0  0  0  0  0  0  0  0  0  0
   27.3850  -35.2187    1.0135 C   0  0  0  0  0  0  0  0  0  0  0  0
   27.8564  -36.3687    1.1200 O   0  0  0  0  0  0  0  0  0  0  0  0
   23.6652  -34.7744   -0.2725 O   0  0  0  0  0  0  0  0  0  0  0  0
   26.8381  -34.6433    2.1687 O   0  0  0  0  0  0  0  0  0  0  0  0
  2  1  1  6
  3  4  1  0
  3  2  1  0
  4  9  2  0
  5  6  2  0
  5  4  1  0
  6  7  1  0
  7  8  2  0
  9  8  1  0
 10  2  1  0
 10 12  1  0
 11 10  2  0
 13 12  1  0
 13 14  1  1
 14 15  1  0
 15 16  2  0
 17 13  1  0
 18 17  2  0
 19 15  1  0
 20 17  1  0
 21 20  1  0
 21 25  1  0
 21 22  1  6
 23 24  2  0
 23 22  1  0
 25 28  1  0
 26 25  2  0
 27 23  1  0
M  END
$$$$
