FDD.pdb
     RDKit          3D

 28 28  0  0  1  0  0  0  0  0999 V2000
   16.9217  -14.0510    5.2941 N   0  0  0  0  0  0  0  0  0  0  0  0
   16.8145  -15.4972    5.2319 C   0  0  1  0  0  0  0  0  0  0  0  0
   18.1400  -15.9815    4.6695 C   0  0  0  0  0  0  0  0  0  0  0  0
   18.1766  -15.6993    3.2076 C   0  0  0  0  0  0  0  0  0  0  0  0
   17.6045  -16.5986    2.3051 C   0  0  0  0  0  0  0  0  0  0  0  0
   17.6438  -16.3189    0.9619 C   0  0  0  0  0  0  0  0  0  0  0  0
   18.2400  -15.1547    0.4754 C   0  0  0  0  0  0  0  0  0  0  0  0
   18.8094  -14.2557    1.3494 C   0  0  0  0  0  0  0  0  0  0  0  0
   18.7591  -14.5605    2.7129 C   0  0  0  0  0  0  0  0  0  0  0  0
   16.7151  -16.0290    6.6426 C   0  0  0  0  0  0  0  0  0  0  0  0
   17.3619  -15.5507    7.6035 O   0  0  0  0  0  0  0  0  0  0  0  0
   15.8373  -17.1404    6.9185 N   0  0  0  0  0  0  0  0  0  0  0  0
   16.1522  -18.0689    7.9687 C   0  0  1  0  0  0  0  0  0  0  0  0
   15.1821  -17.8058    9.1301 C   0  0  0  0  0  0  0  0  0  0  0  0
   15.9219  -17.0690   10.1753 C   0  0  0  0  0  0  0  0  0  0  0  0
   16.2230  -17.5127   11.3110 O   0  0  0  0  0  0  0  0  0  0  0  0
   16.0177  -19.4705    7.5734 C   0  0  0  0  0  0  0  0  0  0  0  0
   15.0227  -19.9527    6.9714 O   0  0  0  0  0  0  0  0  0  0  0  0
   16.3464  -15.7492    9.9236 O   0  0  0  0  0  0  0  0  0  0  0  0
   17.0651  -20.3811    7.8773 N   0  0  0  0  0  0  0  0  0  0  0  0
   17.0467  -21.7772    7.4905 C   0  0  1  0  0  0  0  0  0  0  0  0
   18.4687  -22.0532    6.9795 C   0  0  0  0  0  0  0  0  0  0  0  0
   18.5936  -23.4126    6.4220 C   0  0  0  0  0  0  0  0  0  0  0  0
   17.5714  -24.1684    6.4031 O   0  0  0  0  0  0  0  0  0  0  0  0
   16.8849  -22.6017    8.6912 C   0  0  0  0  0  0  0  0  0  0  0  0
   16.7696  -23.8394    8.5859 O   0  0  0  0  0  0  0  0  0  0  0  0
   19.7712  -23.9068    5.9126 O   0  0  0  0  0  0  0  0  0  0  0  0
   16.8513  -22.0653    9.9857 O   0  0  0  0  0  0  0  0  0  0  0  0
  2  1  1  1
  3  4  1  0
  3  2  1  0
  4  9  2  0
  5  6  2  0
  5  4  1  0
  6  7  1  0
  7  8  2  0
  9  8  1  0
 10  2  1  0
 10 12  1  0
 11 10  2  0
 13 12  1  0
 13 14  1  1
 14 15  1  0
 15 16  2  0
 17 13  1  0
 18 17  2  0
 19 15  1  0
 20 17  1  0
 21 20  1  0
 21 25  1  0
 21 22  1  1
 23 24  2  0
 23 22  1  0
 25 28  1  0
 26 25  2  0
 27 23  1  0
M  END
$$$$
