FDD.pdb
     RDKit          3D

 28 28  0  0  1  0  0  0  0  0999 V2000
   23.4420  -12.6749  -17.2321 N   0  0  0  0  0  0  0  0  0  0  0  0
   22.9864  -12.1771  -15.9470 C   0  0  1  0  0  0  0  0  0  0  0  0
   23.6139  -13.0915  -14.9087 C   0  0  0  0  0  0  0  0  0  0  0  0
   23.0584  -14.4634  -15.0742 C   0  0  0  0  0  0  0  0  0  0  0  0
   23.8485  -15.4793  -15.6169 C   0  0  0  0  0  0  0  0  0  0  0  0
   23.3206  -16.7386  -15.7571 C   0  0  0  0  0  0  0  0  0  0  0  0
   22.0125  -17.0297  -15.3675 C   0  0  0  0  0  0  0  0  0  0  0  0
   21.2179  -16.0417  -14.8304 C   0  0  0  0  0  0  0  0  0  0  0  0
   21.7750  -14.7662  -14.6973 C   0  0  0  0  0  0  0  0  0  0  0  0
   23.5735  -10.8015  -15.7332 C   0  0  0  0  0  0  0  0  0  0  0  0
   23.5576  -10.2129  -14.6269 O   0  0  0  0  0  0  0  0  0  0  0  0
   24.1884  -10.1154  -16.8436 N   0  0  0  0  0  0  0  0  0  0  0  0
   24.6477   -8.7622  -16.6945 C   0  0  1  0  0  0  0  0  0  0  0  0
   25.6287   -8.4739  -17.8406 C   0  0  0  0  0  0  0  0  0  0  0  0
   26.7971   -9.3610  -17.6658 C   0  0  0  0  0  0  0  0  0  0  0  0
   27.1656  -10.2545  -18.4677 O   0  0  0  0  0  0  0  0  0  0  0  0
   23.5764   -7.7685  -16.7530 C   0  0  0  0  0  0  0  0  0  0  0  0
   22.9701   -7.4297  -17.8031 O   0  0  0  0  0  0  0  0  0  0  0  0
   27.5981   -9.2326  -16.5136 O   0  0  0  0  0  0  0  0  0  0  0  0
   23.1674   -7.1174  -15.5583 N   0  0  0  0  0  0  0  0  0  0  0  0
   22.1373   -6.0994  -15.5161 C   0  0  1  0  0  0  0  0  0  0  0  0
   20.9013   -6.8259  -14.9649 C   0  0  0  0  0  0  0  0  0  0  0  0
   19.7341   -5.9289  -14.8803 C   0  0  0  0  0  0  0  0  0  0  0  0
   19.0352   -5.9236  -13.8181 O   0  0  0  0  0  0  0  0  0  0  0  0
   22.4976   -5.0992  -14.5074 C   0  0  0  0  0  0  0  0  0  0  0  0
   21.8217   -4.0568  -14.3948 O   0  0  0  0  0  0  0  0  0  0  0  0
   19.3626   -5.0865  -15.9014 O   0  0  0  0  0  0  0  0  0  0  0  0
   23.5872   -5.2504  -13.6387 O   0  0  0  0  0  0  0  0  0  0  0  0
  2  1  1  6
  3  4  1  0
  3  2  1  0
  4  9  2  0
  5  6  2  0
  5  4  1  0
  6  7  1  0
  7  8  2  0
  9  8  1  0
 10  2  1  0
 10 12  1  0
 11 10  2  0
 13 12  1  0
 13 14  1  6
 14 15  1  0
 15 16  2  0
 17 13  1  0
 18 17  2  0
 19 15  1  0
 20 17  1  0
 21 20  1  0
 21 25  1  0
 21 22  1  1
 23 24  2  0
 23 22  1  0
 25 28  1  0
 26 25  2  0
 27 23  1  0
M  END
$$$$
