FDD.pdb
     RDKit          3D

 28 28  0  0  1  0  0  0  0  0999 V2000
   23.6804  -10.7311  -17.0611 N   0  0  0  0  0  0  0  0  0  0  0  0
   23.9615   -9.8113  -15.9739 C   0  0  1  0  0  0  0  0  0  0  0  0
   25.3131   -9.1976  -16.2969 C   0  0  0  0  0  0  0  0  0  0  0  0
   26.3432  -10.2733  -16.3032 C   0  0  0  0  0  0  0  0  0  0  0  0
   26.9814  -10.6263  -17.4943 C   0  0  0  0  0  0  0  0  0  0  0  0
   27.9316  -11.6168  -17.4793 C   0  0  0  0  0  0  0  0  0  0  0  0
   28.2780  -12.2787  -16.3006 C   0  0  0  0  0  0  0  0  0  0  0  0
   27.6602  -11.9448  -15.1162 C   0  0  0  0  0  0  0  0  0  0  0  0
   26.6949  -10.9342  -15.1540 C   0  0  0  0  0  0  0  0  0  0  0  0
   22.9478   -8.6921  -16.0221 C   0  0  0  0  0  0  0  0  0  0  0  0
   22.4432   -8.2687  -17.0882 O   0  0  0  0  0  0  0  0  0  0  0  0
   22.5257   -8.0677  -14.7917 N   0  0  0  0  0  0  0  0  0  0  0  0
   21.4902   -7.0718  -14.8029 C   0  0  1  0  0  0  0  0  0  0  0  0
   20.6328   -7.2765  -13.5450 C   0  0  0  0  0  0  0  0  0  0  0  0
   19.4814   -6.3549  -13.6313 C   0  0  0  0  0  0  0  0  0  0  0  0
   19.3304   -5.3054  -12.9581 O   0  0  0  0  0  0  0  0  0  0  0  0
   21.9951   -5.6993  -14.7897 C   0  0  0  0  0  0  0  0  0  0  0  0
   23.1132   -5.3517  -14.3269 O   0  0  0  0  0  0  0  0  0  0  0  0
   18.4348   -6.6363  -14.5318 O   0  0  0  0  0  0  0  0  0  0  0  0
   21.1910   -4.6586  -15.3271 N   0  0  0  0  0  0  0  0  0  0  0  0
   21.6638   -3.3027  -15.5200 C   0  0  1  0  0  0  0  0  0  0  0  0
   22.4920   -3.3647  -16.8121 C   0  0  0  0  0  0  0  0  0  0  0  0
   23.0413   -2.0444  -17.1716 C   0  0  0  0  0  0  0  0  0  0  0  0
   23.4435   -1.8462  -18.3614 O   0  0  0  0  0  0  0  0  0  0  0  0
   20.5192   -2.4374  -15.8182 C   0  0  0  0  0  0  0  0  0  0  0  0
   19.5277   -2.9004  -16.4172 O   0  0  0  0  0  0  0  0  0  0  0  0
   23.1373   -1.0053  -16.2764 O   0  0  0  0  0  0  0  0  0  0  0  0
   20.4733   -1.0832  -15.4596 O   0  0  0  0  0  0  0  0  0  0  0  0
  2  1  1  6
  3  4  1  0
  3  2  1  0
  4  9  2  0
  5  6  2  0
  5  4  1  0
  6  7  1  0
  7  8  2  0
  9  8  1  0
 10  2  1  0
 10 12  1  0
 11 10  2  0
 13 12  1  0
 13 14  1  1
 14 15  1  0
 15 16  2  0
 17 13  1  0
 18 17  2  0
 19 15  1  0
 20 17  1  0
 21 20  1  0
 21 25  1  0
 21 22  1  6
 23 24  2  0
 23 22  1  0
 25 28  1  0
 26 25  2  0
 27 23  1  0
M  END
$$$$
