FDD.pdb
     RDKit          3D

 28 28  0  0  1  0  0  0  0  0999 V2000
   20.0162  -10.9807  -14.7415 N   0  0  0  0  0  0  0  0  0  0  0  0
   19.8992   -9.8588  -15.6551 C   0  0  1  0  0  0  0  0  0  0  0  0
   18.4964   -9.9458  -16.2317 C   0  0  0  0  0  0  0  0  0  0  0  0
   18.4406  -11.0773  -17.1985 C   0  0  0  0  0  0  0  0  0  0  0  0
   17.6299  -12.1841  -16.9369 C   0  0  0  0  0  0  0  0  0  0  0  0
   17.5879  -13.2150  -17.8422 C   0  0  0  0  0  0  0  0  0  0  0  0
   18.3346  -13.1829  -19.0208 C   0  0  0  0  0  0  0  0  0  0  0  0
   19.1397  -12.1004  -19.2966 C   0  0  0  0  0  0  0  0  0  0  0  0
   19.1684  -11.0621  -18.3608 C   0  0  0  0  0  0  0  0  0  0  0  0
   19.9656   -8.5809  -14.8518 C   0  0  0  0  0  0  0  0  0  0  0  0
   19.4691   -8.4633  -13.7072 O   0  0  0  0  0  0  0  0  0  0  0  0
   20.6299   -7.4286  -15.4110 N   0  0  0  0  0  0  0  0  0  0  0  0
   20.7099   -6.2046  -14.6629 C   0  0  1  0  0  0  0  0  0  0  0  0
   22.1963   -5.8520  -14.5033 C   0  0  0  0  0  0  0  0  0  0  0  0
   22.2841   -4.6558  -13.6406 C   0  0  0  0  0  0  0  0  0  0  0  0
   22.0831   -4.6296  -12.4012 O   0  0  0  0  0  0  0  0  0  0  0  0
   20.0425   -5.0758  -15.3103 C   0  0  0  0  0  0  0  0  0  0  0  0
   20.2532   -4.7019  -16.4939 O   0  0  0  0  0  0  0  0  0  0  0  0
   22.6178   -3.4121  -14.2128 O   0  0  0  0  0  0  0  0  0  0  0  0
   19.0840   -4.3238  -14.5793 N   0  0  0  0  0  0  0  0  0  0  0  0
   18.3529   -3.2044  -15.1374 C   0  0  1  0  0  0  0  0  0  0  0  0
   16.9318   -3.3542  -14.5742 C   0  0  0  0  0  0  0  0  0  0  0  0
   15.9533   -3.6542  -15.6356 C   0  0  0  0  0  0  0  0  0  0  0  0
   16.3389   -4.2836  -16.6709 O   0  0  0  0  0  0  0  0  0  0  0  0
   18.8804   -1.9606  -14.5695 C   0  0  0  0  0  0  0  0  0  0  0  0
   19.5043   -1.9845  -13.4896 O   0  0  0  0  0  0  0  0  0  0  0  0
   14.6304   -3.2873  -15.5589 O   0  0  0  0  0  0  0  0  0  0  0  0
   18.7198   -0.7124  -15.1865 O   0  0  0  0  0  0  0  0  0  0  0  0
  2  1  1  1
  3  4  1  0
  3  2  1  0
  4  9  2  0
  5  6  2  0
  5  4  1  0
  6  7  1  0
  7  8  2  0
  9  8  1  0
 10  2  1  0
 10 12  1  0
 11 10  2  0
 13 12  1  0
 13 14  1  6
 14 15  1  0
 15 16  2  0
 17 13  1  0
 18 17  2  0
 19 15  1  0
 20 17  1  0
 21 20  1  0
 21 25  1  0
 21 22  1  1
 23 24  2  0
 23 22  1  0
 25 28  1  0
 26 25  2  0
 27 23  1  0
M  END
$$$$
