FDD.pdb
     RDKit          3D

 28 28  0  0  1  0  0  0  0  0999 V2000
   35.1424  -37.8758   -6.3769 N   0  0  0  0  0  0  0  0  0  0  0  0
   34.4623  -36.7174   -5.8268 C   0  0  1  0  0  0  0  0  0  0  0  0
   33.1963  -36.5572   -6.6509 C   0  0  0  0  0  0  0  0  0  0  0  0
   32.4405  -35.3753   -6.1508 C   0  0  0  0  0  0  0  0  0  0  0  0
   31.2986  -35.5534   -5.3667 C   0  0  0  0  0  0  0  0  0  0  0  0
   30.6180  -34.4519   -4.9110 C   0  0  0  0  0  0  0  0  0  0  0  0
   31.0417  -33.1563   -5.2102 C   0  0  0  0  0  0  0  0  0  0  0  0
   32.1652  -32.9601   -5.9817 C   0  0  0  0  0  0  0  0  0  0  0  0
   32.8427  -34.0955   -6.4362 C   0  0  0  0  0  0  0  0  0  0  0  0
   34.0302  -37.0436   -4.4162 C   0  0  0  0  0  0  0  0  0  0  0  0
   33.3619  -38.0619   -4.1214 O   0  0  0  0  0  0  0  0  0  0  0  0
   34.3957  -36.1530   -3.3415 N   0  0  0  0  0  0  0  0  0  0  0  0
   33.9384  -36.4065   -2.0033 C   0  0  1  0  0  0  0  0  0  0  0  0
   34.9861  -35.8350   -1.0364 C   0  0  0  0  0  0  0  0  0  0  0  0
   34.6529  -36.3136    0.3210 C   0  0  0  0  0  0  0  0  0  0  0  0
   34.5945  -35.6030    1.3550 O   0  0  0  0  0  0  0  0  0  0  0  0
   32.6503  -35.7862   -1.6954 C   0  0  0  0  0  0  0  0  0  0  0  0
   32.3771  -34.5715   -1.8826 O   0  0  0  0  0  0  0  0  0  0  0  0
   34.3700  -37.6789    0.5242 O   0  0  0  0  0  0  0  0  0  0  0  0
   31.6114  -36.5816   -1.1417 N   0  0  0  0  0  0  0  0  0  0  0  0
   30.2887  -36.0719   -0.8421 C   0  0  1  0  0  0  0  0  0  0  0  0
   29.3471  -37.2488   -1.1381 C   0  0  0  0  0  0  0  0  0  0  0  0
   28.3356  -36.8963   -2.1515 C   0  0  0  0  0  0  0  0  0  0  0  0
   27.6518  -37.8234   -2.6897 O   0  0  0  0  0  0  0  0  0  0  0  0
   30.1872  -35.8299    0.5997 C   0  0  0  0  0  0  0  0  0  0  0  0
   31.1360  -36.1334    1.3506 O   0  0  0  0  0  0  0  0  0  0  0  0
   28.0895  -35.6018   -2.5440 O   0  0  0  0  0  0  0  0  0  0  0  0
   29.0550  -35.2616    1.1996 O   0  0  0  0  0  0  0  0  0  0  0  0
  2  1  1  6
  3  4  1  0
  3  2  1  0
  4  9  2  0
  5  6  2  0
  5  4  1  0
  6  7  1  0
  7  8  2  0
  9  8  1  0
 10  2  1  0
 10 12  1  0
 11 10  2  0
 13 12  1  0
 13 14  1  1
 14 15  1  0
 15 16  2  0
 17 13  1  0
 18 17  2  0
 19 15  1  0
 20 17  1  0
 21 20  1  0
 21 25  1  0
 21 22  1  1
 23 24  2  0
 23 22  1  0
 25 28  1  0
 26 25  2  0
 27 23  1  0
M  END
$$$$
