WDS.pdb
     RDKit          3D

 29 30  0  0  1  0  0  0  0  0999 V2000
    6.7312  -17.6709   23.7165 N   0  0  0  0  0  0  0  0  0  0  0  0
    7.7537  -16.6779   23.3050 C   0  0  1  0  0  0  0  0  0  0  0  0
    8.2114  -16.0385   24.5714 C   0  0  0  0  0  0  0  0  0  0  0  0
    7.2606  -15.1495   25.2495 C   0  0  0  0  0  0  0  0  0  0  0  0
    6.0964  -15.5165   25.9252 C   0  0  0  0  0  0  0  0  0  0  0  0
    5.5285  -14.4036   26.3523 N   0  0  0  0  0  0  0  0  0  0  0  0
    6.2193  -13.3143   26.0176 C   0  0  0  0  0  0  0  0  0  0  0  0
    6.0448  -11.9620   26.2419 C   0  0  0  0  0  0  0  0  0  0  0  0
    6.9666  -11.0616   25.7717 C   0  0  0  0  0  0  0  0  0  0  0  0
    8.0743  -11.4815   25.0730 C   0  0  0  0  0  0  0  0  0  0  0  0
    8.2360  -12.8185   24.8570 C   0  0  0  0  0  0  0  0  0  0  0  0
    7.3334  -13.7808   25.3094 C   0  0  0  0  0  0  0  0  0  0  0  0
    8.8677  -17.2983   22.5802 C   0  0  0  0  0  0  0  0  0  0  0  0
    9.3500  -18.3534   23.0742 O   0  0  0  0  0  0  0  0  0  0  0  0
    9.4495  -16.8194   21.3783 N   0  0  0  0  0  0  0  0  0  0  0  0
   10.7693  -17.1501   20.9262 C   0  0  1  0  0  0  0  0  0  0  0  0
   11.0164  -16.6976   19.5226 C   0  0  0  0  0  0  0  0  0  0  0  0
   10.1934  -17.4015   18.5174 C   0  0  0  0  0  0  0  0  0  0  0  0
    9.8452  -16.9681   17.4123 O   0  0  0  0  0  0  0  0  0  0  0  0
   11.8230  -16.5866   21.8437 C   0  0  0  0  0  0  0  0  0  0  0  0
   12.5746  -15.6593   21.5083 O   0  0  0  0  0  0  0  0  0  0  0  0
    9.7739  -18.6934   18.8715 O   0  0  0  0  0  0  0  0  0  0  0  0
   12.0209  -18.1038   25.6719 O   0  0  0  0  0  0  0  0  0  0  0  0
   12.6088  -16.8345   25.5087 C   0  0  0  0  0  0  0  0  0  0  0  0
   12.9991  -16.7119   24.0633 C   0  0  2  0  0  0  0  0  0  0  0  0
   11.9837  -17.1204   23.1510 N   0  0  0  0  0  0  0  0  0  0  0  0
   14.2534  -17.4096   23.7548 C   0  0  0  0  0  0  0  0  0  0  0  0
   15.3208  -17.0315   24.2910 O   0  0  0  0  0  0  0  0  0  0  0  0
   14.3131  -18.4866   22.8820 O   0  0  0  0  0  0  0  0  0  0  0  0
  2  1  1  1
  3  4  1  0
  3  2  1  0
  4  5  2  0
  5  6  1  0
  7  6  1  0
  8  7  2  0
  9  8  1  0
 10 11  1  0
 10  9  2  0
 11 12  2  0
 12  4  1  0
 12  7  1  0
 13  2  1  0
 13 14  2  0
 15 13  1  0
 16 15  1  0
 16 17  1  6
 18 17  1  0
 18 22  1  0
 19 18  2  0
 20 16  1  0
 21 20  2  0
 24 23  1  0
 25 24  1  1
 25 27  1  0
 25 26  1  0
 26 20  1  0
 27 29  1  0
 28 27  2  0
M  END
$$$$
