WDS.pdb
     RDKit          3D

 29 30  0  0  1  0  0  0  0  0999 V2000
    6.6182  -17.1144   23.4748 N   0  0  0  0  0  0  0  0  0  0  0  0
    7.8547  -16.2950   23.4532 C   0  0  1  0  0  0  0  0  0  0  0  0
    8.1346  -15.9696   24.8807 C   0  0  0  0  0  0  0  0  0  0  0  0
    7.2201  -15.0302   25.5407 C   0  0  0  0  0  0  0  0  0  0  0  0
    5.9523  -15.3061   26.0538 C   0  0  0  0  0  0  0  0  0  0  0  0
    5.4699  -14.1716   26.5266 N   0  0  0  0  0  0  0  0  0  0  0  0
    6.3138  -13.1518   26.3729 C   0  0  0  0  0  0  0  0  0  0  0  0
    6.2701  -11.8122   26.7089 C   0  0  0  0  0  0  0  0  0  0  0  0
    7.3359  -10.9963   26.4263 C   0  0  0  0  0  0  0  0  0  0  0  0
    8.4610  -11.4896   25.8080 C   0  0  0  0  0  0  0  0  0  0  0  0
    8.4930  -12.8132   25.4803 C   0  0  0  0  0  0  0  0  0  0  0  0
    7.4411  -13.6910   25.7412 C   0  0  0  0  0  0  0  0  0  0  0  0
    8.9779  -17.0041   22.8310 C   0  0  0  0  0  0  0  0  0  0  0  0
    9.0628  -18.2420   23.0549 O   0  0  0  0  0  0  0  0  0  0  0  0
    9.9738  -16.4242   22.0037 N   0  0  0  0  0  0  0  0  0  0  0  0
   11.3373  -16.8633   21.9437 C   0  0  1  0  0  0  0  0  0  0  0  0
   12.1216  -16.1327   20.9013 C   0  0  0  0  0  0  0  0  0  0  0  0
   11.6971  -16.4334   19.5183 C   0  0  0  0  0  0  0  0  0  0  0  0
   11.4960  -15.6154   18.6123 O   0  0  0  0  0  0  0  0  0  0  0  0
   12.0156  -16.7379   23.2831 C   0  0  0  0  0  0  0  0  0  0  0  0
   12.9616  -15.9616   23.4829 O   0  0  0  0  0  0  0  0  0  0  0  0
   11.5082  -17.7924   19.2219 O   0  0  0  0  0  0  0  0  0  0  0  0
   10.1595  -18.0473   26.7190 O   0  0  0  0  0  0  0  0  0  0  0  0
   11.2508  -17.1597   26.7847 C   0  0  0  0  0  0  0  0  0  0  0  0
   12.1843  -17.5250   25.6658 C   0  0  2  0  0  0  0  0  0  0  0  0
   11.5741  -17.5287   24.3782 N   0  0  0  0  0  0  0  0  0  0  0  0
   12.8684  -18.8037   25.8944 C   0  0  0  0  0  0  0  0  0  0  0  0
   13.5690  -18.9566   26.9219 O   0  0  0  0  0  0  0  0  0  0  0  0
   12.7739  -19.8691   25.0106 O   0  0  0  0  0  0  0  0  0  0  0  0
  2  1  1  1
  3  4  1  0
  3  2  1  0
  4  5  2  0
  5  6  1  0
  7  6  1  0
  8  7  2  0
  9  8  1  0
 10 11  1  0
 10  9  2  0
 11 12  2  0
 12  4  1  0
 12  7  1  0
 13  2  1  0
 13 14  2  0
 15 13  1  0
 16 15  1  0
 16 17  1  6
 18 17  1  0
 18 22  1  0
 19 18  2  0
 20 16  1  0
 21 20  2  0
 24 23  1  0
 25 24  1  1
 25 27  1  0
 25 26  1  0
 26 20  1  0
 27 29  1  0
 28 27  2  0
M  END
$$$$
