WDS.pdb
     RDKit          3D

 29 30  0  0  1  0  0  0  0  0999 V2000
    6.8342  -17.4542   23.5896 N   0  0  0  0  0  0  0  0  0  0  0  0
    7.8935  -16.4617   23.2832 C   0  0  1  0  0  0  0  0  0  0  0  0
    8.3156  -15.9178   24.6053 C   0  0  0  0  0  0  0  0  0  0  0  0
    7.3611  -15.0474   25.3022 C   0  0  0  0  0  0  0  0  0  0  0  0
    6.1748  -15.4279   25.9304 C   0  0  0  0  0  0  0  0  0  0  0  0
    5.6128  -14.3280   26.3970 N   0  0  0  0  0  0  0  0  0  0  0  0
    6.3279  -13.2350   26.1328 C   0  0  0  0  0  0  0  0  0  0  0  0
    6.1679  -11.8924   26.4182 C   0  0  0  0  0  0  0  0  0  0  0  0
    7.1145  -10.9852   26.0152 C   0  0  0  0  0  0  0  0  0  0  0  0
    8.2333  -11.3887   25.3245 C   0  0  0  0  0  0  0  0  0  0  0  0
    8.3806  -12.7161   25.0478 C   0  0  0  0  0  0  0  0  0  0  0  0
    7.4527  -13.6845   25.4305 C   0  0  0  0  0  0  0  0  0  0  0  0
    9.0209  -17.0604   22.5609 C   0  0  0  0  0  0  0  0  0  0  0  0
    9.4012  -18.1998   22.9446 O   0  0  0  0  0  0  0  0  0  0  0  0
    9.7198  -16.4748   21.4742 N   0  0  0  0  0  0  0  0  0  0  0  0
   10.9684  -16.9542   20.9579 C   0  0  1  0  0  0  0  0  0  0  0  0
   11.2008  -16.5204   19.5460 C   0  0  0  0  0  0  0  0  0  0  0  0
   10.1998  -17.0409   18.5917 C   0  0  0  0  0  0  0  0  0  0  0  0
    9.9562  -18.2296   18.3508 O   0  0  0  0  0  0  0  0  0  0  0  0
   12.1235  -16.5277   21.8261 C   0  0  0  0  0  0  0  0  0  0  0  0
   12.4662  -15.3423   21.9475 O   0  0  0  0  0  0  0  0  0  0  0  0
    9.4596  -16.0711   17.8974 O   0  0  0  0  0  0  0  0  0  0  0  0
   13.7865  -19.4322   24.1263 O   0  0  0  0  0  0  0  0  0  0  0  0
   14.0228  -18.1340   24.6183 C   0  0  0  0  0  0  0  0  0  0  0  0
   13.9245  -17.1949   23.4500 C   0  0  2  0  0  0  0  0  0  0  0  0
   12.8671  -17.5020   22.5455 N   0  0  0  0  0  0  0  0  0  0  0  0
   15.1884  -17.0742   22.7131 C   0  0  0  0  0  0  0  0  0  0  0  0
   15.2308  -17.3861   21.5003 O   0  0  0  0  0  0  0  0  0  0  0  0
   16.3585  -16.6233   23.3071 O   0  0  0  0  0  0  0  0  0  0  0  0
  2  1  1  1
  3  4  1  0
  3  2  1  0
  4  5  2  0
  5  6  1  0
  7  6  1  0
  8  7  2  0
  9  8  1  0
 10 11  1  0
 10  9  2  0
 11 12  2  0
 12  4  1  0
 12  7  1  0
 13  2  1  0
 13 14  2  0
 15 13  1  0
 16 15  1  0
 16 17  1  6
 18 17  1  0
 18 22  1  0
 19 18  2  0
 20 16  1  0
 21 20  2  0
 24 23  1  0
 25 24  1  1
 25 27  1  0
 25 26  1  0
 26 20  1  0
 27 29  1  0
 28 27  2  0
M  END
$$$$
