WDS.pdb
     RDKit          3D

 29 30  0  0  1  0  0  0  0  0999 V2000
    7.0309  -16.9875   23.3644 N   0  0  0  0  0  0  0  0  0  0  0  0
    8.2964  -16.2886   23.6974 C   0  0  1  0  0  0  0  0  0  0  0  0
    8.2081  -15.9909   25.1553 C   0  0  0  0  0  0  0  0  0  0  0  0
    7.1926  -15.0179   25.5755 C   0  0  0  0  0  0  0  0  0  0  0  0
    5.8873  -15.2857   25.9893 C   0  0  0  0  0  0  0  0  0  0  0  0
    5.3142  -14.1232   26.2417 N   0  0  0  0  0  0  0  0  0  0  0  0
    6.1316  -13.0921   26.0309 C   0  0  0  0  0  0  0  0  0  0  0  0
    6.0017  -11.7228   26.1645 C   0  0  0  0  0  0  0  0  0  0  0  0
    7.0610  -10.8996   25.8791 C   0  0  0  0  0  0  0  0  0  0  0  0
    8.2647  -11.4146   25.4575 C   0  0  0  0  0  0  0  0  0  0  0  0
    8.3814  -12.7674   25.3286 C   0  0  0  0  0  0  0  0  0  0  0  0
    7.3405  -13.6542   25.6030 C   0  0  0  0  0  0  0  0  0  0  0  0
    9.4766  -17.1007   23.3828 C   0  0  0  0  0  0  0  0  0  0  0  0
    9.4152  -18.3273   23.6680 O   0  0  0  0  0  0  0  0  0  0  0  0
   10.6769  -16.6316   22.7895 N   0  0  0  0  0  0  0  0  0  0  0  0
   11.9451  -17.2926   22.8892 C   0  0  1  0  0  0  0  0  0  0  0  0
   12.9978  -16.6244   22.0640 C   0  0  0  0  0  0  0  0  0  0  0  0
   12.7144  -16.6383   20.6139 C   0  0  0  0  0  0  0  0  0  0  0  0
   12.3345  -17.6065   19.9441 O   0  0  0  0  0  0  0  0  0  0  0  0
   12.4005  -17.3972   24.3215 C   0  0  0  0  0  0  0  0  0  0  0  0
   12.6878  -16.4038   25.0056 O   0  0  0  0  0  0  0  0  0  0  0  0
   12.9012  -15.4179   19.9459 O   0  0  0  0  0  0  0  0  0  0  0  0
   11.0391  -20.2670   26.5658 O   0  0  0  0  0  0  0  0  0  0  0  0
   11.7674  -19.2459   27.2062 C   0  0  0  0  0  0  0  0  0  0  0  0
   12.9018  -18.8748   26.2941 C   0  0  2  0  0  0  0  0  0  0  0  0
   12.5142  -18.6727   24.9379 N   0  0  0  0  0  0  0  0  0  0  0  0
   14.0132  -19.8320   26.3551 C   0  0  0  0  0  0  0  0  0  0  0  0
   14.4422  -20.3515   25.2988 O   0  0  0  0  0  0  0  0  0  0  0  0
   14.6211  -20.1946   27.5485 O   0  0  0  0  0  0  0  0  0  0  0  0
  2  1  1  1
  3  4  1  0
  3  2  1  0
  4  5  2  0
  5  6  1  0
  7  6  1  0
  8  7  2  0
  9  8  1  0
 10 11  1  0
 10  9  2  0
 11 12  2  0
 12  4  1  0
 12  7  1  0
 13  2  1  0
 13 14  2  0
 15 13  1  0
 16 15  1  0
 16 17  1  6
 18 17  1  0
 18 22  1  0
 19 18  2  0
 20 16  1  0
 21 20  2  0
 24 23  1  0
 25 24  1  1
 25 27  1  0
 25 26  1  0
 26 20  1  0
 27 29  1  0
 28 27  2  0
M  END
$$$$
