WDS.pdb
     RDKit          3D

 29 30  0  0  1  0  0  0  0  0999 V2000
    6.8394  -18.0891   24.6832 N   0  0  0  0  0  0  0  0  0  0  0  0
    7.4842  -16.9376   24.0055 C   0  0  1  0  0  0  0  0  0  0  0  0
    7.9822  -16.0637   25.1057 C   0  0  0  0  0  0  0  0  0  0  0  0
    7.0009  -15.1859   25.7542 C   0  0  0  0  0  0  0  0  0  0  0  0
    5.8788  -15.5715   26.4884 C   0  0  0  0  0  0  0  0  0  0  0  0
    5.2598  -14.4661   26.8601 N   0  0  0  0  0  0  0  0  0  0  0  0
    5.8772  -13.3646   26.4342 C   0  0  0  0  0  0  0  0  0  0  0  0
    5.6314  -12.0122   26.5759 C   0  0  0  0  0  0  0  0  0  0  0  0
    6.4865  -11.0951   26.0198 C   0  0  0  0  0  0  0  0  0  0  0  0
    7.5969  -11.4982   25.3155 C   0  0  0  0  0  0  0  0  0  0  0  0
    7.8293  -12.8355   25.1814 C   0  0  0  0  0  0  0  0  0  0  0  0
    6.9964  -13.8143   25.7232 C   0  0  0  0  0  0  0  0  0  0  0  0
    8.5717  -17.3573   23.1152 C   0  0  0  0  0  0  0  0  0  0  0  0
    9.1551  -18.4381   23.4006 O   0  0  0  0  0  0  0  0  0  0  0  0
    9.0249  -16.6587   21.9667 N   0  0  0  0  0  0  0  0  0  0  0  0
   10.2206  -16.9756   21.2419 C   0  0  1  0  0  0  0  0  0  0  0  0
   10.3037  -16.2445   19.9403 C   0  0  0  0  0  0  0  0  0  0  0  0
   11.1146  -16.9392   18.9189 C   0  0  0  0  0  0  0  0  0  0  0  0
   10.8216  -17.1031   17.7282 O   0  0  0  0  0  0  0  0  0  0  0  0
   11.4523  -16.7049   22.0661 C   0  0  0  0  0  0  0  0  0  0  0  0
   11.8660  -15.5582   22.2927 O   0  0  0  0  0  0  0  0  0  0  0  0
   12.3397  -17.4592   19.3652 O   0  0  0  0  0  0  0  0  0  0  0  0
   12.8896  -19.6596   24.5167 O   0  0  0  0  0  0  0  0  0  0  0  0
   13.2546  -18.3223   24.7648 C   0  0  0  0  0  0  0  0  0  0  0  0
   13.3480  -17.6360   23.4318 C   0  0  2  0  0  0  0  0  0  0  0  0
   12.1883  -17.7882   22.6178 N   0  0  0  0  0  0  0  0  0  0  0  0
   14.5414  -18.0317   22.6740 C   0  0  0  0  0  0  0  0  0  0  0  0
   14.4113  -18.5797   21.5548 O   0  0  0  0  0  0  0  0  0  0  0  0
   15.8290  -17.8238   23.1475 O   0  0  0  0  0  0  0  0  0  0  0  0
  2  1  1  1
  3  4  1  0
  3  2  1  0
  4  5  2  0
  5  6  1  0
  7  6  1  0
  8  7  2  0
  9  8  1  0
 10 11  1  0
 10  9  2  0
 11 12  2  0
 12  4  1  0
 12  7  1  0
 13  2  1  0
 13 14  2  0
 15 13  1  0
 16 15  1  0
 16 17  1  6
 18 17  1  0
 18 22  1  0
 19 18  2  0
 20 16  1  0
 21 20  2  0
 24 23  1  0
 25 24  1  1
 25 27  1  0
 25 26  1  0
 26 20  1  0
 27 29  1  0
 28 27  2  0
M  END
$$$$
