WDS.pdb
     RDKit          3D

 29 30  0  0  1  0  0  0  0  0999 V2000
    6.8834  -17.6124   24.1215 N   0  0  0  0  0  0  0  0  0  0  0  0
    7.9549  -16.6671   23.7226 C   0  0  1  0  0  0  0  0  0  0  0  0
    8.3569  -15.9763   24.9809 C   0  0  0  0  0  0  0  0  0  0  0  0
    7.3453  -15.1340   25.6299 C   0  0  0  0  0  0  0  0  0  0  0  0
    6.1585  -15.5527   26.2323 C   0  0  0  0  0  0  0  0  0  0  0  0
    5.5356  -14.4688   26.6572 N   0  0  0  0  0  0  0  0  0  0  0  0
    6.2102  -13.3513   26.3889 C   0  0  0  0  0  0  0  0  0  0  0  0
    5.9836  -12.0113   26.6388 C   0  0  0  0  0  0  0  0  0  0  0  0
    6.9015  -11.0722   26.2425 C   0  0  0  0  0  0  0  0  0  0  0  0
    8.0569  -11.4408   25.5937 C   0  0  0  0  0  0  0  0  0  0  0  0
    8.2698  -12.7660   25.3517 C   0  0  0  0  0  0  0  0  0  0  0  0
    7.3738  -13.7659   25.7296 C   0  0  0  0  0  0  0  0  0  0  0  0
    9.0910  -17.3508   23.0955 C   0  0  0  0  0  0  0  0  0  0  0  0
    9.3382  -18.5223   23.4909 O   0  0  0  0  0  0  0  0  0  0  0  0
    9.9339  -16.8142   22.0885 N   0  0  0  0  0  0  0  0  0  0  0  0
   11.2200  -17.3423   21.7387 C   0  0  1  0  0  0  0  0  0  0  0  0
   11.7532  -16.7437   20.4765 C   0  0  0  0  0  0  0  0  0  0  0  0
   10.8995  -16.9885   19.2955 C   0  0  0  0  0  0  0  0  0  0  0  0
   10.3918  -18.0658   18.9608 O   0  0  0  0  0  0  0  0  0  0  0  0
   12.2131  -17.1593   22.8569 C   0  0  0  0  0  0  0  0  0  0  0  0
   12.8537  -16.1098   23.0167 O   0  0  0  0  0  0  0  0  0  0  0  0
   10.6507  -15.8714   18.4828 O   0  0  0  0  0  0  0  0  0  0  0  0
   11.8313  -19.4790   26.0951 O   0  0  0  0  0  0  0  0  0  0  0  0
   12.6419  -18.3347   26.2245 C   0  0  0  0  0  0  0  0  0  0  0  0
   13.3189  -18.1218   24.9005 C   0  0  2  0  0  0  0  0  0  0  0  0
   12.4443  -18.2153   23.7794 N   0  0  0  0  0  0  0  0  0  0  0  0
   14.4721  -19.0091   24.7055 C   0  0  0  0  0  0  0  0  0  0  0  0
   15.3772  -19.0480   25.5710 O   0  0  0  0  0  0  0  0  0  0  0  0
   14.6091  -19.8205   23.5883 O   0  0  0  0  0  0  0  0  0  0  0  0
  2  1  1  1
  3  4  1  0
  3  2  1  0
  4  5  2  0
  5  6  1  0
  7  6  1  0
  8  7  2  0
  9  8  1  0
 10 11  1  0
 10  9  2  0
 11 12  2  0
 12  4  1  0
 12  7  1  0
 13  2  1  0
 13 14  2  0
 15 13  1  0
 16 15  1  0
 16 17  1  6
 18 17  1  0
 18 22  1  0
 19 18  2  0
 20 16  1  0
 21 20  2  0
 24 23  1  0
 25 24  1  1
 25 27  1  0
 25 26  1  0
 26 20  1  0
 27 29  1  0
 28 27  2  0
M  END
$$$$
