WDS.pdb
     RDKit          3D

 29 30  0  0  1  0  0  0  0  0999 V2000
    6.8685  -17.9801   24.2153 N   0  0  0  0  0  0  0  0  0  0  0  0
    7.6874  -16.9785   23.4892 C   0  0  1  0  0  0  0  0  0  0  0  0
    8.2317  -16.0775   24.5447 C   0  0  0  0  0  0  0  0  0  0  0  0
    7.2703  -15.2204   25.2485 C   0  0  0  0  0  0  0  0  0  0  0  0
    6.0773  -15.6125   25.8566 C   0  0  0  0  0  0  0  0  0  0  0  0
    5.5109  -14.5217   26.3388 N   0  0  0  0  0  0  0  0  0  0  0  0
    6.2291  -13.4242   26.1038 C   0  0  0  0  0  0  0  0  0  0  0  0
    6.0666  -12.0874   26.4140 C   0  0  0  0  0  0  0  0  0  0  0  0
    7.0178  -11.1730   26.0389 C   0  0  0  0  0  0  0  0  0  0  0  0
    8.1437  -11.5634   25.3522 C   0  0  0  0  0  0  0  0  0  0  0  0
    8.2933  -12.8852   25.0508 C   0  0  0  0  0  0  0  0  0  0  0  0
    7.3611  -13.8604   25.4046 C   0  0  0  0  0  0  0  0  0  0  0  0
    8.7596  -17.6026   22.7067 C   0  0  0  0  0  0  0  0  0  0  0  0
    9.3330  -18.6002   23.2223 O   0  0  0  0  0  0  0  0  0  0  0  0
    9.2084  -17.1856   21.4271 N   0  0  0  0  0  0  0  0  0  0  0  0
   10.4022  -17.6596   20.7903 C   0  0  1  0  0  0  0  0  0  0  0  0
   10.5518  -17.1275   19.4010 C   0  0  0  0  0  0  0  0  0  0  0  0
   11.7067  -17.6894   18.6703 C   0  0  0  0  0  0  0  0  0  0  0  0
   12.3584  -17.1334   17.7778 O   0  0  0  0  0  0  0  0  0  0  0  0
   11.6274  -17.3322   21.6037 C   0  0  0  0  0  0  0  0  0  0  0  0
   12.0834  -16.1825   21.6917 O   0  0  0  0  0  0  0  0  0  0  0  0
   12.0881  -18.9882   19.0418 O   0  0  0  0  0  0  0  0  0  0  0  0
   13.3419  -20.3821   23.8149 O   0  0  0  0  0  0  0  0  0  0  0  0
   13.5782  -19.0757   24.2846 C   0  0  0  0  0  0  0  0  0  0  0  0
   13.4721  -18.1558   23.1017 C   0  0  2  0  0  0  0  0  0  0  0  0
   12.3070  -18.3626   22.3079 N   0  0  0  0  0  0  0  0  0  0  0  0
   14.6664  -18.1910   22.2487 C   0  0  0  0  0  0  0  0  0  0  0  0
   14.5589  -18.5239   21.0456 O   0  0  0  0  0  0  0  0  0  0  0  0
   15.9304  -17.8674   22.7207 O   0  0  0  0  0  0  0  0  0  0  0  0
  2  1  1  1
  3  4  1  0
  3  2  1  0
  4  5  2  0
  5  6  1  0
  7  6  1  0
  8  7  2  0
  9  8  1  0
 10 11  1  0
 10  9  2  0
 11 12  2  0
 12  4  1  0
 12  7  1  0
 13  2  1  0
 13 14  2  0
 15 13  1  0
 16 15  1  0
 16 17  1  6
 18 17  1  0
 18 22  1  0
 19 18  2  0
 20 16  1  0
 21 20  2  0
 24 23  1  0
 25 24  1  1
 25 27  1  0
 25 26  1  0
 26 20  1  0
 27 29  1  0
 28 27  2  0
M  END
$$$$
