VPK.pdb
     RDKit          3D

 24 24  0  0  1  0  0  0  0  0999 V2000
   27.5232  -16.6575  -17.4921 C   0  0  0  0  0  0  0  0  0  0  0  0
   27.0491  -17.6274  -16.4373 C   0  0  2  0  0  0  0  0  0  0  0  0
   26.9164  -16.8898  -15.1160 C   0  0  0  0  0  0  0  0  0  0  0  0
   27.9212  -18.8564  -16.3258 C   0  0  2  0  0  0  0  0  0  0  0  0
   28.0087  -19.4177  -17.6548 N   0  0  0  0  0  0  0  0  0  0  0  0
   27.4976  -19.8200  -15.3248 C   0  0  0  0  0  0  0  0  0  0  0  0
   26.5355  -20.5958  -15.6593 O   0  0  0  0  0  0  0  0  0  0  0  0
   28.0514  -19.9640  -14.0394 N   0  0  0  0  0  0  0  0  0  0  0  0
   29.2165  -19.2032  -13.6014 C   0  0  0  0  0  0  0  0  0  0  0  0
   29.9788  -20.2625  -12.8322 C   0  0  0  0  0  0  0  0  0  0  0  0
   28.8870  -20.9692  -12.0718 C   0  0  0  0  0  0  0  0  0  0  0  0
   27.6479  -20.8247  -12.9861 C   0  0  1  0  0  0  0  0  0  0  0  0
   26.5300  -20.3854  -12.1392 C   0  0  0  0  0  0  0  0  0  0  0  0
   26.3464  -19.1335  -11.9055 O   0  0  0  0  0  0  0  0  0  0  0  0
   25.5648  -21.2193  -11.5092 N   0  0  0  0  0  0  0  0  0  0  0  0
   24.4954  -20.6600  -10.6889 C   0  0  1  0  0  0  0  0  0  0  0  0
   23.1505  -20.8730  -11.2937 C   0  0  0  0  0  0  0  0  0  0  0  0
   22.0978  -20.2076  -10.4509 C   0  0  0  0  0  0  0  0  0  0  0  0
   20.6996  -20.3724  -11.0262 C   0  0  0  0  0  0  0  0  0  0  0  0
   19.7016  -19.5385  -10.2383 C   0  0  0  0  0  0  0  0  0  0  0  0
   18.3833  -19.7087  -10.8521 N   0  0  0  0  0  0  0  0  0  0  0  0
   24.5679  -20.9444   -9.2808 C   0  0  0  0  0  0  0  0  0  0  0  0
   24.3659  -20.0922   -8.2178 O   0  0  0  0  0  0  0  0  0  0  0  0
   24.8602  -22.1528   -8.9434 O   0  0  0  0  0  0  0  0  0  0  0  0
  2  3  1  1
  2  1  1  0
  4  2  1  0
  4  5  1  6
  6  4  1  0
  7  6  2  0
  8  6  1  0
  9 10  1  0
  9  8  1  0
 10 11  1  0
 12 11  1  0
 12  8  1  0
 12 13  1  1
 14 13  2  0
 15 13  1  0
 16 17  1  6
 16 15  1  0
 18 17  1  0
 19 20  1  0
 19 18  1  0
 20 21  1  0
 22 23  1  0
 22 16  1  0
 24 22  2  0
M  END
$$$$
