VPK.pdb
     RDKit          3D

 24 24  0  0  1  0  0  0  0  0999 V2000
   20.6102  -32.7683  -11.1797 C   0  0  0  0  0  0  0  0  0  0  0  0
   21.5465  -33.0700  -10.0349 C   0  0  2  0  0  0  0  0  0  0  0  0
   21.9650  -31.7624   -9.3851 C   0  0  0  0  0  0  0  0  0  0  0  0
   22.7307  -33.9152  -10.4433 C   0  0  2  0  0  0  0  0  0  0  0  0
   22.1918  -35.0818  -11.1049 N   0  0  0  0  0  0  0  0  0  0  0  0
   23.6510  -34.2416   -9.3680 C   0  0  0  0  0  0  0  0  0  0  0  0
   23.2606  -35.1405   -8.5440 O   0  0  0  0  0  0  0  0  0  0  0  0
   24.9145  -33.6570   -9.1644 N   0  0  0  0  0  0  0  0  0  0  0  0
   25.4753  -32.6706  -10.0812 C   0  0  0  0  0  0  0  0  0  0  0  0
   26.9239  -33.1113  -10.1265 C   0  0  0  0  0  0  0  0  0  0  0  0
   27.2167  -33.4345   -8.6845 C   0  0  0  0  0  0  0  0  0  0  0  0
   25.8505  -33.8962   -8.1253 C   0  0  1  0  0  0  0  0  0  0  0  0
   25.6432  -33.1976   -6.8490 C   0  0  0  0  0  0  0  0  0  0  0  0
   24.7904  -32.2376   -6.7662 O   0  0  0  0  0  0  0  0  0  0  0  0
   26.3039  -33.4665   -5.6182 N   0  0  0  0  0  0  0  0  0  0  0  0
   25.6413  -33.2510   -4.3360 C   0  0  1  0  0  0  0  0  0  0  0  0
   24.2149  -33.6808   -4.3588 C   0  0  0  0  0  0  0  0  0  0  0  0
   23.5448  -33.3039   -3.0666 C   0  0  0  0  0  0  0  0  0  0  0  0
   22.1057  -33.7904   -2.9921 C   0  0  0  0  0  0  0  0  0  0  0  0
   21.4755  -33.3779   -1.6711 C   0  0  0  0  0  0  0  0  0  0  0  0
   20.0724  -33.7960   -1.6875 N   0  0  0  0  0  0  0  0  0  0  0  0
   26.3725  -33.6722   -3.1711 C   0  0  0  0  0  0  0  0  0  0  0  0
   26.5197  -33.0240   -1.9648 O   0  0  0  0  0  0  0  0  0  0  0  0
   26.9806  -34.8056   -3.2416 O   0  0  0  0  0  0  0  0  0  0  0  0
  2  3  1  6
  2  1  1  0
  4  2  1  0
  4  5  1  1
  6  4  1  0
  7  6  2  0
  8  6  1  0
  9 10  1  0
  9  8  1  0
 10 11  1  0
 12 11  1  0
 12  8  1  0
 12 13  1  1
 14 13  2  0
 15 13  1  0
 16 17  1  6
 16 15  1  0
 18 17  1  0
 19 20  1  0
 19 18  1  0
 20 21  1  0
 22 23  1  0
 22 16  1  0
 24 22  2  0
M  END
$$$$
