VPK.pdb
     RDKit          3D

 24 24  0  0  1  0  0  0  0  0999 V2000
   24.2562  -13.6883  -20.9610 C   0  0  0  0  0  0  0  0  0  0  0  0
   23.9528  -12.8105  -19.7712 C   0  0  2  0  0  0  0  0  0  0  0  0
   24.1877  -11.3605  -20.1581 C   0  0  0  0  0  0  0  0  0  0  0  0
   24.7187  -13.2068  -18.5303 C   0  0  2  0  0  0  0  0  0  0  0  0
   24.4642  -14.6146  -18.3248 N   0  0  0  0  0  0  0  0  0  0  0  0
   24.4431  -12.3984  -17.3554 C   0  0  0  0  0  0  0  0  0  0  0  0
   23.3962  -12.7108  -16.6878 O   0  0  0  0  0  0  0  0  0  0  0  0
   25.2223  -11.3178  -16.9026 N   0  0  0  0  0  0  0  0  0  0  0  0
   26.4822  -10.9443  -17.5358 C   0  0  0  0  0  0  0  0  0  0  0  0
   27.3272  -10.6152  -16.3223 C   0  0  0  0  0  0  0  0  0  0  0  0
   26.3675   -9.8503  -15.4484 C   0  0  0  0  0  0  0  0  0  0  0  0
   24.9861  -10.4448  -15.8093 C   0  0  1  0  0  0  0  0  0  0  0  0
   24.0690   -9.3169  -16.0254 C   0  0  0  0  0  0  0  0  0  0  0  0
   23.9632   -8.7811  -17.1905 O   0  0  0  0  0  0  0  0  0  0  0  0
   23.2303   -8.7074  -15.0513 N   0  0  0  0  0  0  0  0  0  0  0  0
   22.1490   -7.8058  -15.4351 C   0  0  1  0  0  0  0  0  0  0  0  0
   21.2908   -8.3795  -16.5094 C   0  0  0  0  0  0  0  0  0  0  0  0
   20.3728   -9.4207  -15.9315 C   0  0  0  0  0  0  0  0  0  0  0  0
   19.4004   -9.9770  -16.9603 C   0  0  0  0  0  0  0  0  0  0  0  0
   18.4274  -10.9418  -16.3011 C   0  0  0  0  0  0  0  0  0  0  0  0
   17.5631  -11.4978  -17.3439 N   0  0  0  0  0  0  0  0  0  0  0  0
   21.4228   -7.1974  -14.3527 C   0  0  0  0  0  0  0  0  0  0  0  0
   21.4724   -7.4924  -13.0083 O   0  0  0  0  0  0  0  0  0  0  0  0
   20.6097   -6.2458  -14.6571 O   0  0  0  0  0  0  0  0  0  0  0  0
  2  3  1  6
  2  1  1  0
  4  2  1  0
  4  5  1  1
  6  4  1  0
  7  6  2  0
  8  6  1  0
  9 10  1  0
  9  8  1  0
 10 11  1  0
 12 11  1  0
 12  8  1  0
 12 13  1  6
 14 13  2  0
 15 13  1  0
 16 17  1  1
 16 15  1  0
 18 17  1  0
 19 20  1  0
 19 18  1  0
 20 21  1  0
 22 23  1  0
 22 16  1  0
 24 22  2  0
M  END
$$$$
