VPK.pdb
     RDKit          3D

 24 24  0  0  1  0  0  0  0  0999 V2000
   27.7678  -12.6432  -16.6893 C   0  0  0  0  0  0  0  0  0  0  0  0
   26.6434  -11.6368  -16.7218 C   0  0  2  0  0  0  0  0  0  0  0  0
   26.9292  -10.5482  -15.7017 C   0  0  0  0  0  0  0  0  0  0  0  0
   25.2811  -12.2621  -16.5305 C   0  0  2  0  0  0  0  0  0  0  0  0
   25.1782  -13.3244  -17.5052 N   0  0  0  0  0  0  0  0  0  0  0  0
   24.1670  -11.3314  -16.5791 C   0  0  0  0  0  0  0  0  0  0  0  0
   23.8717  -10.8639  -17.7339 O   0  0  0  0  0  0  0  0  0  0  0  0
   23.4016  -10.9105  -15.4761 N   0  0  0  0  0  0  0  0  0  0  0  0
   23.6306  -11.4178  -14.1276 C   0  0  0  0  0  0  0  0  0  0  0  0
   22.2069  -11.5803  -13.6361 C   0  0  0  0  0  0  0  0  0  0  0  0
   21.5357  -10.3323  -14.1478 C   0  0  0  0  0  0  0  0  0  0  0  0
   22.3162   -9.9974  -15.4404 C   0  0  1  0  0  0  0  0  0  0  0  0
   22.6350   -8.5633  -15.3981 C   0  0  0  0  0  0  0  0  0  0  0  0
   23.7899   -8.1674  -14.9919 O   0  0  0  0  0  0  0  0  0  0  0  0
   21.7775   -7.4926  -15.7750 N   0  0  0  0  0  0  0  0  0  0  0  0
   22.2137   -6.1026  -15.6910 C   0  0  1  0  0  0  0  0  0  0  0  0
   21.4913   -5.2255  -16.6547 C   0  0  0  0  0  0  0  0  0  0  0  0
   21.4860   -5.8575  -18.0191 C   0  0  0  0  0  0  0  0  0  0  0  0
   20.7434   -5.0187  -19.0478 C   0  0  0  0  0  0  0  0  0  0  0  0
   20.7029   -5.7376  -20.3870 C   0  0  0  0  0  0  0  0  0  0  0  0
   19.8576   -4.9593  -21.2945 N   0  0  0  0  0  0  0  0  0  0  0  0
   22.3334   -5.5596  -14.3644 C   0  0  0  0  0  0  0  0  0  0  0  0
   23.1438   -4.5380  -13.9212 O   0  0  0  0  0  0  0  0  0  0  0  0
   21.5927   -6.0837  -13.4500 O   0  0  0  0  0  0  0  0  0  0  0  0
  2  3  1  1
  2  1  1  0
  4  2  1  0
  4  5  1  6
  6  4  1  0
  7  6  2  0
  8  6  1  0
  9 10  1  0
  9  8  1  0
 10 11  1  0
 12 11  1  0
 12  8  1  0
 12 13  1  1
 14 13  2  0
 15 13  1  0
 16 17  1  6
 16 15  1  0
 18 17  1  0
 19 20  1  0
 19 18  1  0
 20 21  1  0
 22 23  1  0
 22 16  1  0
 24 22  2  0
M  END
$$$$
