VPK.pdb
     RDKit          3D

 24 24  0  0  1  0  0  0  0  0999 V2000
   28.6524  -18.7565  -15.5743 C   0  0  0  0  0  0  0  0  0  0  0  0
   27.3572  -19.2522  -14.9785 C   0  0  2  0  0  0  0  0  0  0  0  0
   26.6779  -18.1025  -14.2545 C   0  0  0  0  0  0  0  0  0  0  0  0
   27.5359  -20.4644  -14.0941 C   0  0  2  0  0  0  0  0  0  0  0  0
   28.2720  -21.4341  -14.8732 N   0  0  0  0  0  0  0  0  0  0  0  0
   26.3086  -20.9975  -13.5291 C   0  0  0  0  0  0  0  0  0  0  0  0
   25.6914  -21.8667  -14.2383 O   0  0  0  0  0  0  0  0  0  0  0  0
   25.7547  -20.6390  -12.2864 N   0  0  0  0  0  0  0  0  0  0  0  0
   26.4201  -19.7182  -11.3713 C   0  0  0  0  0  0  0  0  0  0  0  0
   26.1489  -20.3893  -10.0406 C   0  0  0  0  0  0  0  0  0  0  0  0
   24.7118  -20.8213  -10.1747 C   0  0  0  0  0  0  0  0  0  0  0  0
   24.5433  -21.0761  -11.6909 C   0  0  1  0  0  0  0  0  0  0  0  0
   23.3011  -20.4113  -12.1094 C   0  0  0  0  0  0  0  0  0  0  0  0
   23.3366  -19.2270  -12.6111 O   0  0  0  0  0  0  0  0  0  0  0  0
   21.9849  -20.9449  -12.0278 N   0  0  0  0  0  0  0  0  0  0  0  0
   20.8884  -20.3891  -12.8140 C   0  0  1  0  0  0  0  0  0  0  0  0
   20.9877  -20.7518  -14.2557 C   0  0  0  0  0  0  0  0  0  0  0  0
   20.6814  -22.2124  -14.4395 C   0  0  0  0  0  0  0  0  0  0  0  0
   20.8027  -22.6560  -15.8893 C   0  0  0  0  0  0  0  0  0  0  0  0
   20.4854  -24.1376  -16.0175 C   0  0  0  0  0  0  0  0  0  0  0  0
   20.4996  -24.4833  -17.4402 N   0  0  0  0  0  0  0  0  0  0  0  0
   19.5728  -20.5361  -12.2513 C   0  0  0  0  0  0  0  0  0  0  0  0
   18.4284  -19.8254  -12.5381 O   0  0  0  0  0  0  0  0  0  0  0  0
   19.4194  -21.4492  -11.3557 O   0  0  0  0  0  0  0  0  0  0  0  0
  2  3  1  1
  2  1  1  0
  4  2  1  0
  4  5  1  6
  6  4  1  0
  7  6  2  0
  8  6  1  0
  9 10  1  0
  9  8  1  0
 10 11  1  0
 12 11  1  0
 12  8  1  0
 12 13  1  6
 14 13  2  0
 15 13  1  0
 16 17  1  6
 16 15  1  0
 18 17  1  0
 19 20  1  0
 19 18  1  0
 20 21  1  0
 22 23  1  0
 22 16  1  0
 24 22  2  0
M  END
$$$$
