VPK.pdb
     RDKit          3D

 24 24  0  0  1  0  0  0  0  0999 V2000
   19.2253  -11.0411  -18.9206 C   0  0  0  0  0  0  0  0  0  0  0  0
   20.3897  -11.9986  -18.8468 C   0  0  2  0  0  0  0  0  0  0  0  0
   20.2212  -13.0603  -19.9200 C   0  0  0  0  0  0  0  0  0  0  0  0
   20.5818  -12.5950  -17.4717 C   0  0  2  0  0  0  0  0  0  0  0  0
   19.4695  -13.4925  -17.2562 N   0  0  0  0  0  0  0  0  0  0  0  0
   20.7515  -11.6274  -16.4019 C   0  0  0  0  0  0  0  0  0  0  0  0
   19.6850  -11.2675  -15.7915 O   0  0  0  0  0  0  0  0  0  0  0  0
   21.9740  -11.0642  -15.9921 N   0  0  0  0  0  0  0  0  0  0  0  0
   23.2428  -11.4073  -16.6249 C   0  0  0  0  0  0  0  0  0  0  0  0
   24.1538  -11.4876  -15.4172 C   0  0  0  0  0  0  0  0  0  0  0  0
   23.7202  -10.3011  -14.5962 C   0  0  0  0  0  0  0  0  0  0  0  0
   22.2228  -10.1374  -14.9470 C   0  0  1  0  0  0  0  0  0  0  0  0
   21.9948   -8.7137  -15.2320 C   0  0  0  0  0  0  0  0  0  0  0  0
   22.2528   -8.2364  -16.3987 O   0  0  0  0  0  0  0  0  0  0  0  0
   21.4918   -7.7379  -14.3272 N   0  0  0  0  0  0  0  0  0  0  0  0
   21.4168   -6.3274  -14.6938 C   0  0  1  0  0  0  0  0  0  0  0  0
   20.0107   -5.8464  -14.8009 C   0  0  0  0  0  0  0  0  0  0  0  0
   19.3011   -6.5780  -15.9064 C   0  0  0  0  0  0  0  0  0  0  0  0
   17.8577   -6.1277  -16.0715 C   0  0  0  0  0  0  0  0  0  0  0  0
   16.9535   -6.8877  -15.1140 C   0  0  0  0  0  0  0  0  0  0  0  0
   15.5892   -6.3834  -15.2813 N   0  0  0  0  0  0  0  0  0  0  0  0
   22.2966   -5.4433  -13.9773 C   0  0  0  0  0  0  0  0  0  0  0  0
   22.8467   -4.2512  -14.3936 O   0  0  0  0  0  0  0  0  0  0  0  0
   22.6296   -5.7925  -12.7830 O   0  0  0  0  0  0  0  0  0  0  0  0
  2  3  1  6
  2  1  1  0
  4  2  1  0
  4  5  1  1
  6  4  1  0
  7  6  2  0
  8  6  1  0
  9 10  1  0
  9  8  1  0
 10 11  1  0
 12 11  1  0
 12  8  1  0
 12 13  1  6
 14 13  2  0
 15 13  1  0
 16 17  1  1
 16 15  1  0
 18 17  1  0
 19 20  1  0
 19 18  1  0
 20 21  1  0
 22 23  1  0
 22 16  1  0
 24 22  2  0
M  END
$$$$
