RWI.pdb
     RDKit          3D

 34 35  0  0  1  0  0  0  0  0999 V2000
    7.8087  -13.3811   15.4617 N   0  0  0  0  0  0  0  0  0  0  0  0
    7.7293  -13.6872   16.8510 C   0  0  0  0  0  0  0  0  0  0  0  0
    7.9960  -12.8000   17.7474 N   0  0  0  0  0  0  0  0  0  0  0  0
    7.3486  -15.0076   17.2614 N   0  0  0  0  0  0  0  0  0  0  0  0
    8.1729  -16.1609   16.9561 C   0  0  0  0  0  0  0  0  0  0  0  0
    9.3969  -16.1137   17.7996 C   0  0  0  0  0  0  0  0  0  0  0  0
    9.8063  -17.3698   18.4661 C   0  0  0  0  0  0  0  0  0  0  0  0
    9.1957  -17.6782   19.7851 C   0  0  2  0  0  0  0  0  0  0  0  0
    7.7754  -17.4943   19.7743 N   0  0  0  0  0  0  0  0  0  0  0  0
    9.7972  -16.9351   20.9116 C   0  0  0  0  0  0  0  0  0  0  0  0
   11.0367  -16.8561   21.1015 O   0  0  0  0  0  0  0  0  0  0  0  0
    7.9733  -12.9990   18.7521 N   0  0  0  0  0  0  0  0  0  0  0  0
    8.9617  -16.2701   21.8389 C   0  0  1  0  0  0  0  0  0  0  0  0
    9.4221  -15.5637   22.9967 C   0  0  0  0  0  0  0  0  0  0  0  0
    8.7604  -14.2437   23.2507 C   0  0  0  0  0  0  0  0  0  0  0  0
    7.8104  -14.3390   24.3619 C   0  0  0  0  0  0  0  0  0  0  0  0
    7.0964  -15.4230   24.8386 N   0  0  0  0  0  0  0  0  0  0  0  0
    6.3485  -15.0277   25.8806 C   0  0  0  0  0  0  0  0  0  0  0  0
    6.5216  -13.7217   26.1349 C   0  0  0  0  0  0  0  0  0  0  0  0
    5.9762  -12.8851   27.0924 C   0  0  0  0  0  0  0  0  0  0  0  0
    6.3595  -11.5505   27.1063 C   0  0  0  0  0  0  0  0  0  0  0  0
    7.2557  -11.0807   26.1925 C   0  0  0  0  0  0  0  0  0  0  0  0
    7.7850  -11.9513   25.2422 C   0  0  0  0  0  0  0  0  0  0  0  0
    7.4282  -13.2826   25.1974 C   0  0  0  0  0  0  0  0  0  0  0  0
    9.3898  -16.4103   24.2249 O   0  0  0  0  0  0  0  0  0  0  0  0
    8.3800  -17.1086   24.4779 C   0  0  0  0  0  0  0  0  0  0  0  0
   14.1440  -18.4194   24.6383 C   0  0  0  0  0  0  0  0  0  0  0  0
   12.6711  -18.1276   24.6922 C   0  0  2  0  0  0  0  0  0  0  0  0
   12.1986  -17.8800   26.1006 C   0  0  0  0  0  0  0  0  0  0  0  0
   12.5455  -18.9860   27.0428 C   0  0  2  0  0  0  0  0  0  0  0  0
   10.7150  -17.5795   26.0359 N   0  0  0  0  0  0  0  0  0  0  0  0
   10.4711  -16.4655   25.1421 C   0  0  0  0  0  0  0  0  0  0  0  0
   10.2640  -17.2155   27.3899 O   0  0  0  0  0  0  0  0  0  0  0  0
   10.0511  -18.2167   28.3199 O   0  0  0  0  0  0  0  0  0  0  0  0
  2  1  1  0
  3  2  2  0
  4  2  1  0
  5  4  1  0
  6  5  1  0
  7  6  1  0
  7  8  1  0
  8  9  1  6
 10  8  1  0
 11 10  2  0
 12 10  1  0
 13 12  1  0
 13 24  1  0
 13 14  1  1
 15 23  1  0
 15 14  1  0
 16 15  2  0
 17 16  1  0
 17 18  1  0
 18 23  2  0
 19 18  1  0
 19 20  2  0
 20 21  1  0
 21 22  2  0
 23 22  1  0
 24 31  1  0
 25 24  2  0
 26 27  1  0
 28 29  1  1
 28 27  1  0
 30 28  1  0
 30 32  1  0
 30 31  1  6
 32 34  2  0
 32 33  1  0
M  END
$$$$
