RWI.pdb
     RDKit          3D

 34 35  0  0  1  0  0  0  0  0999 V2000
   13.9156  -20.2086   19.2202 N   0  0  0  0  0  0  0  0  0  0  0  0
   15.0652  -19.6717   19.8686 C   0  0  0  0  0  0  0  0  0  0  0  0
   15.8940  -20.4324   20.4980 N   0  0  0  0  0  0  0  0  0  0  0  0
   15.3044  -18.2583   19.8233 N   0  0  0  0  0  0  0  0  0  0  0  0
   14.3292  -17.3445   19.2605 C   0  0  0  0  0  0  0  0  0  0  0  0
   13.1782  -17.2340   20.1958 C   0  0  0  0  0  0  0  0  0  0  0  0
   12.0230  -16.4230   19.7518 C   0  0  0  0  0  0  0  0  0  0  0  0
   10.6692  -16.8669   20.1736 C   0  0  2  0  0  0  0  0  0  0  0  0
    9.7252  -16.8037   19.0984 N   0  0  0  0  0  0  0  0  0  0  0  0
   10.1453  -16.1501   21.3546 C   0  0  0  0  0  0  0  0  0  0  0  0
   10.0656  -14.8979   21.4214 O   0  0  0  0  0  0  0  0  0  0  0  0
   16.7520  -20.0807   20.9337 N   0  0  0  0  0  0  0  0  0  0  0  0
    9.7046  -16.8827   22.4812 C   0  0  1  0  0  0  0  0  0  0  0  0
    9.2253  -16.3022   23.6997 C   0  0  0  0  0  0  0  0  0  0  0  0
    7.8101  -16.6378   24.0595 C   0  0  0  0  0  0  0  0  0  0  0  0
    6.9531  -15.4525   23.9758 C   0  0  0  0  0  0  0  0  0  0  0  0
    5.8752  -15.1836   23.1524 N   0  0  0  0  0  0  0  0  0  0  0  0
    5.4017  -13.9612   23.4403 C   0  0  0  0  0  0  0  0  0  0  0  0
    6.1097  -13.3852   24.4238 C   0  0  0  0  0  0  0  0  0  0  0  0
    5.9967  -12.1554   25.0474 C   0  0  0  0  0  0  0  0  0  0  0  0
    6.8954  -11.8359   26.0566 C   0  0  0  0  0  0  0  0  0  0  0  0
    7.8667  -12.7207   26.4209 C   0  0  0  0  0  0  0  0  0  0  0  0
    7.9513  -13.9504   25.7715 C   0  0  0  0  0  0  0  0  0  0  0  0
    7.0768  -14.3027   24.7650 C   0  0  0  0  0  0  0  0  0  0  0  0
   10.1359  -16.5719   24.8504 O   0  0  0  0  0  0  0  0  0  0  0  0
   10.8677  -17.5897   24.8449 C   0  0  0  0  0  0  0  0  0  0  0  0
   11.5341  -14.2587   30.4870 C   0  0  0  0  0  0  0  0  0  0  0  0
   11.7107  -15.2353   29.3591 C   0  0  2  0  0  0  0  0  0  0  0  0
   10.8251  -14.9053   28.1865 C   0  0  0  0  0  0  0  0  0  0  0  0
    9.3990  -14.6788   28.5689 C   0  0  2  0  0  0  0  0  0  0  0  0
   11.0112  -15.9989   27.1545 N   0  0  0  0  0  0  0  0  0  0  0  0
   10.2166  -15.7130   25.9771 C   0  0  0  0  0  0  0  0  0  0  0  0
   10.5525  -17.2673   27.7462 O   0  0  0  0  0  0  0  0  0  0  0  0
    9.2041  -17.5734   27.7188 O   0  0  0  0  0  0  0  0  0  0  0  0
  2  1  1  0
  3  2  2  0
  4  2  1  0
  5  4  1  0
  6  5  1  0
  7  6  1  0
  7  8  1  0
  8  9  1  6
 10  8  1  0
 11 10  2  0
 12 10  1  0
 13 12  1  0
 13 24  1  0
 13 14  1  1
 15 23  1  0
 15 14  1  0
 16 15  2  0
 17 16  1  0
 17 18  1  0
 18 23  2  0
 19 18  1  0
 19 20  2  0
 20 21  1  0
 21 22  2  0
 23 22  1  0
 24 31  1  0
 25 24  2  0
 26 27  1  0
 28 29  1  6
 28 27  1  0
 30 28  1  0
 30 32  1  0
 30 31  1  1
 32 34  2  0
 32 33  1  0
M  END
$$$$
