RWI.pdb
     RDKit          3D

 34 35  0  0  1  0  0  0  0  0999 V2000
    9.4574  -14.5220   13.2757 N   0  0  0  0  0  0  0  0  0  0  0  0
    9.5511  -15.7856   13.9272 C   0  0  0  0  0  0  0  0  0  0  0  0
    9.9590  -16.8339   13.2974 N   0  0  0  0  0  0  0  0  0  0  0  0
    9.1823  -15.8956   15.3088 N   0  0  0  0  0  0  0  0  0  0  0  0
    8.7487  -14.7396   16.0694 C   0  0  0  0  0  0  0  0  0  0  0  0
    8.3897  -15.1765   17.4450 C   0  0  0  0  0  0  0  0  0  0  0  0
    9.2669  -14.7242   18.5474 C   0  0  0  0  0  0  0  0  0  0  0  0
    9.7607  -15.7531   19.4989 C   0  0  2  0  0  0  0  0  0  0  0  0
    9.1344  -17.0236   19.2868 N   0  0  0  0  0  0  0  0  0  0  0  0
    9.6468  -15.3595   20.9184 C   0  0  0  0  0  0  0  0  0  0  0  0
   10.2608  -14.3815   21.4137 O   0  0  0  0  0  0  0  0  0  0  0  0
   10.0471  -17.7522   13.7430 N   0  0  0  0  0  0  0  0  0  0  0  0
    8.8134  -16.1015   21.7873 C   0  0  2  0  0  0  0  0  0  0  0  0
    8.5389  -15.7585   23.1506 C   0  0  0  0  0  0  0  0  0  0  0  0
    7.1332  -16.0061   23.6061 C   0  0  0  0  0  0  0  0  0  0  0  0
    6.8671  -15.3273   24.8769 C   0  0  0  0  0  0  0  0  0  0  0  0
    6.6011  -15.8467   26.1306 N   0  0  0  0  0  0  0  0  0  0  0  0
    6.4226  -14.8336   26.9927 C   0  0  0  0  0  0  0  0  0  0  0  0
    6.5552  -13.6466   26.3815 C   0  0  0  0  0  0  0  0  0  0  0  0
    6.4625  -12.3484   26.8509 C   0  0  0  0  0  0  0  0  0  0  0  0
    6.6561  -11.3025   25.9583 C   0  0  0  0  0  0  0  0  0  0  0  0
    6.9318  -11.5565   24.6474 C   0  0  0  0  0  0  0  0  0  0  0  0
    7.0179  -12.8762   24.2090 C   0  0  0  0  0  0  0  0  0  0  0  0
    6.8318  -13.9405   25.0659 C   0  0  0  0  0  0  0  0  0  0  0  0
    9.5124  -16.3786   24.0960 O   0  0  0  0  0  0  0  0  0  0  0  0
   10.1824  -17.3765   23.7402 C   0  0  0  0  0  0  0  0  0  0  0  0
   10.6011  -13.3457   28.6179 C   0  0  0  0  0  0  0  0  0  0  0  0
   10.7998  -14.1460   27.3620 C   0  0  2  0  0  0  0  0  0  0  0  0
   10.7014  -15.6269   27.6180 C   0  0  0  0  0  0  0  0  0  0  0  0
   11.6925  -16.1198   28.6210 C   0  0  2  0  0  0  0  0  0  0  0  0
   10.7938  -16.3268   26.2775 N   0  0  0  0  0  0  0  0  0  0  0  0
    9.7225  -15.8827   25.4089 C   0  0  0  0  0  0  0  0  0  0  0  0
   10.6548  -17.7748   26.5084 O   0  0  0  0  0  0  0  0  0  0  0  0
   11.7810  -18.5192   26.8085 O   0  0  0  0  0  0  0  0  0  0  0  0
  2  1  1  0
  3  2  2  0
  4  2  1  0
  5  4  1  0
  6  5  1  0
  7  6  1  0
  7  8  1  0
  8  9  1  1
 10  8  1  0
 11 10  2  0
 12 10  1  0
 13 12  1  0
 13 24  1  0
 13 14  1  6
 15 23  1  0
 15 14  1  0
 16 15  2  0
 17 16  1  0
 17 18  1  0
 18 23  2  0
 19 18  1  0
 19 20  2  0
 20 21  1  0
 21 22  2  0
 23 22  1  0
 24 31  1  0
 25 24  2  0
 26 27  1  0
 28 29  1  1
 28 27  1  0
 30 28  1  0
 30 32  1  0
 30 31  1  6
 32 34  2  0
 32 33  1  0
M  END
$$$$
