RWI.pdb
     RDKit          3D

 34 35  0  0  1  0  0  0  0  0999 V2000
    7.3613  -15.0054   15.2492 N   0  0  0  0  0  0  0  0  0  0  0  0
    8.1156  -14.1199   16.0720 C   0  0  0  0  0  0  0  0  0  0  0  0
    7.8521  -12.8587   16.1140 N   0  0  0  0  0  0  0  0  0  0  0  0
    9.1904  -14.6395   16.8668 N   0  0  0  0  0  0  0  0  0  0  0  0
    9.7112  -15.9758   16.6524 C   0  0  0  0  0  0  0  0  0  0  0  0
    9.5476  -16.7620   17.9041 C   0  0  0  0  0  0  0  0  0  0  0  0
   10.1277  -16.1917   19.1402 C   0  0  0  0  0  0  0  0  0  0  0  0
   10.4578  -17.1326   20.2419 C   0  0  2  0  0  0  0  0  0  0  0  0
    9.6060  -18.2839   20.2366 N   0  0  0  0  0  0  0  0  0  0  0  0
   10.4623  -16.5082   21.5809 C   0  0  0  0  0  0  0  0  0  0  0  0
   11.2227  -15.5590   21.8962 O   0  0  0  0  0  0  0  0  0  0  0  0
    8.3919  -12.1953   16.6781 N   0  0  0  0  0  0  0  0  0  0  0  0
    9.5784  -16.9815   22.5784 C   0  0  1  0  0  0  0  0  0  0  0  0
    9.2351  -16.2703   23.7734 C   0  0  0  0  0  0  0  0  0  0  0  0
    7.7678  -16.1501   24.0518 C   0  0  0  0  0  0  0  0  0  0  0  0
    7.3240  -14.7591   23.9313 C   0  0  0  0  0  0  0  0  0  0  0  0
    7.0614  -13.9975   22.8075 N   0  0  0  0  0  0  0  0  0  0  0  0
    6.6785  -12.7702   23.1929 C   0  0  0  0  0  0  0  0  0  0  0  0
    6.6686  -12.6621   24.5302 C   0  0  0  0  0  0  0  0  0  0  0  0
    6.3480  -11.6115   25.3714 C   0  0  0  0  0  0  0  0  0  0  0  0
    6.4334  -11.8076   26.7435 C   0  0  0  0  0  0  0  0  0  0  0  0
    6.8255  -13.0133   27.2449 C   0  0  0  0  0  0  0  0  0  0  0  0
    7.1410  -14.0495   26.3686 C   0  0  0  0  0  0  0  0  0  0  0  0
    7.0680  -13.8921   25.0005 C   0  0  0  0  0  0  0  0  0  0  0  0
    9.9536  -16.7969   24.9703 O   0  0  0  0  0  0  0  0  0  0  0  0
    9.9557  -18.0276   25.2084 C   0  0  0  0  0  0  0  0  0  0  0  0
   11.6588  -14.5491   30.3281 C   0  0  0  0  0  0  0  0  0  0  0  0
   11.1366  -15.7307   29.5610 C   0  0  2  0  0  0  0  0  0  0  0  0
   10.5800  -15.3289   28.2205 C   0  0  0  0  0  0  0  0  0  0  0  0
    9.0995  -15.1307   28.2312 C   0  0  2  0  0  0  0  0  0  0  0  0
   11.0487  -16.3540   27.2081 N   0  0  0  0  0  0  0  0  0  0  0  0
   10.6513  -15.9537   25.8735 C   0  0  0  0  0  0  0  0  0  0  0  0
   10.4101  -17.6408   27.5328 O   0  0  0  0  0  0  0  0  0  0  0  0
   11.2071  -18.7322   27.8262 O   0  0  0  0  0  0  0  0  0  0  0  0
  2  1  1  0
  3  2  2  0
  4  2  1  0
  5  4  1  0
  6  5  1  0
  7  6  1  0
  7  8  1  0
  8  9  1  1
 10  8  1  0
 11 10  2  0
 12 10  1  0
 13 12  1  0
 13 24  1  0
 13 14  1  1
 15 23  1  0
 15 14  1  0
 16 15  2  0
 17 16  1  0
 17 18  1  0
 18 23  2  0
 19 18  1  0
 19 20  2  0
 20 21  1  0
 21 22  2  0
 23 22  1  0
 24 31  1  0
 25 24  2  0
 26 27  1  0
 28 29  1  6
 28 27  1  0
 30 28  1  0
 30 32  1  0
 30 31  1  1
 32 34  2  0
 32 33  1  0
M  END
$$$$
