RWI.pdb
     RDKit          3D

 34 35  0  0  1  0  0  0  0  0999 V2000
   13.3785  -18.6650   16.2861 N   0  0  0  0  0  0  0  0  0  0  0  0
   12.5041  -18.6091   15.1626 C   0  0  0  0  0  0  0  0  0  0  0  0
   12.6458  -19.4126   14.1645 N   0  0  0  0  0  0  0  0  0  0  0  0
   11.4477  -17.6394   15.1388 N   0  0  0  0  0  0  0  0  0  0  0  0
   11.2505  -16.7099   16.2343 C   0  0  0  0  0  0  0  0  0  0  0  0
   10.5715  -17.4199   17.3508 C   0  0  0  0  0  0  0  0  0  0  0  0
   10.2306  -16.6226   18.5498 C   0  0  0  0  0  0  0  0  0  0  0  0
   10.6053  -17.1803   19.8751 C   0  0  2  0  0  0  0  0  0  0  0  0
   10.1686  -18.5355   20.0291 N   0  0  0  0  0  0  0  0  0  0  0  0
   10.1479  -16.3643   21.0187 C   0  0  0  0  0  0  0  0  0  0  0  0
   10.4390  -15.1501   21.1592 O   0  0  0  0  0  0  0  0  0  0  0  0
   11.9491  -19.5028   13.4188 N   0  0  0  0  0  0  0  0  0  0  0  0
    9.3416  -16.9516   22.0213 C   0  0  1  0  0  0  0  0  0  0  0  0
    8.8477  -16.2691   23.1797 C   0  0  0  0  0  0  0  0  0  0  0  0
    7.3713  -16.3784   23.4104 C   0  0  0  0  0  0  0  0  0  0  0  0
    6.9534  -15.5390   24.5361 C   0  0  0  0  0  0  0  0  0  0  0  0
    6.5205  -15.8895   25.8017 N   0  0  0  0  0  0  0  0  0  0  0  0
    6.2469  -14.7723   26.4933 C   0  0  0  0  0  0  0  0  0  0  0  0
    6.4745  -13.6757   25.7544 C   0  0  0  0  0  0  0  0  0  0  0  0
    6.3408  -12.3273   26.0339 C   0  0  0  0  0  0  0  0  0  0  0  0
    6.6630  -11.4075   25.0448 C   0  0  0  0  0  0  0  0  0  0  0  0
    7.1017  -11.8311   23.8253 C   0  0  0  0  0  0  0  0  0  0  0  0
    7.2245  -13.1968   23.5783 C   0  0  0  0  0  0  0  0  0  0  0  0
    6.9141  -14.1395   24.5357 C   0  0  0  0  0  0  0  0  0  0  0  0
    9.5992  -16.6366   24.4151 O   0  0  0  0  0  0  0  0  0  0  0  0
   10.2076  -17.7309   24.4760 C   0  0  0  0  0  0  0  0  0  0  0  0
    9.8449  -12.6974   28.3395 C   0  0  0  0  0  0  0  0  0  0  0  0
   10.3312  -13.7341   27.3669 C   0  0  2  0  0  0  0  0  0  0  0  0
   10.0629  -15.1330   27.8561 C   0  0  0  0  0  0  0  0  0  0  0  0
   10.7314  -15.4425   29.1556 C   0  0  2  0  0  0  0  0  0  0  0  0
   10.4370  -16.0849   26.7382 N   0  0  0  0  0  0  0  0  0  0  0  0
    9.6608  -15.7886   25.5512 C   0  0  0  0  0  0  0  0  0  0  0  0
   10.1287  -17.4546   27.1832 O   0  0  0  0  0  0  0  0  0  0  0  0
   11.1261  -18.2118   27.7701 O   0  0  0  0  0  0  0  0  0  0  0  0
  2  1  1  0
  3  2  2  0
  4  2  1  0
  5  4  1  0
  6  5  1  0
  7  6  1  0
  7  8  1  0
  8  9  1  1
 10  8  1  0
 11 10  2  0
 12 10  1  0
 13 12  1  0
 13 24  1  0
 13 14  1  1
 15 23  1  0
 15 14  1  0
 16 15  2  0
 17 16  1  0
 17 18  1  0
 18 23  2  0
 19 18  1  0
 19 20  2  0
 20 21  1  0
 21 22  2  0
 23 22  1  0
 24 31  1  0
 25 24  2  0
 26 27  1  0
 28 29  1  6
 28 27  1  0
 30 28  1  0
 30 32  1  0
 30 31  1  6
 32 34  2  0
 32 33  1  0
M  END
$$$$
