RWI.pdb
     RDKit          3D

 34 35  0  0  1  0  0  0  0  0999 V2000
    8.7272  -15.7419   14.9820 N   0  0  0  0  0  0  0  0  0  0  0  0
    8.1924  -14.4476   14.7195 C   0  0  0  0  0  0  0  0  0  0  0  0
    7.6929  -14.1515   13.5686 N   0  0  0  0  0  0  0  0  0  0  0  0
    8.2120  -13.4537   15.7532 N   0  0  0  0  0  0  0  0  0  0  0  0
    8.8617  -13.7000   17.0260 C   0  0  0  0  0  0  0  0  0  0  0  0
    7.9000  -14.3819   17.9326 C   0  0  0  0  0  0  0  0  0  0  0  0
    8.0926  -14.1919   19.3874 C   0  0  0  0  0  0  0  0  0  0  0  0
    8.9236  -15.1918   20.1068 C   0  0  2  0  0  0  0  0  0  0  0  0
    8.4868  -16.5323   19.8552 N   0  0  0  0  0  0  0  0  0  0  0  0
    9.0224  -14.9525   21.5614 C   0  0  0  0  0  0  0  0  0  0  0  0
    9.4513  -13.8800   22.0559 O   0  0  0  0  0  0  0  0  0  0  0  0
    7.3751  -13.2083   13.3253 N   0  0  0  0  0  0  0  0  0  0  0  0
    8.6222  -15.9624   22.4670 C   0  0  1  0  0  0  0  0  0  0  0  0
    8.4220  -15.7704   23.8722 C   0  0  0  0  0  0  0  0  0  0  0  0
    7.2790  -16.5328   24.4696 C   0  0  0  0  0  0  0  0  0  0  0  0
    6.3196  -15.6261   25.1051 C   0  0  0  0  0  0  0  0  0  0  0  0
    5.0095  -15.8380   25.4935 N   0  0  0  0  0  0  0  0  0  0  0  0
    4.5280  -14.7087   26.0358 C   0  0  0  0  0  0  0  0  0  0  0  0
    5.4525  -13.7364   26.0339 C   0  0  0  0  0  0  0  0  0  0  0  0
    5.4197  -12.4274   26.4809 C   0  0  0  0  0  0  0  0  0  0  0  0
    6.5604  -11.6479   26.3417 C   0  0  0  0  0  0  0  0  0  0  0  0
    7.6865  -12.1680   25.7755 C   0  0  0  0  0  0  0  0  0  0  0  0
    7.6842  -13.4903   25.3365 C   0  0  0  0  0  0  0  0  0  0  0  0
    6.5706  -14.2946   25.4580 C   0  0  0  0  0  0  0  0  0  0  0  0
    9.6704  -15.9985   24.6570 O   0  0  0  0  0  0  0  0  0  0  0  0
   10.5988  -16.6864   24.1711 C   0  0  0  0  0  0  0  0  0  0  0  0
   12.5164  -14.2029   29.8077 C   0  0  0  0  0  0  0  0  0  0  0  0
   12.1322  -15.3466   28.9124 C   0  0  2  0  0  0  0  0  0  0  0  0
   10.8868  -15.0464   28.1206 C   0  0  0  0  0  0  0  0  0  0  0  0
    9.6277  -15.3844   28.8499 C   0  0  2  0  0  0  0  0  0  0  0  0
   11.0200  -15.7440   26.7823 N   0  0  0  0  0  0  0  0  0  0  0  0
    9.8631  -15.4624   25.9566 C   0  0  0  0  0  0  0  0  0  0  0  0
   11.0913  -17.1943   27.0290 O   0  0  0  0  0  0  0  0  0  0  0  0
   12.3291  -17.8099   27.0676 O   0  0  0  0  0  0  0  0  0  0  0  0
  2  1  1  0
  3  2  2  0
  4  2  1  0
  5  4  1  0
  6  5  1  0
  7  6  1  0
  7  8  1  0
  8  9  1  1
 10  8  1  0
 11 10  2  0
 12 10  1  0
 13 12  1  0
 13 24  1  0
 13 14  1  1
 15 23  1  0
 15 14  1  0
 16 15  2  0
 17 16  1  0
 17 18  1  0
 18 23  2  0
 19 18  1  0
 19 20  2  0
 20 21  1  0
 21 22  2  0
 23 22  1  0
 24 31  1  0
 25 24  2  0
 26 27  1  0
 28 29  1  6
 28 27  1  0
 30 28  1  0
 30 32  1  0
 30 31  1  1
 32 34  2  0
 32 33  1  0
M  END
$$$$
