RWI.pdb
     RDKit          3D

 34 35  0  0  1  0  0  0  0  0999 V2000
    8.5078  -14.2321   15.7818 N   0  0  0  0  0  0  0  0  0  0  0  0
    8.0355  -13.7965   17.0535 C   0  0  0  0  0  0  0  0  0  0  0  0
    7.9173  -12.5428   17.3292 N   0  0  0  0  0  0  0  0  0  0  0  0
    7.6874  -14.7700   18.0475 N   0  0  0  0  0  0  0  0  0  0  0  0
    8.3788  -16.0417   18.1345 C   0  0  0  0  0  0  0  0  0  0  0  0
    9.6547  -15.8456   18.8729 C   0  0  0  0  0  0  0  0  0  0  0  0
    9.5584  -15.5340   20.3162 C   0  0  0  0  0  0  0  0  0  0  0  0
    9.9674  -16.5917   21.2763 C   0  0  2  0  0  0  0  0  0  0  0  0
    9.1401  -17.7563   21.1751 N   0  0  0  0  0  0  0  0  0  0  0  0
   10.0329  -16.1335   22.6794 C   0  0  0  0  0  0  0  0  0  0  0  0
   10.7198  -15.1495   23.0518 O   0  0  0  0  0  0  0  0  0  0  0  0
    7.5919  -12.2007   18.2384 N   0  0  0  0  0  0  0  0  0  0  0  0
    9.2973  -16.8168   23.6754 C   0  0  1  0  0  0  0  0  0  0  0  0
    9.0982  -16.3475   25.0139 C   0  0  0  0  0  0  0  0  0  0  0  0
    7.7400  -16.6057   25.5913 C   0  0  0  0  0  0  0  0  0  0  0  0
    6.7782  -15.5972   25.1391 C   0  0  0  0  0  0  0  0  0  0  0  0
    5.6515  -15.7261   24.3478 N   0  0  0  0  0  0  0  0  0  0  0  0
    5.0817  -14.5198   24.2018 C   0  0  0  0  0  0  0  0  0  0  0  0
    5.7706  -13.5744   24.8588 C   0  0  0  0  0  0  0  0  0  0  0  0
    5.5712  -12.2124   24.9981 C   0  0  0  0  0  0  0  0  0  0  0  0
    6.4738  -11.4820   25.7597 C   0  0  0  0  0  0  0  0  0  0  0  0
    7.5327  -12.1006   26.3556 C   0  0  0  0  0  0  0  0  0  0  0  0
    7.7030  -13.4739   26.1942 C   0  0  0  0  0  0  0  0  0  0  0  0
    6.8275  -14.2320   25.4455 C   0  0  0  0  0  0  0  0  0  0  0  0
   10.1620  -16.8259   25.9443 O   0  0  0  0  0  0  0  0  0  0  0  0
   10.9144  -17.7690   25.6037 C   0  0  0  0  0  0  0  0  0  0  0  0
   12.3330  -15.7459   31.6632 C   0  0  0  0  0  0  0  0  0  0  0  0
   12.5227  -16.2707   30.2683 C   0  0  2  0  0  0  0  0  0  0  0  0
   11.4873  -15.7287   29.3184 C   0  0  0  0  0  0  0  0  0  0  0  0
   10.1699  -15.4624   29.9701 C   0  0  2  0  0  0  0  0  0  0  0  0
   11.4030  -16.6834   28.1450 N   0  0  0  0  0  0  0  0  0  0  0  0
   10.3692  -16.2526   27.2256 C   0  0  0  0  0  0  0  0  0  0  0  0
   11.0562  -18.0167   28.6658 O   0  0  0  0  0  0  0  0  0  0  0  0
   12.0718  -18.9017   28.9787 O   0  0  0  0  0  0  0  0  0  0  0  0
  2  1  1  0
  3  2  2  0
  4  2  1  0
  5  4  1  0
  6  5  1  0
  7  6  1  0
  7  8  1  0
  8  9  1  1
 10  8  1  0
 11 10  2  0
 12 10  1  0
 13 12  1  0
 13 24  1  0
 13 14  1  1
 15 23  1  0
 15 14  1  0
 16 15  2  0
 17 16  1  0
 17 18  1  0
 18 23  2  0
 19 18  1  0
 19 20  2  0
 20 21  1  0
 21 22  2  0
 23 22  1  0
 24 31  1  0
 25 24  2  0
 26 27  1  0
 28 29  1  6
 28 27  1  0
 30 28  1  0
 30 32  1  0
 30 31  1  1
 32 34  2  0
 32 33  1  0
M  END
$$$$
