RWI.pdb
     RDKit          3D

 34 35  0  0  1  0  0  0  0  0999 V2000
    7.6203  -15.0516   15.5865 N   0  0  0  0  0  0  0  0  0  0  0  0
    8.2995  -13.8244   15.3356 C   0  0  0  0  0  0  0  0  0  0  0  0
    8.7787  -13.5518   14.1704 N   0  0  0  0  0  0  0  0  0  0  0  0
    8.4561  -12.8750   16.3990 N   0  0  0  0  0  0  0  0  0  0  0  0
    7.8834  -13.1084   17.7107 C   0  0  0  0  0  0  0  0  0  0  0  0
    8.6092  -14.2331   18.3588 C   0  0  0  0  0  0  0  0  0  0  0  0
    8.1967  -14.6010   19.7315 C   0  0  0  0  0  0  0  0  0  0  0  0
    8.9614  -15.6770   20.4135 C   0  0  2  0  0  0  0  0  0  0  0  0
    8.3625  -16.9638   20.2222 N   0  0  0  0  0  0  0  0  0  0  0  0
    9.1890  -15.4298   21.8522 C   0  0  0  0  0  0  0  0  0  0  0  0
    9.9169  -14.5016   22.2853 O   0  0  0  0  0  0  0  0  0  0  0  0
    9.2959  -12.6907   13.9684 N   0  0  0  0  0  0  0  0  0  0  0  0
    8.5708  -16.2628   22.8135 C   0  0  1  0  0  0  0  0  0  0  0  0
    8.5052  -15.9855   24.2172 C   0  0  0  0  0  0  0  0  0  0  0  0
    7.3264  -16.5696   24.9342 C   0  0  0  0  0  0  0  0  0  0  0  0
    6.3520  -15.5297   25.2741 C   0  0  0  0  0  0  0  0  0  0  0  0
    4.9974  -15.6234   25.5358 N   0  0  0  0  0  0  0  0  0  0  0  0
    4.5193  -14.3976   25.8008 C   0  0  0  0  0  0  0  0  0  0  0  0
    5.4887  -13.4726   25.7311 C   0  0  0  0  0  0  0  0  0  0  0  0
    5.4762  -12.1026   25.9236 C   0  0  0  0  0  0  0  0  0  0  0  0
    6.6651  -11.3996   25.7809 C   0  0  0  0  0  0  0  0  0  0  0  0
    7.8179  -12.0522   25.4579 C   0  0  0  0  0  0  0  0  0  0  0  0
    7.7940  -13.4326   25.2713 C   0  0  0  0  0  0  0  0  0  0  0  0
    6.6326  -14.1642   25.4044 C   0  0  0  0  0  0  0  0  0  0  0  0
    9.7727  -16.3357   24.9220 O   0  0  0  0  0  0  0  0  0  0  0  0
   10.6872  -16.9328   24.3067 C   0  0  0  0  0  0  0  0  0  0  0  0
   10.4034  -13.7610   29.6446 C   0  0  0  0  0  0  0  0  0  0  0  0
   10.6984  -14.3570   28.2973 C   0  0  2  0  0  0  0  0  0  0  0  0
   11.1665  -15.7844   28.4047 C   0  0  0  0  0  0  0  0  0  0  0  0
   12.4501  -15.9300   29.1547 C   0  0  2  0  0  0  0  0  0  0  0  0
   11.2145  -16.3536   27.0015 N   0  0  0  0  0  0  0  0  0  0  0  0
    9.9997  -16.0186   26.2863 C   0  0  0  0  0  0  0  0  0  0  0  0
   11.3201  -17.8189   27.1071 O   0  0  0  0  0  0  0  0  0  0  0  0
   12.5370  -18.4255   26.8545 O   0  0  0  0  0  0  0  0  0  0  0  0
  2  1  1  0
  3  2  2  0
  4  2  1  0
  5  4  1  0
  6  5  1  0
  7  6  1  0
  7  8  1  0
  8  9  1  1
 10  8  1  0
 11 10  2  0
 12 10  1  0
 13 12  1  0
 13 24  1  0
 13 14  1  1
 15 23  1  0
 15 14  1  0
 16 15  2  0
 17 16  1  0
 17 18  1  0
 18 23  2  0
 19 18  1  0
 19 20  2  0
 20 21  1  0
 21 22  2  0
 23 22  1  0
 24 31  1  0
 25 24  2  0
 26 27  1  0
 28 29  1  1
 28 27  1  0
 30 28  1  0
 30 32  1  0
 30 31  1  6
 32 34  2  0
 32 33  1  0
M  END
$$$$
