RWI.pdb
     RDKit          3D

 34 35  0  0  1  0  0  0  0  0999 V2000
    7.2827  -14.0956   14.0804 N   0  0  0  0  0  0  0  0  0  0  0  0
    8.3832  -14.3882   14.9369 C   0  0  0  0  0  0  0  0  0  0  0  0
    9.2930  -15.2334   14.5912 N   0  0  0  0  0  0  0  0  0  0  0  0
    8.4801  -13.7331   16.2089 N   0  0  0  0  0  0  0  0  0  0  0  0
    9.5758  -14.0072   17.1185 C   0  0  0  0  0  0  0  0  0  0  0  0
    9.1563  -15.0706   18.0697 C   0  0  0  0  0  0  0  0  0  0  0  0
    9.1225  -14.7167   19.5061 C   0  0  0  0  0  0  0  0  0  0  0  0
    9.5984  -15.7363   20.4764 C   0  0  2  0  0  0  0  0  0  0  0  0
    8.9873  -17.0126   20.2556 N   0  0  0  0  0  0  0  0  0  0  0  0
    9.4443  -15.3352   21.8900 C   0  0  0  0  0  0  0  0  0  0  0  0
    9.9757  -14.3056   22.3760 O   0  0  0  0  0  0  0  0  0  0  0  0
   10.1165  -15.4322   15.1675 N   0  0  0  0  0  0  0  0  0  0  0  0
    8.6665  -16.1300   22.7637 C   0  0  1  0  0  0  0  0  0  0  0  0
    8.5224  -15.9008   24.1702 C   0  0  0  0  0  0  0  0  0  0  0  0
    7.2627  -16.4320   24.7832 C   0  0  0  0  0  0  0  0  0  0  0  0
    6.4200  -15.3403   25.2778 C   0  0  0  0  0  0  0  0  0  0  0  0
    5.0866  -15.3342   25.6440 N   0  0  0  0  0  0  0  0  0  0  0  0
    4.7485  -14.0961   26.0364 C   0  0  0  0  0  0  0  0  0  0  0  0
    5.7930  -13.2581   25.9537 C   0  0  0  0  0  0  0  0  0  0  0  0
    5.9251  -11.9122   26.2457 C   0  0  0  0  0  0  0  0  0  0  0  0
    7.1610  -11.3082   26.0560 C   0  0  0  0  0  0  0  0  0  0  0  0
    8.2187  -12.0324   25.5914 C   0  0  0  0  0  0  0  0  0  0  0  0
    8.0499  -13.3859   25.3075 C   0  0  0  0  0  0  0  0  0  0  0  0
    6.8380  -14.0200   25.4834 C   0  0  0  0  0  0  0  0  0  0  0  0
    9.7140  -16.3593   24.9422 O   0  0  0  0  0  0  0  0  0  0  0  0
   10.5019  -17.1952   24.4403 C   0  0  0  0  0  0  0  0  0  0  0  0
   10.8884  -13.4301   29.4280 C   0  0  0  0  0  0  0  0  0  0  0  0
   10.9609  -14.2209   28.1526 C   0  0  2  0  0  0  0  0  0  0  0  0
   11.0896  -15.6984   28.4142 C   0  0  0  0  0  0  0  0  0  0  0  0
   12.2669  -16.0472   29.2649 C   0  0  2  0  0  0  0  0  0  0  0  0
   11.0809  -16.4001   27.0714 N   0  0  0  0  0  0  0  0  0  0  0  0
   10.0064  -15.8847   26.2471 C   0  0  0  0  0  0  0  0  0  0  0  0
   10.8566  -17.8362   27.3086 O   0  0  0  0  0  0  0  0  0  0  0  0
   11.9380  -18.6980   27.2905 O   0  0  0  0  0  0  0  0  0  0  0  0
  2  1  1  0
  3  2  2  0
  4  2  1  0
  5  4  1  0
  6  5  1  0
  7  6  1  0
  7  8  1  0
  8  9  1  1
 10  8  1  0
 11 10  2  0
 12 10  1  0
 13 12  1  0
 13 24  1  0
 13 14  1  1
 15 23  1  0
 15 14  1  0
 16 15  2  0
 17 16  1  0
 17 18  1  0
 18 23  2  0
 19 18  1  0
 19 20  2  0
 20 21  1  0
 21 22  2  0
 23 22  1  0
 24 31  1  0
 25 24  2  0
 26 27  1  0
 28 29  1  1
 28 27  1  0
 30 28  1  0
 30 32  1  0
 30 31  1  6
 32 34  2  0
 32 33  1  0
M  END
$$$$
