RWI.pdb
     RDKit          3D

 34 35  0  0  1  0  0  0  0  0999 V2000
    7.1619  -14.6867   16.2873 N   0  0  0  0  0  0  0  0  0  0  0  0
    8.5117  -14.6751   15.8310 C   0  0  0  0  0  0  0  0  0  0  0  0
    8.9353  -13.7670   15.0200 N   0  0  0  0  0  0  0  0  0  0  0  0
    9.4162  -15.6937   16.2791 N   0  0  0  0  0  0  0  0  0  0  0  0
   10.1108  -15.5828   17.5472 C   0  0  0  0  0  0  0  0  0  0  0  0
    9.1570  -15.0898   18.5762 C   0  0  0  0  0  0  0  0  0  0  0  0
    9.7014  -14.8131   19.9241 C   0  0  0  0  0  0  0  0  0  0  0  0
   10.0108  -15.9784   20.7925 C   0  0  2  0  0  0  0  0  0  0  0  0
    9.1395  -17.0853   20.5346 N   0  0  0  0  0  0  0  0  0  0  0  0
   10.0207  -15.6631   22.2359 C   0  0  0  0  0  0  0  0  0  0  0  0
   10.6352  -14.6812   22.7227 O   0  0  0  0  0  0  0  0  0  0  0  0
    9.9207  -13.6717   14.7561 N   0  0  0  0  0  0  0  0  0  0  0  0
    9.3131  -16.4899   23.1392 C   0  0  1  0  0  0  0  0  0  0  0  0
    9.0671  -16.1776   24.5153 C   0  0  0  0  0  0  0  0  0  0  0  0
    7.6551  -16.3722   24.9770 C   0  0  0  0  0  0  0  0  0  0  0  0
    6.7920  -15.2921   24.4926 C   0  0  0  0  0  0  0  0  0  0  0  0
    5.9525  -15.2410   23.3949 N   0  0  0  0  0  0  0  0  0  0  0  0
    5.3612  -14.0369   23.3546 C   0  0  0  0  0  0  0  0  0  0  0  0
    5.7608  -13.2650   24.3767 C   0  0  0  0  0  0  0  0  0  0  0  0
    5.4298  -11.9733   24.7454 C   0  0  0  0  0  0  0  0  0  0  0  0
    6.0194  -11.4335   25.8809 C   0  0  0  0  0  0  0  0  0  0  0  0
    6.9053  -12.1670   26.6131 C   0  0  0  0  0  0  0  0  0  0  0  0
    7.2157  -13.4648   26.2127 C   0  0  0  0  0  0  0  0  0  0  0  0
    6.6503  -14.0343   25.0912 C   0  0  0  0  0  0  0  0  0  0  0  0
   10.0179  -16.8730   25.4310 O   0  0  0  0  0  0  0  0  0  0  0  0
   10.6854  -17.8498   25.0168 C   0  0  0  0  0  0  0  0  0  0  0  0
   10.5878  -14.0952   29.9253 C   0  0  0  0  0  0  0  0  0  0  0  0
   10.7655  -14.9012   28.6699 C   0  0  2  0  0  0  0  0  0  0  0  0
   11.2621  -16.2929   28.9613 C   0  0  0  0  0  0  0  0  0  0  0  0
   12.6203  -16.3171   29.5827 C   0  0  1  0  0  0  0  0  0  0  0  0
   11.1681  -17.0876   27.6748 N   0  0  0  0  0  0  0  0  0  0  0  0
   10.2085  -16.4737   26.7793 C   0  0  0  0  0  0  0  0  0  0  0  0
   10.7096  -18.4463   28.0105 O   0  0  0  0  0  0  0  0  0  0  0  0
   11.6385  -19.3907   28.4080 O   0  0  0  0  0  0  0  0  0  0  0  0
  2  1  1  0
  3  2  2  0
  4  2  1  0
  5  4  1  0
  6  5  1  0
  7  6  1  0
  7  8  1  0
  8  9  1  1
 10  8  1  0
 11 10  2  0
 12 10  1  0
 13 12  1  0
 13 24  1  0
 13 14  1  1
 15 23  1  0
 15 14  1  0
 16 15  2  0
 17 16  1  0
 17 18  1  0
 18 23  2  0
 19 18  1  0
 19 20  2  0
 20 21  1  0
 21 22  2  0
 23 22  1  0
 24 31  1  0
 25 24  2  0
 26 27  1  0
 28 29  1  1
 28 27  1  0
 30 28  1  0
 30 32  1  0
 30 31  1  6
 32 34  2  0
 32 33  1  0
M  END
$$$$
