RWI.pdb
     RDKit          3D

 34 35  0  0  1  0  0  0  0  0999 V2000
    8.3722  -12.8958   14.3748 N   0  0  0  0  0  0  0  0  0  0  0  0
    9.1432  -14.0178   14.7954 C   0  0  0  0  0  0  0  0  0  0  0  0
   10.0758  -14.5050   14.0506 N   0  0  0  0  0  0  0  0  0  0  0  0
    8.8758  -14.6193   16.0695 N   0  0  0  0  0  0  0  0  0  0  0  0
    7.9076  -14.0489   16.9861 C   0  0  0  0  0  0  0  0  0  0  0  0
    7.8125  -14.9197   18.1880 C   0  0  0  0  0  0  0  0  0  0  0  0
    8.7048  -14.6014   19.3246 C   0  0  0  0  0  0  0  0  0  0  0  0
    9.1545  -15.7287   20.1818 C   0  0  2  0  0  0  0  0  0  0  0  0
    8.3372  -16.8921   20.0094 N   0  0  0  0  0  0  0  0  0  0  0  0
    9.2579  -15.3864   21.6153 C   0  0  0  0  0  0  0  0  0  0  0  0
    9.9021  -14.3958   22.0426 O   0  0  0  0  0  0  0  0  0  0  0  0
   10.6226  -15.3311   14.3117 N   0  0  0  0  0  0  0  0  0  0  0  0
    8.6109  -16.1955   22.5780 C   0  0  1  0  0  0  0  0  0  0  0  0
    8.5266  -15.8965   23.9763 C   0  0  0  0  0  0  0  0  0  0  0  0
    7.3348  -16.4641   24.6851 C   0  0  0  0  0  0  0  0  0  0  0  0
    6.4005  -15.4035   25.0707 C   0  0  0  0  0  0  0  0  0  0  0  0
    5.0717  -15.4743   25.4469 N   0  0  0  0  0  0  0  0  0  0  0  0
    4.6273  -14.2357   25.7108 C   0  0  0  0  0  0  0  0  0  0  0  0
    5.5950  -13.3239   25.5310 C   0  0  0  0  0  0  0  0  0  0  0  0
    5.6097  -11.9484   25.6795 C   0  0  0  0  0  0  0  0  0  0  0  0
    6.7882  -11.2631   25.4159 C   0  0  0  0  0  0  0  0  0  0  0  0
    7.9047  -11.9379   25.0196 C   0  0  0  0  0  0  0  0  0  0  0  0
    7.8543  -13.3232   24.8804 C   0  0  0  0  0  0  0  0  0  0  0  0
    6.7021  -14.0377   25.1331 C   0  0  0  0  0  0  0  0  0  0  0  0
    9.7822  -16.2419   24.7045 O   0  0  0  0  0  0  0  0  0  0  0  0
   10.6509  -16.9565   24.1512 C   0  0  0  0  0  0  0  0  0  0  0  0
   10.7970  -13.3089   29.2119 C   0  0  0  0  0  0  0  0  0  0  0  0
   10.8626  -14.0834   27.9262 C   0  0  2  0  0  0  0  0  0  0  0  0
   11.1737  -15.5380   28.1618 C   0  0  0  0  0  0  0  0  0  0  0  0
   12.4219  -15.7543   28.9533 C   0  0  2  0  0  0  0  0  0  0  0  0
   11.1836  -16.2251   26.8114 N   0  0  0  0  0  0  0  0  0  0  0  0
   10.0479  -15.7907   26.0233 C   0  0  0  0  0  0  0  0  0  0  0  0
   11.0829  -17.6770   27.0377 O   0  0  0  0  0  0  0  0  0  0  0  0
   12.2126  -18.4608   26.8890 O   0  0  0  0  0  0  0  0  0  0  0  0
  2  1  1  0
  3  2  2  0
  4  2  1  0
  5  4  1  0
  6  5  1  0
  7  6  1  0
  7  8  1  0
  8  9  1  1
 10  8  1  0
 11 10  2  0
 12 10  1  0
 13 12  1  0
 13 24  1  0
 13 14  1  1
 15 23  1  0
 15 14  1  0
 16 15  2  0
 17 16  1  0
 17 18  1  0
 18 23  2  0
 19 18  1  0
 19 20  2  0
 20 21  1  0
 21 22  2  0
 23 22  1  0
 24 31  1  0
 25 24  2  0
 26 27  1  0
 28 29  1  1
 28 27  1  0
 30 28  1  0
 30 32  1  0
 30 31  1  6
 32 34  2  0
 32 33  1  0
M  END
$$$$
