RWI.pdb
     RDKit          3D

 34 35  0  0  1  0  0  0  0  0999 V2000
    7.5573  -13.5516   16.6423 N   0  0  0  0  0  0  0  0  0  0  0  0
    8.4644  -13.2015   17.6838 C   0  0  0  0  0  0  0  0  0  0  0  0
    8.6240  -11.9749   18.0470 N   0  0  0  0  0  0  0  0  0  0  0  0
    9.2168  -14.2315   18.3393 N   0  0  0  0  0  0  0  0  0  0  0  0
    8.9541  -15.6353   18.0880 C   0  0  0  0  0  0  0  0  0  0  0  0
    9.2609  -16.4097   19.3201 C   0  0  0  0  0  0  0  0  0  0  0  0
   10.6880  -16.5829   19.6709 C   0  0  0  0  0  0  0  0  0  0  0  0
   11.0033  -17.3100   20.9277 C   0  0  2  0  0  0  0  0  0  0  0  0
   10.4401  -18.6267   20.9407 N   0  0  0  0  0  0  0  0  0  0  0  0
   10.6204  -16.5798   22.1537 C   0  0  0  0  0  0  0  0  0  0  0  0
   11.0326  -15.4242   22.4247 O   0  0  0  0  0  0  0  0  0  0  0  0
    9.2776  -11.6927   18.7838 N   0  0  0  0  0  0  0  0  0  0  0  0
    9.7485  -17.1862   23.0877 C   0  0  1  0  0  0  0  0  0  0  0  0
    9.2924  -16.5743   24.2998 C   0  0  0  0  0  0  0  0  0  0  0  0
    7.8164  -16.6536   24.5450 C   0  0  0  0  0  0  0  0  0  0  0  0
    7.1398  -15.4469   24.0628 C   0  0  0  0  0  0  0  0  0  0  0  0
    6.5748  -15.1687   22.8317 N   0  0  0  0  0  0  0  0  0  0  0  0
    6.0679  -13.9263   22.8560 C   0  0  0  0  0  0  0  0  0  0  0  0
    6.2625  -13.3455   24.0497 C   0  0  0  0  0  0  0  0  0  0  0  0
    5.9203  -12.0971   24.5383 C   0  0  0  0  0  0  0  0  0  0  0  0
    6.2626  -11.7773   25.8455 C   0  0  0  0  0  0  0  0  0  0  0  0
    6.9221  -12.6797   26.6263 C   0  0  0  0  0  0  0  0  0  0  0  0
    7.2512  -13.9278   26.1017 C   0  0  0  0  0  0  0  0  0  0  0  0
    6.9278  -14.2810   24.8085 C   0  0  0  0  0  0  0  0  0  0  0  0
   10.0478  -17.0540   25.4937 O   0  0  0  0  0  0  0  0  0  0  0  0
   10.6507  -18.1523   25.4538 C   0  0  0  0  0  0  0  0  0  0  0  0
   10.6947  -13.1757   29.1572 C   0  0  0  0  0  0  0  0  0  0  0  0
   10.9997  -14.3256   28.2396 C   0  0  2  0  0  0  0  0  0  0  0  0
   10.8314  -15.6542   28.9288 C   0  0  0  0  0  0  0  0  0  0  0  0
   11.8056  -15.8704   30.0403 C   0  0  2  0  0  0  0  0  0  0  0  0
   10.8783  -16.7287   27.8618 N   0  0  0  0  0  0  0  0  0  0  0  0
   10.1192  -16.3109   26.7004 C   0  0  0  0  0  0  0  0  0  0  0  0
   10.2711  -17.9501   28.4174 O   0  0  0  0  0  0  0  0  0  0  0  0
   11.0933  -18.9359   28.9320 O   0  0  0  0  0  0  0  0  0  0  0  0
  2  1  1  0
  3  2  2  0
  4  2  1  0
  5  4  1  0
  6  5  1  0
  7  6  1  0
  7  8  1  0
  8  9  1  6
 10  8  1  0
 11 10  2  0
 12 10  1  0
 13 12  1  0
 13 24  1  0
 13 14  1  1
 15 23  1  0
 15 14  1  0
 16 15  2  0
 17 16  1  0
 17 18  1  0
 18 23  2  0
 19 18  1  0
 19 20  2  0
 20 21  1  0
 21 22  2  0
 23 22  1  0
 24 31  1  0
 25 24  2  0
 26 27  1  0
 28 29  1  1
 28 27  1  0
 30 28  1  0
 30 32  1  0
 30 31  1  6
 32 34  2  0
 32 33  1  0
M  END
$$$$
