YLC.pdb
     RDKit          3D

 27 27  0  0  1  0  0  0  0  0999 V2000
   14.5209  -20.7137   15.8764 O   0  0  0  0  0  0  0  0  0  0  0  0
   13.9672  -19.6680   16.6050 C   0  0  0  0  0  0  0  0  0  0  0  0
   14.2734  -19.5344   17.9347 C   0  0  0  0  0  0  0  0  0  0  0  0
   13.7139  -18.4797   18.6653 C   0  0  0  0  0  0  0  0  0  0  0  0
   12.8657  -17.5846   18.0618 C   0  0  0  0  0  0  0  0  0  0  0  0
   12.2801  -16.4835   18.8347 C   0  0  0  0  0  0  0  0  0  0  0  0
   11.5091  -17.1025   20.0046 C   0  0  2  0  0  0  0  0  0  0  0  0
   10.3878  -17.8152   19.4234 N   0  0  0  0  0  0  0  0  0  0  0  0
   11.0421  -15.9797   20.8605 C   0  0  0  0  0  0  0  0  0  0  0  0
   11.8557  -15.1911   21.3981 O   0  0  0  0  0  0  0  0  0  0  0  0
   12.5718  -17.7348   16.7327 C   0  0  0  0  0  0  0  0  0  0  0  0
   13.1127  -18.7705   15.9862 C   0  0  0  0  0  0  0  0  0  0  0  0
    6.5806  -13.3648   19.4513 C   0  0  0  0  0  0  0  0  0  0  0  0
    7.9385  -13.7952   19.9968 C   0  0  1  0  0  0  0  0  0  0  0  0
    8.7025  -12.4579   20.1494 C   0  0  0  0  0  0  0  0  0  0  0  0
    7.8403  -14.3545   21.3677 C   0  0  0  0  0  0  0  0  0  0  0  0
    9.1355  -14.7926   22.0006 C   0  0  2  0  0  0  0  0  0  0  0  0
    9.6681  -15.8080   21.0635 N   0  0  0  0  0  0  0  0  0  0  0  0
    9.0132  -15.4316   23.3068 C   0  0  0  0  0  0  0  0  0  0  0  0
    8.5045  -14.7487   24.2641 O   0  0  0  0  0  0  0  0  0  0  0  0
    9.4059  -16.7554   23.6285 N   0  0  0  0  0  0  0  0  0  0  0  0
    9.2395  -17.2093   24.9980 C   0  0  1  0  0  0  0  0  0  0  0  0
    8.1795  -18.2861   25.0312 C   0  0  0  0  0  0  0  0  0  0  0  0
    6.5413  -17.5881   25.3616 S   0  0  0  0  0  0  0  0  0  0  0  0
   10.5413  -17.7232   25.4828 C   0  0  0  0  0  0  0  0  0  0  0  0
   11.5712  -17.6764   24.7557 O   0  0  0  0  0  0  0  0  0  0  0  0
   10.6906  -18.2742   26.7447 O   0  0  0  0  0  0  0  0  0  0  0  0
  2  3  2  0
  2  1  1  0
  4  3  1  0
  5  4  2  0
  6  5  1  0
  7  9  1  0
  7  6  1  0
  7  8  1  6
  9 10  2  0
 11  5  1  0
 11 12  2  0
 12  2  1  0
 14 13  1  1
 14 16  1  0
 15 14  1  0
 17 16  1  6
 18  9  1  0
 18 17  1  0
 19 21  1  0
 19 17  1  0
 20 19  2  0
 22 21  1  0
 22 23  1  6
 23 24  1  0
 25 22  1  0
 26 25  2  0
 27 25  1  0
M  END
$$$$
