YLC.pdb
     RDKit          3D

 27 27  0  0  1  0  0  0  0  0999 V2000
    6.6154  -20.7357   25.9608 O   0  0  0  0  0  0  0  0  0  0  0  0
    6.8892  -19.9011   24.8840 C   0  0  0  0  0  0  0  0  0  0  0  0
    6.1813  -18.7366   24.7346 C   0  0  0  0  0  0  0  0  0  0  0  0
    6.4600  -17.8984   23.6488 C   0  0  0  0  0  0  0  0  0  0  0  0
    7.4315  -18.2339   22.7387 C   0  0  0  0  0  0  0  0  0  0  0  0
    7.7159  -17.3522   21.6010 C   0  0  0  0  0  0  0  0  0  0  0  0
    7.1260  -15.9768   21.9269 C   0  0  2  0  0  0  0  0  0  0  0  0
    7.3021  -15.1647   20.7385 N   0  0  0  0  0  0  0  0  0  0  0  0
    7.9055  -15.4284   23.0684 C   0  0  0  0  0  0  0  0  0  0  0  0
    9.1211  -15.1447   22.9481 O   0  0  0  0  0  0  0  0  0  0  0  0
    8.1277  -19.4015   22.9049 C   0  0  0  0  0  0  0  0  0  0  0  0
    7.8716  -20.2493   23.9716 C   0  0  0  0  0  0  0  0  0  0  0  0
    5.7094  -11.6088   26.5140 C   0  0  0  0  0  0  0  0  0  0  0  0
    6.7218  -12.3794   25.6726 C   0  0  1  0  0  0  0  0  0  0  0  0
    8.0679  -11.7006   26.0227 C   0  0  0  0  0  0  0  0  0  0  0  0
    6.8615  -13.7888   26.1152 C   0  0  0  0  0  0  0  0  0  0  0  0
    7.9455  -14.5914   25.4437 C   0  0  2  0  0  0  0  0  0  0  0  0
    7.2619  -15.2285   24.2950 N   0  0  0  0  0  0  0  0  0  0  0  0
    8.5268  -15.6610   26.2484 C   0  0  0  0  0  0  0  0  0  0  0  0
    7.7354  -16.5412   26.7391 O   0  0  0  0  0  0  0  0  0  0  0  0
    9.9029  -15.8283   26.5459 N   0  0  0  0  0  0  0  0  0  0  0  0
   10.3042  -16.9923   27.3161 C   0  0  1  0  0  0  0  0  0  0  0  0
   11.4612  -17.6671   26.6162 C   0  0  0  0  0  0  0  0  0  0  0  0
   11.8785  -16.8230   25.0692 S   0  0  0  0  0  0  0  0  0  0  0  0
   10.6866  -16.5454   28.6755 C   0  0  0  0  0  0  0  0  0  0  0  0
   10.5608  -15.3395   29.0239 O   0  0  0  0  0  0  0  0  0  0  0  0
   11.1957  -17.4202   29.6211 O   0  0  0  0  0  0  0  0  0  0  0  0
  2  3  2  0
  2  1  1  0
  4  3  1  0
  5  4  2  0
  6  5  1  0
  7  9  1  0
  7  6  1  0
  7  8  1  6
  9 10  2  0
 11  5  1  0
 11 12  2  0
 12  2  1  0
 14 13  1  1
 14 16  1  0
 15 14  1  0
 17 16  1  1
 18  9  1  0
 18 17  1  0
 19 21  1  0
 19 17  1  0
 20 19  2  0
 22 21  1  0
 22 23  1  6
 23 24  1  0
 25 22  1  0
 26 25  2  0
 27 25  1  0
M  END
$$$$
