YLC.pdb
     RDKit          3D

 27 27  0  0  1  0  0  0  0  0999 V2000
    8.6167  -12.4330   17.2327 O   0  0  0  0  0  0  0  0  0  0  0  0
    8.0648  -13.2831   18.1833 C   0  0  0  0  0  0  0  0  0  0  0  0
    7.5568  -12.7598   19.3442 C   0  0  0  0  0  0  0  0  0  0  0  0
    7.0016  -13.6192   20.2993 C   0  0  0  0  0  0  0  0  0  0  0  0
    6.9633  -14.9742   20.0815 C   0  0  0  0  0  0  0  0  0  0  0  0
    6.3829  -15.8695   21.0885 C   0  0  0  0  0  0  0  0  0  0  0  0
    7.5429  -16.5523   21.8196 C   0  0  2  0  0  0  0  0  0  0  0  0
    6.9620  -17.6422   22.5795 N   0  0  0  0  0  0  0  0  0  0  0  0
    8.1477  -15.5359   22.7210 C   0  0  0  0  0  0  0  0  0  0  0  0
    9.2429  -14.9914   22.4436 O   0  0  0  0  0  0  0  0  0  0  0  0
    7.4759  -15.4779   18.9157 C   0  0  0  0  0  0  0  0  0  0  0  0
    8.0313  -14.6487   17.9533 C   0  0  0  0  0  0  0  0  0  0  0  0
    7.8310  -11.4479   26.2787 C   0  0  0  0  0  0  0  0  0  0  0  0
    7.1578  -12.7454   26.7147 C   0  0  1  0  0  0  0  0  0  0  0  0
    5.7764  -12.2754   27.2306 C   0  0  0  0  0  0  0  0  0  0  0  0
    6.8689  -13.6403   25.5669 C   0  0  0  0  0  0  0  0  0  0  0  0
    8.0642  -14.2618   24.8922 C   0  0  2  0  0  0  0  0  0  0  0  0
    7.4748  -15.1871   23.8975 N   0  0  0  0  0  0  0  0  0  0  0  0
    8.9340  -15.0531   25.7564 C   0  0  0  0  0  0  0  0  0  0  0  0
    8.7812  -14.9441   27.0238 O   0  0  0  0  0  0  0  0  0  0  0  0
    9.9475  -15.9470   25.3275 N   0  0  0  0  0  0  0  0  0  0  0  0
   10.6318  -16.7441   26.3303 C   0  0  1  0  0  0  0  0  0  0  0  0
    9.6197  -17.6169   27.0359 C   0  0  0  0  0  0  0  0  0  0  0  0
   10.4157  -18.6984   28.2511 S   0  0  0  0  0  0  0  0  0  0  0  0
   11.6656  -17.5611   25.6538 C   0  0  0  0  0  0  0  0  0  0  0  0
   11.5117  -17.9509   24.4639 O   0  0  0  0  0  0  0  0  0  0  0  0
   12.8397  -17.9333   26.2875 O   0  0  0  0  0  0  0  0  0  0  0  0
  2  3  2  0
  2  1  1  0
  4  3  1  0
  5  4  2  0
  6  5  1  0
  7  9  1  0
  7  6  1  0
  7  8  1  1
  9 10  2  0
 11  5  1  0
 11 12  2  0
 12  2  1  0
 14 13  1  6
 14 16  1  0
 15 14  1  0
 17 16  1  1
 18  9  1  0
 18 17  1  0
 19 21  1  0
 19 17  1  0
 20 19  2  0
 22 21  1  0
 22 23  1  6
 23 24  1  0
 25 22  1  0
 26 25  2  0
 27 25  1  0
M  END
$$$$
