YLC.pdb
     RDKit          3D

 27 27  0  0  1  0  0  0  0  0999 V2000
    7.0464  -20.6159   17.9706 O   0  0  0  0  0  0  0  0  0  0  0  0
    7.5867  -19.8956   19.0291 C   0  0  0  0  0  0  0  0  0  0  0  0
    8.8748  -19.4339   18.9445 C   0  0  0  0  0  0  0  0  0  0  0  0
    9.4155  -18.7086   20.0126 C   0  0  0  0  0  0  0  0  0  0  0  0
    8.6680  -18.4589   21.1368 C   0  0  0  0  0  0  0  0  0  0  0  0
    9.2424  -17.7009   22.2539 C   0  0  0  0  0  0  0  0  0  0  0  0
    8.6393  -16.2935   22.2126 C   0  0  2  0  0  0  0  0  0  0  0  0
    9.1168  -15.6801   20.9884 N   0  0  0  0  0  0  0  0  0  0  0  0
    9.1470  -15.5673   23.4068 C   0  0  0  0  0  0  0  0  0  0  0  0
   10.3292  -15.1524   23.4606 O   0  0  0  0  0  0  0  0  0  0  0  0
    7.3833  -18.9284   21.2024 C   0  0  0  0  0  0  0  0  0  0  0  0
    6.8237  -19.6492   20.1586 C   0  0  0  0  0  0  0  0  0  0  0  0
    5.6861  -12.3859   26.2520 C   0  0  0  0  0  0  0  0  0  0  0  0
    6.9127  -12.9735   25.5613 C   0  0  1  0  0  0  0  0  0  0  0  0
    7.9536  -11.8315   25.6489 C   0  0  0  0  0  0  0  0  0  0  0  0
    7.4983  -14.1033   26.3245 C   0  0  0  0  0  0  0  0  0  0  0  0
    8.7442  -14.7213   25.7448 C   0  0  2  0  0  0  0  0  0  0  0  0
    8.2821  -15.3474   24.4849 N   0  0  0  0  0  0  0  0  0  0  0  0
    9.3586  -15.7720   26.5497 C   0  0  0  0  0  0  0  0  0  0  0  0
    8.7276  -16.8803   26.6734 O   0  0  0  0  0  0  0  0  0  0  0  0
   10.6057  -15.6893   27.2192 N   0  0  0  0  0  0  0  0  0  0  0  0
   11.0758  -16.8556   27.9456 C   0  0  1  0  0  0  0  0  0  0  0  0
   12.5483  -17.0469   27.6640 C   0  0  0  0  0  0  0  0  0  0  0  0
   12.9126  -16.8527   25.9006 S   0  0  0  0  0  0  0  0  0  0  0  0
   10.8299  -16.6386   29.3900 C   0  0  0  0  0  0  0  0  0  0  0  0
   10.2499  -15.5968   29.8022 O   0  0  0  0  0  0  0  0  0  0  0  0
   11.2201  -17.5587   30.3489 O   0  0  0  0  0  0  0  0  0  0  0  0
  2  3  2  0
  2  1  1  0
  4  3  1  0
  5  4  2  0
  6  5  1  0
  7  9  1  0
  7  6  1  0
  7  8  1  6
  9 10  2  0
 11  5  1  0
 11 12  2  0
 12  2  1  0
 14 13  1  1
 14 16  1  0
 15 14  1  0
 17 16  1  1
 18  9  1  0
 18 17  1  0
 19 21  1  0
 19 17  1  0
 20 19  2  0
 22 21  1  0
 22 23  1  1
 23 24  1  0
 25 22  1  0
 26 25  2  0
 27 25  1  0
M  END
$$$$
