YLC.pdb
     RDKit          3D

 27 27  0  0  1  0  0  0  0  0999 V2000
   12.1281  -17.0559   32.0295 O   0  0  0  0  0  0  0  0  0  0  0  0
   11.5887  -16.9338   30.7547 C   0  0  0  0  0  0  0  0  0  0  0  0
   11.8224  -17.9143   29.8254 C   0  0  0  0  0  0  0  0  0  0  0  0
   11.2773  -17.7879   28.5424 C   0  0  0  0  0  0  0  0  0  0  0  0
   10.5152  -16.6948   28.2117 C   0  0  0  0  0  0  0  0  0  0  0  0
    9.9498  -16.5673   26.8639 C   0  0  0  0  0  0  0  0  0  0  0  0
    8.4948  -17.0416   26.9292 C   0  0  2  0  0  0  0  0  0  0  0  0
    8.5364  -18.4910   26.9120 N   0  0  0  0  0  0  0  0  0  0  0  0
    7.8102  -16.5128   25.7197 C   0  0  0  0  0  0  0  0  0  0  0  0
    7.3448  -17.2843   24.8474 O   0  0  0  0  0  0  0  0  0  0  0  0
   10.2931  -15.7260   29.1538 C   0  0  0  0  0  0  0  0  0  0  0  0
   10.8212  -15.8268   30.4318 C   0  0  0  0  0  0  0  0  0  0  0  0
    7.2781  -11.2024   26.4069 C   0  0  0  0  0  0  0  0  0  0  0  0
    6.9313  -12.6748   26.2106 C   0  0  1  0  0  0  0  0  0  0  0  0
    5.4672  -12.7660   26.7040 C   0  0  0  0  0  0  0  0  0  0  0  0
    6.8909  -13.0549   24.7768 C   0  0  0  0  0  0  0  0  0  0  0  0
    6.8670  -14.5323   24.4818 C   0  0  2  0  0  0  0  0  0  0  0  0
    7.6877  -15.1277   25.5611 N   0  0  0  0  0  0  0  0  0  0  0  0
    7.4671  -14.9304   23.2127 C   0  0  0  0  0  0  0  0  0  0  0  0
    6.7817  -14.7579   22.1440 O   0  0  0  0  0  0  0  0  0  0  0  0
    8.7551  -15.4974   23.0397 N   0  0  0  0  0  0  0  0  0  0  0  0
    9.2102  -15.7728   21.6884 C   0  0  1  0  0  0  0  0  0  0  0  0
    9.2931  -14.4710   20.9251 C   0  0  0  0  0  0  0  0  0  0  0  0
    9.4826  -14.7603   19.1474 S   0  0  0  0  0  0  0  0  0  0  0  0
   10.5332  -16.4345   21.7653 C   0  0  0  0  0  0  0  0  0  0  0  0
   11.1097  -16.6103   22.8736 O   0  0  0  0  0  0  0  0  0  0  0  0
   11.1953  -16.8882   20.6365 O   0  0  0  0  0  0  0  0  0  0  0  0
  2  3  2  0
  2  1  1  0
  4  3  1  0
  5  4  2  0
  6  5  1  0
  7  9  1  0
  7  6  1  0
  7  8  1  6
  9 10  2  0
 11  5  1  0
 11 12  2  0
 12  2  1  0
 14 13  1  6
 14 16  1  0
 15 14  1  0
 17 16  1  1
 18  9  1  0
 18 17  1  0
 19 21  1  0
 19 17  1  0
 20 19  2  0
 22 21  1  0
 22 23  1  6
 23 24  1  0
 25 22  1  0
 26 25  2  0
 27 25  1  0
M  END
$$$$
