YLC.pdb
     RDKit          3D

 27 27  0  0  1  0  0  0  0  0999 V2000
   10.7341  -14.4410   30.1473 O   0  0  0  0  0  0  0  0  0  0  0  0
   10.0890  -14.7141   28.9471 C   0  0  0  0  0  0  0  0  0  0  0  0
    9.5850  -13.6807   28.2005 C   0  0  0  0  0  0  0  0  0  0  0  0
    8.9360  -13.9596   26.9921 C   0  0  0  0  0  0  0  0  0  0  0  0
    8.8023  -15.2537   26.5535 C   0  0  0  0  0  0  0  0  0  0  0  0
    8.1178  -15.5390   25.2876 C   0  0  0  0  0  0  0  0  0  0  0  0
    9.1197  -16.2514   24.3739 C   0  0  2  0  0  0  0  0  0  0  0  0
   10.2646  -15.3691   24.2565 N   0  0  0  0  0  0  0  0  0  0  0  0
    8.4524  -16.4379   23.0581 C   0  0  0  0  0  0  0  0  0  0  0  0
    7.4757  -17.2139   22.9296 O   0  0  0  0  0  0  0  0  0  0  0  0
    9.3124  -16.2724   27.3135 C   0  0  0  0  0  0  0  0  0  0  0  0
    9.9597  -16.0235   28.5140 C   0  0  0  0  0  0  0  0  0  0  0  0
    7.1134  -13.7755   22.0801 C   0  0  0  0  0  0  0  0  0  0  0  0
    7.2622  -13.6322   20.5687 C   0  0  1  0  0  0  0  0  0  0  0  0
    7.8134  -12.1960   20.3985 C   0  0  0  0  0  0  0  0  0  0  0  0
    8.3116  -14.5272   20.0214 C   0  0  0  0  0  0  0  0  0  0  0  0
    8.3622  -15.9196   20.5949 C   0  0  2  0  0  0  0  0  0  0  0  0
    8.9301  -15.7300   21.9493 N   0  0  0  0  0  0  0  0  0  0  0  0
    9.2284  -16.8592   19.8906 C   0  0  0  0  0  0  0  0  0  0  0  0
    8.9515  -17.1320   18.6697 O   0  0  0  0  0  0  0  0  0  0  0  0
   10.3664  -17.5108   20.4298 N   0  0  0  0  0  0  0  0  0  0  0  0
   11.1702  -18.3365   19.5460 C   0  0  1  0  0  0  0  0  0  0  0  0
   12.2069  -17.4671   18.8725 C   0  0  0  0  0  0  0  0  0  0  0  0
   13.4165  -18.4654   17.9670 S   0  0  0  0  0  0  0  0  0  0  0  0
   11.8070  -19.4036   20.3521 C   0  0  0  0  0  0  0  0  0  0  0  0
   12.1164  -20.5124   19.8360 O   0  0  0  0  0  0  0  0  0  0  0  0
   12.0912  -19.2384   21.6976 O   0  0  0  0  0  0  0  0  0  0  0  0
  2  3  2  0
  2  1  1  0
  4  3  1  0
  5  4  2  0
  6  5  1  0
  7  9  1  0
  7  6  1  0
  7  8  1  6
  9 10  2  0
 11  5  1  0
 11 12  2  0
 12  2  1  0
 14 13  1  1
 14 16  1  0
 15 14  1  0
 17 16  1  6
 18  9  1  0
 18 17  1  0
 19 21  1  0
 19 17  1  0
 20 19  2  0
 22 21  1  0
 22 23  1  1
 23 24  1  0
 25 22  1  0
 26 25  2  0
 27 25  1  0
M  END
$$$$
