YLC.pdb
     RDKit          3D

 27 27  0  0  1  0  0  0  0  0999 V2000
    6.0144  -24.0613   28.3869 O   0  0  0  0  0  0  0  0  0  0  0  0
    6.4437  -22.8338   27.8970 C   0  0  0  0  0  0  0  0  0  0  0  0
    5.5248  -21.9459   27.4001 C   0  0  0  0  0  0  0  0  0  0  0  0
    5.9609  -20.7104   26.9076 C   0  0  0  0  0  0  0  0  0  0  0  0
    7.2947  -20.3852   26.9193 C   0  0  0  0  0  0  0  0  0  0  0  0
    7.7451  -19.0897   26.3983 C   0  0  0  0  0  0  0  0  0  0  0  0
    6.9432  -18.8025   25.1252 C   0  0  2  0  0  0  0  0  0  0  0  0
    7.3053  -19.8345   24.1728 N   0  0  0  0  0  0  0  0  0  0  0  0
    7.3606  -17.4597   24.6417 C   0  0  0  0  0  0  0  0  0  0  0  0
    8.1129  -17.3328   23.6463 O   0  0  0  0  0  0  0  0  0  0  0  0
    8.1973  -21.2855   27.4196 C   0  0  0  0  0  0  0  0  0  0  0  0
    7.7918  -22.5159   27.9136 C   0  0  0  0  0  0  0  0  0  0  0  0
    6.8107  -11.9122   24.5066 C   0  0  0  0  0  0  0  0  0  0  0  0
    6.8985  -12.6291   25.8501 C   0  0  1  0  0  0  0  0  0  0  0  0
    5.8108  -11.9295   26.7003 C   0  0  0  0  0  0  0  0  0  0  0  0
    6.4767  -14.0487   25.7567 C   0  0  0  0  0  0  0  0  0  0  0  0
    7.3962  -14.9657   24.9927 C   0  0  2  0  0  0  0  0  0  0  0  0
    6.9002  -16.3230   25.3160 N   0  0  0  0  0  0  0  0  0  0  0  0
    8.8016  -14.9150   25.3820 C   0  0  0  0  0  0  0  0  0  0  0  0
    9.6385  -14.4200   24.5475 O   0  0  0  0  0  0  0  0  0  0  0  0
    9.3438  -15.3644   26.6126 N   0  0  0  0  0  0  0  0  0  0  0  0
   10.7785  -15.2600   26.8119 C   0  0  1  0  0  0  0  0  0  0  0  0
   11.0506  -14.2189   27.8731 C   0  0  0  0  0  0  0  0  0  0  0  0
    9.5733  -13.8900   28.8678 S   0  0  0  0  0  0  0  0  0  0  0  0
   11.2929  -16.5879   27.2191 C   0  0  0  0  0  0  0  0  0  0  0  0
   10.5161  -17.5721   27.3589 O   0  0  0  0  0  0  0  0  0  0  0  0
   12.6376  -16.8123   27.4636 O   0  0  0  0  0  0  0  0  0  0  0  0
  2  3  2  0
  2  1  1  0
  4  3  1  0
  5  4  2  0
  6  5  1  0
  7  9  1  0
  7  6  1  0
  7  8  1  6
  9 10  2  0
 11  5  1  0
 11 12  2  0
 12  2  1  0
 14 13  1  6
 14 16  1  0
 15 14  1  0
 17 16  1  1
 18  9  1  0
 18 17  1  0
 19 21  1  0
 19 17  1  0
 20 19  2  0
 22 21  1  0
 22 23  1  1
 23 24  1  0
 25 22  1  0
 26 25  2  0
 27 25  1  0
M  END
$$$$
