YLC.pdb
     RDKit          3D

 27 27  0  0  1  0  0  0  0  0999 V2000
    6.6874  -19.5215   16.7426 O   0  0  0  0  0  0  0  0  0  0  0  0
    7.2534  -19.0316   17.9133 C   0  0  0  0  0  0  0  0  0  0  0  0
    6.4393  -18.6296   18.9406 C   0  0  0  0  0  0  0  0  0  0  0  0
    7.0130  -18.1369   20.1185 C   0  0  0  0  0  0  0  0  0  0  0  0
    8.3772  -18.0543   20.2496 C   0  0  0  0  0  0  0  0  0  0  0  0
    8.9715  -17.5335   21.4857 C   0  0  0  0  0  0  0  0  0  0  0  0
    9.2152  -16.0350   21.2827 C   0  0  2  0  0  0  0  0  0  0  0  0
   10.3576  -15.9233   20.3964 N   0  0  0  0  0  0  0  0  0  0  0  0
    9.5183  -15.4584   22.6194 C   0  0  0  0  0  0  0  0  0  0  0  0
   10.6955  -15.3932   23.0468 O   0  0  0  0  0  0  0  0  0  0  0  0
    9.1736  -18.4606   19.2122 C   0  0  0  0  0  0  0  0  0  0  0  0
    8.6309  -18.9527   18.0351 C   0  0  0  0  0  0  0  0  0  0  0  0
    8.2082  -12.0917   26.8166 C   0  0  0  0  0  0  0  0  0  0  0  0
    7.2285  -13.2000   26.4443 C   0  0  1  0  0  0  0  0  0  0  0  0
    5.8550  -12.4871   26.4725 C   0  0  0  0  0  0  0  0  0  0  0  0
    7.4078  -13.6600   25.0449 C   0  0  0  0  0  0  0  0  0  0  0  0
    8.6915  -14.3897   24.7451 C   0  0  2  0  0  0  0  0  0  0  0  0
    8.4641  -14.9822   23.4072 N   0  0  0  0  0  0  0  0  0  0  0  0
    9.0198  -15.4843   25.6525 C   0  0  0  0  0  0  0  0  0  0  0  0
    8.2392  -16.5000   25.6754 O   0  0  0  0  0  0  0  0  0  0  0  0
   10.1358  -15.5388   26.5254 N   0  0  0  0  0  0  0  0  0  0  0  0
   10.4379  -16.8002   27.1786 C   0  0  1  0  0  0  0  0  0  0  0  0
   11.8813  -17.1577   26.9085 C   0  0  0  0  0  0  0  0  0  0  0  0
   12.3966  -18.5966   27.8800 S   0  0  0  0  0  0  0  0  0  0  0  0
   10.1857  -16.6483   28.6303 C   0  0  0  0  0  0  0  0  0  0  0  0
    9.6807  -17.5871   29.3049 O   0  0  0  0  0  0  0  0  0  0  0  0
   10.4887  -15.4809   29.3112 O   0  0  0  0  0  0  0  0  0  0  0  0
  2  3  2  0
  2  1  1  0
  4  3  1  0
  5  4  2  0
  6  5  1  0
  7  9  1  0
  7  6  1  0
  7  8  1  6
  9 10  2  0
 11  5  1  0
 11 12  2  0
 12  2  1  0
 14 13  1  6
 14 16  1  0
 15 14  1  0
 17 16  1  1
 18  9  1  0
 18 17  1  0
 19 21  1  0
 19 17  1  0
 20 19  2  0
 22 21  1  0
 22 23  1  1
 23 24  1  0
 25 22  1  0
 26 25  2  0
 27 25  1  0
M  END
$$$$
