YLC.pdb
     RDKit          3D

 27 27  0  0  1  0  0  0  0  0999 V2000
    7.7803  -13.7624   16.1578 O   0  0  0  0  0  0  0  0  0  0  0  0
    7.8251  -14.1907   17.4790 C   0  0  0  0  0  0  0  0  0  0  0  0
    7.8675  -15.5334   17.7530 C   0  0  0  0  0  0  0  0  0  0  0  0
    7.9127  -15.9611   19.0850 C   0  0  0  0  0  0  0  0  0  0  0  0
    7.9147  -15.0495   20.1116 C   0  0  0  0  0  0  0  0  0  0  0  0
    7.9588  -15.5051   21.5055 C   0  0  0  0  0  0  0  0  0  0  0  0
    9.1661  -14.8359   22.1697 C   0  0  2  0  0  0  0  0  0  0  0  0
   10.3437  -15.4764   21.6166 N   0  0  0  0  0  0  0  0  0  0  0  0
    9.0560  -15.0912   23.6305 C   0  0  0  0  0  0  0  0  0  0  0  0
    9.9493  -15.7168   24.2496 O   0  0  0  0  0  0  0  0  0  0  0  0
    7.8719  -13.7126   19.8177 C   0  0  0  0  0  0  0  0  0  0  0  0
    7.8268  -13.2625   18.5071 C   0  0  0  0  0  0  0  0  0  0  0  0
    5.4391  -11.6478   26.3058 C   0  0  0  0  0  0  0  0  0  0  0  0
    6.7373  -12.3716   25.9631 C   0  0  1  0  0  0  0  0  0  0  0  0
    7.7031  -11.9244   27.0867 C   0  0  0  0  0  0  0  0  0  0  0  0
    6.6139  -13.8432   26.1087 C   0  0  0  0  0  0  0  0  0  0  0  0
    7.8493  -14.6473   25.7964 C   0  0  2  0  0  0  0  0  0  0  0  0
    7.9316  -14.6204   24.3181 N   0  0  0  0  0  0  0  0  0  0  0  0
    7.8073  -16.0484   26.2017 C   0  0  0  0  0  0  0  0  0  0  0  0
    7.7029  -16.3091   27.4519 O   0  0  0  0  0  0  0  0  0  0  0  0
    7.8699  -17.1700   25.3365 N   0  0  0  0  0  0  0  0  0  0  0  0
    7.9245  -18.4946   25.9294 C   0  0  1  0  0  0  0  0  0  0  0  0
    7.1518  -19.4546   25.0544 C   0  0  0  0  0  0  0  0  0  0  0  0
    5.9172  -18.5862   24.0537 S   0  0  0  0  0  0  0  0  0  0  0  0
    9.3450  -18.8983   26.0442 C   0  0  0  0  0  0  0  0  0  0  0  0
   10.2660  -18.1833   25.5626 O   0  0  0  0  0  0  0  0  0  0  0  0
    9.7280  -20.0681   26.6794 O   0  0  0  0  0  0  0  0  0  0  0  0
  2  3  2  0
  2  1  1  0
  4  3  1  0
  5  4  2  0
  6  5  1  0
  7  9  1  0
  7  6  1  0
  7  8  1  6
  9 10  2  0
 11  5  1  0
 11 12  2  0
 12  2  1  0
 14 13  1  1
 14 16  1  0
 15 14  1  0
 17 16  1  6
 18  9  1  0
 18 17  1  0
 19 21  1  0
 19 17  1  0
 20 19  2  0
 22 21  1  0
 22 23  1  6
 23 24  1  0
 25 22  1  0
 26 25  2  0
 27 25  1  0
M  END
$$$$
