YLC.pdb
     RDKit          3D

 27 27  0  0  1  0  0  0  0  0999 V2000
   15.9000  -20.8004   14.8920 O   0  0  0  0  0  0  0  0  0  0  0  0
   15.3623  -19.8665   15.7694 C   0  0  0  0  0  0  0  0  0  0  0  0
   16.1931  -18.9811   16.4063 C   0  0  0  0  0  0  0  0  0  0  0  0
   15.6479  -18.0417   17.2892 C   0  0  0  0  0  0  0  0  0  0  0  0
   14.2949  -18.0025   17.5194 C   0  0  0  0  0  0  0  0  0  0  0  0
   13.7307  -17.0174   18.4487 C   0  0  0  0  0  0  0  0  0  0  0  0
   13.0991  -15.9028   17.6092 C   0  0  2  0  0  0  0  0  0  0  0  0
   14.1837  -15.2789   16.8760 N   0  0  0  0  0  0  0  0  0  0  0  0
   12.4753  -14.9432   18.5586 C   0  0  0  0  0  0  0  0  0  0  0  0
   13.1753  -14.1635   19.2476 O   0  0  0  0  0  0  0  0  0  0  0  0
   13.4815  -18.8953   16.8738 C   0  0  0  0  0  0  0  0  0  0  0  0
   13.9959  -19.8356   15.9943 C   0  0  0  0  0  0  0  0  0  0  0  0
    8.1628  -11.7341   19.8943 C   0  0  0  0  0  0  0  0  0  0  0  0
    8.0095  -13.2473   20.0112 C   0  0  1  0  0  0  0  0  0  0  0  0
    6.6178  -13.5146   19.3892 C   0  0  0  0  0  0  0  0  0  0  0  0
    8.9747  -13.9765   19.1518 C   0  0  0  0  0  0  0  0  0  0  0  0
   10.3946  -14.0381   19.6521 C   0  0  2  0  0  0  0  0  0  0  0  0
   11.0811  -14.9172   18.6781 N   0  0  0  0  0  0  0  0  0  0  0  0
   10.5714  -14.6343   20.9722 C   0  0  0  0  0  0  0  0  0  0  0  0
   10.0911  -14.0097   21.9825 O   0  0  0  0  0  0  0  0  0  0  0  0
   11.2313  -15.8572   21.2543 N   0  0  0  0  0  0  0  0  0  0  0  0
   11.3001  -16.2995   22.6358 C   0  0  1  0  0  0  0  0  0  0  0  0
    9.9781  -16.9257   23.0156 C   0  0  0  0  0  0  0  0  0  0  0  0
   10.0453  -17.6527   24.6730 S   0  0  0  0  0  0  0  0  0  0  0  0
   12.4101  -17.2723   22.7616 C   0  0  0  0  0  0  0  0  0  0  0  0
   12.8148  -17.9306   21.7644 O   0  0  0  0  0  0  0  0  0  0  0  0
   13.0515  -17.5044   23.9671 O   0  0  0  0  0  0  0  0  0  0  0  0
  2  3  2  0
  2  1  1  0
  4  3  1  0
  5  4  2  0
  6  5  1  0
  7  9  1  0
  7  6  1  0
  7  8  1  1
  9 10  2  0
 11  5  1  0
 11 12  2  0
 12  2  1  0
 14 13  1  6
 14 16  1  0
 15 14  1  0
 17 16  1  6
 18  9  1  0
 18 17  1  0
 19 21  1  0
 19 17  1  0
 20 19  2  0
 22 21  1  0
 22 23  1  6
 23 24  1  0
 25 22  1  0
 26 25  2  0
 27 25  1  0
M  END
$$$$
