VMR.pdb
     RDKit          3D

 27 26  0  0  1  0  0  0  0  0999 V2000
   26.8021  -20.1623  -16.6451 C   0  0  0  0  0  0  0  0  0  0  0  0
   25.9471  -20.5076  -15.4599 C   0  0  1  0  0  0  0  0  0  0  0  0
   24.5203  -20.8093  -15.8483 C   0  0  0  0  0  0  0  0  0  0  0  0
   26.5914  -21.6491  -14.6958 C   0  0  2  0  0  0  0  0  0  0  0  0
   26.4964  -22.8915  -15.4509 N   0  0  0  0  0  0  0  0  0  0  0  0
   25.8358  -21.8104  -13.4403 C   0  0  0  0  0  0  0  0  0  0  0  0
   25.0201  -22.7467  -13.3302 O   0  0  0  0  0  0  0  0  0  0  0  0
   27.4508  -20.3445   -7.0603 C   0  0  0  0  0  0  0  0  0  0  0  0
   25.6631  -20.0757   -7.1080 S   0  0  0  0  0  0  0  0  0  0  0  0
   24.9632  -20.7404   -8.6031 C   0  0  0  0  0  0  0  0  0  0  0  0
   25.7425  -20.4632   -9.8658 C   0  0  0  0  0  0  0  0  0  0  0  0
   25.2483  -21.0957  -11.0918 C   0  0  2  0  0  0  0  0  0  0  0  0
   25.9469  -20.9761  -12.3006 N   0  0  0  0  0  0  0  0  0  0  0  0
   23.8367  -20.6870  -11.3208 C   0  0  0  0  0  0  0  0  0  0  0  0
   23.5890  -19.6520  -11.9874 O   0  0  0  0  0  0  0  0  0  0  0  0
   18.0400  -25.1741   -7.0657 N   0  0  0  0  0  0  0  0  0  0  0  0
   18.7136  -25.2645   -8.3209 C   0  0  0  0  0  0  0  0  0  0  0  0
   18.6894  -26.3439   -8.9981 N   0  0  0  0  0  0  0  0  0  0  0  0
   19.4340  -24.1639   -8.8652 N   0  0  0  0  0  0  0  0  0  0  0  0
   19.4172  -22.8700   -8.2315 C   0  0  0  0  0  0  0  0  0  0  0  0
   20.2096  -21.8199   -8.9161 C   0  0  0  0  0  0  0  0  0  0  0  0
   20.4960  -21.9027  -10.3405 C   0  0  0  0  0  0  0  0  0  0  0  0
   21.3127  -20.9271  -11.0851 C   0  0  2  0  0  0  0  0  0  0  0  0
   22.7338  -21.4104  -10.8220 N   0  0  0  0  0  0  0  0  0  0  0  0
   21.2820  -19.5245  -10.6756 C   0  0  0  0  0  0  0  0  0  0  0  0
   20.3609  -18.7477  -11.1502 O   0  0  0  0  0  0  0  0  0  0  0  0
   22.1365  -18.8979   -9.8111 O   0  0  0  0  0  0  0  0  0  0  0  0
  2  1  1  6
  2  3  1  0
  4  6  1  0
  4  2  1  0
  4  5  1  6
  6  7  2  0
  9  8  1  0
 10  9  1  0
 11 10  1  0
 12 11  1  1
 13  6  1  0
 13 12  1  0
 14 15  2  0
 14 12  1  0
 16 17  1  0
 17 18  2  0
 19 17  1  0
 19 20  1  0
 20 21  1  0
 21 22  1  0
 23 22  1  1
 23 24  1  0
 24 14  1  0
 25 23  1  0
 25 27  1  0
 26 25  2  0
M  END
$$$$
