VMR.pdb
     RDKit          3D

 27 26  0  0  1  0  0  0  0  0999 V2000
   18.5588  -20.1059  -12.8899 C   0  0  0  0  0  0  0  0  0  0  0  0
   19.9579  -19.7877  -12.4470 C   0  0  1  0  0  0  0  0  0  0  0  0
   20.0441  -19.5149  -10.9651 C   0  0  0  0  0  0  0  0  0  0  0  0
   20.8856  -20.9062  -12.8833 C   0  0  2  0  0  0  0  0  0  0  0  0
   20.5516  -22.1480  -12.1981 N   0  0  0  0  0  0  0  0  0  0  0  0
   22.2515  -20.5132  -12.4916 C   0  0  0  0  0  0  0  0  0  0  0  0
   22.7770  -19.5120  -13.0164 O   0  0  0  0  0  0  0  0  0  0  0  0
   28.1013  -19.8802   -7.3328 C   0  0  0  0  0  0  0  0  0  0  0  0
   26.5489  -20.7296   -7.7054 S   0  0  0  0  0  0  0  0  0  0  0  0
   26.2441  -20.7502   -9.4586 C   0  0  0  0  0  0  0  0  0  0  0  0
   24.9189  -21.3361   -9.8820 C   0  0  0  0  0  0  0  0  0  0  0  0
   24.3602  -20.8456  -11.1447 C   0  0  2  0  0  0  0  0  0  0  0  0
   23.0598  -21.1848  -11.5414 N   0  0  0  0  0  0  0  0  0  0  0  0
   25.2928  -21.1751  -12.2554 C   0  0  0  0  0  0  0  0  0  0  0  0
   25.4293  -22.3691  -12.6198 O   0  0  0  0  0  0  0  0  0  0  0  0
   28.8424  -19.1128  -19.0545 N   0  0  0  0  0  0  0  0  0  0  0  0
   27.6801  -18.3041  -19.2353 C   0  0  0  0  0  0  0  0  0  0  0  0
   27.1441  -18.1799  -20.3849 N   0  0  0  0  0  0  0  0  0  0  0  0
   27.0753  -17.6088  -18.1502 N   0  0  0  0  0  0  0  0  0  0  0  0
   27.6038  -17.7013  -16.8131 C   0  0  0  0  0  0  0  0  0  0  0  0
   27.5352  -19.0487  -16.1974 C   0  0  0  0  0  0  0  0  0  0  0  0
   26.9200  -19.2494  -14.8939 C   0  0  0  0  0  0  0  0  0  0  0  0
   26.7728  -20.5593  -14.2339 C   0  0  2  0  0  0  0  0  0  0  0  0
   26.0506  -20.2028  -12.9402 N   0  0  0  0  0  0  0  0  0  0  0  0
   27.9762  -21.2869  -13.8361 C   0  0  0  0  0  0  0  0  0  0  0  0
   28.5669  -22.0508  -14.6989 O   0  0  0  0  0  0  0  0  0  0  0  0
   28.5917  -21.2597  -12.6152 O   0  0  0  0  0  0  0  0  0  0  0  0
  2  1  1  1
  2  3  1  0
  4  6  1  0
  4  2  1  0
  4  5  1  1
  6  7  2  0
  9  8  1  0
 10  9  1  0
 11 10  1  0
 12 11  1  1
 13  6  1  0
 13 12  1  0
 14 15  2  0
 14 12  1  0
 16 17  1  0
 17 18  2  0
 19 17  1  0
 19 20  1  0
 20 21  1  0
 21 22  1  0
 23 22  1  1
 23 24  1  0
 24 14  1  0
 25 23  1  0
 25 27  1  0
 26 25  2  0
M  END
$$$$
