VMR.pdb
     RDKit          3D

 27 26  0  0  1  0  0  0  0  0999 V2000
   27.8582  -20.3835  -12.3509 C   0  0  0  0  0  0  0  0  0  0  0  0
   26.8150  -21.1893  -11.6318 C   0  0  1  0  0  0  0  0  0  0  0  0
   27.1633  -21.4176  -10.1811 C   0  0  0  0  0  0  0  0  0  0  0  0
   25.4634  -20.5215  -11.8030 C   0  0  2  0  0  0  0  0  0  0  0  0
   24.4092  -21.3356  -11.2124 N   0  0  0  0  0  0  0  0  0  0  0  0
   25.2124  -20.4176  -13.2520 C   0  0  0  0  0  0  0  0  0  0  0  0
   24.8522  -21.4280  -13.8871 O   0  0  0  0  0  0  0  0  0  0  0  0
   19.9441  -17.7807  -16.4292 C   0  0  0  0  0  0  0  0  0  0  0  0
   21.6752  -17.4730  -16.8525 S   0  0  0  0  0  0  0  0  0  0  0  0
   22.7615  -18.3558  -15.7536 C   0  0  0  0  0  0  0  0  0  0  0  0
   24.2361  -18.1025  -15.9540 C   0  0  0  0  0  0  0  0  0  0  0  0
   25.1525  -19.1075  -15.4088 C   0  0  2  0  0  0  0  0  0  0  0  0
   25.3443  -19.2388  -14.0269 N   0  0  0  0  0  0  0  0  0  0  0  0
   26.4830  -18.9626  -16.0576 C   0  0  0  0  0  0  0  0  0  0  0  0
   27.4757  -18.6166  -15.3708 O   0  0  0  0  0  0  0  0  0  0  0  0
   31.0521  -24.2337  -15.2668 N   0  0  0  0  0  0  0  0  0  0  0  0
   30.6970  -24.8860  -16.4859 C   0  0  0  0  0  0  0  0  0  0  0  0
   31.5148  -25.6715  -17.0676 N   0  0  0  0  0  0  0  0  0  0  0  0
   29.4270  -24.6893  -17.0981 N   0  0  0  0  0  0  0  0  0  0  0  0
   28.5577  -23.6143  -16.6924 C   0  0  0  0  0  0  0  0  0  0  0  0
   28.7578  -22.3331  -17.4118 C   0  0  0  0  0  0  0  0  0  0  0  0
   27.9118  -21.1798  -17.1432 C   0  0  0  0  0  0  0  0  0  0  0  0
   27.9601  -19.9156  -17.8998 C   0  0  2  0  0  0  0  0  0  0  0  0
   26.7009  -19.1967  -17.4310 N   0  0  0  0  0  0  0  0  0  0  0  0
   27.8770  -19.9638  -19.3582 C   0  0  0  0  0  0  0  0  0  0  0  0
   26.7192  -20.1053  -19.9208 O   0  0  0  0  0  0  0  0  0  0  0  0
   28.9114  -19.8684  -20.2476 O   0  0  0  0  0  0  0  0  0  0  0  0
  2  1  1  1
  2  3  1  0
  4  6  1  0
  4  2  1  0
  4  5  1  1
  6  7  2  0
  9  8  1  0
 10  9  1  0
 11 10  1  0
 12 11  1  1
 13  6  1  0
 13 12  1  0
 14 15  2  0
 14 12  1  0
 16 17  1  0
 17 18  2  0
 19 17  1  0
 19 20  1  0
 20 21  1  0
 21 22  1  0
 23 22  1  1
 23 24  1  0
 24 14  1  0
 25 23  1  0
 25 27  1  0
 26 25  2  0
M  END
$$$$
