VMR.pdb
     RDKit          3D

 27 26  0  0  1  0  0  0  0  0999 V2000
   13.7091  -13.4565  -13.2015 C   0  0  0  0  0  0  0  0  0  0  0  0
   13.4696  -12.0965  -12.6118 C   0  0  1  0  0  0  0  0  0  0  0  0
   12.6592  -12.1556  -11.3399 C   0  0  0  0  0  0  0  0  0  0  0  0
   14.8013  -11.3962  -12.4162 C   0  0  2  0  0  0  0  0  0  0  0  0
   15.5963  -12.0772  -11.4027 N   0  0  0  0  0  0  0  0  0  0  0  0
   14.5073  -10.0334  -11.9367 C   0  0  0  0  0  0  0  0  0  0  0  0
   13.8896   -9.2421  -12.6758 O   0  0  0  0  0  0  0  0  0  0  0  0
   12.9130   -4.4439   -6.6277 C   0  0  0  0  0  0  0  0  0  0  0  0
   13.0809   -6.2145   -6.9549 S   0  0  0  0  0  0  0  0  0  0  0  0
   13.8702   -6.4955   -8.5250 C   0  0  0  0  0  0  0  0  0  0  0  0
   14.1055   -7.9424   -8.8854 C   0  0  0  0  0  0  0  0  0  0  0  0
   14.6798   -8.2020  -10.2083 C   0  0  2  0  0  0  0  0  0  0  0  0
   14.8703   -9.5110  -10.6708 N   0  0  0  0  0  0  0  0  0  0  0  0
   15.9645   -7.4641  -10.3395 C   0  0  0  0  0  0  0  0  0  0  0  0
   17.0216   -7.9703   -9.8886 O   0  0  0  0  0  0  0  0  0  0  0  0
   21.0396   -9.6039  -15.4929 N   0  0  0  0  0  0  0  0  0  0  0  0
   21.6274   -9.3233  -14.2227 C   0  0  0  0  0  0  0  0  0  0  0  0
   22.6363   -9.9839  -13.8105 N   0  0  0  0  0  0  0  0  0  0  0  0
   21.1173   -8.3037  -13.3703 N   0  0  0  0  0  0  0  0  0  0  0  0
   19.7537   -7.8508  -13.4762 C   0  0  0  0  0  0  0  0  0  0  0  0
   19.3454   -6.8337  -12.4772 C   0  0  0  0  0  0  0  0  0  0  0  0
   17.9508   -6.4462  -12.3254 C   0  0  0  0  0  0  0  0  0  0  0  0
   17.4361   -5.5914  -11.2403 C   0  0  2  0  0  0  0  0  0  0  0  0
   16.0682   -6.1998  -10.9554 N   0  0  0  0  0  0  0  0  0  0  0  0
   17.1983   -4.1752  -11.5117 C   0  0  0  0  0  0  0  0  0  0  0  0
   16.0489   -3.8058  -11.9800 O   0  0  0  0  0  0  0  0  0  0  0  0
   18.0713   -3.1400  -11.3206 O   0  0  0  0  0  0  0  0  0  0  0  0
  2  1  1  1
  2  3  1  0
  4  6  1  0
  4  2  1  0
  4  5  1  1
  6  7  2  0
  9  8  1  0
 10  9  1  0
 11 10  1  0
 12 11  1  1
 13  6  1  0
 13 12  1  0
 14 15  2  0
 14 12  1  0
 16 17  1  0
 17 18  2  0
 19 17  1  0
 19 20  1  0
 20 21  1  0
 21 22  1  0
 23 22  1  6
 23 24  1  0
 24 14  1  0
 25 23  1  0
 25 27  1  0
 26 25  2  0
M  END
$$$$
