VMR.pdb
     RDKit          3D

 27 26  0  0  1  0  0  0  0  0999 V2000
   26.8983  -18.1488  -13.4789 C   0  0  0  0  0  0  0  0  0  0  0  0
   27.2860  -19.2365  -14.4388 C   0  0  1  0  0  0  0  0  0  0  0  0
   28.0341  -18.7060  -15.6375 C   0  0  0  0  0  0  0  0  0  0  0  0
   28.0685  -20.3024  -13.6949 C   0  0  2  0  0  0  0  0  0  0  0  0
   28.3365  -21.4425  -14.5618 N   0  0  0  0  0  0  0  0  0  0  0  0
   27.2232  -20.7587  -12.5767 C   0  0  0  0  0  0  0  0  0  0  0  0
   26.2698  -21.5297  -12.8020 O   0  0  0  0  0  0  0  0  0  0  0  0
   27.8690  -19.4079   -5.9261 C   0  0  0  0  0  0  0  0  0  0  0  0
   26.7106  -20.7949   -5.9942 S   0  0  0  0  0  0  0  0  0  0  0  0
   26.1297  -21.0528   -7.6565 C   0  0  0  0  0  0  0  0  0  0  0  0
   27.0549  -20.5772   -8.7503 C   0  0  0  0  0  0  0  0  0  0  0  0
   26.6123  -20.8081  -10.1280 C   0  0  2  0  0  0  0  0  0  0  0  0
   27.3909  -20.3954  -11.2175 N   0  0  0  0  0  0  0  0  0  0  0  0
   25.2375  -20.2672  -10.2994 C   0  0  0  0  0  0  0  0  0  0  0  0
   25.0648  -19.0276  -10.4016 O   0  0  0  0  0  0  0  0  0  0  0  0
   23.1951  -20.1124  -16.6131 N   0  0  0  0  0  0  0  0  0  0  0  0
   21.8388  -19.6935  -16.4619 C   0  0  0  0  0  0  0  0  0  0  0  0
   21.3297  -18.8334  -17.2526 N   0  0  0  0  0  0  0  0  0  0  0  0
   21.0049  -20.2134  -15.4320 N   0  0  0  0  0  0  0  0  0  0  0  0
   21.5042  -21.1642  -14.4716 C   0  0  0  0  0  0  0  0  0  0  0  0
   21.5135  -20.6965  -13.0643 C   0  0  0  0  0  0  0  0  0  0  0  0
   22.6795  -20.8902  -12.2153 C   0  0  0  0  0  0  0  0  0  0  0  0
   22.7508  -20.5017  -10.7950 C   0  0  2  0  0  0  0  0  0  0  0  0
   24.0891  -21.0836  -10.3558 N   0  0  0  0  0  0  0  0  0  0  0  0
   21.7555  -21.0359   -9.8677 C   0  0  0  0  0  0  0  0  0  0  0  0
   22.1290  -21.8739   -8.9538 O   0  0  0  0  0  0  0  0  0  0  0  0
   20.4191  -20.7475   -9.8347 O   0  0  0  0  0  0  0  0  0  0  0  0
  2  1  1  1
  2  3  1  0
  4  6  1  0
  4  2  1  0
  4  5  1  6
  6  7  2  0
  9  8  1  0
 10  9  1  0
 11 10  1  0
 12 11  1  1
 13  6  1  0
 13 12  1  0
 14 15  2  0
 14 12  1  0
 16 17  1  0
 17 18  2  0
 19 17  1  0
 19 20  1  0
 20 21  1  0
 21 22  1  0
 23 22  1  6
 23 24  1  0
 24 14  1  0
 25 23  1  0
 25 27  1  0
 26 25  2  0
M  END
$$$$
