VMR.pdb
     RDKit          3D

 27 26  0  0  1  0  0  0  0  0999 V2000
   28.8181  -21.8545  -13.9356 C   0  0  0  0  0  0  0  0  0  0  0  0
   29.0974  -20.4515  -13.4789 C   0  0  1  0  0  0  0  0  0  0  0  0
   29.9777  -19.6967  -14.4449 C   0  0  0  0  0  0  0  0  0  0  0  0
   27.7825  -19.7405  -13.2192 C   0  0  2  0  0  0  0  0  0  0  0  0
   28.0135  -18.3480  -12.8582 N   0  0  0  0  0  0  0  0  0  0  0  0
   27.1436  -20.4164  -12.0754 C   0  0  0  0  0  0  0  0  0  0  0  0
   26.5614  -21.5045  -12.2516 O   0  0  0  0  0  0  0  0  0  0  0  0
   28.7519  -18.6096   -5.9532 C   0  0  0  0  0  0  0  0  0  0  0  0
   27.9784  -20.2438   -5.9131 S   0  0  0  0  0  0  0  0  0  0  0  0
   27.6016  -20.8059   -7.5591 C   0  0  0  0  0  0  0  0  0  0  0  0
   26.5768  -19.9883   -8.3073 C   0  0  0  0  0  0  0  0  0  0  0  0
   26.3100  -20.3830   -9.6930 C   0  0  2  0  0  0  0  0  0  0  0  0
   27.1231  -19.9355  -10.7428 N   0  0  0  0  0  0  0  0  0  0  0  0
   24.8945  -20.0730  -10.0282 C   0  0  0  0  0  0  0  0  0  0  0  0
   24.5193  -18.8767  -10.0984 O   0  0  0  0  0  0  0  0  0  0  0  0
   21.6169  -22.2410  -16.4803 N   0  0  0  0  0  0  0  0  0  0  0  0
   20.3977  -21.6029  -16.1008 C   0  0  0  0  0  0  0  0  0  0  0  0
   19.2937  -21.9266  -16.6491 N   0  0  0  0  0  0  0  0  0  0  0  0
   20.3626  -20.5879  -15.1033 N   0  0  0  0  0  0  0  0  0  0  0  0
   21.4567  -20.4018  -14.1845 C   0  0  0  0  0  0  0  0  0  0  0  0
   21.7449  -21.5578  -13.3014 C   0  0  0  0  0  0  0  0  0  0  0  0
   22.7716  -21.4808  -12.2729 C   0  0  0  0  0  0  0  0  0  0  0  0
   22.6389  -20.7199  -11.0173 C   0  0  2  0  0  0  0  0  0  0  0  0
   23.9258  -21.0668  -10.2783 N   0  0  0  0  0  0  0  0  0  0  0  0
   21.5477  -21.0527  -10.1039 C   0  0  0  0  0  0  0  0  0  0  0  0
   21.7589  -21.9032   -9.1504 O   0  0  0  0  0  0  0  0  0  0  0  0
   20.2742  -20.5545  -10.1227 O   0  0  0  0  0  0  0  0  0  0  0  0
  2  1  1  6
  2  3  1  0
  4  6  1  0
  4  2  1  0
  4  5  1  1
  6  7  2  0
  9  8  1  0
 10  9  1  0
 11 10  1  0
 12 11  1  1
 13  6  1  0
 13 12  1  0
 14 15  2  0
 14 12  1  0
 16 17  1  0
 17 18  2  0
 19 17  1  0
 19 20  1  0
 20 21  1  0
 21 22  1  0
 23 22  1  6
 23 24  1  0
 24 14  1  0
 25 23  1  0
 25 27  1  0
 26 25  2  0
M  END
$$$$
