VMR.pdb
     RDKit          3D

 27 26  0  0  1  0  0  0  0  0999 V2000
   28.1724  -18.1436  -14.8312 C   0  0  0  0  0  0  0  0  0  0  0  0
   27.1734  -18.8524  -13.9626 C   0  0  1  0  0  0  0  0  0  0  0  0
   25.8762  -19.1262  -14.6837 C   0  0  0  0  0  0  0  0  0  0  0  0
   27.8033  -20.1160  -13.4071 C   0  0  2  0  0  0  0  0  0  0  0  0
   27.9866  -21.1053  -14.4610 N   0  0  0  0  0  0  0  0  0  0  0  0
   26.8645  -20.6664  -12.4126 C   0  0  0  0  0  0  0  0  0  0  0  0
   26.1105  -21.6059  -12.7335 O   0  0  0  0  0  0  0  0  0  0  0  0
   26.3338  -20.0783   -5.6099 C   0  0  0  0  0  0  0  0  0  0  0  0
   27.8059  -20.6999   -6.4566 S   0  0  0  0  0  0  0  0  0  0  0  0
   27.4560  -21.0363   -8.1688 C   0  0  0  0  0  0  0  0  0  0  0  0
   26.1258  -20.5311   -8.6727 C   0  0  0  0  0  0  0  0  0  0  0  0
   25.8533  -20.7177  -10.1003 C   0  0  2  0  0  0  0  0  0  0  0  0
   26.7268  -20.2182  -11.0756 N   0  0  0  0  0  0  0  0  0  0  0  0
   24.4802  -20.2348  -10.4056 C   0  0  0  0  0  0  0  0  0  0  0  0
   24.2685  -19.0040  -10.5379 O   0  0  0  0  0  0  0  0  0  0  0  0
   22.7825  -16.6363  -15.8188 N   0  0  0  0  0  0  0  0  0  0  0  0
   21.7098  -17.4564  -16.2818 C   0  0  0  0  0  0  0  0  0  0  0  0
   20.7370  -16.9520  -16.9326 N   0  0  0  0  0  0  0  0  0  0  0  0
   21.6808  -18.8588  -16.0395 N   0  0  0  0  0  0  0  0  0  0  0  0
   22.5463  -19.4687  -15.0623 C   0  0  0  0  0  0  0  0  0  0  0  0
   21.9181  -19.7502  -13.7487 C   0  0  0  0  0  0  0  0  0  0  0  0
   22.6732  -20.3742  -12.6724 C   0  0  0  0  0  0  0  0  0  0  0  0
   22.1397  -20.6388  -11.3239 C   0  0  2  0  0  0  0  0  0  0  0  0
   23.3755  -21.0977  -10.5594 N   0  0  0  0  0  0  0  0  0  0  0  0
   21.1455  -21.6965  -11.1546 C   0  0  0  0  0  0  0  0  0  0  0  0
   21.5441  -22.9154  -10.9742 O   0  0  0  0  0  0  0  0  0  0  0  0
   19.7849  -21.5587  -11.1562 O   0  0  0  0  0  0  0  0  0  0  0  0
  2  1  1  6
  2  3  1  0
  4  6  1  0
  4  2  1  0
  4  5  1  6
  6  7  2  0
  9  8  1  0
 10  9  1  0
 11 10  1  0
 12 11  1  1
 13  6  1  0
 13 12  1  0
 14 15  2  0
 14 12  1  0
 16 17  1  0
 17 18  2  0
 19 17  1  0
 19 20  1  0
 20 21  1  0
 21 22  1  0
 23 22  1  6
 23 24  1  0
 24 14  1  0
 25 23  1  0
 25 27  1  0
 26 25  2  0
M  END
$$$$
