VMR.pdb
     RDKit          3D

 27 26  0  0  1  0  0  0  0  0999 V2000
   18.6353  -20.3085  -14.3320 C   0  0  0  0  0  0  0  0  0  0  0  0
   20.0182  -20.4588  -14.8975 C   0  0  1  0  0  0  0  0  0  0  0  0
   20.1532  -21.6835  -15.7691 C   0  0  0  0  0  0  0  0  0  0  0  0
   20.3993  -19.1849  -15.6283 C   0  0  2  0  0  0  0  0  0  0  0  0
   19.5188  -18.9627  -16.7677 N   0  0  0  0  0  0  0  0  0  0  0  0
   21.7724  -19.3694  -16.1323 C   0  0  0  0  0  0  0  0  0  0  0  0
   21.9528  -19.9191  -17.2365 O   0  0  0  0  0  0  0  0  0  0  0  0
   27.2559  -16.0141  -14.2686 C   0  0  0  0  0  0  0  0  0  0  0  0
   27.7923  -16.8692  -15.7691 S   0  0  0  0  0  0  0  0  0  0  0  0
   26.6069  -18.1063  -16.2502 C   0  0  0  0  0  0  0  0  0  0  0  0
   25.2373  -17.9714  -15.6301 C   0  0  0  0  0  0  0  0  0  0  0  0
   24.2659  -19.0192  -15.9549 C   0  0  2  0  0  0  0  0  0  0  0  0
   22.9550  -18.9693  -15.4624 N   0  0  0  0  0  0  0  0  0  0  0  0
   24.8452  -20.3473  -15.6192 C   0  0  0  0  0  0  0  0  0  0  0  0
   24.7420  -20.7935  -14.4499 O   0  0  0  0  0  0  0  0  0  0  0  0
   23.8418  -27.1093  -14.4591 N   0  0  0  0  0  0  0  0  0  0  0  0
   22.8992  -26.0700  -14.1966 C   0  0  0  0  0  0  0  0  0  0  0  0
   22.3502  -25.9610  -13.0517 N   0  0  0  0  0  0  0  0  0  0  0  0
   22.5356  -25.1198  -15.1923 N   0  0  0  0  0  0  0  0  0  0  0  0
   23.2139  -25.0681  -16.4624 C   0  0  0  0  0  0  0  0  0  0  0  0
   24.6526  -24.7142  -16.3973 C   0  0  0  0  0  0  0  0  0  0  0  0
   25.1368  -23.4385  -16.9034 C   0  0  0  0  0  0  0  0  0  0  0  0
   26.0333  -22.5332  -16.1620 C   0  0  2  0  0  0  0  0  0  0  0  0
   25.5192  -21.1545  -16.5587 N   0  0  0  0  0  0  0  0  0  0  0  0
   27.4597  -22.5379  -16.4801 C   0  0  0  0  0  0  0  0  0  0  0  0
   28.2009  -23.5065  -16.0448 O   0  0  0  0  0  0  0  0  0  0  0  0
   28.1443  -21.6118  -17.2175 O   0  0  0  0  0  0  0  0  0  0  0  0
  2  1  1  6
  2  3  1  0
  4  6  1  0
  4  2  1  0
  4  5  1  6
  6  7  2  0
  9  8  1  0
 10  9  1  0
 11 10  1  0
 12 11  1  1
 13  6  1  0
 13 12  1  0
 14 15  2  0
 14 12  1  0
 16 17  1  0
 17 18  2  0
 19 17  1  0
 19 20  1  0
 20 21  1  0
 21 22  1  0
 23 22  1  6
 23 24  1  0
 24 14  1  0
 25 23  1  0
 25 27  1  0
 26 25  2  0
M  END
$$$$
