VMR.pdb
     RDKit          3D

 27 26  0  0  1  0  0  0  0  0999 V2000
   23.4230  -21.8374  -12.3320 C   0  0  0  0  0  0  0  0  0  0  0  0
   23.0215  -21.0845  -11.0964 C   0  0  1  0  0  0  0  0  0  0  0  0
   21.6389  -21.4570  -10.6197 C   0  0  0  0  0  0  0  0  0  0  0  0
   24.0761  -21.2866  -10.0245 C   0  0  2  0  0  0  0  0  0  0  0  0
   23.7062  -20.5871   -8.8010 N   0  0  0  0  0  0  0  0  0  0  0  0
   25.3289  -20.6997  -10.5337 C   0  0  0  0  0  0  0  0  0  0  0  0
   25.4307  -19.4613  -10.6344 O   0  0  0  0  0  0  0  0  0  0  0  0
   32.2271  -21.5958  -11.1992 C   0  0  0  0  0  0  0  0  0  0  0  0
   31.2022  -22.0125   -9.7688 S   0  0  0  0  0  0  0  0  0  0  0  0
   29.5557  -21.3648   -9.9602 C   0  0  0  0  0  0  0  0  0  0  0  0
   28.9379  -21.5503  -11.3249 C   0  0  0  0  0  0  0  0  0  0  0  0
   27.6319  -20.9225  -11.5427 C   0  0  2  0  0  0  0  0  0  0  0  0
   26.4747  -21.4293  -10.9363 N   0  0  0  0  0  0  0  0  0  0  0  0
   27.3832  -20.8000  -13.0039 C   0  0  0  0  0  0  0  0  0  0  0  0
   26.9062  -21.7736  -13.6376 O   0  0  0  0  0  0  0  0  0  0  0  0
   24.1104  -15.5253  -17.6226 N   0  0  0  0  0  0  0  0  0  0  0  0
   22.9636  -16.3735  -17.6768 C   0  0  0  0  0  0  0  0  0  0  0  0
   22.0917  -16.2339  -18.5957 N   0  0  0  0  0  0  0  0  0  0  0  0
   22.7467  -17.4019  -16.7166 N   0  0  0  0  0  0  0  0  0  0  0  0
   23.6521  -17.6004  -15.6135 C   0  0  0  0  0  0  0  0  0  0  0  0
   24.8978  -18.3351  -15.9417 C   0  0  0  0  0  0  0  0  0  0  0  0
   25.8264  -18.7444  -14.8986 C   0  0  0  0  0  0  0  0  0  0  0  0
   27.0979  -19.4490  -15.1434 C   0  0  2  0  0  0  0  0  0  0  0  0
   27.6577  -19.6272  -13.7373 N   0  0  0  0  0  0  0  0  0  0  0  0
   28.1421  -18.7723  -15.9099 C   0  0  0  0  0  0  0  0  0  0  0  0
   29.0177  -18.0511  -15.2851 O   0  0  0  0  0  0  0  0  0  0  0  0
   28.3267  -18.8083  -17.2644 O   0  0  0  0  0  0  0  0  0  0  0  0
  2  1  1  6
  2  3  1  0
  4  6  1  0
  4  2  1  0
  4  5  1  1
  6  7  2  0
  9  8  1  0
 10  9  1  0
 11 10  1  0
 12 11  1  6
 13  6  1  0
 13 12  1  0
 14 15  2  0
 14 12  1  0
 16 17  1  0
 17 18  2  0
 19 17  1  0
 19 20  1  0
 20 21  1  0
 21 22  1  0
 23 22  1  1
 23 24  1  0
 24 14  1  0
 25 23  1  0
 25 27  1  0
 26 25  2  0
M  END
$$$$
