VMR.pdb
     RDKit          3D

 27 26  0  0  1  0  0  0  0  0999 V2000
   28.8032  -18.3552  -15.5628 C   0  0  0  0  0  0  0  0  0  0  0  0
   27.7695  -19.0183  -14.6989 C   0  0  1  0  0  0  0  0  0  0  0  0
   26.4475  -19.1836  -15.4080 C   0  0  0  0  0  0  0  0  0  0  0  0
   28.3188  -20.3365  -14.1865 C   0  0  2  0  0  0  0  0  0  0  0  0
   28.3965  -21.3146  -15.2637 N   0  0  0  0  0  0  0  0  0  0  0  0
   27.3710  -20.8361  -13.1739 C   0  0  0  0  0  0  0  0  0  0  0  0
   26.4723  -21.6308  -13.5127 O   0  0  0  0  0  0  0  0  0  0  0  0
   26.9321  -19.1366   -6.5798 C   0  0  0  0  0  0  0  0  0  0  0  0
   25.8244  -20.5558   -6.7512 S   0  0  0  0  0  0  0  0  0  0  0  0
   25.5327  -20.9269   -8.4671 C   0  0  0  0  0  0  0  0  0  0  0  0
   26.6335  -20.5210   -9.4170 C   0  0  0  0  0  0  0  0  0  0  0  0
   26.4349  -20.8554  -10.8298 C   0  0  2  0  0  0  0  0  0  0  0  0
   27.3781  -20.4909  -11.7998 N   0  0  0  0  0  0  0  0  0  0  0  0
   25.0984  -20.3704  -11.2662 C   0  0  0  0  0  0  0  0  0  0  0  0
   24.9370  -19.1562  -11.5429 O   0  0  0  0  0  0  0  0  0  0  0  0
   22.1353  -26.1788  -15.2211 N   0  0  0  0  0  0  0  0  0  0  0  0
   20.8147  -25.6477  -15.1129 C   0  0  0  0  0  0  0  0  0  0  0  0
   19.7991  -26.4174  -15.1237 N   0  0  0  0  0  0  0  0  0  0  0  0
   20.5777  -24.2495  -14.9891 N   0  0  0  0  0  0  0  0  0  0  0  0
   21.6636  -23.3167  -14.8256 C   0  0  0  0  0  0  0  0  0  0  0  0
   21.6093  -22.4921  -13.5942 C   0  0  0  0  0  0  0  0  0  0  0  0
   22.6476  -21.5170  -13.2959 C   0  0  0  0  0  0  0  0  0  0  0  0
   22.7040  -20.7092  -12.0640 C   0  0  2  0  0  0  0  0  0  0  0  0
   23.9750  -21.2136  -11.3912 N   0  0  0  0  0  0  0  0  0  0  0  0
   21.6385  -20.8577  -11.0748 C   0  0  0  0  0  0  0  0  0  0  0  0
   20.4878  -20.3073  -11.2982 O   0  0  0  0  0  0  0  0  0  0  0  0
   21.7002  -21.5395   -9.8910 O   0  0  0  0  0  0  0  0  0  0  0  0
  2  1  1  6
  2  3  1  0
  4  6  1  0
  4  2  1  0
  4  5  1  6
  6  7  2  0
  9  8  1  0
 10  9  1  0
 11 10  1  0
 12 11  1  1
 13  6  1  0
 13 12  1  0
 14 15  2  0
 14 12  1  0
 16 17  1  0
 17 18  2  0
 19 17  1  0
 19 20  1  0
 20 21  1  0
 21 22  1  0
 23 22  1  6
 23 24  1  0
 24 14  1  0
 25 23  1  0
 25 27  1  0
 26 25  2  0
M  END
$$$$
