DRT.pdb
     RDKit          3D

 27 26  0  0  1  0  0  0  0  0999 V2000
   27.0885  -20.7868  -18.2096 N   0  0  0  0  0  0  0  0  0  0  0  0
   26.3907  -19.8194  -17.3898 C   0  0  1  0  0  0  0  0  0  0  0  0
   25.4300  -19.0383  -18.2515 C   0  0  0  0  0  0  0  0  0  0  0  0
   26.1782  -18.0716  -19.0956 C   0  0  0  0  0  0  0  0  0  0  0  0
   27.2911  -17.6121  -18.6796 O   0  0  0  0  0  0  0  0  0  0  0  0
   25.7199  -20.4520  -16.2296 C   0  0  0  0  0  0  0  0  0  0  0  0
   24.9818  -21.4781  -16.3749 O   0  0  0  0  0  0  0  0  0  0  0  0
   25.7432  -17.6325  -20.3147 O   0  0  0  0  0  0  0  0  0  0  0  0
   28.2206  -20.8719   -8.1011 N   0  0  0  0  0  0  0  0  0  0  0  0
   28.5173  -21.2725   -9.4208 C   0  0  0  0  0  0  0  0  0  0  0  0
   29.6976  -21.6742   -9.7848 N   0  0  0  0  0  0  0  0  0  0  0  0
   27.4903  -21.2413  -10.4092 N   0  0  0  0  0  0  0  0  0  0  0  0
   26.1365  -20.8022  -10.0810 C   0  0  0  0  0  0  0  0  0  0  0  0
   25.2704  -21.0354  -11.3011 C   0  0  0  0  0  0  0  0  0  0  0  0
   25.9382  -20.3541  -12.4697 C   0  0  0  0  0  0  0  0  0  0  0  0
   25.1949  -20.5625  -13.7642 C   0  0  2  0  0  0  0  0  0  0  0  0
   25.8477  -19.9714  -14.8992 N   0  0  0  0  0  0  0  0  0  0  0  0
   23.8434  -19.9855  -13.5999 C   0  0  0  0  0  0  0  0  0  0  0  0
   23.7271  -18.8018  -13.1484 O   0  0  0  0  0  0  0  0  0  0  0  0
   29.9147  -21.9351  -10.7542 C   0  0  0  0  0  0  0  0  0  0  0  0
   20.8622  -19.7883  -16.2301 C   0  0  2  0  0  0  0  0  0  0  0  0
   20.4633  -20.4673  -14.9605 O   0  0  0  0  0  0  0  0  0  0  0  0
   20.5022  -21.8472  -15.1020 C   0  0  2  0  0  0  0  0  0  0  0  0
   21.3563  -20.0895  -13.7979 N   0  0  0  0  0  0  0  0  0  0  0  0
   22.6554  -20.6865  -13.9214 C   0  0  0  0  0  0  0  0  0  0  0  0
   20.6919  -20.5257  -12.5620 O   0  0  0  0  0  0  0  0  0  0  0  0
   21.1836  -21.5898  -11.8281 O   0  0  0  0  0  0  0  0  0  0  0  0
  2  1  1  6
  3  2  1  0
  3  4  1  0
  4  5  2  0
  4  8  1  0
  6  7  2  0
  6  2  1  0
  9 10  1  0
 10 12  1  0
 11 10  2  0
 12 13  1  0
 14 13  1  0
 15 14  1  0
 16 15  1  1
 16 17  1  0
 17  6  1  0
 18 16  1  0
 18 19  2  0
 21 20  1  6
 21 22  1  0
 21 23  1  0
 23 25  1  0
 23 24  1  1
 24 18  1  0
 25 26  1  0
 27 25  2  0
M  END
$$$$
