DRT.pdb
     RDKit          3D

 27 26  0  0  1  0  0  0  0  0999 V2000
   18.8810   -8.7432  -14.5585 N   0  0  0  0  0  0  0  0  0  0  0  0
   18.9453   -8.6868  -13.1137 C   0  0  1  0  0  0  0  0  0  0  0  0
   19.9981   -7.6884  -12.7014 C   0  0  0  0  0  0  0  0  0  0  0  0
   21.3364   -8.1477  -13.1542 C   0  0  0  0  0  0  0  0  0  0  0  0
   22.1757   -7.2922  -13.5860 O   0  0  0  0  0  0  0  0  0  0  0  0
   17.6247   -8.3951  -12.5077 C   0  0  0  0  0  0  0  0  0  0  0  0
   16.8528   -7.5138  -13.0039 O   0  0  0  0  0  0  0  0  0  0  0  0
   21.7362   -9.4547  -13.1382 O   0  0  0  0  0  0  0  0  0  0  0  0
   12.0911  -13.8113   -9.3700 N   0  0  0  0  0  0  0  0  0  0  0  0
   12.4338  -13.2042  -10.5965 C   0  0  0  0  0  0  0  0  0  0  0  0
   12.2474  -13.7837  -11.7439 N   0  0  0  0  0  0  0  0  0  0  0  0
   13.0101  -11.9001  -10.5948 N   0  0  0  0  0  0  0  0  0  0  0  0
   13.1902  -11.1534   -9.3526 C   0  0  0  0  0  0  0  0  0  0  0  0
   13.7963   -9.8119   -9.7078 C   0  0  0  0  0  0  0  0  0  0  0  0
   15.1920  -10.0651  -10.2213 C   0  0  0  0  0  0  0  0  0  0  0  0
   15.8398   -8.8226  -10.7764 C   0  0  2  0  0  0  0  0  0  0  0  0
   17.1331   -9.0622  -11.3541 N   0  0  0  0  0  0  0  0  0  0  0  0
   15.9516   -7.8467   -9.6712 C   0  0  0  0  0  0  0  0  0  0  0  0
   16.7348   -8.0984   -8.7008 O   0  0  0  0  0  0  0  0  0  0  0  0
   12.3656  -13.2879  -12.6356 C   0  0  0  0  0  0  0  0  0  0  0  0
   16.9484   -4.1072   -9.9446 C   0  0  2  0  0  0  0  0  0  0  0  0
   15.6328   -4.2597   -9.2533 O   0  0  0  0  0  0  0  0  0  0  0  0
   14.5816   -4.0532  -10.1353 C   0  0  2  0  0  0  0  0  0  0  0  0
   15.4618   -5.6295   -8.6320 N   0  0  0  0  0  0  0  0  0  0  0  0
   15.2257   -6.6312   -9.6322 C   0  0  0  0  0  0  0  0  0  0  0  0
   14.3399   -5.5558   -7.6859 O   0  0  0  0  0  0  0  0  0  0  0  0
   14.4604   -4.8675   -6.4925 O   0  0  0  0  0  0  0  0  0  0  0  0
  2  1  1  6
  3  2  1  0
  3  4  1  0
  4  5  2  0
  4  8  1  0
  6  7  2  0
  6  2  1  0
  9 10  1  0
 10 12  1  0
 11 10  2  0
 12 13  1  0
 14 13  1  0
 15 14  1  0
 16 15  1  1
 16 17  1  0
 17  6  1  0
 18 16  1  0
 18 19  2  0
 21 20  1  1
 21 22  1  0
 21 23  1  0
 23 25  1  0
 23 24  1  1
 24 18  1  0
 25 26  1  0
 27 25  2  0
M  END
$$$$
