DRT.pdb
     RDKit          3D

 27 26  0  0  1  0  0  0  0  0999 V2000
   27.1036  -11.1820  -19.0596 N   0  0  0  0  0  0  0  0  0  0  0  0
   26.8598  -10.1786  -18.0455 C   0  0  1  0  0  0  0  0  0  0  0  0
   27.9016   -9.0936  -18.1589 C   0  0  0  0  0  0  0  0  0  0  0  0
   29.2369   -9.6339  -17.7959 C   0  0  0  0  0  0  0  0  0  0  0  0
   29.3393  -10.8511  -17.4340 O   0  0  0  0  0  0  0  0  0  0  0  0
   25.4795   -9.6430  -18.1112 C   0  0  0  0  0  0  0  0  0  0  0  0
   24.9466   -9.3315  -19.2237 O   0  0  0  0  0  0  0  0  0  0  0  0
   30.3877   -8.8971  -17.8248 O   0  0  0  0  0  0  0  0  0  0  0  0
   18.5066  -12.9246  -15.3382 N   0  0  0  0  0  0  0  0  0  0  0  0
   18.3039  -11.5577  -15.0539 C   0  0  0  0  0  0  0  0  0  0  0  0
   17.2202  -11.1091  -14.4959 N   0  0  0  0  0  0  0  0  0  0  0  0
   19.3210  -10.6156  -15.3865 N   0  0  0  0  0  0  0  0  0  0  0  0
   19.9076  -10.5748  -16.7235 C   0  0  0  0  0  0  0  0  0  0  0  0
   20.8764   -9.4117  -16.7638 C   0  0  0  0  0  0  0  0  0  0  0  0
   22.2722   -9.9832  -16.7940 C   0  0  0  0  0  0  0  0  0  0  0  0
   23.3264   -8.9275  -17.0077 C   0  0  2  0  0  0  0  0  0  0  0  0
   24.6669   -9.4419  -16.9638 N   0  0  0  0  0  0  0  0  0  0  0  0
   23.1444   -7.8981  -15.9618 C   0  0  0  0  0  0  0  0  0  0  0  0
   23.3934   -8.1964  -14.7505 O   0  0  0  0  0  0  0  0  0  0  0  0
   17.0905  -10.1162  -14.2669 C   0  0  0  0  0  0  0  0  0  0  0  0
   24.3166   -4.0240  -16.2404 C   0  0  2  0  0  0  0  0  0  0  0  0
   22.8995   -4.1932  -15.7984 O   0  0  0  0  0  0  0  0  0  0  0  0
   22.0226   -3.9921  -16.8549 C   0  0  2  0  0  0  0  0  0  0  0  0
   22.6338   -5.5680  -15.2231 N   0  0  0  0  0  0  0  0  0  0  0  0
   22.7024   -6.5810  -16.2373 C   0  0  0  0  0  0  0  0  0  0  0  0
   21.3060   -5.5419  -14.5943 O   0  0  0  0  0  0  0  0  0  0  0  0
   21.0773   -4.8053  -13.4464 O   0  0  0  0  0  0  0  0  0  0  0  0
  2  1  1  6
  3  2  1  0
  3  4  1  0
  4  5  2  0
  4  8  1  0
  6  7  2  0
  6  2  1  0
  9 10  1  0
 10 12  1  0
 11 10  2  0
 12 13  1  0
 14 13  1  0
 15 14  1  0
 16 15  1  1
 16 17  1  0
 17  6  1  0
 18 16  1  0
 18 19  2  0
 21 20  1  1
 21 22  1  0
 21 23  1  0
 23 25  1  0
 23 24  1  1
 24 18  1  0
 25 26  1  0
 27 25  2  0
M  END
$$$$
