DRT.pdb
     RDKit          3D

 27 26  0  0  1  0  0  0  0  0999 V2000
   22.9221  -12.3643  -17.2808 N   0  0  0  0  0  0  0  0  0  0  0  0
   22.6877  -11.4459  -18.3746 C   0  0  1  0  0  0  0  0  0  0  0  0
   22.0101  -12.1806  -19.5043 C   0  0  0  0  0  0  0  0  0  0  0  0
   22.9154  -13.2286  -20.0419 C   0  0  0  0  0  0  0  0  0  0  0  0
   23.2682  -14.1936  -19.2887 O   0  0  0  0  0  0  0  0  0  0  0  0
   21.9268  -10.2491  -17.9446 C   0  0  0  0  0  0  0  0  0  0  0  0
   21.5808   -9.3538  -18.7797 O   0  0  0  0  0  0  0  0  0  0  0  0
   23.4059  -13.2268  -21.3177 O   0  0  0  0  0  0  0  0  0  0  0  0
   15.1174  -11.4812  -13.7324 N   0  0  0  0  0  0  0  0  0  0  0  0
   15.3966  -11.9063  -15.0483 C   0  0  0  0  0  0  0  0  0  0  0  0
   14.6183  -12.7108  -15.7070 N   0  0  0  0  0  0  0  0  0  0  0  0
   16.5785  -11.4430  -15.6973 N   0  0  0  0  0  0  0  0  0  0  0  0
   17.5029  -10.5321  -15.0273 C   0  0  0  0  0  0  0  0  0  0  0  0
   18.6231  -10.2202  -15.9974 C   0  0  0  0  0  0  0  0  0  0  0  0
   19.5772   -9.2802  -15.3034 C   0  0  0  0  0  0  0  0  0  0  0  0
   20.7465   -8.8949  -16.1728 C   0  0  2  0  0  0  0  0  0  0  0  0
   21.5356  -10.0172  -16.5990 N   0  0  0  0  0  0  0  0  0  0  0  0
   21.5835   -7.9512  -15.4012 C   0  0  0  0  0  0  0  0  0  0  0  0
   22.2272   -8.3791  -14.3909 O   0  0  0  0  0  0  0  0  0  0  0  0
   14.8405  -13.0365  -16.6555 C   0  0  0  0  0  0  0  0  0  0  0  0
   24.3258   -5.5114  -16.7885 C   0  0  2  0  0  0  0  0  0  0  0  0
   23.3351   -4.7774  -15.9448 O   0  0  0  0  0  0  0  0  0  0  0  0
   22.4069   -4.1128  -16.7338 C   0  0  2  0  0  0  0  0  0  0  0  0
   22.5815   -5.6963  -15.0071 N   0  0  0  0  0  0  0  0  0  0  0  0
   21.7101   -6.5791  -15.7288 C   0  0  0  0  0  0  0  0  0  0  0  0
   21.8219   -4.8564  -14.0708 O   0  0  0  0  0  0  0  0  0  0  0  0
   22.4692   -4.0694  -13.1359 O   0  0  0  0  0  0  0  0  0  0  0  0
  2  1  1  1
  3  2  1  0
  3  4  1  0
  4  5  2  0
  4  8  1  0
  6  7  2  0
  6  2  1  0
  9 10  1  0
 10 12  1  0
 11 10  2  0
 12 13  1  0
 14 13  1  0
 15 14  1  0
 16 15  1  1
 16 17  1  0
 17  6  1  0
 18 16  1  0
 18 19  2  0
 21 20  1  6
 21 22  1  0
 21 23  1  0
 23 25  1  0
 23 24  1  1
 24 18  1  0
 25 26  1  0
 27 25  2  0
M  END
$$$$
