DRT.pdb
     RDKit          3D

 27 26  0  0  1  0  0  0  0  0999 V2000
   26.7467  -11.4273  -18.8160 N   0  0  0  0  0  0  0  0  0  0  0  0
   26.4646  -10.5812  -17.6762 C   0  0  1  0  0  0  0  0  0  0  0  0
   27.6648   -9.7126  -17.3925 C   0  0  0  0  0  0  0  0  0  0  0  0
   28.8304  -10.5610  -17.0342 C   0  0  0  0  0  0  0  0  0  0  0  0
   28.6554  -11.8061  -16.8297 O   0  0  0  0  0  0  0  0  0  0  0  0
   25.2270   -9.7878  -17.8633 C   0  0  0  0  0  0  0  0  0  0  0  0
   25.0112   -9.1491  -18.9423 O   0  0  0  0  0  0  0  0  0  0  0  0
   30.1053  -10.0851  -16.9064 O   0  0  0  0  0  0  0  0  0  0  0  0
   17.2819  -11.8358  -16.0722 N   0  0  0  0  0  0  0  0  0  0  0  0
   18.0047  -11.0857  -15.1209 C   0  0  0  0  0  0  0  0  0  0  0  0
   17.7285  -11.1071  -13.8519 N   0  0  0  0  0  0  0  0  0  0  0  0
   19.0868  -10.2641  -15.5532 N   0  0  0  0  0  0  0  0  0  0  0  0
   19.3249  -10.0099  -16.9716 C   0  0  0  0  0  0  0  0  0  0  0  0
   20.4773   -9.0330  -17.0751 C   0  0  0  0  0  0  0  0  0  0  0  0
   21.7558   -9.8215  -16.9349 C   0  0  0  0  0  0  0  0  0  0  0  0
   22.9854   -8.9581  -17.0553 C   0  0  2  0  0  0  0  0  0  0  0  0
   24.2122   -9.6833  -16.8749 N   0  0  0  0  0  0  0  0  0  0  0  0
   22.8775   -7.8856  -16.0431 C   0  0  0  0  0  0  0  0  0  0  0  0
   23.1563   -8.1495  -14.8302 O   0  0  0  0  0  0  0  0  0  0  0  0
   18.2724  -10.5750  -13.1620 C   0  0  0  0  0  0  0  0  0  0  0  0
   22.1748   -3.0629  -14.9998 C   0  0  2  0  0  0  0  0  0  0  0  0
   22.1378   -4.1778  -15.9936 O   0  0  0  0  0  0  0  0  0  0  0  0
   23.0510   -3.9621  -17.0159 C   0  0  1  0  0  0  0  0  0  0  0  0
   22.4440   -5.5213  -15.3665 N   0  0  0  0  0  0  0  0  0  0  0  0
   22.4756   -6.5632  -16.3528 C   0  0  0  0  0  0  0  0  0  0  0  0
   21.4148   -5.7877  -14.3523 O   0  0  0  0  0  0  0  0  0  0  0  0
   21.6814   -5.6150  -13.0063 O   0  0  0  0  0  0  0  0  0  0  0  0
  2  1  1  6
  3  2  1  0
  3  4  1  0
  4  5  2  0
  4  8  1  0
  6  7  2  0
  6  2  1  0
  9 10  1  0
 10 12  1  0
 11 10  2  0
 12 13  1  0
 14 13  1  0
 15 14  1  0
 16 15  1  1
 16 17  1  0
 17  6  1  0
 18 16  1  0
 18 19  2  0
 21 20  1  6
 21 22  1  0
 21 23  1  0
 23 25  1  0
 23 24  1  6
 24 18  1  0
 25 26  1  0
 27 25  2  0
M  END
$$$$
