DRT.pdb
     RDKit          3D

 27 26  0  0  1  0  0  0  0  0999 V2000
   26.8751  -19.3952  -17.9098 N   0  0  0  0  0  0  0  0  0  0  0  0
   25.8154  -18.6926  -17.2184 C   0  0  1  0  0  0  0  0  0  0  0  0
   25.0460  -17.8544  -18.2087 C   0  0  0  0  0  0  0  0  0  0  0  0
   25.9618  -16.8977  -18.8818 C   0  0  0  0  0  0  0  0  0  0  0  0
   26.7956  -16.2359  -18.1819 O   0  0  0  0  0  0  0  0  0  0  0  0
   24.9378  -19.6144  -16.4591 C   0  0  0  0  0  0  0  0  0  0  0  0
   25.0931  -20.8754  -16.5256 O   0  0  0  0  0  0  0  0  0  0  0  0
   25.9701  -16.6752  -20.2303 O   0  0  0  0  0  0  0  0  0  0  0  0
   25.7875  -20.2363   -8.8144 N   0  0  0  0  0  0  0  0  0  0  0  0
   26.1542  -20.8712  -10.0197 C   0  0  0  0  0  0  0  0  0  0  0  0
   27.3397  -21.3612  -10.2235 N   0  0  0  0  0  0  0  0  0  0  0  0
   25.1957  -20.9885  -11.0686 N   0  0  0  0  0  0  0  0  0  0  0  0
   23.8298  -20.4978  -10.9046 C   0  0  0  0  0  0  0  0  0  0  0  0
   23.1135  -20.6856  -12.2256 C   0  0  0  0  0  0  0  0  0  0  0  0
   23.8521  -19.8762  -13.2625 C   0  0  0  0  0  0  0  0  0  0  0  0
   23.2373  -19.9917  -14.6338 C   0  0  2  0  0  0  0  0  0  0  0  0
   23.8819  -19.1695  -15.6197 N   0  0  0  0  0  0  0  0  0  0  0  0
   21.8116  -19.6174  -14.5158 C   0  0  0  0  0  0  0  0  0  0  0  0
   21.5104  -18.4352  -14.1550 O   0  0  0  0  0  0  0  0  0  0  0  0
   27.6180  -21.7703  -11.1236 C   0  0  0  0  0  0  0  0  0  0  0  0
   17.0624  -20.6498  -15.5419 C   0  0  2  0  0  0  0  0  0  0  0  0
   18.4970  -21.0667  -15.5323 O   0  0  0  0  0  0  0  0  0  0  0  0
   18.9938  -21.1659  -16.8243 C   0  0  1  0  0  0  0  0  0  0  0  0
   19.3744  -20.1007  -14.7650 N   0  0  0  0  0  0  0  0  0  0  0  0
   20.7487  -20.5137  -14.7857 C   0  0  0  0  0  0  0  0  0  0  0  0
   18.8666  -20.0307  -13.3880 O   0  0  0  0  0  0  0  0  0  0  0  0
   17.9589  -19.0569  -13.0136 O   0  0  0  0  0  0  0  0  0  0  0  0
  2  1  1  6
  3  2  1  0
  3  4  1  0
  4  5  2  0
  4  8  1  0
  6  7  2  0
  6  2  1  0
  9 10  1  0
 10 12  1  0
 11 10  2  0
 12 13  1  0
 14 13  1  0
 15 14  1  0
 16 15  1  1
 16 17  1  0
 17  6  1  0
 18 16  1  0
 18 19  2  0
 21 20  1  6
 21 22  1  0
 21 23  1  0
 23 25  1  0
 23 24  1  1
 24 18  1  0
 25 26  1  0
 27 25  2  0
M  END
$$$$
