DRT.pdb
     RDKit          3D

 27 26  0  0  1  0  0  0  0  0999 V2000
   16.5108  -11.7016  -16.1313 N   0  0  0  0  0  0  0  0  0  0  0  0
   17.5096  -11.4953  -15.1044 C   0  0  1  0  0  0  0  0  0  0  0  0
   18.8096  -12.1230  -15.5419 C   0  0  0  0  0  0  0  0  0  0  0  0
   18.7612  -13.5917  -15.3245 C   0  0  0  0  0  0  0  0  0  0  0  0
   17.7789  -14.0955  -14.6886 O   0  0  0  0  0  0  0  0  0  0  0  0
   17.6647  -10.0631  -14.7569 C   0  0  0  0  0  0  0  0  0  0  0  0
   17.3478   -9.1475  -15.5816 O   0  0  0  0  0  0  0  0  0  0  0  0
   19.7204  -14.4574  -15.7703 O   0  0  0  0  0  0  0  0  0  0  0  0
   14.7360  -10.5116   -9.8905 N   0  0  0  0  0  0  0  0  0  0  0  0
   14.0613   -9.3121   -9.5804 C   0  0  0  0  0  0  0  0  0  0  0  0
   12.7906   -9.2689   -9.3147 N   0  0  0  0  0  0  0  0  0  0  0  0
   14.7894   -8.0866   -9.5530 N   0  0  0  0  0  0  0  0  0  0  0  0
   16.2228   -8.0511   -9.8307 C   0  0  0  0  0  0  0  0  0  0  0  0
   16.4065   -8.2540  -11.3201 C   0  0  0  0  0  0  0  0  0  0  0  0
   17.8689   -8.0509  -11.6298 C   0  0  0  0  0  0  0  0  0  0  0  0
   18.1835   -8.2400  -13.0916 C   0  0  2  0  0  0  0  0  0  0  0  0
   18.1671   -9.6153  -13.5061 N   0  0  0  0  0  0  0  0  0  0  0  0
   19.5173   -7.6520  -13.3399 C   0  0  0  0  0  0  0  0  0  0  0  0
   20.5412   -8.2002  -12.8208 O   0  0  0  0  0  0  0  0  0  0  0  0
   12.3094   -8.3948   -9.0711 C   0  0  0  0  0  0  0  0  0  0  0  0
   22.3676   -4.3772  -15.7714 C   0  0  2  0  0  0  0  0  0  0  0  0
   21.0147   -4.9504  -15.5008 O   0  0  0  0  0  0  0  0  0  0  0  0
   20.5163   -5.5977  -16.6225 C   0  0  1  0  0  0  0  0  0  0  0  0
   21.0248   -5.9390  -14.3543 N   0  0  0  0  0  0  0  0  0  0  0  0
   19.7211   -6.4970  -14.1341 C   0  0  0  0  0  0  0  0  0  0  0  0
   21.5041   -5.2332  -13.1579 O   0  0  0  0  0  0  0  0  0  0  0  0
   20.6270   -4.8488  -12.1602 O   0  0  0  0  0  0  0  0  0  0  0  0
  2  1  1  6
  3  2  1  0
  3  4  1  0
  4  5  2  0
  4  8  1  0
  6  7  2  0
  6  2  1  0
  9 10  1  0
 10 12  1  0
 11 10  2  0
 12 13  1  0
 14 13  1  0
 15 14  1  0
 16 15  1  1
 16 17  1  0
 17  6  1  0
 18 16  1  0
 18 19  2  0
 21 20  1  6
 21 22  1  0
 21 23  1  0
 23 25  1  0
 23 24  1  1
 24 18  1  0
 25 26  1  0
 27 25  2  0
M  END
$$$$
