QEE.pdb
     RDKit          3D

 28 27  0  0  1  0  0  0  0  0999 V2000
    8.0784  -12.2692   20.6566 N   0  0  0  0  0  0  0  0  0  0  0  0
    7.4076  -12.4281   19.3934 C   0  0  0  0  0  0  0  0  0  0  0  0
    6.3110  -11.8537   19.2518 O   0  0  0  0  0  0  0  0  0  0  0  0
    7.9704  -13.2289   18.3023 C   0  0  0  0  0  0  0  0  0  0  0  0
    9.2957  -13.7918   18.6218 C   0  0  0  0  0  0  0  0  0  0  0  0
    9.9178  -14.7302   17.6564 C   0  0  2  0  0  0  0  0  0  0  0  0
    8.9794  -15.8734   17.4663 N   0  0  0  0  0  0  0  0  0  0  0  0
   11.2053  -15.3088   18.0223 C   0  0  0  0  0  0  0  0  0  0  0  0
   11.2129  -16.4206   18.6575 O   0  0  0  0  0  0  0  0  0  0  0  0
   12.4942  -14.7936   17.7583 N   0  0  0  0  0  0  0  0  0  0  0  0
   13.7108  -15.4314   18.2696 C   0  0  1  0  0  0  0  0  0  0  0  0
   14.7311  -15.1499   17.1514 C   0  0  0  0  0  0  0  0  0  0  0  0
   14.5665  -16.0017   15.9506 C   0  0  0  0  0  0  0  0  0  0  0  0
   15.6143  -15.7412   14.9638 C   0  0  0  0  0  0  0  0  0  0  0  0
   16.7788  -16.1294   15.1306 O   0  0  0  0  0  0  0  0  0  0  0  0
   14.1613  -14.8447   19.5428 C   0  0  0  0  0  0  0  0  0  0  0  0
   14.3221  -13.5747   19.6314 O   0  0  0  0  0  0  0  0  0  0  0  0
   15.2837  -15.0308   13.7971 O   0  0  0  0  0  0  0  0  0  0  0  0
   14.4146  -15.6608   20.6575 N   0  0  0  0  0  0  0  0  0  0  0  0
   14.8054  -15.0590   21.9478 C   0  0  1  0  0  0  0  0  0  0  0  0
   14.0145  -15.7966   22.9684 C   0  0  0  0  0  0  0  0  0  0  0  0
   12.5538  -15.9138   22.7859 C   0  0  0  0  0  0  0  0  0  0  0  0
   11.9256  -16.6286   23.9095 C   0  0  0  0  0  0  0  0  0  0  0  0
   12.6996  -17.2269   24.7375 O   0  0  0  0  0  0  0  0  0  0  0  0
   16.2540  -15.0560   22.0436 C   0  0  0  0  0  0  0  0  0  0  0  0
   16.9334  -15.7256   21.1901 O   0  0  0  0  0  0  0  0  0  0  0  0
   10.5631  -16.6722   24.0929 O   0  0  0  0  0  0  0  0  0  0  0  0
   16.9839  -14.3736   23.0037 O   0  0  0  0  0  0  0  0  0  0  0  0
  2  1  1  0
  2  3  2  0
  4  5  1  0
  4  2  1  0
  5  6  1  0
  6  7  1  1
  8  6  1  0
  8 10  1  0
  9  8  2  0
 11 10  1  0
 12 13  1  0
 11 12  1  6
 14 13  1  0
 15 14  2  0
 16 11  1  0
 17 16  2  0
 18 14  1  0
 19 16  1  0
 20 19  1  0
 20 25  1  0
 20 21  1  1
 22 21  1  0
 22 23  1  0
 23 27  1  0
 24 23  2  0
 25 28  1  0
 26 25  2  0
M  END
$$$$
