QEE.pdb
     RDKit          3D

 28 27  0  0  1  0  0  0  0  0999 V2000
   15.1405  -13.9649   16.9153 N   0  0  0  0  0  0  0  0  0  0  0  0
   14.5627  -14.0127   18.2324 C   0  0  0  0  0  0  0  0  0  0  0  0
   15.3443  -14.1253   19.1962 O   0  0  0  0  0  0  0  0  0  0  0  0
   13.1164  -13.9352   18.4572 C   0  0  0  0  0  0  0  0  0  0  0  0
   12.3863  -15.1060   17.9361 C   0  0  0  0  0  0  0  0  0  0  0  0
   10.9213  -15.1817   18.1544 C   0  0  2  0  0  0  0  0  0  0  0  0
   10.3977  -13.7863   18.2045 N   0  0  0  0  0  0  0  0  0  0  0  0
   10.4603  -15.8400   19.3711 C   0  0  0  0  0  0  0  0  0  0  0  0
   10.2605  -15.1213   20.4119 O   0  0  0  0  0  0  0  0  0  0  0  0
   10.1895  -17.2130   19.5651 N   0  0  0  0  0  0  0  0  0  0  0  0
    9.7950  -17.7555   20.8683 C   0  0  1  0  0  0  0  0  0  0  0  0
    8.8795  -18.9304   20.4781 C   0  0  0  0  0  0  0  0  0  0  0  0
    8.4223  -19.7505   21.6240 C   0  0  0  0  0  0  0  0  0  0  0  0
    7.5885  -20.8678   21.1815 C   0  0  0  0  0  0  0  0  0  0  0  0
    8.0314  -22.0221   21.1045 O   0  0  0  0  0  0  0  0  0  0  0  0
   10.9470  -18.2332   21.6512 C   0  0  0  0  0  0  0  0  0  0  0  0
   11.6115  -19.2512   21.2405 O   0  0  0  0  0  0  0  0  0  0  0  0
    6.2493  -20.6177   20.8361 O   0  0  0  0  0  0  0  0  0  0  0  0
   11.3237  -17.5854   22.8391 N   0  0  0  0  0  0  0  0  0  0  0  0
   12.4048  -18.1388   23.6788 C   0  0  1  0  0  0  0  0  0  0  0  0
   13.6398  -17.4557   23.2104 C   0  0  0  0  0  0  0  0  0  0  0  0
   13.7319  -15.9876   23.3406 C   0  0  0  0  0  0  0  0  0  0  0  0
   15.0565  -15.4920   22.9314 C   0  0  0  0  0  0  0  0  0  0  0  0
   15.9295  -15.3065   23.8513 O   0  0  0  0  0  0  0  0  0  0  0  0
   12.0199  -18.0236   25.0738 C   0  0  0  0  0  0  0  0  0  0  0  0
   12.8183  -18.4573   25.9754 O   0  0  0  0  0  0  0  0  0  0  0  0
   15.3780  -15.2279   21.6202 O   0  0  0  0  0  0  0  0  0  0  0  0
   10.8324  -17.4707   25.5258 O   0  0  0  0  0  0  0  0  0  0  0  0
  2  1  1  0
  2  3  2  0
  4  5  1  0
  4  2  1  0
  5  6  1  0
  6  7  1  1
  8  6  1  0
  8 10  1  0
  9  8  2  0
 11 10  1  0
 12 13  1  0
 11 12  1  6
 14 13  1  0
 15 14  2  0
 16 11  1  0
 17 16  2  0
 18 14  1  0
 19 16  1  0
 20 19  1  0
 20 25  1  0
 20 21  1  1
 22 21  1  0
 22 23  1  0
 23 27  1  0
 24 23  2  0
 25 28  1  0
 26 25  2  0
M  END
$$$$
