QEE.pdb
     RDKit          3D

 28 27  0  0  1  0  0  0  0  0999 V2000
    6.9769  -12.7819   19.3018 N   0  0  0  0  0  0  0  0  0  0  0  0
    7.7153  -13.2325   18.1518 C   0  0  0  0  0  0  0  0  0  0  0  0
    7.1309  -13.9974   17.3605 O   0  0  0  0  0  0  0  0  0  0  0  0
    9.1000  -12.8236   17.8997 C   0  0  0  0  0  0  0  0  0  0  0  0
    9.8881  -12.6568   19.1353 C   0  0  0  0  0  0  0  0  0  0  0  0
   10.6699  -13.8125   19.6379 C   0  0  2  0  0  0  0  0  0  0  0  0
   10.8169  -14.7831   18.5154 N   0  0  0  0  0  0  0  0  0  0  0  0
   10.1124  -14.5591   20.7595 C   0  0  0  0  0  0  0  0  0  0  0  0
    9.9701  -13.9556   21.8799 O   0  0  0  0  0  0  0  0  0  0  0  0
    9.6875  -15.9065   20.7791 N   0  0  0  0  0  0  0  0  0  0  0  0
    9.2635  -16.5746   22.0128 C   0  0  1  0  0  0  0  0  0  0  0  0
    8.0633  -17.4162   21.5418 C   0  0  0  0  0  0  0  0  0  0  0  0
    7.7679  -18.5866   22.4006 C   0  0  0  0  0  0  0  0  0  0  0  0
    6.7611  -19.4551   21.7912 C   0  0  0  0  0  0  0  0  0  0  0  0
    6.4142  -19.3227   20.6093 O   0  0  0  0  0  0  0  0  0  0  0  0
   10.3149  -17.4391   22.5746 C   0  0  0  0  0  0  0  0  0  0  0  0
   10.8728  -18.3215   21.8285 O   0  0  0  0  0  0  0  0  0  0  0  0
    6.1755  -20.4652   22.5735 O   0  0  0  0  0  0  0  0  0  0  0  0
   10.7112  -17.3055   23.9155 N   0  0  0  0  0  0  0  0  0  0  0  0
   12.0459  -17.7664   24.3470 C   0  0  1  0  0  0  0  0  0  0  0  0
   13.0055  -16.9142   23.5959 C   0  0  0  0  0  0  0  0  0  0  0  0
   14.4461  -17.0305   23.8991 C   0  0  0  0  0  0  0  0  0  0  0  0
   15.2577  -16.2109   22.9839 C   0  0  0  0  0  0  0  0  0  0  0  0
   16.5177  -16.4418   22.9419 O   0  0  0  0  0  0  0  0  0  0  0  0
   12.0928  -17.7726   25.7979 C   0  0  0  0  0  0  0  0  0  0  0  0
   13.1460  -18.2052   26.3827 O   0  0  0  0  0  0  0  0  0  0  0  0
   14.7159  -15.2268   22.1901 O   0  0  0  0  0  0  0  0  0  0  0  0
   11.0697  -17.3395   26.6262 O   0  0  0  0  0  0  0  0  0  0  0  0
  2  1  1  0
  2  3  2  0
  4  5  1  0
  4  2  1  0
  5  6  1  0
  6  7  1  6
  8  6  1  0
  8 10  1  0
  9  8  2  0
 11 10  1  0
 12 13  1  0
 11 12  1  6
 14 13  1  0
 15 14  2  0
 16 11  1  0
 17 16  2  0
 18 14  1  0
 19 16  1  0
 20 19  1  0
 20 25  1  0
 20 21  1  6
 22 21  1  0
 22 23  1  0
 23 27  1  0
 24 23  2  0
 25 28  1  0
 26 25  2  0
M  END
$$$$
