QEE.pdb
     RDKit          3D

 28 27  0  0  1  0  0  0  0  0999 V2000
    7.8675  -11.3416   18.7134 N   0  0  0  0  0  0  0  0  0  0  0  0
    7.6032  -12.7483   18.5649 C   0  0  0  0  0  0  0  0  0  0  0  0
    7.4574  -13.1838   17.4066 O   0  0  0  0  0  0  0  0  0  0  0  0
    7.5035  -13.6528   19.7140 C   0  0  0  0  0  0  0  0  0  0  0  0
    8.7816  -14.3100   20.0455 C   0  0  0  0  0  0  0  0  0  0  0  0
    9.3952  -15.2125   19.0413 C   0  0  2  0  0  0  0  0  0  0  0  0
    8.5880  -16.4659   19.0049 N   0  0  0  0  0  0  0  0  0  0  0  0
   10.7781  -15.6178   19.2640 C   0  0  0  0  0  0  0  0  0  0  0  0
   11.0061  -16.5725   20.0864 O   0  0  0  0  0  0  0  0  0  0  0  0
   11.9445  -15.0845   18.6713 N   0  0  0  0  0  0  0  0  0  0  0  0
   13.2887  -15.5173   19.0636 C   0  0  1  0  0  0  0  0  0  0  0  0
   14.1811  -14.8291   18.0144 C   0  0  0  0  0  0  0  0  0  0  0  0
   15.6320  -15.0580   18.2072 C   0  0  0  0  0  0  0  0  0  0  0  0
   16.4148  -14.4599   17.1260 C   0  0  0  0  0  0  0  0  0  0  0  0
   17.3422  -15.0705   16.5768 O   0  0  0  0  0  0  0  0  0  0  0  0
   13.6486  -15.0750   20.4212 C   0  0  0  0  0  0  0  0  0  0  0  0
   13.6452  -13.8223   20.6992 O   0  0  0  0  0  0  0  0  0  0  0  0
   16.1006  -13.1567   16.7038 O   0  0  0  0  0  0  0  0  0  0  0  0
   13.9932  -16.0099   21.4112 N   0  0  0  0  0  0  0  0  0  0  0  0
   14.4746  -15.5543   22.7305 C   0  0  1  0  0  0  0  0  0  0  0  0
   13.9312  -16.5443   23.6980 C   0  0  0  0  0  0  0  0  0  0  0  0
   12.4666  -16.6617   23.8461 C   0  0  0  0  0  0  0  0  0  0  0  0
   12.1018  -17.7871   24.7227 C   0  0  0  0  0  0  0  0  0  0  0  0
   12.2463  -17.6248   25.9858 O   0  0  0  0  0  0  0  0  0  0  0  0
   15.9102  -15.3501   22.6604 C   0  0  0  0  0  0  0  0  0  0  0  0
   16.5764  -15.9403   21.7404 O   0  0  0  0  0  0  0  0  0  0  0  0
   11.6212  -18.9810   24.2371 O   0  0  0  0  0  0  0  0  0  0  0  0
   16.6408  -14.5511   23.5253 O   0  0  0  0  0  0  0  0  0  0  0  0
  2  1  1  0
  2  3  2  0
  4  5  1  0
  4  2  1  0
  5  6  1  0
  6  7  1  1
  8  6  1  0
  8 10  1  0
  9  8  2  0
 11 10  1  0
 12 13  1  0
 11 12  1  6
 14 13  1  0
 15 14  2  0
 16 11  1  0
 17 16  2  0
 18 14  1  0
 19 16  1  0
 20 19  1  0
 20 25  1  0
 20 21  1  1
 22 21  1  0
 22 23  1  0
 23 27  1  0
 24 23  2  0
 25 28  1  0
 26 25  2  0
M  END
$$$$
