QEE.pdb
     RDKit          3D

 28 27  0  0  1  0  0  0  0  0999 V2000
    7.8305  -12.9544   19.0675 N   0  0  0  0  0  0  0  0  0  0  0  0
    7.9458  -13.4711   17.7293 C   0  0  0  0  0  0  0  0  0  0  0  0
    6.9134  -13.4883   17.0319 O   0  0  0  0  0  0  0  0  0  0  0  0
    9.2146  -13.9641   17.1860 C   0  0  0  0  0  0  0  0  0  0  0  0
   10.3400  -13.8280   18.1297 C   0  0  0  0  0  0  0  0  0  0  0  0
   10.6888  -14.9864   18.9875 C   0  0  2  0  0  0  0  0  0  0  0  0
    9.7476  -16.0949   18.6573 N   0  0  0  0  0  0  0  0  0  0  0  0
   10.6123  -14.7956   20.4311 C   0  0  0  0  0  0  0  0  0  0  0  0
   11.4436  -13.9927   20.9824 O   0  0  0  0  0  0  0  0  0  0  0  0
    9.7099  -15.3944   21.3386 N   0  0  0  0  0  0  0  0  0  0  0  0
    9.8803  -15.2948   22.7909 C   0  0  1  0  0  0  0  0  0  0  0  0
    8.4393  -15.4573   23.3086 C   0  0  0  0  0  0  0  0  0  0  0  0
    8.3265  -15.5078   24.7848 C   0  0  0  0  0  0  0  0  0  0  0  0
    6.9433  -15.7261   25.2072 C   0  0  0  0  0  0  0  0  0  0  0  0
    6.3827  -16.8216   25.0652 O   0  0  0  0  0  0  0  0  0  0  0  0
   10.7480  -16.3555   23.3298 C   0  0  0  0  0  0  0  0  0  0  0  0
   10.5388  -17.5755   22.9915 O   0  0  0  0  0  0  0  0  0  0  0  0
    6.2370  -14.6594   25.7891 O   0  0  0  0  0  0  0  0  0  0  0  0
   11.7995  -16.0438   24.2072 N   0  0  0  0  0  0  0  0  0  0  0  0
   12.5735  -17.1215   24.8548 C   0  0  1  0  0  0  0  0  0  0  0  0
   13.9948  -16.7069   24.7167 C   0  0  0  0  0  0  0  0  0  0  0  0
   14.6340  -16.7949   23.3884 C   0  0  0  0  0  0  0  0  0  0  0  0
   16.0217  -16.3038   23.4241 C   0  0  0  0  0  0  0  0  0  0  0  0
   16.6854  -16.3242   22.3279 O   0  0  0  0  0  0  0  0  0  0  0  0
   12.0317  -17.3552   26.1812 C   0  0  0  0  0  0  0  0  0  0  0  0
   11.2466  -16.4833   26.6930 O   0  0  0  0  0  0  0  0  0  0  0  0
   16.6137  -15.8342   24.5735 O   0  0  0  0  0  0  0  0  0  0  0  0
   12.2976  -18.4690   26.9615 O   0  0  0  0  0  0  0  0  0  0  0  0
  2  1  1  0
  2  3  2  0
  4  5  1  0
  4  2  1  0
  5  6  1  0
  6  7  1  6
  8  6  1  0
  8 10  1  0
  9  8  2  0
 11 10  1  0
 12 13  1  0
 11 12  1  1
 14 13  1  0
 15 14  2  0
 16 11  1  0
 17 16  2  0
 18 14  1  0
 19 16  1  0
 20 19  1  0
 20 25  1  0
 20 21  1  1
 22 21  1  0
 22 23  1  0
 23 27  1  0
 24 23  2  0
 25 28  1  0
 26 25  2  0
M  END
$$$$
