QFN.pdb
     RDKit          3D

 29 29  0  0  1  0  0  0  0  0999 V2000
   29.6347  -19.2734  -19.6173 N   0  0  0  0  0  0  0  0  0  0  0  0
   28.4503  -19.6951  -20.3114 C   0  0  0  0  0  0  0  0  0  0  0  0
   28.5685  -19.6806  -21.5773 O   0  0  0  0  0  0  0  0  0  0  0  0
   27.2430  -20.0927  -19.6035 C   0  0  0  0  0  0  0  0  0  0  0  0
   27.2542  -20.0827  -18.1234 C   0  0  0  0  0  0  0  0  0  0  0  0
   27.6540  -21.3390  -17.4394 C   0  0  2  0  0  0  0  0  0  0  0  0
   27.6390  -22.5425  -18.2017 N   0  0  0  0  0  0  0  0  0  0  0  0
   26.9303  -21.6093  -16.1718 C   0  0  0  0  0  0  0  0  0  0  0  0
   26.3530  -22.7160  -16.0401 O   0  0  0  0  0  0  0  0  0  0  0  0
   26.8909  -20.6450  -15.1447 N   0  0  0  0  0  0  0  0  0  0  0  0
   26.2766  -20.8988  -13.8490 C   0  0  1  0  0  0  0  0  0  0  0  0
   26.9024  -20.1175  -12.7491 C   0  0  0  0  0  0  0  0  0  0  0  0
   26.2472  -20.4465  -11.4297 C   0  0  0  0  0  0  0  0  0  0  0  0
   25.3153  -19.5661  -10.9440 C   0  0  0  0  0  0  0  0  0  0  0  0
   24.6678  -19.7884   -9.7265 C   0  0  0  0  0  0  0  0  0  0  0  0
   24.9564  -20.9044   -8.9840 C   0  0  0  0  0  0  0  0  0  0  0  0
   25.9100  -21.7903   -9.4968 C   0  0  0  0  0  0  0  0  0  0  0  0
   26.5527  -21.5666  -10.7105 C   0  0  0  0  0  0  0  0  0  0  0  0
   24.8174  -20.8047  -13.9511 C   0  0  0  0  0  0  0  0  0  0  0  0
   24.3216  -19.8340  -14.6388 O   0  0  0  0  0  0  0  0  0  0  0  0
   19.7148  -21.5295  -13.9273 N   0  0  0  0  0  0  0  0  0  0  0  0
   20.2496  -22.1852  -12.7564 C   0  0  0  0  0  0  0  0  0  0  0  0
   19.4045  -22.7041  -11.9953 O   0  0  0  0  0  0  0  0  0  0  0  0
   21.6928  -22.2209  -12.5045 C   0  0  0  0  0  0  0  0  0  0  0  0
   22.4608  -21.4638  -13.5553 C   0  0  2  0  0  0  0  0  0  0  0  0
   23.9031  -21.6830  -13.3636 N   0  0  0  0  0  0  0  0  0  0  0  0
   22.2100  -19.9849  -13.4555 C   0  0  0  0  0  0  0  0  0  0  0  0
   21.7452  -19.2708  -14.5757 O   0  0  0  0  0  0  0  0  0  0  0  0
   22.3815  -19.3045  -12.4324 O   0  0  0  0  0  0  0  0  0  0  0  0
  2  1  1  0
  2  3  2  0
  4  2  1  0
  5  6  1  0
  5  4  1  0
  6  7  1  6
  8  6  1  0
  8  9  2  0
 10  8  1  0
 11 10  1  0
 12 13  1  0
 11 12  1  1
 13 14  2  0
 13 18  1  0
 14 15  1  0
 15 16  2  0
 17 16  1  0
 18 17  2  0
 19 11  1  0
 20 19  2  0
 21 22  1  0
 22 23  2  0
 24 22  1  0
 25 24  1  1
 25 26  1  0
 26 19  1  0
 27 25  1  0
 28 27  1  0
 29 27  2  0
M  END
$$$$
