QFN.pdb
     RDKit          3D

 29 29  0  0  1  0  0  0  0  0999 V2000
   18.4456  -12.1575  -18.8205 N   0  0  0  0  0  0  0  0  0  0  0  0
   18.8254  -13.0672  -17.7761 C   0  0  0  0  0  0  0  0  0  0  0  0
   19.1339  -14.2268  -18.1969 O   0  0  0  0  0  0  0  0  0  0  0  0
   18.8425  -12.6696  -16.3767 C   0  0  0  0  0  0  0  0  0  0  0  0
   18.4413  -11.2880  -16.0282 C   0  0  0  0  0  0  0  0  0  0  0  0
   19.4029  -10.2016  -16.3463 C   0  0  2  0  0  0  0  0  0  0  0  0
   20.7629  -10.5638  -16.5672 N   0  0  0  0  0  0  0  0  0  0  0  0
   19.3969   -9.0705  -15.3849 C   0  0  0  0  0  0  0  0  0  0  0  0
   18.3700   -8.8878  -14.6869 O   0  0  0  0  0  0  0  0  0  0  0  0
   20.5159   -8.2224  -15.2632 N   0  0  0  0  0  0  0  0  0  0  0  0
   20.5180   -7.0376  -14.4166 C   0  0  1  0  0  0  0  0  0  0  0  0
   21.7516   -6.9157  -13.5950 C   0  0  0  0  0  0  0  0  0  0  0  0
   22.9730   -6.8708  -14.4808 C   0  0  0  0  0  0  0  0  0  0  0  0
   23.3946   -5.6436  -14.9231 C   0  0  0  0  0  0  0  0  0  0  0  0
   24.5097   -5.5121  -15.7539 C   0  0  0  0  0  0  0  0  0  0  0  0
   25.2118   -6.6217  -16.1489 C   0  0  0  0  0  0  0  0  0  0  0  0
   24.7656   -7.8644  -15.6870 C   0  0  0  0  0  0  0  0  0  0  0  0
   23.6549   -7.9922  -14.8587 C   0  0  0  0  0  0  0  0  0  0  0  0
   20.1501   -5.8535  -15.1983 C   0  0  0  0  0  0  0  0  0  0  0  0
   20.5482   -5.7907  -16.4225 O   0  0  0  0  0  0  0  0  0  0  0  0
   18.0640   -4.7494  -17.8525 N   0  0  0  0  0  0  0  0  0  0  0  0
   17.1956   -4.0034  -16.9714 C   0  0  0  0  0  0  0  0  0  0  0  0
   15.9926   -3.9604  -17.3088 O   0  0  0  0  0  0  0  0  0  0  0  0
   17.7210   -3.3495  -15.7698 C   0  0  0  0  0  0  0  0  0  0  0  0
   19.1956   -3.6010  -15.5981 C   0  0  2  0  0  0  0  0  0  0  0  0
   19.3971   -4.7730  -14.7316 N   0  0  0  0  0  0  0  0  0  0  0  0
   19.8765   -2.4312  -14.9438 C   0  0  0  0  0  0  0  0  0  0  0  0
   20.0871   -2.4254  -13.5522 O   0  0  0  0  0  0  0  0  0  0  0  0
   20.2890   -1.4259  -15.5422 O   0  0  0  0  0  0  0  0  0  0  0  0
  2  1  1  0
  2  3  2  0
  4  2  1  0
  5  6  1  0
  5  4  1  0
  6  7  1  1
  8  6  1  0
  8  9  2  0
 10  8  1  0
 11 10  1  0
 12 13  1  0
 11 12  1  6
 13 14  2  0
 13 18  1  0
 14 15  1  0
 15 16  2  0
 17 16  1  0
 18 17  2  0
 19 11  1  0
 20 19  2  0
 21 22  1  0
 22 23  2  0
 24 22  1  0
 25 24  1  1
 25 26  1  0
 26 19  1  0
 27 25  1  0
 28 27  1  0
 29 27  2  0
M  END
$$$$
