QFN.pdb
     RDKit          3D

 29 29  0  0  1  0  0  0  0  0999 V2000
   26.5352  -23.2443  -20.4231 N   0  0  0  0  0  0  0  0  0  0  0  0
   27.9035  -23.6805  -20.4105 C   0  0  0  0  0  0  0  0  0  0  0  0
   28.4707  -23.6136  -21.5465 O   0  0  0  0  0  0  0  0  0  0  0  0
   28.5504  -24.1524  -19.1958 C   0  0  0  0  0  0  0  0  0  0  0  0
   27.7916  -24.1060  -17.9256 C   0  0  0  0  0  0  0  0  0  0  0  0
   27.4522  -22.7644  -17.3866 C   0  0  2  0  0  0  0  0  0  0  0  0
   28.5048  -21.8114  -17.2695 N   0  0  0  0  0  0  0  0  0  0  0  0
   26.7277  -22.7844  -16.0911 C   0  0  0  0  0  0  0  0  0  0  0  0
   26.3262  -23.8889  -15.6505 O   0  0  0  0  0  0  0  0  0  0  0  0
   26.4948  -21.5918  -15.3772 N   0  0  0  0  0  0  0  0  0  0  0  0
   25.7475  -21.5546  -14.1279 C   0  0  1  0  0  0  0  0  0  0  0  0
   26.1734  -20.4469  -13.2317 C   0  0  0  0  0  0  0  0  0  0  0  0
   25.4200  -20.5063  -11.9250 C   0  0  0  0  0  0  0  0  0  0  0  0
   26.0149  -21.1575  -10.8755 C   0  0  0  0  0  0  0  0  0  0  0  0
   25.3838  -21.2676   -9.6343 C   0  0  0  0  0  0  0  0  0  0  0  0
   24.1414  -20.7210   -9.4399 C   0  0  0  0  0  0  0  0  0  0  0  0
   23.5514  -20.0609  -10.5230 C   0  0  0  0  0  0  0  0  0  0  0  0
   24.1830  -19.9520  -11.7581 C   0  0  0  0  0  0  0  0  0  0  0  0
   24.3088  -21.6460  -14.3932 C   0  0  0  0  0  0  0  0  0  0  0  0
   23.8083  -20.8619  -15.2853 O   0  0  0  0  0  0  0  0  0  0  0  0
   19.4441  -24.5446  -15.2984 N   0  0  0  0  0  0  0  0  0  0  0  0
   19.9573  -23.8887  -14.1180 C   0  0  0  0  0  0  0  0  0  0  0  0
   19.0995  -23.3582  -13.3794 O   0  0  0  0  0  0  0  0  0  0  0  0
   21.3947  -23.8626  -13.8339 C   0  0  0  0  0  0  0  0  0  0  0  0
   22.0024  -22.5235  -14.1574 C   0  0  2  0  0  0  0  0  0  0  0  0
   23.4190  -22.5172  -13.7595 N   0  0  0  0  0  0  0  0  0  0  0  0
   21.3160  -21.4166  -13.4066 C   0  0  0  0  0  0  0  0  0  0  0  0
   21.5800  -21.2229  -12.0378 O   0  0  0  0  0  0  0  0  0  0  0  0
   20.5026  -20.6221  -13.9027 O   0  0  0  0  0  0  0  0  0  0  0  0
  2  1  1  0
  2  3  2  0
  4  2  1  0
  5  6  1  0
  5  4  1  0
  6  7  1  1
  8  6  1  0
  8  9  2  0
 10  8  1  0
 11 10  1  0
 12 13  1  0
 11 12  1  6
 13 14  2  0
 13 18  1  0
 14 15  1  0
 15 16  2  0
 17 16  1  0
 18 17  2  0
 19 11  1  0
 20 19  2  0
 21 22  1  0
 22 23  2  0
 24 22  1  0
 25 24  1  1
 25 26  1  0
 26 19  1  0
 27 25  1  0
 28 27  1  0
 29 27  2  0
M  END
$$$$
