QFN.pdb
     RDKit          3D

 29 29  0  0  1  0  0  0  0  0999 V2000
   26.2323  -21.7832  -20.5663 N   0  0  0  0  0  0  0  0  0  0  0  0
   27.4504  -22.5384  -20.6575 C   0  0  0  0  0  0  0  0  0  0  0  0
   28.0051  -22.4756  -21.8000 O   0  0  0  0  0  0  0  0  0  0  0  0
   27.9731  -23.2964  -19.5311 C   0  0  0  0  0  0  0  0  0  0  0  0
   27.2053  -23.3042  -18.2656 C   0  0  0  0  0  0  0  0  0  0  0  0
   27.0176  -22.0013  -17.5778 C   0  0  2  0  0  0  0  0  0  0  0  0
   28.1478  -21.1408  -17.4679 N   0  0  0  0  0  0  0  0  0  0  0  0
   26.4021  -22.0972  -16.2303 C   0  0  0  0  0  0  0  0  0  0  0  0
   25.5300  -22.9785  -16.0354 O   0  0  0  0  0  0  0  0  0  0  0  0
   26.7864  -21.2176  -15.1983 N   0  0  0  0  0  0  0  0  0  0  0  0
   26.1448  -21.2089  -13.8911 C   0  0  1  0  0  0  0  0  0  0  0  0
   27.0036  -20.6204  -12.8291 C   0  0  0  0  0  0  0  0  0  0  0  0
   26.2699  -20.5972  -11.5101 C   0  0  0  0  0  0  0  0  0  0  0  0
   25.3940  -19.5667  -11.2862 C   0  0  0  0  0  0  0  0  0  0  0  0
   24.6810  -19.4633  -10.0896 C   0  0  0  0  0  0  0  0  0  0  0  0
   24.8465  -20.4014   -9.1034 C   0  0  0  0  0  0  0  0  0  0  0  0
   25.7446  -21.4449   -9.3512 C   0  0  0  0  0  0  0  0  0  0  0  0
   26.4529  -21.5457  -10.5446 C   0  0  0  0  0  0  0  0  0  0  0  0
   24.7888  -20.6618  -13.9940 C   0  0  0  0  0  0  0  0  0  0  0  0
   24.6424  -19.5136  -14.5608 O   0  0  0  0  0  0  0  0  0  0  0  0
   20.2914  -18.8932  -15.6047 N   0  0  0  0  0  0  0  0  0  0  0  0
   20.4348  -20.2733  -15.2029 C   0  0  0  0  0  0  0  0  0  0  0  0
   19.3663  -20.8941  -15.0138 O   0  0  0  0  0  0  0  0  0  0  0  0
   21.7597  -20.8766  -15.0346 C   0  0  0  0  0  0  0  0  0  0  0  0
   22.3320  -20.5929  -13.6711 C   0  0  2  0  0  0  0  0  0  0  0  0
   23.6254  -21.2798  -13.5281 N   0  0  0  0  0  0  0  0  0  0  0  0
   21.4271  -21.0996  -12.5828 C   0  0  0  0  0  0  0  0  0  0  0  0
   20.4326  -20.2616  -12.0447 O   0  0  0  0  0  0  0  0  0  0  0  0
   21.4765  -22.2383  -12.0931 O   0  0  0  0  0  0  0  0  0  0  0  0
  2  1  1  0
  2  3  2  0
  4  2  1  0
  5  6  1  0
  5  4  1  0
  6  7  1  1
  8  6  1  0
  8  9  2  0
 10  8  1  0
 11 10  1  0
 12 13  1  0
 11 12  1  1
 13 14  2  0
 13 18  1  0
 14 15  1  0
 15 16  2  0
 17 16  1  0
 18 17  2  0
 19 11  1  0
 20 19  2  0
 21 22  1  0
 22 23  2  0
 24 22  1  0
 25 24  1  6
 25 26  1  0
 26 19  1  0
 27 25  1  0
 28 27  1  0
 29 27  2  0
M  END
$$$$
