QFN.pdb
     RDKit          3D

 29 29  0  0  1  0  0  0  0  0999 V2000
   25.9043  -18.5914  -17.6222 N   0  0  0  0  0  0  0  0  0  0  0  0
   26.6791  -19.2539  -18.6338 C   0  0  0  0  0  0  0  0  0  0  0  0
   27.0622  -18.4828  -19.5694 O   0  0  0  0  0  0  0  0  0  0  0  0
   26.9779  -20.6762  -18.5672 C   0  0  0  0  0  0  0  0  0  0  0  0
   26.5494  -21.4345  -17.3703 C   0  0  0  0  0  0  0  0  0  0  0  0
   27.2011  -21.0915  -16.0805 C   0  0  2  0  0  0  0  0  0  0  0  0
   28.5073  -21.6070  -15.8401 N   0  0  0  0  0  0  0  0  0  0  0  0
   26.3820  -21.3839  -14.8776 C   0  0  0  0  0  0  0  0  0  0  0  0
   25.6454  -22.4001  -14.8914 O   0  0  0  0  0  0  0  0  0  0  0  0
   26.4291  -20.5387  -13.7507 N   0  0  0  0  0  0  0  0  0  0  0  0
   25.5950  -20.7459  -12.5752 C   0  0  1  0  0  0  0  0  0  0  0  0
   26.2041  -20.2051  -11.3309 C   0  0  0  0  0  0  0  0  0  0  0  0
   27.6335  -20.6715  -11.1976 C   0  0  0  0  0  0  0  0  0  0  0  0
   28.4963  -20.3828  -12.2230 C   0  0  0  0  0  0  0  0  0  0  0  0
   29.8333  -20.7852  -12.1855 C   0  0  0  0  0  0  0  0  0  0  0  0
   30.3140  -21.4864  -11.1097 C   0  0  0  0  0  0  0  0  0  0  0  0
   29.4179  -21.7710  -10.0739 C   0  0  0  0  0  0  0  0  0  0  0  0
   28.0866  -21.3680  -10.1137 C   0  0  0  0  0  0  0  0  0  0  0  0
   24.2177  -20.3254  -12.8487 C   0  0  0  0  0  0  0  0  0  0  0  0
   24.0189  -19.1024  -13.2033 O   0  0  0  0  0  0  0  0  0  0  0  0
   20.2318  -20.4468  -16.6166 N   0  0  0  0  0  0  0  0  0  0  0  0
   20.6912  -19.9084  -15.3572 C   0  0  0  0  0  0  0  0  0  0  0  0
   19.9446  -19.0549  -14.8308 O   0  0  0  0  0  0  0  0  0  0  0  0
   21.9548  -20.3524  -14.7626 C   0  0  0  0  0  0  0  0  0  0  0  0
   21.8028  -20.6610  -13.2967 C   0  0  2  0  0  0  0  0  0  0  0  0
   23.0860  -21.1402  -12.7593 N   0  0  0  0  0  0  0  0  0  0  0  0
   20.7839  -21.7427  -13.0691 C   0  0  0  0  0  0  0  0  0  0  0  0
   21.1140  -23.0874  -13.3213 O   0  0  0  0  0  0  0  0  0  0  0  0
   19.6279  -21.5528  -12.6611 O   0  0  0  0  0  0  0  0  0  0  0  0
  2  1  1  0
  2  3  2  0
  4  2  1  0
  5  6  1  0
  5  4  1  0
  6  7  1  1
  8  6  1  0
  8  9  2  0
 10  8  1  0
 11 10  1  0
 12 13  1  0
 11 12  1  1
 13 14  2  0
 13 18  1  0
 14 15  1  0
 15 16  2  0
 17 16  1  0
 18 17  2  0
 19 11  1  0
 20 19  2  0
 21 22  1  0
 22 23  2  0
 24 22  1  0
 25 24  1  6
 25 26  1  0
 26 19  1  0
 27 25  1  0
 28 27  1  0
 29 27  2  0
M  END
$$$$
