QHG.pdb
     RDKit          3D

 24 24  0  0  1  0  0  0  0  0999 V2000
   12.6206  -21.1178   14.7078 N   0  0  0  0  0  0  0  0  0  0  0  0
   13.4297  -20.5025   13.7301 C   0  0  0  0  0  0  0  0  0  0  0  0
   14.2408  -21.2405   13.1151 O   0  0  0  0  0  0  0  0  0  0  0  0
   13.3576  -19.0541   13.4119 C   0  0  0  0  0  0  0  0  0  0  0  0
   12.3171  -18.4029   14.2584 C   0  0  0  0  0  0  0  0  0  0  0  0
   12.1864  -16.9264   13.9976 C   0  0  2  0  0  0  0  0  0  0  0  0
   13.3332  -16.3494   13.3800 N   0  0  0  0  0  0  0  0  0  0  0  0
   11.9535  -16.2473   15.2945 C   0  0  0  0  0  0  0  0  0  0  0  0
   12.9215  -15.9573   16.0407 O   0  0  0  0  0  0  0  0  0  0  0  0
   10.6609  -15.8924   15.7615 N   0  0  0  0  0  0  0  0  0  0  0  0
   10.3927  -15.3216   17.0592 C   0  0  1  0  0  0  0  0  0  0  0  0
    8.9790  -14.7830   17.0281 C   0  0  0  0  0  0  0  0  0  0  0  0
    8.6563  -14.0273   18.2655 C   0  0  0  0  0  0  0  0  0  0  0  0
    9.5129  -13.7917   19.3389 C   0  0  0  0  0  0  0  0  0  0  0  0
    8.8606  -13.0691   20.2752 N   0  0  0  0  0  0  0  0  0  0  0  0
    7.6295  -12.8599   19.7975 C   0  0  0  0  0  0  0  0  0  0  0  0
    7.4912  -13.4311   18.5877 N   0  0  0  0  0  0  0  0  0  0  0  0
   10.6131  -16.2853   18.1372 C   0  0  0  0  0  0  0  0  0  0  0  0
   10.7764  -17.5112   17.8163 O   0  0  0  0  0  0  0  0  0  0  0  0
   10.6511  -15.9129   19.5006 N   0  0  0  0  0  0  0  0  0  0  0  0
   10.8931  -16.9184   20.4944 C   0  0  0  0  0  0  0  0  0  0  0  0
   10.7939  -16.3124   21.8603 C   0  0  0  0  0  0  0  0  0  0  0  0
   11.1414  -15.0019   22.0623 O   0  0  0  0  0  0  0  0  0  0  0  0
   10.3953  -16.9739   22.8509 O   0  0  0  0  0  0  0  0  0  0  0  0
  2  4  1  0
  2  1  1  0
  3  2  2  0
  5  6  1  0
  5  4  1  0
  6  7  1  1
  6  8  1  0
  8  9  2  0
 10  8  1  0
 10 11  1  0
 11 18  1  0
 12 13  1  0
 11 12  1  6
 13 17  1  0
 13 14  2  0
 14 15  1  0
 16 15  1  0
 17 16  2  0
 18 19  2  0
 20 18  1  0
 20 21  1  0
 22 23  1  0
 22 21  1  0
 24 22  2  0
M  END
$$$$
