QHG.pdb
     RDKit          3D

 24 24  0  0  1  0  0  0  0  0999 V2000
    9.4370  -17.4951   14.1536 N   0  0  0  0  0  0  0  0  0  0  0  0
    9.6439  -16.1277   14.4308 C   0  0  0  0  0  0  0  0  0  0  0  0
    9.5692  -15.3320   13.4602 O   0  0  0  0  0  0  0  0  0  0  0  0
    9.9385  -15.6114   15.7914 C   0  0  0  0  0  0  0  0  0  0  0  0
   11.4119  -15.4643   15.9668 C   0  0  0  0  0  0  0  0  0  0  0  0
   11.9472  -16.2543   17.1307 C   0  0  2  0  0  0  0  0  0  0  0  0
   11.2530  -17.4768   17.3617 N   0  0  0  0  0  0  0  0  0  0  0  0
   11.8437  -15.4127   18.3465 C   0  0  0  0  0  0  0  0  0  0  0  0
   12.4758  -14.3299   18.4234 O   0  0  0  0  0  0  0  0  0  0  0  0
   11.0478  -15.7662   19.4675 N   0  0  0  0  0  0  0  0  0  0  0  0
   10.9702  -14.9969   20.6857 C   0  0  1  0  0  0  0  0  0  0  0  0
    9.5032  -14.8272   21.0155 C   0  0  0  0  0  0  0  0  0  0  0  0
    8.8438  -13.8700   20.0905 C   0  0  0  0  0  0  0  0  0  0  0  0
    9.4710  -13.0888   19.1221 C   0  0  0  0  0  0  0  0  0  0  0  0
    8.5415  -12.3470   18.4819 N   0  0  0  0  0  0  0  0  0  0  0  0
    7.3657  -12.6579   19.0370 C   0  0  0  0  0  0  0  0  0  0  0  0
    7.5315  -13.5740   20.0076 N   0  0  0  0  0  0  0  0  0  0  0  0
   11.7321  -15.6130   21.7716 C   0  0  0  0  0  0  0  0  0  0  0  0
   11.7752  -14.9999   22.8918 O   0  0  0  0  0  0  0  0  0  0  0  0
   12.4120  -16.8442   21.6268 N   0  0  0  0  0  0  0  0  0  0  0  0
   13.1853  -17.3501   22.7237 C   0  0  0  0  0  0  0  0  0  0  0  0
   12.2806  -18.0141   23.7153 C   0  0  0  0  0  0  0  0  0  0  0  0
   12.7884  -18.5219   24.8830 O   0  0  0  0  0  0  0  0  0  0  0  0
   11.0459  -18.1265   23.5137 O   0  0  0  0  0  0  0  0  0  0  0  0
  2  4  1  0
  2  1  1  0
  3  2  2  0
  5  6  1  0
  5  4  1  0
  6  7  1  1
  6  8  1  0
  8  9  2  0
 10  8  1  0
 10 11  1  0
 11 18  1  0
 12 13  1  0
 11 12  1  1
 13 17  1  0
 13 14  2  0
 14 15  1  0
 16 15  1  0
 17 16  2  0
 18 19  2  0
 20 18  1  0
 20 21  1  0
 22 23  1  0
 22 21  1  0
 24 22  2  0
M  END
$$$$
