QHG.pdb
     RDKit          3D

 24 24  0  0  1  0  0  0  0  0999 V2000
   15.5492  -16.6190   21.4906 N   0  0  0  0  0  0  0  0  0  0  0  0
   15.7195  -15.2856   21.0635 C   0  0  0  0  0  0  0  0  0  0  0  0
   16.7223  -14.6695   21.5055 O   0  0  0  0  0  0  0  0  0  0  0  0
   14.7809  -14.6049   20.1360 C   0  0  0  0  0  0  0  0  0  0  0  0
   13.6926  -15.5442   19.7405 C   0  0  0  0  0  0  0  0  0  0  0  0
   12.6631  -14.9080   18.8458 C   0  0  2  0  0  0  0  0  0  0  0  0
   13.1863  -13.8792   18.0106 N   0  0  0  0  0  0  0  0  0  0  0  0
   11.6010  -14.3293   19.7028 C   0  0  0  0  0  0  0  0  0  0  0  0
   11.6560  -13.1244   20.0535 O   0  0  0  0  0  0  0  0  0  0  0  0
   10.4879  -15.0775   20.1677 N   0  0  0  0  0  0  0  0  0  0  0  0
    9.3741  -14.5147   20.8919 C   0  0  1  0  0  0  0  0  0  0  0  0
    8.1113  -14.9529   20.1826 C   0  0  0  0  0  0  0  0  0  0  0  0
    8.1401  -14.5879   18.7430 C   0  0  0  0  0  0  0  0  0  0  0  0
    7.9218  -13.3210   18.2056 C   0  0  0  0  0  0  0  0  0  0  0  0
    8.0309  -13.3861   16.8609 N   0  0  0  0  0  0  0  0  0  0  0  0
    8.3099  -14.6604   16.5682 C   0  0  0  0  0  0  0  0  0  0  0  0
    8.3789  -15.3967   17.6916 N   0  0  0  0  0  0  0  0  0  0  0  0
    9.3946  -14.8898   22.3055 C   0  0  0  0  0  0  0  0  0  0  0  0
    8.3880  -14.5656   23.0226 O   0  0  0  0  0  0  0  0  0  0  0  0
   10.4729  -15.5877   22.8965 N   0  0  0  0  0  0  0  0  0  0  0  0
   10.3852  -15.9739   24.2750 C   0  0  0  0  0  0  0  0  0  0  0  0
   11.6830  -16.5793   24.7131 C   0  0  0  0  0  0  0  0  0  0  0  0
   11.8575  -16.9746   26.0140 O   0  0  0  0  0  0  0  0  0  0  0  0
   12.6401  -16.7426   23.9161 O   0  0  0  0  0  0  0  0  0  0  0  0
  2  4  1  0
  2  1  1  0
  3  2  2  0
  5  6  1  0
  5  4  1  0
  6  7  1  1
  6  8  1  0
  8  9  2  0
 10  8  1  0
 10 11  1  0
 11 18  1  0
 12 13  1  0
 11 12  1  6
 13 17  1  0
 13 14  2  0
 14 15  1  0
 16 15  1  0
 17 16  2  0
 18 19  2  0
 20 18  1  0
 20 21  1  0
 22 23  1  0
 22 21  1  0
 24 22  2  0
M  END
$$$$
