QHG.pdb
     RDKit          3D

 24 24  0  0  1  0  0  0  0  0999 V2000
    9.5368  -12.6959   18.4924 N   0  0  0  0  0  0  0  0  0  0  0  0
    8.2692  -13.2782   18.2842 C   0  0  0  0  0  0  0  0  0  0  0  0
    7.9424  -13.5215   17.0948 O   0  0  0  0  0  0  0  0  0  0  0  0
    7.3346  -13.6040   19.3909 C   0  0  0  0  0  0  0  0  0  0  0  0
    8.0665  -13.5892   20.6899 C   0  0  0  0  0  0  0  0  0  0  0  0
    8.6355  -14.9326   21.0595 C   0  0  2  0  0  0  0  0  0  0  0  0
    7.7963  -16.0280   20.7054 N   0  0  0  0  0  0  0  0  0  0  0  0
    8.8517  -14.9549   22.5258 C   0  0  0  0  0  0  0  0  0  0  0  0
    9.5074  -14.0403   23.0836 O   0  0  0  0  0  0  0  0  0  0  0  0
    8.3465  -15.9804   23.3673 N   0  0  0  0  0  0  0  0  0  0  0  0
    8.6314  -16.0902   24.7775 C   0  0  1  0  0  0  0  0  0  0  0  0
    7.3274  -15.8801   25.5156 C   0  0  0  0  0  0  0  0  0  0  0  0
    6.9886  -14.4379   25.6241 C   0  0  0  0  0  0  0  0  0  0  0  0
    7.7732  -13.3687   25.1966 C   0  0  0  0  0  0  0  0  0  0  0  0
    7.1296  -12.2122   25.4659 N   0  0  0  0  0  0  0  0  0  0  0  0
    5.9741  -12.5520   26.0461 C   0  0  0  0  0  0  0  0  0  0  0  0
    5.8746  -13.8894   26.1483 N   0  0  0  0  0  0  0  0  0  0  0  0
    9.2767  -17.3604   25.1083 C   0  0  0  0  0  0  0  0  0  0  0  0
    9.4930  -18.1846   24.1561 O   0  0  0  0  0  0  0  0  0  0  0  0
    9.6633  -17.7025   26.4245 N   0  0  0  0  0  0  0  0  0  0  0  0
   10.4389  -18.8895   26.6402 C   0  0  0  0  0  0  0  0  0  0  0  0
   10.7776  -19.0141   28.0936 C   0  0  0  0  0  0  0  0  0  0  0  0
   11.5114  -20.0808   28.5438 O   0  0  0  0  0  0  0  0  0  0  0  0
   10.4066  -18.1591   28.9357 O   0  0  0  0  0  0  0  0  0  0  0  0
  2  4  1  0
  2  1  1  0
  3  2  2  0
  5  6  1  0
  5  4  1  0
  6  7  1  1
  6  8  1  0
  8  9  2  0
 10  8  1  0
 10 11  1  0
 11 18  1  0
 12 13  1  0
 11 12  1  1
 13 17  1  0
 13 14  2  0
 14 15  1  0
 16 15  1  0
 17 16  2  0
 18 19  2  0
 20 18  1  0
 20 21  1  0
 22 23  1  0
 22 21  1  0
 24 22  2  0
M  END
$$$$
