QHG.pdb
     RDKit          3D

 24 24  0  0  1  0  0  0  0  0999 V2000
    9.4366  -13.1607   17.7439 N   0  0  0  0  0  0  0  0  0  0  0  0
    8.1271  -13.5012   17.3457 C   0  0  0  0  0  0  0  0  0  0  0  0
    7.8416  -13.3432   16.1315 O   0  0  0  0  0  0  0  0  0  0  0  0
    7.1038  -14.0248   18.2855 C   0  0  0  0  0  0  0  0  0  0  0  0
    7.7044  -14.1993   19.6390 C   0  0  0  0  0  0  0  0  0  0  0  0
    8.5865  -15.4148   19.7385 C   0  0  2  0  0  0  0  0  0  0  0  0
    8.1033  -16.5357   19.0039 N   0  0  0  0  0  0  0  0  0  0  0  0
    8.6912  -15.7934   21.1678 C   0  0  0  0  0  0  0  0  0  0  0  0
    7.6647  -16.1212   21.8134 O   0  0  0  0  0  0  0  0  0  0  0  0
    9.9210  -15.8092   21.8765 N   0  0  0  0  0  0  0  0  0  0  0  0
   10.0872  -16.3430   23.2066 C   0  0  1  0  0  0  0  0  0  0  0  0
    9.6978  -17.8042   23.1547 C   0  0  0  0  0  0  0  0  0  0  0  0
    8.2234  -17.9776   23.2076 C   0  0  0  0  0  0  0  0  0  0  0  0
    7.3219  -17.1877   23.9180 C   0  0  0  0  0  0  0  0  0  0  0  0
    6.0709  -17.6565   23.7194 N   0  0  0  0  0  0  0  0  0  0  0  0
    6.1899  -18.7111   22.9064 C   0  0  0  0  0  0  0  0  0  0  0  0
    7.4806  -18.9170   22.5893 N   0  0  0  0  0  0  0  0  0  0  0  0
   11.4416  -16.1307   23.7164 C   0  0  0  0  0  0  0  0  0  0  0  0
   11.6949  -16.5088   24.9103 O   0  0  0  0  0  0  0  0  0  0  0  0
   12.4641  -15.5309   22.9457 N   0  0  0  0  0  0  0  0  0  0  0  0
   13.7636  -15.3513   23.5255 C   0  0  0  0  0  0  0  0  0  0  0  0
   14.6390  -16.5140   23.1724 C   0  0  0  0  0  0  0  0  0  0  0  0
   15.9992  -16.4246   23.3168 O   0  0  0  0  0  0  0  0  0  0  0  0
   14.1639  -17.5930   22.7388 O   0  0  0  0  0  0  0  0  0  0  0  0
  2  4  1  0
  2  1  1  0
  3  2  2  0
  5  6  1  0
  5  4  1  0
  6  7  1  6
  6  8  1  0
  8  9  2  0
 10  8  1  0
 10 11  1  0
 11 18  1  0
 12 13  1  0
 11 12  1  6
 13 17  1  0
 13 14  2  0
 14 15  1  0
 16 15  1  0
 17 16  2  0
 18 19  2  0
 20 18  1  0
 20 21  1  0
 22 23  1  0
 22 21  1  0
 24 22  2  0
M  END
$$$$
