QHG.pdb
     RDKit          3D

 24 24  0  0  1  0  0  0  0  0999 V2000
   14.9098  -15.4971   14.6673 N   0  0  0  0  0  0  0  0  0  0  0  0
   13.7318  -15.8937   14.0007 C   0  0  0  0  0  0  0  0  0  0  0  0
   13.8714  -16.5871   12.9612 O   0  0  0  0  0  0  0  0  0  0  0  0
   12.3716  -15.5301   14.4719 C   0  0  0  0  0  0  0  0  0  0  0  0
   12.4696  -14.7276   15.7248 C   0  0  0  0  0  0  0  0  0  0  0  0
   12.8045  -15.5614   16.9322 C   0  0  2  0  0  0  0  0  0  0  0  0
   12.1301  -16.8158   16.9680 N   0  0  0  0  0  0  0  0  0  0  0  0
   12.4358  -14.7896   18.1429 C   0  0  0  0  0  0  0  0  0  0  0  0
   12.9183  -13.6461   18.3367 O   0  0  0  0  0  0  0  0  0  0  0  0
   11.5410  -15.2788   19.1302 N   0  0  0  0  0  0  0  0  0  0  0  0
   11.1051  -14.5234   20.2796 C   0  0  1  0  0  0  0  0  0  0  0  0
    9.6402  -14.8369   20.4924 C   0  0  0  0  0  0  0  0  0  0  0  0
    8.7758  -14.0510   19.5750 C   0  0  0  0  0  0  0  0  0  0  0  0
    9.2027  -13.1248   18.6255 C   0  0  0  0  0  0  0  0  0  0  0  0
    8.1261  -12.6179   17.9867 N   0  0  0  0  0  0  0  0  0  0  0  0
    7.0562  -13.2128   18.5241 C   0  0  0  0  0  0  0  0  0  0  0  0
    7.4314  -14.0787   19.4824 N   0  0  0  0  0  0  0  0  0  0  0  0
   11.9253  -14.7990   21.4590 C   0  0  0  0  0  0  0  0  0  0  0  0
   11.5507  -14.3016   22.5747 O   0  0  0  0  0  0  0  0  0  0  0  0
   13.0998  -15.5845   21.4077 N   0  0  0  0  0  0  0  0  0  0  0  0
   13.8201  -15.8465   22.6200 C   0  0  0  0  0  0  0  0  0  0  0  0
   15.0052  -16.7135   22.3257 C   0  0  0  0  0  0  0  0  0  0  0  0
   15.8463  -17.1014   23.3362 O   0  0  0  0  0  0  0  0  0  0  0  0
   15.2644  -17.1080   21.1616 O   0  0  0  0  0  0  0  0  0  0  0  0
  2  4  1  0
  2  1  1  0
  3  2  2  0
  5  6  1  0
  5  4  1  0
  6  7  1  6
  6  8  1  0
  8  9  2  0
 10  8  1  0
 10 11  1  0
 11 18  1  0
 12 13  1  0
 11 12  1  1
 13 17  1  0
 13 14  2  0
 14 15  1  0
 16 15  1  0
 17 16  2  0
 18 19  2  0
 20 18  1  0
 20 21  1  0
 22 23  1  0
 22 21  1  0
 24 22  2  0
M  END
$$$$
