QHG.pdb
     RDKit          3D

 24 24  0  0  1  0  0  0  0  0999 V2000
    9.3358  -13.8068   16.8564 N   0  0  0  0  0  0  0  0  0  0  0  0
    7.9377  -13.9179   17.0052 C   0  0  0  0  0  0  0  0  0  0  0  0
    7.2891  -14.3238   16.0076 O   0  0  0  0  0  0  0  0  0  0  0  0
    7.2267  -13.5811   18.2644 C   0  0  0  0  0  0  0  0  0  0  0  0
    8.1946  -13.5536   19.3983 C   0  0  0  0  0  0  0  0  0  0  0  0
    8.6807  -14.9232   19.7897 C   0  0  2  0  0  0  0  0  0  0  0  0
    7.7043  -15.9473   19.6240 N   0  0  0  0  0  0  0  0  0  0  0  0
    9.0856  -14.8796   21.2149 C   0  0  0  0  0  0  0  0  0  0  0  0
    9.8886  -14.0022   21.6190 O   0  0  0  0  0  0  0  0  0  0  0  0
    8.6060  -15.7986   22.1846 N   0  0  0  0  0  0  0  0  0  0  0  0
    9.1643  -15.9530   23.5060 C   0  0  1  0  0  0  0  0  0  0  0  0
    8.0052  -16.0382   24.4749 C   0  0  0  0  0  0  0  0  0  0  0  0
    7.3968  -14.7046   24.7157 C   0  0  0  0  0  0  0  0  0  0  0  0
    7.8378  -13.4880   24.1992 C   0  0  0  0  0  0  0  0  0  0  0  0
    7.0297  -12.5005   24.6419 N   0  0  0  0  0  0  0  0  0  0  0  0
    6.1091  -13.0867   25.4141 C   0  0  0  0  0  0  0  0  0  0  0  0
    6.3170  -14.4143   25.4683 N   0  0  0  0  0  0  0  0  0  0  0  0
   10.0640  -17.1032   23.5892 C   0  0  0  0  0  0  0  0  0  0  0  0
    9.6479  -18.2197   23.1279 O   0  0  0  0  0  0  0  0  0  0  0  0
   11.3579  -17.0234   24.1536 N   0  0  0  0  0  0  0  0  0  0  0  0
   12.1941  -18.1887   24.1548 C   0  0  0  0  0  0  0  0  0  0  0  0
   13.5217  -17.8567   24.7632 C   0  0  0  0  0  0  0  0  0  0  0  0
   14.4578  -18.8389   24.9588 O   0  0  0  0  0  0  0  0  0  0  0  0
   13.8174  -16.6860   25.1093 O   0  0  0  0  0  0  0  0  0  0  0  0
  2  4  1  0
  2  1  1  0
  3  2  2  0
  5  6  1  0
  5  4  1  0
  6  7  1  1
  6  8  1  0
  8  9  2  0
 10  8  1  0
 10 11  1  0
 11 18  1  0
 12 13  1  0
 11 12  1  1
 13 17  1  0
 13 14  2  0
 14 15  1  0
 16 15  1  0
 17 16  2  0
 18 19  2  0
 20 18  1  0
 20 21  1  0
 22 23  1  0
 22 21  1  0
 24 22  2  0
M  END
$$$$
