QHG.pdb
     RDKit          3D

 24 24  0  0  1  0  0  0  0  0999 V2000
    4.2652  -19.3709   21.4668 N   0  0  0  0  0  0  0  0  0  0  0  0
    5.2538  -19.6459   22.4344 C   0  0  0  0  0  0  0  0  0  0  0  0
    4.8721  -20.1963   23.4984 O   0  0  0  0  0  0  0  0  0  0  0  0
    6.6891  -19.3166   22.2440 C   0  0  0  0  0  0  0  0  0  0  0  0
    6.8624  -18.5203   20.9953 C   0  0  0  0  0  0  0  0  0  0  0  0
    8.3068  -18.2983   20.6353 C   0  0  2  0  0  0  0  0  0  0  0  0
    9.1587  -19.3851   20.9855 N   0  0  0  0  0  0  0  0  0  0  0  0
    8.7762  -17.0813   21.3394 C   0  0  0  0  0  0  0  0  0  0  0  0
    9.9946  -16.9344   21.6074 O   0  0  0  0  0  0  0  0  0  0  0  0
    7.9050  -16.0360   21.7435 N   0  0  0  0  0  0  0  0  0  0  0  0
    8.3331  -14.8348   22.4184 C   0  0  1  0  0  0  0  0  0  0  0  0
    7.4433  -13.7094   21.9374 C   0  0  0  0  0  0  0  0  0  0  0  0
    7.6383  -13.4412   20.4895 C   0  0  0  0  0  0  0  0  0  0  0  0
    8.4230  -12.4334   19.9324 C   0  0  0  0  0  0  0  0  0  0  0  0
    8.3496  -12.5088   18.5859 N   0  0  0  0  0  0  0  0  0  0  0  0
    7.5402  -13.5368   18.3112 C   0  0  0  0  0  0  0  0  0  0  0  0
    7.1038  -14.1085   19.4476 N   0  0  0  0  0  0  0  0  0  0  0  0
    8.3215  -14.9902   23.8727 C   0  0  0  0  0  0  0  0  0  0  0  0
    8.6568  -13.9820   24.5824 O   0  0  0  0  0  0  0  0  0  0  0  0
    7.9577  -16.1986   24.5103 N   0  0  0  0  0  0  0  0  0  0  0  0
    7.9478  -16.2586   25.9433 C   0  0  0  0  0  0  0  0  0  0  0  0
    9.1406  -17.0256   26.4246 C   0  0  0  0  0  0  0  0  0  0  0  0
    9.3022  -17.2862   27.7607 O   0  0  0  0  0  0  0  0  0  0  0  0
   10.0191  -17.4493   25.6330 O   0  0  0  0  0  0  0  0  0  0  0  0
  2  4  1  0
  2  1  1  0
  3  2  2  0
  5  6  1  0
  5  4  1  0
  6  7  1  1
  6  8  1  0
  8  9  2  0
 10  8  1  0
 10 11  1  0
 11 18  1  0
 12 13  1  0
 11 12  1  1
 13 17  1  0
 13 14  2  0
 14 15  1  0
 16 15  1  0
 17 16  2  0
 18 19  2  0
 20 18  1  0
 20 21  1  0
 22 23  1  0
 22 21  1  0
 24 22  2  0
M  END
$$$$
