MFC.pdb
     RDKit          3D

 26 26  0  0  1  0  0  0  0  0999 V2000
   12.6274  -17.8283   18.1219 C   0  0  0  0  0  0  0  0  0  0  0  0
   11.0901  -18.4295   17.4784 S   0  0  0  0  0  0  0  0  0  0  0  0
    9.6977  -18.4863   18.5692 C   0  0  0  0  0  0  0  0  0  0  0  0
    9.5659  -17.2742   19.4303 C   0  0  0  0  0  0  0  0  0  0  0  0
    9.3905  -17.6071   20.8646 C   0  0  2  0  0  0  0  0  0  0  0  0
    8.1346  -18.2516   21.0831 N   0  0  0  0  0  0  0  0  0  0  0  0
    9.4393  -16.3744   21.7285 C   0  0  0  0  0  0  0  0  0  0  0  0
   10.3575  -15.5572   21.5420 O   0  0  0  0  0  0  0  0  0  0  0  0
    8.4457  -16.1988   22.7092 N   0  0  0  0  0  0  0  0  0  0  0  0
    8.4861  -15.0545   23.6430 C   0  0  1  0  0  0  0  0  0  0  0  0
    7.0780  -14.7794   24.1226 C   0  0  0  0  0  0  0  0  0  0  0  0
    6.9384  -13.6974   25.0972 C   0  0  0  0  0  0  0  0  0  0  0  0
    6.7310  -12.3738   24.7555 C   0  0  0  0  0  0  0  0  0  0  0  0
    6.5700  -11.3682   25.6923 C   0  0  0  0  0  0  0  0  0  0  0  0
    6.6185  -11.7011   27.0235 C   0  0  0  0  0  0  0  0  0  0  0  0
    6.8205  -12.9912   27.4206 C   0  0  0  0  0  0  0  0  0  0  0  0
    6.9770  -13.9680   26.4717 C   0  0  0  0  0  0  0  0  0  0  0  0
    9.3562  -15.4262   24.7783 C   0  0  0  0  0  0  0  0  0  0  0  0
    9.7573  -14.5183   25.5523 O   0  0  0  0  0  0  0  0  0  0  0  0
    9.7634  -16.7551   25.0486 N   0  0  0  0  0  0  0  0  0  0  0  0
   10.6476  -17.1570   26.1113 C   0  0  1  0  0  0  0  0  0  0  0  0
   10.1405  -18.3908   26.7817 C   0  0  0  0  0  0  0  0  0  0  0  0
    8.4547  -18.1518   27.4400 S   0  0  0  0  0  0  0  0  0  0  0  0
   12.0688  -17.3007   25.6462 C   0  0  0  0  0  0  0  0  0  0  0  0
   12.3656  -17.0635   24.3250 O   0  0  0  0  0  0  0  0  0  0  0  0
   12.9721  -17.6327   26.4609 O   0  0  0  0  0  0  0  0  0  0  0  0
  2  1  1  0
  3  2  1  0
  3  4  1  0
  4  5  1  0
  5  7  1  0
  5  6  1  6
  7  8  2  0
  9  7  1  0
  9 10  1  0
 10 11  1  1
 11 12  1  0
 12 17  2  0
 13 12  1  0
 13 14  2  0
 14 15  1  0
 15 16  2  0
 17 16  1  0
 18 20  1  0
 18 10  1  0
 19 18  2  0
 21 22  1  6
 21 20  1  0
 23 22  1  0
 24 21  1  0
 24 25  1  0
 26 24  2  0
M  END
$$$$
