MFC.pdb
     RDKit          3D

 26 26  0  0  1  0  0  0  0  0999 V2000
    8.3433  -20.1346   19.3039 C   0  0  0  0  0  0  0  0  0  0  0  0
    8.1456  -18.8638   18.0853 S   0  0  0  0  0  0  0  0  0  0  0  0
    8.1007  -17.1829   18.6370 C   0  0  0  0  0  0  0  0  0  0  0  0
    8.5591  -17.0063   20.0466 C   0  0  0  0  0  0  0  0  0  0  0  0
    8.4370  -15.6053   20.5170 C   0  0  2  0  0  0  0  0  0  0  0  0
    9.2530  -14.7360   19.7304 N   0  0  0  0  0  0  0  0  0  0  0  0
    8.8589  -15.4663   21.9560 C   0  0  0  0  0  0  0  0  0  0  0  0
   10.0221  -15.1006   22.1990 O   0  0  0  0  0  0  0  0  0  0  0  0
    7.9211  -15.7555   22.9643 N   0  0  0  0  0  0  0  0  0  0  0  0
    8.3214  -15.8230   24.3850 C   0  0  1  0  0  0  0  0  0  0  0  0
    7.1299  -15.4419   25.2357 C   0  0  0  0  0  0  0  0  0  0  0  0
    7.0699  -14.0417   25.6549 C   0  0  0  0  0  0  0  0  0  0  0  0
    7.7601  -13.5310   26.7387 C   0  0  0  0  0  0  0  0  0  0  0  0
    7.7157  -12.1965   27.1017 C   0  0  0  0  0  0  0  0  0  0  0  0
    6.9501  -11.3397   26.3501 C   0  0  0  0  0  0  0  0  0  0  0  0
    6.2469  -11.7868   25.2691 C   0  0  0  0  0  0  0  0  0  0  0  0
    6.3085  -13.1139   24.9315 C   0  0  0  0  0  0  0  0  0  0  0  0
    8.7401  -17.2107   24.6728 C   0  0  0  0  0  0  0  0  0  0  0  0
    8.3441  -18.1300   23.9098 O   0  0  0  0  0  0  0  0  0  0  0  0
    9.5705  -17.5664   25.7633 N   0  0  0  0  0  0  0  0  0  0  0  0
   10.8228  -18.2695   25.6637 C   0  0  1  0  0  0  0  0  0  0  0  0
   11.7279  -17.5996   24.6834 C   0  0  0  0  0  0  0  0  0  0  0  0
   12.8515  -18.7947   23.8826 S   0  0  0  0  0  0  0  0  0  0  0  0
   11.4740  -18.4658   27.0032 C   0  0  0  0  0  0  0  0  0  0  0  0
   12.4700  -19.4051   27.1295 O   0  0  0  0  0  0  0  0  0  0  0  0
   11.1092  -17.7751   27.9930 O   0  0  0  0  0  0  0  0  0  0  0  0
  2  1  1  0
  3  2  1  0
  3  4  1  0
  4  5  1  0
  5  7  1  0
  5  6  1  6
  7  8  2  0
  9  7  1  0
  9 10  1  0
 10 11  1  1
 11 12  1  0
 12 17  2  0
 13 12  1  0
 13 14  2  0
 14 15  1  0
 15 16  2  0
 17 16  1  0
 18 20  1  0
 18 10  1  0
 19 18  2  0
 21 22  1  6
 21 20  1  0
 23 22  1  0
 24 21  1  0
 24 25  1  0
 26 24  2  0
M  END
$$$$
