MFC.pdb
     RDKit          3D

 26 26  0  0  1  0  0  0  0  0999 V2000
    7.0928  -22.4406   26.5171 C   0  0  0  0  0  0  0  0  0  0  0  0
    6.0941  -22.9769   25.1555 S   0  0  0  0  0  0  0  0  0  0  0  0
    5.8038  -21.8334   23.8364 C   0  0  0  0  0  0  0  0  0  0  0  0
    6.6787  -20.6253   23.8922 C   0  0  0  0  0  0  0  0  0  0  0  0
    6.2436  -19.5597   22.9573 C   0  0  2  0  0  0  0  0  0  0  0  0
    6.4956  -19.9417   21.6042 N   0  0  0  0  0  0  0  0  0  0  0  0
    6.9668  -18.2649   23.2193 C   0  0  0  0  0  0  0  0  0  0  0  0
    7.9624  -17.9925   22.5262 O   0  0  0  0  0  0  0  0  0  0  0  0
    6.4869  -17.4184   24.2356 N   0  0  0  0  0  0  0  0  0  0  0  0
    7.1927  -16.1689   24.5876 C   0  0  1  0  0  0  0  0  0  0  0  0
    6.2197  -15.2548   25.2991 C   0  0  0  0  0  0  0  0  0  0  0  0
    6.7755  -13.9945   25.7915 C   0  0  0  0  0  0  0  0  0  0  0  0
    7.2138  -12.9719   24.9706 C   0  0  0  0  0  0  0  0  0  0  0  0
    7.7079  -11.7736   25.4548 C   0  0  0  0  0  0  0  0  0  0  0  0
    7.7654  -11.5920   26.8146 C   0  0  0  0  0  0  0  0  0  0  0  0
    7.3468  -12.5661   27.6742 C   0  0  0  0  0  0  0  0  0  0  0  0
    6.8617  -13.7439   27.1677 C   0  0  0  0  0  0  0  0  0  0  0  0
    8.3189  -16.5196   25.4779 C   0  0  0  0  0  0  0  0  0  0  0  0
    8.0953  -17.2650   26.4671 O   0  0  0  0  0  0  0  0  0  0  0  0
    9.6447  -16.0648   25.2773 N   0  0  0  0  0  0  0  0  0  0  0  0
   10.8263  -16.6623   25.8426 C   0  0  1  0  0  0  0  0  0  0  0  0
   11.9442  -16.6596   24.8531 C   0  0  0  0  0  0  0  0  0  0  0  0
   12.3091  -14.9729   24.2579 S   0  0  0  0  0  0  0  0  0  0  0  0
   11.2156  -16.0298   27.1484 C   0  0  0  0  0  0  0  0  0  0  0  0
   10.5180  -14.9311   27.5916 O   0  0  0  0  0  0  0  0  0  0  0  0
   12.1679  -16.5051   27.8243 O   0  0  0  0  0  0  0  0  0  0  0  0
  2  1  1  0
  3  2  1  0
  3  4  1  0
  4  5  1  0
  5  7  1  0
  5  6  1  6
  7  8  2  0
  9  7  1  0
  9 10  1  0
 10 11  1  1
 11 12  1  0
 12 17  2  0
 13 12  1  0
 13 14  2  0
 14 15  1  0
 15 16  2  0
 17 16  1  0
 18 20  1  0
 18 10  1  0
 19 18  2  0
 21 22  1  6
 21 20  1  0
 23 22  1  0
 24 21  1  0
 24 25  1  0
 26 24  2  0
M  END
$$$$
