MFC.pdb
     RDKit          3D

 26 26  0  0  1  0  0  0  0  0999 V2000
    7.8333  -12.9024   17.3974 C   0  0  0  0  0  0  0  0  0  0  0  0
    8.7069  -14.4218   17.1389 S   0  0  0  0  0  0  0  0  0  0  0  0
    8.6073  -15.6624   18.3971 C   0  0  0  0  0  0  0  0  0  0  0  0
    8.2551  -15.1195   19.7422 C   0  0  0  0  0  0  0  0  0  0  0  0
    8.1699  -16.1743   20.7810 C   0  0  2  0  0  0  0  0  0  0  0  0
    7.2355  -17.1847   20.3985 N   0  0  0  0  0  0  0  0  0  0  0  0
    7.7313  -15.6106   22.1069 C   0  0  0  0  0  0  0  0  0  0  0  0
    6.7985  -14.7887   22.1211 O   0  0  0  0  0  0  0  0  0  0  0  0
    8.3938  -16.0367   23.2728 N   0  0  0  0  0  0  0  0  0  0  0  0
    8.6664  -15.1009   24.3833 C   0  0  1  0  0  0  0  0  0  0  0  0
    7.5699  -15.2512   25.4146 C   0  0  0  0  0  0  0  0  0  0  0  0
    7.2767  -14.0584   26.2092 C   0  0  0  0  0  0  0  0  0  0  0  0
    6.2664  -13.1627   25.9115 C   0  0  0  0  0  0  0  0  0  0  0  0
    5.9836  -12.0562   26.6927 C   0  0  0  0  0  0  0  0  0  0  0  0
    6.7423  -11.8379   27.8161 C   0  0  0  0  0  0  0  0  0  0  0  0
    7.7530  -12.6882   28.1602 C   0  0  0  0  0  0  0  0  0  0  0  0
    8.0120  -13.7769   27.3685 C   0  0  0  0  0  0  0  0  0  0  0  0
    9.9770  -15.4576   24.9656 C   0  0  0  0  0  0  0  0  0  0  0  0
   11.0073  -14.8822   24.5280 O   0  0  0  0  0  0  0  0  0  0  0  0
   10.1397  -16.4134   25.9976 N   0  0  0  0  0  0  0  0  0  0  0  0
   11.3000  -16.5423   26.8400 C   0  0  1  0  0  0  0  0  0  0  0  0
   11.6167  -15.2436   27.5047 C   0  0  0  0  0  0  0  0  0  0  0  0
   10.8326  -15.1227   29.1488 S   0  0  0  0  0  0  0  0  0  0  0  0
   11.1683  -17.6714   27.8221 C   0  0  0  0  0  0  0  0  0  0  0  0
   12.2797  -18.0817   28.5198 O   0  0  0  0  0  0  0  0  0  0  0  0
   10.0519  -18.2295   28.0009 O   0  0  0  0  0  0  0  0  0  0  0  0
  2  1  1  0
  3  2  1  0
  3  4  1  0
  4  5  1  0
  5  7  1  0
  5  6  1  6
  7  8  2  0
  9  7  1  0
  9 10  1  0
 10 11  1  1
 11 12  1  0
 12 17  2  0
 13 12  1  0
 13 14  2  0
 14 15  1  0
 15 16  2  0
 17 16  1  0
 18 20  1  0
 18 10  1  0
 19 18  2  0
 21 22  1  1
 21 20  1  0
 23 22  1  0
 24 21  1  0
 24 25  1  0
 26 24  2  0
M  END
$$$$
