MFC.pdb
     RDKit          3D

 26 26  0  0  1  0  0  0  0  0999 V2000
    8.4554  -12.3393   18.3088 C   0  0  0  0  0  0  0  0  0  0  0  0
    7.7307  -13.9284   18.0120 S   0  0  0  0  0  0  0  0  0  0  0  0
    8.0123  -15.2061   19.2038 C   0  0  0  0  0  0  0  0  0  0  0  0
    9.4181  -15.2552   19.7033 C   0  0  0  0  0  0  0  0  0  0  0  0
    9.5863  -16.1807   20.8496 C   0  0  2  0  0  0  0  0  0  0  0  0
    8.4891  -17.0919   20.9277 N   0  0  0  0  0  0  0  0  0  0  0  0
    9.6677  -15.4348   22.1554 C   0  0  0  0  0  0  0  0  0  0  0  0
   10.7265  -14.8464   22.4358 O   0  0  0  0  0  0  0  0  0  0  0  0
    8.5443  -15.4344   23.0027 N   0  0  0  0  0  0  0  0  0  0  0  0
    8.5391  -14.6685   24.2662 C   0  0  1  0  0  0  0  0  0  0  0  0
    7.2687  -13.8492   24.3229 C   0  0  0  0  0  0  0  0  0  0  0  0
    7.0558  -13.0909   25.5556 C   0  0  0  0  0  0  0  0  0  0  0  0
    7.7801  -11.9657   25.9037 C   0  0  0  0  0  0  0  0  0  0  0  0
    7.5434  -11.2428   27.0595 C   0  0  0  0  0  0  0  0  0  0  0  0
    6.5423  -11.6630   27.8999 C   0  0  0  0  0  0  0  0  0  0  0  0
    5.7942  -12.7668   27.6084 C   0  0  0  0  0  0  0  0  0  0  0  0
    6.0497  -13.4648   26.4567 C   0  0  0  0  0  0  0  0  0  0  0  0
    8.5815  -15.6356   25.3829 C   0  0  0  0  0  0  0  0  0  0  0  0
    8.5953  -15.1946   26.5616 O   0  0  0  0  0  0  0  0  0  0  0  0
    8.6035  -17.0397   25.2005 N   0  0  0  0  0  0  0  0  0  0  0  0
    8.5867  -18.0185   26.2561 C   0  0  1  0  0  0  0  0  0  0  0  0
    7.3129  -18.7968   26.2341 C   0  0  0  0  0  0  0  0  0  0  0  0
    6.5108  -18.7245   24.5959 S   0  0  0  0  0  0  0  0  0  0  0  0
    9.7998  -18.9043   26.2309 C   0  0  0  0  0  0  0  0  0  0  0  0
   10.7169  -18.7510   25.2182 O   0  0  0  0  0  0  0  0  0  0  0  0
    9.9696  -19.7727   27.1291 O   0  0  0  0  0  0  0  0  0  0  0  0
  2  1  1  0
  3  2  1  0
  3  4  1  0
  4  5  1  0
  5  7  1  0
  5  6  1  1
  7  8  2  0
  9  7  1  0
  9 10  1  0
 10 11  1  1
 11 12  1  0
 12 17  2  0
 13 12  1  0
 13 14  2  0
 14 15  1  0
 15 16  2  0
 17 16  1  0
 18 20  1  0
 18 10  1  0
 19 18  2  0
 21 22  1  6
 21 20  1  0
 23 22  1  0
 24 21  1  0
 24 25  1  0
 26 24  2  0
M  END
$$$$
