MFC.pdb
     RDKit          3D

 26 26  0  0  1  0  0  0  0  0999 V2000
   11.4977  -21.3237   24.6478 C   0  0  0  0  0  0  0  0  0  0  0  0
   10.7110  -21.8858   23.1633 S   0  0  0  0  0  0  0  0  0  0  0  0
    9.8387  -20.6977   22.1837 C   0  0  0  0  0  0  0  0  0  0  0  0
    9.8486  -19.3233   22.7659 C   0  0  0  0  0  0  0  0  0  0  0  0
    9.0646  -18.3552   21.9616 C   0  0  2  0  0  0  0  0  0  0  0  0
    9.5284  -18.3288   20.6109 N   0  0  0  0  0  0  0  0  0  0  0  0
    9.1698  -16.9599   22.5187 C   0  0  0  0  0  0  0  0  0  0  0  0
   10.0836  -16.2251   22.1054 O   0  0  0  0  0  0  0  0  0  0  0  0
    8.2314  -16.5462   23.4821 N   0  0  0  0  0  0  0  0  0  0  0  0
    8.3145  -15.2097   24.1066 C   0  0  1  0  0  0  0  0  0  0  0  0
    6.9745  -14.8907   24.7321 C   0  0  0  0  0  0  0  0  0  0  0  0
    6.8900  -13.6109   25.4357 C   0  0  0  0  0  0  0  0  0  0  0  0
    6.0499  -13.3744   26.5080 C   0  0  0  0  0  0  0  0  0  0  0  0
    6.0061  -12.1663   27.1812 C   0  0  0  0  0  0  0  0  0  0  0  0
    6.8362  -11.1552   26.7643 C   0  0  0  0  0  0  0  0  0  0  0  0
    7.6869  -11.3306   25.7114 C   0  0  0  0  0  0  0  0  0  0  0  0
    7.7100  -12.5376   25.0620 C   0  0  0  0  0  0  0  0  0  0  0  0
    9.3700  -15.2567   25.1398 C   0  0  0  0  0  0  0  0  0  0  0  0
   10.1478  -14.2735   25.2517 O   0  0  0  0  0  0  0  0  0  0  0  0
    9.5544  -16.3508   26.0196 N   0  0  0  0  0  0  0  0  0  0  0  0
   10.4027  -16.3524   27.1827 C   0  0  1  0  0  0  0  0  0  0  0  0
    9.9029  -15.3829   28.2021 C   0  0  0  0  0  0  0  0  0  0  0  0
   10.7501  -13.7715   28.0675 S   0  0  0  0  0  0  0  0  0  0  0  0
   10.5920  -17.7313   27.7480 C   0  0  0  0  0  0  0  0  0  0  0  0
   11.3870  -17.8940   28.8578 O   0  0  0  0  0  0  0  0  0  0  0  0
   10.0260  -18.7208   27.2091 O   0  0  0  0  0  0  0  0  0  0  0  0
  2  1  1  0
  3  2  1  0
  3  4  1  0
  4  5  1  0
  5  7  1  0
  5  6  1  6
  7  8  2  0
  9  7  1  0
  9 10  1  0
 10 11  1  1
 11 12  1  0
 12 17  2  0
 13 12  1  0
 13 14  2  0
 14 15  1  0
 15 16  2  0
 17 16  1  0
 18 20  1  0
 18 10  1  0
 19 18  2  0
 21 22  1  1
 21 20  1  0
 23 22  1  0
 24 21  1  0
 24 25  1  0
 26 24  2  0
M  END
$$$$
