MFC.pdb
     RDKit          3D

 26 26  0  0  1  0  0  0  0  0999 V2000
   12.0436  -21.0910   21.3332 C   0  0  0  0  0  0  0  0  0  0  0  0
   11.2228  -20.6896   19.8153 S   0  0  0  0  0  0  0  0  0  0  0  0
    9.9065  -19.5080   19.8693 C   0  0  0  0  0  0  0  0  0  0  0  0
   10.0054  -18.5584   21.0168 C   0  0  0  0  0  0  0  0  0  0  0  0
    9.5820  -17.1828   20.6596 C   0  0  2  0  0  0  0  0  0  0  0  0
   10.3887  -16.6656   19.6004 N   0  0  0  0  0  0  0  0  0  0  0  0
    9.6965  -16.2465   21.8337 C   0  0  0  0  0  0  0  0  0  0  0  0
   10.8281  -15.8600   22.1742 O   0  0  0  0  0  0  0  0  0  0  0  0
    8.5204  -15.8484   22.4955 N   0  0  0  0  0  0  0  0  0  0  0  0
    8.5710  -14.9788   23.6890 C   0  0  1  0  0  0  0  0  0  0  0  0
    7.2289  -14.2975   23.8408 C   0  0  0  0  0  0  0  0  0  0  0  0
    7.0687  -13.4676   25.0347 C   0  0  0  0  0  0  0  0  0  0  0  0
    7.6819  -12.2407   25.2091 C   0  0  0  0  0  0  0  0  0  0  0  0
    7.4938  -11.4550   26.3324 C   0  0  0  0  0  0  0  0  0  0  0  0
    6.6587  -11.9159   27.3201 C   0  0  0  0  0  0  0  0  0  0  0  0
    6.0260  -13.1197   27.2033 C   0  0  0  0  0  0  0  0  0  0  0  0
    6.2301  -13.8781   26.0799 C   0  0  0  0  0  0  0  0  0  0  0  0
    8.8531  -15.8334   24.8612 C   0  0  0  0  0  0  0  0  0  0  0  0
    8.2947  -16.9590   24.9345 O   0  0  0  0  0  0  0  0  0  0  0  0
    9.7250  -15.4567   25.9114 N   0  0  0  0  0  0  0  0  0  0  0  0
   10.1758  -16.3199   26.9717 C   0  0  1  0  0  0  0  0  0  0  0  0
   11.4336  -17.0231   26.5812 C   0  0  0  0  0  0  0  0  0  0  0  0
   12.7427  -15.8425   26.1072 S   0  0  0  0  0  0  0  0  0  0  0  0
   10.3080  -15.5938   28.2801 C   0  0  0  0  0  0  0  0  0  0  0  0
   10.0875  -14.2372   28.3155 O   0  0  0  0  0  0  0  0  0  0  0  0
   10.6154  -16.2250   29.3275 O   0  0  0  0  0  0  0  0  0  0  0  0
  2  1  1  0
  3  2  1  0
  3  4  1  0
  4  5  1  0
  5  7  1  0
  5  6  1  6
  7  8  2  0
  9  7  1  0
  9 10  1  0
 10 11  1  1
 11 12  1  0
 12 17  2  0
 13 12  1  0
 13 14  2  0
 14 15  1  0
 15 16  2  0
 17 16  1  0
 18 20  1  0
 18 10  1  0
 19 18  2  0
 21 22  1  6
 21 20  1  0
 23 22  1  0
 24 21  1  0
 24 25  1  0
 26 24  2  0
M  END
$$$$
