MFC.pdb
     RDKit          3D

 26 26  0  0  1  0  0  0  0  0999 V2000
    8.1783  -13.8644   15.1829 C   0  0  0  0  0  0  0  0  0  0  0  0
    8.6183  -13.6457   16.8850 S   0  0  0  0  0  0  0  0  0  0  0  0
    7.4822  -14.2148   18.1169 C   0  0  0  0  0  0  0  0  0  0  0  0
    7.9143  -13.9083   19.5125 C   0  0  0  0  0  0  0  0  0  0  0  0
    8.7459  -14.9843   20.1037 C   0  0  2  0  0  0  0  0  0  0  0  0
    8.0211  -16.2143   20.1501 N   0  0  0  0  0  0  0  0  0  0  0  0
    9.1768  -14.6431   21.5058 C   0  0  0  0  0  0  0  0  0  0  0  0
   10.1390  -13.8704   21.6576 O   0  0  0  0  0  0  0  0  0  0  0  0
    8.4741  -15.2116   22.5842 N   0  0  0  0  0  0  0  0  0  0  0  0
    8.7757  -14.8311   23.9797 C   0  0  1  0  0  0  0  0  0  0  0  0
    7.4840  -14.8402   24.7671 C   0  0  0  0  0  0  0  0  0  0  0  0
    7.2713  -13.6955   25.6528 C   0  0  0  0  0  0  0  0  0  0  0  0
    7.8708  -12.4621   25.4764 C   0  0  0  0  0  0  0  0  0  0  0  0
    7.6332  -11.3812   26.3069 C   0  0  0  0  0  0  0  0  0  0  0  0
    6.7612  -11.5415   27.3552 C   0  0  0  0  0  0  0  0  0  0  0  0
    6.1398  -12.7360   27.5789 C   0  0  0  0  0  0  0  0  0  0  0  0
    6.3932  -13.7907   26.7408 C   0  0  0  0  0  0  0  0  0  0  0  0
    9.7222  -15.8257   24.5265 C   0  0  0  0  0  0  0  0  0  0  0  0
   10.7894  -16.0505   23.8984 O   0  0  0  0  0  0  0  0  0  0  0  0
    9.4966  -16.5416   25.7272 N   0  0  0  0  0  0  0  0  0  0  0  0
   10.4628  -16.7362   26.7766 C   0  0  1  0  0  0  0  0  0  0  0  0
   10.8912  -15.4258   27.3494 C   0  0  0  0  0  0  0  0  0  0  0  0
   12.4984  -14.8898   26.6696 S   0  0  0  0  0  0  0  0  0  0  0  0
    9.9754  -17.6899   27.8300 C   0  0  0  0  0  0  0  0  0  0  0  0
   10.8724  -18.1887   28.7448 O   0  0  0  0  0  0  0  0  0  0  0  0
    8.7601  -18.0231   27.8704 O   0  0  0  0  0  0  0  0  0  0  0  0
  2  1  1  0
  3  2  1  0
  3  4  1  0
  4  5  1  0
  5  7  1  0
  5  6  1  1
  7  8  2  0
  9  7  1  0
  9 10  1  0
 10 11  1  1
 11 12  1  0
 12 17  2  0
 13 12  1  0
 13 14  2  0
 14 15  1  0
 15 16  2  0
 17 16  1  0
 18 20  1  0
 18 10  1  0
 19 18  2  0
 21 22  1  1
 21 20  1  0
 23 22  1  0
 24 21  1  0
 24 25  1  0
 26 24  2  0
M  END
$$$$
