MFC.pdb
     RDKit          3D

 26 26  0  0  1  0  0  0  0  0999 V2000
    2.4348  -18.6201   20.3554 C   0  0  0  0  0  0  0  0  0  0  0  0
    2.3188  -19.4222   21.9309 S   0  0  0  0  0  0  0  0  0  0  0  0
    3.6320  -19.1707   23.0903 C   0  0  0  0  0  0  0  0  0  0  0  0
    4.8524  -18.5607   22.4848 C   0  0  0  0  0  0  0  0  0  0  0  0
    5.9178  -18.3007   23.4829 C   0  0  2  0  0  0  0  0  0  0  0  0
    5.3570  -17.8236   24.7069 N   0  0  0  0  0  0  0  0  0  0  0  0
    6.9007  -17.2726   22.9875 C   0  0  0  0  0  0  0  0  0  0  0  0
    7.5107  -17.4994   21.9282 O   0  0  0  0  0  0  0  0  0  0  0  0
    7.0876  -16.1001   23.7425 N   0  0  0  0  0  0  0  0  0  0  0  0
    8.1445  -15.1274   23.3962 C   0  0  1  0  0  0  0  0  0  0  0  0
    7.5743  -13.7330   23.5343 C   0  0  0  0  0  0  0  0  0  0  0  0
    7.2889  -13.2954   24.9006 C   0  0  0  0  0  0  0  0  0  0  0  0
    6.1389  -13.6280   25.5925 C   0  0  0  0  0  0  0  0  0  0  0  0
    5.9002  -13.2305   26.8962 C   0  0  0  0  0  0  0  0  0  0  0  0
    6.8502  -12.4700   27.5321 C   0  0  0  0  0  0  0  0  0  0  0  0
    8.0051  -12.1110   26.8994 C   0  0  0  0  0  0  0  0  0  0  0  0
    8.2163  -12.5182   25.6077 C   0  0  0  0  0  0  0  0  0  0  0  0
    9.2670  -15.3231   24.3373 C   0  0  0  0  0  0  0  0  0  0  0  0
    9.0358  -15.2573   25.5728 O   0  0  0  0  0  0  0  0  0  0  0  0
   10.5958  -15.5863   23.9251 N   0  0  0  0  0  0  0  0  0  0  0  0
   11.5283  -16.4420   24.6112 C   0  0  1  0  0  0  0  0  0  0  0  0
   10.9332  -17.7912   24.8449 C   0  0  0  0  0  0  0  0  0  0  0  0
   11.1630  -18.3358   26.5720 S   0  0  0  0  0  0  0  0  0  0  0  0
   12.8558  -16.5148   23.9118 C   0  0  0  0  0  0  0  0  0  0  0  0
   12.8842  -16.5667   22.5383 O   0  0  0  0  0  0  0  0  0  0  0  0
   13.9249  -16.5261   24.5802 O   0  0  0  0  0  0  0  0  0  0  0  0
  2  1  1  0
  3  2  1  0
  3  4  1  0
  4  5  1  0
  5  7  1  0
  5  6  1  1
  7  8  2  0
  9  7  1  0
  9 10  1  0
 10 11  1  1
 11 12  1  0
 12 17  2  0
 13 12  1  0
 13 14  2  0
 14 15  1  0
 15 16  2  0
 17 16  1  0
 18 20  1  0
 18 10  1  0
 19 18  2  0
 21 22  1  6
 21 20  1  0
 23 22  1  0
 24 21  1  0
 24 25  1  0
 26 24  2  0
M  END
$$$$
