FME.pdb
     RDKit          3D

 29 29  0  0  1  0  0  0  0  0999 V2000
   28.4629  -20.9772  -15.9161 N   0  0  0  0  0  0  0  0  0  0  0  0
   27.7317  -19.9939  -15.1497 C   0  0  1  0  0  0  0  0  0  0  0  0
   26.9164  -19.0785  -16.0219 C   0  0  0  0  0  0  0  0  0  0  0  0
   27.7139  -17.9633  -16.5382 C   0  0  0  0  0  0  0  0  0  0  0  0
   27.9937  -16.9044  -15.7152 C   0  0  0  0  0  0  0  0  0  0  0  0
   28.7476  -15.8390  -16.1811 C   0  0  0  0  0  0  0  0  0  0  0  0
   29.2297  -15.8301  -17.4887 C   0  0  0  0  0  0  0  0  0  0  0  0
   28.9404  -16.9004  -18.3030 C   0  0  0  0  0  0  0  0  0  0  0  0
   28.1915  -17.9656  -17.8505 C   0  0  0  0  0  0  0  0  0  0  0  0
   26.7822  -20.6436  -14.2024 C   0  0  0  0  0  0  0  0  0  0  0  0
   26.1672  -21.6703  -14.5862 O   0  0  0  0  0  0  0  0  0  0  0  0
   27.0710  -20.6826   -7.7625 C   0  0  0  0  0  0  0  0  0  0  0  0
   25.3079  -20.9000   -8.0080 S   0  0  0  0  0  0  0  0  0  0  0  0
   24.8900  -21.3314   -9.7205 C   0  0  0  0  0  0  0  0  0  0  0  0
   25.8553  -20.5849  -10.5989 C   0  0  0  0  0  0  0  0  0  0  0  0
   25.6079  -20.9061  -12.0411 C   0  0  2  0  0  0  0  0  0  0  0  0
   26.5414  -20.1629  -12.9001 N   0  0  0  0  0  0  0  0  0  0  0  0
   24.2550  -20.6097  -12.5356 C   0  0  0  0  0  0  0  0  0  0  0  0
   23.8454  -19.4292  -12.8142 O   0  0  0  0  0  0  0  0  0  0  0  0
   23.3109  -21.6601  -12.7321 N   0  0  0  0  0  0  0  0  0  0  0  0
   21.9555  -21.3200  -13.1687 C   0  0  1  0  0  0  0  0  0  0  0  0
   21.3085  -22.5115  -13.8202 C   0  0  0  0  0  0  0  0  0  0  0  0
   19.9016  -22.2076  -14.2075 C   0  0  0  0  0  0  0  0  0  0  0  0
   18.9549  -23.1870  -13.5695 C   0  0  0  0  0  0  0  0  0  0  0  0
   19.3645  -24.3491  -13.3516 O   0  0  0  0  0  0  0  0  0  0  0  0
   21.2013  -20.7393  -12.0413 C   0  0  0  0  0  0  0  0  0  0  0  0
   21.2999  -21.0803  -10.8595 O   0  0  0  0  0  0  0  0  0  0  0  0
   17.6663  -22.8359  -13.2256 O   0  0  0  0  0  0  0  0  0  0  0  0
   20.2874  -19.7049  -12.3347 O   0  0  0  0  0  0  0  0  0  0  0  0
  2  1  1  6
  2  3  1  0
  3  4  1  0
  4  9  2  0
  5  4  1  0
  5  6  2  0
  6  7  1  0
  7  8  2  0
  9  8  1  0
 10 11  2  0
 10  2  1  0
 13 12  1  0
 14 15  1  0
 14 13  1  0
 16 15  1  1
 16 17  1  0
 17 10  1  0
 18 16  1  0
 18 20  1  0
 19 18  2  0
 21 20  1  0
 21 26  1  0
 21 22  1  1
 23 22  1  0
 24 23  1  0
 25 24  2  0
 26 27  2  0
 26 29  1  0
 28 24  1  0
M  END
$$$$
