FME.pdb
     RDKit          3D

 29 29  0  0  1  0  0  0  0  0999 V2000
   21.2220   -8.2323  -13.3821 N   0  0  0  0  0  0  0  0  0  0  0  0
   21.0711   -8.1062  -14.8139 C   0  0  1  0  0  0  0  0  0  0  0  0
   19.6525   -8.3301  -15.2622 C   0  0  0  0  0  0  0  0  0  0  0  0
   19.4911   -9.6194  -15.9389 C   0  0  0  0  0  0  0  0  0  0  0  0
   19.3467   -9.6459  -17.3009 C   0  0  0  0  0  0  0  0  0  0  0  0
   19.1943  -10.8539  -17.9630 C   0  0  0  0  0  0  0  0  0  0  0  0
   19.1857  -12.0540  -17.2546 C   0  0  0  0  0  0  0  0  0  0  0  0
   19.3316  -12.0112  -15.8874 C   0  0  0  0  0  0  0  0  0  0  0  0
   19.4841  -10.8156  -15.2182 C   0  0  0  0  0  0  0  0  0  0  0  0
   21.4597   -6.7453  -15.2808 C   0  0  0  0  0  0  0  0  0  0  0  0
   21.4598   -5.8065  -14.4451 O   0  0  0  0  0  0  0  0  0  0  0  0
   24.8070   -2.1127  -20.7125 C   0  0  0  0  0  0  0  0  0  0  0  0
   24.5079   -3.7169  -19.9686 S   0  0  0  0  0  0  0  0  0  0  0  0
   23.3804   -3.6284  -18.5493 C   0  0  0  0  0  0  0  0  0  0  0  0
   23.0878   -5.0466  -18.1446 C   0  0  0  0  0  0  0  0  0  0  0  0
   22.1679   -5.0751  -16.9625 C   0  0  2  0  0  0  0  0  0  0  0  0
   21.8262   -6.4613  -16.6112 N   0  0  0  0  0  0  0  0  0  0  0  0
   20.8950   -4.3580  -17.1299 C   0  0  0  0  0  0  0  0  0  0  0  0
   19.8112   -4.9191  -17.5168 O   0  0  0  0  0  0  0  0  0  0  0  0
   20.8115   -2.9605  -16.8590 N   0  0  0  0  0  0  0  0  0  0  0  0
   19.4951   -2.3622  -16.6292 C   0  0  1  0  0  0  0  0  0  0  0  0
   18.7325   -3.1668  -15.6125 C   0  0  0  0  0  0  0  0  0  0  0  0
   17.4305   -2.5177  -15.2882 C   0  0  0  0  0  0  0  0  0  0  0  0
   16.3015   -3.2168  -15.9949 C   0  0  0  0  0  0  0  0  0  0  0  0
   16.2237   -4.4619  -15.8975 O   0  0  0  0  0  0  0  0  0  0  0  0
   19.6495   -0.9313  -16.3041 C   0  0  0  0  0  0  0  0  0  0  0  0
   20.5870   -0.4349  -15.6737 O   0  0  0  0  0  0  0  0  0  0  0  0
   15.3663   -2.5248  -16.7355 O   0  0  0  0  0  0  0  0  0  0  0  0
   18.6411   -0.0509  -16.7504 O   0  0  0  0  0  0  0  0  0  0  0  0
  2  1  1  1
  2  3  1  0
  3  4  1  0
  4  9  2  0
  5  4  1  0
  5  6  2  0
  6  7  1  0
  7  8  2  0
  9  8  1  0
 10 11  2  0
 10  2  1  0
 13 12  1  0
 14 15  1  0
 14 13  1  0
 16 15  1  6
 16 17  1  0
 17 10  1  0
 18 16  1  0
 18 20  1  0
 19 18  2  0
 21 20  1  0
 21 26  1  0
 21 22  1  1
 23 22  1  0
 24 23  1  0
 25 24  2  0
 26 27  2  0
 26 29  1  0
 28 24  1  0
M  END
$$$$
