FME.pdb
     RDKit          3D

 29 29  0  0  1  0  0  0  0  0999 V2000
   27.9884  -20.8460  -10.5246 N   0  0  0  0  0  0  0  0  0  0  0  0
   26.5820  -21.0748  -10.2832 C   0  0  1  0  0  0  0  0  0  0  0  0
   26.1707  -20.6917   -8.8876 C   0  0  0  0  0  0  0  0  0  0  0  0
   27.3236  -20.5769   -7.9910 C   0  0  0  0  0  0  0  0  0  0  0  0
   27.2998  -19.6444   -6.9877 C   0  0  0  0  0  0  0  0  0  0  0  0
   28.3782  -19.5187   -6.1264 C   0  0  0  0  0  0  0  0  0  0  0  0
   29.4978  -20.3363   -6.2685 C   0  0  0  0  0  0  0  0  0  0  0  0
   29.5069  -21.2678   -7.2808 C   0  0  0  0  0  0  0  0  0  0  0  0
   28.4400  -21.4019   -8.1434 C   0  0  0  0  0  0  0  0  0  0  0  0
   25.7364  -20.2762  -11.2150 C   0  0  0  0  0  0  0  0  0  0  0  0
   25.9452  -19.0395  -11.2970 O   0  0  0  0  0  0  0  0  0  0  0  0
   28.6488  -17.8687  -15.1672 C   0  0  0  0  0  0  0  0  0  0  0  0
   28.0218  -19.2457  -14.2044 S   0  0  0  0  0  0  0  0  0  0  0  0
   26.6090  -20.0645  -14.9963 C   0  0  0  0  0  0  0  0  0  0  0  0
   26.0881  -21.0717  -14.0090 C   0  0  0  0  0  0  0  0  0  0  0  0
   24.7644  -20.6331  -13.4615 C   0  0  2  0  0  0  0  0  0  0  0  0
   24.7164  -20.8399  -12.0067 N   0  0  0  0  0  0  0  0  0  0  0  0
   23.5874  -21.3138  -14.0218 C   0  0  0  0  0  0  0  0  0  0  0  0
   23.3952  -22.5771  -13.9427 O   0  0  0  0  0  0  0  0  0  0  0  0
   22.5768  -20.5703  -14.6995 N   0  0  0  0  0  0  0  0  0  0  0  0
   21.3627  -21.2624  -15.1360 C   0  0  1  0  0  0  0  0  0  0  0  0
   20.1537  -20.4140  -14.8507 C   0  0  0  0  0  0  0  0  0  0  0  0
   20.0860  -20.0529  -13.4061 C   0  0  0  0  0  0  0  0  0  0  0  0
   18.8003  -19.3342  -13.1012 C   0  0  0  0  0  0  0  0  0  0  0  0
   18.7977  -18.4950  -12.1730 O   0  0  0  0  0  0  0  0  0  0  0  0
   21.5101  -21.6858  -16.5417 C   0  0  0  0  0  0  0  0  0  0  0  0
   22.2376  -21.1486  -17.3813 O   0  0  0  0  0  0  0  0  0  0  0  0
   17.6437  -19.5775  -13.8119 O   0  0  0  0  0  0  0  0  0  0  0  0
   20.7565  -22.8004  -16.9673 O   0  0  0  0  0  0  0  0  0  0  0  0
  2  1  1  1
  2  3  1  0
  3  4  1  0
  4  9  2  0
  5  4  1  0
  5  6  2  0
  6  7  1  0
  7  8  2  0
  9  8  1  0
 10 11  2  0
 10  2  1  0
 13 12  1  0
 14 15  1  0
 14 13  1  0
 16 15  1  6
 16 17  1  0
 17 10  1  0
 18 16  1  0
 18 20  1  0
 19 18  2  0
 21 20  1  0
 21 26  1  0
 21 22  1  6
 23 22  1  0
 24 23  1  0
 25 24  2  0
 26 27  2  0
 26 29  1  0
 28 24  1  0
M  END
$$$$
