FME.pdb
     RDKit          3D

 29 29  0  0  1  0  0  0  0  0999 V2000
   23.9359  -14.1569  -18.0812 N   0  0  0  0  0  0  0  0  0  0  0  0
   23.0246  -13.2033  -18.6718 C   0  0  1  0  0  0  0  0  0  0  0  0
   21.6024  -13.4226  -18.2330 C   0  0  0  0  0  0  0  0  0  0  0  0
   21.0772  -14.7061  -18.7055 C   0  0  0  0  0  0  0  0  0  0  0  0
   20.7083  -14.8346  -20.0186 C   0  0  0  0  0  0  0  0  0  0  0  0
   20.2105  -16.0395  -20.4886 C   0  0  0  0  0  0  0  0  0  0  0  0
   20.0788  -17.1332  -19.6350 C   0  0  0  0  0  0  0  0  0  0  0  0
   20.4533  -16.9886  -18.3192 C   0  0  0  0  0  0  0  0  0  0  0  0
   20.9498  -15.7950  -17.8405 C   0  0  0  0  0  0  0  0  0  0  0  0
   23.3814  -11.8072  -18.2914 C   0  0  0  0  0  0  0  0  0  0  0  0
   24.0353  -11.6270  -17.2332 O   0  0  0  0  0  0  0  0  0  0  0  0
   26.4706   -5.1220  -20.4323 C   0  0  0  0  0  0  0  0  0  0  0  0
   25.7635   -6.7361  -20.7651 S   0  0  0  0  0  0  0  0  0  0  0  0
   24.9404   -7.4498  -19.3136 C   0  0  0  0  0  0  0  0  0  0  0  0
   24.3427   -8.7558  -19.7582 C   0  0  0  0  0  0  0  0  0  0  0  0
   23.5339   -9.3650  -18.6541 C   0  0  2  0  0  0  0  0  0  0  0  0
   23.0216  -10.6822  -19.0594 N   0  0  0  0  0  0  0  0  0  0  0  0
   22.3720   -8.5807  -18.2097 C   0  0  0  0  0  0  0  0  0  0  0  0
   21.2155   -8.6574  -18.7536 O   0  0  0  0  0  0  0  0  0  0  0  0
   22.4885   -7.6714  -17.1175 N   0  0  0  0  0  0  0  0  0  0  0  0
   21.2842   -7.0002  -16.6248 C   0  0  1  0  0  0  0  0  0  0  0  0
   20.2329   -8.0174  -16.2743 C   0  0  0  0  0  0  0  0  0  0  0  0
   19.0382   -7.3615  -15.6707 C   0  0  0  0  0  0  0  0  0  0  0  0
   18.0171   -8.3905  -15.2696 C   0  0  0  0  0  0  0  0  0  0  0  0
   18.3645   -9.5925  -15.2511 O   0  0  0  0  0  0  0  0  0  0  0  0
   21.6430   -6.0728  -15.5347 C   0  0  0  0  0  0  0  0  0  0  0  0
   22.7683   -5.9391  -15.0464 O   0  0  0  0  0  0  0  0  0  0  0  0
   16.7273   -8.0418  -14.9276 O   0  0  0  0  0  0  0  0  0  0  0  0
   20.6142   -5.2673  -15.0016 O   0  0  0  0  0  0  0  0  0  0  0  0
  2  1  1  1
  2  3  1  0
  3  4  1  0
  4  9  2  0
  5  4  1  0
  5  6  2  0
  6  7  1  0
  7  8  2  0
  9  8  1  0
 10 11  2  0
 10  2  1  0
 13 12  1  0
 14 15  1  0
 14 13  1  0
 16 15  1  6
 16 17  1  0
 17 10  1  0
 18 16  1  0
 18 20  1  0
 19 18  2  0
 21 20  1  0
 21 26  1  0
 21 22  1  1
 23 22  1  0
 24 23  1  0
 25 24  2  0
 26 27  2  0
 26 29  1  0
 28 24  1  0
M  END
$$$$
