FME.pdb
     RDKit          3D

 29 29  0  0  1  0  0  0  0  0999 V2000
   25.7019   -7.2813  -20.8905 N   0  0  0  0  0  0  0  0  0  0  0  0
   25.8867   -7.0721  -19.4725 C   0  0  1  0  0  0  0  0  0  0  0  0
   25.7306   -5.6277  -19.0817 C   0  0  0  0  0  0  0  0  0  0  0  0
   26.7480   -4.7798  -19.7080 C   0  0  0  0  0  0  0  0  0  0  0  0
   26.3591   -3.8238  -20.6088 C   0  0  0  0  0  0  0  0  0  0  0  0
   27.3036   -3.0090  -21.2128 C   0  0  0  0  0  0  0  0  0  0  0  0
   28.6572   -3.1505  -20.9130 C   0  0  0  0  0  0  0  0  0  0  0  0
   29.0322   -4.1149  -20.0065 C   0  0  0  0  0  0  0  0  0  0  0  0
   28.1016   -4.9311  -19.3996 C   0  0  0  0  0  0  0  0  0  0  0  0
   24.8890   -7.8427  -18.6777 C   0  0  0  0  0  0  0  0  0  0  0  0
   23.7983   -8.1457  -19.2240 O   0  0  0  0  0  0  0  0  0  0  0  0
   23.3079  -13.8214  -14.1472 C   0  0  0  0  0  0  0  0  0  0  0  0
   24.4424  -12.5335  -14.6674 S   0  0  0  0  0  0  0  0  0  0  0  0
   23.5984  -11.1449  -15.4755 C   0  0  0  0  0  0  0  0  0  0  0  0
   24.6741  -10.2548  -16.0332 C   0  0  0  0  0  0  0  0  0  0  0  0
   24.0711   -9.0430  -16.6753 C   0  0  2  0  0  0  0  0  0  0  0  0
   25.1093   -8.2471  -17.3462 N   0  0  0  0  0  0  0  0  0  0  0  0
   23.3617   -8.1289  -15.7677 C   0  0  0  0  0  0  0  0  0  0  0  0
   23.9109   -7.1149  -15.2118 O   0  0  0  0  0  0  0  0  0  0  0  0
   21.9859   -8.3408  -15.4584 N   0  0  0  0  0  0  0  0  0  0  0  0
   21.1868   -7.2114  -14.9795 C   0  0  1  0  0  0  0  0  0  0  0  0
   21.4312   -6.0034  -15.8421 C   0  0  0  0  0  0  0  0  0  0  0  0
   20.6510   -4.8322  -15.3508 C   0  0  0  0  0  0  0  0  0  0  0  0
   21.3687   -4.1593  -14.2130 C   0  0  0  0  0  0  0  0  0  0  0  0
   22.4510   -3.5802  -14.4563 O   0  0  0  0  0  0  0  0  0  0  0  0
   19.7733   -7.6175  -14.8610 C   0  0  0  0  0  0  0  0  0  0  0  0
   19.2120   -8.4747  -15.5486 O   0  0  0  0  0  0  0  0  0  0  0  0
   20.8665   -4.1676  -12.9286 O   0  0  0  0  0  0  0  0  0  0  0  0
   18.9921   -6.9732  -13.8782 O   0  0  0  0  0  0  0  0  0  0  0  0
  2  1  1  6
  2  3  1  0
  3  4  1  0
  4  9  2  0
  5  4  1  0
  5  6  2  0
  6  7  1  0
  7  8  2  0
  9  8  1  0
 10 11  2  0
 10  2  1  0
 13 12  1  0
 14 15  1  0
 14 13  1  0
 16 15  1  1
 16 17  1  0
 17 10  1  0
 18 16  1  0
 18 20  1  0
 19 18  2  0
 21 20  1  0
 21 26  1  0
 21 22  1  6
 23 22  1  0
 24 23  1  0
 25 24  2  0
 26 27  2  0
 26 29  1  0
 28 24  1  0
M  END
$$$$
