FME.pdb
     RDKit          3D

 29 29  0  0  1  0  0  0  0  0999 V2000
   28.6972  -21.1763   -9.0241 N   0  0  0  0  0  0  0  0  0  0  0  0
   27.2933  -20.9069   -8.8120 C   0  0  1  0  0  0  0  0  0  0  0  0
   27.0670  -19.7219   -7.9130 C   0  0  0  0  0  0  0  0  0  0  0  0
   27.7595  -19.8698   -6.6305 C   0  0  0  0  0  0  0  0  0  0  0  0
   27.2266  -20.6934   -5.6742 C   0  0  0  0  0  0  0  0  0  0  0  0
   27.8649  -20.8502   -4.4541 C   0  0  0  0  0  0  0  0  0  0  0  0
   29.0535  -20.1744   -4.1841 C   0  0  0  0  0  0  0  0  0  0  0  0
   29.5761  -19.3509   -5.1542 C   0  0  0  0  0  0  0  0  0  0  0  0
   28.9500  -19.1873   -6.3715 C   0  0  0  0  0  0  0  0  0  0  0  0
   26.5994  -20.6102  -10.0971 C   0  0  0  0  0  0  0  0  0  0  0  0
   27.3017  -20.3728  -11.1120 O   0  0  0  0  0  0  0  0  0  0  0  0
   24.5025  -24.3900  -15.6822 C   0  0  0  0  0  0  0  0  0  0  0  0
   25.1498  -23.9309  -14.0739 S   0  0  0  0  0  0  0  0  0  0  0  0
   24.4994  -22.3412  -13.4881 C   0  0  0  0  0  0  0  0  0  0  0  0
   25.1096  -22.1001  -12.1353 C   0  0  0  0  0  0  0  0  0  0  0  0
   24.6140  -20.8091  -11.5592 C   0  0  2  0  0  0  0  0  0  0  0  0
   25.1969  -20.5833  -10.2285 N   0  0  0  0  0  0  0  0  0  0  0  0
   23.1557  -20.7006  -11.4032 C   0  0  0  0  0  0  0  0  0  0  0  0
   22.5159  -21.1535  -10.3910 O   0  0  0  0  0  0  0  0  0  0  0  0
   22.3666  -20.0649  -12.4065 N   0  0  0  0  0  0  0  0  0  0  0  0
   20.9116  -20.0337  -12.2471 C   0  0  1  0  0  0  0  0  0  0  0  0
   20.3041  -19.0780  -13.2373 C   0  0  0  0  0  0  0  0  0  0  0  0
   20.6710  -17.6704  -12.9122 C   0  0  0  0  0  0  0  0  0  0  0  0
   19.9758  -16.7150  -13.8431 C   0  0  0  0  0  0  0  0  0  0  0  0
   18.7727  -16.4482  -13.6262 O   0  0  0  0  0  0  0  0  0  0  0  0
   20.3765  -21.4078  -12.2973 C   0  0  0  0  0  0  0  0  0  0  0  0
   20.8114  -22.3228  -13.0018 O   0  0  0  0  0  0  0  0  0  0  0  0
   20.6268  -16.1370  -14.9128 O   0  0  0  0  0  0  0  0  0  0  0  0
   19.2727  -21.7061  -11.4703 O   0  0  0  0  0  0  0  0  0  0  0  0
  2  1  1  6
  2  3  1  0
  3  4  1  0
  4  9  2  0
  5  4  1  0
  5  6  2  0
  6  7  1  0
  7  8  2  0
  9  8  1  0
 10 11  2  0
 10  2  1  0
 13 12  1  0
 14 15  1  0
 14 13  1  0
 16 15  1  1
 16 17  1  0
 17 10  1  0
 18 16  1  0
 18 20  1  0
 19 18  2  0
 21 20  1  0
 21 26  1  0
 21 22  1  6
 23 22  1  0
 24 23  1  0
 25 24  2  0
 26 27  2  0
 26 29  1  0
 28 24  1  0
M  END
$$$$
