YTF.pdb
     RDKit          3D

 31 32  0  0  1  0  0  0  0  0999 V2000
   19.6841    2.2532  -17.3584 O   0  0  0  0  0  0  0  0  0  0  0  0
   19.7543    0.9028  -17.0762 C   0  0  0  0  0  0  0  0  0  0  0  0
   20.9530    0.2216  -17.0196 C   0  0  0  0  0  0  0  0  0  0  0  0
   21.0508   -1.1173  -16.7419 C   0  0  0  0  0  0  0  0  0  0  0  0
   19.8984   -1.8202  -16.5075 C   0  0  0  0  0  0  0  0  0  0  0  0
   19.9585   -3.2733  -16.2027 C   0  0  0  0  0  0  0  0  0  0  0  0
   19.9884   -4.0141  -17.5162 C   0  0  2  0  0  0  0  0  0  0  0  0
   18.6684   -3.9553  -18.1085 N   0  0  0  0  0  0  0  0  0  0  0  0
   20.3040   -5.4537  -17.2047 C   0  0  0  0  0  0  0  0  0  0  0  0
   19.4010   -6.2509  -16.8426 O   0  0  0  0  0  0  0  0  0  0  0  0
   18.6804   -1.1799  -16.5540 C   0  0  0  0  0  0  0  0  0  0  0  0
   18.5986    0.1816  -16.8376 C   0  0  0  0  0  0  0  0  0  0  0  0
   19.6988   -8.0056  -18.0971 C   0  0  0  0  0  0  0  0  0  0  0  0
   21.2090   -8.1779  -18.2439 C   0  0  1  0  0  0  0  0  0  0  0  0
   21.5562   -7.7787  -19.5079 O   0  0  0  0  0  0  0  0  0  0  0  0
   21.9204   -7.3832  -17.1397 C   0  0  2  0  0  0  0  0  0  0  0  0
   21.6221   -5.9723  -17.3043 N   0  0  0  0  0  0  0  0  0  0  0  0
   23.3727   -7.6516  -17.3017 C   0  0  0  0  0  0  0  0  0  0  0  0
   24.1830   -6.7611  -16.9071 O   0  0  0  0  0  0  0  0  0  0  0  0
   23.9197   -8.8175  -17.8587 N   0  0  0  0  0  0  0  0  0  0  0  0
   25.3620   -9.0664  -17.9475 C   0  0  1  0  0  0  0  0  0  0  0  0
   25.8513   -9.0755  -16.4923 C   0  0  0  0  0  0  0  0  0  0  0  0
   27.2358   -9.5751  -16.4043 C   0  0  0  0  0  0  0  0  0  0  0  0
   28.2883   -8.9092  -16.9748 C   0  0  0  0  0  0  0  0  0  0  0  0
   29.5651   -9.4143  -16.8671 C   0  0  0  0  0  0  0  0  0  0  0  0
   29.8503  -10.5911  -16.1950 C   0  0  0  0  0  0  0  0  0  0  0  0
   28.7685  -11.2442  -15.6277 C   0  0  0  0  0  0  0  0  0  0  0  0
   27.4825  -10.7555  -15.7239 C   0  0  0  0  0  0  0  0  0  0  0  0
   25.6514  -10.3335  -18.6176 C   0  0  0  0  0  0  0  0  0  0  0  0
   24.9404  -11.3467  -18.4115 O   0  0  0  0  0  0  0  0  0  0  0  0
   26.7134  -10.4632  -19.4991 O   0  0  0  0  0  0  0  0  0  0  0  0
  2  1  1  0
  3  2  2  0
  4  3  1  0
  5  4  2  0
  5 11  1  0
  6  5  1  0
  7  6  1  0
  7  8  1  1
  9  7  1  0
  9 17  1  0
 10  9  2  0
 11 12  2  0
 12  2  1  0
 14 13  1  1
 14 16  1  0
 15 14  1  0
 16 17  1  6
 16 18  1  0
 18 20  1  0
 19 18  2  0
 20 21  1  0
 21 29  1  0
 21 22  1  1
 23 22  1  0
 24 23  2  0
 25 24  1  0
 26 25  2  0
 26 27  1  0
 27 28  2  0
 28 23  1  0
 29 30  2  0
 29 31  1  0
M  END
$$$$
