YTF.pdb
     RDKit          3D

 31 32  0  0  1  0  0  0  0  0999 V2000
   24.5468  -15.2050  -23.4100 O   0  0  0  0  0  0  0  0  0  0  0  0
   24.0731  -13.9927  -22.9473 C   0  0  0  0  0  0  0  0  0  0  0  0
   22.7501  -13.6207  -23.0721 C   0  0  0  0  0  0  0  0  0  0  0  0
   22.2541  -12.4245  -22.6221 C   0  0  0  0  0  0  0  0  0  0  0  0
   23.1153  -11.5488  -22.0151 C   0  0  0  0  0  0  0  0  0  0  0  0
   22.6199  -10.2411  -21.5125 C   0  0  0  0  0  0  0  0  0  0  0  0
   22.6372  -10.2955  -20.0053 C   0  0  2  0  0  0  0  0  0  0  0  0
   21.6515  -11.2616  -19.5677 N   0  0  0  0  0  0  0  0  0  0  0  0
   22.2203   -8.9356  -19.5091 C   0  0  0  0  0  0  0  0  0  0  0  0
   22.8795   -7.9070  -19.8085 O   0  0  0  0  0  0  0  0  0  0  0  0
   24.4438  -11.8797  -21.8696 C   0  0  0  0  0  0  0  0  0  0  0  0
   24.9318  -13.0997  -22.3327 C   0  0  0  0  0  0  0  0  0  0  0  0
   19.1976   -6.9827  -20.2385 C   0  0  0  0  0  0  0  0  0  0  0  0
   19.1934   -7.2129  -18.7289 C   0  0  1  0  0  0  0  0  0  0  0  0
   18.3583   -8.2673  -18.4674 O   0  0  0  0  0  0  0  0  0  0  0  0
   20.6324   -7.4442  -18.2465 C   0  0  2  0  0  0  0  0  0  0  0  0
   21.0756   -8.7537  -18.6889 N   0  0  0  0  0  0  0  0  0  0  0  0
   20.5946   -7.3583  -16.7637 C   0  0  0  0  0  0  0  0  0  0  0  0
   20.7289   -8.4345  -16.1086 O   0  0  0  0  0  0  0  0  0  0  0  0
   20.4217   -6.1755  -16.0290 N   0  0  0  0  0  0  0  0  0  0  0  0
   20.3296   -6.1437  -14.5659 C   0  0  1  0  0  0  0  0  0  0  0  0
   21.7007   -6.6281  -14.0735 C   0  0  0  0  0  0  0  0  0  0  0  0
   22.7834   -5.7861  -14.6150 C   0  0  0  0  0  0  0  0  0  0  0  0
   23.7177   -6.2742  -15.4899 C   0  0  0  0  0  0  0  0  0  0  0  0
   24.7118   -5.4503  -15.9692 C   0  0  0  0  0  0  0  0  0  0  0  0
   24.8209   -4.1187  -15.6048 C   0  0  0  0  0  0  0  0  0  0  0  0
   23.8640   -3.6508  -14.7195 C   0  0  0  0  0  0  0  0  0  0  0  0
   22.8606   -4.4590  -14.2277 C   0  0  0  0  0  0  0  0  0  0  0  0
   20.0274   -4.8006  -14.0727 C   0  0  0  0  0  0  0  0  0  0  0  0
   20.0301   -3.8149  -14.8493 O   0  0  0  0  0  0  0  0  0  0  0  0
   19.7288   -4.5663  -12.7394 O   0  0  0  0  0  0  0  0  0  0  0  0
  2  1  1  0
  3  2  2  0
  4  3  1  0
  5  4  2  0
  5 11  1  0
  6  5  1  0
  7  6  1  0
  7  8  1  1
  9  7  1  0
  9 17  1  0
 10  9  2  0
 11 12  2  0
 12  2  1  0
 14 13  1  6
 14 16  1  0
 15 14  1  0
 16 17  1  1
 16 18  1  0
 18 20  1  0
 19 18  2  0
 20 21  1  0
 21 29  1  0
 21 22  1  1
 23 22  1  0
 24 23  2  0
 25 24  1  0
 26 25  2  0
 26 27  1  0
 27 28  2  0
 28 23  1  0
 29 30  2  0
 29 31  1  0
M  END
$$$$
