YTF.pdb
     RDKit          3D

 31 32  0  0  1  0  0  0  0  0999 V2000
   24.2737   -0.1541  -16.0176 O   0  0  0  0  0  0  0  0  0  0  0  0
   23.6971   -1.3279  -15.5726 C   0  0  0  0  0  0  0  0  0  0  0  0
   22.8075   -1.3601  -14.5182 C   0  0  0  0  0  0  0  0  0  0  0  0
   22.2213   -2.5103  -14.0568 C   0  0  0  0  0  0  0  0  0  0  0  0
   22.5332   -3.6934  -14.6733 C   0  0  0  0  0  0  0  0  0  0  0  0
   21.9208   -4.9639  -14.2055 C   0  0  0  0  0  0  0  0  0  0  0  0
   20.7138   -5.2336  -15.0688 C   0  0  2  0  0  0  0  0  0  0  0  0
   19.6144   -4.4217  -14.5904 N   0  0  0  0  0  0  0  0  0  0  0  0
   20.3497   -6.6829  -14.8792 C   0  0  0  0  0  0  0  0  0  0  0  0
   19.9163   -7.1026  -13.7755 O   0  0  0  0  0  0  0  0  0  0  0  0
   23.4164   -3.7070  -15.7295 C   0  0  0  0  0  0  0  0  0  0  0  0
   24.0034   -2.5289  -16.1861 C   0  0  0  0  0  0  0  0  0  0  0  0
   17.6796   -8.6326  -16.2313 C   0  0  0  0  0  0  0  0  0  0  0  0
   18.9400   -9.3437  -16.7188 C   0  0  1  0  0  0  0  0  0  0  0  0
   19.1728   -8.9475  -18.0097 O   0  0  0  0  0  0  0  0  0  0  0  0
   20.1024   -9.0260  -15.7676 C   0  0  2  0  0  0  0  0  0  0  0  0
   20.4777   -7.6328  -15.9268 N   0  0  0  0  0  0  0  0  0  0  0  0
   21.2151   -9.9330  -16.1503 C   0  0  0  0  0  0  0  0  0  0  0  0
   21.9862   -9.5571  -17.0827 O   0  0  0  0  0  0  0  0  0  0  0  0
   21.4806  -11.1773  -15.5585 N   0  0  0  0  0  0  0  0  0  0  0  0
   22.5454  -12.0751  -16.0169 C   0  0  1  0  0  0  0  0  0  0  0  0
   23.5293  -12.1531  -14.8410 C   0  0  0  0  0  0  0  0  0  0  0  0
   24.7828  -11.4423  -15.1537 C   0  0  0  0  0  0  0  0  0  0  0  0
   24.8485  -10.0755  -15.2187 C   0  0  0  0  0  0  0  0  0  0  0  0
   26.0418   -9.4549  -15.5148 C   0  0  0  0  0  0  0  0  0  0  0  0
   27.2107  -10.1569  -15.7571 C   0  0  0  0  0  0  0  0  0  0  0  0
   27.1166  -11.5369  -15.6852 C   0  0  0  0  0  0  0  0  0  0  0  0
   25.9317  -12.1779  -15.3902 C   0  0  0  0  0  0  0  0  0  0  0  0
   22.0247  -13.3958  -16.3679 C   0  0  0  0  0  0  0  0  0  0  0  0
   20.8731  -13.7474  -16.0147 O   0  0  0  0  0  0  0  0  0  0  0  0
   22.7769  -14.3027  -17.0983 O   0  0  0  0  0  0  0  0  0  0  0  0
  2  1  1  0
  3  2  2  0
  4  3  1  0
  5  4  2  0
  5 11  1  0
  6  5  1  0
  7  6  1  0
  7  8  1  1
  9  7  1  0
  9 17  1  0
 10  9  2  0
 11 12  2  0
 12  2  1  0
 14 13  1  1
 14 16  1  0
 15 14  1  0
 16 17  1  6
 16 18  1  0
 18 20  1  0
 19 18  2  0
 20 21  1  0
 21 29  1  0
 21 22  1  1
 23 22  1  0
 24 23  2  0
 25 24  1  0
 26 25  2  0
 26 27  1  0
 27 28  2  0
 28 23  1  0
 29 30  2  0
 29 31  1  0
M  END
$$$$
