YTF.pdb
     RDKit          3D

 31 32  0  0  1  0  0  0  0  0999 V2000
   22.8136  -25.3537  -24.2585 O   0  0  0  0  0  0  0  0  0  0  0  0
   23.5323  -25.2311  -23.0852 C   0  0  0  0  0  0  0  0  0  0  0  0
   23.4345  -24.1205  -22.2720 C   0  0  0  0  0  0  0  0  0  0  0  0
   24.1359  -23.9735  -21.1033 C   0  0  0  0  0  0  0  0  0  0  0  0
   24.9803  -24.9815  -20.7188 C   0  0  0  0  0  0  0  0  0  0  0  0
   25.7598  -24.8635  -19.4592 C   0  0  0  0  0  0  0  0  0  0  0  0
   26.8376  -23.8327  -19.6845 C   0  0  2  0  0  0  0  0  0  0  0  0
   27.8947  -24.4355  -20.4693 N   0  0  0  0  0  0  0  0  0  0  0  0
   27.3968  -23.4751  -18.3323 C   0  0  0  0  0  0  0  0  0  0  0  0
   28.6369  -23.3650  -18.1529 O   0  0  0  0  0  0  0  0  0  0  0  0
   25.1083  -26.1077  -21.5005 C   0  0  0  0  0  0  0  0  0  0  0  0
   24.3881  -26.2413  -22.6855 C   0  0  0  0  0  0  0  0  0  0  0  0
   28.6875  -21.3458  -17.3298 C   0  0  0  0  0  0  0  0  0  0  0  0
   27.5876  -21.2511  -16.2748 C   0  0  1  0  0  0  0  0  0  0  0  0
   26.6293  -20.3911  -16.7434 O   0  0  0  0  0  0  0  0  0  0  0  0
   27.0477  -22.6570  -15.9766 C   0  0  2  0  0  0  0  0  0  0  0  0
   26.5585  -23.2479  -17.2089 N   0  0  0  0  0  0  0  0  0  0  0  0
   25.9522  -22.4827  -14.9882 C   0  0  0  0  0  0  0  0  0  0  0  0
   25.4116  -23.5280  -14.5188 O   0  0  0  0  0  0  0  0  0  0  0  0
   25.4676  -21.2476  -14.5315 N   0  0  0  0  0  0  0  0  0  0  0  0
   24.9224  -21.0455  -13.1855 C   0  0  1  0  0  0  0  0  0  0  0  0
   26.1150  -21.2533  -12.2413 C   0  0  0  0  0  0  0  0  0  0  0  0
   25.7463  -20.9391  -10.8486 C   0  0  0  0  0  0  0  0  0  0  0  0
   26.3697  -19.9494  -10.1355 C   0  0  0  0  0  0  0  0  0  0  0  0
   25.9920  -19.6915   -8.8364 C   0  0  0  0  0  0  0  0  0  0  0  0
   24.9886  -20.3979   -8.1944 C   0  0  0  0  0  0  0  0  0  0  0  0
   24.3749  -21.3926   -8.9377 C   0  0  0  0  0  0  0  0  0  0  0  0
   24.7380  -21.6667  -10.2395 C   0  0  0  0  0  0  0  0  0  0  0  0
   24.3438  -19.7113  -13.0317 C   0  0  0  0  0  0  0  0  0  0  0  0
   24.9075  -18.7053  -13.5265 O   0  0  0  0  0  0  0  0  0  0  0  0
   23.1603  -19.5080  -12.3391 O   0  0  0  0  0  0  0  0  0  0  0  0
  2  1  1  0
  3  2  2  0
  4  3  1  0
  5  4  2  0
  5 11  1  0
  6  5  1  0
  7  6  1  0
  7  8  1  6
  9  7  1  0
  9 17  1  0
 10  9  2  0
 11 12  2  0
 12  2  1  0
 14 13  1  6
 14 16  1  0
 15 14  1  0
 16 17  1  6
 16 18  1  0
 18 20  1  0
 19 18  2  0
 20 21  1  0
 21 29  1  0
 21 22  1  1
 23 22  1  0
 24 23  2  0
 25 24  1  0
 26 25  2  0
 26 27  1  0
 27 28  2  0
 28 23  1  0
 29 30  2  0
 29 31  1  0
M  END
$$$$
