YTF.pdb
     RDKit          3D

 31 32  0  0  1  0  0  0  0  0999 V2000
   17.7376  -19.2198  -15.6004 O   0  0  0  0  0  0  0  0  0  0  0  0
   18.8474  -19.7728  -14.9915 C   0  0  0  0  0  0  0  0  0  0  0  0
   19.2065  -21.0932  -15.1702 C   0  0  0  0  0  0  0  0  0  0  0  0
   20.3020  -21.6668  -14.5783 C   0  0  0  0  0  0  0  0  0  0  0  0
   21.0847  -20.8903  -13.7650 C   0  0  0  0  0  0  0  0  0  0  0  0
   22.2816  -21.4716  -13.1034 C   0  0  0  0  0  0  0  0  0  0  0  0
   23.5009  -20.9127  -13.7933 C   0  0  2  0  0  0  0  0  0  0  0  0
   23.5987  -21.5079  -15.1097 N   0  0  0  0  0  0  0  0  0  0  0  0
   24.6998  -21.3424  -12.9889 C   0  0  0  0  0  0  0  0  0  0  0  0
   25.0868  -22.5393  -12.9926 O   0  0  0  0  0  0  0  0  0  0  0  0
   20.7629  -19.5676  -13.5590 C   0  0  0  0  0  0  0  0  0  0  0  0
   19.6459  -19.0001  -14.1682 C   0  0  0  0  0  0  0  0  0  0  0  0
   28.2956  -20.7285  -12.8649 C   0  0  0  0  0  0  0  0  0  0  0  0
   27.7703  -20.1934  -11.5347 C   0  0  1  0  0  0  0  0  0  0  0  0
   27.6936  -18.8288  -11.6319 O   0  0  0  0  0  0  0  0  0  0  0  0
   26.4221  -20.8559  -11.2178 C   0  0  2  0  0  0  0  0  0  0  0  0
   25.4410  -20.4259  -12.1973 N   0  0  0  0  0  0  0  0  0  0  0  0
   26.0504  -20.4125   -9.8493 C   0  0  0  0  0  0  0  0  0  0  0  0
   25.1777  -19.5001   -9.7434 O   0  0  0  0  0  0  0  0  0  0  0  0
   26.5909  -20.9265   -8.6608 N   0  0  0  0  0  0  0  0  0  0  0  0
   26.3159  -20.3547   -7.3389 C   0  0  1  0  0  0  0  0  0  0  0  0
   26.7561  -21.4361   -6.3419 C   0  0  0  0  0  0  0  0  0  0  0  0
   28.1089  -21.1582   -5.8253 C   0  0  0  0  0  0  0  0  0  0  0  0
   28.3468  -20.1827   -4.8934 C   0  0  0  0  0  0  0  0  0  0  0  0
   29.6278  -19.9584   -4.4400 C   0  0  0  0  0  0  0  0  0  0  0  0
   30.7182  -20.6855   -4.8875 C   0  0  0  0  0  0  0  0  0  0  0  0
   30.4501  -21.6652   -5.8292 C   0  0  0  0  0  0  0  0  0  0  0  0
   29.1750  -21.9058   -6.2961 C   0  0  0  0  0  0  0  0  0  0  0  0
   27.0444  -19.1043   -7.1288 C   0  0  0  0  0  0  0  0  0  0  0  0
   27.9907  -18.7769   -7.8852 O   0  0  0  0  0  0  0  0  0  0  0  0
   26.7207  -18.2397   -6.0948 O   0  0  0  0  0  0  0  0  0  0  0  0
  2  1  1  0
  3  2  2  0
  4  3  1  0
  5  4  2  0
  5 11  1  0
  6  5  1  0
  7  6  1  0
  7  8  1  6
  9  7  1  0
  9 17  1  0
 10  9  2  0
 11 12  2  0
 12  2  1  0
 14 13  1  6
 14 16  1  0
 15 14  1  0
 16 17  1  6
 16 18  1  0
 18 20  1  0
 19 18  2  0
 20 21  1  0
 21 29  1  0
 21 22  1  1
 23 22  1  0
 24 23  2  0
 25 24  1  0
 26 25  2  0
 26 27  1  0
 27 28  2  0
 28 23  1  0
 29 30  2  0
 29 31  1  0
M  END
$$$$
