YTF.pdb
     RDKit          3D

 31 32  0  0  1  0  0  0  0  0999 V2000
   31.0916   -4.3528  -18.9666 O   0  0  0  0  0  0  0  0  0  0  0  0
   30.9861   -5.7083  -19.2109 C   0  0  0  0  0  0  0  0  0  0  0  0
   31.9475   -6.4097  -19.9094 C   0  0  0  0  0  0  0  0  0  0  0  0
   31.8676   -7.7541  -20.1656 C   0  0  0  0  0  0  0  0  0  0  0  0
   30.7757   -8.4415  -19.7049 C   0  0  0  0  0  0  0  0  0  0  0  0
   30.6487   -9.8999  -19.9602 C   0  0  0  0  0  0  0  0  0  0  0  0
   30.9822  -10.6185  -18.6767 C   0  0  2  0  0  0  0  0  0  0  0  0
   32.3747  -11.0131  -18.7181 N   0  0  0  0  0  0  0  0  0  0  0  0
   30.1376  -11.8652  -18.6359 C   0  0  0  0  0  0  0  0  0  0  0  0
   30.5695  -12.9551  -19.0917 O   0  0  0  0  0  0  0  0  0  0  0  0
   29.7924   -7.7809  -19.0033 C   0  0  0  0  0  0  0  0  0  0  0  0
   29.8891   -6.4141  -18.7515 C   0  0  0  0  0  0  0  0  0  0  0  0
   27.2278  -12.3937  -15.7807 C   0  0  0  0  0  0  0  0  0  0  0  0
   27.8285  -13.5248  -16.6123 C   0  0  1  0  0  0  0  0  0  0  0  0
   27.0120  -14.6180  -16.4861 O   0  0  0  0  0  0  0  0  0  0  0  0
   27.9933  -13.0550  -18.0646 C   0  0  2  0  0  0  0  0  0  0  0  0
   28.8282  -11.8678  -18.0866 N   0  0  0  0  0  0  0  0  0  0  0  0
   26.6258  -12.7639  -18.5671 C   0  0  0  0  0  0  0  0  0  0  0  0
   26.2776  -11.5489  -18.6548 O   0  0  0  0  0  0  0  0  0  0  0  0
   25.6862  -13.7316  -18.9540 N   0  0  0  0  0  0  0  0  0  0  0  0
   24.3684  -13.3985  -19.5038 C   0  0  1  0  0  0  0  0  0  0  0  0
   24.6642  -12.6356  -20.8029 C   0  0  0  0  0  0  0  0  0  0  0  0
   25.0576  -13.5618  -21.8808 C   0  0  0  0  0  0  0  0  0  0  0  0
   24.1380  -14.2943  -22.5838 C   0  0  0  0  0  0  0  0  0  0  0  0
   24.5523  -15.1475  -23.5824 C   0  0  0  0  0  0  0  0  0  0  0  0
   25.8847  -15.3094  -23.9236 C   0  0  0  0  0  0  0  0  0  0  0  0
   26.7935  -14.5574  -23.1975 C   0  0  0  0  0  0  0  0  0  0  0  0
   26.3995  -13.6974  -22.1940 C   0  0  0  0  0  0  0  0  0  0  0  0
   23.5698  -14.5971  -19.7568 C   0  0  0  0  0  0  0  0  0  0  0  0
   22.4110  -14.5094  -20.2303 O   0  0  0  0  0  0  0  0  0  0  0  0
   24.0579  -15.8660  -19.4856 O   0  0  0  0  0  0  0  0  0  0  0  0
  2  1  1  0
  3  2  2  0
  4  3  1  0
  5  4  2  0
  5 11  1  0
  6  5  1  0
  7  6  1  0
  7  8  1  6
  9  7  1  0
  9 17  1  0
 10  9  2  0
 11 12  2  0
 12  2  1  0
 14 13  1  1
 14 16  1  0
 15 14  1  0
 16 17  1  1
 16 18  1  0
 18 20  1  0
 19 18  2  0
 20 21  1  0
 21 29  1  0
 21 22  1  6
 23 22  1  0
 24 23  2  0
 25 24  1  0
 26 25  2  0
 26 27  1  0
 27 28  2  0
 28 23  1  0
 29 30  2  0
 29 31  1  0
M  END
$$$$
