WMR.pdb
     RDKit          3D

 34 35  0  0  1  0  0  0  0  0999 V2000
    7.1255  -18.4017   25.9119 N   0  0  0  0  0  0  0  0  0  0  0  0
    7.1282  -17.0068   25.4913 C   0  0  1  0  0  0  0  0  0  0  0  0
    8.4029  -16.3523   25.9961 C   0  0  0  0  0  0  0  0  0  0  0  0
    8.1811  -15.3201   27.0123 C   0  0  0  0  0  0  0  0  0  0  0  0
    8.4833  -15.3584   28.3536 C   0  0  0  0  0  0  0  0  0  0  0  0
    8.1259  -14.2045   28.9321 N   0  0  0  0  0  0  0  0  0  0  0  0
    7.5856  -13.3993   27.9725 C   0  0  0  0  0  0  0  0  0  0  0  0
    7.0609  -12.1253   28.0063 C   0  0  0  0  0  0  0  0  0  0  0  0
    6.5626  -11.5064   26.8831 C   0  0  0  0  0  0  0  0  0  0  0  0
    6.5964  -12.2050   25.6779 C   0  0  0  0  0  0  0  0  0  0  0  0
    7.1189  -13.4801   25.6335 C   0  0  0  0  0  0  0  0  0  0  0  0
    7.6168  -14.0858   26.7790 C   0  0  0  0  0  0  0  0  0  0  0  0
    7.1621  -16.9327   23.9963 C   0  0  0  0  0  0  0  0  0  0  0  0
    6.7446  -17.8527   23.2582 O   0  0  0  0  0  0  0  0  0  0  0  0
    8.1572  -11.1824   19.4165 C   0  0  0  0  0  0  0  0  0  0  0  0
    8.5430  -12.8965   19.1268 S   0  0  0  0  0  0  0  0  0  0  0  0
    7.4630  -14.0313   19.9102 C   0  0  0  0  0  0  0  0  0  0  0  0
    7.5473  -14.2881   21.3418 C   0  0  0  0  0  0  0  0  0  0  0  0
    7.6879  -15.5875   21.9732 C   0  0  2  0  0  0  0  0  0  0  0  0
    7.7094  -15.7253   23.3783 N   0  0  0  0  0  0  0  0  0  0  0  0
    8.9609  -16.2243   21.4156 C   0  0  0  0  0  0  0  0  0  0  0  0
    9.1041  -16.1822   20.1782 O   0  0  0  0  0  0  0  0  0  0  0  0
   14.8732  -13.0141   18.6883 N   0  0  0  0  0  0  0  0  0  0  0  0
   14.2228  -14.1700   18.2068 C   0  0  0  0  0  0  0  0  0  0  0  0
   14.4401  -14.5516   16.9972 N   0  0  0  0  0  0  0  0  0  0  0  0
   13.3440  -14.8913   19.0566 N   0  0  0  0  0  0  0  0  0  0  0  0
   12.6887  -16.0812   18.5675 C   0  0  0  0  0  0  0  0  0  0  0  0
   11.4949  -16.4704   19.4244 C   0  0  0  0  0  0  0  0  0  0  0  0
   11.8428  -16.4247   20.8935 C   0  0  0  0  0  0  0  0  0  0  0  0
   11.1293  -17.4870   21.6961 C   0  0  2  0  0  0  0  0  0  0  0  0
    9.9258  -16.8256   22.2252 N   0  0  0  0  0  0  0  0  0  0  0  0
   11.9175  -18.0883   22.7636 C   0  0  0  0  0  0  0  0  0  0  0  0
   13.0192  -18.8903   22.5004 O   0  0  0  0  0  0  0  0  0  0  0  0
   11.6249  -17.8992   23.9634 O   0  0  0  0  0  0  0  0  0  0  0  0
  2  1  1  6
  3  2  1  0
  4  5  2  0
  4  3  1  0
  6  5  1  0
  7 12  2  0
  7  6  1  0
  8  7  1  0
  9 10  1  0
  9  8  2  0
 10 11  2  0
 11 12  1  0
 12  4  1  0
 13  2  1  0
 14 13  2  0
 16 15  1  0
 17 16  1  0
 17 18  1  0
 19 18  1  1
 19 20  1  0
 20 13  1  0
 21 19  1  0
 22 21  2  0
 23 24  1  0
 24 25  2  0
 24 26  1  0
 26 27  1  0
 27 28  1  0
 29 28  1  0
 30 29  1  1
 30 31  1  0
 31 21  1  0
 32 30  1  0
 32 33  1  0
 34 32  2  0
M  END
$$$$
