WMR.pdb
     RDKit          3D

 34 35  0  0  1  0  0  0  0  0999 V2000
    6.7824  -18.3725   26.3090 N   0  0  0  0  0  0  0  0  0  0  0  0
    7.0876  -17.0319   25.8270 C   0  0  1  0  0  0  0  0  0  0  0  0
    8.3998  -16.5826   26.4472 C   0  0  0  0  0  0  0  0  0  0  0  0
    8.2960  -15.3520   27.2360 C   0  0  0  0  0  0  0  0  0  0  0  0
    8.8121  -15.0869   28.4830 C   0  0  0  0  0  0  0  0  0  0  0  0
    8.4982  -13.8367   28.8472 N   0  0  0  0  0  0  0  0  0  0  0  0
    7.7727  -13.2717   27.8395 C   0  0  0  0  0  0  0  0  0  0  0  0
    7.2004  -12.0278   27.6819 C   0  0  0  0  0  0  0  0  0  0  0  0
    6.4987  -11.6804   26.5506 C   0  0  0  0  0  0  0  0  0  0  0  0
    6.3708  -12.6301   25.5388 C   0  0  0  0  0  0  0  0  0  0  0  0
    6.9392  -13.8774   25.6869 C   0  0  0  0  0  0  0  0  0  0  0  0
    7.6436  -14.2069   26.8368 C   0  0  0  0  0  0  0  0  0  0  0  0
    7.2945  -17.0658   24.3446 C   0  0  0  0  0  0  0  0  0  0  0  0
    7.4120  -18.1295   23.6965 O   0  0  0  0  0  0  0  0  0  0  0  0
    7.9371  -12.7790   17.5656 C   0  0  0  0  0  0  0  0  0  0  0  0
    7.2480  -12.9086   19.2024 S   0  0  0  0  0  0  0  0  0  0  0  0
    7.6014  -14.4128   20.0273 C   0  0  0  0  0  0  0  0  0  0  0  0
    7.2975  -14.5875   21.4414 C   0  0  0  0  0  0  0  0  0  0  0  0
    7.5305  -15.7856   22.2270 C   0  0  2  0  0  0  0  0  0  0  0  0
    7.3604  -15.7920   23.6287 N   0  0  0  0  0  0  0  0  0  0  0  0
    8.9525  -16.2561   21.9206 C   0  0  0  0  0  0  0  0  0  0  0  0
    9.8765  -15.5239   22.3250 O   0  0  0  0  0  0  0  0  0  0  0  0
    9.5041  -15.8803   14.9062 N   0  0  0  0  0  0  0  0  0  0  0  0
   10.8719  -16.2086   14.7954 C   0  0  0  0  0  0  0  0  0  0  0  0
   11.3242  -16.6301   13.6668 N   0  0  0  0  0  0  0  0  0  0  0  0
   11.7246  -16.0705   15.9217 N   0  0  0  0  0  0  0  0  0  0  0  0
   11.1870  -15.5968   17.1750 C   0  0  0  0  0  0  0  0  0  0  0  0
   11.4167  -16.5856   18.3066 C   0  0  0  0  0  0  0  0  0  0  0  0
   10.2323  -16.6240   19.2431 C   0  0  0  0  0  0  0  0  0  0  0  0
   10.4103  -17.6142   20.3698 C   0  0  2  0  0  0  0  0  0  0  0  0
    9.2285  -17.4363   21.2286 N   0  0  0  0  0  0  0  0  0  0  0  0
   11.6452  -17.4704   21.1294 C   0  0  0  0  0  0  0  0  0  0  0  0
   11.6809  -16.8245   22.3573 O   0  0  0  0  0  0  0  0  0  0  0  0
   12.7235  -17.9291   20.6960 O   0  0  0  0  0  0  0  0  0  0  0  0
  2  1  1  1
  3  2  1  0
  4  5  2  0
  4  3  1  0
  6  5  1  0
  7 12  2  0
  7  6  1  0
  8  7  1  0
  9 10  1  0
  9  8  2  0
 10 11  2  0
 11 12  1  0
 12  4  1  0
 13  2  1  0
 14 13  2  0
 16 15  1  0
 17 16  1  0
 17 18  1  0
 19 18  1  1
 19 20  1  0
 20 13  1  0
 21 19  1  0
 22 21  2  0
 23 24  1  0
 24 25  2  0
 24 26  1  0
 26 27  1  0
 27 28  1  0
 29 28  1  0
 30 29  1  6
 30 31  1  0
 31 21  1  0
 32 30  1  0
 32 33  1  0
 34 32  2  0
M  END
$$$$
