WMR.pdb
     RDKit          3D

 34 35  0  0  1  0  0  0  0  0999 V2000
   10.7108  -15.3515   20.7598 N   0  0  0  0  0  0  0  0  0  0  0  0
    9.7530  -15.3212   21.8573 C   0  0  1  0  0  0  0  0  0  0  0  0
    8.5445  -16.1551   21.4672 C   0  0  0  0  0  0  0  0  0  0  0  0
    7.6024  -15.4629   20.5837 C   0  0  0  0  0  0  0  0  0  0  0  0
    6.4339  -15.9380   20.0354 C   0  0  0  0  0  0  0  0  0  0  0  0
    5.8617  -14.9834   19.2901 N   0  0  0  0  0  0  0  0  0  0  0  0
    6.6524  -13.8730   19.3445 C   0  0  0  0  0  0  0  0  0  0  0  0
    6.5492  -12.6218   18.7759 C   0  0  0  0  0  0  0  0  0  0  0  0
    7.4940  -11.6425   18.9795 C   0  0  0  0  0  0  0  0  0  0  0  0
    8.5867  -11.9418   19.7907 C   0  0  0  0  0  0  0  0  0  0  0  0
    8.6994  -13.1906   20.3640 C   0  0  0  0  0  0  0  0  0  0  0  0
    7.7342  -14.1640   20.1455 C   0  0  0  0  0  0  0  0  0  0  0  0
   10.3550  -15.9647   23.0677 C   0  0  0  0  0  0  0  0  0  0  0  0
   11.5567  -16.3069   23.1316 O   0  0  0  0  0  0  0  0  0  0  0  0
    6.0492  -12.2550   26.9832 C   0  0  0  0  0  0  0  0  0  0  0  0
    7.6838  -12.8961   27.2793 S   0  0  0  0  0  0  0  0  0  0  0  0
    8.2032  -14.1258   26.1451 C   0  0  0  0  0  0  0  0  0  0  0  0
    9.5076  -14.7629   26.2678 C   0  0  0  0  0  0  0  0  0  0  0  0
    9.9704  -15.9197   25.5231 C   0  0  2  0  0  0  0  0  0  0  0  0
    9.4915  -16.1998   24.2247 N   0  0  0  0  0  0  0  0  0  0  0  0
    9.7173  -17.1487   26.3963 C   0  0  0  0  0  0  0  0  0  0  0  0
    8.5262  -17.4823   26.5498 O   0  0  0  0  0  0  0  0  0  0  0  0
   13.2884  -23.6000   25.5146 N   0  0  0  0  0  0  0  0  0  0  0  0
   13.9542  -22.3628   25.6454 C   0  0  0  0  0  0  0  0  0  0  0  0
   14.7091  -21.9547   24.6864 N   0  0  0  0  0  0  0  0  0  0  0  0
   13.7839  -21.5905   26.8240 N   0  0  0  0  0  0  0  0  0  0  0  0
   12.9442  -22.0834   27.8898 C   0  0  0  0  0  0  0  0  0  0  0  0
   11.6190  -21.3421   27.9640 C   0  0  0  0  0  0  0  0  0  0  0  0
   11.8098  -19.8632   27.7234 C   0  0  0  0  0  0  0  0  0  0  0  0
   10.5165  -19.0867   27.8034 C   0  0  2  0  0  0  0  0  0  0  0  0
   10.7449  -17.8754   26.9996 N   0  0  0  0  0  0  0  0  0  0  0  0
   10.0781  -18.7541   29.1524 C   0  0  0  0  0  0  0  0  0  0  0  0
    9.2994  -19.6211   29.9061 O   0  0  0  0  0  0  0  0  0  0  0  0
   10.3928  -17.6665   29.6806 O   0  0  0  0  0  0  0  0  0  0  0  0
  2  1  1  6
  3  2  1  0
  4  5  2  0
  4  3  1  0
  6  5  1  0
  7 12  2  0
  7  6  1  0
  8  7  1  0
  9 10  1  0
  9  8  2  0
 10 11  2  0
 11 12  1  0
 12  4  1  0
 13  2  1  0
 14 13  2  0
 16 15  1  0
 17 16  1  0
 17 18  1  0
 19 18  1  1
 19 20  1  0
 20 13  1  0
 21 19  1  0
 22 21  2  0
 23 24  1  0
 24 25  2  0
 24 26  1  0
 26 27  1  0
 27 28  1  0
 29 28  1  0
 30 29  1  1
 30 31  1  0
 31 21  1  0
 32 30  1  0
 32 33  1  0
 34 32  2  0
M  END
$$$$
