WMR.pdb
     RDKit          3D

 34 35  0  0  1  0  0  0  0  0999 V2000
    8.0303  -16.2617   24.0377 N   0  0  0  0  0  0  0  0  0  0  0  0
    8.8081  -15.0357   24.1594 C   0  0  1  0  0  0  0  0  0  0  0  0
    8.7717  -14.5823   25.6089 C   0  0  0  0  0  0  0  0  0  0  0  0
    7.4589  -14.1048   26.0515 C   0  0  0  0  0  0  0  0  0  0  0  0
    6.3602  -14.8422   26.4269 C   0  0  0  0  0  0  0  0  0  0  0  0
    5.3593  -14.0215   26.7713 N   0  0  0  0  0  0  0  0  0  0  0  0
    5.7953  -12.7372   26.6241 C   0  0  0  0  0  0  0  0  0  0  0  0
    5.1933  -11.5149   26.8316 C   0  0  0  0  0  0  0  0  0  0  0  0
    5.8490  -10.3261   26.6082 C   0  0  0  0  0  0  0  0  0  0  0  0
    7.1662  -10.3767   26.1566 C   0  0  0  0  0  0  0  0  0  0  0  0
    7.7774  -11.5944   25.9456 C   0  0  0  0  0  0  0  0  0  0  0  0
    7.0973  -12.7820   26.1776 C   0  0  0  0  0  0  0  0  0  0  0  0
   10.2407  -15.3141   23.8250 C   0  0  0  0  0  0  0  0  0  0  0  0
   11.1624  -14.4955   24.0388 O   0  0  0  0  0  0  0  0  0  0  0  0
   10.9843  -16.1860   28.7636 C   0  0  0  0  0  0  0  0  0  0  0  0
   12.0297  -17.2428   27.7833 S   0  0  0  0  0  0  0  0  0  0  0  0
   12.2199  -16.7399   26.1163 C   0  0  0  0  0  0  0  0  0  0  0  0
   11.9525  -17.6568   25.0162 C   0  0  0  0  0  0  0  0  0  0  0  0
   11.7346  -17.2911   23.6285 C   0  0  2  0  0  0  0  0  0  0  0  0
   10.5692  -16.6054   23.2217 N   0  0  0  0  0  0  0  0  0  0  0  0
   11.8424  -18.5728   22.8023 C   0  0  0  0  0  0  0  0  0  0  0  0
   11.0634  -19.4961   23.1095 O   0  0  0  0  0  0  0  0  0  0  0  0
    7.7579  -14.0818   18.9085 N   0  0  0  0  0  0  0  0  0  0  0  0
    8.8011  -13.9893   17.9629 C   0  0  0  0  0  0  0  0  0  0  0  0
    8.5366  -13.5552   16.7807 N   0  0  0  0  0  0  0  0  0  0  0  0
   10.1187  -14.3731   18.3253 N   0  0  0  0  0  0  0  0  0  0  0  0
   10.3371  -15.1415   19.5278 C   0  0  0  0  0  0  0  0  0  0  0  0
   11.2731  -16.3164   19.2942 C   0  0  0  0  0  0  0  0  0  0  0  0
   11.5989  -17.0176   20.5917 C   0  0  0  0  0  0  0  0  0  0  0  0
   12.5315  -18.1909   20.4035 C   0  0  2  0  0  0  0  0  0  0  0  0
   12.7533  -18.7267   21.7561 N   0  0  0  0  0  0  0  0  0  0  0  0
   13.7918  -17.8786   19.7428 C   0  0  0  0  0  0  0  0  0  0  0  0
   14.0992  -18.3655   18.4800 O   0  0  0  0  0  0  0  0  0  0  0  0
   14.6457  -17.1540   20.2967 O   0  0  0  0  0  0  0  0  0  0  0  0
  2  1  1  1
  3  2  1  0
  4  5  2  0
  4  3  1  0
  6  5  1  0
  7 12  2  0
  7  6  1  0
  8  7  1  0
  9 10  1  0
  9  8  2  0
 10 11  2  0
 11 12  1  0
 12  4  1  0
 13  2  1  0
 14 13  2  0
 16 15  1  0
 17 16  1  0
 17 18  1  0
 19 18  1  1
 19 20  1  0
 20 13  1  0
 21 19  1  0
 22 21  2  0
 23 24  1  0
 24 25  2  0
 24 26  1  0
 26 27  1  0
 27 28  1  0
 29 28  1  0
 30 29  1  1
 30 31  1  0
 31 21  1  0
 32 30  1  0
 32 33  1  0
 34 32  2  0
M  END
$$$$
