WMR.pdb
     RDKit          3D

 34 35  0  0  1  0  0  0  0  0999 V2000
    6.9863  -18.2800   25.7409 N   0  0  0  0  0  0  0  0  0  0  0  0
    7.1870  -16.8876   25.3619 C   0  0  1  0  0  0  0  0  0  0  0  0
    8.4130  -16.3609   26.0884 C   0  0  0  0  0  0  0  0  0  0  0  0
    8.1151  -15.3455   27.1021 C   0  0  0  0  0  0  0  0  0  0  0  0
    8.3958  -15.3698   28.4483 C   0  0  0  0  0  0  0  0  0  0  0  0
    7.9631  -14.2395   29.0222 N   0  0  0  0  0  0  0  0  0  0  0  0
    7.3944  -13.4641   28.0544 C   0  0  0  0  0  0  0  0  0  0  0  0
    6.7974  -12.2223   28.0809 C   0  0  0  0  0  0  0  0  0  0  0  0
    6.2841  -11.6300   26.9501 C   0  0  0  0  0  0  0  0  0  0  0  0
    6.3786  -12.3227   25.7446 C   0  0  0  0  0  0  0  0  0  0  0  0
    6.9737  -13.5658   25.7075 C   0  0  0  0  0  0  0  0  0  0  0  0
    7.4854  -14.1448   26.8607 C   0  0  0  0  0  0  0  0  0  0  0  0
    7.4785  -16.8027   23.8959 C   0  0  0  0  0  0  0  0  0  0  0  0
    7.4311  -17.7929   23.1326 O   0  0  0  0  0  0  0  0  0  0  0  0
    8.0658  -12.1001   17.4352 C   0  0  0  0  0  0  0  0  0  0  0  0
    7.8054  -12.2198   19.1927 S   0  0  0  0  0  0  0  0  0  0  0  0
    8.0653  -13.8170   19.8630 C   0  0  0  0  0  0  0  0  0  0  0  0
    7.8335  -14.0896   21.2752 C   0  0  0  0  0  0  0  0  0  0  0  0
    8.0284  -15.3618   21.9463 C   0  0  2  0  0  0  0  0  0  0  0  0
    7.8336  -15.4979   23.3382 N   0  0  0  0  0  0  0  0  0  0  0  0
    9.4456  -15.8321   21.6185 C   0  0  0  0  0  0  0  0  0  0  0  0
   10.3499  -15.4346   22.3786 O   0  0  0  0  0  0  0  0  0  0  0  0
   10.6227  -21.6497   22.0845 N   0  0  0  0  0  0  0  0  0  0  0  0
    9.3599  -21.2947   21.5647 C   0  0  0  0  0  0  0  0  0  0  0  0
    8.3238  -21.3858   22.3224 N   0  0  0  0  0  0  0  0  0  0  0  0
    9.2498  -20.8450   20.2229 N   0  0  0  0  0  0  0  0  0  0  0  0
   10.4353  -20.7190   19.4088 C   0  0  0  0  0  0  0  0  0  0  0  0
   11.3335  -19.5853   19.8769 C   0  0  0  0  0  0  0  0  0  0  0  0
   10.9166  -18.2716   19.2590 C   0  0  0  0  0  0  0  0  0  0  0  0
   11.1010  -17.1010   20.1957 C   0  0  2  0  0  0  0  0  0  0  0  0
    9.7381  -16.6611   20.5344 N   0  0  0  0  0  0  0  0  0  0  0  0
   11.8964  -16.0028   19.6629 C   0  0  0  0  0  0  0  0  0  0  0  0
   11.4405  -15.2019   18.6252 O   0  0  0  0  0  0  0  0  0  0  0  0
   13.0265  -15.7429   20.1281 O   0  0  0  0  0  0  0  0  0  0  0  0
  2  1  1  1
  3  2  1  0
  4  5  2  0
  4  3  1  0
  6  5  1  0
  7 12  2  0
  7  6  1  0
  8  7  1  0
  9 10  1  0
  9  8  2  0
 10 11  2  0
 11 12  1  0
 12  4  1  0
 13  2  1  0
 14 13  2  0
 16 15  1  0
 17 16  1  0
 17 18  1  0
 19 18  1  1
 19 20  1  0
 20 13  1  0
 21 19  1  0
 22 21  2  0
 23 24  1  0
 24 25  2  0
 24 26  1  0
 26 27  1  0
 27 28  1  0
 29 28  1  0
 30 29  1  6
 30 31  1  0
 31 21  1  0
 32 30  1  0
 32 33  1  0
 34 32  2  0
M  END
$$$$
