WMR.pdb
     RDKit          3D

 34 35  0  0  1  0  0  0  0  0999 V2000
    7.8923  -17.8816   22.0184 N   0  0  0  0  0  0  0  0  0  0  0  0
    8.2131  -16.4676   21.8752 C   0  0  1  0  0  0  0  0  0  0  0  0
    6.9362  -15.6626   22.0478 C   0  0  0  0  0  0  0  0  0  0  0  0
    7.1466  -14.2132   22.0925 C   0  0  0  0  0  0  0  0  0  0  0  0
    7.5690  -13.3767   21.0857 C   0  0  0  0  0  0  0  0  0  0  0  0
    7.6230  -12.1164   21.5360 N   0  0  0  0  0  0  0  0  0  0  0  0
    7.2356  -12.1171   22.8441 C   0  0  0  0  0  0  0  0  0  0  0  0
    7.1073  -11.1163   23.7828 C   0  0  0  0  0  0  0  0  0  0  0  0
    6.6898  -11.3658   25.0699 C   0  0  0  0  0  0  0  0  0  0  0  0
    6.3906  -12.6808   25.4206 C   0  0  0  0  0  0  0  0  0  0  0  0
    6.5160  -13.6894   24.4890 C   0  0  0  0  0  0  0  0  0  0  0  0
    6.9387  -13.4152   23.1955 C   0  0  0  0  0  0  0  0  0  0  0  0
    9.1438  -16.0499   22.9709 C   0  0  0  0  0  0  0  0  0  0  0  0
    9.9899  -15.1380   22.8365 O   0  0  0  0  0  0  0  0  0  0  0  0
   10.6217  -13.5811   30.0803 C   0  0  0  0  0  0  0  0  0  0  0  0
    9.6458  -13.8023   28.6073 S   0  0  0  0  0  0  0  0  0  0  0  0
   10.1881  -15.0963   27.5588 C   0  0  0  0  0  0  0  0  0  0  0  0
    9.4831  -15.4123   26.3236 C   0  0  0  0  0  0  0  0  0  0  0  0
    9.9050  -16.3680   25.3158 C   0  0  2  0  0  0  0  0  0  0  0  0
    9.0526  -16.7444   24.2550 N   0  0  0  0  0  0  0  0  0  0  0  0
   10.3352  -17.6377   26.0506 C   0  0  0  0  0  0  0  0  0  0  0  0
    9.4671  -18.1910   26.7535 O   0  0  0  0  0  0  0  0  0  0  0  0
   14.0574  -22.0348   21.4428 N   0  0  0  0  0  0  0  0  0  0  0  0
   15.0167  -21.4282   22.2812 C   0  0  0  0  0  0  0  0  0  0  0  0
   15.9144  -20.6696   21.7573 N   0  0  0  0  0  0  0  0  0  0  0  0
   14.9791  -21.6608   23.6809 N   0  0  0  0  0  0  0  0  0  0  0  0
   13.7446  -22.0706   24.3073 C   0  0  0  0  0  0  0  0  0  0  0  0
   13.5261  -21.3832   25.6455 C   0  0  0  0  0  0  0  0  0  0  0  0
   13.1080  -19.9444   25.4551 C   0  0  0  0  0  0  0  0  0  0  0  0
   11.9609  -19.5456   26.3534 C   0  0  2  0  0  0  0  0  0  0  0  0
   11.6221  -18.1695   25.9566 N   0  0  0  0  0  0  0  0  0  0  0  0
   12.2348  -19.6344   27.7815 C   0  0  0  0  0  0  0  0  0  0  0  0
   12.2997  -18.5069   28.5881 O   0  0  0  0  0  0  0  0  0  0  0  0
   12.4216  -20.7400   28.3326 O   0  0  0  0  0  0  0  0  0  0  0  0
  2  1  1  1
  3  2  1  0
  4  5  2  0
  4  3  1  0
  6  5  1  0
  7 12  2  0
  7  6  1  0
  8  7  1  0
  9 10  1  0
  9  8  2  0
 10 11  2  0
 11 12  1  0
 12  4  1  0
 13  2  1  0
 14 13  2  0
 16 15  1  0
 17 16  1  0
 17 18  1  0
 19 18  1  1
 19 20  1  0
 20 13  1  0
 21 19  1  0
 22 21  2  0
 23 24  1  0
 24 25  2  0
 24 26  1  0
 26 27  1  0
 27 28  1  0
 29 28  1  0
 30 29  1  6
 30 31  1  0
 31 21  1  0
 32 30  1  0
 32 33  1  0
 34 32  2  0
M  END
$$$$
