WMR.pdb
     RDKit          3D

 34 35  0  0  1  0  0  0  0  0999 V2000
    6.2343  -18.3444   24.9575 N   0  0  0  0  0  0  0  0  0  0  0  0
    6.5975  -17.0832   24.3249 C   0  0  1  0  0  0  0  0  0  0  0  0
    7.3262  -16.2237   25.3439 C   0  0  0  0  0  0  0  0  0  0  0  0
    6.5661  -15.0523   25.7884 C   0  0  0  0  0  0  0  0  0  0  0  0
    5.3019  -15.0049   26.3281 C   0  0  0  0  0  0  0  0  0  0  0  0
    4.9759  -13.7363   26.6085 N   0  0  0  0  0  0  0  0  0  0  0  0
    6.0262  -12.9410   26.2541 C   0  0  0  0  0  0  0  0  0  0  0  0
    6.2331  -11.5800   26.3187 C   0  0  0  0  0  0  0  0  0  0  0  0
    7.4017  -10.9937   25.8900 C   0  0  0  0  0  0  0  0  0  0  0  0
    8.4003  -11.8180   25.3752 C   0  0  0  0  0  0  0  0  0  0  0  0
    8.2030  -13.1808   25.3059 C   0  0  0  0  0  0  0  0  0  0  0  0
    7.0161  -13.7516   25.7444 C   0  0  0  0  0  0  0  0  0  0  0  0
    7.5573  -17.3406   23.2050 C   0  0  0  0  0  0  0  0  0  0  0  0
    8.1774  -18.4192   23.0727 O   0  0  0  0  0  0  0  0  0  0  0  0
    7.7090  -11.3571   19.9200 C   0  0  0  0  0  0  0  0  0  0  0  0
    7.4766  -13.0874   19.5693 S   0  0  0  0  0  0  0  0  0  0  0  0
    8.7811  -14.1242   20.1089 C   0  0  0  0  0  0  0  0  0  0  0  0
    8.6840  -15.5743   20.0072 C   0  0  0  0  0  0  0  0  0  0  0  0
    8.6162  -16.5091   21.1155 C   0  0  2  0  0  0  0  0  0  0  0  0
    7.7735  -16.2771   22.2244 N   0  0  0  0  0  0  0  0  0  0  0  0
   10.0417  -16.6964   21.6351 C   0  0  0  0  0  0  0  0  0  0  0  0
   10.2148  -16.5084   22.8551 O   0  0  0  0  0  0  0  0  0  0  0  0
   12.9898  -23.8117   21.7286 N   0  0  0  0  0  0  0  0  0  0  0  0
   13.8953  -23.3603   22.7121 C   0  0  0  0  0  0  0  0  0  0  0  0
   14.7807  -24.1753   23.1679 N   0  0  0  0  0  0  0  0  0  0  0  0
   13.8183  -22.0232   23.1822 N   0  0  0  0  0  0  0  0  0  0  0  0
   12.6991  -21.1931   22.8045 C   0  0  0  0  0  0  0  0  0  0  0  0
   13.1433  -19.8350   22.2855 C   0  0  0  0  0  0  0  0  0  0  0  0
   11.9561  -18.9937   21.8803 C   0  0  0  0  0  0  0  0  0  0  0  0
   12.3570  -17.6514   21.3153 C   0  0  2  0  0  0  0  0  0  0  0  0
   11.1083  -17.0580   20.8108 N   0  0  0  0  0  0  0  0  0  0  0  0
   13.3796  -17.6979   20.2787 C   0  0  0  0  0  0  0  0  0  0  0  0
   13.0590  -17.8545   18.9375 O   0  0  0  0  0  0  0  0  0  0  0  0
   14.5913  -17.5966   20.5661 O   0  0  0  0  0  0  0  0  0  0  0  0
  2  1  1  1
  3  2  1  0
  4  5  2  0
  4  3  1  0
  6  5  1  0
  7 12  2  0
  7  6  1  0
  8  7  1  0
  9 10  1  0
  9  8  2  0
 10 11  2  0
 11 12  1  0
 12  4  1  0
 13  2  1  0
 14 13  2  0
 16 15  1  0
 17 16  1  0
 17 18  1  0
 19 18  1  6
 19 20  1  0
 20 13  1  0
 21 19  1  0
 22 21  2  0
 23 24  1  0
 24 25  2  0
 24 26  1  0
 26 27  1  0
 27 28  1  0
 29 28  1  0
 30 29  1  6
 30 31  1  0
 31 21  1  0
 32 30  1  0
 32 33  1  0
 34 32  2  0
M  END
$$$$
