WMR.pdb
     RDKit          3D

 34 35  0  0  1  0  0  0  0  0999 V2000
    6.5574  -18.0827   26.2553 N   0  0  0  0  0  0  0  0  0  0  0  0
    6.9938  -16.8090   25.6987 C   0  0  1  0  0  0  0  0  0  0  0  0
    8.3281  -16.4400   26.3245 C   0  0  0  0  0  0  0  0  0  0  0  0
    8.3197  -15.1578   27.0338 C   0  0  0  0  0  0  0  0  0  0  0  0
    8.9011  -14.8411   28.2394 C   0  0  0  0  0  0  0  0  0  0  0  0
    8.6660  -13.5554   28.5324 N   0  0  0  0  0  0  0  0  0  0  0  0
    7.9273  -13.0185   27.5190 C   0  0  0  0  0  0  0  0  0  0  0  0
    7.4118  -11.7588   27.3023 C   0  0  0  0  0  0  0  0  0  0  0  0
    6.6807  -11.4479   26.1790 C   0  0  0  0  0  0  0  0  0  0  0  0
    6.4625  -12.4521   25.2378 C   0  0  0  0  0  0  0  0  0  0  0  0
    6.9736  -13.7156   25.4454 C   0  0  0  0  0  0  0  0  0  0  0  0
    7.7089  -14.0077   26.5860 C   0  0  0  0  0  0  0  0  0  0  0  0
    7.2280  -16.9573   24.2274 C   0  0  0  0  0  0  0  0  0  0  0  0
    7.0639  -18.0365   23.6160 O   0  0  0  0  0  0  0  0  0  0  0  0
    8.0246  -11.7832   19.6273 C   0  0  0  0  0  0  0  0  0  0  0  0
    7.5967  -13.3058   18.8090 S   0  0  0  0  0  0  0  0  0  0  0  0
    7.8857  -14.7507   19.7560 C   0  0  0  0  0  0  0  0  0  0  0  0
    7.6435  -14.7726   21.1924 C   0  0  0  0  0  0  0  0  0  0  0  0
    7.9025  -15.8843   22.0890 C   0  0  2  0  0  0  0  0  0  0  0  0
    7.6678  -15.7810   23.4775 N   0  0  0  0  0  0  0  0  0  0  0  0
    9.3600  -16.2979   21.8848 C   0  0  0  0  0  0  0  0  0  0  0  0
   10.2061  -15.3839   21.9318 O   0  0  0  0  0  0  0  0  0  0  0  0
   13.1819  -19.7859   17.4961 N   0  0  0  0  0  0  0  0  0  0  0  0
   12.6713  -19.5278   16.2063 C   0  0  0  0  0  0  0  0  0  0  0  0
   13.4026  -19.7902   15.1804 N   0  0  0  0  0  0  0  0  0  0  0  0
   11.3677  -18.9864   16.0583 N   0  0  0  0  0  0  0  0  0  0  0  0
   10.5047  -18.8685   17.2096 C   0  0  0  0  0  0  0  0  0  0  0  0
   10.8896  -17.6946   18.0956 C   0  0  0  0  0  0  0  0  0  0  0  0
    9.9832  -17.6033   19.3003 C   0  0  0  0  0  0  0  0  0  0  0  0
   10.6695  -18.0181   20.5805 C   0  0  2  0  0  0  0  0  0  0  0  0
    9.7490  -17.6188   21.6571 N   0  0  0  0  0  0  0  0  0  0  0  0
   11.9974  -17.4533   20.7805 C   0  0  0  0  0  0  0  0  0  0  0  0
   12.1908  -16.1013   21.0269 O   0  0  0  0  0  0  0  0  0  0  0  0
   13.0162  -18.1753   20.7370 O   0  0  0  0  0  0  0  0  0  0  0  0
  2  1  1  1
  3  2  1  0
  4  5  2  0
  4  3  1  0
  6  5  1  0
  7 12  2  0
  7  6  1  0
  8  7  1  0
  9 10  1  0
  9  8  2  0
 10 11  2  0
 11 12  1  0
 12  4  1  0
 13  2  1  0
 14 13  2  0
 16 15  1  0
 17 16  1  0
 17 18  1  0
 19 18  1  6
 19 20  1  0
 20 13  1  0
 21 19  1  0
 22 21  2  0
 23 24  1  0
 24 25  2  0
 24 26  1  0
 26 27  1  0
 27 28  1  0
 29 28  1  0
 30 29  1  6
 30 31  1  0
 31 21  1  0
 32 30  1  0
 32 33  1  0
 34 32  2  0
M  END
$$$$
