WMR.pdb
     RDKit          3D

 34 35  0  0  1  0  0  0  0  0999 V2000
    7.1506  -19.6490   26.9629 N   0  0  0  0  0  0  0  0  0  0  0  0
    7.8120  -18.3509   26.9482 C   0  0  1  0  0  0  0  0  0  0  0  0
    9.2996  -18.5640   27.1717 C   0  0  0  0  0  0  0  0  0  0  0  0
    9.8323  -17.8657   28.3447 C   0  0  0  0  0  0  0  0  0  0  0  0
   10.2909  -18.4005   29.5259 C   0  0  0  0  0  0  0  0  0  0  0  0
   10.7009  -17.4186   30.3394 N   0  0  0  0  0  0  0  0  0  0  0  0
   10.5138  -16.2301   29.6961 C   0  0  0  0  0  0  0  0  0  0  0  0
   10.7557  -14.9223   30.0572 C   0  0  0  0  0  0  0  0  0  0  0  0
   10.4774  -13.8660   29.2205 C   0  0  0  0  0  0  0  0  0  0  0  0
    9.9324  -14.1449   27.9688 C   0  0  0  0  0  0  0  0  0  0  0  0
    9.6863  -15.4498   27.5981 C   0  0  0  0  0  0  0  0  0  0  0  0
    9.9750  -16.5007   28.4579 C   0  0  0  0  0  0  0  0  0  0  0  0
    7.6591  -17.7243   25.5971 C   0  0  0  0  0  0  0  0  0  0  0  0
    7.4020  -18.3830   24.5649 O   0  0  0  0  0  0  0  0  0  0  0  0
    5.4914  -10.8317   25.9379 C   0  0  0  0  0  0  0  0  0  0  0  0
    6.3993  -11.6989   24.6750 S   0  0  0  0  0  0  0  0  0  0  0  0
    6.7444  -13.3760   25.0441 C   0  0  0  0  0  0  0  0  0  0  0  0
    7.4808  -14.2180   24.1107 C   0  0  0  0  0  0  0  0  0  0  0  0
    7.6894  -15.6496   24.2281 C   0  0  2  0  0  0  0  0  0  0  0  0
    7.8184  -16.2744   25.4878 N   0  0  0  0  0  0  0  0  0  0  0  0
    8.9271  -15.9943   23.3998 C   0  0  0  0  0  0  0  0  0  0  0  0
    9.9878  -16.1603   24.0330 O   0  0  0  0  0  0  0  0  0  0  0  0
   12.6947  -15.5255   17.0942 N   0  0  0  0  0  0  0  0  0  0  0  0
   12.4103  -16.6676   16.3160 C   0  0  0  0  0  0  0  0  0  0  0  0
   13.3104  -17.1176   15.5140 N   0  0  0  0  0  0  0  0  0  0  0  0
   11.1447  -17.3005   16.4272 N   0  0  0  0  0  0  0  0  0  0  0  0
   10.1708  -16.7973   17.3666 C   0  0  0  0  0  0  0  0  0  0  0  0
   10.7039  -16.7809   18.7902 C   0  0  0  0  0  0  0  0  0  0  0  0
    9.6192  -16.4057   19.7720 C   0  0  0  0  0  0  0  0  0  0  0  0
   10.0650  -16.5284   21.2101 C   0  0  2  0  0  0  0  0  0  0  0  0
    8.8985  -16.1225   22.0103 N   0  0  0  0  0  0  0  0  0  0  0  0
   11.2457  -15.7498   21.5595 C   0  0  0  0  0  0  0  0  0  0  0  0
   11.1932  -14.3736   21.7315 O   0  0  0  0  0  0  0  0  0  0  0  0
   12.3555  -16.3012   21.7181 O   0  0  0  0  0  0  0  0  0  0  0  0
  2  1  1  6
  3  2  1  0
  4  5  2  0
  4  3  1  0
  6  5  1  0
  7 12  2  0
  7  6  1  0
  8  7  1  0
  9 10  1  0
  9  8  2  0
 10 11  2  0
 11 12  1  0
 12  4  1  0
 13  2  1  0
 14 13  2  0
 16 15  1  0
 17 16  1  0
 17 18  1  0
 19 18  1  1
 19 20  1  0
 20 13  1  0
 21 19  1  0
 22 21  2  0
 23 24  1  0
 24 25  2  0
 24 26  1  0
 26 27  1  0
 27 28  1  0
 29 28  1  0
 30 29  1  6
 30 31  1  0
 31 21  1  0
 32 30  1  0
 32 33  1  0
 34 32  2  0
M  END
$$$$
