VII.pdb
     RDKit          3D

 24 23  0  0  1  0  0  0  0  0999 V2000
   24.2428  -19.3187  -15.2104 C   0  0  0  0  0  0  0  0  0  0  0  0
   24.0464  -19.9760  -13.8625 C   0  0  1  0  0  0  0  0  0  0  0  0
   23.0397  -21.0637  -13.9327 C   0  0  0  0  0  0  0  0  0  0  0  0
   25.3530  -20.3246  -13.2205 C   0  0  2  0  0  0  0  0  0  0  0  0
   26.0190  -21.2653  -14.1105 N   0  0  0  0  0  0  0  0  0  0  0  0
   25.2605  -20.9086  -11.8735 C   0  0  0  0  0  0  0  0  0  0  0  0
   25.1152  -22.1628  -11.7652 O   0  0  0  0  0  0  0  0  0  0  0  0
   26.8739  -20.1632   -6.0252 C   0  0  0  0  0  0  0  0  0  0  0  0
   25.9610  -20.8616   -7.0236 C   0  0  0  0  0  0  0  0  0  0  0  0
   26.0115  -20.1119   -8.3342 C   0  0  2  0  0  0  0  0  0  0  0  0
   25.6974  -18.6613   -8.1870 C   0  0  0  0  0  0  0  0  0  0  0  0
   25.1203  -20.7974   -9.3585 C   0  0  2  0  0  0  0  0  0  0  0  0
   25.3199  -20.1916  -10.6502 N   0  0  0  0  0  0  0  0  0  0  0  0
   23.7299  -20.7284   -8.8617 C   0  0  0  0  0  0  0  0  0  0  0  0
   23.1251  -19.6200   -8.9357 O   0  0  0  0  0  0  0  0  0  0  0  0
   19.9019  -21.8273  -11.3493 C   0  0  0  0  0  0  0  0  0  0  0  0
   20.7585  -21.3230  -10.2349 C   0  0  0  0  0  0  0  0  0  0  0  0
   20.6696  -22.0736   -8.9546 C   0  0  2  0  0  0  0  0  0  0  0  0
   19.2232  -22.1304   -8.4482 C   0  0  0  0  0  0  0  0  0  0  0  0
   21.6083  -21.6501   -7.8854 C   0  0  2  0  0  0  0  0  0  0  0  0
   23.0033  -21.8024   -8.3029 N   0  0  0  0  0  0  0  0  0  0  0  0
   21.3180  -22.3044   -6.6106 C   0  0  0  0  0  0  0  0  0  0  0  0
   20.3567  -21.7348   -5.7649 O   0  0  0  0  0  0  0  0  0  0  0  0
   21.8763  -23.3552   -6.2171 O   0  0  0  0  0  0  0  0  0  0  0  0
  2  1  1  6
  2  4  1  0
  3  2  1  0
  4  6  1  0
  4  5  1  6
  6  7  2  0
  9  8  1  0
  9 10  1  0
 10 11  1  1
 12 10  1  0
 12 13  1  6
 13  6  1  0
 14 15  2  0
 14 12  1  0
 16 17  1  0
 17 18  1  0
 18 20  1  0
 18 19  1  1
 20 21  1  6
 21 14  1  0
 22 20  1  0
 22 23  1  0
 24 22  2  0
M  END
$$$$
