VII.pdb
     RDKit          3D

 24 23  0  0  1  0  0  0  0  0999 V2000
   26.3415  -15.5643  -17.0043 C   0  0  0  0  0  0  0  0  0  0  0  0
   25.5140  -16.5158  -16.1693 C   0  0  1  0  0  0  0  0  0  0  0  0
   24.8756  -17.5581  -17.0102 C   0  0  0  0  0  0  0  0  0  0  0  0
   26.2694  -17.0028  -14.9721 C   0  0  2  0  0  0  0  0  0  0  0  0
   27.4965  -17.6089  -15.4695 N   0  0  0  0  0  0  0  0  0  0  0  0
   25.5560  -17.9700  -14.1239 C   0  0  0  0  0  0  0  0  0  0  0  0
   24.4175  -17.6516  -13.6674 O   0  0  0  0  0  0  0  0  0  0  0  0
   24.3121  -22.8327  -15.2894 C   0  0  0  0  0  0  0  0  0  0  0  0
   24.4235  -21.4316  -14.7044 C   0  0  0  0  0  0  0  0  0  0  0  0
   25.2020  -21.5058  -13.4118 C   0  0  2  0  0  0  0  0  0  0  0  0
   24.6278  -22.4831  -12.4424 C   0  0  0  0  0  0  0  0  0  0  0  0
   25.3497  -20.1148  -12.8147 C   0  0  2  0  0  0  0  0  0  0  0  0
   26.0246  -19.2578  -13.7556 N   0  0  0  0  0  0  0  0  0  0  0  0
   26.0397  -20.2551  -11.5151 C   0  0  0  0  0  0  0  0  0  0  0  0
   27.2343  -20.6708  -11.5164 O   0  0  0  0  0  0  0  0  0  0  0  0
   27.6055  -17.3551   -7.6047 C   0  0  0  0  0  0  0  0  0  0  0  0
   27.3971  -18.5347   -8.4964 C   0  0  0  0  0  0  0  0  0  0  0  0
   26.3948  -19.5309   -8.0344 C   0  0  2  0  0  0  0  0  0  0  0  0
   26.8144  -20.1560   -6.6983 C   0  0  0  0  0  0  0  0  0  0  0  0
   26.0015  -20.5653   -9.0238 C   0  0  2  0  0  0  0  0  0  0  0  0
   25.4793  -19.9637  -10.2522 N   0  0  0  0  0  0  0  0  0  0  0  0
   25.1001  -21.5611   -8.4464 C   0  0  0  0  0  0  0  0  0  0  0  0
   23.7542  -21.5576   -8.8366 O   0  0  0  0  0  0  0  0  0  0  0  0
   25.4534  -22.4309   -7.6162 O   0  0  0  0  0  0  0  0  0  0  0  0
  2  1  1  6
  2  4  1  0
  3  2  1  0
  4  6  1  0
  4  5  1  6
  6  7  2  0
  9  8  1  0
  9 10  1  0
 10 11  1  1
 12 10  1  0
 12 13  1  6
 13  6  1  0
 14 15  2  0
 14 12  1  0
 16 17  1  0
 17 18  1  0
 18 20  1  0
 18 19  1  1
 20 21  1  6
 21 14  1  0
 22 20  1  0
 22 23  1  0
 24 22  2  0
M  END
$$$$
