VII.pdb
     RDKit          3D

 24 23  0  0  1  0  0  0  0  0999 V2000
   19.3843  -23.9726   -8.7010 C   0  0  0  0  0  0  0  0  0  0  0  0
   18.4676  -24.3897   -7.5728 C   0  0  1  0  0  0  0  0  0  0  0  0
   17.0690  -23.9645   -7.8270 C   0  0  0  0  0  0  0  0  0  0  0  0
   18.6649  -25.8264   -7.2010 C   0  0  2  0  0  0  0  0  0  0  0  0
   18.3038  -26.6149   -8.3707 N   0  0  0  0  0  0  0  0  0  0  0  0
   17.8904  -26.2919   -6.0402 C   0  0  0  0  0  0  0  0  0  0  0  0
   16.7033  -26.6946   -6.2256 O   0  0  0  0  0  0  0  0  0  0  0  0
   19.4942  -30.1457   -3.1346 C   0  0  0  0  0  0  0  0  0  0  0  0
   18.6464  -29.1037   -3.8510 C   0  0  0  0  0  0  0  0  0  0  0  0
   18.3819  -27.9578   -2.9027 C   0  0  2  0  0  0  0  0  0  0  0  0
   17.7499  -28.3948   -1.6243 C   0  0  0  0  0  0  0  0  0  0  0  0
   17.5776  -26.8764   -3.6076 C   0  0  2  0  0  0  0  0  0  0  0  0
   18.3496  -26.3381   -4.6982 N   0  0  0  0  0  0  0  0  0  0  0  0
   17.1803  -25.8786   -2.5920 C   0  0  0  0  0  0  0  0  0  0  0  0
   18.0561  -25.0624   -2.1839 O   0  0  0  0  0  0  0  0  0  0  0  0
   13.1010  -21.7577   -1.0760 C   0  0  0  0  0  0  0  0  0  0  0  0
   14.1473  -22.7018   -0.5818 C   0  0  0  0  0  0  0  0  0  0  0  0
   14.5317  -23.7938   -1.5145 C   0  0  2  0  0  0  0  0  0  0  0  0
   13.2965  -24.5563   -2.0093 C   0  0  0  0  0  0  0  0  0  0  0  0
   15.5899  -24.7175   -1.0343 C   0  0  2  0  0  0  0  0  0  0  0  0
   15.8929  -25.7507   -2.0263 N   0  0  0  0  0  0  0  0  0  0  0  0
   15.2817  -25.2647    0.2860 C   0  0  0  0  0  0  0  0  0  0  0  0
   15.6002  -24.5061    1.4204 O   0  0  0  0  0  0  0  0  0  0  0  0
   14.7434  -26.3804    0.4758 O   0  0  0  0  0  0  0  0  0  0  0  0
  2  1  1  6
  2  4  1  0
  3  2  1  0
  4  6  1  0
  4  5  1  6
  6  7  2  0
  9  8  1  0
  9 10  1  0
 10 11  1  1
 12 10  1  0
 12 13  1  6
 13  6  1  0
 14 15  2  0
 14 12  1  0
 16 17  1  0
 17 18  1  0
 18 20  1  0
 18 19  1  1
 20 21  1  6
 21 14  1  0
 22 20  1  0
 22 23  1  0
 24 22  2  0
M  END
$$$$
