VII.pdb
     RDKit          3D

 24 23  0  0  1  0  0  0  0  0999 V2000
   16.5025  -21.4551  -12.6313 C   0  0  0  0  0  0  0  0  0  0  0  0
   17.8377  -22.0530  -13.0151 C   0  0  1  0  0  0  0  0  0  0  0  0
   17.8674  -22.4346  -14.4485 C   0  0  0  0  0  0  0  0  0  0  0  0
   18.9797  -21.2155  -12.5297 C   0  0  2  0  0  0  0  0  0  0  0  0
   18.7199  -19.8541  -12.9764 N   0  0  0  0  0  0  0  0  0  0  0  0
   20.3124  -21.6346  -12.9902 C   0  0  0  0  0  0  0  0  0  0  0  0
   20.7528  -22.7649  -12.6234 O   0  0  0  0  0  0  0  0  0  0  0  0
   22.9204  -19.3540  -17.4962 C   0  0  0  0  0  0  0  0  0  0  0  0
   22.7010  -19.5927  -16.0087 C   0  0  0  0  0  0  0  0  0  0  0  0
   22.6118  -21.0808  -15.7639 C   0  0  2  0  0  0  0  0  0  0  0  0
   21.5455  -21.7402  -16.5719 C   0  0  0  0  0  0  0  0  0  0  0  0
   22.4637  -21.3535  -14.2749 C   0  0  2  0  0  0  0  0  0  0  0  0
   21.1782  -20.8827  -13.8264 N   0  0  0  0  0  0  0  0  0  0  0  0
   23.6142  -20.7300  -13.5877 C   0  0  0  0  0  0  0  0  0  0  0  0
   23.5120  -19.5205  -13.2321 O   0  0  0  0  0  0  0  0  0  0  0  0
   25.4924  -21.3218   -8.9793 C   0  0  0  0  0  0  0  0  0  0  0  0
   25.2422  -20.7704  -10.3444 C   0  0  0  0  0  0  0  0  0  0  0  0
   26.2933  -21.0438  -11.3597 C   0  0  2  0  0  0  0  0  0  0  0  0
   27.6546  -20.5056  -10.9023 C   0  0  0  0  0  0  0  0  0  0  0  0
   25.9789  -20.6289  -12.7499 C   0  0  2  0  0  0  0  0  0  0  0  0
   24.8364  -21.3702  -13.2871 N   0  0  0  0  0  0  0  0  0  0  0  0
   27.1549  -20.6829  -13.6170 C   0  0  0  0  0  0  0  0  0  0  0  0
   27.9934  -19.5622  -13.6849 O   0  0  0  0  0  0  0  0  0  0  0  0
   27.4700  -21.6769  -14.3123 O   0  0  0  0  0  0  0  0  0  0  0  0
  2  1  1  6
  2  4  1  0
  3  2  1  0
  4  6  1  0
  4  5  1  6
  6  7  2  0
  9  8  1  0
  9 10  1  0
 10 11  1  6
 12 10  1  0
 12 13  1  1
 13  6  1  0
 14 15  2  0
 14 12  1  0
 16 17  1  0
 17 18  1  0
 18 20  1  0
 18 19  1  1
 20 21  1  6
 21 14  1  0
 22 20  1  0
 22 23  1  0
 24 22  2  0
M  END
$$$$
