VII.pdb
     RDKit          3D

 24 23  0  0  1  0  0  0  0  0999 V2000
   26.5338  -20.4636  -17.0483 C   0  0  0  0  0  0  0  0  0  0  0  0
   27.9825  -20.2616  -16.6639 C   0  0  1  0  0  0  0  0  0  0  0  0
   28.4273  -18.8736  -16.9415 C   0  0  0  0  0  0  0  0  0  0  0  0
   28.2700  -20.7863  -15.2916 C   0  0  2  0  0  0  0  0  0  0  0  0
   27.9621  -22.2094  -15.3146 N   0  0  0  0  0  0  0  0  0  0  0  0
   27.5244  -20.1429  -14.1990 C   0  0  0  0  0  0  0  0  0  0  0  0
   27.7875  -18.9365  -13.9138 O   0  0  0  0  0  0  0  0  0  0  0  0
   22.3303  -21.4433  -13.0022 C   0  0  0  0  0  0  0  0  0  0  0  0
   23.8020  -21.4821  -12.6142 C   0  0  0  0  0  0  0  0  0  0  0  0
   24.3381  -20.0698  -12.6021 C   0  0  2  0  0  0  0  0  0  0  0  0
   23.9931  -19.3062  -13.8360 C   0  0  0  0  0  0  0  0  0  0  0  0
   25.8342  -20.0853  -12.3288 C   0  0  2  0  0  0  0  0  0  0  0  0
   26.5129  -20.7513  -13.4110 N   0  0  0  0  0  0  0  0  0  0  0  0
   26.0422  -20.7080  -11.0046 C   0  0  0  0  0  0  0  0  0  0  0  0
   26.3212  -21.9410  -10.9630 O   0  0  0  0  0  0  0  0  0  0  0  0
   28.9046  -18.7589   -6.9406 C   0  0  0  0  0  0  0  0  0  0  0  0
   28.1977  -19.7183   -7.8404 C   0  0  0  0  0  0  0  0  0  0  0  0
   26.7943  -20.0428   -7.4723 C   0  0  2  0  0  0  0  0  0  0  0  0
   26.7289  -20.7342   -6.1050 C   0  0  0  0  0  0  0  0  0  0  0  0
   26.0058  -20.7750   -8.4949 C   0  0  2  0  0  0  0  0  0  0  0  0
   25.9565  -20.0430   -9.7619 N   0  0  0  0  0  0  0  0  0  0  0  0
   24.6827  -21.1522   -8.0002 C   0  0  0  0  0  0  0  0  0  0  0  0
   23.5641  -20.4471   -8.4641 O   0  0  0  0  0  0  0  0  0  0  0  0
   24.4769  -22.0767   -7.1794 O   0  0  0  0  0  0  0  0  0  0  0  0
  2  1  1  1
  2  4  1  0
  3  2  1  0
  4  6  1  0
  4  5  1  6
  6  7  2  0
  9  8  1  0
  9 10  1  0
 10 11  1  6
 12 10  1  0
 12 13  1  6
 13  6  1  0
 14 15  2  0
 14 12  1  0
 16 17  1  0
 17 18  1  0
 18 20  1  0
 18 19  1  1
 20 21  1  6
 21 14  1  0
 22 20  1  0
 22 23  1  0
 24 22  2  0
M  END
$$$$
