VII.pdb
     RDKit          3D

 24 23  0  0  1  0  0  0  0  0999 V2000
   24.2295  -17.2505  -16.8081 C   0  0  0  0  0  0  0  0  0  0  0  0
   24.0675  -18.7435  -16.9866 C   0  0  1  0  0  0  0  0  0  0  0  0
   24.3713  -19.1580  -18.3784 C   0  0  0  0  0  0  0  0  0  0  0  0
   24.7596  -19.5094  -15.9024 C   0  0  2  0  0  0  0  0  0  0  0  0
   24.6720  -20.9175  -16.2631 N   0  0  0  0  0  0  0  0  0  0  0  0
   24.2190  -19.3177  -14.5478 C   0  0  0  0  0  0  0  0  0  0  0  0
   24.2114  -18.1489  -14.0580 O   0  0  0  0  0  0  0  0  0  0  0  0
   19.4626  -20.4715  -13.1560 C   0  0  0  0  0  0  0  0  0  0  0  0
   20.8792  -19.9300  -13.2904 C   0  0  0  0  0  0  0  0  0  0  0  0
   21.7622  -20.6248  -12.2806 C   0  0  2  0  0  0  0  0  0  0  0  0
   21.2268  -20.5493  -10.8905 C   0  0  0  0  0  0  0  0  0  0  0  0
   23.1843  -20.0955  -12.3841 C   0  0  2  0  0  0  0  0  0  0  0  0
   23.6901  -20.3350  -13.7116 N   0  0  0  0  0  0  0  0  0  0  0  0
   23.9773  -20.7255  -11.3075 C   0  0  0  0  0  0  0  0  0  0  0  0
   24.3360  -21.9291  -11.4578 O   0  0  0  0  0  0  0  0  0  0  0  0
   27.7891  -18.1097   -8.4706 C   0  0  0  0  0  0  0  0  0  0  0  0
   27.0888  -19.2511   -9.1315 C   0  0  0  0  0  0  0  0  0  0  0  0
   26.0334  -19.9212   -8.3269 C   0  0  2  0  0  0  0  0  0  0  0  0
   26.6344  -20.6161   -7.0990 C   0  0  0  0  0  0  0  0  0  0  0  0
   25.1192  -20.8216   -9.0735 C   0  0  2  0  0  0  0  0  0  0  0  0
   24.3773  -20.0979  -10.1075 N   0  0  0  0  0  0  0  0  0  0  0  0
   24.2534  -21.5879   -8.1786 C   0  0  0  0  0  0  0  0  0  0  0  0
   24.7762  -22.7231   -7.5447 O   0  0  0  0  0  0  0  0  0  0  0  0
   23.0596  -21.2945   -7.9346 O   0  0  0  0  0  0  0  0  0  0  0  0
  2  1  1  6
  2  4  1  0
  3  2  1  0
  4  6  1  0
  4  5  1  6
  6  7  2  0
  9  8  1  0
  9 10  1  0
 10 11  1  1
 12 10  1  0
 12 13  1  6
 13  6  1  0
 14 15  2  0
 14 12  1  0
 16 17  1  0
 17 18  1  0
 18 20  1  0
 18 19  1  1
 20 21  1  6
 21 14  1  0
 22 20  1  0
 22 23  1  0
 24 22  2  0
M  END
$$$$
