VII.pdb
     RDKit          3D

 24 23  0  0  1  0  0  0  0  0999 V2000
   21.1328  -20.4626  -13.1071 C   0  0  0  0  0  0  0  0  0  0  0  0
   22.2154  -21.1362  -12.2937 C   0  0  1  0  0  0  0  0  0  0  0  0
   23.0665  -22.0067  -13.1417 C   0  0  0  0  0  0  0  0  0  0  0  0
   22.9352  -20.1615  -11.4145 C   0  0  2  0  0  0  0  0  0  0  0  0
   23.3878  -19.0771  -12.2746 N   0  0  0  0  0  0  0  0  0  0  0  0
   24.0818  -20.7064  -10.6714 C   0  0  0  0  0  0  0  0  0  0  0  0
   23.8969  -21.7137   -9.9249 O   0  0  0  0  0  0  0  0  0  0  0  0
   28.8473  -21.5896  -12.7626 C   0  0  0  0  0  0  0  0  0  0  0  0
   27.5410  -21.5447  -11.9820 C   0  0  0  0  0  0  0  0  0  0  0  0
   27.7631  -20.7622  -10.7089 C   0  0  2  0  0  0  0  0  0  0  0  0
   28.9261  -21.2576   -9.9171 C   0  0  0  0  0  0  0  0  0  0  0  0
   26.4800  -20.7239   -9.8932 C   0  0  2  0  0  0  0  0  0  0  0  0
   25.4095  -20.2065  -10.7066 N   0  0  0  0  0  0  0  0  0  0  0  0
   26.7491  -19.9393   -8.6697 C   0  0  0  0  0  0  0  0  0  0  0  0
   26.5516  -18.6906   -8.7071 O   0  0  0  0  0  0  0  0  0  0  0  0
   28.1065  -20.3243   -2.5647 C   0  0  0  0  0  0  0  0  0  0  0  0
   27.6767  -19.5762   -3.7837 C   0  0  0  0  0  0  0  0  0  0  0  0
   27.5704  -20.3743   -5.0335 C   0  0  2  0  0  0  0  0  0  0  0  0
   28.6610  -21.4508   -5.0944 C   0  0  0  0  0  0  0  0  0  0  0  0
   27.4953  -19.5983   -6.2968 C   0  0  2  0  0  0  0  0  0  0  0  0
   27.2139  -20.4635   -7.4438 N   0  0  0  0  0  0  0  0  0  0  0  0
   28.6730  -18.7542   -6.4922 C   0  0  0  0  0  0  0  0  0  0  0  0
   29.6910  -19.2051   -7.3432 O   0  0  0  0  0  0  0  0  0  0  0  0
   28.8365  -17.6388   -5.9446 O   0  0  0  0  0  0  0  0  0  0  0  0
  2  1  1  6
  2  4  1  0
  3  2  1  0
  4  6  1  0
  4  5  1  6
  6  7  2  0
  9  8  1  0
  9 10  1  0
 10 11  1  1
 12 10  1  0
 12 13  1  6
 13  6  1  0
 14 15  2  0
 14 12  1  0
 16 17  1  0
 17 18  1  0
 18 20  1  0
 18 19  1  6
 20 21  1  6
 21 14  1  0
 22 20  1  0
 22 23  1  0
 24 22  2  0
M  END
$$$$
