VII.pdb
     RDKit          3D

 24 23  0  0  1  0  0  0  0  0999 V2000
   25.1343  -19.8252  -20.0173 C   0  0  0  0  0  0  0  0  0  0  0  0
   24.4766  -19.4652  -18.7039 C   0  0  1  0  0  0  0  0  0  0  0  0
   22.9975  -19.5198  -18.8069 C   0  0  0  0  0  0  0  0  0  0  0  0
   25.0875  -20.2076  -17.5564 C   0  0  2  0  0  0  0  0  0  0  0  0
   24.8757  -21.6250  -17.8146 N   0  0  0  0  0  0  0  0  0  0  0  0
   24.5552  -19.8683  -16.2277 C   0  0  0  0  0  0  0  0  0  0  0  0
   24.7295  -18.6930  -15.7870 O   0  0  0  0  0  0  0  0  0  0  0  0
   19.6741  -20.5876  -14.6162 C   0  0  0  0  0  0  0  0  0  0  0  0
   21.1061  -20.1110  -14.8157 C   0  0  0  0  0  0  0  0  0  0  0  0
   21.9943  -20.8099  -13.8132 C   0  0  2  0  0  0  0  0  0  0  0  0
   21.5494  -20.6107  -12.4036 C   0  0  0  0  0  0  0  0  0  0  0  0
   23.4427  -20.3985  -14.0281 C   0  0  2  0  0  0  0  0  0  0  0  0
   23.8469  -20.7460  -15.3664 N   0  0  0  0  0  0  0  0  0  0  0  0
   24.2514  -21.0303  -12.9643 C   0  0  0  0  0  0  0  0  0  0  0  0
   24.2229  -22.2908  -12.8633 O   0  0  0  0  0  0  0  0  0  0  0  0
   29.3435  -20.9294  -12.4258 C   0  0  0  0  0  0  0  0  0  0  0  0
   27.8885  -21.2446  -12.3092 C   0  0  0  0  0  0  0  0  0  0  0  0
   27.2343  -20.8390  -11.0373 C   0  0  2  0  0  0  0  0  0  0  0  0
   27.9569  -21.4453   -9.8281 C   0  0  0  0  0  0  0  0  0  0  0  0
   25.7672  -21.0529  -10.9629 C   0  0  2  0  0  0  0  0  0  0  0  0
   25.0654  -20.3457  -12.0356 N   0  0  0  0  0  0  0  0  0  0  0  0
   25.2360  -20.7502   -9.6348 C   0  0  0  0  0  0  0  0  0  0  0  0
   25.0170  -19.4106   -9.2865 O   0  0  0  0  0  0  0  0  0  0  0  0
   24.9576  -21.6184   -8.7749 O   0  0  0  0  0  0  0  0  0  0  0  0
  2  1  1  6
  2  4  1  0
  3  2  1  0
  4  6  1  0
  4  5  1  6
  6  7  2  0
  9  8  1  0
  9 10  1  0
 10 11  1  1
 12 10  1  0
 12 13  1  6
 13  6  1  0
 14 15  2  0
 14 12  1  0
 16 17  1  0
 17 18  1  0
 18 20  1  0
 18 19  1  1
 20 21  1  6
 21 14  1  0
 22 20  1  0
 22 23  1  0
 24 22  2  0
M  END
$$$$
