VII.pdb
     RDKit          3D

 24 23  0  0  1  0  0  0  0  0999 V2000
   20.9459  -20.6160  -13.4507 C   0  0  0  0  0  0  0  0  0  0  0  0
   22.0338  -21.2712  -12.6294 C   0  0  1  0  0  0  0  0  0  0  0  0
   23.0118  -21.9779  -13.4927 C   0  0  0  0  0  0  0  0  0  0  0  0
   22.6057  -20.3297  -11.6156 C   0  0  2  0  0  0  0  0  0  0  0  0
   22.9640  -19.1125  -12.3300 N   0  0  0  0  0  0  0  0  0  0  0  0
   23.7784  -20.8275  -10.8802 C   0  0  0  0  0  0  0  0  0  0  0  0
   23.6492  -21.8651  -10.1643 O   0  0  0  0  0  0  0  0  0  0  0  0
   28.4589  -21.4476  -13.1167 C   0  0  0  0  0  0  0  0  0  0  0  0
   27.1751  -21.4424  -12.2983 C   0  0  0  0  0  0  0  0  0  0  0  0
   27.4397  -20.7444  -10.9849 C   0  0  2  0  0  0  0  0  0  0  0  0
   28.6268  -21.2899  -10.2652 C   0  0  0  0  0  0  0  0  0  0  0  0
   26.1837  -20.7597  -10.1272 C   0  0  2  0  0  0  0  0  0  0  0  0
   25.0744  -20.2494  -10.8916 N   0  0  0  0  0  0  0  0  0  0  0  0
   26.4736  -20.0000   -8.8929 C   0  0  0  0  0  0  0  0  0  0  0  0
   26.3352  -18.7430   -8.9205 O   0  0  0  0  0  0  0  0  0  0  0  0
   28.6112  -20.2948   -3.0595 C   0  0  0  0  0  0  0  0  0  0  0  0
   27.6451  -19.7213   -4.0432 C   0  0  0  0  0  0  0  0  0  0  0  0
   27.4450  -20.5040   -5.2913 C   0  0  2  0  0  0  0  0  0  0  0  0
   28.5128  -21.5955   -5.4345 C   0  0  0  0  0  0  0  0  0  0  0  0
   27.2989  -19.7132   -6.5391 C   0  0  2  0  0  0  0  0  0  0  0  0
   26.8980  -20.5567   -7.6667 N   0  0  0  0  0  0  0  0  0  0  0  0
   28.4870  -18.9089   -6.8203 C   0  0  0  0  0  0  0  0  0  0  0  0
   28.6208  -17.6632   -6.1926 O   0  0  0  0  0  0  0  0  0  0  0  0
   29.4078  -19.2623   -7.5936 O   0  0  0  0  0  0  0  0  0  0  0  0
  2  1  1  6
  2  4  1  0
  3  2  1  0
  4  6  1  0
  4  5  1  6
  6  7  2  0
  9  8  1  0
  9 10  1  0
 10 11  1  1
 12 10  1  0
 12 13  1  6
 13  6  1  0
 14 15  2  0
 14 12  1  0
 16 17  1  0
 17 18  1  0
 18 20  1  0
 18 19  1  6
 20 21  1  6
 21 14  1  0
 22 20  1  0
 22 23  1  0
 24 22  2  0
M  END
$$$$
