AEA.pdb
     RDKit          3D

 20 19  0  0  1  0  0  0  0  0999 V2000
   28.1815  -21.0780  -14.2929 C   0  0  0  0  0  0  0  0  0  0  0  0
   27.2372  -21.2081  -15.4897 C   0  0  2  0  0  0  0  0  0  0  0  0
   27.9046  -20.8427  -16.7106 N   0  0  0  0  0  0  0  0  0  0  0  0
   26.0459  -20.3713  -15.3055 C   0  0  0  0  0  0  0  0  0  0  0  0
   26.1567  -19.1208  -15.2680 O   0  0  0  0  0  0  0  0  0  0  0  0
   24.7470  -20.9271  -15.1651 N   0  0  0  0  0  0  0  0  0  0  0  0
   23.5344  -20.0748  -15.1188 C   0  0  1  0  0  0  0  0  0  0  0  0
   22.9858  -20.1203  -16.5045 C   0  0  0  0  0  0  0  0  0  0  0  0
   23.1557  -18.8281  -17.2406 C   0  0  0  0  0  0  0  0  0  0  0  0
   23.4566  -19.1812  -18.6755 C   0  0  0  0  0  0  0  0  0  0  0  0
   23.4322  -20.3591  -19.0734 O   0  0  0  0  0  0  0  0  0  0  0  0
   22.6633  -20.5897  -14.0635 C   0  0  0  0  0  0  0  0  0  0  0  0
   22.5053  -21.8532  -13.9553 O   0  0  0  0  0  0  0  0  0  0  0  0
   23.7639  -18.1625  -19.5537 O   0  0  0  0  0  0  0  0  0  0  0  0
   20.6363  -19.3125  -11.1540 C   0  0  0  0  0  0  0  0  0  0  0  0
   21.1902  -20.3886  -12.0793 C   0  0  2  0  0  0  0  0  0  0  0  0
   21.9606  -19.7791  -13.1187 N   0  0  0  0  0  0  0  0  0  0  0  0
   20.0419  -21.1605  -12.6231 C   0  0  0  0  0  0  0  0  0  0  0  0
   19.3528  -22.1012  -11.8933 O   0  0  0  0  0  0  0  0  0  0  0  0
   19.6551  -20.9617  -13.8207 O   0  0  0  0  0  0  0  0  0  0  0  0
  2  1  1  1
  2  4  1  0
  3  2  1  0
  4  6  1  0
  4  5  2  0
  6  7  1  0
  7 12  1  0
  7  8  1  6
  9 10  1  0
  9  8  1  0
 10 14  1  0
 11 10  2  0
 12 17  1  0
 12 13  2  0
 16 15  1  1
 16 18  1  0
 17 16  1  0
 18 19  1  0
 20 18  2  0
M  END
$$$$
