AEA.pdb
     RDKit          3D

 20 19  0  0  1  0  0  0  0  0999 V2000
   18.8815  -11.7985  -15.0977 C   0  0  0  0  0  0  0  0  0  0  0  0
   17.6979  -10.8785  -15.4039 C   0  0  2  0  0  0  0  0  0  0  0  0
   16.8808  -11.4273  -16.4531 N   0  0  0  0  0  0  0  0  0  0  0  0
   18.1643   -9.5408  -15.7862 C   0  0  0  0  0  0  0  0  0  0  0  0
   18.7453   -9.3691  -16.8864 O   0  0  0  0  0  0  0  0  0  0  0  0
   17.9828   -8.4094  -14.9478 N   0  0  0  0  0  0  0  0  0  0  0  0
   18.4811   -7.0663  -15.3308 C   0  0  1  0  0  0  0  0  0  0  0  0
   17.3423   -6.1455  -15.0509 C   0  0  0  0  0  0  0  0  0  0  0  0
   16.4616   -5.9301  -16.2420 C   0  0  0  0  0  0  0  0  0  0  0  0
   16.7794   -4.5557  -16.7750 C   0  0  0  0  0  0  0  0  0  0  0  0
   16.8130   -4.3245  -17.9965 O   0  0  0  0  0  0  0  0  0  0  0  0
   19.7125   -6.8141  -14.5840 C   0  0  0  0  0  0  0  0  0  0  0  0
   19.7548   -7.1169  -13.3432 O   0  0  0  0  0  0  0  0  0  0  0  0
   17.0360   -3.5431  -15.8739 O   0  0  0  0  0  0  0  0  0  0  0  0
   23.3012   -6.0061  -15.2607 C   0  0  0  0  0  0  0  0  0  0  0  0
   22.0886   -6.1464  -14.3489 C   0  0  2  0  0  0  0  0  0  0  0  0
   20.9014   -6.2478  -15.1399 N   0  0  0  0  0  0  0  0  0  0  0  0
   22.0532   -4.9638  -13.4487 C   0  0  0  0  0  0  0  0  0  0  0  0
   22.8279   -4.8544  -12.3172 O   0  0  0  0  0  0  0  0  0  0  0  0
   21.2769   -3.9889  -13.7136 O   0  0  0  0  0  0  0  0  0  0  0  0
  2  1  1  6
  2  4  1  0
  3  2  1  0
  4  6  1  0
  4  5  2  0
  6  7  1  0
  7 12  1  0
  7  8  1  1
  9 10  1  0
  9  8  1  0
 10 14  1  0
 11 10  2  0
 12 17  1  0
 12 13  2  0
 16 15  1  6
 16 18  1  0
 17 16  1  0
 18 19  1  0
 20 18  2  0
M  END
$$$$
