AEA.pdb
     RDKit          3D

 20 19  0  0  1  0  0  0  0  0999 V2000
   17.4976  -12.3597  -17.3956 C   0  0  0  0  0  0  0  0  0  0  0  0
   18.6935  -11.9393  -16.5387 C   0  0  2  0  0  0  0  0  0  0  0  0
   18.4469  -12.2099  -15.1475 N   0  0  0  0  0  0  0  0  0  0  0  0
   18.9893  -10.5139  -16.7224 C   0  0  0  0  0  0  0  0  0  0  0  0
   19.3456  -10.0866  -17.8485 O   0  0  0  0  0  0  0  0  0  0  0  0
   18.8877   -9.5783  -15.6593 N   0  0  0  0  0  0  0  0  0  0  0  0
   18.9624   -8.1164  -15.8965 C   0  0  1  0  0  0  0  0  0  0  0  0
   17.6487   -7.5889  -15.4283 C   0  0  0  0  0  0  0  0  0  0  0  0
   17.5780   -6.0940  -15.4571 C   0  0  0  0  0  0  0  0  0  0  0  0
   16.1859   -5.7158  -15.0178 C   0  0  0  0  0  0  0  0  0  0  0  0
   15.2203   -5.7719  -15.7994 O   0  0  0  0  0  0  0  0  0  0  0  0
   20.1450   -7.6086  -15.2029 C   0  0  0  0  0  0  0  0  0  0  0  0
   20.3475   -7.9587  -13.9907 O   0  0  0  0  0  0  0  0  0  0  0  0
   15.9964   -5.3002  -13.7159 O   0  0  0  0  0  0  0  0  0  0  0  0
   23.2954   -5.7054  -15.9501 C   0  0  0  0  0  0  0  0  0  0  0  0
   22.2545   -6.3184  -15.0216 C   0  0  2  0  0  0  0  0  0  0  0  0
   21.1179   -6.7362  -15.7824 N   0  0  0  0  0  0  0  0  0  0  0  0
   21.8925   -5.2985  -14.0025 C   0  0  0  0  0  0  0  0  0  0  0  0
   22.6479   -5.0541  -12.8790 O   0  0  0  0  0  0  0  0  0  0  0  0
   20.8362   -4.6016  -14.1510 O   0  0  0  0  0  0  0  0  0  0  0  0
  2  1  1  6
  2  4  1  0
  3  2  1  0
  4  6  1  0
  4  5  2  0
  6  7  1  0
  7 12  1  0
  7  8  1  1
  9 10  1  0
  9  8  1  0
 10 14  1  0
 11 10  2  0
 12 17  1  0
 12 13  2  0
 16 15  1  6
 16 18  1  0
 17 16  1  0
 18 19  1  0
 20 18  2  0
M  END
$$$$
