AEA.pdb
     RDKit          3D

 20 19  0  0  1  0  0  0  0  0999 V2000
   33.2763  -33.7743   -4.7433 C   0  0  0  0  0  0  0  0  0  0  0  0
   32.9108  -35.0588   -5.4901 C   0  0  2  0  0  0  0  0  0  0  0  0
   33.4013  -35.0223   -6.8419 N   0  0  0  0  0  0  0  0  0  0  0  0
   31.4576  -35.2622   -5.4945 C   0  0  0  0  0  0  0  0  0  0  0  0
   30.7643  -34.8179   -6.4429 O   0  0  0  0  0  0  0  0  0  0  0  0
   30.7887  -35.9542   -4.4507 N   0  0  0  0  0  0  0  0  0  0  0  0
   29.3183  -36.1464   -4.4589 C   0  0  1  0  0  0  0  0  0  0  0  0
   29.1008  -37.4373   -3.7451 C   0  0  0  0  0  0  0  0  0  0  0  0
   27.6523  -37.7864   -3.6020 C   0  0  0  0  0  0  0  0  0  0  0  0
   27.3874  -38.9368   -4.5404 C   0  0  0  0  0  0  0  0  0  0  0  0
   28.0294  -39.9991   -4.4632 O   0  0  0  0  0  0  0  0  0  0  0  0
   28.7072  -34.9642   -3.8537 C   0  0  0  0  0  0  0  0  0  0  0  0
   29.2044  -34.4972   -2.7730 O   0  0  0  0  0  0  0  0  0  0  0  0
   26.4074  -38.7911   -5.5004 O   0  0  0  0  0  0  0  0  0  0  0  0
   25.8467  -32.5857   -4.4637 C   0  0  0  0  0  0  0  0  0  0  0  0
   26.9848  -33.1921   -3.6524 C   0  0  2  0  0  0  0  0  0  0  0  0
   27.5764  -34.2690   -4.3842 N   0  0  0  0  0  0  0  0  0  0  0  0
   26.4278  -33.6483   -2.3518 C   0  0  0  0  0  0  0  0  0  0  0  0
   26.0664  -32.7863   -1.3425 O   0  0  0  0  0  0  0  0  0  0  0  0
   26.2660  -34.8932   -2.1336 O   0  0  0  0  0  0  0  0  0  0  0  0
  2  1  1  6
  2  4  1  0
  3  2  1  0
  4  6  1  0
  4  5  2  0
  6  7  1  0
  7 12  1  0
  7  8  1  1
  9 10  1  0
  9  8  1  0
 10 14  1  0
 11 10  2  0
 12 17  1  0
 12 13  2  0
 16 15  1  6
 16 18  1  0
 17 16  1  0
 18 19  1  0
 20 18  2  0
M  END
$$$$
