AEA.pdb
     RDKit          3D

 20 19  0  0  1  0  0  0  0  0999 V2000
   16.7437  -11.6380  -10.7582 C   0  0  0  0  0  0  0  0  0  0  0  0
   15.6549  -10.6421  -10.3532 C   0  0  2  0  0  0  0  0  0  0  0  0
   14.3913  -10.9975  -10.9420 N   0  0  0  0  0  0  0  0  0  0  0  0
   16.0226   -9.2788  -10.7522 C   0  0  0  0  0  0  0  0  0  0  0  0
   15.8896   -8.9170  -11.9476 O   0  0  0  0  0  0  0  0  0  0  0  0
   16.5327   -8.3322   -9.8251 N   0  0  0  0  0  0  0  0  0  0  0  0
   16.9351   -6.9679  -10.2444 C   0  0  1  0  0  0  0  0  0  0  0  0
   16.4193   -6.0732   -9.1689 C   0  0  0  0  0  0  0  0  0  0  0  0
   14.9560   -5.7873   -9.3016 C   0  0  0  0  0  0  0  0  0  0  0  0
   14.6046   -4.8042   -8.2134 C   0  0  0  0  0  0  0  0  0  0  0  0
   13.7072   -5.0439   -7.3865 O   0  0  0  0  0  0  0  0  0  0  0  0
   18.3836   -6.9680  -10.4433 C   0  0  0  0  0  0  0  0  0  0  0  0
   19.1456   -7.1330   -9.4307 O   0  0  0  0  0  0  0  0  0  0  0  0
   15.3040   -3.6168   -8.1477 O   0  0  0  0  0  0  0  0  0  0  0  0
   20.8820   -7.6957  -12.9739 C   0  0  0  0  0  0  0  0  0  0  0  0
   20.4602   -6.8329  -11.7911 C   0  0  2  0  0  0  0  0  0  0  0  0
   19.0331   -6.7989  -11.7054 N   0  0  0  0  0  0  0  0  0  0  0  0
   21.0343   -5.4756  -11.9865 C   0  0  0  0  0  0  0  0  0  0  0  0
   22.3688   -5.1896  -11.8145 O   0  0  0  0  0  0  0  0  0  0  0  0
   20.2766   -4.5107  -12.3305 O   0  0  0  0  0  0  0  0  0  0  0  0
  2  1  1  6
  2  4  1  0
  3  2  1  0
  4  6  1  0
  4  5  2  0
  6  7  1  0
  7 12  1  0
  7  8  1  1
  9 10  1  0
  9  8  1  0
 10 14  1  0
 11 10  2  0
 12 17  1  0
 12 13  2  0
 16 15  1  6
 16 18  1  0
 17 16  1  0
 18 19  1  0
 20 18  2  0
M  END
$$$$
