AEA.pdb
     RDKit          3D

 20 19  0  0  1  0  0  0  0  0999 V2000
   24.8872  -11.2465  -15.4387 C   0  0  0  0  0  0  0  0  0  0  0  0
   23.4272  -11.6481  -15.6586 C   0  0  2  0  0  0  0  0  0  0  0  0
   23.3213  -12.6535  -16.6820 N   0  0  0  0  0  0  0  0  0  0  0  0
   22.6161  -10.4810  -16.0234 C   0  0  0  0  0  0  0  0  0  0  0  0
   22.5616  -10.1036  -17.2201 O   0  0  0  0  0  0  0  0  0  0  0  0
   21.8753   -9.7455  -15.0611 N   0  0  0  0  0  0  0  0  0  0  0  0
   21.0830   -8.5488  -15.4343 C   0  0  1  0  0  0  0  0  0  0  0  0
   19.6983   -8.8514  -14.9714 C   0  0  0  0  0  0  0  0  0  0  0  0
   18.9449   -9.7276  -15.9228 C   0  0  0  0  0  0  0  0  0  0  0  0
   17.5435   -9.8545  -15.3805 C   0  0  0  0  0  0  0  0  0  0  0  0
   16.5937   -9.2276  -15.8820 O   0  0  0  0  0  0  0  0  0  0  0  0
   21.7231   -7.3805  -14.8321 C   0  0  0  0  0  0  0  0  0  0  0  0
   22.1122   -7.4478  -13.6166 O   0  0  0  0  0  0  0  0  0  0  0  0
   17.3273  -10.6891  -14.3035 O   0  0  0  0  0  0  0  0  0  0  0  0
   22.9540   -3.9627  -15.8087 C   0  0  0  0  0  0  0  0  0  0  0  0
   22.5687   -5.0498  -14.8132 C   0  0  2  0  0  0  0  0  0  0  0  0
   21.9588   -6.1421  -15.5061 N   0  0  0  0  0  0  0  0  0  0  0  0
   21.6492   -4.4486  -13.8116 C   0  0  0  0  0  0  0  0  0  0  0  0
   22.0831   -3.6859  -12.7522 O   0  0  0  0  0  0  0  0  0  0  0  0
   20.3926   -4.6322  -13.9147 O   0  0  0  0  0  0  0  0  0  0  0  0
  2  1  1  6
  2  4  1  0
  3  2  1  0
  4  6  1  0
  4  5  2  0
  6  7  1  0
  7 12  1  0
  7  8  1  1
  9 10  1  0
  9  8  1  0
 10 14  1  0
 11 10  2  0
 12 17  1  0
 12 13  2  0
 16 15  1  6
 16 18  1  0
 17 16  1  0
 18 19  1  0
 20 18  2  0
M  END
$$$$
