AEA.pdb
     RDKit          3D

 20 19  0  0  1  0  0  0  0  0999 V2000
   27.6662  -24.2054  -17.7661 C   0  0  0  0  0  0  0  0  0  0  0  0
   28.2422  -25.2745  -16.8354 C   0  0  2  0  0  0  0  0  0  0  0  0
   29.6755  -25.1739  -16.7651 N   0  0  0  0  0  0  0  0  0  0  0  0
   27.8603  -26.6175  -17.2868 C   0  0  0  0  0  0  0  0  0  0  0  0
   26.6483  -26.9437  -17.3318 O   0  0  0  0  0  0  0  0  0  0  0  0
   28.8228  -27.5832  -17.6829 N   0  0  0  0  0  0  0  0  0  0  0  0
   28.4255  -28.8852  -18.2711 C   0  0  1  0  0  0  0  0  0  0  0  0
   28.8807  -28.8152  -19.6892 C   0  0  0  0  0  0  0  0  0  0  0  0
   27.8733  -28.1758  -20.5930 C   0  0  0  0  0  0  0  0  0  0  0  0
   26.9364  -29.2687  -21.0423 C   0  0  0  0  0  0  0  0  0  0  0  0
   27.3288  -30.2074  -21.7573 O   0  0  0  0  0  0  0  0  0  0  0  0
   29.0164  -29.9454  -17.4560 C   0  0  0  0  0  0  0  0  0  0  0  0
   30.1301  -29.7248  -16.8693 O   0  0  0  0  0  0  0  0  0  0  0  0
   25.6174  -29.2110  -20.6420 O   0  0  0  0  0  0  0  0  0  0  0  0
   28.1556  -33.3843  -16.1859 C   0  0  0  0  0  0  0  0  0  0  0  0
   29.0678  -32.1800  -16.3830 C   0  0  2  0  0  0  0  0  0  0  0  0
   28.4370  -31.2363  -17.2529 N   0  0  0  0  0  0  0  0  0  0  0  0
   30.3571  -32.6681  -16.9393 C   0  0  0  0  0  0  0  0  0  0  0  0
   31.3050  -33.3198  -16.1850 O   0  0  0  0  0  0  0  0  0  0  0  0
   30.6239  -32.4879  -18.1721 O   0  0  0  0  0  0  0  0  0  0  0  0
  2  1  1  6
  2  4  1  0
  3  2  1  0
  4  6  1  0
  4  5  2  0
  6  7  1  0
  7 12  1  0
  7  8  1  6
  9 10  1  0
  9  8  1  0
 10 14  1  0
 11 10  2  0
 12 17  1  0
 12 13  2  0
 16 15  1  6
 16 18  1  0
 17 16  1  0
 18 19  1  0
 20 18  2  0
M  END
$$$$
