AEA.pdb
     RDKit          3D

 20 19  0  0  1  0  0  0  0  0999 V2000
   15.4966  -10.0282  -17.6159 C   0  0  0  0  0  0  0  0  0  0  0  0
   15.9603   -9.4502  -16.2772 C   0  0  2  0  0  0  0  0  0  0  0  0
   14.9260   -8.6482  -15.6800 N   0  0  0  0  0  0  0  0  0  0  0  0
   17.1747   -8.6451  -16.4510 C   0  0  0  0  0  0  0  0  0  0  0  0
   18.2175   -9.1730  -16.9107 O   0  0  0  0  0  0  0  0  0  0  0  0
   17.2215   -7.2665  -16.1146 N   0  0  0  0  0  0  0  0  0  0  0  0
   18.4085   -6.4299  -16.4145 C   0  0  1  0  0  0  0  0  0  0  0  0
   17.8477   -5.1254  -16.8693 C   0  0  0  0  0  0  0  0  0  0  0  0
   18.0830   -4.8665  -18.3247 C   0  0  0  0  0  0  0  0  0  0  0  0
   17.5187   -3.4995  -18.6201 C   0  0  0  0  0  0  0  0  0  0  0  0
   16.4476   -3.3581  -19.2360 O   0  0  0  0  0  0  0  0  0  0  0  0
   19.2441   -6.3894  -15.2154 C   0  0  0  0  0  0  0  0  0  0  0  0
   18.6985   -6.1196  -14.0917 O   0  0  0  0  0  0  0  0  0  0  0  0
   18.2188   -2.3912  -18.1901 O   0  0  0  0  0  0  0  0  0  0  0  0
   22.4443   -7.7199  -13.9925 C   0  0  0  0  0  0  0  0  0  0  0  0
   21.3624   -6.6479  -13.9531 C   0  0  2  0  0  0  0  0  0  0  0  0
   20.6521   -6.6358  -15.1943 N   0  0  0  0  0  0  0  0  0  0  0  0
   22.0203   -5.3430  -13.6805 C   0  0  0  0  0  0  0  0  0  0  0  0
   22.4932   -4.9817  -12.4402 O   0  0  0  0  0  0  0  0  0  0  0  0
   22.1672   -4.4983  -14.6230 O   0  0  0  0  0  0  0  0  0  0  0  0
  2  1  1  6
  2  4  1  0
  3  2  1  0
  4  6  1  0
  4  5  2  0
  6  7  1  0
  7 12  1  0
  7  8  1  1
  9 10  1  0
  9  8  1  0
 10 14  1  0
 11 10  2  0
 12 17  1  0
 12 13  2  0
 16 15  1  6
 16 18  1  0
 17 16  1  0
 18 19  1  0
 20 18  2  0
M  END
$$$$
