SMY.pdb
     RDKit          3D

 27 27  0  0  1  0  0  0  0  0999 V2000
   10.3086  -20.1217   19.9253 O   0  0  0  0  0  0  0  0  0  0  0  0
    9.1066  -19.7057   19.4057 C   0  0  0  0  0  0  0  0  0  0  0  0
    9.1779  -18.3924   18.6769 C   0  0  2  0  0  0  0  0  0  0  0  0
   10.1524  -18.3711   17.6351 N   0  0  0  0  0  0  0  0  0  0  0  0
    9.5042  -17.3346   19.6770 C   0  0  0  0  0  0  0  0  0  0  0  0
   10.7142  -17.0005   19.7388 O   0  0  0  0  0  0  0  0  0  0  0  0
    7.1440  -11.6367   19.8329 C   0  0  0  0  0  0  0  0  0  0  0  0
    7.8088  -12.7786   21.0673 S   0  0  0  0  0  0  0  0  0  0  0  0
    6.9030  -14.3831   21.0104 C   0  0  0  0  0  0  0  0  0  0  0  0
    7.4603  -15.2238   22.1353 C   0  0  0  0  0  0  0  0  0  0  0  0
    8.7038  -15.9189   21.6254 C   0  0  2  0  0  0  0  0  0  0  0  0
    8.5219  -16.7584   20.4884 N   0  0  0  0  0  0  0  0  0  0  0  0
    9.5963  -16.4578   22.6412 C   0  0  0  0  0  0  0  0  0  0  0  0
    9.3145  -17.5923   23.1756 O   0  0  0  0  0  0  0  0  0  0  0  0
   10.4681  -15.0977   30.8808 O   0  0  0  0  0  0  0  0  0  0  0  0
   10.3260  -15.1521   29.5050 C   0  0  0  0  0  0  0  0  0  0  0  0
   10.3449  -13.9966   28.7573 C   0  0  0  0  0  0  0  0  0  0  0  0
   10.2041  -14.0432   27.3877 C   0  0  0  0  0  0  0  0  0  0  0  0
   10.0368  -15.2418   26.6882 C   0  0  0  0  0  0  0  0  0  0  0  0
    9.8805  -15.2437   25.2194 C   0  0  0  0  0  0  0  0  0  0  0  0
   11.0903  -15.7905   24.4908 C   0  0  2  0  0  0  0  0  0  0  0  0
   10.7624  -15.7847   23.0642 N   0  0  0  0  0  0  0  0  0  0  0  0
   11.4988  -17.1153   24.9502 C   0  0  0  0  0  0  0  0  0  0  0  0
   12.5859  -17.2343   25.8017 O   0  0  0  0  0  0  0  0  0  0  0  0
   10.0202  -16.3936   27.4570 C   0  0  0  0  0  0  0  0  0  0  0  0
   10.1616  -16.3429   28.8275 C   0  0  0  0  0  0  0  0  0  0  0  0
   10.9228  -18.1841   24.6217 O   0  0  0  0  0  0  0  0  0  0  0  0
  2  1  1  0
  3  2  1  0
  3  4  1  6
  5  6  2  0
  5  3  1  0
  7  8  1  0
  8  9  1  0
  9 10  1  0
 11 10  1  1
 11 12  1  0
 12  5  1  0
 13 14  2  0
 13 11  1  0
 16 15  1  0
 17 16  2  0
 18 17  1  0
 19 18  2  0
 19 25  1  0
 20 19  1  0
 21 20  1  1
 21 22  1  0
 22 13  1  0
 23 21  1  0
 24 23  1  0
 25 26  2  0
 26 16  1  0
 27 23  2  0
M  END
$$$$
