SMY.pdb
     RDKit          3D

 27 27  0  0  1  0  0  0  0  0999 V2000
    8.4943  -16.9311   19.3732 O   0  0  0  0  0  0  0  0  0  0  0  0
    7.3343  -16.2031   19.2634 C   0  0  0  0  0  0  0  0  0  0  0  0
    7.5140  -14.7286   19.4973 C   0  0  2  0  0  0  0  0  0  0  0  0
    8.2797  -14.0800   18.4832 N   0  0  0  0  0  0  0  0  0  0  0  0
    8.1953  -14.5568   20.8133 C   0  0  0  0  0  0  0  0  0  0  0  0
    9.4471  -14.4549   20.7674 O   0  0  0  0  0  0  0  0  0  0  0  0
    5.4470  -12.2129   26.8295 C   0  0  0  0  0  0  0  0  0  0  0  0
    6.8072  -11.6554   25.7765 S   0  0  0  0  0  0  0  0  0  0  0  0
    6.7345  -12.4947   24.1369 C   0  0  0  0  0  0  0  0  0  0  0  0
    7.0220  -13.9552   24.3959 C   0  0  0  0  0  0  0  0  0  0  0  0
    7.9952  -14.4326   23.3403 C   0  0  2  0  0  0  0  0  0  0  0  0
    7.4801  -14.5131   22.0141 N   0  0  0  0  0  0  0  0  0  0  0  0
    8.8613  -15.5381   23.7231 C   0  0  0  0  0  0  0  0  0  0  0  0
    8.6748  -16.6886   23.1812 O   0  0  0  0  0  0  0  0  0  0  0  0
   10.2368  -15.1514   31.1544 O   0  0  0  0  0  0  0  0  0  0  0  0
   10.6512  -15.3854   29.8546 C   0  0  0  0  0  0  0  0  0  0  0  0
   10.5385  -14.3998   28.9003 C   0  0  0  0  0  0  0  0  0  0  0  0
   10.9490  -14.6256   27.6048 C   0  0  0  0  0  0  0  0  0  0  0  0
   11.4936  -15.8440   27.1888 C   0  0  0  0  0  0  0  0  0  0  0  0
   11.9123  -16.0448   25.7866 C   0  0  0  0  0  0  0  0  0  0  0  0
   10.7925  -16.5373   24.8938 C   0  0  2  0  0  0  0  0  0  0  0  0
    9.9012  -15.3985   24.6671 N   0  0  0  0  0  0  0  0  0  0  0  0
   10.0771  -17.6892   25.4364 C   0  0  0  0  0  0  0  0  0  0  0  0
    8.7408  -17.5592   25.7803 O   0  0  0  0  0  0  0  0  0  0  0  0
   11.5991  -16.8232   28.1625 C   0  0  0  0  0  0  0  0  0  0  0  0
   11.1873  -16.5935   29.4580 C   0  0  0  0  0  0  0  0  0  0  0  0
   10.5972  -18.8196   25.6200 O   0  0  0  0  0  0  0  0  0  0  0  0
  2  1  1  0
  3  2  1  0
  3  4  1  6
  5  6  2  0
  5  3  1  0
  7  8  1  0
  8  9  1  0
  9 10  1  0
 11 10  1  1
 11 12  1  0
 12  5  1  0
 13 14  2  0
 13 11  1  0
 16 15  1  0
 17 16  2  0
 18 17  1  0
 19 18  2  0
 19 25  1  0
 20 19  1  0
 21 20  1  1
 21 22  1  0
 22 13  1  0
 23 21  1  0
 24 23  1  0
 25 26  2  0
 26 16  1  0
 27 23  2  0
M  END
$$$$
