SMY.pdb
     RDKit          3D

 27 27  0  0  1  0  0  0  0  0999 V2000
    8.4058  -16.5341   19.4562 O   0  0  0  0  0  0  0  0  0  0  0  0
    8.3864  -15.2813   18.8923 C   0  0  0  0  0  0  0  0  0  0  0  0
    7.5501  -14.2849   19.6464 C   0  0  2  0  0  0  0  0  0  0  0  0
    7.4928  -13.0023   19.0242 N   0  0  0  0  0  0  0  0  0  0  0  0
    8.1330  -14.1432   21.0123 C   0  0  0  0  0  0  0  0  0  0  0  0
    9.1512  -13.4110   21.0948 O   0  0  0  0  0  0  0  0  0  0  0  0
    6.1080  -11.0309   26.1473 C   0  0  0  0  0  0  0  0  0  0  0  0
    6.9308  -12.6343   25.9996 S   0  0  0  0  0  0  0  0  0  0  0  0
    6.2363  -13.5832   24.5800 C   0  0  0  0  0  0  0  0  0  0  0  0
    6.9882  -14.8930   24.5381 C   0  0  0  0  0  0  0  0  0  0  0  0
    8.0506  -14.7861   23.4661 C   0  0  2  0  0  0  0  0  0  0  0  0
    7.5767  -14.7865   22.1222 N   0  0  0  0  0  0  0  0  0  0  0  0
    9.2587  -15.5684   23.6837 C   0  0  0  0  0  0  0  0  0  0  0  0
    9.4917  -16.5752   22.9196 O   0  0  0  0  0  0  0  0  0  0  0  0
   10.2241  -16.1640   31.1060 O   0  0  0  0  0  0  0  0  0  0  0  0
   10.7140  -15.9666   29.8266 C   0  0  0  0  0  0  0  0  0  0  0  0
   11.4750  -16.9372   29.2155 C   0  0  0  0  0  0  0  0  0  0  0  0
   11.9658  -16.7477   27.9423 C   0  0  0  0  0  0  0  0  0  0  0  0
   11.7260  -15.5823   27.2085 C   0  0  0  0  0  0  0  0  0  0  0  0
   12.2800  -15.4183   25.8491 C   0  0  0  0  0  0  0  0  0  0  0  0
   11.4214  -16.0510   24.7739 C   0  0  2  0  0  0  0  0  0  0  0  0
   10.1883  -15.2655   24.7017 N   0  0  0  0  0  0  0  0  0  0  0  0
   11.1517  -17.4683   25.0011 C   0  0  0  0  0  0  0  0  0  0  0  0
    9.8620  -17.8748   25.3048 O   0  0  0  0  0  0  0  0  0  0  0  0
   10.9587  -14.6174   27.8394 C   0  0  0  0  0  0  0  0  0  0  0  0
   10.4692  -14.8108   29.1137 C   0  0  0  0  0  0  0  0  0  0  0  0
   12.0257  -18.3708   24.9406 O   0  0  0  0  0  0  0  0  0  0  0  0
  2  1  1  0
  3  2  1  0
  3  4  1  6
  5  6  2  0
  5  3  1  0
  7  8  1  0
  8  9  1  0
  9 10  1  0
 11 10  1  1
 11 12  1  0
 12  5  1  0
 13 14  2  0
 13 11  1  0
 16 15  1  0
 17 16  2  0
 18 17  1  0
 19 18  2  0
 19 25  1  0
 20 19  1  0
 21 20  1  1
 21 22  1  0
 22 13  1  0
 23 21  1  0
 24 23  1  0
 25 26  2  0
 26 16  1  0
 27 23  2  0
M  END
$$$$
