SMY.pdb
     RDKit          3D

 27 27  0  0  1  0  0  0  0  0999 V2000
   10.4413  -18.5247   21.9385 O   0  0  0  0  0  0  0  0  0  0  0  0
    9.3448  -17.8637   21.4401 C   0  0  0  0  0  0  0  0  0  0  0  0
    9.6064  -16.4254   21.0882 C   0  0  2  0  0  0  0  0  0  0  0  0
   10.7689  -16.2382   20.2826 N   0  0  0  0  0  0  0  0  0  0  0  0
    9.7644  -15.6669   22.3631 C   0  0  0  0  0  0  0  0  0  0  0  0
   10.9480  -15.4925   22.7480 O   0  0  0  0  0  0  0  0  0  0  0  0
    6.0622  -11.5435   27.9703 C   0  0  0  0  0  0  0  0  0  0  0  0
    5.8693  -12.7535   26.6404 S   0  0  0  0  0  0  0  0  0  0  0  0
    7.5122  -13.4219   26.1383 C   0  0  0  0  0  0  0  0  0  0  0  0
    7.2623  -14.2979   24.9329 C   0  0  0  0  0  0  0  0  0  0  0  0
    8.5982  -14.8216   24.4527 C   0  0  2  0  0  0  0  0  0  0  0  0
    8.6623  -15.1854   23.0764 N   0  0  0  0  0  0  0  0  0  0  0  0
    9.2885  -15.7325   25.3540 C   0  0  0  0  0  0  0  0  0  0  0  0
    9.8129  -16.8027   24.8726 O   0  0  0  0  0  0  0  0  0  0  0  0
   14.5703  -18.9699   23.2877 O   0  0  0  0  0  0  0  0  0  0  0  0
   13.8828  -18.1058   24.1222 C   0  0  0  0  0  0  0  0  0  0  0  0
   14.2435  -16.7797   24.2004 C   0  0  0  0  0  0  0  0  0  0  0  0
   13.5636  -15.9140   25.0287 C   0  0  0  0  0  0  0  0  0  0  0  0
   12.4885  -16.3209   25.8240 C   0  0  0  0  0  0  0  0  0  0  0  0
   11.7941  -15.3596   26.7047 C   0  0  0  0  0  0  0  0  0  0  0  0
   10.6082  -15.9620   27.4288 C   0  0  2  0  0  0  0  0  0  0  0  0
    9.4071  -15.4882   26.7390 N   0  0  0  0  0  0  0  0  0  0  0  0
   10.5755  -15.6505   28.8553 C   0  0  0  0  0  0  0  0  0  0  0  0
    9.7138  -14.6681   29.3170 O   0  0  0  0  0  0  0  0  0  0  0  0
   12.1402  -17.6581   25.7322 C   0  0  0  0  0  0  0  0  0  0  0  0
   12.8229  -18.5215   24.9019 C   0  0  0  0  0  0  0  0  0  0  0  0
   11.2901  -16.2220   29.7182 O   0  0  0  0  0  0  0  0  0  0  0  0
  2  1  1  0
  3  2  1  0
  3  4  1  6
  5  6  2  0
  5  3  1  0
  7  8  1  0
  8  9  1  0
  9 10  1  0
 11 10  1  1
 11 12  1  0
 12  5  1  0
 13 14  2  0
 13 11  1  0
 16 15  1  0
 17 16  2  0
 18 17  1  0
 19 18  2  0
 19 25  1  0
 20 19  1  0
 21 20  1  6
 21 22  1  0
 22 13  1  0
 23 21  1  0
 24 23  1  0
 25 26  2  0
 26 16  1  0
 27 23  2  0
M  END
$$$$
