SMY.pdb
     RDKit          3D

 27 27  0  0  1  0  0  0  0  0999 V2000
    9.2349  -18.8143   20.3411 O   0  0  0  0  0  0  0  0  0  0  0  0
    8.2129  -18.0216   19.8776 C   0  0  0  0  0  0  0  0  0  0  0  0
    8.6281  -16.6108   19.5643 C   0  0  2  0  0  0  0  0  0  0  0  0
    9.7422  -16.5284   18.6769 N   0  0  0  0  0  0  0  0  0  0  0  0
    8.9748  -15.9422   20.8520 C   0  0  0  0  0  0  0  0  0  0  0  0
   10.2026  -15.8598   21.1076 O   0  0  0  0  0  0  0  0  0  0  0  0
    6.3034  -11.4296   26.8154 C   0  0  0  0  0  0  0  0  0  0  0  0
    5.9000  -12.4097   25.3503 S   0  0  0  0  0  0  0  0  0  0  0  0
    7.3972  -13.2935   24.7377 C   0  0  0  0  0  0  0  0  0  0  0  0
    6.9701  -14.0379   23.4942 C   0  0  0  0  0  0  0  0  0  0  0  0
    8.1716  -14.7911   22.9665 C   0  0  2  0  0  0  0  0  0  0  0  0
    7.9918  -15.4432   21.7122 N   0  0  0  0  0  0  0  0  0  0  0  0
    8.9254  -15.5587   23.9470 C   0  0  0  0  0  0  0  0  0  0  0  0
    8.6827  -16.8148   24.0711 O   0  0  0  0  0  0  0  0  0  0  0  0
   11.9831  -17.2072   31.9046 O   0  0  0  0  0  0  0  0  0  0  0  0
   11.8171  -16.6579   30.6450 C   0  0  0  0  0  0  0  0  0  0  0  0
   11.0347  -15.5387   30.4716 C   0  0  0  0  0  0  0  0  0  0  0  0
   10.8651  -14.9865   29.2209 C   0  0  0  0  0  0  0  0  0  0  0  0
   11.4646  -15.5180   28.0755 C   0  0  0  0  0  0  0  0  0  0  0  0
   11.2477  -14.8979   26.7525 C   0  0  0  0  0  0  0  0  0  0  0  0
   10.5810  -15.8270   25.7596 C   0  0  2  0  0  0  0  0  0  0  0  0
    9.9155  -14.9792   24.7690 N   0  0  0  0  0  0  0  0  0  0  0  0
    9.6551  -16.7733   26.3764 C   0  0  0  0  0  0  0  0  0  0  0  0
    8.3830  -16.3494   26.7268 O   0  0  0  0  0  0  0  0  0  0  0  0
   12.2478  -16.6435   28.2694 C   0  0  0  0  0  0  0  0  0  0  0  0
   12.4153  -17.1932   29.5227 C   0  0  0  0  0  0  0  0  0  0  0  0
    9.9339  -17.9753   26.6200 O   0  0  0  0  0  0  0  0  0  0  0  0
  2  1  1  0
  3  2  1  0
  3  4  1  6
  5  6  2  0
  5  3  1  0
  7  8  1  0
  8  9  1  0
  9 10  1  0
 11 10  1  1
 11 12  1  0
 12  5  1  0
 13 14  2  0
 13 11  1  0
 16 15  1  0
 17 16  2  0
 18 17  1  0
 19 18  2  0
 19 25  1  0
 20 19  1  0
 21 20  1  1
 21 22  1  0
 22 13  1  0
 23 21  1  0
 24 23  1  0
 25 26  2  0
 26 16  1  0
 27 23  2  0
M  END
$$$$
