ILM.pdb
     RDKit          3D

 25 24  0  0  1  0  0  0  0  0999 V2000
   22.2887  -16.4125  -18.2784 C   0  0  0  0  0  0  0  0  0  0  0  0
   23.4267  -17.1028  -17.5675 C   0  0  0  0  0  0  0  0  0  0  0  0
   22.9798  -18.1337  -16.6015 C   0  0  2  0  0  0  0  0  0  0  0  0
   21.9613  -17.5133  -15.6643 C   0  0  0  0  0  0  0  0  0  0  0  0
   24.0407  -18.8610  -15.8489 C   0  0  2  0  0  0  0  0  0  0  0  0
   25.1001  -19.4181  -16.6635 N   0  0  0  0  0  0  0  0  0  0  0  0
   23.5211  -19.9343  -14.9806 C   0  0  0  0  0  0  0  0  0  0  0  0
   23.1201  -21.0446  -15.4496 O   0  0  0  0  0  0  0  0  0  0  0  0
   25.6261  -22.2967  -11.6811 C   0  0  0  0  0  0  0  0  0  0  0  0
   25.0419  -20.9867  -11.2205 C   0  0  2  0  0  0  0  0  0  0  0  0
   25.4112  -20.8358   -9.7341 C   0  0  0  0  0  0  0  0  0  0  0  0
   23.5735  -20.9328  -11.3332 C   0  0  0  0  0  0  0  0  0  0  0  0
   22.9556  -20.8497  -12.6782 C   0  0  2  0  0  0  0  0  0  0  0  0
   23.4253  -19.8178  -13.5564 N   0  0  0  0  0  0  0  0  0  0  0  0
   21.4736  -20.8553  -12.5552 C   0  0  0  0  0  0  0  0  0  0  0  0
   20.9078  -19.8483  -12.0432 O   0  0  0  0  0  0  0  0  0  0  0  0
   17.5056  -25.3845  -15.1475 C   0  0  0  0  0  0  0  0  0  0  0  0
   16.3320  -24.0641  -14.7870 S   0  0  0  0  0  0  0  0  0  0  0  0
   17.0588  -22.8158  -13.6631 C   0  0  0  0  0  0  0  0  0  0  0  0
   18.5404  -22.7641  -13.8647 C   0  0  0  0  0  0  0  0  0  0  0  0
   19.1795  -21.8812  -12.8601 C   0  0  2  0  0  0  0  0  0  0  0  0
   20.6505  -21.9142  -12.9729 N   0  0  0  0  0  0  0  0  0  0  0  0
   18.8707  -22.2347  -11.4586 C   0  0  0  0  0  0  0  0  0  0  0  0
   19.6152  -23.0412  -10.7917 O   0  0  0  0  0  0  0  0  0  0  0  0
   17.7887  -21.7533  -10.7382 O   0  0  0  0  0  0  0  0  0  0  0  0
  2  3  1  0
  2  1  1  0
  3  5  1  0
  3  4  1  1
  5  7  1  0
  5  6  1  6
  7  8  2  0
 10 11  1  1
 10  9  1  0
 12 10  1  0
 13 12  1  1
 14 13  1  0
 14  7  1  0
 15 16  2  0
 15 13  1  0
 18 17  1  0
 19 18  1  0
 19 20  1  0
 21 20  1  6
 21 23  1  0
 21 22  1  0
 22 15  1  0
 23 25  1  0
 24 23  2  0
M  END
$$$$
