ILM.pdb
     RDKit          3D

 25 24  0  0  1  0  0  0  0  0999 V2000
   20.1033  -19.8062  -17.4992 C   0  0  0  0  0  0  0  0  0  0  0  0
   20.6763  -19.4722  -16.1439 C   0  0  0  0  0  0  0  0  0  0  0  0
   22.0057  -20.0796  -15.8997 C   0  0  2  0  0  0  0  0  0  0  0  0
   21.9271  -21.5625  -16.2084 C   0  0  0  0  0  0  0  0  0  0  0  0
   22.6284  -19.8324  -14.5686 C   0  0  2  0  0  0  0  0  0  0  0  0
   22.7394  -18.4390  -14.1912 N   0  0  0  0  0  0  0  0  0  0  0  0
   23.9566  -20.4544  -14.4112 C   0  0  0  0  0  0  0  0  0  0  0  0
   24.1269  -21.7099  -14.5019 O   0  0  0  0  0  0  0  0  0  0  0  0
   27.5899  -19.4757  -16.7930 C   0  0  0  0  0  0  0  0  0  0  0  0
   27.5531  -18.6693  -15.5210 C   0  0  2  0  0  0  0  0  0  0  0  0
   28.7857  -17.7481  -15.5453 C   0  0  0  0  0  0  0  0  0  0  0  0
   27.6270  -19.4978  -14.3045 C   0  0  0  0  0  0  0  0  0  0  0  0
   26.4385  -20.2823  -13.8923 C   0  0  2  0  0  0  0  0  0  0  0  0
   25.1494  -19.7074  -14.1460 N   0  0  0  0  0  0  0  0  0  0  0  0
   26.5907  -20.7273  -12.4816 C   0  0  0  0  0  0  0  0  0  0  0  0
   27.5936  -21.4330  -12.1773 O   0  0  0  0  0  0  0  0  0  0  0  0
   28.9577  -18.8064   -7.5318 C   0  0  0  0  0  0  0  0  0  0  0  0
   27.4258  -19.3137   -6.7276 S   0  0  0  0  0  0  0  0  0  0  0  0
   26.4744  -20.4718   -7.7779 C   0  0  0  0  0  0  0  0  0  0  0  0
   26.5887  -20.0563   -9.2106 C   0  0  0  0  0  0  0  0  0  0  0  0
   25.8044  -20.9590  -10.0865 C   0  0  2  0  0  0  0  0  0  0  0  0
   25.6867  -20.4145  -11.4530 N   0  0  0  0  0  0  0  0  0  0  0  0
   24.4216  -21.2013   -9.6242 C   0  0  0  0  0  0  0  0  0  0  0  0
   23.4081  -20.8283  -10.3194 O   0  0  0  0  0  0  0  0  0  0  0  0
   24.0799  -21.8333   -8.4388 O   0  0  0  0  0  0  0  0  0  0  0  0
  2  3  1  0
  2  1  1  0
  3  5  1  0
  3  4  1  1
  5  7  1  0
  5  6  1  6
  7  8  2  0
 10 11  1  6
 10  9  1  0
 12 10  1  0
 13 12  1  1
 14 13  1  0
 14  7  1  0
 15 16  2  0
 15 13  1  0
 18 17  1  0
 19 18  1  0
 19 20  1  0
 21 20  1  1
 21 23  1  0
 21 22  1  0
 22 15  1  0
 23 25  1  0
 24 23  2  0
M  END
$$$$
