ILM.pdb
     RDKit          3D

 25 24  0  0  1  0  0  0  0  0999 V2000
   27.7845  -16.9004  -17.6706 C   0  0  0  0  0  0  0  0  0  0  0  0
   28.3245  -17.8989  -16.6765 C   0  0  0  0  0  0  0  0  0  0  0  0
   27.2669  -18.6693  -15.9808 C   0  0  2  0  0  0  0  0  0  0  0  0
   26.2883  -17.6950  -15.3534 C   0  0  0  0  0  0  0  0  0  0  0  0
   27.7138  -19.6995  -15.0011 C   0  0  2  0  0  0  0  0  0  0  0  0
   28.5913  -20.7184  -15.5378 N   0  0  0  0  0  0  0  0  0  0  0  0
   26.6032  -20.3754  -14.3041 C   0  0  0  0  0  0  0  0  0  0  0  0
   25.9615  -21.3355  -14.8333 O   0  0  0  0  0  0  0  0  0  0  0  0
   26.9104  -21.9369  -10.0858 C   0  0  0  0  0  0  0  0  0  0  0  0
   26.2908  -20.5641  -10.0543 C   0  0  2  0  0  0  0  0  0  0  0  0
   25.9750  -20.2548   -8.5801 C   0  0  0  0  0  0  0  0  0  0  0  0
   25.0336  -20.4755  -10.8181 C   0  0  0  0  0  0  0  0  0  0  0  0
   25.0721  -20.6314  -12.2920 C   0  0  2  0  0  0  0  0  0  0  0  0
   26.1599  -20.0120  -12.9917 N   0  0  0  0  0  0  0  0  0  0  0  0
   23.7506  -20.2746  -12.8730 C   0  0  0  0  0  0  0  0  0  0  0  0
   23.4238  -19.0551  -12.9225 O   0  0  0  0  0  0  0  0  0  0  0  0
   22.1350  -21.9532  -18.3880 C   0  0  0  0  0  0  0  0  0  0  0  0
   20.4697  -21.4102  -17.9606 S   0  0  0  0  0  0  0  0  0  0  0  0
   20.3683  -20.8892  -16.2091 C   0  0  0  0  0  0  0  0  0  0  0  0
   21.6611  -21.1950  -15.5209 C   0  0  0  0  0  0  0  0  0  0  0  0
   21.5980  -20.8208  -14.0881 C   0  0  2  0  0  0  0  0  0  0  0  0
   22.8305  -21.2094  -13.3756 N   0  0  0  0  0  0  0  0  0  0  0  0
   20.4840  -21.4480  -13.3463 C   0  0  0  0  0  0  0  0  0  0  0  0
   20.6916  -22.3840  -12.4916 O   0  0  0  0  0  0  0  0  0  0  0  0
   19.1473  -21.1082  -13.4842 O   0  0  0  0  0  0  0  0  0  0  0  0
  2  3  1  0
  2  1  1  0
  3  5  1  0
  3  4  1  1
  5  7  1  0
  5  6  1  6
  7  8  2  0
 10 11  1  1
 10  9  1  0
 12 10  1  0
 13 12  1  1
 14 13  1  0
 14  7  1  0
 15 16  2  0
 15 13  1  0
 18 17  1  0
 19 18  1  0
 19 20  1  0
 21 20  1  6
 21 23  1  0
 21 22  1  0
 22 15  1  0
 23 25  1  0
 24 23  2  0
M  END
$$$$
