ILM.pdb
     RDKit          3D

 25 24  0  0  1  0  0  0  0  0999 V2000
   20.5454  -19.1832  -16.4980 C   0  0  0  0  0  0  0  0  0  0  0  0
   21.2706  -18.8023  -15.2308 C   0  0  0  0  0  0  0  0  0  0  0  0
   22.2173  -19.8398  -14.7584 C   0  0  2  0  0  0  0  0  0  0  0  0
   21.4720  -21.1541  -14.6253 C   0  0  0  0  0  0  0  0  0  0  0  0
   23.0014  -19.5312  -13.5293 C   0  0  2  0  0  0  0  0  0  0  0  0
   23.7166  -18.2726  -13.5563 N   0  0  0  0  0  0  0  0  0  0  0  0
   23.9571  -20.5906  -13.1547 C   0  0  0  0  0  0  0  0  0  0  0  0
   23.5858  -21.7857  -12.9368 O   0  0  0  0  0  0  0  0  0  0  0  0
   27.7396  -18.9022  -14.0879 C   0  0  0  0  0  0  0  0  0  0  0  0
   28.3622  -19.9332  -13.1829 C   0  0  2  0  0  0  0  0  0  0  0  0
   29.8112  -20.1270  -13.6640 C   0  0  0  0  0  0  0  0  0  0  0  0
   27.6848  -21.2408  -13.2380 C   0  0  0  0  0  0  0  0  0  0  0  0
   26.3245  -21.3735  -12.6638 C   0  0  2  0  0  0  0  0  0  0  0  0
   25.3636  -20.3656  -13.0063 N   0  0  0  0  0  0  0  0  0  0  0  0
   26.4143  -21.5924  -11.1956 C   0  0  0  0  0  0  0  0  0  0  0  0
   27.0579  -22.5948  -10.7743 O   0  0  0  0  0  0  0  0  0  0  0  0
   27.9292  -17.8507   -6.2781 C   0  0  0  0  0  0  0  0  0  0  0  0
   27.7692  -19.5187   -5.6125 S   0  0  0  0  0  0  0  0  0  0  0  0
   26.5292  -20.4909   -6.5436 C   0  0  0  0  0  0  0  0  0  0  0  0
   26.6883  -20.2319   -8.0085 C   0  0  0  0  0  0  0  0  0  0  0  0
   25.7735  -21.0895   -8.7988 C   0  0  2  0  0  0  0  0  0  0  0  0
   25.8266  -20.7532  -10.2347 N   0  0  0  0  0  0  0  0  0  0  0  0
   24.3522  -20.9815   -8.4077 C   0  0  0  0  0  0  0  0  0  0  0  0
   23.4690  -20.5152   -9.2153 O   0  0  0  0  0  0  0  0  0  0  0  0
   23.8364  -21.3575   -7.1773 O   0  0  0  0  0  0  0  0  0  0  0  0
  2  3  1  0
  2  1  1  0
  3  5  1  0
  3  4  1  1
  5  7  1  0
  5  6  1  6
  7  8  2  0
 10 11  1  6
 10  9  1  0
 12 10  1  0
 13 12  1  1
 14 13  1  0
 14  7  1  0
 15 16  2  0
 15 13  1  0
 18 17  1  0
 19 18  1  0
 19 20  1  0
 21 20  1  1
 21 23  1  0
 21 22  1  0
 22 15  1  0
 23 25  1  0
 24 23  2  0
M  END
$$$$
