ILM.pdb
     RDKit          3D

 25 24  0  0  1  0  0  0  0  0999 V2000
   28.9677  -17.1305  -16.3010 C   0  0  0  0  0  0  0  0  0  0  0  0
   27.6621  -17.7249  -15.8330 C   0  0  0  0  0  0  0  0  0  0  0  0
   27.8293  -18.7815  -14.8076 C   0  0  2  0  0  0  0  0  0  0  0  0
   28.7628  -19.8454  -15.3529 C   0  0  0  0  0  0  0  0  0  0  0  0
   26.5864  -19.3828  -14.2468 C   0  0  2  0  0  0  0  0  0  0  0  0
   25.6129  -18.4323  -13.7519 N   0  0  0  0  0  0  0  0  0  0  0  0
   26.8356  -20.3751  -13.1842 C   0  0  0  0  0  0  0  0  0  0  0  0
   27.2659  -21.5424  -13.4409 O   0  0  0  0  0  0  0  0  0  0  0  0
   28.9911  -20.6056   -9.1144 C   0  0  0  0  0  0  0  0  0  0  0  0
   27.6456  -19.9282   -9.0929 C   0  0  2  0  0  0  0  0  0  0  0  0
   27.4371  -19.4038   -7.6611 C   0  0  0  0  0  0  0  0  0  0  0  0
   26.5311  -20.8380   -9.4119 C   0  0  0  0  0  0  0  0  0  0  0  0
   26.1842  -21.0839  -10.8322 C   0  0  2  0  0  0  0  0  0  0  0  0
   26.6163  -20.1116  -11.7937 N   0  0  0  0  0  0  0  0  0  0  0  0
   24.7342  -21.3916  -10.9528 C   0  0  0  0  0  0  0  0  0  0  0  0
   24.2036  -22.1420  -10.0858 O   0  0  0  0  0  0  0  0  0  0  0  0
   20.2657  -17.2972  -12.0101 C   0  0  0  0  0  0  0  0  0  0  0  0
   19.2086  -18.7563  -11.9450 S   0  0  0  0  0  0  0  0  0  0  0  0
   20.1876  -20.2951  -12.0964 C   0  0  0  0  0  0  0  0  0  0  0  0
   21.6432  -19.9768  -11.9611 C   0  0  0  0  0  0  0  0  0  0  0  0
   22.4640  -21.2073  -12.0574 C   0  0  2  0  0  0  0  0  0  0  0  0
   23.9051  -20.9007  -11.9749 N   0  0  0  0  0  0  0  0  0  0  0  0
   22.2797  -21.9620  -13.3149 C   0  0  0  0  0  0  0  0  0  0  0  0
   23.0142  -21.7376  -14.3444 O   0  0  0  0  0  0  0  0  0  0  0  0
   21.3337  -22.9554  -13.5133 O   0  0  0  0  0  0  0  0  0  0  0  0
  2  3  1  0
  2  1  1  0
  3  5  1  0
  3  4  1  6
  5  7  1  0
  5  6  1  1
  7  8  2  0
 10 11  1  1
 10  9  1  0
 12 10  1  0
 13 12  1  1
 14 13  1  0
 14  7  1  0
 15 16  2  0
 15 13  1  0
 18 17  1  0
 19 18  1  0
 19 20  1  0
 21 20  1  6
 21 23  1  0
 21 22  1  0
 22 15  1  0
 23 25  1  0
 24 23  2  0
M  END
$$$$
