ILM.pdb
     RDKit          3D

 25 24  0  0  1  0  0  0  0  0999 V2000
   18.4588  -18.1917  -15.6147 C   0  0  0  0  0  0  0  0  0  0  0  0
   19.9280  -18.3924  -15.3356 C   0  0  0  0  0  0  0  0  0  0  0  0
   20.1933  -19.3186  -14.2098 C   0  0  2  0  0  0  0  0  0  0  0  0
   19.3857  -18.8673  -13.0079 C   0  0  0  0  0  0  0  0  0  0  0  0
   21.6200  -19.5550  -13.8499 C   0  0  2  0  0  0  0  0  0  0  0  0
   22.4624  -20.0035  -14.9387 N   0  0  0  0  0  0  0  0  0  0  0  0
   21.7995  -20.4873  -12.7210 C   0  0  0  0  0  0  0  0  0  0  0  0
   21.6250  -21.7391  -12.8476 O   0  0  0  0  0  0  0  0  0  0  0  0
   25.4389  -21.7064  -10.3277 C   0  0  0  0  0  0  0  0  0  0  0  0
   24.8115  -20.4293   -9.8327 C   0  0  2  0  0  0  0  0  0  0  0  0
   25.6852  -19.9293   -8.6686 C   0  0  0  0  0  0  0  0  0  0  0  0
   23.4396  -20.6131   -9.3268 C   0  0  0  0  0  0  0  0  0  0  0  0
   22.3558  -20.9422  -10.2833 C   0  0  2  0  0  0  0  0  0  0  0  0
   22.1795  -20.0671  -11.4056 N   0  0  0  0  0  0  0  0  0  0  0  0
   21.0858  -21.1789   -9.5467 C   0  0  0  0  0  0  0  0  0  0  0  0
   20.3941  -20.1794   -9.2018 O   0  0  0  0  0  0  0  0  0  0  0  0
   15.6818  -24.1696  -11.0828 C   0  0  0  0  0  0  0  0  0  0  0  0
   16.0784  -24.9260   -9.4950 S   0  0  0  0  0  0  0  0  0  0  0  0
   17.1723  -23.8485   -8.4990 C   0  0  0  0  0  0  0  0  0  0  0  0
   18.4022  -23.5211   -9.2854 C   0  0  0  0  0  0  0  0  0  0  0  0
   19.3155  -22.6561   -8.5015 C   0  0  2  0  0  0  0  0  0  0  0  0
   20.5969  -22.4504   -9.2039 N   0  0  0  0  0  0  0  0  0  0  0  0
   19.6633  -23.1924   -7.1688 C   0  0  0  0  0  0  0  0  0  0  0  0
   20.8385  -23.6439   -6.9144 O   0  0  0  0  0  0  0  0  0  0  0  0
   18.7957  -23.2630   -6.0901 O   0  0  0  0  0  0  0  0  0  0  0  0
  2  3  1  0
  2  1  1  0
  3  5  1  0
  3  4  1  1
  5  7  1  0
  5  6  1  6
  7  8  2  0
 10 11  1  1
 10  9  1  0
 12 10  1  0
 13 12  1  1
 14 13  1  0
 14  7  1  0
 15 16  2  0
 15 13  1  0
 18 17  1  0
 19 18  1  0
 19 20  1  0
 21 20  1  6
 21 23  1  0
 21 22  1  0
 22 15  1  0
 23 25  1  0
 24 23  2  0
M  END
$$$$
