LAL.pdb
     RDKit          3D

 22 21  0  0  1  0  0  0  0  0999 V2000
   19.6308  -18.1198  -17.2895 C   0  0  0  0  0  0  0  0  0  0  0  0
   20.5681  -18.6565  -18.3517 C   0  0  2  0  0  0  0  0  0  0  0  0
   19.8671  -19.6325  -19.2707 C   0  0  0  0  0  0  0  0  0  0  0  0
   21.8345  -19.2030  -17.7813 C   0  0  0  0  0  0  0  0  0  0  0  0
   22.5564  -18.2570  -16.8672 C   0  0  2  0  0  0  0  0  0  0  0  0
   22.8327  -16.9873  -17.4486 N   0  0  0  0  0  0  0  0  0  0  0  0
   23.7898  -18.9232  -16.3677 C   0  0  0  0  0  0  0  0  0  0  0  0
   23.7334  -20.0574  -15.8167 O   0  0  0  0  0  0  0  0  0  0  0  0
   27.5248  -18.2971  -16.5196 C   0  0  0  0  0  0  0  0  0  0  0  0
   26.2682  -18.9942  -16.0036 C   0  0  2  0  0  0  0  0  0  0  0  0
   25.0854  -18.3448  -16.4729 N   0  0  0  0  0  0  0  0  0  0  0  0
   26.3389  -19.0195  -14.5061 C   0  0  0  0  0  0  0  0  0  0  0  0
   26.2451  -17.9702  -13.8217 O   0  0  0  0  0  0  0  0  0  0  0  0
   25.5011  -21.5885   -9.9380 C   0  0  0  0  0  0  0  0  0  0  0  0
   24.9553  -20.2295  -10.3867 C   0  0  2  0  0  0  0  0  0  0  0  0
   23.6257  -20.0072   -9.8040 C   0  0  0  0  0  0  0  0  0  0  0  0
   25.1898  -20.0177  -11.8204 C   0  0  0  0  0  0  0  0  0  0  0  0
   26.5104  -20.3863  -12.3654 C   0  0  2  0  0  0  0  0  0  0  0  0
   26.5146  -20.2420  -13.8334 N   0  0  0  0  0  0  0  0  0  0  0  0
   27.0001  -21.7179  -12.0659 C   0  0  0  0  0  0  0  0  0  0  0  0
   27.9351  -21.9854  -11.3004 O   0  0  0  0  0  0  0  0  0  0  0  0
   26.3754  -22.8276  -12.6865 O   0  0  0  0  0  0  0  0  0  0  0  0
  2  1  1  1
  2  3  1  0
  4  2  1  0
  4  5  1  0
  5  6  1  6
  7  5  1  0
  8  7  2  0
 10  9  1  6
 10 11  1  0
 10 12  1  0
 11  7  1  0
 12 19  1  0
 13 12  2  0
 15 16  1  6
 15 14  1  0
 18 17  1  6
 17 15  1  0
 18 20  1  0
 19 18  1  0
 20 22  1  0
 21 20  2  0
M  END
$$$$
