LAL.pdb
     RDKit          3D

 22 21  0  0  1  0  0  0  0  0999 V2000
   28.8357  -18.4254  -15.8021 C   0  0  0  0  0  0  0  0  0  0  0  0
   27.6258  -17.5289  -15.9674 C   0  0  2  0  0  0  0  0  0  0  0  0
   28.0229  -16.0734  -16.0789 C   0  0  0  0  0  0  0  0  0  0  0  0
   26.5834  -17.7684  -14.9264 C   0  0  0  0  0  0  0  0  0  0  0  0
   26.5857  -19.1585  -14.3615 C   0  0  2  0  0  0  0  0  0  0  0  0
   25.6287  -20.0276  -14.9576 N   0  0  0  0  0  0  0  0  0  0  0  0
   26.4206  -19.0744  -12.8849 C   0  0  0  0  0  0  0  0  0  0  0  0
   26.7828  -18.0440  -12.2522 O   0  0  0  0  0  0  0  0  0  0  0  0
   23.8370  -20.2887  -10.7451 C   0  0  0  0  0  0  0  0  0  0  0  0
   25.3158  -19.9120  -10.7974 C   0  0  2  0  0  0  0  0  0  0  0  0
   25.8581  -20.1210  -12.1025 N   0  0  0  0  0  0  0  0  0  0  0  0
   26.0323  -20.7177   -9.7555 C   0  0  0  0  0  0  0  0  0  0  0  0
   25.9313  -21.9686   -9.7015 O   0  0  0  0  0  0  0  0  0  0  0  0
   28.6235  -18.6714   -4.4869 C   0  0  0  0  0  0  0  0  0  0  0  0
   28.1371  -19.9061   -5.2516 C   0  0  2  0  0  0  0  0  0  0  0  0
   29.0158  -21.0482   -4.9686 C   0  0  0  0  0  0  0  0  0  0  0  0
   27.7795  -19.5602   -6.6329 C   0  0  0  0  0  0  0  0  0  0  0  0
   27.0857  -20.5803   -7.4421 C   0  0  2  0  0  0  0  0  0  0  0  0
   26.8434  -20.0716   -8.8054 N   0  0  0  0  0  0  0  0  0  0  0  0
   25.8181  -21.0726   -6.9386 C   0  0  0  0  0  0  0  0  0  0  0  0
   24.7354  -20.4774   -7.0105 O   0  0  0  0  0  0  0  0  0  0  0  0
   25.7838  -22.3395   -6.3058 O   0  0  0  0  0  0  0  0  0  0  0  0
  2  1  1  1
  2  3  1  0
  4  2  1  0
  4  5  1  0
  5  6  1  6
  7  5  1  0
  8  7  2  0
 10  9  1  6
 10 11  1  0
 10 12  1  0
 11  7  1  0
 12 19  1  0
 13 12  2  0
 15 16  1  6
 15 14  1  0
 18 17  1  1
 17 15  1  0
 18 20  1  0
 19 18  1  0
 20 22  1  0
 21 20  2  0
M  END
$$$$
