LAL.pdb
     RDKit          3D

 22 21  0  0  1  0  0  0  0  0999 V2000
   26.6501  -18.8114   -6.3175 C   0  0  0  0  0  0  0  0  0  0  0  0
   27.1206  -20.2122   -6.6512 C   0  0  2  0  0  0  0  0  0  0  0  0
   28.4570  -20.5174   -6.0117 C   0  0  0  0  0  0  0  0  0  0  0  0
   27.1002  -20.4940   -8.1168 C   0  0  0  0  0  0  0  0  0  0  0  0
   25.8019  -20.1581   -8.7901 C   0  0  2  0  0  0  0  0  0  0  0  0
   24.6932  -20.9193   -8.3231 N   0  0  0  0  0  0  0  0  0  0  0  0
   25.9821  -20.2789  -10.2624 C   0  0  0  0  0  0  0  0  0  0  0  0
   26.9969  -19.7892  -10.8312 O   0  0  0  0  0  0  0  0  0  0  0  0
   24.4233  -22.2068  -13.0986 C   0  0  0  0  0  0  0  0  0  0  0  0
   25.2176  -21.0353  -12.5258 C   0  0  2  0  0  0  0  0  0  0  0  0
   25.0488  -20.9372  -11.1106 N   0  0  0  0  0  0  0  0  0  0  0  0
   24.7735  -19.7897  -13.2325 C   0  0  0  0  0  0  0  0  0  0  0  0
   23.8108  -19.0996  -12.8141 O   0  0  0  0  0  0  0  0  0  0  0  0
   25.1190  -15.7761  -16.8568 C   0  0  0  0  0  0  0  0  0  0  0  0
   26.1355  -15.9122  -15.7191 C   0  0  2  0  0  0  0  0  0  0  0  0
   27.2965  -15.0514  -15.9798 C   0  0  0  0  0  0  0  0  0  0  0  0
   26.3160  -17.3198  -15.3430 C   0  0  0  0  0  0  0  0  0  0  0  0
   25.1067  -18.1412  -15.1433 C   0  0  2  0  0  0  0  0  0  0  0  0
   25.4414  -19.3683  -14.3962 N   0  0  0  0  0  0  0  0  0  0  0  0
   24.3819  -18.5489  -16.3312 C   0  0  0  0  0  0  0  0  0  0  0  0
   24.7562  -19.4033  -17.1446 O   0  0  0  0  0  0  0  0  0  0  0  0
   23.1361  -17.9356  -16.6114 O   0  0  0  0  0  0  0  0  0  0  0  0
  2  1  1  6
  2  3  1  0
  4  2  1  0
  4  5  1  0
  5  6  1  1
  7  5  1  0
  8  7  2  0
 10  9  1  6
 10 11  1  0
 10 12  1  0
 11  7  1  0
 12 19  1  0
 13 12  2  0
 15 16  1  6
 15 14  1  0
 18 17  1  6
 17 15  1  0
 18 20  1  0
 19 18  1  0
 20 22  1  0
 21 20  2  0
M  END
$$$$
