LAL.pdb
     RDKit          3D

 22 21  0  0  1  0  0  0  0  0999 V2000
   28.0269  -21.8969  -15.3554 C   0  0  0  0  0  0  0  0  0  0  0  0
   26.7812  -21.0355  -15.3926 C   0  0  2  0  0  0  0  0  0  0  0  0
   26.8411  -20.0187  -16.5110 C   0  0  0  0  0  0  0  0  0  0  0  0
   26.4623  -20.4246  -14.0687 C   0  0  0  0  0  0  0  0  0  0  0  0
   26.6052  -21.3637  -12.9070 C   0  0  2  0  0  0  0  0  0  0  0  0
   25.7378  -22.4911  -12.9635 N   0  0  0  0  0  0  0  0  0  0  0  0
   26.4373  -20.5922  -11.6456 C   0  0  0  0  0  0  0  0  0  0  0  0
   27.0687  -19.5155  -11.4581 O   0  0  0  0  0  0  0  0  0  0  0  0
   23.8925  -20.1527   -9.0411 C   0  0  0  0  0  0  0  0  0  0  0  0
   25.3732  -20.2284   -9.4061 C   0  0  2  0  0  0  0  0  0  0  0  0
   25.5764  -21.0022  -10.5897 N   0  0  0  0  0  0  0  0  0  0  0  0
   26.1080  -20.7976   -8.2296 C   0  0  0  0  0  0  0  0  0  0  0  0
   26.2148  -22.0367   -8.0529 O   0  0  0  0  0  0  0  0  0  0  0  0
   30.2585  -20.4141   -6.0239 C   0  0  0  0  0  0  0  0  0  0  0  0
   29.4581  -19.1083   -6.0102 C   0  0  2  0  0  0  0  0  0  0  0  0
   30.3098  -18.0042   -5.5494 C   0  0  0  0  0  0  0  0  0  0  0  0
   28.1244  -19.3168   -5.4330 C   0  0  0  0  0  0  0  0  0  0  0  0
   27.2820  -20.3822   -6.0094 C   0  0  2  0  0  0  0  0  0  0  0  0
   26.6995  -19.9355   -7.2889 N   0  0  0  0  0  0  0  0  0  0  0  0
   26.1903  -20.8754   -5.1924 C   0  0  0  0  0  0  0  0  0  0  0  0
   24.9890  -20.6461   -5.3823 O   0  0  0  0  0  0  0  0  0  0  0  0
   26.4924  -21.6921   -4.0750 O   0  0  0  0  0  0  0  0  0  0  0  0
  2  1  1  1
  2  3  1  0
  4  2  1  0
  4  5  1  0
  5  6  1  6
  7  5  1  0
  8  7  2  0
 10  9  1  1
 10 11  1  0
 10 12  1  0
 11  7  1  0
 12 19  1  0
 13 12  2  0
 15 16  1  1
 15 14  1  0
 18 17  1  1
 17 15  1  0
 18 20  1  0
 19 18  1  0
 20 22  1  0
 21 20  2  0
M  END
$$$$
