LAL.pdb
     RDKit          3D

 22 21  0  0  1  0  0  0  0  0999 V2000
   28.4987  -21.7111  -13.8062 C   0  0  0  0  0  0  0  0  0  0  0  0
   28.7181  -20.4187  -14.5655 C   0  0  2  0  0  0  0  0  0  0  0  0
   30.1794  -20.0286  -14.5894 C   0  0  0  0  0  0  0  0  0  0  0  0
   27.8300  -19.3152  -14.0952 C   0  0  0  0  0  0  0  0  0  0  0  0
   26.3869  -19.7027  -13.9575 C   0  0  2  0  0  0  0  0  0  0  0  0
   25.5292  -19.0924  -14.9159 N   0  0  0  0  0  0  0  0  0  0  0  0
   25.9497  -19.4285  -12.5617 C   0  0  0  0  0  0  0  0  0  0  0  0
   26.0098  -18.2619  -12.0834 O   0  0  0  0  0  0  0  0  0  0  0  0
   23.5433  -20.6730  -10.1817 C   0  0  0  0  0  0  0  0  0  0  0  0
   24.9668  -20.1552  -10.3741 C   0  0  2  0  0  0  0  0  0  0  0  0
   25.4465  -20.4344  -11.6905 N   0  0  0  0  0  0  0  0  0  0  0  0
   25.8292  -20.7787   -9.3178 C   0  0  0  0  0  0  0  0  0  0  0  0
   26.0793  -22.0097   -9.3097 O   0  0  0  0  0  0  0  0  0  0  0  0
   28.7925  -18.5225   -4.4207 C   0  0  0  0  0  0  0  0  0  0  0  0
   28.6689  -19.7735   -5.2956 C   0  0  2  0  0  0  0  0  0  0  0  0
   29.9411  -20.5072   -5.3021 C   0  0  0  0  0  0  0  0  0  0  0  0
   27.9740  -19.4679   -6.5523 C   0  0  0  0  0  0  0  0  0  0  0  0
   27.1053  -20.5103   -7.1315 C   0  0  2  0  0  0  0  0  0  0  0  0
   26.3810  -19.9784   -8.3013 N   0  0  0  0  0  0  0  0  0  0  0  0
   26.1181  -21.1095   -6.2545 C   0  0  0  0  0  0  0  0  0  0  0  0
   24.9615  -20.7015   -6.0881 O   0  0  0  0  0  0  0  0  0  0  0  0
   26.4780  -22.2609   -5.5119 O   0  0  0  0  0  0  0  0  0  0  0  0
  2  1  1  1
  2  3  1  0
  4  2  1  0
  4  5  1  0
  5  6  1  6
  7  5  1  0
  8  7  2  0
 10  9  1  6
 10 11  1  0
 10 12  1  0
 11  7  1  0
 12 19  1  0
 13 12  2  0
 15 16  1  6
 15 14  1  0
 18 17  1  1
 17 15  1  0
 18 20  1  0
 19 18  1  0
 20 22  1  0
 21 20  2  0
M  END
$$$$
