LAL.pdb
     RDKit          3D

 22 21  0  0  1  0  0  0  0  0999 V2000
   22.0270  -17.9877  -17.4982 C   0  0  0  0  0  0  0  0  0  0  0  0
   23.3055  -18.3939  -18.2020 C   0  0  2  0  0  0  0  0  0  0  0  0
   23.0333  -18.9035  -19.6001 C   0  0  0  0  0  0  0  0  0  0  0  0
   24.1363  -19.3335  -17.3929 C   0  0  0  0  0  0  0  0  0  0  0  0
   24.3378  -18.9065  -15.9686 C   0  0  2  0  0  0  0  0  0  0  0  0
   24.8447  -17.5837  -15.8266 N   0  0  0  0  0  0  0  0  0  0  0  0
   25.1982  -19.9107  -15.2860 C   0  0  0  0  0  0  0  0  0  0  0  0
   24.9469  -21.1444  -15.3763 O   0  0  0  0  0  0  0  0  0  0  0  0
   28.5584  -19.9361  -13.5726 C   0  0  0  0  0  0  0  0  0  0  0  0
   27.1906  -20.5312  -13.8985 C   0  0  2  0  0  0  0  0  0  0  0  0
   26.3342  -19.5613  -14.5042 N   0  0  0  0  0  0  0  0  0  0  0  0
   26.6117  -21.0761  -12.6272 C   0  0  0  0  0  0  0  0  0  0  0  0
   27.0714  -22.1096  -12.0808 O   0  0  0  0  0  0  0  0  0  0  0  0
   26.8487  -21.5558   -8.6669 C   0  0  0  0  0  0  0  0  0  0  0  0
   26.5572  -20.1042   -9.0590 C   0  0  2  0  0  0  0  0  0  0  0  0
   26.9831  -19.2001   -7.9829 C   0  0  0  0  0  0  0  0  0  0  0  0
   25.2221  -19.9805   -9.6569 C   0  0  0  0  0  0  0  0  0  0  0  0
   24.8791  -20.8836  -10.7721 C   0  0  2  0  0  0  0  0  0  0  0  0
   25.5248  -20.4251  -12.0166 N   0  0  0  0  0  0  0  0  0  0  0  0
   23.4707  -21.0668  -11.0643 C   0  0  0  0  0  0  0  0  0  0  0  0
   22.8982  -20.7068  -12.1008 O   0  0  0  0  0  0  0  0  0  0  0  0
   22.6545  -21.7094  -10.1012 O   0  0  0  0  0  0  0  0  0  0  0  0
  2  1  1  1
  2  3  1  0
  4  2  1  0
  4  5  1  0
  5  6  1  6
  7  5  1  0
  8  7  2  0
 10  9  1  1
 10 11  1  0
 10 12  1  0
 11  7  1  0
 12 19  1  0
 13 12  2  0
 15 16  1  1
 15 14  1  0
 18 17  1  1
 17 15  1  0
 18 20  1  0
 19 18  1  0
 20 22  1  0
 21 20  2  0
M  END
$$$$
