LAL.pdb
     RDKit          3D

 22 21  0  0  1  0  0  0  0  0999 V2000
   23.8002  -14.9299  -15.3007 C   0  0  0  0  0  0  0  0  0  0  0  0
   24.3600  -15.6799  -16.4920 C   0  0  2  0  0  0  0  0  0  0  0  0
   23.5085  -15.4790  -17.7261 C   0  0  0  0  0  0  0  0  0  0  0  0
   24.6236  -17.1188  -16.1962 C   0  0  0  0  0  0  0  0  0  0  0  0
   25.4346  -17.3536  -14.9557 C   0  0  2  0  0  0  0  0  0  0  0  0
   26.6408  -16.5996  -14.9008 N   0  0  0  0  0  0  0  0  0  0  0  0
   25.6819  -18.8144  -14.8160 C   0  0  0  0  0  0  0  0  0  0  0  0
   24.7412  -19.6448  -14.9530 O   0  0  0  0  0  0  0  0  0  0  0  0
   28.6865  -21.0904  -14.5108 C   0  0  0  0  0  0  0  0  0  0  0  0
   27.1974  -20.7684  -14.4096 C   0  0  2  0  0  0  0  0  0  0  0  0
   26.9617  -19.3642  -14.5260 N   0  0  0  0  0  0  0  0  0  0  0  0
   26.6962  -21.3163  -13.1070 C   0  0  0  0  0  0  0  0  0  0  0  0
   26.6605  -22.5511  -12.8789 O   0  0  0  0  0  0  0  0  0  0  0  0
   26.6810  -19.3873   -7.3679 C   0  0  0  0  0  0  0  0  0  0  0  0
   26.0379  -20.3963   -8.3241 C   0  0  2  0  0  0  0  0  0  0  0  0
   26.1121  -21.7464   -7.7508 C   0  0  0  0  0  0  0  0  0  0  0  0
   26.4562  -20.1465   -9.7090 C   0  0  0  0  0  0  0  0  0  0  0  0
   25.7546  -20.8745  -10.7836 C   0  0  2  0  0  0  0  0  0  0  0  0
   26.2504  -20.4385  -12.1027 N   0  0  0  0  0  0  0  0  0  0  0  0
   24.3086  -20.7717  -10.8157 C   0  0  0  0  0  0  0  0  0  0  0  0
   23.5331  -21.2738   -9.9921 O   0  0  0  0  0  0  0  0  0  0  0  0
   23.7021  -20.0406  -11.8667 O   0  0  0  0  0  0  0  0  0  0  0  0
  2  1  1  1
  2  3  1  0
  4  2  1  0
  4  5  1  0
  5  6  1  6
  7  5  1  0
  8  7  2  0
 10  9  1  1
 10 11  1  0
 10 12  1  0
 11  7  1  0
 12 19  1  0
 13 12  2  0
 15 16  1  1
 15 14  1  0
 18 17  1  1
 17 15  1  0
 18 20  1  0
 19 18  1  0
 20 22  1  0
 21 20  2  0
M  END
$$$$
