PTK.pdb
     RDKit          3D

 24 24  0  0  1  0  0  0  0  0999 V2000
   21.1737  -12.5188  -16.3391 N   0  0  0  0  0  0  0  0  0  0  0  0
   20.2465  -13.4948  -15.8006 C   0  0  0  0  0  0  0  0  0  0  0  0
   19.7188  -14.1742  -17.0570 C   0  0  0  0  0  0  0  0  0  0  0  0
   19.5016  -12.9526  -17.9590 C   0  0  0  0  0  0  0  0  0  0  0  0
   20.6029  -12.0013  -17.5443 C   0  0  1  0  0  0  0  0  0  0  0  0
   19.9847  -10.6487  -17.3314 C   0  0  0  0  0  0  0  0  0  0  0  0
   19.4153  -10.0964  -18.3051 O   0  0  0  0  0  0  0  0  0  0  0  0
   17.1825   -9.5734  -15.1809 C   0  0  0  0  0  0  0  0  0  0  0  0
   18.3984   -8.8099  -14.7713 C   0  0  1  0  0  0  0  0  0  0  0  0
   19.0621   -9.5901  -13.7942 O   0  0  0  0  0  0  0  0  0  0  0  0
   19.4264   -8.6526  -15.8981 C   0  0  2  0  0  0  0  0  0  0  0  0
   20.0228   -9.9908  -16.0937 N   0  0  0  0  0  0  0  0  0  0  0  0
   20.4878   -7.6821  -15.5706 C   0  0  0  0  0  0  0  0  0  0  0  0
   21.4414   -8.1066  -14.8303 O   0  0  0  0  0  0  0  0  0  0  0  0
   20.5337   -6.3357  -16.0069 N   0  0  0  0  0  0  0  0  0  0  0  0
   21.6671   -5.5188  -15.6870 C   0  0  1  0  0  0  0  0  0  0  0  0
   21.8073   -4.3072  -16.5350 C   0  0  0  0  0  0  0  0  0  0  0  0
   22.8745   -3.3442  -16.1822 C   0  0  0  0  0  0  0  0  0  0  0  0
   22.9700   -2.1412  -17.0862 C   0  0  0  0  0  0  0  0  0  0  0  0
   24.0994   -1.2171  -16.6529 C   0  0  0  0  0  0  0  0  0  0  0  0
   24.0544   -0.0636  -17.5261 N   0  0  0  0  0  0  0  0  0  0  0  0
   21.7322   -5.2859  -14.2294 C   0  0  0  0  0  0  0  0  0  0  0  0
   20.5554   -5.0770  -13.5307 O   0  0  0  0  0  0  0  0  0  0  0  0
   22.8045   -5.2663  -13.5732 O   0  0  0  0  0  0  0  0  0  0  0  0
  1  2  1  0
  3  2  1  0
  4  3  1  0
  5  4  1  0
  5  1  1  0
  6  7  2  0
  5  6  1  1
  9  8  1  6
  9 10  1  0
  9 11  1  0
 11 12  1  1
 12  6  1  0
 13 15  1  0
 13 11  1  0
 14 13  2  0
 16 15  1  0
 16 22  1  0
 16 17  1  6
 17 18  1  0
 19 18  1  0
 20 21  1  0
 20 19  1  0
 22 23  1  0
 24 22  2  0
M  END
$$$$
