PTK.pdb
     RDKit          3D

 24 24  0  0  1  0  0  0  0  0999 V2000
   27.5845  -16.4346  -17.5035 N   0  0  0  0  0  0  0  0  0  0  0  0
   26.3490  -15.8485  -17.9853 C   0  0  0  0  0  0  0  0  0  0  0  0
   26.0184  -14.8376  -16.8956 C   0  0  0  0  0  0  0  0  0  0  0  0
   26.3314  -15.6695  -15.6454 C   0  0  0  0  0  0  0  0  0  0  0  0
   27.4796  -16.5532  -16.0818 C   0  0  1  0  0  0  0  0  0  0  0  0
   27.1604  -17.9602  -15.6627 C   0  0  0  0  0  0  0  0  0  0  0  0
   26.6588  -18.7342  -16.5151 O   0  0  0  0  0  0  0  0  0  0  0  0
   29.2429  -20.6852  -14.8182 C   0  0  0  0  0  0  0  0  0  0  0  0
   28.3608  -20.5095  -13.6265 C   0  0  1  0  0  0  0  0  0  0  0  0
   29.0310  -19.6248  -12.7477 O   0  0  0  0  0  0  0  0  0  0  0  0
   27.0388  -19.8018  -13.9469 C   0  0  2  0  0  0  0  0  0  0  0  0
   27.4024  -18.4313  -14.3644 N   0  0  0  0  0  0  0  0  0  0  0  0
   26.1293  -19.7398  -12.7872 C   0  0  0  0  0  0  0  0  0  0  0  0
   26.1373  -18.6525  -12.1125 O   0  0  0  0  0  0  0  0  0  0  0  0
   25.2587  -20.7753  -12.3691 N   0  0  0  0  0  0  0  0  0  0  0  0
   24.4147  -20.5822  -11.2269 C   0  0  1  0  0  0  0  0  0  0  0  0
   22.9740  -20.8414  -11.4793 C   0  0  0  0  0  0  0  0  0  0  0  0
   22.0410  -20.6895  -10.3404 C   0  0  0  0  0  0  0  0  0  0  0  0
   20.5968  -20.9851  -10.6574 C   0  0  0  0  0  0  0  0  0  0  0  0
   19.6994  -20.6775   -9.4669 C   0  0  0  0  0  0  0  0  0  0  0  0
   18.3349  -20.8633   -9.9127 N   0  0  0  0  0  0  0  0  0  0  0  0
   24.9871  -21.2664  -10.0490 C   0  0  0  0  0  0  0  0  0  0  0  0
   24.9119  -20.6482   -8.8125 O   0  0  0  0  0  0  0  0  0  0  0  0
   25.5456  -22.3917  -10.0988 O   0  0  0  0  0  0  0  0  0  0  0  0
  1  2  1  0
  3  2  1  0
  4  3  1  0
  5  4  1  0
  5  1  1  0
  6  7  2  0
  5  6  1  6
  9  8  1  6
  9 10  1  0
  9 11  1  0
 11 12  1  1
 12  6  1  0
 13 15  1  0
 13 11  1  0
 14 13  2  0
 16 15  1  0
 16 22  1  0
 16 17  1  6
 17 18  1  0
 19 18  1  0
 20 21  1  0
 20 19  1  0
 22 23  1  0
 24 22  2  0
M  END
$$$$
