PTK.pdb
     RDKit          3D

 24 24  0  0  1  0  0  0  0  0999 V2000
   27.2642  -19.2668  -16.9238 N   0  0  0  0  0  0  0  0  0  0  0  0
   28.3095  -18.4624  -16.3218 C   0  0  0  0  0  0  0  0  0  0  0  0
   29.5722  -19.2167  -16.7155 C   0  0  0  0  0  0  0  0  0  0  0  0
   29.1214  -20.6601  -16.4571 C   0  0  0  0  0  0  0  0  0  0  0  0
   27.6455  -20.6391  -16.7900 C   0  0  1  0  0  0  0  0  0  0  0  0
   26.9120  -21.3135  -15.6656 C   0  0  0  0  0  0  0  0  0  0  0  0
   27.1997  -22.5069  -15.4008 O   0  0  0  0  0  0  0  0  0  0  0  0
   27.1001  -21.0191  -12.2316 C   0  0  0  0  0  0  0  0  0  0  0  0
   25.6638  -20.7331  -12.5221 C   0  0  1  0  0  0  0  0  0  0  0  0
   25.5567  -19.3358  -12.7221 O   0  0  0  0  0  0  0  0  0  0  0  0
   25.1756  -21.3467  -13.8397 C   0  0  2  0  0  0  0  0  0  0  0  0
   25.9275  -20.6598  -14.9110 N   0  0  0  0  0  0  0  0  0  0  0  0
   23.7282  -21.1597  -14.0544 C   0  0  0  0  0  0  0  0  0  0  0  0
   23.3800  -20.1373  -14.7406 O   0  0  0  0  0  0  0  0  0  0  0  0
   22.7081  -22.0128  -13.5680 N   0  0  0  0  0  0  0  0  0  0  0  0
   21.3319  -21.6836  -13.7956 C   0  0  1  0  0  0  0  0  0  0  0  0
   20.4197  -22.8555  -13.8305 C   0  0  0  0  0  0  0  0  0  0  0  0
   19.0140  -22.6176  -14.2284 C   0  0  0  0  0  0  0  0  0  0  0  0
   18.1445  -23.8490  -14.2590 C   0  0  0  0  0  0  0  0  0  0  0  0
   16.7994  -23.5553  -14.9083 C   0  0  0  0  0  0  0  0  0  0  0  0
   16.0272  -24.7778  -14.8423 N   0  0  0  0  0  0  0  0  0  0  0  0
   20.9173  -20.5813  -12.9032 C   0  0  0  0  0  0  0  0  0  0  0  0
   19.9038  -19.7320  -13.3132 O   0  0  0  0  0  0  0  0  0  0  0  0
   21.4336  -20.3631  -11.7778 O   0  0  0  0  0  0  0  0  0  0  0  0
  1  2  1  0
  3  2  1  0
  4  3  1  0
  5  4  1  0
  5  1  1  0
  6  7  2  0
  5  6  1  1
  9  8  1  6
  9 10  1  0
  9 11  1  0
 11 12  1  6
 12  6  1  0
 13 15  1  0
 13 11  1  0
 14 13  2  0
 16 15  1  0
 16 22  1  0
 16 17  1  1
 17 18  1  0
 19 18  1  0
 20 21  1  0
 20 19  1  0
 22 23  1  0
 24 22  2  0
M  END
$$$$
