PTK.pdb
     RDKit          3D

 24 24  0  0  1  0  0  0  0  0999 V2000
   15.8890  -27.6471  -10.6948 N   0  0  0  0  0  0  0  0  0  0  0  0
   16.6535  -28.8785  -10.7331 C   0  0  0  0  0  0  0  0  0  0  0  0
   15.7629  -29.8418   -9.9601 C   0  0  0  0  0  0  0  0  0  0  0  0
   15.3363  -28.9439   -8.7919 C   0  0  0  0  0  0  0  0  0  0  0  0
   15.2718  -27.5629   -9.4070 C   0  0  1  0  0  0  0  0  0  0  0  0
   16.0080  -26.6208   -8.4974 C   0  0  0  0  0  0  0  0  0  0  0  0
   17.1820  -26.2963   -8.8034 O   0  0  0  0  0  0  0  0  0  0  0  0
   14.7419  -23.3016   -7.4194 C   0  0  0  0  0  0  0  0  0  0  0  0
   15.1910  -24.0010   -6.1791 C   0  0  1  0  0  0  0  0  0  0  0  0
   14.0469  -24.6200   -5.6207 O   0  0  0  0  0  0  0  0  0  0  0  0
   16.1586  -25.1592   -6.4501 C   0  0  2  0  0  0  0  0  0  0  0  0
   15.4321  -26.0980   -7.3307 N   0  0  0  0  0  0  0  0  0  0  0  0
   16.5721  -25.8573   -5.2181 C   0  0  0  0  0  0  0  0  0  0  0  0
   16.2197  -27.0827   -5.1104 O   0  0  0  0  0  0  0  0  0  0  0  0
   17.3198  -25.2850   -4.1605 N   0  0  0  0  0  0  0  0  0  0  0  0
   17.6090  -26.0586   -2.9892 C   0  0  1  0  0  0  0  0  0  0  0  0
   16.4226  -26.7111   -2.3781 C   0  0  0  0  0  0  0  0  0  0  0  0
   16.4948  -27.0548   -0.9403 C   0  0  0  0  0  0  0  0  0  0  0  0
   15.3817  -26.4897   -0.0945 C   0  0  0  0  0  0  0  0  0  0  0  0
   15.5157  -26.9318    1.3560 C   0  0  0  0  0  0  0  0  0  0  0  0
   14.4137  -26.3336    2.0791 N   0  0  0  0  0  0  0  0  0  0  0  0
   18.7653  -26.9446   -3.2363 C   0  0  0  0  0  0  0  0  0  0  0  0
   19.3773  -27.5640   -2.1600 O   0  0  0  0  0  0  0  0  0  0  0  0
   19.2351  -27.1761   -4.3793 O   0  0  0  0  0  0  0  0  0  0  0  0
  1  2  1  0
  3  2  1  0
  4  3  1  0
  5  4  1  0
  5  1  1  0
  6  7  2  0
  5  6  1  1
  9  8  1  6
  9 10  1  0
  9 11  1  0
 11 12  1  6
 12  6  1  0
 13 15  1  0
 13 11  1  0
 14 13  2  0
 16 15  1  0
 16 22  1  0
 16 17  1  6
 17 18  1  0
 19 18  1  0
 20 21  1  0
 20 19  1  0
 22 23  1  0
 24 22  2  0
M  END
$$$$
