PTK.pdb
     RDKit          3D

 24 24  0  0  1  0  0  0  0  0999 V2000
   17.5662  -14.0517  -15.0946 N   0  0  0  0  0  0  0  0  0  0  0  0
   16.3955  -14.3756  -14.3029 C   0  0  0  0  0  0  0  0  0  0  0  0
   15.5262  -15.1333  -15.2973 C   0  0  0  0  0  0  0  0  0  0  0  0
   15.7027  -14.2540  -16.5418 C   0  0  0  0  0  0  0  0  0  0  0  0
   17.1189  -13.7361  -16.4162 C   0  0  1  0  0  0  0  0  0  0  0  0
   17.0878  -12.2530  -16.6541 C   0  0  0  0  0  0  0  0  0  0  0  0
   16.7901  -11.8423  -17.8029 O   0  0  0  0  0  0  0  0  0  0  0  0
   14.9362   -9.5853  -15.4230 C   0  0  0  0  0  0  0  0  0  0  0  0
   16.3288   -9.2595  -14.9946 C   0  0  1  0  0  0  0  0  0  0  0  0
   16.5293   -9.8868  -13.7416 O   0  0  0  0  0  0  0  0  0  0  0  0
   17.4033   -9.8682  -15.9034 C   0  0  2  0  0  0  0  0  0  0  0  0
   17.3771  -11.3234  -15.6451 N   0  0  0  0  0  0  0  0  0  0  0  0
   18.7524   -9.3413  -15.6239 C   0  0  0  0  0  0  0  0  0  0  0  0
   19.4965  -10.0513  -14.8625 O   0  0  0  0  0  0  0  0  0  0  0  0
   19.2816   -8.1281  -16.1271 N   0  0  0  0  0  0  0  0  0  0  0  0
   20.6307   -7.7545  -15.8196 C   0  0  1  0  0  0  0  0  0  0  0  0
   21.5784   -7.8937  -16.9550 C   0  0  0  0  0  0  0  0  0  0  0  0
   22.9899   -7.5161  -16.7190 C   0  0  0  0  0  0  0  0  0  0  0  0
   23.9192   -7.7718  -17.8786 C   0  0  0  0  0  0  0  0  0  0  0  0
   25.3492   -7.3811  -17.5327 C   0  0  0  0  0  0  0  0  0  0  0  0
   26.1453   -7.6155  -18.7186 N   0  0  0  0  0  0  0  0  0  0  0  0
   20.6529   -6.4485  -15.1291 C   0  0  0  0  0  0  0  0  0  0  0  0
   19.4941   -5.6920  -15.0881 O   0  0  0  0  0  0  0  0  0  0  0  0
   21.6724   -5.9738  -14.5668 O   0  0  0  0  0  0  0  0  0  0  0  0
  1  2  1  0
  3  2  1  0
  4  3  1  0
  5  4  1  0
  5  1  1  0
  6  7  2  0
  5  6  1  1
  9  8  1  6
  9 10  1  0
  9 11  1  0
 11 12  1  1
 12  6  1  0
 13 15  1  0
 13 11  1  0
 14 13  2  0
 16 15  1  0
 16 22  1  0
 16 17  1  6
 17 18  1  0
 19 18  1  0
 20 21  1  0
 20 19  1  0
 22 23  1  0
 24 22  2  0
M  END
$$$$
