IWG.pdb
     RDKit          3D

 27 28  0  0  1  0  0  0  0  0999 V2000
   19.6928  -18.8302  -12.5598 C   0  0  0  0  0  0  0  0  0  0  0  0
   20.5969  -20.0605  -12.5008 C   0  0  0  0  0  0  0  0  0  0  0  0
   22.0263  -19.6665  -12.2497 C   0  0  2  0  0  0  0  0  0  0  0  0
   22.4503  -18.6967  -13.3395 C   0  0  0  0  0  0  0  0  0  0  0  0
   22.9594  -20.8331  -12.1964 C   0  0  2  0  0  0  0  0  0  0  0  0
   22.3859  -21.8450  -11.3234 N   0  0  0  0  0  0  0  0  0  0  0  0
   24.2568  -20.4298  -11.6526 C   0  0  0  0  0  0  0  0  0  0  0  0
   24.8628  -19.4412  -12.1407 O   0  0  0  0  0  0  0  0  0  0  0  0
   24.9287  -21.0951  -10.5628 N   0  0  0  0  0  0  0  0  0  0  0  0
   26.2867  -20.8302  -10.2390 C   0  0  1  0  0  0  0  0  0  0  0  0
   26.7708  -21.2161   -8.8997 C   0  0  0  0  0  0  0  0  0  0  0  0
   27.0313  -20.1301   -7.9527 C   0  0  0  0  0  0  0  0  0  0  0  0
   26.7399  -18.7962   -8.0594 C   0  0  0  0  0  0  0  0  0  0  0  0
   27.1442  -18.1449   -6.9429 N   0  0  0  0  0  0  0  0  0  0  0  0
   27.7041  -19.0537   -6.0973 C   0  0  0  0  0  0  0  0  0  0  0  0
   28.2618  -18.9108   -4.8420 C   0  0  0  0  0  0  0  0  0  0  0  0
   28.7679  -20.0005   -4.1732 C   0  0  0  0  0  0  0  0  0  0  0  0
   28.7064  -21.2333   -4.7815 C   0  0  0  0  0  0  0  0  0  0  0  0
   28.1497  -21.3636   -6.0305 C   0  0  0  0  0  0  0  0  0  0  0  0
   27.6335  -20.2660   -6.7178 C   0  0  0  0  0  0  0  0  0  0  0  0
   27.2297  -21.3549  -11.2893 C   0  0  0  0  0  0  0  0  0  0  0  0
   27.2024  -22.5947  -11.4877 O   0  0  0  0  0  0  0  0  0  0  0  0
   28.0931  -20.5223  -12.0110 N   0  0  0  0  0  0  0  0  0  0  0  0
   28.9305  -21.0159  -13.0718 C   0  0  0  0  0  0  0  0  0  0  0  0
   28.1854  -21.2644  -14.3145 C   0  0  0  0  0  0  0  0  0  0  0  0
   27.9002  -22.5321  -14.7840 O   0  0  0  0  0  0  0  0  0  0  0  0
   27.7865  -20.2797  -14.9852 O   0  0  0  0  0  0  0  0  0  0  0  0
  1  2  1  0
  3  2  1  0
  3  4  1  6
  5  3  1  0
  5  6  1  1
  7  5  1  0
  7  8  2  0
  9  7  1  0
 10 21  1  0
 10  9  1  0
 10 11  1  1
 12 13  2  0
 12 11  1  0
 14 13  1  0
 15 20  2  0
 15 14  1  0
 16 15  1  0
 17 18  1  0
 17 16  2  0
 18 19  2  0
 19 20  1  0
 20 12  1  0
 21 23  1  0
 22 21  2  0
 23 24  1  0
 24 25  1  0
 25 27  2  0
 25 26  1  0
M  END
$$$$
