IWG.pdb
     RDKit          3D

 27 28  0  0  1  0  0  0  0  0999 V2000
   27.2491  -17.2859  -16.8480 C   0  0  0  0  0  0  0  0  0  0  0  0
   28.0409  -18.1846  -15.8995 C   0  0  0  0  0  0  0  0  0  0  0  0
   27.1326  -18.8430  -14.8979 C   0  0  2  0  0  0  0  0  0  0  0  0
   26.4305  -17.7536  -14.1053 C   0  0  0  0  0  0  0  0  0  0  0  0
   27.8481  -19.7795  -13.9784 C   0  0  2  0  0  0  0  0  0  0  0  0
   28.5100  -20.7978  -14.7783 N   0  0  0  0  0  0  0  0  0  0  0  0
   26.9022  -20.4377  -13.0763 C   0  0  0  0  0  0  0  0  0  0  0  0
   26.2992  -21.4773  -13.4480 O   0  0  0  0  0  0  0  0  0  0  0  0
   26.5875  -19.9783  -11.7453 N   0  0  0  0  0  0  0  0  0  0  0  0
   25.7871  -20.7414  -10.8530 C   0  0  1  0  0  0  0  0  0  0  0  0
   26.0725  -20.6474   -9.4084 C   0  0  0  0  0  0  0  0  0  0  0  0
   27.4601  -20.8631   -8.9934 C   0  0  0  0  0  0  0  0  0  0  0  0
   28.4800  -21.4857   -9.6625 C   0  0  0  0  0  0  0  0  0  0  0  0
   29.6100  -21.4509   -8.9168 N   0  0  0  0  0  0  0  0  0  0  0  0
   29.3331  -20.8025   -7.7518 C   0  0  0  0  0  0  0  0  0  0  0  0
   30.1280  -20.4998   -6.6637 C   0  0  0  0  0  0  0  0  0  0  0  0
   29.6100  -19.8201   -5.5864 C   0  0  0  0  0  0  0  0  0  0  0  0
   28.2851  -19.4496   -5.6169 C   0  0  0  0  0  0  0  0  0  0  0  0
   27.5037  -19.7563   -6.7042 C   0  0  0  0  0  0  0  0  0  0  0  0
   28.0181  -20.4448   -7.8019 C   0  0  0  0  0  0  0  0  0  0  0  0
   24.3158  -20.5299  -11.0936 C   0  0  0  0  0  0  0  0  0  0  0  0
   23.9183  -19.3386  -11.0778 O   0  0  0  0  0  0  0  0  0  0  0  0
   23.4294  -21.5888  -11.3229 N   0  0  0  0  0  0  0  0  0  0  0  0
   22.0106  -21.3899  -11.4562 C   0  0  0  0  0  0  0  0  0  0  0  0
   21.5826  -21.2749  -12.8580 C   0  0  0  0  0  0  0  0  0  0  0  0
   20.3226  -20.8480  -13.2307 O   0  0  0  0  0  0  0  0  0  0  0  0
   22.3984  -21.5783  -13.7640 O   0  0  0  0  0  0  0  0  0  0  0  0
  1  2  1  0
  3  2  1  0
  3  4  1  1
  5  3  1  0
  5  6  1  6
  7  5  1  0
  7  8  2  0
  9  7  1  0
 10 21  1  0
 10  9  1  0
 10 11  1  1
 12 13  2  0
 12 11  1  0
 14 13  1  0
 15 20  2  0
 15 14  1  0
 16 15  1  0
 17 18  1  0
 17 16  2  0
 18 19  2  0
 19 20  1  0
 20 12  1  0
 21 23  1  0
 22 21  2  0
 23 24  1  0
 24 25  1  0
 25 27  2  0
 25 26  1  0
M  END
$$$$
