IWG.pdb
     RDKit          3D

 27 28  0  0  1  0  0  0  0  0999 V2000
   28.2952  -17.6415  -17.1816 C   0  0  0  0  0  0  0  0  0  0  0  0
   28.4038  -17.2827  -15.7004 C   0  0  0  0  0  0  0  0  0  0  0  0
   28.2260  -18.5011  -14.8370 C   0  0  2  0  0  0  0  0  0  0  0  0
   29.4183  -19.4166  -15.0560 C   0  0  0  0  0  0  0  0  0  0  0  0
   26.9498  -19.2323  -15.1035 C   0  0  2  0  0  0  0  0  0  0  0  0
   25.8433  -18.2995  -14.9604 N   0  0  0  0  0  0  0  0  0  0  0  0
   26.7695  -20.3201  -14.1412 C   0  0  0  0  0  0  0  0  0  0  0  0
   27.6093  -21.2550  -14.0852 O   0  0  0  0  0  0  0  0  0  0  0  0
   25.6671  -20.4179  -13.2155 N   0  0  0  0  0  0  0  0  0  0  0  0
   25.3931  -21.6093  -12.4913 C   0  0  1  0  0  0  0  0  0  0  0  0
   25.0222  -21.4889  -11.0682 C   0  0  0  0  0  0  0  0  0  0  0  0
   25.6450  -20.4003  -10.3126 C   0  0  0  0  0  0  0  0  0  0  0  0
   25.4866  -19.0468  -10.4491 C   0  0  0  0  0  0  0  0  0  0  0  0
   26.2438  -18.3990   -9.5319 N   0  0  0  0  0  0  0  0  0  0  0  0
   26.9035  -19.3296   -8.7883 C   0  0  0  0  0  0  0  0  0  0  0  0
   27.7877  -19.1982   -7.7355 C   0  0  0  0  0  0  0  0  0  0  0  0
   28.3286  -20.3098   -7.1333 C   0  0  0  0  0  0  0  0  0  0  0  0
   27.9700  -21.5528   -7.6023 C   0  0  0  0  0  0  0  0  0  0  0  0
   27.0899  -21.6716   -8.6503 C   0  0  0  0  0  0  0  0  0  0  0  0
   26.5352  -20.5518   -9.2682 C   0  0  0  0  0  0  0  0  0  0  0  0
   24.3958  -22.4851  -13.2025 C   0  0  0  0  0  0  0  0  0  0  0  0
   23.5032  -21.8897  -13.8553 O   0  0  0  0  0  0  0  0  0  0  0  0
   24.4466  -23.8830  -13.1489 N   0  0  0  0  0  0  0  0  0  0  0  0
   23.5803  -24.7157  -13.9403 C   0  0  0  0  0  0  0  0  0  0  0  0
   22.1593  -24.5305  -13.6118 C   0  0  0  0  0  0  0  0  0  0  0  0
   21.1429  -25.2317  -14.2315 O   0  0  0  0  0  0  0  0  0  0  0  0
   21.8494  -23.6957  -12.7255 O   0  0  0  0  0  0  0  0  0  0  0  0
  1  2  1  0
  3  2  1  0
  3  4  1  6
  5  3  1  0
  5  6  1  1
  7  5  1  0
  7  8  2  0
  9  7  1  0
 10 21  1  0
 10  9  1  0
 10 11  1  1
 12 13  2  0
 12 11  1  0
 14 13  1  0
 15 20  2  0
 15 14  1  0
 16 15  1  0
 17 18  1  0
 17 16  2  0
 18 19  2  0
 19 20  1  0
 20 12  1  0
 21 23  1  0
 22 21  2  0
 23 24  1  0
 24 25  1  0
 25 27  2  0
 25 26  1  0
M  END
$$$$
