IWG.pdb
     RDKit          3D

 27 28  0  0  1  0  0  0  0  0999 V2000
   28.3104  -17.5241  -16.9285 C   0  0  0  0  0  0  0  0  0  0  0  0
   28.8355  -18.3116  -15.7292 C   0  0  0  0  0  0  0  0  0  0  0  0
   27.7575  -19.1800  -15.1417 C   0  0  2  0  0  0  0  0  0  0  0  0
   26.5787  -18.2934  -14.7780 C   0  0  0  0  0  0  0  0  0  0  0  0
   28.2117  -19.9601  -13.9503 C   0  0  2  0  0  0  0  0  0  0  0  0
   29.2766  -20.8597  -14.3647 N   0  0  0  0  0  0  0  0  0  0  0  0
   27.1118  -20.7589  -13.4083 C   0  0  0  0  0  0  0  0  0  0  0  0
   26.7594  -21.8182  -13.9883 O   0  0  0  0  0  0  0  0  0  0  0  0
   26.3657  -20.4226  -12.2201 N   0  0  0  0  0  0  0  0  0  0  0  0
   25.3080  -21.2391  -11.7365 C   0  0  1  0  0  0  0  0  0  0  0  0
   25.2034  -21.4522  -10.2803 C   0  0  0  0  0  0  0  0  0  0  0  0
   26.2234  -20.8161   -9.4441 C   0  0  0  0  0  0  0  0  0  0  0  0
   26.0877  -19.8159   -8.5186 C   0  0  0  0  0  0  0  0  0  0  0  0
   27.2903  -19.5360   -7.9622 N   0  0  0  0  0  0  0  0  0  0  0  0
   28.2218  -20.3554   -8.5235 C   0  0  0  0  0  0  0  0  0  0  0  0
   29.5807  -20.4759   -8.3085 C   0  0  0  0  0  0  0  0  0  0  0  0
   30.3209  -21.3985   -9.0098 C   0  0  0  0  0  0  0  0  0  0  0  0
   29.6786  -22.1968   -9.9283 C   0  0  0  0  0  0  0  0  0  0  0  0
   28.3266  -22.0681  -10.1342 C   0  0  0  0  0  0  0  0  0  0  0  0
   27.5662  -21.1365   -9.4290 C   0  0  0  0  0  0  0  0  0  0  0  0
   23.9713  -20.8133  -12.2837 C   0  0  0  0  0  0  0  0  0  0  0  0
   23.7562  -19.5765  -12.3184 O   0  0  0  0  0  0  0  0  0  0  0  0
   23.0131  -21.7304  -12.7315 N   0  0  0  0  0  0  0  0  0  0  0  0
   21.8101  -21.3195  -13.4054 C   0  0  0  0  0  0  0  0  0  0  0  0
   20.7183  -21.0004  -12.4739 C   0  0  0  0  0  0  0  0  0  0  0  0
   20.8575  -21.0523  -11.1004 O   0  0  0  0  0  0  0  0  0  0  0  0
   19.6033  -20.6637  -12.9450 O   0  0  0  0  0  0  0  0  0  0  0  0
  1  2  1  0
  3  2  1  0
  3  4  1  1
  5  3  1  0
  5  6  1  6
  7  5  1  0
  7  8  2  0
  9  7  1  0
 10 21  1  0
 10  9  1  0
 10 11  1  1
 12 13  2  0
 12 11  1  0
 14 13  1  0
 15 20  2  0
 15 14  1  0
 16 15  1  0
 17 18  1  0
 17 16  2  0
 18 19  2  0
 19 20  1  0
 20 12  1  0
 21 23  1  0
 22 21  2  0
 23 24  1  0
 24 25  1  0
 25 27  2  0
 25 26  1  0
M  END
$$$$
