IWG.pdb
     RDKit          3D

 27 28  0  0  1  0  0  0  0  0999 V2000
   20.0145  -13.7507  -19.8399 C   0  0  0  0  0  0  0  0  0  0  0  0
   20.2135  -12.2724  -20.1706 C   0  0  0  0  0  0  0  0  0  0  0  0
   20.0886  -11.4230  -18.9359 C   0  0  2  0  0  0  0  0  0  0  0  0
   18.7501  -11.7259  -18.2843 C   0  0  0  0  0  0  0  0  0  0  0  0
   20.2165   -9.9594  -19.2109 C   0  0  2  0  0  0  0  0  0  0  0  0
   21.5172   -9.7136  -19.8134 N   0  0  0  0  0  0  0  0  0  0  0  0
   20.1266   -9.1924  -17.9678 C   0  0  0  0  0  0  0  0  0  0  0  0
   19.1319   -9.3366  -17.2112 O   0  0  0  0  0  0  0  0  0  0  0  0
   21.1186   -8.2464  -17.5176 N   0  0  0  0  0  0  0  0  0  0  0  0
   20.9352   -7.4590  -16.3490 C   0  0  1  0  0  0  0  0  0  0  0  0
   22.0197   -7.4349  -15.3488 C   0  0  0  0  0  0  0  0  0  0  0  0
   22.5912   -8.7264  -14.9622 C   0  0  0  0  0  0  0  0  0  0  0  0
   21.9682   -9.8339  -14.4516 C   0  0  0  0  0  0  0  0  0  0  0  0
   22.8741  -10.8198  -14.2474 N   0  0  0  0  0  0  0  0  0  0  0  0
   24.0987  -10.3596  -14.6252 C   0  0  0  0  0  0  0  0  0  0  0  0
   25.3416  -10.9618  -14.6221 C   0  0  0  0  0  0  0  0  0  0  0  0
   26.4505  -10.2797  -15.0647 C   0  0  0  0  0  0  0  0  0  0  0  0
   26.2942   -8.9869  -15.5095 C   0  0  0  0  0  0  0  0  0  0  0  0
   25.0533   -8.3979  -15.5077 C   0  0  0  0  0  0  0  0  0  0  0  0
   23.9222   -9.0797  -15.0615 C   0  0  0  0  0  0  0  0  0  0  0  0
   20.5178   -6.0501  -16.6779 C   0  0  0  0  0  0  0  0  0  0  0  0
   21.3482   -5.3635  -17.3233 O   0  0  0  0  0  0  0  0  0  0  0  0
   19.2799   -5.5213  -16.2938 N   0  0  0  0  0  0  0  0  0  0  0  0
   18.8369   -4.2174  -16.7109 C   0  0  0  0  0  0  0  0  0  0  0  0
   19.3527   -3.1410  -15.8525 C   0  0  0  0  0  0  0  0  0  0  0  0
   19.0478   -1.8076  -16.0471 O   0  0  0  0  0  0  0  0  0  0  0  0
   20.1073   -3.4434  -14.8945 O   0  0  0  0  0  0  0  0  0  0  0  0
  1  2  1  0
  3  2  1  0
  3  4  1  6
  5  3  1  0
  5  6  1  1
  7  5  1  0
  7  8  2  0
  9  7  1  0
 10 21  1  0
 10  9  1  0
 10 11  1  6
 12 13  2  0
 12 11  1  0
 14 13  1  0
 15 20  2  0
 15 14  1  0
 16 15  1  0
 17 18  1  0
 17 16  2  0
 18 19  2  0
 19 20  1  0
 20 12  1  0
 21 23  1  0
 22 21  2  0
 23 24  1  0
 24 25  1  0
 25 27  2  0
 25 26  1  0
M  END
$$$$
