IWG.pdb
     RDKit          3D

 27 28  0  0  1  0  0  0  0  0999 V2000
   27.0977  -17.0375  -17.2577 C   0  0  0  0  0  0  0  0  0  0  0  0
   27.8386  -17.4080  -15.9740 C   0  0  0  0  0  0  0  0  0  0  0  0
   27.2097  -18.6049  -15.3157 C   0  0  2  0  0  0  0  0  0  0  0  0
   25.7275  -18.3243  -15.1364 C   0  0  0  0  0  0  0  0  0  0  0  0
   27.8374  -18.9556  -14.0052 C   0  0  2  0  0  0  0  0  0  0  0  0
   29.2349  -19.2861  -14.2351 N   0  0  0  0  0  0  0  0  0  0  0  0
   27.1752  -20.1182  -13.4123 C   0  0  0  0  0  0  0  0  0  0  0  0
   27.4409  -21.2741  -13.8317 O   0  0  0  0  0  0  0  0  0  0  0  0
   26.2043  -20.0508  -12.3472 N   0  0  0  0  0  0  0  0  0  0  0  0
   25.6181  -21.2168  -11.7852 C   0  0  1  0  0  0  0  0  0  0  0  0
   25.3458  -21.2291  -10.3351 C   0  0  0  0  0  0  0  0  0  0  0  0
   26.4108  -20.7378   -9.4584 C   0  0  0  0  0  0  0  0  0  0  0  0
   26.3582  -19.7806   -8.4805 C   0  0  0  0  0  0  0  0  0  0  0  0
   27.5750  -19.6455   -7.9013 N   0  0  0  0  0  0  0  0  0  0  0  0
   28.4324  -20.5175   -8.5002 C   0  0  0  0  0  0  0  0  0  0  0  0
   29.7714  -20.7767   -8.2828 C   0  0  0  0  0  0  0  0  0  0  0  0
   30.4303  -21.7258   -9.0284 C   0  0  0  0  0  0  0  0  0  0  0  0
   29.7272  -22.4095   -9.9936 C   0  0  0  0  0  0  0  0  0  0  0  0
   28.3957  -22.1432  -10.2014 C   0  0  0  0  0  0  0  0  0  0  0  0
   27.7175  -21.1835   -9.4516 C   0  0  0  0  0  0  0  0  0  0  0  0
   24.3854  -21.6463  -12.5359 C   0  0  0  0  0  0  0  0  0  0  0  0
   23.4777  -20.7856  -12.6474 O   0  0  0  0  0  0  0  0  0  0  0  0
   24.2440  -22.9269  -13.0834 N   0  0  0  0  0  0  0  0  0  0  0  0
   23.0505  -23.3424  -13.7713 C   0  0  0  0  0  0  0  0  0  0  0  0
   22.6763  -22.4293  -14.8611 C   0  0  0  0  0  0  0  0  0  0  0  0
   21.5244  -21.6666  -14.8458 O   0  0  0  0  0  0  0  0  0  0  0  0
   23.4374  -22.3346  -15.8562 O   0  0  0  0  0  0  0  0  0  0  0  0
  1  2  1  0
  3  2  1  0
  3  4  1  1
  5  3  1  0
  5  6  1  6
  7  5  1  0
  7  8  2  0
  9  7  1  0
 10 21  1  0
 10  9  1  0
 10 11  1  1
 12 13  2  0
 12 11  1  0
 14 13  1  0
 15 20  2  0
 15 14  1  0
 16 15  1  0
 17 18  1  0
 17 16  2  0
 18 19  2  0
 19 20  1  0
 20 12  1  0
 21 23  1  0
 22 21  2  0
 23 24  1  0
 24 25  1  0
 25 27  2  0
 25 26  1  0
M  END
$$$$
