IWG.pdb
     RDKit          3D

 27 28  0  0  1  0  0  0  0  0999 V2000
   12.1900  -22.5180    4.9227 C   0  0  0  0  0  0  0  0  0  0  0  0
   12.5729  -21.0678    4.6318 C   0  0  0  0  0  0  0  0  0  0  0  0
   14.0572  -20.8660    4.7646 C   0  0  2  0  0  0  0  0  0  0  0  0
   14.4660  -21.2593    6.1739 C   0  0  0  0  0  0  0  0  0  0  0  0
   14.4919  -19.4674    4.4656 C   0  0  2  0  0  0  0  0  0  0  0  0
   14.1539  -19.1631    3.0842 N   0  0  0  0  0  0  0  0  0  0  0  0
   15.9395  -19.3319    4.6317 C   0  0  0  0  0  0  0  0  0  0  0  0
   16.7156  -19.7254    3.7231 O   0  0  0  0  0  0  0  0  0  0  0  0
   16.5793  -18.7650    5.7940 N   0  0  0  0  0  0  0  0  0  0  0  0
   17.9878  -18.5938    5.8722 C   0  0  1  0  0  0  0  0  0  0  0  0
   18.5248  -17.2200    5.8363 C   0  0  0  0  0  0  0  0  0  0  0  0
   18.2025  -16.4148    4.6565 C   0  0  0  0  0  0  0  0  0  0  0  0
   17.5926  -15.1910    4.5804 C   0  0  0  0  0  0  0  0  0  0  0  0
   17.5024  -14.8002    3.2868 N   0  0  0  0  0  0  0  0  0  0  0  0
   18.0554  -15.7706    2.5078 C   0  0  0  0  0  0  0  0  0  0  0  0
   18.2176  -15.8614    1.1393 C   0  0  0  0  0  0  0  0  0  0  0  0
   18.8218  -16.9617    0.5779 C   0  0  0  0  0  0  0  0  0  0  0  0
   19.2600  -17.9676    1.4084 C   0  0  0  0  0  0  0  0  0  0  0  0
   19.0932  -17.8668    2.7681 C   0  0  0  0  0  0  0  0  0  0  0  0
   18.4822  -16.7561    3.3483 C   0  0  0  0  0  0  0  0  0  0  0  0
   18.5830  -19.3403    7.0366 C   0  0  0  0  0  0  0  0  0  0  0  0
   17.9478  -19.2757    8.1181 O   0  0  0  0  0  0  0  0  0  0  0  0
   19.7743  -20.0684    6.9359 N   0  0  0  0  0  0  0  0  0  0  0  0
   20.3072  -20.8286    8.0351 C   0  0  0  0  0  0  0  0  0  0  0  0
   21.1172  -20.0118    8.9506 C   0  0  0  0  0  0  0  0  0  0  0  0
   21.7264  -20.5224   10.0806 O   0  0  0  0  0  0  0  0  0  0  0  0
   21.2657  -18.7902    8.6972 O   0  0  0  0  0  0  0  0  0  0  0  0
  1  2  1  0
  3  2  1  0
  3  4  1  1
  5  3  1  0
  5  6  1  6
  7  5  1  0
  7  8  2  0
  9  7  1  0
 10 21  1  0
 10  9  1  0
 10 11  1  1
 12 13  2  0
 12 11  1  0
 14 13  1  0
 15 20  2  0
 15 14  1  0
 16 15  1  0
 17 18  1  0
 17 16  2  0
 18 19  2  0
 19 20  1  0
 20 12  1  0
 21 23  1  0
 22 21  2  0
 23 24  1  0
 24 25  1  0
 25 27  2  0
 25 26  1  0
M  END
$$$$
