CQP.pdb
     RDKit          3D

 23 23  0  0  1  0  0  0  0  0999 V2000
    7.4371  -15.7520   18.9466 N   0  0  0  0  0  0  0  0  0  0  0  0
    8.4346  -15.4447   19.9409 C   0  0  1  0  0  0  0  0  0  0  0  0
    9.1215  -14.1406   19.5661 C   0  0  0  0  0  0  0  0  0  0  0  0
    7.9295  -12.7824   19.4978 S   0  0  0  0  0  0  0  0  0  0  0  0
    7.7432  -15.2359   21.2490 C   0  0  0  0  0  0  0  0  0  0  0  0
    6.6222  -14.6699   21.2658 O   0  0  0  0  0  0  0  0  0  0  0  0
    6.3814  -19.4043   24.9600 N   0  0  0  0  0  0  0  0  0  0  0  0
    6.0244  -18.8929   23.6651 C   0  0  0  0  0  0  0  0  0  0  0  0
    5.4006  -19.6581   22.8969 O   0  0  0  0  0  0  0  0  0  0  0  0
    6.3766  -17.5336   23.2676 C   0  0  0  0  0  0  0  0  0  0  0  0
    7.1926  -16.7695   24.2496 C   0  0  0  0  0  0  0  0  0  0  0  0
    7.5575  -15.4097   23.6984 C   0  0  2  0  0  0  0  0  0  0  0  0
    8.3127  -15.6568   22.4733 N   0  0  0  0  0  0  0  0  0  0  0  0
    8.4390  -14.6779   24.6631 C   0  0  0  0  0  0  0  0  0  0  0  0
    9.6753  -14.7174   24.4524 O   0  0  0  0  0  0  0  0  0  0  0  0
    7.9261  -13.9714   25.7624 N   0  0  0  0  0  0  0  0  0  0  0  0
    6.5434  -13.6966   26.0390 C   0  0  0  0  0  0  0  0  0  0  0  0
    6.5868  -12.3349   26.7210 C   0  0  0  0  0  0  0  0  0  0  0  0
    8.0307  -12.0370   26.9977 C   0  0  0  0  0  0  0  0  0  0  0  0
    8.6964  -13.3803   26.8262 C   0  0  1  0  0  0  0  0  0  0  0  0
    8.5887  -14.1957   28.0634 C   0  0  0  0  0  0  0  0  0  0  0  0
    7.7188  -15.2566   28.1122 O   0  0  0  0  0  0  0  0  0  0  0  0
    9.3078  -13.8921   29.0546 O   0  0  0  0  0  0  0  0  0  0  0  0
  2  1  1  6
  3  2  1  0
  4  3  1  0
  5  2  1  0
  5  6  2  0
  7  8  1  0
  8 10  1  0
  9  8  2  0
 10 11  1  0
 12 11  1  1
 12 13  1  0
 12 14  1  0
 13  5  1  0
 14 16  1  0
 15 14  2  0
 16 20  1  0
 16 17  1  0
 17 18  1  0
 19 18  1  0
 20 19  1  0
 21 22  1  0
 20 21  1  1
 23 21  2  0
M  END
$$$$
