CQP.pdb
     RDKit          3D

 23 23  0  0  1  0  0  0  0  0999 V2000
    6.9025  -16.0861   19.1895 N   0  0  0  0  0  0  0  0  0  0  0  0
    7.6925  -15.1551   19.9558 C   0  0  1  0  0  0  0  0  0  0  0  0
    7.4697  -13.7523   19.4122 C   0  0  0  0  0  0  0  0  0  0  0  0
    8.3880  -12.5333   20.3821 S   0  0  0  0  0  0  0  0  0  0  0  0
    7.2054  -15.1790   21.3682 C   0  0  0  0  0  0  0  0  0  0  0  0
    5.9999  -14.9179   21.6048 O   0  0  0  0  0  0  0  0  0  0  0  0
    7.8420  -19.5645   25.3975 N   0  0  0  0  0  0  0  0  0  0  0  0
    7.1531  -18.5345   26.1255 C   0  0  0  0  0  0  0  0  0  0  0  0
    6.7038  -18.8310   27.2547 O   0  0  0  0  0  0  0  0  0  0  0  0
    6.9881  -17.1968   25.5660 C   0  0  0  0  0  0  0  0  0  0  0  0
    7.4820  -17.0188   24.1737 C   0  0  0  0  0  0  0  0  0  0  0  0
    7.4748  -15.5572   23.7866 C   0  0  2  0  0  0  0  0  0  0  0  0
    8.0613  -15.4874   22.4511 N   0  0  0  0  0  0  0  0  0  0  0  0
    8.3324  -14.7670   24.7264 C   0  0  0  0  0  0  0  0  0  0  0  0
    9.5573  -14.6980   24.4631 O   0  0  0  0  0  0  0  0  0  0  0  0
    7.8099  -14.1226   25.8588 N   0  0  0  0  0  0  0  0  0  0  0  0
    6.4375  -14.1071   26.2829 C   0  0  0  0  0  0  0  0  0  0  0  0
    6.2841  -12.7326   26.9219 C   0  0  0  0  0  0  0  0  0  0  0  0
    7.6622  -12.1494   27.0263 C   0  0  0  0  0  0  0  0  0  0  0  0
    8.5571  -13.3455   26.8139 C   0  0  1  0  0  0  0  0  0  0  0  0
    8.7437  -14.1083   28.0751 C   0  0  0  0  0  0  0  0  0  0  0  0
    9.5660  -13.6171   29.0585 O   0  0  0  0  0  0  0  0  0  0  0  0
    8.1350  -15.2043   28.2170 O   0  0  0  0  0  0  0  0  0  0  0  0
  2  1  1  6
  3  2  1  0
  4  3  1  0
  5  2  1  0
  5  6  2  0
  7  8  1  0
  8 10  1  0
  9  8  2  0
 10 11  1  0
 12 11  1  1
 12 13  1  0
 12 14  1  0
 13  5  1  0
 14 16  1  0
 15 14  2  0
 16 20  1  0
 16 17  1  0
 17 18  1  0
 19 18  1  0
 20 19  1  0
 21 22  1  0
 20 21  1  1
 23 21  2  0
M  END
$$$$
