CQP.pdb
     RDKit          3D

 23 23  0  0  1  0  0  0  0  0999 V2000
    6.8114  -16.1598   19.1773 N   0  0  0  0  0  0  0  0  0  0  0  0
    7.6670  -15.3123   19.9697 C   0  0  1  0  0  0  0  0  0  0  0  0
    7.5567  -13.8834   19.4607 C   0  0  0  0  0  0  0  0  0  0  0  0
    8.4434  -12.7429   20.5485 S   0  0  0  0  0  0  0  0  0  0  0  0
    7.1715  -15.3333   21.3792 C   0  0  0  0  0  0  0  0  0  0  0  0
    5.9397  -15.2213   21.5972 O   0  0  0  0  0  0  0  0  0  0  0  0
    7.7480  -19.6367   25.3291 N   0  0  0  0  0  0  0  0  0  0  0  0
    7.1876  -18.5804   26.1264 C   0  0  0  0  0  0  0  0  0  0  0  0
    6.8182  -18.8695   27.2861 O   0  0  0  0  0  0  0  0  0  0  0  0
    7.0581  -17.2254   25.6001 C   0  0  0  0  0  0  0  0  0  0  0  0
    7.5558  -17.0266   24.2119 C   0  0  0  0  0  0  0  0  0  0  0  0
    7.4606  -15.5713   23.8132 C   0  0  2  0  0  0  0  0  0  0  0  0
    8.0483  -15.4757   22.4798 N   0  0  0  0  0  0  0  0  0  0  0  0
    8.2633  -14.7225   24.7504 C   0  0  0  0  0  0  0  0  0  0  0  0
    9.4814  -14.5744   24.4881 O   0  0  0  0  0  0  0  0  0  0  0  0
    7.6983  -14.1091   25.8796 N   0  0  0  0  0  0  0  0  0  0  0  0
    6.3698  -14.3045   26.3902 C   0  0  0  0  0  0  0  0  0  0  0  0
    6.0120  -12.9402   26.9662 C   0  0  0  0  0  0  0  0  0  0  0  0
    7.2696  -12.1225   26.9512 C   0  0  0  0  0  0  0  0  0  0  0  0
    8.3481  -13.1571   26.7432 C   0  0  1  0  0  0  0  0  0  0  0  0
    8.7346  -13.7967   28.0272 C   0  0  0  0  0  0  0  0  0  0  0  0
    8.4113  -15.1096   28.2643 O   0  0  0  0  0  0  0  0  0  0  0  0
    9.3594  -13.1112   28.8826 O   0  0  0  0  0  0  0  0  0  0  0  0
  2  1  1  6
  3  2  1  0
  4  3  1  0
  5  2  1  0
  5  6  2  0
  7  8  1  0
  8 10  1  0
  9  8  2  0
 10 11  1  0
 12 11  1  1
 12 13  1  0
 12 14  1  0
 13  5  1  0
 14 16  1  0
 15 14  2  0
 16 20  1  0
 16 17  1  0
 17 18  1  0
 19 18  1  0
 20 19  1  0
 21 22  1  0
 20 21  1  1
 23 21  2  0
M  END
$$$$
