CQP.pdb
     RDKit          3D

 23 23  0  0  1  0  0  0  0  0999 V2000
    6.8066  -16.1302   19.2467 N   0  0  0  0  0  0  0  0  0  0  0  0
    7.7073  -15.3062   20.0134 C   0  0  1  0  0  0  0  0  0  0  0  0
    7.6507  -13.8828   19.4806 C   0  0  0  0  0  0  0  0  0  0  0  0
    8.5829  -12.7591   20.5476 S   0  0  0  0  0  0  0  0  0  0  0  0
    7.2300  -15.2820   21.4290 C   0  0  0  0  0  0  0  0  0  0  0  0
    5.9982  -15.1958   21.6587 O   0  0  0  0  0  0  0  0  0  0  0  0
    7.5976  -19.6725   25.0888 N   0  0  0  0  0  0  0  0  0  0  0  0
    7.0685  -18.6474   25.9461 C   0  0  0  0  0  0  0  0  0  0  0  0
    6.6543  -18.9979   27.0732 O   0  0  0  0  0  0  0  0  0  0  0  0
    7.0198  -17.2542   25.5147 C   0  0  0  0  0  0  0  0  0  0  0  0
    7.5422  -16.9878   24.1471 C   0  0  0  0  0  0  0  0  0  0  0  0
    7.5564  -15.5034   23.8599 C   0  0  2  0  0  0  0  0  0  0  0  0
    8.1239  -15.3534   22.5228 N   0  0  0  0  0  0  0  0  0  0  0  0
    8.4426  -14.7940   24.8368 C   0  0  0  0  0  0  0  0  0  0  0  0
    9.6788  -14.8389   24.6259 O   0  0  0  0  0  0  0  0  0  0  0  0
    7.9343  -14.1020   25.9474 N   0  0  0  0  0  0  0  0  0  0  0  0
    6.5618  -14.0390   26.3671 C   0  0  0  0  0  0  0  0  0  0  0  0
    6.4419  -12.6420   26.9631 C   0  0  0  0  0  0  0  0  0  0  0  0
    7.8340  -12.0907   27.0532 C   0  0  0  0  0  0  0  0  0  0  0  0
    8.6989  -13.3149   26.8802 C   0  0  1  0  0  0  0  0  0  0  0  0
    8.8637  -14.0429   28.1648 C   0  0  0  0  0  0  0  0  0  0  0  0
    9.7176  -13.5573   29.1238 O   0  0  0  0  0  0  0  0  0  0  0  0
    8.2074  -15.1046   28.3490 O   0  0  0  0  0  0  0  0  0  0  0  0
  2  1  1  6
  3  2  1  0
  4  3  1  0
  5  2  1  0
  5  6  2  0
  7  8  1  0
  8 10  1  0
  9  8  2  0
 10 11  1  0
 12 11  1  1
 12 13  1  0
 12 14  1  0
 13  5  1  0
 14 16  1  0
 15 14  2  0
 16 20  1  0
 16 17  1  0
 17 18  1  0
 19 18  1  0
 20 19  1  0
 21 22  1  0
 20 21  1  1
 23 21  2  0
M  END
$$$$
