CQP.pdb
     RDKit          3D

 23 23  0  0  1  0  0  0  0  0999 V2000
    7.1051  -15.3015   19.1199 N   0  0  0  0  0  0  0  0  0  0  0  0
    7.9353  -14.6261   20.0858 C   0  0  1  0  0  0  0  0  0  0  0  0
    7.8562  -13.1267   19.8438 C   0  0  0  0  0  0  0  0  0  0  0  0
    8.8352  -12.6561   18.3980 S   0  0  0  0  0  0  0  0  0  0  0  0
    7.3845  -14.8974   21.4480 C   0  0  0  0  0  0  0  0  0  0  0  0
    6.1574  -14.7302   21.6569 O   0  0  0  0  0  0  0  0  0  0  0  0
    6.6681  -19.7541   24.7285 N   0  0  0  0  0  0  0  0  0  0  0  0
    6.9747  -18.7723   25.7323 C   0  0  0  0  0  0  0  0  0  0  0  0
    7.1829  -19.1845   26.8949 O   0  0  0  0  0  0  0  0  0  0  0  0
    7.0411  -17.3522   25.4030 C   0  0  0  0  0  0  0  0  0  0  0  0
    7.5116  -17.0342   24.0277 C   0  0  0  0  0  0  0  0  0  0  0  0
    7.5782  -15.5383   23.8178 C   0  0  2  0  0  0  0  0  0  0  0  0
    8.2035  -15.3381   22.5135 N   0  0  0  0  0  0  0  0  0  0  0  0
    8.4431  -14.9053   24.8639 C   0  0  0  0  0  0  0  0  0  0  0  0
    9.6845  -15.0360   24.7364 O   0  0  0  0  0  0  0  0  0  0  0  0
    7.9098  -14.1916   25.9487 N   0  0  0  0  0  0  0  0  0  0  0  0
    6.5189  -14.0137   26.2609 C   0  0  0  0  0  0  0  0  0  0  0  0
    6.4745  -12.6231   26.8816 C   0  0  0  0  0  0  0  0  0  0  0  0
    7.8979  -12.2006   27.0951 C   0  0  0  0  0  0  0  0  0  0  0  0
    8.6630  -13.4940   26.9588 C   0  0  1  0  0  0  0  0  0  0  0  0
    8.6593  -14.2578   28.2330 C   0  0  0  0  0  0  0  0  0  0  0  0
    7.9389  -15.4222   28.3327 O   0  0  0  0  0  0  0  0  0  0  0  0
    9.3264  -13.8147   29.2080 O   0  0  0  0  0  0  0  0  0  0  0  0
  2  1  1  6
  3  2  1  0
  4  3  1  0
  5  2  1  0
  5  6  2  0
  7  8  1  0
  8 10  1  0
  9  8  2  0
 10 11  1  0
 12 11  1  1
 12 13  1  0
 12 14  1  0
 13  5  1  0
 14 16  1  0
 15 14  2  0
 16 20  1  0
 16 17  1  0
 17 18  1  0
 19 18  1  0
 20 19  1  0
 21 22  1  0
 20 21  1  1
 23 21  2  0
M  END
$$$$
