CQP.pdb
     RDKit          3D

 23 23  0  0  1  0  0  0  0  0999 V2000
    6.7094  -15.8604   19.1200 N   0  0  0  0  0  0  0  0  0  0  0  0
    7.5790  -15.0007   19.8834 C   0  0  1  0  0  0  0  0  0  0  0  0
    7.4007  -13.5675   19.4069 C   0  0  0  0  0  0  0  0  0  0  0  0
    8.7575  -12.5229   19.9885 S   0  0  0  0  0  0  0  0  0  0  0  0
    7.1572  -15.0605   21.3156 C   0  0  0  0  0  0  0  0  0  0  0  0
    5.9718  -14.7754   21.6174 O   0  0  0  0  0  0  0  0  0  0  0  0
    8.2713  -19.5038   25.5753 N   0  0  0  0  0  0  0  0  0  0  0  0
    7.2015  -18.6110   25.9275 C   0  0  0  0  0  0  0  0  0  0  0  0
    6.2774  -19.0716   26.6338 O   0  0  0  0  0  0  0  0  0  0  0  0
    7.1987  -17.2227   25.4780 C   0  0  0  0  0  0  0  0  0  0  0  0
    7.5589  -17.0104   24.0500 C   0  0  0  0  0  0  0  0  0  0  0  0
    7.5252  -15.5391   23.7031 C   0  0  2  0  0  0  0  0  0  0  0  0
    8.0532  -15.4291   22.3460 N   0  0  0  0  0  0  0  0  0  0  0  0
    8.4171  -14.7674   24.6262 C   0  0  0  0  0  0  0  0  0  0  0  0
    9.6421  -14.7476   24.3551 O   0  0  0  0  0  0  0  0  0  0  0  0
    7.9257  -14.0877   25.7518 N   0  0  0  0  0  0  0  0  0  0  0  0
    6.5487  -13.9391   26.1335 C   0  0  0  0  0  0  0  0  0  0  0  0
    6.5136  -12.5641   26.7889 C   0  0  0  0  0  0  0  0  0  0  0  0
    7.9392  -12.1243   26.9448 C   0  0  0  0  0  0  0  0  0  0  0  0
    8.7159  -13.4019   26.7415 C   0  0  1  0  0  0  0  0  0  0  0  0
    8.7841  -14.1951   27.9958 C   0  0  0  0  0  0  0  0  0  0  0  0
    8.0784  -15.3676   28.1052 O   0  0  0  0  0  0  0  0  0  0  0  0
    9.4979  -13.7692   28.9450 O   0  0  0  0  0  0  0  0  0  0  0  0
  2  1  1  6
  3  2  1  0
  4  3  1  0
  5  2  1  0
  5  6  2  0
  7  8  1  0
  8 10  1  0
  9  8  2  0
 10 11  1  0
 12 11  1  1
 12 13  1  0
 12 14  1  0
 13  5  1  0
 14 16  1  0
 15 14  2  0
 16 20  1  0
 16 17  1  0
 17 18  1  0
 19 18  1  0
 20 19  1  0
 21 22  1  0
 20 21  1  1
 23 21  2  0
M  END
$$$$
