CQP.pdb
     RDKit          3D

 23 23  0  0  1  0  0  0  0  0999 V2000
    4.9847  -19.7572   24.8051 N   0  0  0  0  0  0  0  0  0  0  0  0
    6.2502  -19.3994   24.2144 C   0  0  1  0  0  0  0  0  0  0  0  0
    6.3556  -20.0451   22.8415 C   0  0  0  0  0  0  0  0  0  0  0  0
    7.9066  -19.5865   22.0326 S   0  0  0  0  0  0  0  0  0  0  0  0
    6.2760  -17.9177   24.0242 C   0  0  0  0  0  0  0  0  0  0  0  0
    5.2999  -17.3542   23.4701 O   0  0  0  0  0  0  0  0  0  0  0  0
    9.3951  -13.0619   26.9635 N   0  0  0  0  0  0  0  0  0  0  0  0
    8.9735  -14.4158   27.1979 C   0  0  0  0  0  0  0  0  0  0  0  0
    9.4108  -14.9847   28.2226 O   0  0  0  0  0  0  0  0  0  0  0  0
    8.0698  -15.0950   26.2751 C   0  0  0  0  0  0  0  0  0  0  0  0
    8.4689  -15.0568   24.8422 C   0  0  0  0  0  0  0  0  0  0  0  0
    7.4346  -15.7450   23.9805 C   0  0  2  0  0  0  0  0  0  0  0  0
    7.3683  -17.1263   24.4497 N   0  0  0  0  0  0  0  0  0  0  0  0
    7.8711  -15.7480   22.5478 C   0  0  0  0  0  0  0  0  0  0  0  0
    8.0377  -16.8657   22.0023 O   0  0  0  0  0  0  0  0  0  0  0  0
    8.0901  -14.5638   21.8265 N   0  0  0  0  0  0  0  0  0  0  0  0
    7.9968  -13.2211   22.3288 C   0  0  0  0  0  0  0  0  0  0  0  0
    7.4906  -12.4325   21.1276 C   0  0  0  0  0  0  0  0  0  0  0  0
    7.5579  -13.3550   19.9467 C   0  0  0  0  0  0  0  0  0  0  0  0
    8.4482  -14.4713   20.4346 C   0  0  1  0  0  0  0  0  0  0  0  0
    9.8836  -14.1177   20.2876 C   0  0  0  0  0  0  0  0  0  0  0  0
   10.4839  -14.1851   19.0548 O   0  0  0  0  0  0  0  0  0  0  0  0
   10.5280  -13.7587   21.3112 O   0  0  0  0  0  0  0  0  0  0  0  0
  2  1  1  6
  3  2  1  0
  4  3  1  0
  5  2  1  0
  5  6  2  0
  7  8  1  0
  8 10  1  0
  9  8  2  0
 10 11  1  0
 12 11  1  1
 12 13  1  0
 12 14  1  0
 13  5  1  0
 14 16  1  0
 15 14  2  0
 16 20  1  0
 16 17  1  0
 17 18  1  0
 19 18  1  0
 20 19  1  0
 21 22  1  0
 20 21  1  1
 23 21  2  0
M  END
$$$$
