CQP.pdb
     RDKit          3D

 23 23  0  0  1  0  0  0  0  0999 V2000
    6.8970  -15.7280   18.9367 N   0  0  0  0  0  0  0  0  0  0  0  0
    7.7431  -14.9387   19.7965 C   0  0  1  0  0  0  0  0  0  0  0  0
    7.6265  -13.4756   19.3979 C   0  0  0  0  0  0  0  0  0  0  0  0
    8.5091  -12.4176   20.5691 S   0  0  0  0  0  0  0  0  0  0  0  0
    7.2406  -15.0706   21.1974 C   0  0  0  0  0  0  0  0  0  0  0  0
    6.0126  -14.9343   21.4231 O   0  0  0  0  0  0  0  0  0  0  0  0
    7.5883  -19.5663   25.0135 N   0  0  0  0  0  0  0  0  0  0  0  0
    7.1115  -18.5006   25.8517 C   0  0  0  0  0  0  0  0  0  0  0  0
    6.7143  -18.8048   26.9983 O   0  0  0  0  0  0  0  0  0  0  0  0
    7.0948  -17.1197   25.3800 C   0  0  0  0  0  0  0  0  0  0  0  0
    7.5709  -16.9128   23.9855 C   0  0  0  0  0  0  0  0  0  0  0  0
    7.5200  -15.4478   23.6149 C   0  0  2  0  0  0  0  0  0  0  0  0
    8.1065  -15.3450   22.2816 N   0  0  0  0  0  0  0  0  0  0  0  0
    8.3514  -14.6426   24.5654 C   0  0  0  0  0  0  0  0  0  0  0  0
    9.5866  -14.5971   24.3487 O   0  0  0  0  0  0  0  0  0  0  0  0
    7.7945  -13.9598   25.6582 N   0  0  0  0  0  0  0  0  0  0  0  0
    6.3986  -13.8370   25.9748 C   0  0  0  0  0  0  0  0  0  0  0  0
    6.3038  -12.4549   26.6090 C   0  0  0  0  0  0  0  0  0  0  0  0
    7.7109  -11.9816   26.8237 C   0  0  0  0  0  0  0  0  0  0  0  0
    8.5235  -13.2441   26.6734 C   0  0  1  0  0  0  0  0  0  0  0  0
    8.5514  -14.0197   27.9402 C   0  0  0  0  0  0  0  0  0  0  0  0
    9.3728  -13.6265   28.9674 O   0  0  0  0  0  0  0  0  0  0  0  0
    7.8104  -15.0355   28.0461 O   0  0  0  0  0  0  0  0  0  0  0  0
  2  1  1  6
  3  2  1  0
  4  3  1  0
  5  2  1  0
  5  6  2  0
  7  8  1  0
  8 10  1  0
  9  8  2  0
 10 11  1  0
 12 11  1  1
 12 13  1  0
 12 14  1  0
 13  5  1  0
 14 16  1  0
 15 14  2  0
 16 20  1  0
 16 17  1  0
 17 18  1  0
 19 18  1  0
 20 19  1  0
 21 22  1  0
 20 21  1  1
 23 21  2  0
M  END
$$$$
