CQP.pdb
     RDKit          3D

 23 23  0  0  1  0  0  0  0  0999 V2000
    7.0286  -15.7331   19.1791 N   0  0  0  0  0  0  0  0  0  0  0  0
    7.7169  -14.7849   20.0189 C   0  0  1  0  0  0  0  0  0  0  0  0
    7.3551  -13.3762   19.5743 C   0  0  0  0  0  0  0  0  0  0  0  0
    8.8375  -12.4427   19.1255 S   0  0  0  0  0  0  0  0  0  0  0  0
    7.2291  -14.9597   21.4203 C   0  0  0  0  0  0  0  0  0  0  0  0
    5.9953  -14.9090   21.6501 O   0  0  0  0  0  0  0  0  0  0  0  0
    7.4773  -19.6357   24.8065 N   0  0  0  0  0  0  0  0  0  0  0  0
    7.0554  -18.6421   25.7555 C   0  0  0  0  0  0  0  0  0  0  0  0
    6.6468  -19.0456   26.8668 O   0  0  0  0  0  0  0  0  0  0  0  0
    7.1051  -17.2202   25.4312 C   0  0  0  0  0  0  0  0  0  0  0  0
    7.5531  -16.8927   24.0506 C   0  0  0  0  0  0  0  0  0  0  0  0
    7.5377  -15.3979   23.8239 C   0  0  2  0  0  0  0  0  0  0  0  0
    8.1151  -15.1813   22.5002 N   0  0  0  0  0  0  0  0  0  0  0  0
    8.3984  -14.7099   24.8384 C   0  0  0  0  0  0  0  0  0  0  0  0
    9.6299  -14.6579   24.6036 O   0  0  0  0  0  0  0  0  0  0  0  0
    7.8717  -14.1404   26.0083 N   0  0  0  0  0  0  0  0  0  0  0  0
    6.5134  -14.2225   26.4687 C   0  0  0  0  0  0  0  0  0  0  0  0
    6.2982  -12.8843   27.1646 C   0  0  0  0  0  0  0  0  0  0  0  0
    7.6423  -12.2244   27.2553 C   0  0  0  0  0  0  0  0  0  0  0  0
    8.5992  -13.3565   26.9730 C   0  0  1  0  0  0  0  0  0  0  0  0
    8.8660  -14.1533   28.1982 C   0  0  0  0  0  0  0  0  0  0  0  0
    9.7185  -13.6692   29.1591 O   0  0  0  0  0  0  0  0  0  0  0  0
    8.2964  -15.2713   28.3308 O   0  0  0  0  0  0  0  0  0  0  0  0
  2  1  1  6
  3  2  1  0
  4  3  1  0
  5  2  1  0
  5  6  2  0
  7  8  1  0
  8 10  1  0
  9  8  2  0
 10 11  1  0
 12 11  1  1
 12 13  1  0
 12 14  1  0
 13  5  1  0
 14 16  1  0
 15 14  2  0
 16 20  1  0
 16 17  1  0
 17 18  1  0
 19 18  1  0
 20 19  1  0
 21 22  1  0
 20 21  1  1
 23 21  2  0
M  END
$$$$
