TIG.pdb
     RDKit          3D

 20 19  0  0  1  0  0  0  0  0999 V2000
   19.4115  -11.5197  -21.2423 C   0  0  0  0  0  0  0  0  0  0  0  0
   19.6781  -11.0839  -19.8373 C   0  0  1  0  0  0  0  0  0  0  0  0
   18.5255  -10.5286  -19.2781 O   0  0  0  0  0  0  0  0  0  0  0  0
   20.1194  -12.2004  -18.9304 C   0  0  2  0  0  0  0  0  0  0  0  0
   19.0518  -13.1883  -18.9032 N   0  0  0  0  0  0  0  0  0  0  0  0
   20.3942  -11.7187  -17.5477 C   0  0  0  0  0  0  0  0  0  0  0  0
   19.5379  -11.9207  -16.6814 O   0  0  0  0  0  0  0  0  0  0  0  0
   22.4617  -13.0939  -14.1548 C   0  0  0  0  0  0  0  0  0  0  0  0
   23.1833  -12.6612  -15.4087 C   0  0  0  0  0  0  0  0  0  0  0  0
   23.3121  -11.1346  -15.4890 C   0  0  2  0  0  0  0  0  0  0  0  0
   23.6349  -10.7103  -14.0767 C   0  0  0  0  0  0  0  0  0  0  0  0
   21.9986  -10.5973  -15.9068 C   0  0  2  0  0  0  0  0  0  0  0  0
   21.5672  -11.0585  -17.2069 N   0  0  0  0  0  0  0  0  0  0  0  0
   21.9439   -9.1354  -15.9403 C   0  0  0  0  0  0  0  0  0  0  0  0
   22.8530   -8.4688  -16.5804 O   0  0  0  0  0  0  0  0  0  0  0  0
   20.9737   -8.2967  -15.3381 N   0  0  0  0  0  0  0  0  0  0  0  0
   21.0259   -6.8453  -15.5217 C   0  0  0  0  0  0  0  0  0  0  0  0
   21.3929   -6.1866  -14.2655 C   0  0  0  0  0  0  0  0  0  0  0  0
   21.5356   -6.8741  -13.2266 O   0  0  0  0  0  0  0  0  0  0  0  0
   21.5902   -4.8208  -14.1796 O   0  0  0  0  0  0  0  0  0  0  0  0
  2  1  1  6
  3  2  1  0
  4  5  1  1
  4  2  1  0
  6  4  1  0
  7  6  2  0
  9 10  1  0
  9  8  1  0
 10 11  1  1
 12 10  1  0
 12 13  1  6
 13  6  1  0
 14 12  1  0
 15 14  2  0
 16 14  1  0
 17 16  1  0
 18 17  1  0
 19 18  2  0
 20 18  1  0
M  END
$$$$
