TIG.pdb
     RDKit          3D

 20 19  0  0  1  0  0  0  0  0999 V2000
   18.1841  -10.8599  -20.6042 C   0  0  0  0  0  0  0  0  0  0  0  0
   18.5495  -10.4635  -19.2098 C   0  0  1  0  0  0  0  0  0  0  0  0
   17.4300   -9.9629  -18.5421 O   0  0  0  0  0  0  0  0  0  0  0  0
   19.0926  -11.5958  -18.3810 C   0  0  2  0  0  0  0  0  0  0  0  0
   18.0309  -12.5801  -18.2379 N   0  0  0  0  0  0  0  0  0  0  0  0
   19.5378  -11.1369  -17.0355 C   0  0  0  0  0  0  0  0  0  0  0  0
   18.7235  -11.1804  -16.1083 O   0  0  0  0  0  0  0  0  0  0  0  0
   23.7788  -13.0528  -14.8921 C   0  0  0  0  0  0  0  0  0  0  0  0
   22.4733  -12.3085  -15.0400 C   0  0  0  0  0  0  0  0  0  0  0  0
   22.6987  -10.8022  -15.2248 C   0  0  2  0  0  0  0  0  0  0  0  0
   23.1826  -10.3268  -13.8763 C   0  0  0  0  0  0  0  0  0  0  0  0
   21.3916  -10.1924  -15.5537 C   0  0  2  0  0  0  0  0  0  0  0  0
   20.8222  -10.6681  -16.7941 N   0  0  0  0  0  0  0  0  0  0  0  0
   21.4283   -8.7322  -15.6412 C   0  0  0  0  0  0  0  0  0  0  0  0
   22.1931   -8.1557  -16.5148 O   0  0  0  0  0  0  0  0  0  0  0  0
   20.6958   -7.8048  -14.8596 N   0  0  0  0  0  0  0  0  0  0  0  0
   20.9051   -6.3649  -15.0207 C   0  0  0  0  0  0  0  0  0  0  0  0
   21.6662   -5.8317  -13.8880 C   0  0  0  0  0  0  0  0  0  0  0  0
   21.9688   -6.5896  -12.9360 O   0  0  0  0  0  0  0  0  0  0  0  0
   22.0685   -4.5103  -13.8270 O   0  0  0  0  0  0  0  0  0  0  0  0
  2  1  1  6
  3  2  1  0
  4  5  1  1
  4  2  1  0
  6  4  1  0
  7  6  2  0
  9 10  1  0
  9  8  1  0
 10 11  1  1
 12 10  1  0
 12 13  1  6
 13  6  1  0
 14 12  1  0
 15 14  2  0
 16 14  1  0
 17 16  1  0
 18 17  1  0
 19 18  2  0
 20 18  1  0
M  END
$$$$
