TIG.pdb
     RDKit          3D

 20 19  0  0  1  0  0  0  0  0999 V2000
   27.1243  -10.1854  -15.9538 C   0  0  0  0  0  0  0  0  0  0  0  0
   26.9267  -11.2937  -16.9373 C   0  0  1  0  0  0  0  0  0  0  0  0
   27.9375  -12.2470  -16.7987 O   0  0  0  0  0  0  0  0  0  0  0  0
   25.6135  -12.0121  -16.7844 C   0  0  2  0  0  0  0  0  0  0  0  0
   25.6158  -13.1286  -17.7170 N   0  0  0  0  0  0  0  0  0  0  0  0
   24.4548  -11.1205  -17.0701 C   0  0  0  0  0  0  0  0  0  0  0  0
   24.2285  -10.8213  -18.2465 O   0  0  0  0  0  0  0  0  0  0  0  0
   20.0280  -12.3639  -15.9079 C   0  0  0  0  0  0  0  0  0  0  0  0
   20.7921  -11.2836  -16.6356 C   0  0  0  0  0  0  0  0  0  0  0  0
   21.2548  -10.1763  -15.6798 C   0  0  2  0  0  0  0  0  0  0  0  0
   20.1888   -9.1134  -15.7926 C   0  0  0  0  0  0  0  0  0  0  0  0
   22.5514   -9.6686  -16.1793 C   0  0  2  0  0  0  0  0  0  0  0  0
   23.6322  -10.6219  -16.0688 N   0  0  0  0  0  0  0  0  0  0  0  0
   23.0007   -8.4453  -15.5139 C   0  0  0  0  0  0  0  0  0  0  0  0
   23.3626   -8.4816  -14.2696 O   0  0  0  0  0  0  0  0  0  0  0  0
   23.1063   -7.1491  -16.0761 N   0  0  0  0  0  0  0  0  0  0  0  0
   23.5556   -6.0180  -15.2625 C   0  0  0  0  0  0  0  0  0  0  0  0
   22.4143   -5.3857  -14.5961 C   0  0  0  0  0  0  0  0  0  0  0  0
   21.2526   -5.7825  -14.8518 O   0  0  0  0  0  0  0  0  0  0  0  0
   22.5697   -4.3568  -13.6857 O   0  0  0  0  0  0  0  0  0  0  0  0
  2  1  1  1
  3  2  1  0
  4  5  1  6
  4  2  1  0
  6  4  1  0
  7  6  2  0
  9 10  1  0
  9  8  1  0
 10 11  1  6
 12 10  1  0
 12 13  1  1
 13  6  1  0
 14 12  1  0
 15 14  2  0
 16 14  1  0
 17 16  1  0
 18 17  1  0
 19 18  2  0
 20 18  1  0
M  END
$$$$
