TIG.pdb
     RDKit          3D

 20 19  0  0  1  0  0  0  0  0999 V2000
   20.6085  -13.1730  -18.2970 C   0  0  0  0  0  0  0  0  0  0  0  0
   20.4268  -14.3322  -17.3707 C   0  0  1  0  0  0  0  0  0  0  0  0
   19.8421  -15.4038  -18.0485 O   0  0  0  0  0  0  0  0  0  0  0  0
   21.7115  -14.8338  -16.7691 C   0  0  2  0  0  0  0  0  0  0  0  0
   21.3899  -16.0036  -15.9664 N   0  0  0  0  0  0  0  0  0  0  0  0
   22.3664  -13.8029  -15.9161 C   0  0  0  0  0  0  0  0  0  0  0  0
   21.8379  -13.5216  -14.8362 O   0  0  0  0  0  0  0  0  0  0  0  0
   27.6168  -13.8485  -15.3924 C   0  0  0  0  0  0  0  0  0  0  0  0
   26.1785  -13.5218  -15.0683 C   0  0  0  0  0  0  0  0  0  0  0  0
   25.7301  -12.2166  -15.7385 C   0  0  2  0  0  0  0  0  0  0  0  0
   26.4155  -11.1317  -14.9436 C   0  0  0  0  0  0  0  0  0  0  0  0
   24.2612  -12.1211  -15.5912 C   0  0  2  0  0  0  0  0  0  0  0  0
   23.5367  -13.1570  -16.2919 N   0  0  0  0  0  0  0  0  0  0  0  0
   23.7062  -10.8436  -16.0396 C   0  0  0  0  0  0  0  0  0  0  0  0
   23.6989  -10.5492  -17.3021 O   0  0  0  0  0  0  0  0  0  0  0  0
   23.1365   -9.8240  -15.2375 N   0  0  0  0  0  0  0  0  0  0  0  0
   22.6831   -8.5686  -15.8386 C   0  0  0  0  0  0  0  0  0  0  0  0
   22.1045   -7.6944  -14.8150 C   0  0  0  0  0  0  0  0  0  0  0  0
   21.8716   -8.1529  -13.6714 O   0  0  0  0  0  0  0  0  0  0  0  0
   21.8017   -6.3685  -15.0635 O   0  0  0  0  0  0  0  0  0  0  0  0
  2  1  1  6
  3  2  1  0
  4  5  1  1
  4  2  1  0
  6  4  1  0
  7  6  2  0
  9 10  1  0
  9  8  1  0
 10 11  1  1
 12 10  1  0
 12 13  1  6
 13  6  1  0
 14 12  1  0
 15 14  2  0
 16 14  1  0
 17 16  1  0
 18 17  1  0
 19 18  2  0
 20 18  1  0
M  END
$$$$
