TIG.pdb
     RDKit          3D

 20 19  0  0  1  0  0  0  0  0999 V2000
   23.6513   -8.7198  -19.4258 C   0  0  0  0  0  0  0  0  0  0  0  0
   23.0827  -10.0506  -19.8008 C   0  0  1  0  0  0  0  0  0  0  0  0
   24.0739  -10.8567  -20.3643 O   0  0  0  0  0  0  0  0  0  0  0  0
   22.4994  -10.8088  -18.6394 C   0  0  2  0  0  0  0  0  0  0  0  0
   22.1541  -12.1392  -19.1162 N   0  0  0  0  0  0  0  0  0  0  0  0
   21.2861  -10.1404  -18.0913 C   0  0  0  0  0  0  0  0  0  0  0  0
   20.3090  -10.0099  -18.8349 O   0  0  0  0  0  0  0  0  0  0  0  0
   18.2839  -11.9974  -14.9216 C   0  0  0  0  0  0  0  0  0  0  0  0
   18.4224  -10.6822  -15.6507 C   0  0  0  0  0  0  0  0  0  0  0  0
   19.5182   -9.8049  -15.0316 C   0  0  2  0  0  0  0  0  0  0  0  0
   18.7813   -8.9115  -14.0632 C   0  0  0  0  0  0  0  0  0  0  0  0
   20.1198   -9.0064  -16.1221 C   0  0  2  0  0  0  0  0  0  0  0  0
   21.2201   -9.6656  -16.7882 N   0  0  0  0  0  0  0  0  0  0  0  0
   20.6131   -7.6980  -15.6909 C   0  0  0  0  0  0  0  0  0  0  0  0
   19.7769   -6.7323  -15.4700 O   0  0  0  0  0  0  0  0  0  0  0  0
   21.9589   -7.3184  -15.4626 N   0  0  0  0  0  0  0  0  0  0  0  0
   22.2810   -5.9841  -14.9538 C   0  0  0  0  0  0  0  0  0  0  0  0
   22.2701   -5.9821  -13.4887 C   0  0  0  0  0  0  0  0  0  0  0  0
   21.8711   -6.9989  -12.8729 O   0  0  0  0  0  0  0  0  0  0  0  0
   22.6872   -4.8904  -12.7500 O   0  0  0  0  0  0  0  0  0  0  0  0
  2  1  1  1
  3  2  1  0
  4  5  1  6
  4  2  1  0
  6  4  1  0
  7  6  2  0
  9 10  1  0
  9  8  1  0
 10 11  1  1
 12 10  1  0
 12 13  1  1
 13  6  1  0
 14 12  1  0
 15 14  2  0
 16 14  1  0
 17 16  1  0
 18 17  1  0
 19 18  2  0
 20 18  1  0
M  END
$$$$
