TIG.pdb
     RDKit          3D

 20 19  0  0  1  0  0  0  0  0999 V2000
   13.3065  -11.1653  -15.1919 C   0  0  0  0  0  0  0  0  0  0  0  0
   13.2700  -12.6388  -14.9423 C   0  0  1  0  0  0  0  0  0  0  0  0
   12.0357  -13.1631  -15.3315 O   0  0  0  0  0  0  0  0  0  0  0  0
   14.3324  -13.4050  -15.6826 C   0  0  2  0  0  0  0  0  0  0  0  0
   14.0817  -14.8212  -15.4635 N   0  0  0  0  0  0  0  0  0  0  0  0
   15.7013  -13.0573  -15.2090 C   0  0  0  0  0  0  0  0  0  0  0  0
   16.0997  -13.5689  -14.1582 O   0  0  0  0  0  0  0  0  0  0  0  0
   19.0503  -13.6748  -18.2940 C   0  0  0  0  0  0  0  0  0  0  0  0
   19.2360  -13.2329  -16.8620 C   0  0  0  0  0  0  0  0  0  0  0  0
   18.8231  -11.7687  -16.6637 C   0  0  2  0  0  0  0  0  0  0  0  0
   20.1039  -11.0656  -16.2844 C   0  0  0  0  0  0  0  0  0  0  0  0
   17.8547  -11.7256  -15.5461 C   0  0  2  0  0  0  0  0  0  0  0  0
   16.5325  -12.1878  -15.9026 N   0  0  0  0  0  0  0  0  0  0  0  0
   17.6906  -10.3949  -14.9601 C   0  0  0  0  0  0  0  0  0  0  0  0
   18.5097   -9.9872  -14.0416 O   0  0  0  0  0  0  0  0  0  0  0  0
   16.7041   -9.4296  -15.2800 N   0  0  0  0  0  0  0  0  0  0  0  0
   16.6730   -8.1386  -14.5904 C   0  0  0  0  0  0  0  0  0  0  0  0
   17.5339   -7.1734  -15.2788 C   0  0  0  0  0  0  0  0  0  0  0  0
   18.1485   -7.5230  -16.3144 O   0  0  0  0  0  0  0  0  0  0  0  0
   17.6971   -5.8773  -14.8262 O   0  0  0  0  0  0  0  0  0  0  0  0
  2  1  1  6
  3  2  1  0
  4  5  1  1
  4  2  1  0
  6  4  1  0
  7  6  2  0
  9 10  1  0
  9  8  1  0
 10 11  1  1
 12 10  1  0
 12 13  1  6
 13  6  1  0
 14 12  1  0
 15 14  2  0
 16 14  1  0
 17 16  1  0
 18 17  1  0
 19 18  2  0
 20 18  1  0
M  END
$$$$
