TIG.pdb
     RDKit          3D

 20 19  0  0  1  0  0  0  0  0999 V2000
   22.1864  -12.5967  -21.9234 C   0  0  0  0  0  0  0  0  0  0  0  0
   22.2231  -11.9867  -20.5591 C   0  0  1  0  0  0  0  0  0  0  0  0
   20.9605  -12.0549  -19.9666 O   0  0  0  0  0  0  0  0  0  0  0  0
   23.1911  -12.6566  -19.6220 C   0  0  2  0  0  0  0  0  0  0  0  0
   22.7705  -14.0417  -19.4771 N   0  0  0  0  0  0  0  0  0  0  0  0
   23.2197  -11.9972  -18.2865 C   0  0  0  0  0  0  0  0  0  0  0  0
   22.5781  -12.5170  -17.3684 O   0  0  0  0  0  0  0  0  0  0  0  0
   27.5004  -11.1510  -16.1234 C   0  0  0  0  0  0  0  0  0  0  0  0
   25.9970  -11.1586  -15.9814 C   0  0  0  0  0  0  0  0  0  0  0  0
   25.3862   -9.8031  -16.3600 C   0  0  2  0  0  0  0  0  0  0  0  0
   25.3751   -9.0225  -15.0680 C   0  0  0  0  0  0  0  0  0  0  0  0
   24.0057  -10.0515  -16.8303 C   0  0  2  0  0  0  0  0  0  0  0  0
   23.9353  -10.8322  -18.0446 N   0  0  0  0  0  0  0  0  0  0  0  0
   23.2369   -8.8300  -17.0712 C   0  0  0  0  0  0  0  0  0  0  0  0
   23.6375   -7.9792  -17.9635 O   0  0  0  0  0  0  0  0  0  0  0  0
   22.0402   -8.4259  -16.4293 N   0  0  0  0  0  0  0  0  0  0  0  0
   21.4232   -7.1366  -16.7459 C   0  0  0  0  0  0  0  0  0  0  0  0
   21.8864   -6.1079  -15.8111 C   0  0  0  0  0  0  0  0  0  0  0  0
   22.6874   -6.4191  -14.8979 O   0  0  0  0  0  0  0  0  0  0  0  0
   21.4701   -4.7923  -15.8973 O   0  0  0  0  0  0  0  0  0  0  0  0
  2  1  1  6
  3  2  1  0
  4  5  1  1
  4  2  1  0
  6  4  1  0
  7  6  2  0
  9 10  1  0
  9  8  1  0
 10 11  1  1
 12 10  1  0
 12 13  1  6
 13  6  1  0
 14 12  1  0
 15 14  2  0
 16 14  1  0
 17 16  1  0
 18 17  1  0
 19 18  2  0
 20 18  1  0
M  END
$$$$
