TIG.pdb
     RDKit          3D

 20 19  0  0  1  0  0  0  0  0999 V2000
   28.1161  -18.4080  -16.7875 C   0  0  0  0  0  0  0  0  0  0  0  0
   27.0897  -19.2892  -16.1514 C   0  0  1  0  0  0  0  0  0  0  0  0
   26.4411  -20.0532  -17.1237 O   0  0  0  0  0  0  0  0  0  0  0  0
   27.6572  -20.2465  -15.1387 C   0  0  2  0  0  0  0  0  0  0  0  0
   28.4497  -21.2284  -15.8627 N   0  0  0  0  0  0  0  0  0  0  0  0
   26.5876  -20.9357  -14.3640 C   0  0  0  0  0  0  0  0  0  0  0  0
   26.2053  -22.0414  -14.7588 O   0  0  0  0  0  0  0  0  0  0  0  0
   26.8005  -20.5761   -9.2460 C   0  0  0  0  0  0  0  0  0  0  0  0
   26.2024  -21.2984  -10.4296 C   0  0  0  0  0  0  0  0  0  0  0  0
   24.9976  -20.5420  -11.0041 C   0  0  2  0  0  0  0  0  0  0  0  0
   23.8122  -21.0983  -10.2530 C   0  0  0  0  0  0  0  0  0  0  0  0
   24.9058  -20.8755  -12.4425 C   0  0  2  0  0  0  0  0  0  0  0  0
   26.0147  -20.3816  -13.2270 N   0  0  0  0  0  0  0  0  0  0  0  0
   23.6858  -20.3846  -13.0842 C   0  0  0  0  0  0  0  0  0  0  0  0
   23.4380  -19.1125  -13.1146 O   0  0  0  0  0  0  0  0  0  0  0  0
   22.6792  -21.1527  -13.7198 N   0  0  0  0  0  0  0  0  0  0  0  0
   21.5185  -20.5018  -14.3300 C   0  0  0  0  0  0  0  0  0  0  0  0
   20.3113  -20.7758  -13.5463 C   0  0  0  0  0  0  0  0  0  0  0  0
   19.2279  -20.2346  -13.8716 O   0  0  0  0  0  0  0  0  0  0  0  0
   20.3199  -21.6174  -12.4494 O   0  0  0  0  0  0  0  0  0  0  0  0
  2  1  1  6
  3  2  1  0
  4  5  1  6
  4  2  1  0
  6  4  1  0
  7  6  2  0
  9 10  1  0
  9  8  1  0
 10 11  1  1
 12 10  1  0
 12 13  1  6
 13  6  1  0
 14 12  1  0
 15 14  2  0
 16 14  1  0
 17 16  1  0
 18 17  1  0
 19 18  2  0
 20 18  1  0
M  END
$$$$
