TIG.pdb
     RDKit          3D

 20 19  0  0  1  0  0  0  0  0999 V2000
   22.3601   -6.0369  -19.4694 C   0  0  0  0  0  0  0  0  0  0  0  0
   21.9674   -7.3913  -19.9656 C   0  0  1  0  0  0  0  0  0  0  0  0
   22.5272   -7.6248  -21.2233 O   0  0  0  0  0  0  0  0  0  0  0  0
   22.4059   -8.5159  -19.0675 C   0  0  2  0  0  0  0  0  0  0  0  0
   22.0292   -9.7633  -19.7145 N   0  0  0  0  0  0  0  0  0  0  0  0
   21.7698   -8.4347  -17.7228 C   0  0  0  0  0  0  0  0  0  0  0  0
   20.5616   -8.6748  -17.6365 O   0  0  0  0  0  0  0  0  0  0  0  0
   23.4552  -11.3181  -14.5204 C   0  0  0  0  0  0  0  0  0  0  0  0
   22.3180  -10.3619  -14.7905 C   0  0  0  0  0  0  0  0  0  0  0  0
   22.6352   -8.9486  -14.2849 C   0  0  2  0  0  0  0  0  0  0  0  0
   21.9768   -8.8787  -12.9283 C   0  0  0  0  0  0  0  0  0  0  0  0
   22.0065   -7.9889  -15.2190 C   0  0  2  0  0  0  0  0  0  0  0  0
   22.4829   -8.1021  -16.5788 N   0  0  0  0  0  0  0  0  0  0  0  0
   22.1781   -6.5891  -14.8290 C   0  0  0  0  0  0  0  0  0  0  0  0
   23.3580   -6.1396  -14.5350 O   0  0  0  0  0  0  0  0  0  0  0  0
   21.1736   -5.5951  -14.7268 N   0  0  0  0  0  0  0  0  0  0  0  0
   21.5155   -4.2278  -14.3308 C   0  0  0  0  0  0  0  0  0  0  0  0
   20.3330   -3.3659  -14.4056 C   0  0  0  0  0  0  0  0  0  0  0  0
   19.2635   -3.8242  -14.8731 O   0  0  0  0  0  0  0  0  0  0  0  0
   20.3503   -2.0519  -13.9759 O   0  0  0  0  0  0  0  0  0  0  0  0
  2  1  1  1
  3  2  1  0
  4  5  1  6
  4  2  1  0
  6  4  1  0
  7  6  2  0
  9 10  1  0
  9  8  1  0
 10 11  1  1
 12 10  1  0
 12 13  1  6
 13  6  1  0
 14 12  1  0
 15 14  2  0
 16 14  1  0
 17 16  1  0
 18 17  1  0
 19 18  2  0
 20 18  1  0
M  END
$$$$
