PDP.pdb
     RDKit          3D

 23 24  0  0  1  0  0  0  0  0999 V2000
    7.8708  -14.7231   18.9246 N   0  0  0  0  0  0  0  0  0  0  0  0
    7.0812  -13.5778   18.5887 C   0  0  0  0  0  0  0  0  0  0  0  0
    7.5937  -12.4240   19.4228 C   0  0  0  0  0  0  0  0  0  0  0  0
    8.9336  -12.9275   19.8932 C   0  0  0  0  0  0  0  0  0  0  0  0
    8.6613  -14.4112   20.0989 C   0  0  1  0  0  0  0  0  0  0  0  0
    7.8494  -14.6589   21.3200 C   0  0  0  0  0  0  0  0  0  0  0  0
    6.6024  -14.4620   21.2982 O   0  0  0  0  0  0  0  0  0  0  0  0
    8.4073  -15.1138   22.5337 N   0  0  0  0  0  0  0  0  0  0  0  0
    7.5940  -15.4008   23.7373 C   0  0  1  0  0  0  0  0  0  0  0  0
    7.6369  -16.9357   23.7809 C   0  0  0  0  0  0  0  0  0  0  0  0
    6.9399  -17.5456   24.8903 C   0  0  0  0  0  0  0  0  0  0  0  0
    7.5641  -17.7192   25.9689 O   0  0  0  0  0  0  0  0  0  0  0  0
    8.2414  -14.7652   24.8827 C   0  0  0  0  0  0  0  0  0  0  0  0
    9.5056  -14.9574   25.0118 O   0  0  0  0  0  0  0  0  0  0  0  0
    5.6243  -17.9414   24.8082 O   0  0  0  0  0  0  0  0  0  0  0  0
    7.6345  -13.9630   25.8570 N   0  0  0  0  0  0  0  0  0  0  0  0
    6.2663  -13.4890   25.8754 C   0  0  0  0  0  0  0  0  0  0  0  0
    6.4008  -12.0990   26.5567 C   0  0  0  0  0  0  0  0  0  0  0  0
    7.3116  -12.4883   27.7041 C   0  0  0  0  0  0  0  0  0  0  0  0
    8.2707  -13.4358   27.0414 C   0  0  1  0  0  0  0  0  0  0  0  0
    8.7365  -14.5029   27.9526 C   0  0  0  0  0  0  0  0  0  0  0  0
    8.3141  -15.6677   27.7399 O   0  0  0  0  0  0  0  0  0  0  0  0
    9.5963  -14.3104   29.0131 O   0  0  0  0  0  0  0  0  0  0  0  0
  1  2  1  0
  3  2  1  0
  4  5  1  0
  4  3  1  0
  5  1  1  0
  6  7  2  0
  5  6  1  1
  8  6  1  0
  9  8  1  0
  9 10  1  1
 11 15  1  0
 11 10  1  0
 12 11  2  0
 13  9  1  0
 14 13  2  0
 16 13  1  0
 16 17  1  0
 18 17  1  0
 19 18  1  0
 20 19  1  0
 20 16  1  0
 20 21  1  1
 22 21  2  0
 23 21  1  0
M  END
$$$$
