PDP.pdb
     RDKit          3D

 23 24  0  0  1  0  0  0  0  0999 V2000
    9.2162  -14.6417   19.6688 N   0  0  0  0  0  0  0  0  0  0  0  0
    8.1850  -14.8237   18.6933 C   0  0  0  0  0  0  0  0  0  0  0  0
    7.3093  -13.5904   18.7363 C   0  0  0  0  0  0  0  0  0  0  0  0
    8.1689  -12.6022   19.4808 C   0  0  0  0  0  0  0  0  0  0  0  0
    8.8794  -13.4949   20.4888 C   0  0  1  0  0  0  0  0  0  0  0  0
    7.9694  -13.9224   21.5847 C   0  0  0  0  0  0  0  0  0  0  0  0
    6.9768  -13.2063   21.8948 O   0  0  0  0  0  0  0  0  0  0  0  0
    8.1562  -15.1142   22.3168 N   0  0  0  0  0  0  0  0  0  0  0  0
    7.3896  -15.4363   23.5420 C   0  0  1  0  0  0  0  0  0  0  0  0
    7.4487  -16.9712   23.5493 C   0  0  0  0  0  0  0  0  0  0  0  0
    6.7548  -17.6146   24.6416 C   0  0  0  0  0  0  0  0  0  0  0  0
    7.4312  -18.2512   25.4905 O   0  0  0  0  0  0  0  0  0  0  0  0
    8.0718  -14.8196   24.6775 C   0  0  0  0  0  0  0  0  0  0  0  0
    9.3405  -15.0069   24.7605 O   0  0  0  0  0  0  0  0  0  0  0  0
    5.3872  -17.5560   24.7846 O   0  0  0  0  0  0  0  0  0  0  0  0
    7.4937  -14.0403   25.6874 N   0  0  0  0  0  0  0  0  0  0  0  0
    6.1188  -13.5939   25.7725 C   0  0  0  0  0  0  0  0  0  0  0  0
    6.2567  -12.2090   26.4634 C   0  0  0  0  0  0  0  0  0  0  0  0
    7.2255  -12.5925   27.5643 C   0  0  0  0  0  0  0  0  0  0  0  0
    8.1722  -13.5134   26.8483 C   0  0  1  0  0  0  0  0  0  0  0  0
    8.6991  -14.5810   27.7251 C   0  0  0  0  0  0  0  0  0  0  0  0
    8.3038  -15.7542   27.5065 O   0  0  0  0  0  0  0  0  0  0  0  0
    9.5880  -14.3803   28.7597 O   0  0  0  0  0  0  0  0  0  0  0  0
  1  2  1  0
  3  2  1  0
  4  5  1  0
  4  3  1  0
  5  1  1  0
  6  7  2  0
  5  6  1  1
  8  6  1  0
  9  8  1  0
  9 10  1  1
 11 15  1  0
 11 10  1  0
 12 11  2  0
 13  9  1  0
 14 13  2  0
 16 13  1  0
 16 17  1  0
 18 17  1  0
 19 18  1  0
 20 19  1  0
 20 16  1  0
 20 21  1  1
 22 21  2  0
 23 21  1  0
M  END
$$$$
