PDP.pdb
     RDKit          3D

 23 24  0  0  1  0  0  0  0  0999 V2000
    8.1592  -14.7960   18.8593 N   0  0  0  0  0  0  0  0  0  0  0  0
    7.1985  -13.8443   18.3909 C   0  0  0  0  0  0  0  0  0  0  0  0
    7.4133  -12.5706   19.1792 C   0  0  0  0  0  0  0  0  0  0  0  0
    8.7803  -12.7801   19.7770 C   0  0  0  0  0  0  0  0  0  0  0  0
    8.7765  -14.2753   20.0631 C   0  0  1  0  0  0  0  0  0  0  0  0
    7.9273  -14.6102   21.2372 C   0  0  0  0  0  0  0  0  0  0  0  0
    6.6711  -14.5125   21.1546 O   0  0  0  0  0  0  0  0  0  0  0  0
    8.4588  -15.0427   22.4708 N   0  0  0  0  0  0  0  0  0  0  0  0
    7.6173  -15.3300   23.6548 C   0  0  1  0  0  0  0  0  0  0  0  0
    7.6448  -16.8655   23.6885 C   0  0  0  0  0  0  0  0  0  0  0  0
    7.0816  -17.4712   24.8737 C   0  0  0  0  0  0  0  0  0  0  0  0
    5.8453  -17.3552   25.0774 O   0  0  0  0  0  0  0  0  0  0  0  0
    8.2461  -14.7085   24.8181 C   0  0  0  0  0  0  0  0  0  0  0  0
    9.4999  -14.9349   24.9871 O   0  0  0  0  0  0  0  0  0  0  0  0
    7.8465  -18.1665   25.7824 O   0  0  0  0  0  0  0  0  0  0  0  0
    7.6316  -13.8864   25.7709 N   0  0  0  0  0  0  0  0  0  0  0  0
    6.2554  -13.4361   25.7843 C   0  0  0  0  0  0  0  0  0  0  0  0
    6.3698  -12.0230   26.4201 C   0  0  0  0  0  0  0  0  0  0  0  0
    7.2951  -12.3595   27.5727 C   0  0  0  0  0  0  0  0  0  0  0  0
    8.2664  -13.3107   26.9333 C   0  0  1  0  0  0  0  0  0  0  0  0
    8.7572  -14.3400   27.8745 C   0  0  0  0  0  0  0  0  0  0  0  0
    8.3417  -15.5153   27.7116 O   0  0  0  0  0  0  0  0  0  0  0  0
    9.6332  -14.1018   28.9121 O   0  0  0  0  0  0  0  0  0  0  0  0
  1  2  1  0
  3  2  1  0
  4  5  1  0
  4  3  1  0
  5  1  1  0
  6  7  2  0
  5  6  1  1
  8  6  1  0
  9  8  1  0
  9 10  1  1
 11 15  1  0
 11 10  1  0
 12 11  2  0
 13  9  1  0
 14 13  2  0
 16 13  1  0
 16 17  1  0
 18 17  1  0
 19 18  1  0
 20 19  1  0
 20 16  1  0
 20 21  1  1
 22 21  2  0
 23 21  1  0
M  END
$$$$
