PDP.pdb
     RDKit          3D

 23 24  0  0  1  0  0  0  0  0999 V2000
    8.3135  -15.2325   19.2547 N   0  0  0  0  0  0  0  0  0  0  0  0
    7.3912  -14.3556   18.6001 C   0  0  0  0  0  0  0  0  0  0  0  0
    7.6043  -12.9737   19.1785 C   0  0  0  0  0  0  0  0  0  0  0  0
    8.9438  -13.1034   19.8560 C   0  0  0  0  0  0  0  0  0  0  0  0
    8.8975  -14.5316   20.3812 C   0  0  1  0  0  0  0  0  0  0  0  0
    7.9990  -14.6571   21.5596 C   0  0  0  0  0  0  0  0  0  0  0  0
    6.8668  -14.0980   21.5512 O   0  0  0  0  0  0  0  0  0  0  0  0
    8.3480  -15.3848   22.7171 N   0  0  0  0  0  0  0  0  0  0  0  0
    7.4988  -15.4271   23.9294 C   0  0  1  0  0  0  0  0  0  0  0  0
    7.3828  -16.9393   24.1732 C   0  0  0  0  0  0  0  0  0  0  0  0
    6.4812  -17.6437   23.2902 C   0  0  0  0  0  0  0  0  0  0  0  0
    5.2746  -17.7558   23.6293 O   0  0  0  0  0  0  0  0  0  0  0  0
    8.1982  -14.7150   24.9966 C   0  0  0  0  0  0  0  0  0  0  0  0
    9.4701  -14.8851   25.0676 O   0  0  0  0  0  0  0  0  0  0  0  0
    6.8943  -18.1936   22.0981 O   0  0  0  0  0  0  0  0  0  0  0  0
    7.6335  -13.8607   25.9519 N   0  0  0  0  0  0  0  0  0  0  0  0
    6.2649  -13.3913   26.0093 C   0  0  0  0  0  0  0  0  0  0  0  0
    6.4230  -11.9643   26.6032 C   0  0  0  0  0  0  0  0  0  0  0  0
    7.3901  -12.2843   27.7257 C   0  0  0  0  0  0  0  0  0  0  0  0
    8.3224  -13.2646   27.0724 C   0  0  1  0  0  0  0  0  0  0  0  0
    8.8380  -14.2764   28.0192 C   0  0  0  0  0  0  0  0  0  0  0  0
    8.4278  -15.4568   27.8817 O   0  0  0  0  0  0  0  0  0  0  0  0
    9.7318  -14.0169   29.0365 O   0  0  0  0  0  0  0  0  0  0  0  0
  1  2  1  0
  3  2  1  0
  4  5  1  0
  4  3  1  0
  5  1  1  0
  6  7  2  0
  5  6  1  1
  8  6  1  0
  9  8  1  0
  9 10  1  1
 11 15  1  0
 11 10  1  0
 12 11  2  0
 13  9  1  0
 14 13  2  0
 16 13  1  0
 16 17  1  0
 18 17  1  0
 19 18  1  0
 20 19  1  0
 20 16  1  0
 20 21  1  1
 22 21  2  0
 23 21  1  0
M  END
$$$$
