PDP.pdb
     RDKit          3D

 23 24  0  0  1  0  0  0  0  0999 V2000
    7.8625  -14.8922   18.8885 N   0  0  0  0  0  0  0  0  0  0  0  0
    7.0212  -13.8201   18.4518 C   0  0  0  0  0  0  0  0  0  0  0  0
    7.4563  -12.5796   19.2012 C   0  0  0  0  0  0  0  0  0  0  0  0
    8.8110  -12.9730   19.7304 C   0  0  0  0  0  0  0  0  0  0  0  0
    8.6123  -14.4488   20.0471 C   0  0  1  0  0  0  0  0  0  0  0  0
    7.7903  -14.6446   21.2709 C   0  0  0  0  0  0  0  0  0  0  0  0
    6.5466  -14.4294   21.2356 O   0  0  0  0  0  0  0  0  0  0  0  0
    8.3347  -15.0687   22.5017 N   0  0  0  0  0  0  0  0  0  0  0  0
    7.5063  -15.3430   23.6980 C   0  0  1  0  0  0  0  0  0  0  0  0
    7.4733  -16.8787   23.7058 C   0  0  0  0  0  0  0  0  0  0  0  0
    6.9029  -17.4820   24.8888 C   0  0  0  0  0  0  0  0  0  0  0  0
    5.7139  -17.2026   25.1912 O   0  0  0  0  0  0  0  0  0  0  0  0
    8.1824  -14.7669   24.8581 C   0  0  0  0  0  0  0  0  0  0  0  0
    9.4304  -15.0416   24.9949 O   0  0  0  0  0  0  0  0  0  0  0  0
    7.6114  -18.3465   25.6918 O   0  0  0  0  0  0  0  0  0  0  0  0
    7.6191  -13.9416   25.8393 N   0  0  0  0  0  0  0  0  0  0  0  0
    6.2680  -13.4221   25.8788 C   0  0  0  0  0  0  0  0  0  0  0  0
    6.4602  -12.0351   26.5523 C   0  0  0  0  0  0  0  0  0  0  0  0
    7.3767  -12.4507   27.6858 C   0  0  0  0  0  0  0  0  0  0  0  0
    8.2925  -13.4320   27.0108 C   0  0  1  0  0  0  0  0  0  0  0  0
    8.7377  -14.5110   27.9183 C   0  0  0  0  0  0  0  0  0  0  0  0
    8.2892  -15.6658   27.7046 O   0  0  0  0  0  0  0  0  0  0  0  0
    9.6050  -14.3396   28.9762 O   0  0  0  0  0  0  0  0  0  0  0  0
  1  2  1  0
  3  2  1  0
  4  5  1  0
  4  3  1  0
  5  1  1  0
  6  7  2  0
  5  6  1  1
  8  6  1  0
  9  8  1  0
  9 10  1  1
 11 15  1  0
 11 10  1  0
 12 11  2  0
 13  9  1  0
 14 13  2  0
 16 13  1  0
 16 17  1  0
 18 17  1  0
 19 18  1  0
 20 19  1  0
 20 16  1  0
 20 21  1  1
 22 21  2  0
 23 21  1  0
M  END
$$$$
