PDP.pdb
     RDKit          3D

 23 24  0  0  1  0  0  0  0  0999 V2000
    8.0490  -14.9175   18.7925 N   0  0  0  0  0  0  0  0  0  0  0  0
    7.1352  -13.9368   18.2913 C   0  0  0  0  0  0  0  0  0  0  0  0
    7.4227  -12.6449   19.0248 C   0  0  0  0  0  0  0  0  0  0  0  0
    8.7820  -12.9010   19.6220 C   0  0  0  0  0  0  0  0  0  0  0  0
    8.7028  -14.3811   19.9697 C   0  0  1  0  0  0  0  0  0  0  0  0
    7.8475  -14.6226   21.1620 C   0  0  0  0  0  0  0  0  0  0  0  0
    6.5984  -14.7487   21.0264 O   0  0  0  0  0  0  0  0  0  0  0  0
    8.3653  -14.7222   22.4709 N   0  0  0  0  0  0  0  0  0  0  0  0
    7.5502  -15.1526   23.6298 C   0  0  1  0  0  0  0  0  0  0  0  0
    7.5783  -16.6808   23.4772 C   0  0  0  0  0  0  0  0  0  0  0  0
    6.6529  -17.4064   24.3173 C   0  0  0  0  0  0  0  0  0  0  0  0
    6.1027  -18.4382   23.8526 O   0  0  0  0  0  0  0  0  0  0  0  0
    8.2047  -14.6745   24.8456 C   0  0  0  0  0  0  0  0  0  0  0  0
    9.4149  -15.0610   25.0405 O   0  0  0  0  0  0  0  0  0  0  0  0
    6.3539  -17.0099   25.6009 O   0  0  0  0  0  0  0  0  0  0  0  0
    7.6580  -13.8347   25.8238 N   0  0  0  0  0  0  0  0  0  0  0  0
    6.3416  -13.2312   25.8259 C   0  0  0  0  0  0  0  0  0  0  0  0
    6.5952  -11.8728   26.5364 C   0  0  0  0  0  0  0  0  0  0  0  0
    7.4406  -12.3683   27.6929 C   0  0  0  0  0  0  0  0  0  0  0  0
    8.3176  -13.3922   27.0299 C   0  0  1  0  0  0  0  0  0  0  0  0
    8.6599  -14.5151   27.9287 C   0  0  0  0  0  0  0  0  0  0  0  0
    8.1037  -15.6207   27.7077 O   0  0  0  0  0  0  0  0  0  0  0  0
    9.5410  -14.4344   28.9861 O   0  0  0  0  0  0  0  0  0  0  0  0
  1  2  1  0
  3  2  1  0
  4  5  1  0
  4  3  1  0
  5  1  1  0
  6  7  2  0
  5  6  1  1
  8  6  1  0
  9  8  1  0
  9 10  1  1
 11 15  1  0
 11 10  1  0
 12 11  2  0
 13  9  1  0
 14 13  2  0
 16 13  1  0
 16 17  1  0
 18 17  1  0
 19 18  1  0
 20 19  1  0
 20 16  1  0
 20 21  1  1
 22 21  2  0
 23 21  1  0
M  END
$$$$
