PDP.pdb
     RDKit          3D

 23 24  0  0  1  0  0  0  0  0999 V2000
    7.8134  -14.9818   19.1627 N   0  0  0  0  0  0  0  0  0  0  0  0
    7.0643  -13.8269   18.7716 C   0  0  0  0  0  0  0  0  0  0  0  0
    7.6096  -12.6554   19.5589 C   0  0  0  0  0  0  0  0  0  0  0  0
    8.9291  -13.1817   20.0607 C   0  0  0  0  0  0  0  0  0  0  0  0
    8.6066  -14.6453   20.3283 C   0  0  1  0  0  0  0  0  0  0  0  0
    7.7795  -14.8129   21.5528 C   0  0  0  0  0  0  0  0  0  0  0  0
    6.5463  -14.5433   21.5220 O   0  0  0  0  0  0  0  0  0  0  0  0
    8.3074  -15.2686   22.7795 N   0  0  0  0  0  0  0  0  0  0  0  0
    7.4968  -15.3828   24.0134 C   0  0  1  0  0  0  0  0  0  0  0  0
    7.4923  -16.9019   24.2410 C   0  0  0  0  0  0  0  0  0  0  0  0
    6.6915  -17.6670   23.3126 C   0  0  0  0  0  0  0  0  0  0  0  0
    5.4486  -17.7263   23.4992 O   0  0  0  0  0  0  0  0  0  0  0  0
    8.1744  -14.6353   25.0704 C   0  0  0  0  0  0  0  0  0  0  0  0
    9.4483  -14.7820   25.1562 O   0  0  0  0  0  0  0  0  0  0  0  0
    7.2384  -18.3297   22.2374 O   0  0  0  0  0  0  0  0  0  0  0  0
    7.5867  -13.7699   26.0015 N   0  0  0  0  0  0  0  0  0  0  0  0
    6.2051  -13.3390   26.0486 C   0  0  0  0  0  0  0  0  0  0  0  0
    6.3227  -11.8910   26.5998 C   0  0  0  0  0  0  0  0  0  0  0  0
    7.3006  -12.1495   27.7287 C   0  0  0  0  0  0  0  0  0  0  0  0
    8.2599  -13.1212   27.1022 C   0  0  1  0  0  0  0  0  0  0  0  0
    8.8064  -14.0891   28.0772 C   0  0  0  0  0  0  0  0  0  0  0  0
    9.5908  -13.6446   28.9532 O   0  0  0  0  0  0  0  0  0  0  0  0
    8.5175  -15.4372   28.0919 O   0  0  0  0  0  0  0  0  0  0  0  0
  1  2  1  0
  3  2  1  0
  4  5  1  0
  4  3  1  0
  5  1  1  0
  6  7  2  0
  5  6  1  1
  8  6  1  0
  9  8  1  0
  9 10  1  1
 11 15  1  0
 11 10  1  0
 12 11  2  0
 13  9  1  0
 14 13  2  0
 16 13  1  0
 16 17  1  0
 18 17  1  0
 19 18  1  0
 20 19  1  0
 20 16  1  0
 20 21  1  1
 22 21  2  0
 23 21  1  0
M  END
$$$$
