EDK.pdb
     RDKit          3D

 27 26  0  0  1  0  0  0  0  0999 V2000
    9.2328  -13.5757   17.7540 N   0  0  0  0  0  0  0  0  0  0  0  0
    9.6094  -14.8991   18.1074 C   0  0  1  0  0  0  0  0  0  0  0  0
   11.0974  -15.0669   18.1305 C   0  0  0  0  0  0  0  0  0  0  0  0
   11.8070  -13.9714   18.8089 C   0  0  0  0  0  0  0  0  0  0  0  0
   13.2687  -14.0766   18.8940 C   0  0  0  0  0  0  0  0  0  0  0  0
   14.0338  -13.8486   17.9487 O   0  0  0  0  0  0  0  0  0  0  0  0
    9.0640  -15.2633   19.4662 C   0  0  0  0  0  0  0  0  0  0  0  0
    8.4302  -14.3834   20.0662 O   0  0  0  0  0  0  0  0  0  0  0  0
   13.8622  -14.4593   20.1170 O   0  0  0  0  0  0  0  0  0  0  0  0
    9.2878  -16.5327   19.9749 N   0  0  0  0  0  0  0  0  0  0  0  0
    8.7987  -17.1118   21.1817 C   0  0  1  0  0  0  0  0  0  0  0  0
    9.0892  -18.5792   21.3025 C   0  0  0  0  0  0  0  0  0  0  0  0
    8.1940  -19.3081   20.3664 C   0  0  0  0  0  0  0  0  0  0  0  0
    6.9551  -19.0458   20.2292 O   0  0  0  0  0  0  0  0  0  0  0  0
    9.0386  -16.2794   22.3269 C   0  0  0  0  0  0  0  0  0  0  0  0
   10.2551  -16.0160   22.6271 O   0  0  0  0  0  0  0  0  0  0  0  0
    8.6792  -20.3436   19.5699 O   0  0  0  0  0  0  0  0  0  0  0  0
    8.0482  -15.7110   23.1719 N   0  0  0  0  0  0  0  0  0  0  0  0
    8.4384  -14.8464   24.2713 C   0  0  1  0  0  0  0  0  0  0  0  0
    7.3141  -13.9529   24.7024 C   0  0  0  0  0  0  0  0  0  0  0  0
    7.6066  -13.0681   25.8643 C   0  0  0  0  0  0  0  0  0  0  0  0
    6.3901  -12.2701   26.2164 C   0  0  0  0  0  0  0  0  0  0  0  0
    6.7537  -11.3370   27.3573 C   0  0  0  0  0  0  0  0  0  0  0  0
    5.5893  -10.5139   27.6190 N   0  0  0  0  0  0  0  0  0  0  0  0
    8.9740  -15.6706   25.3758 C   0  0  0  0  0  0  0  0  0  0  0  0
    9.7136  -15.1364   26.2369 O   0  0  0  0  0  0  0  0  0  0  0  0
    8.7108  -17.0238   25.5314 O   0  0  0  0  0  0  0  0  0  0  0  0
  2  7  1  0
  2  1  1  1
  3  2  1  0
  4  5  1  0
  4  3  1  0
  5  6  2  0
  7 10  1  0
  8  7  2  0
  9  5  1  0
 10 11  1  0
 11 12  1  1
 13 14  2  0
 13 12  1  0
 15 16  2  0
 15 11  1  0
 17 13  1  0
 18 15  1  0
 19 18  1  0
 20 21  1  0
 19 20  1  1
 21 22  1  0
 23 24  1  0
 23 22  1  0
 25 19  1  0
 25 27  1  0
 26 25  2  0
M  END
$$$$
