EDK.pdb
     RDKit          3D

 27 26  0  0  1  0  0  0  0  0999 V2000
    8.9651  -13.4576   18.0567 N   0  0  0  0  0  0  0  0  0  0  0  0
    9.3483  -14.7689   18.4464 C   0  0  1  0  0  0  0  0  0  0  0  0
   10.8365  -14.9359   18.4500 C   0  0  0  0  0  0  0  0  0  0  0  0
   11.5416  -13.9508   19.2844 C   0  0  0  0  0  0  0  0  0  0  0  0
   13.0070  -14.0318   19.3160 C   0  0  0  0  0  0  0  0  0  0  0  0
   13.6533  -14.4820   20.2701 O   0  0  0  0  0  0  0  0  0  0  0  0
    8.8258  -15.0890   19.8252 C   0  0  0  0  0  0  0  0  0  0  0  0
    8.2778  -14.1642   20.4417 O   0  0  0  0  0  0  0  0  0  0  0  0
   13.7467  -13.5750   18.2031 O   0  0  0  0  0  0  0  0  0  0  0  0
    8.9759  -16.3697   20.3328 N   0  0  0  0  0  0  0  0  0  0  0  0
    8.4391  -16.9258   21.5300 C   0  0  1  0  0  0  0  0  0  0  0  0
    8.4989  -18.4248   21.5733 C   0  0  0  0  0  0  0  0  0  0  0  0
    9.9229  -18.8287   21.7070 C   0  0  0  0  0  0  0  0  0  0  0  0
   10.8998  -18.0260   21.5531 O   0  0  0  0  0  0  0  0  0  0  0  0
    8.8420  -16.1999   22.7016 C   0  0  0  0  0  0  0  0  0  0  0  0
    9.9595  -15.5765   22.6608 O   0  0  0  0  0  0  0  0  0  0  0  0
   10.2698  -20.1426   22.0160 O   0  0  0  0  0  0  0  0  0  0  0  0
    8.1151  -16.1026   23.9182 N   0  0  0  0  0  0  0  0  0  0  0  0
    8.4091  -15.0359   24.8586 C   0  0  1  0  0  0  0  0  0  0  0  0
    7.2290  -14.1340   25.0635 C   0  0  0  0  0  0  0  0  0  0  0  0
    7.4490  -12.9896   25.9911 C   0  0  0  0  0  0  0  0  0  0  0  0
    6.1930  -12.1848   26.1148 C   0  0  0  0  0  0  0  0  0  0  0  0
    6.4485  -11.0636   27.1058 C   0  0  0  0  0  0  0  0  0  0  0  0
    5.1936  -10.3592   27.2815 N   0  0  0  0  0  0  0  0  0  0  0  0
    8.9122  -15.6204   26.1200 C   0  0  0  0  0  0  0  0  0  0  0  0
    8.7336  -16.8417   26.3443 O   0  0  0  0  0  0  0  0  0  0  0  0
    9.5834  -14.8977   27.0957 O   0  0  0  0  0  0  0  0  0  0  0  0
  2  7  1  0
  2  1  1  1
  3  2  1  0
  4  5  1  0
  4  3  1  0
  5  6  2  0
  7 10  1  0
  8  7  2  0
  9  5  1  0
 10 11  1  0
 11 12  1  1
 13 14  2  0
 13 12  1  0
 15 16  2  0
 15 11  1  0
 17 13  1  0
 18 15  1  0
 19 18  1  0
 20 21  1  0
 19 20  1  1
 21 22  1  0
 23 24  1  0
 23 22  1  0
 25 19  1  0
 25 27  1  0
 26 25  2  0
M  END
$$$$
