EDK.pdb
     RDKit          3D

 27 26  0  0  1  0  0  0  0  0999 V2000
   13.8083  -20.0892   16.3607 N   0  0  0  0  0  0  0  0  0  0  0  0
   13.8146  -18.7340   16.7866 C   0  0  1  0  0  0  0  0  0  0  0  0
   12.4304  -18.1670   16.8592 C   0  0  0  0  0  0  0  0  0  0  0  0
   11.4587  -18.8637   16.0021 C   0  0  0  0  0  0  0  0  0  0  0  0
   10.0616  -18.4202   16.0824 C   0  0  0  0  0  0  0  0  0  0  0  0
    9.0904  -19.1851   16.0341 O   0  0  0  0  0  0  0  0  0  0  0  0
   14.4580  -18.6055   18.1452 C   0  0  0  0  0  0  0  0  0  0  0  0
   14.1160  -19.4311   19.0038 O   0  0  0  0  0  0  0  0  0  0  0  0
    9.7827  -17.0429   16.2233 O   0  0  0  0  0  0  0  0  0  0  0  0
   15.3805  -17.5966   18.3721 N   0  0  0  0  0  0  0  0  0  0  0  0
   16.0585  -17.2595   19.5793 C   0  0  1  0  0  0  0  0  0  0  0  0
   17.3936  -16.6115   19.3555 C   0  0  0  0  0  0  0  0  0  0  0  0
   18.0435  -16.4192   20.6782 C   0  0  0  0  0  0  0  0  0  0  0  0
   18.3194  -15.2761   21.1676 O   0  0  0  0  0  0  0  0  0  0  0  0
   15.1821  -16.6796   20.5580 C   0  0  0  0  0  0  0  0  0  0  0  0
   14.7891  -15.4762   20.3665 O   0  0  0  0  0  0  0  0  0  0  0  0
   18.3931  -17.5107   21.4710 O   0  0  0  0  0  0  0  0  0  0  0  0
   14.7007  -17.3158   21.7333 N   0  0  0  0  0  0  0  0  0  0  0  0
   13.8188  -16.6010   22.6388 C   0  0  1  0  0  0  0  0  0  0  0  0
   12.7167  -17.4792   23.1508 C   0  0  0  0  0  0  0  0  0  0  0  0
   11.3435  -16.9112   23.0491 C   0  0  0  0  0  0  0  0  0  0  0  0
   10.3559  -17.8510   23.6670 C   0  0  0  0  0  0  0  0  0  0  0  0
    8.9771  -17.2264   23.5527 C   0  0  0  0  0  0  0  0  0  0  0  0
    8.0344  -18.1752   24.1120 N   0  0  0  0  0  0  0  0  0  0  0  0
   14.6194  -15.9920   23.7225 C   0  0  0  0  0  0  0  0  0  0  0  0
   15.7227  -16.5029   24.0315 O   0  0  0  0  0  0  0  0  0  0  0  0
   14.2283  -14.8699   24.4384 O   0  0  0  0  0  0  0  0  0  0  0  0
  2  7  1  0
  2  1  1  1
  3  2  1  0
  4  5  1  0
  4  3  1  0
  5  6  2  0
  7 10  1  0
  8  7  2  0
  9  5  1  0
 10 11  1  0
 11 12  1  6
 13 14  2  0
 13 12  1  0
 15 16  2  0
 15 11  1  0
 17 13  1  0
 18 15  1  0
 19 18  1  0
 20 21  1  0
 19 20  1  1
 21 22  1  0
 23 24  1  0
 23 22  1  0
 25 19  1  0
 25 27  1  0
 26 25  2  0
M  END
$$$$
