EDK.pdb
     RDKit          3D

 27 26  0  0  1  0  0  0  0  0999 V2000
   12.7721  -20.2043   14.5476 N   0  0  0  0  0  0  0  0  0  0  0  0
   12.9289  -19.0683   15.3862 C   0  0  1  0  0  0  0  0  0  0  0  0
   11.6545  -18.7154   16.0891 C   0  0  0  0  0  0  0  0  0  0  0  0
   11.1191  -19.8001   16.9262 C   0  0  0  0  0  0  0  0  0  0  0  0
    9.8765  -19.5253   17.6578 C   0  0  0  0  0  0  0  0  0  0  0  0
    9.3453  -18.4098   17.7224 O   0  0  0  0  0  0  0  0  0  0  0  0
   13.9968  -19.3150   16.4231 C   0  0  0  0  0  0  0  0  0  0  0  0
   13.9344  -20.3862   17.0431 O   0  0  0  0  0  0  0  0  0  0  0  0
    9.2290  -20.5806   18.3373 O   0  0  0  0  0  0  0  0  0  0  0  0
   14.9778  -18.3594   16.6347 N   0  0  0  0  0  0  0  0  0  0  0  0
   16.1047  -18.4121   17.5055 C   0  0  1  0  0  0  0  0  0  0  0  0
   17.1235  -17.3445   17.2318 C   0  0  0  0  0  0  0  0  0  0  0  0
   17.7569  -17.6335   15.9187 C   0  0  0  0  0  0  0  0  0  0  0  0
   17.9526  -18.8114   15.4754 O   0  0  0  0  0  0  0  0  0  0  0  0
   15.7328  -18.6564   18.8708 C   0  0  0  0  0  0  0  0  0  0  0  0
   14.8036  -17.9330   19.3733 O   0  0  0  0  0  0  0  0  0  0  0  0
   18.1799  -16.6009   15.0838 O   0  0  0  0  0  0  0  0  0  0  0  0
   16.3002  -19.6334   19.7318 N   0  0  0  0  0  0  0  0  0  0  0  0
   15.8957  -19.6992   21.1249 C   0  0  1  0  0  0  0  0  0  0  0  0
   15.1609  -20.9696   21.4314 C   0  0  0  0  0  0  0  0  0  0  0  0
   14.7756  -21.1604   22.8575 C   0  0  0  0  0  0  0  0  0  0  0  0
   14.0430  -22.4557   23.0189 C   0  0  0  0  0  0  0  0  0  0  0  0
   13.7343  -22.6409   24.4936 C   0  0  0  0  0  0  0  0  0  0  0  0
   12.9003  -23.8213   24.6069 N   0  0  0  0  0  0  0  0  0  0  0  0
   17.0788  -19.4963   21.9882 C   0  0  0  0  0  0  0  0  0  0  0  0
   18.2186  -19.7691   21.5407 O   0  0  0  0  0  0  0  0  0  0  0  0
   17.0167  -19.0147   23.2877 O   0  0  0  0  0  0  0  0  0  0  0  0
  2  7  1  0
  2  1  1  1
  3  2  1  0
  4  5  1  0
  4  3  1  0
  5  6  2  0
  7 10  1  0
  8  7  2  0
  9  5  1  0
 10 11  1  0
 11 12  1  1
 13 14  2  0
 13 12  1  0
 15 16  2  0
 15 11  1  0
 17 13  1  0
 18 15  1  0
 19 18  1  0
 20 21  1  0
 19 20  1  1
 21 22  1  0
 23 24  1  0
 23 22  1  0
 25 19  1  0
 25 27  1  0
 26 25  2  0
M  END
$$$$
