EDK.pdb
     RDKit          3D

 27 26  0  0  1  0  0  0  0  0999 V2000
   12.5193  -18.9372   20.8548 N   0  0  0  0  0  0  0  0  0  0  0  0
   11.8589  -17.6827   20.7644 C   0  0  1  0  0  0  0  0  0  0  0  0
   11.2270  -17.4819   19.4216 C   0  0  0  0  0  0  0  0  0  0  0  0
   10.4204  -18.6258   18.9689 C   0  0  0  0  0  0  0  0  0  0  0  0
    9.7441  -18.4925   17.6729 C   0  0  0  0  0  0  0  0  0  0  0  0
    9.8270  -17.4916   16.9503 O   0  0  0  0  0  0  0  0  0  0  0  0
   10.7882  -17.5669   21.8211 C   0  0  0  0  0  0  0  0  0  0  0  0
   10.2788  -16.4481   21.9776 O   0  0  0  0  0  0  0  0  0  0  0  0
    8.9448  -19.5564   17.1999 O   0  0  0  0  0  0  0  0  0  0  0  0
   10.4273  -18.6862   22.5541 N   0  0  0  0  0  0  0  0  0  0  0  0
    9.4627  -18.7996   23.5969 C   0  0  1  0  0  0  0  0  0  0  0  0
    8.1032  -19.2119   23.1129 C   0  0  0  0  0  0  0  0  0  0  0  0
    7.1460  -19.0684   24.2407 C   0  0  0  0  0  0  0  0  0  0  0  0
    7.4640  -18.5902   25.3776 O   0  0  0  0  0  0  0  0  0  0  0  0
    9.9895  -19.4492   24.7642 C   0  0  0  0  0  0  0  0  0  0  0  0
    9.6993  -20.6836   24.9406 O   0  0  0  0  0  0  0  0  0  0  0  0
    5.8155  -19.4609   24.1066 O   0  0  0  0  0  0  0  0  0  0  0  0
   10.8117  -18.8515   25.7565 N   0  0  0  0  0  0  0  0  0  0  0  0
   11.3026  -19.6445   26.8695 C   0  0  1  0  0  0  0  0  0  0  0  0
   12.7955  -19.7803   26.8400 C   0  0  0  0  0  0  0  0  0  0  0  0
   13.3877  -20.5962   27.9364 C   0  0  0  0  0  0  0  0  0  0  0  0
   14.8815  -20.5646   27.8458 C   0  0  0  0  0  0  0  0  0  0  0  0
   15.4404  -21.3583   29.0129 C   0  0  0  0  0  0  0  0  0  0  0  0
   16.8813  -21.3860   28.8551 N   0  0  0  0  0  0  0  0  0  0  0  0
   10.8021  -19.0713   28.1372 C   0  0  0  0  0  0  0  0  0  0  0  0
   10.2537  -17.9430   28.1259 O   0  0  0  0  0  0  0  0  0  0  0  0
   10.8979  -19.7070   29.3665 O   0  0  0  0  0  0  0  0  0  0  0  0
  2  7  1  0
  2  1  1  6
  3  2  1  0
  4  5  1  0
  4  3  1  0
  5  6  2  0
  7 10  1  0
  8  7  2  0
  9  5  1  0
 10 11  1  0
 11 12  1  6
 13 14  2  0
 13 12  1  0
 15 16  2  0
 15 11  1  0
 17 13  1  0
 18 15  1  0
 19 18  1  0
 20 21  1  0
 19 20  1  1
 21 22  1  0
 23 24  1  0
 23 22  1  0
 25 19  1  0
 25 27  1  0
 26 25  2  0
M  END
$$$$
