EDK.pdb
     RDKit          3D

 27 26  0  0  1  0  0  0  0  0999 V2000
    9.9913  -15.3300   16.3479 N   0  0  0  0  0  0  0  0  0  0  0  0
   10.5790  -14.5035   17.3428 C   0  0  1  0  0  0  0  0  0  0  0  0
    9.6219  -14.2059   18.4555 C   0  0  0  0  0  0  0  0  0  0  0  0
    8.3918  -13.5303   18.0147 C   0  0  0  0  0  0  0  0  0  0  0  0
    7.5030  -13.0145   19.0630 C   0  0  0  0  0  0  0  0  0  0  0  0
    7.7222  -13.1339   20.2748 O   0  0  0  0  0  0  0  0  0  0  0  0
   11.8044  -15.1621   17.9267 C   0  0  0  0  0  0  0  0  0  0  0  0
   11.7087  -16.3646   18.2106 O   0  0  0  0  0  0  0  0  0  0  0  0
    6.3203  -12.3375   18.6923 O   0  0  0  0  0  0  0  0  0  0  0  0
   12.9565  -14.4158   18.1168 N   0  0  0  0  0  0  0  0  0  0  0  0
   14.1399  -14.7636   18.8307 C   0  0  1  0  0  0  0  0  0  0  0  0
   15.3492  -13.9858   18.4005 C   0  0  0  0  0  0  0  0  0  0  0  0
   16.5274  -14.5166   19.1346 C   0  0  0  0  0  0  0  0  0  0  0  0
   16.7595  -15.7594   19.2889 O   0  0  0  0  0  0  0  0  0  0  0  0
   13.9052  -14.9233   20.2383 C   0  0  0  0  0  0  0  0  0  0  0  0
   14.0093  -13.8854   20.9807 O   0  0  0  0  0  0  0  0  0  0  0  0
   17.4630  -13.6567   19.7067 O   0  0  0  0  0  0  0  0  0  0  0  0
   13.5645  -16.1338   20.8989 N   0  0  0  0  0  0  0  0  0  0  0  0
   13.3074  -16.1357   22.3281 C   0  0  1  0  0  0  0  0  0  0  0  0
   12.1999  -17.0781   22.6929 C   0  0  0  0  0  0  0  0  0  0  0  0
   11.9523  -17.2437   24.1523 C   0  0  0  0  0  0  0  0  0  0  0  0
   10.9500  -18.3321   24.3792 C   0  0  0  0  0  0  0  0  0  0  0  0
   10.6412  -18.3849   25.8645 C   0  0  0  0  0  0  0  0  0  0  0  0
    9.6246  -19.4017   26.0501 N   0  0  0  0  0  0  0  0  0  0  0  0
   14.5655  -16.4192   23.0513 C   0  0  0  0  0  0  0  0  0  0  0  0
   15.4737  -17.0631   22.4730 O   0  0  0  0  0  0  0  0  0  0  0  0
   14.8190  -16.0144   24.3538 O   0  0  0  0  0  0  0  0  0  0  0  0
  2  7  1  0
  2  1  1  6
  3  2  1  0
  4  5  1  0
  4  3  1  0
  5  6  2  0
  7 10  1  0
  8  7  2  0
  9  5  1  0
 10 11  1  0
 11 12  1  1
 13 14  2  0
 13 12  1  0
 15 16  2  0
 15 11  1  0
 17 13  1  0
 18 15  1  0
 19 18  1  0
 20 21  1  0
 19 20  1  6
 21 22  1  0
 23 24  1  0
 23 22  1  0
 25 19  1  0
 25 27  1  0
 26 25  2  0
M  END
$$$$
