EDK.pdb
     RDKit          3D

 27 26  0  0  1  0  0  0  0  0999 V2000
    8.9964  -15.3048   19.1870 N   0  0  0  0  0  0  0  0  0  0  0  0
    8.0274  -15.9516   19.9999 C   0  0  1  0  0  0  0  0  0  0  0  0
    7.2969  -17.0223   19.2498 C   0  0  0  0  0  0  0  0  0  0  0  0
    8.0747  -18.2583   19.0730 C   0  0  0  0  0  0  0  0  0  0  0  0
    7.4175  -19.3631   18.3642 C   0  0  0  0  0  0  0  0  0  0  0  0
    7.2734  -20.4978   18.8360 O   0  0  0  0  0  0  0  0  0  0  0  0
    8.6774  -16.5725   21.2117 C   0  0  0  0  0  0  0  0  0  0  0  0
    7.9332  -17.1853   21.9904 O   0  0  0  0  0  0  0  0  0  0  0  0
    6.9108  -19.1436   17.0644 O   0  0  0  0  0  0  0  0  0  0  0  0
   10.0436  -16.4361   21.3999 N   0  0  0  0  0  0  0  0  0  0  0  0
   10.8569  -16.9473   22.4525 C   0  0  1  0  0  0  0  0  0  0  0  0
   12.2811  -17.1889   22.0455 C   0  0  0  0  0  0  0  0  0  0  0  0
   12.3149  -18.3834   21.1618 C   0  0  0  0  0  0  0  0  0  0  0  0
   11.6433  -19.4427   21.3839 O   0  0  0  0  0  0  0  0  0  0  0  0
   10.6151  -16.2860   23.7040 C   0  0  0  0  0  0  0  0  0  0  0  0
   11.2713  -15.2139   23.9474 O   0  0  0  0  0  0  0  0  0  0  0  0
   13.1051  -18.4044   20.0141 O   0  0  0  0  0  0  0  0  0  0  0  0
    9.7087  -16.7078   24.7132 N   0  0  0  0  0  0  0  0  0  0  0  0
    9.6064  -15.9648   25.9566 C   0  0  1  0  0  0  0  0  0  0  0  0
    8.2817  -15.2742   26.0846 C   0  0  0  0  0  0  0  0  0  0  0  0
    8.3395  -13.7901   26.1964 C   0  0  0  0  0  0  0  0  0  0  0  0
    6.9617  -13.2395   26.3938 C   0  0  0  0  0  0  0  0  0  0  0  0
    7.0747  -11.7338   26.5501 C   0  0  0  0  0  0  0  0  0  0  0  0
    5.7430  -11.2361   26.8339 N   0  0  0  0  0  0  0  0  0  0  0  0
    9.8967  -16.8671   27.0913 C   0  0  0  0  0  0  0  0  0  0  0  0
    9.8387  -18.1083   26.9183 O   0  0  0  0  0  0  0  0  0  0  0  0
   10.2365  -16.4289   28.3629 O   0  0  0  0  0  0  0  0  0  0  0  0
  2  7  1  0
  2  1  1  6
  3  2  1  0
  4  5  1  0
  4  3  1  0
  5  6  2  0
  7 10  1  0
  8  7  2  0
  9  5  1  0
 10 11  1  0
 11 12  1  6
 13 14  2  0
 13 12  1  0
 15 16  2  0
 15 11  1  0
 17 13  1  0
 18 15  1  0
 19 18  1  0
 20 21  1  0
 19 20  1  1
 21 22  1  0
 23 24  1  0
 23 22  1  0
 25 19  1  0
 25 27  1  0
 26 25  2  0
M  END
$$$$
