EDK.pdb
     RDKit          3D

 27 26  0  0  1  0  0  0  0  0999 V2000
    6.6145  -16.1088   19.8165 N   0  0  0  0  0  0  0  0  0  0  0  0
    7.9036  -15.5917   20.1149 C   0  0  1  0  0  0  0  0  0  0  0  0
    7.8883  -14.0999   20.2452 C   0  0  0  0  0  0  0  0  0  0  0  0
    7.4788  -13.4016   19.0169 C   0  0  0  0  0  0  0  0  0  0  0  0
    8.4067  -13.4533   17.8806 C   0  0  0  0  0  0  0  0  0  0  0  0
    8.5216  -14.4274   17.1265 O   0  0  0  0  0  0  0  0  0  0  0  0
    8.4292  -16.1807   21.4006 C   0  0  0  0  0  0  0  0  0  0  0  0
    7.5907  -16.4587   22.2697 O   0  0  0  0  0  0  0  0  0  0  0  0
    9.2286  -12.3371   17.6106 O   0  0  0  0  0  0  0  0  0  0  0  0
    9.7918  -16.3817   21.5536 N   0  0  0  0  0  0  0  0  0  0  0  0
   10.4992  -16.8964   22.6786 C   0  0  1  0  0  0  0  0  0  0  0  0
   11.8329  -17.4884   22.3277 C   0  0  0  0  0  0  0  0  0  0  0  0
   12.4157  -18.0816   23.5595 C   0  0  0  0  0  0  0  0  0  0  0  0
   12.3273  -17.5429   24.7103 O   0  0  0  0  0  0  0  0  0  0  0  0
   10.4255  -16.0264   23.8187 C   0  0  0  0  0  0  0  0  0  0  0  0
   11.0790  -14.9265   23.7715 O   0  0  0  0  0  0  0  0  0  0  0  0
   13.1073  -19.2907   23.5154 O   0  0  0  0  0  0  0  0  0  0  0  0
    9.6902  -16.2670   25.0100 N   0  0  0  0  0  0  0  0  0  0  0  0
    9.5256  -15.2084   25.9903 C   0  0  1  0  0  0  0  0  0  0  0  0
    8.2343  -14.4705   25.8008 C   0  0  0  0  0  0  0  0  0  0  0  0
    7.9800  -13.3636   26.7643 C   0  0  0  0  0  0  0  0  0  0  0  0
    6.6763  -12.7003   26.4465 C   0  0  0  0  0  0  0  0  0  0  0  0
    6.4971  -11.5336   27.4011 C   0  0  0  0  0  0  0  0  0  0  0  0
    5.2802  -10.8493   27.0101 N   0  0  0  0  0  0  0  0  0  0  0  0
    9.6717  -15.7727   27.3491 C   0  0  0  0  0  0  0  0  0  0  0  0
    9.6251  -15.0050   28.3403 O   0  0  0  0  0  0  0  0  0  0  0  0
    9.8609  -17.1216   27.6121 O   0  0  0  0  0  0  0  0  0  0  0  0
  2  7  1  0
  2  1  1  1
  3  2  1  0
  4  5  1  0
  4  3  1  0
  5  6  2  0
  7 10  1  0
  8  7  2  0
  9  5  1  0
 10 11  1  0
 11 12  1  6
 13 14  2  0
 13 12  1  0
 15 16  2  0
 15 11  1  0
 17 13  1  0
 18 15  1  0
 19 18  1  0
 20 21  1  0
 19 20  1  1
 21 22  1  0
 23 24  1  0
 23 22  1  0
 25 19  1  0
 25 27  1  0
 26 25  2  0
M  END
$$$$
