EEL.pdb
     RDKit          3D

 27 26  0  0  1  0  0  0  0  0999 V2000
   16.2509  -11.4520  -14.8836 N   0  0  0  0  0  0  0  0  0  0  0  0
   17.4513  -11.6214  -15.6424 C   0  0  1  0  0  0  0  0  0  0  0  0
   17.2273  -12.3880  -16.9149 C   0  0  0  0  0  0  0  0  0  0  0  0
   16.6521  -13.7669  -16.5782 C   0  0  0  0  0  0  0  0  0  0  0  0
   17.2188  -14.7152  -17.5566 C   0  0  0  0  0  0  0  0  0  0  0  0
   16.4540  -15.4795  -18.1965 O   0  0  0  0  0  0  0  0  0  0  0  0
   18.1756  -10.3372  -15.8962 C   0  0  0  0  0  0  0  0  0  0  0  0
   19.2306  -10.4065  -16.5605 O   0  0  0  0  0  0  0  0  0  0  0  0
   18.5834  -14.7435  -17.7504 O   0  0  0  0  0  0  0  0  0  0  0  0
   17.7170   -9.1004  -15.4242 N   0  0  0  0  0  0  0  0  0  0  0  0
   18.2252   -7.8023  -15.6334 C   0  0  1  0  0  0  0  0  0  0  0  0
   17.1921   -6.6733  -15.6497 C   0  0  0  0  0  0  0  0  0  0  0  0
   16.1552   -6.8422  -16.7046 C   0  0  0  0  0  0  0  0  0  0  0  0
   15.1899   -5.7156  -16.6190 C   0  0  0  0  0  0  0  0  0  0  0  0
   15.1526   -4.8782  -17.5444 O   0  0  0  0  0  0  0  0  0  0  0  0
   19.3684   -7.3813  -14.8401 C   0  0  0  0  0  0  0  0  0  0  0  0
   19.2407   -7.3704  -13.5791 O   0  0  0  0  0  0  0  0  0  0  0  0
   14.3513   -5.5938  -15.5418 O   0  0  0  0  0  0  0  0  0  0  0  0
   22.6168   -9.1194  -12.9183 C   0  0  0  0  0  0  0  0  0  0  0  0
   22.9816   -8.8225  -14.3530 C   0  0  2  0  0  0  0  0  0  0  0  0
   24.2329   -9.5734  -14.6676 C   0  0  0  0  0  0  0  0  0  0  0  0
   22.9552   -7.4049  -14.7432 C   0  0  0  0  0  0  0  0  0  0  0  0
   21.7084   -6.6229  -14.5025 C   0  0  2  0  0  0  0  0  0  0  0  0
   20.6172   -6.9802  -15.3467 N   0  0  0  0  0  0  0  0  0  0  0  0
   21.9244   -5.1626  -14.4104 C   0  0  0  0  0  0  0  0  0  0  0  0
   22.6648   -4.5912  -13.4038 O   0  0  0  0  0  0  0  0  0  0  0  0
   21.4195   -4.4219  -15.2733 O   0  0  0  0  0  0  0  0  0  0  0  0
  2  1  1  6
  2  7  1  0
  3  2  1  0
  3  4  1  0
  4  5  1  0
  5  6  2  0
  5  9  1  0
  7  8  2  0
 10 11  1  0
 10  7  1  0
 11 16  1  0
 11 12  1  1
 13 12  1  0
 14 15  2  0
 14 13  1  0
 16 17  2  0
 18 14  1  0
 20 19  1  1
 20 22  1  0
 21 20  1  0
 23 22  1  6
 23 25  1  0
 24 23  1  0
 24 16  1  0
 25 27  2  0
 25 26  1  0
M  END
$$$$
