EEL.pdb
     RDKit          3D

 27 26  0  0  1  0  0  0  0  0999 V2000
   20.5169  -14.9395  -18.1898 N   0  0  0  0  0  0  0  0  0  0  0  0
   19.6506  -13.8496  -17.8626 C   0  0  1  0  0  0  0  0  0  0  0  0
   18.9751  -14.0274  -16.5325 C   0  0  0  0  0  0  0  0  0  0  0  0
   17.7757  -14.9653  -16.6976 C   0  0  0  0  0  0  0  0  0  0  0  0
   17.2056  -15.1684  -15.3516 C   0  0  0  0  0  0  0  0  0  0  0  0
   16.7787  -14.1815  -14.7019 O   0  0  0  0  0  0  0  0  0  0  0  0
   20.3173  -12.5142  -17.9649 C   0  0  0  0  0  0  0  0  0  0  0  0
   21.5593  -12.5123  -18.0941 O   0  0  0  0  0  0  0  0  0  0  0  0
   17.1521  -16.4439  -14.8314 O   0  0  0  0  0  0  0  0  0  0  0  0
   19.6090  -11.3063  -17.9209 N   0  0  0  0  0  0  0  0  0  0  0  0
   20.0670   -9.9788  -18.0433 C   0  0  1  0  0  0  0  0  0  0  0  0
   19.0691   -8.9775  -18.6297 C   0  0  0  0  0  0  0  0  0  0  0  0
   19.6332   -7.6083  -18.7827 C   0  0  0  0  0  0  0  0  0  0  0  0
   18.6148   -6.7338  -19.4202 C   0  0  0  0  0  0  0  0  0  0  0  0
   17.7942   -7.2389  -20.2141 O   0  0  0  0  0  0  0  0  0  0  0  0
   20.7190   -9.3735  -16.8936 C   0  0  0  0  0  0  0  0  0  0  0  0
   20.0879   -9.3624  -15.7944 O   0  0  0  0  0  0  0  0  0  0  0  0
   18.5735   -5.3920  -19.1435 O   0  0  0  0  0  0  0  0  0  0  0  0
   24.0054  -10.6307  -14.4423 C   0  0  0  0  0  0  0  0  0  0  0  0
   24.5980   -9.7529  -15.5183 C   0  0  2  0  0  0  0  0  0  0  0  0
   26.0839   -9.8680  -15.4304 C   0  0  0  0  0  0  0  0  0  0  0  0
   24.0530   -8.3901  -15.6093 C   0  0  0  0  0  0  0  0  0  0  0  0
   22.5753   -8.2196  -15.7156 C   0  0  2  0  0  0  0  0  0  0  0  0
   21.9993   -8.7920  -16.8867 N   0  0  0  0  0  0  0  0  0  0  0  0
   22.1094   -6.8418  -15.4468 C   0  0  0  0  0  0  0  0  0  0  0  0
   21.3057   -6.1535  -16.3233 O   0  0  0  0  0  0  0  0  0  0  0  0
   22.4550   -6.2828  -14.3903 O   0  0  0  0  0  0  0  0  0  0  0  0
  2  1  1  1
  2  7  1  0
  3  2  1  0
  3  4  1  0
  4  5  1  0
  5  6  2  0
  5  9  1  0
  7  8  2  0
 10 11  1  0
 10  7  1  0
 11 16  1  0
 11 12  1  1
 13 12  1  0
 14 15  2  0
 14 13  1  0
 16 17  2  0
 18 14  1  0
 20 19  1  1
 20 22  1  0
 21 20  1  0
 23 22  1  6
 23 25  1  0
 24 23  1  0
 24 16  1  0
 25 27  2  0
 25 26  1  0
M  END
$$$$
