EEL.pdb
     RDKit          3D

 27 26  0  0  1  0  0  0  0  0999 V2000
   28.4169  -22.4518  -17.8793 N   0  0  0  0  0  0  0  0  0  0  0  0
   26.9879  -22.4817  -17.8291 C   0  0  1  0  0  0  0  0  0  0  0  0
   26.4420  -23.8783  -17.7359 C   0  0  0  0  0  0  0  0  0  0  0  0
   26.2426  -24.2444  -16.2622 C   0  0  0  0  0  0  0  0  0  0  0  0
   25.8444  -25.6650  -16.2265 C   0  0  0  0  0  0  0  0  0  0  0  0
   25.7748  -26.3182  -17.2975 O   0  0  0  0  0  0  0  0  0  0  0  0
   26.4158  -21.5972  -16.7667 C   0  0  0  0  0  0  0  0  0  0  0  0
   27.2093  -21.1653  -15.9047 O   0  0  0  0  0  0  0  0  0  0  0  0
   25.5558  -26.2503  -15.0122 O   0  0  0  0  0  0  0  0  0  0  0  0
   25.0590  -21.2523  -16.7150 N   0  0  0  0  0  0  0  0  0  0  0  0
   24.3899  -20.3132  -15.9041 C   0  0  1  0  0  0  0  0  0  0  0  0
   23.4552  -19.3449  -16.6327 C   0  0  0  0  0  0  0  0  0  0  0  0
   24.1783  -18.2568  -17.3464 C   0  0  0  0  0  0  0  0  0  0  0  0
   23.1874  -17.3800  -18.0230 C   0  0  0  0  0  0  0  0  0  0  0  0
   21.9699  -17.6014  -17.8573 O   0  0  0  0  0  0  0  0  0  0  0  0
   23.7230  -20.7984  -14.7069 C   0  0  0  0  0  0  0  0  0  0  0  0
   23.0293  -21.8547  -14.8039 O   0  0  0  0  0  0  0  0  0  0  0  0
   23.5998  -16.3426  -18.8182 O   0  0  0  0  0  0  0  0  0  0  0  0
   25.5739  -22.2353  -11.2041 C   0  0  0  0  0  0  0  0  0  0  0  0
   25.2002  -20.8137  -10.8591 C   0  0  2  0  0  0  0  0  0  0  0  0
   25.8354  -20.4829   -9.5492 C   0  0  0  0  0  0  0  0  0  0  0  0
   23.7772  -20.4706  -10.9998 C   0  0  0  0  0  0  0  0  0  0  0  0
   23.1045  -20.7418  -12.3029 C   0  0  2  0  0  0  0  0  0  0  0  0
   23.7759  -20.1982  -13.4363 N   0  0  0  0  0  0  0  0  0  0  0  0
   21.6509  -20.4686  -12.2961 C   0  0  0  0  0  0  0  0  0  0  0  0
   20.7556  -21.2696  -11.6292 O   0  0  0  0  0  0  0  0  0  0  0  0
   21.2196  -19.4790  -12.9149 O   0  0  0  0  0  0  0  0  0  0  0  0
  2  1  1  1
  2  7  1  0
  3  2  1  0
  3  4  1  0
  4  5  1  0
  5  6  2  0
  5  9  1  0
  7  8  2  0
 10 11  1  0
 10  7  1  0
 11 16  1  0
 11 12  1  6
 13 12  1  0
 14 15  2  0
 14 13  1  0
 16 17  2  0
 18 14  1  0
 20 19  1  1
 20 22  1  0
 21 20  1  0
 23 22  1  1
 23 25  1  0
 24 23  1  0
 24 16  1  0
 25 27  2  0
 25 26  1  0
M  END
$$$$
