EEL.pdb
     RDKit          3D

 27 26  0  0  1  0  0  0  0  0999 V2000
   17.0832  -10.4772  -16.6608 N   0  0  0  0  0  0  0  0  0  0  0  0
   16.5524   -9.7812  -15.5298 C   0  0  1  0  0  0  0  0  0  0  0  0
   16.2592  -10.6953  -14.3740 C   0  0  0  0  0  0  0  0  0  0  0  0
   15.3278  -11.8172  -14.8422 C   0  0  0  0  0  0  0  0  0  0  0  0
   16.0795  -13.0798  -14.7052 C   0  0  0  0  0  0  0  0  0  0  0  0
   16.5243  -13.6529  -15.7310 O   0  0  0  0  0  0  0  0  0  0  0  0
   17.3893   -8.6151  -15.1080 C   0  0  0  0  0  0  0  0  0  0  0  0
   16.9946   -7.9670  -14.1162 O   0  0  0  0  0  0  0  0  0  0  0  0
   16.2803  -13.6078  -13.4477 O   0  0  0  0  0  0  0  0  0  0  0  0
   18.5645   -8.2433  -15.7737 N   0  0  0  0  0  0  0  0  0  0  0  0
   19.4332   -7.1566  -15.5465 C   0  0  1  0  0  0  0  0  0  0  0  0
   20.9134   -7.4094  -15.8417 C   0  0  0  0  0  0  0  0  0  0  0  0
   21.4823   -8.5418  -15.0603 C   0  0  0  0  0  0  0  0  0  0  0  0
   22.8790   -8.7840  -15.5063 C   0  0  0  0  0  0  0  0  0  0  0  0
   23.5490   -7.8267  -15.9462 O   0  0  0  0  0  0  0  0  0  0  0  0
   19.0607   -5.8606  -16.0897 C   0  0  0  0  0  0  0  0  0  0  0  0
   18.5449   -5.8311  -17.2471 O   0  0  0  0  0  0  0  0  0  0  0  0
   23.4273  -10.0382  -15.4376 O   0  0  0  0  0  0  0  0  0  0  0  0
   15.1367   -2.1177  -16.4708 C   0  0  0  0  0  0  0  0  0  0  0  0
   16.5910   -2.2660  -16.8484 C   0  0  2  0  0  0  0  0  0  0  0  0
   16.7144   -1.9649  -18.3054 C   0  0  0  0  0  0  0  0  0  0  0  0
   17.2567   -3.4891  -16.3757 C   0  0  0  0  0  0  0  0  0  0  0  0
   18.6892   -3.4086  -15.9689 C   0  0  2  0  0  0  0  0  0  0  0  0
   19.2211   -4.6219  -15.4437 N   0  0  0  0  0  0  0  0  0  0  0  0
   19.0139   -2.2223  -15.1473 C   0  0  0  0  0  0  0  0  0  0  0  0
   19.2312   -0.9830  -15.6994 O   0  0  0  0  0  0  0  0  0  0  0  0
   19.0937   -2.3469  -13.9119 O   0  0  0  0  0  0  0  0  0  0  0  0
  2  1  1  6
  2  7  1  0
  3  2  1  0
  3  4  1  0
  4  5  1  0
  5  6  2  0
  5  9  1  0
  7  8  2  0
 10 11  1  0
 10  7  1  0
 11 16  1  0
 11 12  1  6
 13 12  1  0
 14 15  2  0
 14 13  1  0
 16 17  2  0
 18 14  1  0
 20 19  1  6
 20 22  1  0
 21 20  1  0
 23 22  1  1
 23 25  1  0
 24 23  1  0
 24 16  1  0
 25 27  2  0
 25 26  1  0
M  END
$$$$
