EEL.pdb
     RDKit          3D

 27 26  0  0  1  0  0  0  0  0999 V2000
   15.6557  -13.2241  -15.3140 N   0  0  0  0  0  0  0  0  0  0  0  0
   16.8597  -13.2564  -16.0852 C   0  0  1  0  0  0  0  0  0  0  0  0
   16.6777  -13.9360  -17.4127 C   0  0  0  0  0  0  0  0  0  0  0  0
   15.9430  -15.2633  -17.2031 C   0  0  0  0  0  0  0  0  0  0  0  0
   15.8359  -15.9045  -18.5280 C   0  0  0  0  0  0  0  0  0  0  0  0
   16.8519  -15.9874  -19.2625 O   0  0  0  0  0  0  0  0  0  0  0  0
   17.4979  -11.9122  -16.2403 C   0  0  0  0  0  0  0  0  0  0  0  0
   18.6309  -11.8828  -16.7643 O   0  0  0  0  0  0  0  0  0  0  0  0
   14.6169  -16.4029  -18.9354 O   0  0  0  0  0  0  0  0  0  0  0  0
   16.8788  -10.7253  -15.8271 N   0  0  0  0  0  0  0  0  0  0  0  0
   17.3582   -9.3997  -15.8342 C   0  0  1  0  0  0  0  0  0  0  0  0
   16.3294   -8.3139  -15.5106 C   0  0  0  0  0  0  0  0  0  0  0  0
   16.8598   -6.9334  -15.6818 C   0  0  0  0  0  0  0  0  0  0  0  0
   15.7902   -5.9586  -15.3439 C   0  0  0  0  0  0  0  0  0  0  0  0
   14.6769   -6.3852  -14.9733 O   0  0  0  0  0  0  0  0  0  0  0  0
   18.5858   -9.1144  -15.1097 C   0  0  0  0  0  0  0  0  0  0  0  0
   18.7136   -9.6046  -13.9478 O   0  0  0  0  0  0  0  0  0  0  0  0
   16.0183   -4.6103  -15.4366 O   0  0  0  0  0  0  0  0  0  0  0  0
   24.1588   -9.5976  -15.6099 C   0  0  0  0  0  0  0  0  0  0  0  0
   23.0475   -9.7437  -14.5983 C   0  0  2  0  0  0  0  0  0  0  0  0
   23.3508  -10.9421  -13.7612 C   0  0  0  0  0  0  0  0  0  0  0  0
   21.6790   -9.6464  -15.1277 C   0  0  0  0  0  0  0  0  0  0  0  0
   20.9464   -8.3564  -14.9754 C   0  0  2  0  0  0  0  0  0  0  0  0
   19.6573   -8.3363  -15.5827 N   0  0  0  0  0  0  0  0  0  0  0  0
   21.7611   -7.1628  -15.2900 C   0  0  0  0  0  0  0  0  0  0  0  0
   22.6198   -6.5978  -14.3782 O   0  0  0  0  0  0  0  0  0  0  0  0
   21.6688   -6.6493  -16.4196 O   0  0  0  0  0  0  0  0  0  0  0  0
  2  1  1  6
  2  7  1  0
  3  2  1  0
  3  4  1  0
  4  5  1  0
  5  6  2  0
  5  9  1  0
  7  8  2  0
 10 11  1  0
 10  7  1  0
 11 16  1  0
 11 12  1  1
 13 12  1  0
 14 15  2  0
 14 13  1  0
 16 17  2  0
 18 14  1  0
 20 19  1  6
 20 22  1  0
 21 20  1  0
 23 22  1  6
 23 25  1  0
 24 23  1  0
 24 16  1  0
 25 27  2  0
 25 26  1  0
M  END
$$$$
