EEL.pdb
     RDKit          3D

 27 26  0  0  1  0  0  0  0  0999 V2000
   16.0549   -6.7690  -17.7098 N   0  0  0  0  0  0  0  0  0  0  0  0
   16.7798   -7.1638  -16.5419 C   0  0  1  0  0  0  0  0  0  0  0  0
   18.1095   -6.4740  -16.4263 C   0  0  0  0  0  0  0  0  0  0  0  0
   17.9507   -5.0033  -16.8227 C   0  0  0  0  0  0  0  0  0  0  0  0
   19.2861   -4.3853  -16.7098 C   0  0  0  0  0  0  0  0  0  0  0  0
   20.2436   -5.0544  -16.2474 O   0  0  0  0  0  0  0  0  0  0  0  0
   15.9840   -7.0353  -15.2816 C   0  0  0  0  0  0  0  0  0  0  0  0
   15.3932   -5.9510  -15.0956 O   0  0  0  0  0  0  0  0  0  0  0  0
   19.4573   -3.0793  -17.1166 O   0  0  0  0  0  0  0  0  0  0  0  0
   15.8873   -8.0646  -14.3361 N   0  0  0  0  0  0  0  0  0  0  0  0
   15.1882   -8.1129  -13.1130 C   0  0  1  0  0  0  0  0  0  0  0  0
   14.8220   -9.5096  -12.6058 C   0  0  0  0  0  0  0  0  0  0  0  0
   13.8977  -10.2404  -13.5156 C   0  0  0  0  0  0  0  0  0  0  0  0
   13.6036  -11.5766  -12.9354 C   0  0  0  0  0  0  0  0  0  0  0  0
   14.4833  -12.1509  -12.2608 O   0  0  0  0  0  0  0  0  0  0  0  0
   15.7031   -7.3297  -12.0017 C   0  0  0  0  0  0  0  0  0  0  0  0
   16.9600   -7.1996  -11.9028 O   0  0  0  0  0  0  0  0  0  0  0  0
   12.3861  -12.1732  -13.1356 O   0  0  0  0  0  0  0  0  0  0  0  0
   14.9769   -3.0432  -11.1028 C   0  0  0  0  0  0  0  0  0  0  0  0
   13.9901   -3.8571  -10.3008 C   0  0  2  0  0  0  0  0  0  0  0  0
   13.0192   -2.9086   -9.6790 C   0  0  0  0  0  0  0  0  0  0  0  0
   14.5686   -4.8756   -9.4117 C   0  0  0  0  0  0  0  0  0  0  0  0
   15.5016   -5.8826   -9.9942 C   0  0  2  0  0  0  0  0  0  0  0  0
   14.9281   -6.6957  -11.0145 N   0  0  0  0  0  0  0  0  0  0  0  0
   16.2570   -6.6555   -8.9844 C   0  0  0  0  0  0  0  0  0  0  0  0
   17.1035   -6.0568   -8.0828 O   0  0  0  0  0  0  0  0  0  0  0  0
   16.1236   -7.8920   -8.9465 O   0  0  0  0  0  0  0  0  0  0  0  0
  2  1  1  6
  2  7  1  0
  3  2  1  0
  3  4  1  0
  4  5  1  0
  5  6  2  0
  5  9  1  0
  7  8  2  0
 10 11  1  0
 10  7  1  0
 11 16  1  0
 11 12  1  1
 13 12  1  0
 14 15  2  0
 14 13  1  0
 16 17  2  0
 18 14  1  0
 20 19  1  1
 20 22  1  0
 21 20  1  0
 23 22  1  1
 23 25  1  0
 24 23  1  0
 24 16  1  0
 25 27  2  0
 25 26  1  0
M  END
$$$$
