EEL.pdb
     RDKit          3D

 27 26  0  0  1  0  0  0  0  0999 V2000
   15.9073  -11.2394  -14.9287 N   0  0  0  0  0  0  0  0  0  0  0  0
   17.2914  -11.4888  -15.1878 C   0  0  1  0  0  0  0  0  0  0  0  0
   17.5022  -12.5030  -16.2760 C   0  0  0  0  0  0  0  0  0  0  0  0
   16.3303  -12.4378  -17.2598 C   0  0  0  0  0  0  0  0  0  0  0  0
   16.5911  -13.4512  -18.3005 C   0  0  0  0  0  0  0  0  0  0  0  0
   15.6265  -13.9956  -18.8936 O   0  0  0  0  0  0  0  0  0  0  0  0
   18.0789  -10.2421  -15.4403 C   0  0  0  0  0  0  0  0  0  0  0  0
   19.3049  -10.3789  -15.6340 O   0  0  0  0  0  0  0  0  0  0  0  0
   17.8948  -13.7817  -18.6030 O   0  0  0  0  0  0  0  0  0  0  0  0
   17.4970   -8.9679  -15.4644 N   0  0  0  0  0  0  0  0  0  0  0  0
   18.0748   -7.7094  -15.7277 C   0  0  1  0  0  0  0  0  0  0  0  0
   17.0961   -6.5442  -15.8907 C   0  0  0  0  0  0  0  0  0  0  0  0
   17.7537   -5.2827  -16.3295 C   0  0  0  0  0  0  0  0  0  0  0  0
   16.7386   -4.1983  -16.3753 C   0  0  0  0  0  0  0  0  0  0  0  0
   17.0923   -3.0516  -16.7200 O   0  0  0  0  0  0  0  0  0  0  0  0
   19.1823   -7.2787  -14.8901 C   0  0  0  0  0  0  0  0  0  0  0  0
   18.9867   -7.2135  -13.6395 O   0  0  0  0  0  0  0  0  0  0  0  0
   15.4324   -4.4491  -16.0447 O   0  0  0  0  0  0  0  0  0  0  0  0
   22.4208   -8.9991  -12.7721 C   0  0  0  0  0  0  0  0  0  0  0  0
   22.7929   -8.7267  -14.2098 C   0  0  2  0  0  0  0  0  0  0  0  0
   24.0415   -9.4890  -14.5075 C   0  0  0  0  0  0  0  0  0  0  0  0
   22.7756   -7.3152  -14.6223 C   0  0  0  0  0  0  0  0  0  0  0  0
   21.5126   -6.5399  -14.4559 C   0  0  2  0  0  0  0  0  0  0  0  0
   20.4652   -6.9234  -15.3430 N   0  0  0  0  0  0  0  0  0  0  0  0
   21.7122   -5.0762  -14.3828 C   0  0  0  0  0  0  0  0  0  0  0  0
   21.1049   -4.2070  -15.2567 O   0  0  0  0  0  0  0  0  0  0  0  0
   22.4556   -4.6115  -13.4998 O   0  0  0  0  0  0  0  0  0  0  0  0
  2  1  1  6
  2  7  1  0
  3  2  1  0
  3  4  1  0
  4  5  1  0
  5  6  2  0
  5  9  1  0
  7  8  2  0
 10 11  1  0
 10  7  1  0
 11 16  1  0
 11 12  1  1
 13 12  1  0
 14 15  2  0
 14 13  1  0
 16 17  2  0
 18 14  1  0
 20 19  1  1
 20 22  1  0
 21 20  1  0
 23 22  1  6
 23 25  1  0
 24 23  1  0
 24 16  1  0
 25 27  2  0
 25 26  1  0
M  END
$$$$
