EEL.pdb
     RDKit          3D

 27 26  0  0  1  0  0  0  0  0999 V2000
   17.1135  -13.4931  -18.9523 N   0  0  0  0  0  0  0  0  0  0  0  0
   16.5541  -12.6064  -17.9796 C   0  0  1  0  0  0  0  0  0  0  0  0
   16.1084  -13.3206  -16.7351 C   0  0  0  0  0  0  0  0  0  0  0  0
   16.9725  -14.5689  -16.5333 C   0  0  0  0  0  0  0  0  0  0  0  0
   16.4392  -15.2690  -15.3488 C   0  0  0  0  0  0  0  0  0  0  0  0
   17.2325  -15.7684  -14.5123 O   0  0  0  0  0  0  0  0  0  0  0  0
   17.4425  -11.4465  -17.6578 C   0  0  0  0  0  0  0  0  0  0  0  0
   18.6738  -11.6469  -17.7130 O   0  0  0  0  0  0  0  0  0  0  0  0
   15.0738  -15.3612  -15.1824 O   0  0  0  0  0  0  0  0  0  0  0  0
   16.9464  -10.1840  -17.3078 N   0  0  0  0  0  0  0  0  0  0  0  0
   17.6305   -8.9824  -17.0336 C   0  0  1  0  0  0  0  0  0  0  0  0
   16.7552   -7.7833  -16.6618 C   0  0  0  0  0  0  0  0  0  0  0  0
   17.5162   -6.5070  -16.5715 C   0  0  0  0  0  0  0  0  0  0  0  0
   16.5958   -5.4245  -16.1363 C   0  0  0  0  0  0  0  0  0  0  0  0
   16.4858   -5.1764  -14.9176 O   0  0  0  0  0  0  0  0  0  0  0  0
   18.7648   -9.0352  -16.1259 C   0  0  0  0  0  0  0  0  0  0  0  0
   18.6003   -9.6081  -15.0073 O   0  0  0  0  0  0  0  0  0  0  0  0
   15.8762   -4.7068  -17.0558 O   0  0  0  0  0  0  0  0  0  0  0  0
   24.6362  -10.2890  -15.7919 C   0  0  0  0  0  0  0  0  0  0  0  0
   23.4350   -9.6687  -15.1198 C   0  0  2  0  0  0  0  0  0  0  0  0
   23.2425  -10.3574  -13.8092 C   0  0  0  0  0  0  0  0  0  0  0  0
   22.2370   -9.5143  -15.9584 C   0  0  0  0  0  0  0  0  0  0  0  0
   21.1264   -8.6515  -15.4622 C   0  0  2  0  0  0  0  0  0  0  0  0
   20.0425   -8.5038  -16.3756 N   0  0  0  0  0  0  0  0  0  0  0  0
   21.5776   -7.3707  -14.8760 C   0  0  0  0  0  0  0  0  0  0  0  0
   21.3469   -6.1614  -15.4861 O   0  0  0  0  0  0  0  0  0  0  0  0
   22.1878   -7.3846  -13.7917 O   0  0  0  0  0  0  0  0  0  0  0  0
  2  1  1  6
  2  7  1  0
  3  2  1  0
  3  4  1  0
  4  5  1  0
  5  6  2  0
  5  9  1  0
  7  8  2  0
 10 11  1  0
 10  7  1  0
 11 16  1  0
 11 12  1  1
 13 12  1  0
 14 15  2  0
 14 13  1  0
 16 17  2  0
 18 14  1  0
 20 19  1  6
 20 22  1  0
 21 20  1  0
 23 22  1  6
 23 25  1  0
 24 23  1  0
 24 16  1  0
 25 27  2  0
 25 26  1  0
M  END
$$$$
