GSN.pdb
     RDKit          3D

 19 18  0  0  1  0  0  0  0  0999 V2000
   20.4054  -20.1548  -12.9541 N   0  0  0  0  0  0  0  0  0  0  0  0
   21.4370  -21.0762  -13.3231 C   0  0  0  0  0  0  0  0  0  0  0  0
   22.7992  -20.5298  -13.1000 C   0  0  0  0  0  0  0  0  0  0  0  0
   23.0766  -19.3690  -13.4922 O   0  0  0  0  0  0  0  0  0  0  0  0
   27.3086  -21.2345  -11.3980 O   0  0  0  0  0  0  0  0  0  0  0  0
   25.9965  -21.6475  -11.4455 C   0  0  0  0  0  0  0  0  0  0  0  0
   25.1483  -20.7697  -12.3567 C   0  0  2  0  0  0  0  0  0  0  0  0
   23.8143  -21.2810  -12.4506 N   0  0  0  0  0  0  0  0  0  0  0  0
   25.8315  -20.7185  -13.6752 C   0  0  0  0  0  0  0  0  0  0  0  0
   25.5900  -21.6311  -14.5065 O   0  0  0  0  0  0  0  0  0  0  0  0
   26.8868  -16.1888  -14.8942 N   0  0  0  0  0  0  0  0  0  0  0  0
   27.0016  -17.2908  -15.7897 C   0  0  0  0  0  0  0  0  0  0  0  0
   26.2072  -17.3636  -16.7443 O   0  0  0  0  0  0  0  0  0  0  0  0
   28.0325  -18.3151  -15.5895 C   0  0  0  0  0  0  0  0  0  0  0  0
   27.4580  -19.6519  -15.3098 C   0  0  2  0  0  0  0  0  0  0  0  0
   26.7342  -19.7054  -14.0464 N   0  0  0  0  0  0  0  0  0  0  0  0
   28.3623  -20.7848  -15.4692 C   0  0  0  0  0  0  0  0  0  0  0  0
   28.8376  -21.5151  -14.5822 O   0  0  0  0  0  0  0  0  0  0  0  0
   28.7562  -21.1052  -16.7824 O   0  0  0  0  0  0  0  0  0  0  0  0
  1  2  1  0
  3  4  2  0
  3  2  1  0
  7  6  1  1
  6  5  1  0
  7  8  1  0
  8  3  1  0
  9  7  1  0
 10  9  2  0
 11 12  1  0
 12 13  2  0
 14 12  1  0
 15 14  1  1
 15 17  1  0
 15 16  1  0
 16  9  1  0
 17 19  1  0
 18 17  2  0
M  END
$$$$
