GSN.pdb
     RDKit          3D

 19 18  0  0  1  0  0  0  0  0999 V2000
   21.1944  -12.4162  -16.9622 N   0  0  0  0  0  0  0  0  0  0  0  0
   19.8532  -12.3477  -16.4663 C   0  0  0  0  0  0  0  0  0  0  0  0
   19.3767  -10.9521  -16.2955 C   0  0  0  0  0  0  0  0  0  0  0  0
   19.8262  -10.0450  -17.0395 O   0  0  0  0  0  0  0  0  0  0  0  0
   16.8458   -9.7195  -13.1060 O   0  0  0  0  0  0  0  0  0  0  0  0
   16.6889   -9.1786  -14.3618 C   0  0  0  0  0  0  0  0  0  0  0  0
   17.9703   -9.2456  -15.1828 C   0  0  2  0  0  0  0  0  0  0  0  0
   18.4184  -10.5994  -15.3086 N   0  0  0  0  0  0  0  0  0  0  0  0
   18.9688   -8.3767  -14.5076 C   0  0  0  0  0  0  0  0  0  0  0  0
   19.8389   -8.9229  -13.7816 O   0  0  0  0  0  0  0  0  0  0  0  0
   22.0592   -4.5352  -13.0572 N   0  0  0  0  0  0  0  0  0  0  0  0
   22.3865   -5.4596  -14.0905 C   0  0  0  0  0  0  0  0  0  0  0  0
   23.5624   -5.5048  -14.4942 O   0  0  0  0  0  0  0  0  0  0  0  0
   21.3602   -6.3369  -14.6642 C   0  0  0  0  0  0  0  0  0  0  0  0
   20.0208   -6.1049  -14.0748 C   0  0  2  0  0  0  0  0  0  0  0  0
   18.9959   -6.9760  -14.6348 N   0  0  0  0  0  0  0  0  0  0  0  0
   19.5806   -4.7162  -14.0094 C   0  0  0  0  0  0  0  0  0  0  0  0
   18.7755   -4.1327  -14.7561 O   0  0  0  0  0  0  0  0  0  0  0  0
   20.1238   -3.9238  -12.9802 O   0  0  0  0  0  0  0  0  0  0  0  0
  1  2  1  0
  3  4  2  0
  3  2  1  0
  7  6  1  1
  6  5  1  0
  7  8  1  0
  8  3  1  0
  9  7  1  0
 10  9  2  0
 11 12  1  0
 12 13  2  0
 14 12  1  0
 15 14  1  6
 15 17  1  0
 15 16  1  0
 16  9  1  0
 17 19  1  0
 18 17  2  0
M  END
$$$$
