GSN.pdb
     RDKit          3D

 19 18  0  0  1  0  0  0  0  0999 V2000
   13.7110  -11.3276  -14.0064 N   0  0  0  0  0  0  0  0  0  0  0  0
   14.2473  -12.0578  -12.8980 C   0  0  0  0  0  0  0  0  0  0  0  0
   15.1351  -11.2302  -12.0431 C   0  0  0  0  0  0  0  0  0  0  0  0
   15.2075  -11.4635  -10.8108 O   0  0  0  0  0  0  0  0  0  0  0  0
   18.7206   -7.9966  -11.7134 O   0  0  0  0  0  0  0  0  0  0  0  0
   17.8873   -8.7494  -12.5092 C   0  0  0  0  0  0  0  0  0  0  0  0
   16.7511   -9.3834  -11.7171 C   0  0  2  0  0  0  0  0  0  0  0  0
   15.9165  -10.1699  -12.5741 N   0  0  0  0  0  0  0  0  0  0  0  0
   16.0078   -8.2789  -11.0573 C   0  0  0  0  0  0  0  0  0  0  0  0
   15.1597   -7.6438  -11.7354 O   0  0  0  0  0  0  0  0  0  0  0  0
   12.4419   -5.9013   -7.5847 N   0  0  0  0  0  0  0  0  0  0  0  0
   13.8447   -6.0894   -7.4225 C   0  0  0  0  0  0  0  0  0  0  0  0
   14.4755   -5.2724   -6.7280 O   0  0  0  0  0  0  0  0  0  0  0  0
   14.5280   -7.2200   -8.0602 C   0  0  0  0  0  0  0  0  0  0  0  0
   15.5354   -6.7861   -9.0564 C   0  0  2  0  0  0  0  0  0  0  0  0
   16.1996   -7.9031   -9.7153 N   0  0  0  0  0  0  0  0  0  0  0  0
   16.4847   -5.7734   -8.6093 C   0  0  0  0  0  0  0  0  0  0  0  0
   17.6152   -5.9467   -8.1217 O   0  0  0  0  0  0  0  0  0  0  0  0
   16.0888   -4.4284   -8.7384 O   0  0  0  0  0  0  0  0  0  0  0  0
  1  2  1  0
  3  4  2  0
  3  2  1  0
  7  6  1  6
  6  5  1  0
  7  8  1  0
  8  3  1  0
  9  7  1  0
 10  9  2  0
 11 12  1  0
 12 13  2  0
 14 12  1  0
 15 14  1  1
 15 17  1  0
 15 16  1  0
 16  9  1  0
 17 19  1  0
 18 17  2  0
M  END
$$$$
