GSN.pdb
     RDKit          3D

 19 18  0  0  1  0  0  0  0  0999 V2000
   18.5284  -13.0318  -17.4164 N   0  0  0  0  0  0  0  0  0  0  0  0
   19.4377  -11.9731  -17.7350 C   0  0  0  0  0  0  0  0  0  0  0  0
   19.4468  -10.8987  -16.7105 C   0  0  0  0  0  0  0  0  0  0  0  0
   18.3655  -10.5215  -16.1940 O   0  0  0  0  0  0  0  0  0  0  0  0
   21.8652   -8.0398  -13.6679 O   0  0  0  0  0  0  0  0  0  0  0  0
   21.8907   -9.0738  -14.5760 C   0  0  0  0  0  0  0  0  0  0  0  0
   20.6097   -9.1524  -15.3966 C   0  0  2  0  0  0  0  0  0  0  0  0
   20.6491  -10.2728  -16.2869 N   0  0  0  0  0  0  0  0  0  0  0  0
   20.4705   -7.8596  -16.1157 C   0  0  0  0  0  0  0  0  0  0  0  0
   21.1711   -7.6717  -17.1435 O   0  0  0  0  0  0  0  0  0  0  0  0
   15.8013   -6.3618  -16.8357 N   0  0  0  0  0  0  0  0  0  0  0  0
   17.1560   -6.1352  -17.2136 C   0  0  0  0  0  0  0  0  0  0  0  0
   17.6199   -6.7807  -18.1706 O   0  0  0  0  0  0  0  0  0  0  0  0
   17.9835   -5.1636  -16.4902 C   0  0  0  0  0  0  0  0  0  0  0  0
   19.4058   -5.5724  -16.4167 C   0  0  2  0  0  0  0  0  0  0  0  0
   19.5982   -6.8327  -15.7113 N   0  0  0  0  0  0  0  0  0  0  0  0
   20.3451   -4.5493  -15.9723 C   0  0  0  0  0  0  0  0  0  0  0  0
   21.1889   -4.6286  -15.0624 O   0  0  0  0  0  0  0  0  0  0  0  0
   20.3056   -3.3132  -16.6451 O   0  0  0  0  0  0  0  0  0  0  0  0
  1  2  1  0
  3  4  2  0
  3  2  1  0
  7  6  1  6
  6  5  1  0
  7  8  1  0
  8  3  1  0
  9  7  1  0
 10  9  2  0
 11 12  1  0
 12 13  2  0
 14 12  1  0
 15 14  1  1
 15 17  1  0
 15 16  1  0
 16  9  1  0
 17 19  1  0
 18 17  2  0
M  END
$$$$
