NQT.pdb
     RDKit          3D

 25 24  0  0  1  0  0  0  0  0999 V2000
   16.9995  -12.8126   17.3553 N   0  0  0  0  0  0  0  0  0  0  0  0
   16.4055  -13.6732   18.2871 C   0  0  0  0  0  0  0  0  0  0  0  0
   17.0607  -14.3531   19.1193 O   0  0  0  0  0  0  0  0  0  0  0  0
   14.9175  -13.8115   18.3181 C   0  0  0  0  0  0  0  0  0  0  0  0
   14.5761  -15.2376   17.9229 C   0  0  2  0  0  0  0  0  0  0  0  0
   14.8016  -15.4818   16.5345 N   0  0  0  0  0  0  0  0  0  0  0  0
   13.2384  -15.6349   18.3898 C   0  0  0  0  0  0  0  0  0  0  0  0
   12.2750  -15.4429   17.5837 O   0  0  0  0  0  0  0  0  0  0  0  0
   11.6080  -20.2180   22.6429 N   0  0  0  0  0  0  0  0  0  0  0  0
   10.4226  -19.6656   22.0863 C   0  0  0  0  0  0  0  0  0  0  0  0
    9.3262  -20.1728   22.4265 O   0  0  0  0  0  0  0  0  0  0  0  0
   10.4133  -18.5422   21.1425 C   0  0  0  0  0  0  0  0  0  0  0  0
   11.7396  -17.9523   20.8347 C   0  0  0  0  0  0  0  0  0  0  0  0
   11.7022  -16.7061   19.9800 C   0  0  2  0  0  0  0  0  0  0  0  0
   13.0071  -16.2061   19.6716 N   0  0  0  0  0  0  0  0  0  0  0  0
   10.9695  -15.6880   20.8033 C   0  0  0  0  0  0  0  0  0  0  0  0
   11.5862  -15.2020   21.7890 O   0  0  0  0  0  0  0  0  0  0  0  0
    8.2369  -12.7961   19.4642 C   0  0  0  0  0  0  0  0  0  0  0  0
    7.8364  -13.6412   20.6514 C   0  0  1  0  0  0  0  0  0  0  0  0
    6.9849  -14.6805   20.2544 O   0  0  0  0  0  0  0  0  0  0  0  0
    9.0289  -14.2765   21.3294 C   0  0  2  0  0  0  0  0  0  0  0  0
    9.6581  -15.2808   20.5084 N   0  0  0  0  0  0  0  0  0  0  0  0
    8.6243  -14.8299   22.6515 C   0  0  0  0  0  0  0  0  0  0  0  0
    8.0249  -14.0659   23.6262 O   0  0  0  0  0  0  0  0  0  0  0  0
    8.8459  -16.0452   22.8703 O   0  0  0  0  0  0  0  0  0  0  0  0
  2  1  1  0
  2  3  2  0
  4  2  1  0
  5  4  1  0
  5  7  1  0
  5  6  1  6
  7  8  2  0
 10  9  1  0
 10 12  1  0
 11 10  2  0
 13 12  1  0
 14 13  1  1
 15 14  1  0
 15  7  1  0
 16 14  1  0
 16 17  2  0
 19 18  1  6
 19 21  1  0
 20 19  1  0
 21 22  1  6
 21 23  1  0
 22 16  1  0
 23 24  1  0
 25 23  2  0
M  END
$$$$
