NQT.pdb
     RDKit          3D

 25 24  0  0  1  0  0  0  0  0999 V2000
    7.6960  -12.4003   17.7275 N   0  0  0  0  0  0  0  0  0  0  0  0
    7.8335  -13.7809   17.9194 C   0  0  0  0  0  0  0  0  0  0  0  0
    8.2505  -14.5667   17.0291 O   0  0  0  0  0  0  0  0  0  0  0  0
    7.4741  -14.3803   19.2406 C   0  0  0  0  0  0  0  0  0  0  0  0
    8.7096  -14.3335   20.1224 C   0  0  2  0  0  0  0  0  0  0  0  0
    9.8338  -14.9661   19.5107 N   0  0  0  0  0  0  0  0  0  0  0  0
    8.4308  -14.8024   21.4891 C   0  0  0  0  0  0  0  0  0  0  0  0
    7.3091  -14.4712   21.9858 O   0  0  0  0  0  0  0  0  0  0  0  0
   10.3099  -20.8928   23.7927 N   0  0  0  0  0  0  0  0  0  0  0  0
   10.6941  -19.5321   23.6479 C   0  0  0  0  0  0  0  0  0  0  0  0
   11.8858  -19.2314   23.9022 O   0  0  0  0  0  0  0  0  0  0  0  0
    9.7782  -18.4688   23.2199 C   0  0  0  0  0  0  0  0  0  0  0  0
    9.8426  -17.2119   24.0060 C   0  0  0  0  0  0  0  0  0  0  0  0
    8.9452  -16.1010   23.5103 C   0  0  2  0  0  0  0  0  0  0  0  0
    9.3511  -15.5867   22.2381 N   0  0  0  0  0  0  0  0  0  0  0  0
    9.0626  -15.0143   24.5380 C   0  0  0  0  0  0  0  0  0  0  0  0
   10.1480  -14.3746   24.5693 O   0  0  0  0  0  0  0  0  0  0  0  0
    6.7590  -11.9025   25.2004 C   0  0  0  0  0  0  0  0  0  0  0  0
    6.9564  -12.7404   26.4427 C   0  0  1  0  0  0  0  0  0  0  0  0
    5.8627  -13.5926   26.6437 O   0  0  0  0  0  0  0  0  0  0  0  0
    8.1893  -13.6107   26.3554 C   0  0  2  0  0  0  0  0  0  0  0  0
    8.0250  -14.7068   25.4334 N   0  0  0  0  0  0  0  0  0  0  0  0
    8.5653  -14.0937   27.7130 C   0  0  0  0  0  0  0  0  0  0  0  0
    8.8832  -13.2407   28.7448 O   0  0  0  0  0  0  0  0  0  0  0  0
    8.5884  -15.3328   27.9084 O   0  0  0  0  0  0  0  0  0  0  0  0
  2  1  1  0
  2  3  2  0
  4  2  1  0
  5  4  1  0
  5  7  1  0
  5  6  1  6
  7  8  2  0
 10  9  1  0
 10 12  1  0
 11 10  2  0
 13 12  1  0
 14 13  1  1
 15 14  1  0
 15  7  1  0
 16 14  1  0
 16 17  2  0
 19 18  1  6
 19 21  1  0
 20 19  1  0
 21 22  1  6
 21 23  1  0
 22 16  1  0
 23 24  1  0
 25 23  2  0
M  END
$$$$
