NQT.pdb
     RDKit          3D

 25 24  0  0  1  0  0  0  0  0999 V2000
    6.1897  -20.8322   21.8116 N   0  0  0  0  0  0  0  0  0  0  0  0
    5.7271  -19.6731   21.1758 C   0  0  0  0  0  0  0  0  0  0  0  0
    5.7241  -19.5218   19.9263 O   0  0  0  0  0  0  0  0  0  0  0  0
    5.2037  -18.5404   21.9986 C   0  0  0  0  0  0  0  0  0  0  0  0
    5.9887  -17.2950   21.6256 C   0  0  2  0  0  0  0  0  0  0  0  0
    6.7999  -17.4948   20.4678 N   0  0  0  0  0  0  0  0  0  0  0  0
    6.7165  -16.7357   22.7757 C   0  0  0  0  0  0  0  0  0  0  0  0
    7.9840  -16.8182   22.7408 O   0  0  0  0  0  0  0  0  0  0  0  0
    7.7690  -12.3753   25.3623 N   0  0  0  0  0  0  0  0  0  0  0  0
    7.7709  -13.0297   26.6241 C   0  0  0  0  0  0  0  0  0  0  0  0
    8.6229  -12.6645   27.4701 O   0  0  0  0  0  0  0  0  0  0  0  0
    6.8364  -14.1011   26.9867 C   0  0  0  0  0  0  0  0  0  0  0  0
    6.0628  -14.6849   25.8631 C   0  0  0  0  0  0  0  0  0  0  0  0
    6.8535  -15.5869   24.9431 C   0  0  2  0  0  0  0  0  0  0  0  0
    6.0606  -16.1288   23.8822 N   0  0  0  0  0  0  0  0  0  0  0  0
    7.3378  -16.7080   25.8146 C   0  0  0  0  0  0  0  0  0  0  0  0
    6.4577  -17.4194   26.3691 O   0  0  0  0  0  0  0  0  0  0  0  0
    9.0710  -19.7732   24.9953 C   0  0  0  0  0  0  0  0  0  0  0  0
    9.8841  -19.1217   26.0901 C   0  0  1  0  0  0  0  0  0  0  0  0
   11.0065  -18.4759   25.5554 O   0  0  0  0  0  0  0  0  0  0  0  0
    9.0916  -18.0822   26.8495 C   0  0  2  0  0  0  0  0  0  0  0  0
    8.7025  -16.9709   26.0176 N   0  0  0  0  0  0  0  0  0  0  0  0
    9.8629  -17.6271   28.0394 C   0  0  0  0  0  0  0  0  0  0  0  0
   10.2077  -18.4709   29.0702 O   0  0  0  0  0  0  0  0  0  0  0  0
   10.2053  -16.4212   28.0893 O   0  0  0  0  0  0  0  0  0  0  0  0
  2  1  1  0
  2  3  2  0
  4  2  1  0
  5  4  1  0
  5  7  1  0
  5  6  1  6
  7  8  2  0
 10  9  1  0
 10 12  1  0
 11 10  2  0
 13 12  1  0
 14 13  1  1
 15 14  1  0
 15  7  1  0
 16 14  1  0
 16 17  2  0
 19 18  1  6
 19 21  1  0
 20 19  1  0
 21 22  1  6
 21 23  1  0
 22 16  1  0
 23 24  1  0
 25 23  2  0
M  END
$$$$
