NQT.pdb
     RDKit          3D

 25 24  0  0  1  0  0  0  0  0999 V2000
    8.3080  -12.7088   16.9791 N   0  0  0  0  0  0  0  0  0  0  0  0
    7.9147  -13.9827   17.4082 C   0  0  0  0  0  0  0  0  0  0  0  0
    8.1854  -15.0400   16.7812 O   0  0  0  0  0  0  0  0  0  0  0  0
    7.1318  -14.1247   18.6735 C   0  0  0  0  0  0  0  0  0  0  0  0
    7.9956  -13.6132   19.8130 C   0  0  2  0  0  0  0  0  0  0  0  0
    9.3543  -13.4238   19.4175 N   0  0  0  0  0  0  0  0  0  0  0  0
    7.8356  -14.4205   21.0329 C   0  0  0  0  0  0  0  0  0  0  0  0
    6.6470  -14.5941   21.4475 O   0  0  0  0  0  0  0  0  0  0  0  0
    9.6254  -19.7014   24.2263 N   0  0  0  0  0  0  0  0  0  0  0  0
    9.9501  -19.2848   22.9067 C   0  0  0  0  0  0  0  0  0  0  0  0
   10.6545  -20.0535   22.2082 O   0  0  0  0  0  0  0  0  0  0  0  0
    9.5084  -18.0133   22.3228 C   0  0  0  0  0  0  0  0  0  0  0  0
    9.6858  -16.8168   23.1824 C   0  0  0  0  0  0  0  0  0  0  0  0
    8.6889  -15.7056   22.9450 C   0  0  2  0  0  0  0  0  0  0  0  0
    8.9363  -14.9887   21.7316 N   0  0  0  0  0  0  0  0  0  0  0  0
    8.8574  -14.7729   24.1081 C   0  0  0  0  0  0  0  0  0  0  0  0
    9.9235  -14.1022   24.1505 O   0  0  0  0  0  0  0  0  0  0  0  0
    6.6801  -11.8271   25.3174 C   0  0  0  0  0  0  0  0  0  0  0  0
    6.9057  -12.8167   26.4372 C   0  0  1  0  0  0  0  0  0  0  0  0
    5.7965  -13.6601   26.5833 O   0  0  0  0  0  0  0  0  0  0  0  0
    8.1069  -13.6997   26.1866 C   0  0  2  0  0  0  0  0  0  0  0  0
    7.8864  -14.6372   25.1139 N   0  0  0  0  0  0  0  0  0  0  0  0
    8.4958  -14.3947   27.4450 C   0  0  0  0  0  0  0  0  0  0  0  0
    8.8729  -13.7186   28.5826 O   0  0  0  0  0  0  0  0  0  0  0  0
    8.4734  -15.6490   27.4524 O   0  0  0  0  0  0  0  0  0  0  0  0
  2  1  1  0
  2  3  2  0
  4  2  1  0
  5  4  1  0
  5  7  1  0
  5  6  1  6
  7  8  2  0
 10  9  1  0
 10 12  1  0
 11 10  2  0
 13 12  1  0
 14 13  1  1
 15 14  1  0
 15  7  1  0
 16 14  1  0
 16 17  2  0
 19 18  1  6
 19 21  1  0
 20 19  1  0
 21 22  1  6
 21 23  1  0
 22 16  1  0
 23 24  1  0
 25 23  2  0
M  END
$$$$
