NQT.pdb
     RDKit          3D

 25 24  0  0  1  0  0  0  0  0999 V2000
    9.2765  -18.4384   15.1695 N   0  0  0  0  0  0  0  0  0  0  0  0
    7.9618  -18.3773   15.6483 C   0  0  0  0  0  0  0  0  0  0  0  0
    6.9494  -18.4088   14.9012 O   0  0  0  0  0  0  0  0  0  0  0  0
    7.7177  -18.2690   17.1190 C   0  0  0  0  0  0  0  0  0  0  0  0
    9.0551  -18.0191   17.7937 C   0  0  2  0  0  0  0  0  0  0  0  0
   10.0610  -18.9312   17.3527 N   0  0  0  0  0  0  0  0  0  0  0  0
    8.9278  -17.9320   19.2571 C   0  0  0  0  0  0  0  0  0  0  0  0
    7.8082  -17.5338   19.7074 O   0  0  0  0  0  0  0  0  0  0  0  0
   12.1172  -19.0079   25.8916 N   0  0  0  0  0  0  0  0  0  0  0  0
   11.7210  -19.4913   24.6150 C   0  0  0  0  0  0  0  0  0  0  0  0
   12.3388  -20.4781   24.1466 O   0  0  0  0  0  0  0  0  0  0  0  0
   10.6360  -18.9020   23.8224 C   0  0  0  0  0  0  0  0  0  0  0  0
   10.8672  -18.8496   22.3576 C   0  0  0  0  0  0  0  0  0  0  0  0
    9.7439  -18.2343   21.5546 C   0  0  2  0  0  0  0  0  0  0  0  0
    9.9864  -18.2697   20.1448 N   0  0  0  0  0  0  0  0  0  0  0  0
    9.6780  -16.8045   22.0046 C   0  0  0  0  0  0  0  0  0  0  0  0
   10.6099  -16.0449   21.6267 O   0  0  0  0  0  0  0  0  0  0  0  0
    7.6622  -13.9082   21.1602 C   0  0  0  0  0  0  0  0  0  0  0  0
    7.5058  -14.1406   22.6454 C   0  0  1  0  0  0  0  0  0  0  0  0
    6.3331  -14.8589   22.9131 O   0  0  0  0  0  0  0  0  0  0  0  0
    8.6557  -14.9331   23.2243 C   0  0  2  0  0  0  0  0  0  0  0  0
    8.6367  -16.3135   22.8092 N   0  0  0  0  0  0  0  0  0  0  0  0
    8.6579  -14.8114   24.7086 C   0  0  0  0  0  0  0  0  0  0  0  0
    8.7467  -13.6005   25.3559 O   0  0  0  0  0  0  0  0  0  0  0  0
    8.5744  -15.8661   25.3829 O   0  0  0  0  0  0  0  0  0  0  0  0
  2  1  1  0
  2  3  2  0
  4  2  1  0
  5  4  1  0
  5  7  1  0
  5  6  1  1
  7  8  2  0
 10  9  1  0
 10 12  1  0
 11 10  2  0
 13 12  1  0
 14 13  1  1
 15 14  1  0
 15  7  1  0
 16 14  1  0
 16 17  2  0
 19 18  1  6
 19 21  1  0
 20 19  1  0
 21 22  1  1
 21 23  1  0
 22 16  1  0
 23 24  1  0
 25 23  2  0
M  END
$$$$
