NQT.pdb
     RDKit          3D

 25 24  0  0  1  0  0  0  0  0999 V2000
    7.0971  -18.6069   17.5564 N   0  0  0  0  0  0  0  0  0  0  0  0
    7.1231  -17.3141   18.0945 C   0  0  0  0  0  0  0  0  0  0  0  0
    7.4109  -16.2891   17.4232 O   0  0  0  0  0  0  0  0  0  0  0  0
    6.7960  -17.1106   19.5388 C   0  0  0  0  0  0  0  0  0  0  0  0
    7.9623  -16.3787   20.1795 C   0  0  2  0  0  0  0  0  0  0  0  0
    9.2234  -16.8813   19.7377 N   0  0  0  0  0  0  0  0  0  0  0  0
    7.8293  -16.3019   21.6430 C   0  0  0  0  0  0  0  0  0  0  0  0
    6.6887  -15.9689   22.0932 O   0  0  0  0  0  0  0  0  0  0  0  0
   11.4072  -19.1111   26.3007 N   0  0  0  0  0  0  0  0  0  0  0  0
   10.3879  -18.3334   26.9143 C   0  0  0  0  0  0  0  0  0  0  0  0
   10.2874  -18.3838   28.1642 O   0  0  0  0  0  0  0  0  0  0  0  0
    9.4545  -17.4813   26.1690 C   0  0  0  0  0  0  0  0  0  0  0  0
    9.6551  -17.4427   24.6993 C   0  0  0  0  0  0  0  0  0  0  0  0
    8.6494  -16.6092   23.9384 C   0  0  2  0  0  0  0  0  0  0  0  0
    8.9049  -16.5806   22.5307 N   0  0  0  0  0  0  0  0  0  0  0  0
    8.7926  -15.2215   24.4906 C   0  0  0  0  0  0  0  0  0  0  0  0
    9.8289  -14.5828   24.1643 O   0  0  0  0  0  0  0  0  0  0  0  0
    6.4046  -12.0808   24.3802 C   0  0  0  0  0  0  0  0  0  0  0  0
    6.7862  -12.4668   25.7908 C   0  0  1  0  0  0  0  0  0  0  0  0
    5.7673  -13.2178   26.3912 O   0  0  0  0  0  0  0  0  0  0  0  0
    8.0429  -13.3060   25.8338 C   0  0  2  0  0  0  0  0  0  0  0  0
    7.8303  -14.6411   25.3331 N   0  0  0  0  0  0  0  0  0  0  0  0
    8.5918  -13.3252   27.2180 C   0  0  0  0  0  0  0  0  0  0  0  0
    8.9182  -12.1787   27.9052 O   0  0  0  0  0  0  0  0  0  0  0  0
    8.7576  -14.4411   27.7670 O   0  0  0  0  0  0  0  0  0  0  0  0
  2  1  1  0
  2  3  2  0
  4  2  1  0
  5  4  1  0
  5  7  1  0
  5  6  1  1
  7  8  2  0
 10  9  1  0
 10 12  1  0
 11 10  2  0
 13 12  1  0
 14 13  1  1
 15 14  1  0
 15  7  1  0
 16 14  1  0
 16 17  2  0
 19 18  1  6
 19 21  1  0
 20 19  1  0
 21 22  1  1
 21 23  1  0
 22 16  1  0
 23 24  1  0
 25 23  2  0
M  END
$$$$
