NQT.pdb
     RDKit          3D

 25 24  0  0  1  0  0  0  0  0999 V2000
    7.4886  -12.3823   17.4848 N   0  0  0  0  0  0  0  0  0  0  0  0
    7.7527  -13.7343   17.7375 C   0  0  0  0  0  0  0  0  0  0  0  0
    8.3001  -14.5017   16.9035 O   0  0  0  0  0  0  0  0  0  0  0  0
    7.3761  -14.3242   19.0583 C   0  0  0  0  0  0  0  0  0  0  0  0
    8.4917  -14.0123   20.0403 C   0  0  2  0  0  0  0  0  0  0  0  0
    9.7845  -14.2380   19.4782 N   0  0  0  0  0  0  0  0  0  0  0  0
    8.2826  -14.6690   21.3405 C   0  0  0  0  0  0  0  0  0  0  0  0
    7.0982  -14.6546   21.8004 O   0  0  0  0  0  0  0  0  0  0  0  0
   12.1266  -19.5109   22.4023 N   0  0  0  0  0  0  0  0  0  0  0  0
   10.9566  -19.2636   23.1705 C   0  0  0  0  0  0  0  0  0  0  0  0
   10.7615  -19.9776   24.1840 O   0  0  0  0  0  0  0  0  0  0  0  0
    9.9727  -18.2254   22.8436 C   0  0  0  0  0  0  0  0  0  0  0  0
   10.0284  -17.0023   23.6819 C   0  0  0  0  0  0  0  0  0  0  0  0
    9.0305  -15.9284   23.3130 C   0  0  2  0  0  0  0  0  0  0  0  0
    9.3336  -15.2949   22.0661 N   0  0  0  0  0  0  0  0  0  0  0  0
    9.1229  -14.9128   24.4135 C   0  0  0  0  0  0  0  0  0  0  0  0
   10.1532  -14.1874   24.4342 O   0  0  0  0  0  0  0  0  0  0  0  0
    6.8392  -11.9573   25.2313 C   0  0  0  0  0  0  0  0  0  0  0  0
    6.9957  -12.8500   26.4408 C   0  0  1  0  0  0  0  0  0  0  0  0
    5.9029  -13.7186   26.5595 O   0  0  0  0  0  0  0  0  0  0  0  0
    8.2391  -13.7063   26.3625 C   0  0  2  0  0  0  0  0  0  0  0  0
    8.1208  -14.7601   25.3858 N   0  0  0  0  0  0  0  0  0  0  0  0
    8.5665  -14.2482   27.7104 C   0  0  0  0  0  0  0  0  0  0  0  0
    8.7963  -13.4415   28.8012 O   0  0  0  0  0  0  0  0  0  0  0  0
    8.6315  -15.4943   27.8409 O   0  0  0  0  0  0  0  0  0  0  0  0
  2  1  1  0
  2  3  2  0
  4  2  1  0
  5  4  1  0
  5  7  1  0
  5  6  1  6
  7  8  2  0
 10  9  1  0
 10 12  1  0
 11 10  2  0
 13 12  1  0
 14 13  1  1
 15 14  1  0
 15  7  1  0
 16 14  1  0
 16 17  2  0
 19 18  1  6
 19 21  1  0
 20 19  1  0
 21 22  1  6
 21 23  1  0
 22 16  1  0
 23 24  1  0
 25 23  2  0
M  END
$$$$
