CMH.pdb
     RDKit          3D

 25 25  0  0  1  0  0  0  0  0999 V2000
   26.9662  -36.1782  -11.5394 N   0  0  0  0  0  0  0  0  0  0  0  0
   27.0807  -34.8617  -10.9923 C   0  0  1  0  0  0  0  0  0  0  0  0
   26.0247  -33.9339  -11.4946 C   0  0  0  0  0  0  0  0  0  0  0  0
   26.6173  -33.1642  -13.0255 S   0  0  0  0  0  0  0  0  0  0  0  0
   27.0516  -34.9409   -9.4910 C   0  0  0  0  0  0  0  0  0  0  0  0
   26.1579  -35.5845   -8.8911 O   0  0  0  0  0  0  0  0  0  0  0  0
   33.1222  -35.9459   -7.5563 C   0  0  0  0  0  0  0  0  0  0  0  0
   31.9942  -34.5701   -7.3247 S   0  0  0  0  0  0  0  0  0  0  0  0
   30.2946  -35.1044   -6.9945 C   0  0  0  0  0  0  0  0  0  0  0  0
   29.3895  -33.9227   -6.7095 C   0  0  0  0  0  0  0  0  0  0  0  0
   28.0558  -34.2316   -7.2865 C   0  0  2  0  0  0  0  0  0  0  0  0
   28.0448  -34.2816   -8.7229 N   0  0  0  0  0  0  0  0  0  0  0  0
   26.9291  -33.4495   -6.7032 C   0  0  0  0  0  0  0  0  0  0  0  0
   26.6713  -32.3439   -7.2337 O   0  0  0  0  0  0  0  0  0  0  0  0
   26.1650  -33.8901   -5.6121 N   0  0  0  0  0  0  0  0  0  0  0  0
   25.0261  -33.1796   -5.0920 C   0  0  1  0  0  0  0  0  0  0  0  0
   23.7611  -33.4748   -5.8772 C   0  0  0  0  0  0  0  0  0  0  0  0
   23.6091  -32.5401   -7.0220 C   0  0  0  0  0  0  0  0  0  0  0  0
   24.5117  -31.5560   -7.3981 C   0  0  0  0  0  0  0  0  0  0  0  0
   24.0460  -30.9013   -8.4818 N   0  0  0  0  0  0  0  0  0  0  0  0
   22.8682  -31.4483   -8.8013 C   0  0  0  0  0  0  0  0  0  0  0  0
   22.6017  -32.4456   -7.9133 N   0  0  0  0  0  0  0  0  0  0  0  0
   24.7498  -33.5675   -3.6919 C   0  0  0  0  0  0  0  0  0  0  0  0
   23.9141  -32.9705   -2.9798 O   0  0  0  0  0  0  0  0  0  0  0  0
   25.4436  -34.6312   -3.1526 O   0  0  0  0  0  0  0  0  0  0  0  0
  2  1  1  6
  2  5  1  0
  3  2  1  0
  3  4  1  0
  5  6  2  0
  7  8  1  0
  9  8  1  0
 10  9  1  0
 11 10  1  6
 11 13  1  0
 12  5  1  0
 12 11  1  0
 13 15  1  0
 13 14  2  0
 15 16  1  0
 16 23  1  0
 17 18  1  0
 16 17  1  6
 18 19  2  0
 19 20  1  0
 21 20  1  0
 22 18  1  0
 22 21  2  0
 23 24  2  0
 23 25  1  0
M  END
$$$$
