CMH.pdb
     RDKit          3D

 25 25  0  0  1  0  0  0  0  0999 V2000
   27.8736  -20.7851  -16.5522 N   0  0  0  0  0  0  0  0  0  0  0  0
   27.6472  -19.9185  -15.4371 C   0  0  1  0  0  0  0  0  0  0  0  0
   27.2095  -18.5518  -15.8474 C   0  0  0  0  0  0  0  0  0  0  0  0
   28.6053  -17.7188  -16.6506 S   0  0  0  0  0  0  0  0  0  0  0  0
   26.6404  -20.5466  -14.5135 C   0  0  0  0  0  0  0  0  0  0  0  0
   25.7580  -21.3255  -14.9465 O   0  0  0  0  0  0  0  0  0  0  0  0
   23.9146  -21.4767   -7.1253 C   0  0  0  0  0  0  0  0  0  0  0  0
   25.2854  -20.9610   -8.1615 S   0  0  0  0  0  0  0  0  0  0  0  0
   24.9043  -21.0612   -9.9301 C   0  0  0  0  0  0  0  0  0  0  0  0
   26.0610  -20.5636  -10.7735 C   0  0  0  0  0  0  0  0  0  0  0  0
   25.6426  -20.6415  -12.1968 C   0  0  2  0  0  0  0  0  0  0  0  0
   26.6739  -20.2641  -13.1242 N   0  0  0  0  0  0  0  0  0  0  0  0
   24.3162  -20.0281  -12.4900 C   0  0  0  0  0  0  0  0  0  0  0  0
   24.2613  -18.7764  -12.5076 O   0  0  0  0  0  0  0  0  0  0  0  0
   23.1563  -20.7767  -12.7407 N   0  0  0  0  0  0  0  0  0  0  0  0
   21.8922  -20.1963  -13.1115 C   0  0  1  0  0  0  0  0  0  0  0  0
   22.0068  -19.3155  -14.3423 C   0  0  0  0  0  0  0  0  0  0  0  0
   21.8780  -20.1143  -15.5883 C   0  0  0  0  0  0  0  0  0  0  0  0
   21.7039  -21.4886  -15.6631 C   0  0  0  0  0  0  0  0  0  0  0  0
   21.6256  -21.8680  -16.9552 N   0  0  0  0  0  0  0  0  0  0  0  0
   21.7462  -20.7650  -17.7017 C   0  0  0  0  0  0  0  0  0  0  0  0
   21.8999  -19.6974  -16.8706 N   0  0  0  0  0  0  0  0  0  0  0  0
   20.9000  -21.2435  -13.4372 C   0  0  0  0  0  0  0  0  0  0  0  0
   21.1933  -22.4572  -13.4879 O   0  0  0  0  0  0  0  0  0  0  0  0
   19.5990  -20.8626  -13.6948 O   0  0  0  0  0  0  0  0  0  0  0  0
  2  1  1  6
  2  5  1  0
  3  2  1  0
  3  4  1  0
  5  6  2  0
  7  8  1  0
  9  8  1  0
 10  9  1  0
 11 10  1  1
 11 13  1  0
 12  5  1  0
 12 11  1  0
 13 15  1  0
 13 14  2  0
 15 16  1  0
 16 23  1  0
 17 18  1  0
 16 17  1  6
 18 19  2  0
 19 20  1  0
 21 20  1  0
 22 18  1  0
 22 21  2  0
 23 24  2  0
 23 25  1  0
M  END
$$$$
