CMH.pdb
     RDKit          3D

 25 25  0  0  1  0  0  0  0  0999 V2000
   28.6096  -17.5044  -17.3582 N   0  0  0  0  0  0  0  0  0  0  0  0
   27.1845  -17.4140  -17.2772 C   0  0  1  0  0  0  0  0  0  0  0  0
   26.5283  -17.4210  -18.6179 C   0  0  0  0  0  0  0  0  0  0  0  0
   27.1579  -16.0143  -19.5729 S   0  0  0  0  0  0  0  0  0  0  0  0
   26.6613  -18.5339  -16.4210 C   0  0  0  0  0  0  0  0  0  0  0  0
   26.8133  -19.7331  -16.7549 O   0  0  0  0  0  0  0  0  0  0  0  0
   25.4782  -21.8413   -9.5655 C   0  0  0  0  0  0  0  0  0  0  0  0
   26.0000  -20.3814  -10.4683 S   0  0  0  0  0  0  0  0  0  0  0  0
   25.4613  -20.3967  -12.1983 C   0  0  0  0  0  0  0  0  0  0  0  0
   26.0333  -19.2214  -12.9654 C   0  0  0  0  0  0  0  0  0  0  0  0
   25.4430  -19.2472  -14.3284 C   0  0  2  0  0  0  0  0  0  0  0  0
   25.9805  -18.2475  -15.2103 N   0  0  0  0  0  0  0  0  0  0  0  0
   23.9559  -19.3411  -14.3609 C   0  0  0  0  0  0  0  0  0  0  0  0
   23.3190  -18.4896  -13.6979 O   0  0  0  0  0  0  0  0  0  0  0  0
   23.2582  -20.3193  -15.0854 N   0  0  0  0  0  0  0  0  0  0  0  0
   22.3125  -21.2308  -14.4963 C   0  0  1  0  0  0  0  0  0  0  0  0
   22.9854  -22.2471  -13.5918 C   0  0  0  0  0  0  0  0  0  0  0  0
   23.8922  -23.1356  -14.3634 C   0  0  0  0  0  0  0  0  0  0  0  0
   24.1273  -23.0750  -15.7294 C   0  0  0  0  0  0  0  0  0  0  0  0
   25.0073  -24.0344  -16.0829 N   0  0  0  0  0  0  0  0  0  0  0  0
   25.3355  -24.7021  -14.9717 C   0  0  0  0  0  0  0  0  0  0  0  0
   24.6573  -24.1558  -13.9249 N   0  0  0  0  0  0  0  0  0  0  0  0
   21.3292  -20.5110  -13.6585 C   0  0  0  0  0  0  0  0  0  0  0  0
   21.3742  -19.2751  -13.4782 O   0  0  0  0  0  0  0  0  0  0  0  0
   20.3227  -21.2349  -13.0528 O   0  0  0  0  0  0  0  0  0  0  0  0
  2  1  1  6
  2  5  1  0
  3  2  1  0
  3  4  1  0
  5  6  2  0
  7  8  1  0
  9  8  1  0
 10  9  1  0
 11 10  1  1
 11 13  1  0
 12  5  1  0
 12 11  1  0
 13 15  1  0
 13 14  2  0
 15 16  1  0
 16 23  1  0
 17 18  1  0
 16 17  1  1
 18 19  2  0
 19 20  1  0
 21 20  1  0
 22 18  1  0
 22 21  2  0
 23 24  2  0
 23 25  1  0
M  END
$$$$
