CMH.pdb
     RDKit          3D

 25 25  0  0  1  0  0  0  0  0999 V2000
   37.6655   60.4278  -22.2816 N   0  0  0  0  0  0  0  0  0  0  0  0
   36.5242   61.0483  -22.8800 C   0  0  1  0  0  0  0  0  0  0  0  0
   36.3081   60.6190  -24.2932 C   0  0  0  0  0  0  0  0  0  0  0  0
   37.8127   60.9780  -25.2390 S   0  0  0  0  0  0  0  0  0  0  0  0
   35.3067   60.7655  -22.0441 C   0  0  0  0  0  0  0  0  0  0  0  0
   34.5744   59.7743  -22.2766 O   0  0  0  0  0  0  0  0  0  0  0  0
   33.6386   63.7562  -15.7151 C   0  0  0  0  0  0  0  0  0  0  0  0
   35.2544   63.5863  -16.4760 S   0  0  0  0  0  0  0  0  0  0  0  0
   35.3517   62.1746  -17.6078 C   0  0  0  0  0  0  0  0  0  0  0  0
   34.3070   62.2705  -18.7016 C   0  0  0  0  0  0  0  0  0  0  0  0
   34.5661   61.1698  -19.6651 C   0  0  2  0  0  0  0  0  0  0  0  0
   34.9647   61.6247  -20.9690 N   0  0  0  0  0  0  0  0  0  0  0  0
   33.5211   60.1075  -19.6921 C   0  0  0  0  0  0  0  0  0  0  0  0
   33.5402   59.2688  -18.7613 O   0  0  0  0  0  0  0  0  0  0  0  0
   32.5418   60.0112  -20.6923 N   0  0  0  0  0  0  0  0  0  0  0  0
   32.7530   59.3656  -21.9615 C   0  0  1  0  0  0  0  0  0  0  0  0
   31.4466   58.9779  -22.6299 C   0  0  0  0  0  0  0  0  0  0  0  0
   31.6473   57.8702  -23.5994 C   0  0  0  0  0  0  0  0  0  0  0  0
   30.9152   56.6932  -23.6577 C   0  0  0  0  0  0  0  0  0  0  0  0
   31.3745   55.9205  -24.6636 N   0  0  0  0  0  0  0  0  0  0  0  0
   32.3816   56.5813  -25.2446 C   0  0  0  0  0  0  0  0  0  0  0  0
   32.5482   57.7678  -24.5975 N   0  0  0  0  0  0  0  0  0  0  0  0
   33.4561   60.2616  -22.9048 C   0  0  0  0  0  0  0  0  0  0  0  0
   34.6820   60.4923  -22.8282 O   0  0  0  0  0  0  0  0  0  0  0  0
   32.7274   60.8657  -23.9088 O   0  0  0  0  0  0  0  0  0  0  0  0
  2  1  1  1
  2  5  1  0
  3  2  1  0
  3  4  1  0
  5  6  2  0
  7  8  1  0
  9  8  1  0
 10  9  1  0
 11 10  1  1
 11 13  1  0
 12  5  1  0
 12 11  1  0
 13 15  1  0
 13 14  2  0
 15 16  1  0
 16 23  1  0
 17 18  1  0
 16 17  1  6
 18 19  2  0
 19 20  1  0
 21 20  1  0
 22 18  1  0
 22 21  2  0
 23 24  2  0
 23 25  1  0
M  END
$$$$
