CMH.pdb
     RDKit          3D

 25 25  0  0  1  0  0  0  0  0999 V2000
   21.3225  -15.2193  -18.6503 N   0  0  0  0  0  0  0  0  0  0  0  0
   21.2740  -13.9492  -19.3061 C   0  0  1  0  0  0  0  0  0  0  0  0
   19.9251  -13.6390  -19.8649 C   0  0  0  0  0  0  0  0  0  0  0  0
   19.6935  -14.6097  -21.3787 S   0  0  0  0  0  0  0  0  0  0  0  0
   21.7149  -12.8763  -18.3492 C   0  0  0  0  0  0  0  0  0  0  0  0
   21.2429  -12.8054  -17.1895 O   0  0  0  0  0  0  0  0  0  0  0  0
   26.5903  -10.3978  -14.7460 C   0  0  0  0  0  0  0  0  0  0  0  0
   25.7921  -10.9810  -16.2431 S   0  0  0  0  0  0  0  0  0  0  0  0
   25.1452   -9.6313  -17.2645 C   0  0  0  0  0  0  0  0  0  0  0  0
   24.3584  -10.1613  -18.4465 C   0  0  0  0  0  0  0  0  0  0  0  0
   23.1571  -10.8516  -17.9106 C   0  0  2  0  0  0  0  0  0  0  0  0
   22.6813  -11.9182  -18.7485 N   0  0  0  0  0  0  0  0  0  0  0  0
   22.0809   -9.9416  -17.4259 C   0  0  0  0  0  0  0  0  0  0  0  0
   21.0480   -9.8585  -18.1306 O   0  0  0  0  0  0  0  0  0  0  0  0
   22.1751   -9.1935  -16.2428 N   0  0  0  0  0  0  0  0  0  0  0  0
   21.1507   -8.2948  -15.7787 C   0  0  1  0  0  0  0  0  0  0  0  0
   20.1402   -8.9920  -14.8863 C   0  0  0  0  0  0  0  0  0  0  0  0
   19.0977   -9.6800  -15.6907 C   0  0  0  0  0  0  0  0  0  0  0  0
   19.0084   -9.6895  -17.0751 C   0  0  0  0  0  0  0  0  0  0  0  0
   17.9369  -10.4145  -17.4573 N   0  0  0  0  0  0  0  0  0  0  0  0
   17.3447  -10.8651  -16.3462 C   0  0  0  0  0  0  0  0  0  0  0  0
   18.0506  -10.4185  -15.2707 N   0  0  0  0  0  0  0  0  0  0  0  0
   21.7295   -7.1955  -14.9765 C   0  0  0  0  0  0  0  0  0  0  0  0
   22.9549   -7.0984  -14.7516 O   0  0  0  0  0  0  0  0  0  0  0  0
   20.8805   -6.2400  -14.4568 O   0  0  0  0  0  0  0  0  0  0  0  0
  2  1  1  1
  2  5  1  0
  3  2  1  0
  3  4  1  0
  5  6  2  0
  7  8  1  0
  9  8  1  0
 10  9  1  0
 11 10  1  6
 11 13  1  0
 12  5  1  0
 12 11  1  0
 13 15  1  0
 13 14  2  0
 15 16  1  0
 16 23  1  0
 17 18  1  0
 16 17  1  1
 18 19  2  0
 19 20  1  0
 21 20  1  0
 22 18  1  0
 22 21  2  0
 23 24  2  0
 23 25  1  0
M  END
$$$$
