CMH.pdb
     RDKit          3D

 25 25  0  0  1  0  0  0  0  0999 V2000
   20.9863  -16.4145  -17.8850 N   0  0  0  0  0  0  0  0  0  0  0  0
   21.3552  -15.3413  -18.7555 C   0  0  1  0  0  0  0  0  0  0  0  0
   20.2129  -14.8477  -19.5797 C   0  0  0  0  0  0  0  0  0  0  0  0
   19.6786  -16.1855  -20.6807 S   0  0  0  0  0  0  0  0  0  0  0  0
   21.9508  -14.2236  -17.9449 C   0  0  0  0  0  0  0  0  0  0  0  0
   21.4372  -13.8624  -16.8594 O   0  0  0  0  0  0  0  0  0  0  0  0
   27.3386  -10.9733  -14.5545 C   0  0  0  0  0  0  0  0  0  0  0  0
   26.7136  -12.1160  -15.7882 S   0  0  0  0  0  0  0  0  0  0  0  0
   25.7810  -11.2880  -17.1027 C   0  0  0  0  0  0  0  0  0  0  0  0
   25.1841  -12.2892  -18.0714 C   0  0  0  0  0  0  0  0  0  0  0  0
   23.7599  -12.4811  -17.6949 C   0  0  2  0  0  0  0  0  0  0  0  0
   23.1147  -13.5539  -18.4011 N   0  0  0  0  0  0  0  0  0  0  0  0
   22.9560  -11.2271  -17.6413 C   0  0  0  0  0  0  0  0  0  0  0  0
   22.5026  -10.7968  -18.7273 O   0  0  0  0  0  0  0  0  0  0  0  0
   22.6932  -10.5271  -16.4540 N   0  0  0  0  0  0  0  0  0  0  0  0
   21.9099   -9.3209  -16.3913 C   0  0  1  0  0  0  0  0  0  0  0  0
   21.1659   -9.1905  -15.0748 C   0  0  0  0  0  0  0  0  0  0  0  0
   20.3557   -7.9457  -15.0368 C   0  0  0  0  0  0  0  0  0  0  0  0
   20.3313   -6.9571  -16.0099 C   0  0  0  0  0  0  0  0  0  0  0  0
   19.4823   -5.9759  -15.6409 N   0  0  0  0  0  0  0  0  0  0  0  0
   18.9677   -6.3201  -14.4555 C   0  0  0  0  0  0  0  0  0  0  0  0
   19.4988   -7.5186  -14.0872 N   0  0  0  0  0  0  0  0  0  0  0  0
   22.7676   -8.1218  -16.5080 C   0  0  0  0  0  0  0  0  0  0  0  0
   22.3439   -7.0304  -16.9452 O   0  0  0  0  0  0  0  0  0  0  0  0
   24.0879   -8.2142  -16.1179 O   0  0  0  0  0  0  0  0  0  0  0  0
  2  1  1  1
  2  5  1  0
  3  2  1  0
  3  4  1  0
  5  6  2  0
  7  8  1  0
  9  8  1  0
 10  9  1  0
 11 10  1  6
 11 13  1  0
 12  5  1  0
 12 11  1  0
 13 15  1  0
 13 14  2  0
 15 16  1  0
 16 23  1  0
 17 18  1  0
 16 17  1  1
 18 19  2  0
 19 20  1  0
 21 20  1  0
 22 18  1  0
 22 21  2  0
 23 24  2  0
 23 25  1  0
M  END
$$$$
