CMH.pdb
     RDKit          3D

 25 25  0  0  1  0  0  0  0  0999 V2000
   19.9447  -17.2401    9.9334 N   0  0  0  0  0  0  0  0  0  0  0  0
   20.3570  -16.7039    8.6733 C   0  0  1  0  0  0  0  0  0  0  0  0
   20.5763  -17.7591    7.6406 C   0  0  0  0  0  0  0  0  0  0  0  0
   22.3596  -17.9247    7.3584 S   0  0  0  0  0  0  0  0  0  0  0  0
   19.3422  -15.6990    8.2025 C   0  0  0  0  0  0  0  0  0  0  0  0
   18.1552  -15.7360    8.6056 O   0  0  0  0  0  0  0  0  0  0  0  0
   21.2549   -9.1292    8.3466 C   0  0  0  0  0  0  0  0  0  0  0  0
   20.8404  -10.1885    6.9593 S   0  0  0  0  0  0  0  0  0  0  0  0
   19.8611  -11.6328    7.4476 C   0  0  0  0  0  0  0  0  0  0  0  0
   19.4887  -12.4793    6.2469 C   0  0  0  0  0  0  0  0  0  0  0  0
   18.8124  -13.7010    6.7537 C   0  0  2  0  0  0  0  0  0  0  0  0
   19.7163  -14.6838    7.2857 N   0  0  0  0  0  0  0  0  0  0  0  0
   17.7803  -14.2660    5.8388 C   0  0  0  0  0  0  0  0  0  0  0  0
   18.1897  -14.9760    4.8909 O   0  0  0  0  0  0  0  0  0  0  0  0
   16.4040  -14.0406    5.9923 N   0  0  0  0  0  0  0  0  0  0  0  0
   15.3946  -14.6531    5.1686 C   0  0  1  0  0  0  0  0  0  0  0  0
   15.0649  -16.0634    5.6225 C   0  0  0  0  0  0  0  0  0  0  0  0
   15.9332  -17.0619    4.9469 C   0  0  0  0  0  0  0  0  0  0  0  0
   16.9080  -16.7877    3.9986 C   0  0  0  0  0  0  0  0  0  0  0  0
   17.4969  -17.9360    3.6058 N   0  0  0  0  0  0  0  0  0  0  0  0
   16.9174  -18.9324    4.2839 C   0  0  0  0  0  0  0  0  0  0  0  0
   15.9657  -18.4012    5.1001 N   0  0  0  0  0  0  0  0  0  0  0  0
   14.1289  -13.8900    5.2206 C   0  0  0  0  0  0  0  0  0  0  0  0
   13.9349  -12.9616    6.0343 O   0  0  0  0  0  0  0  0  0  0  0  0
   13.1237  -14.2180    4.3341 O   0  0  0  0  0  0  0  0  0  0  0  0
  2  1  1  1
  2  5  1  0
  3  2  1  0
  3  4  1  0
  5  6  2  0
  7  8  1  0
  9  8  1  0
 10  9  1  0
 11 10  1  6
 11 13  1  0
 12  5  1  0
 12 11  1  0
 13 15  1  0
 13 14  2  0
 15 16  1  0
 16 23  1  0
 17 18  1  0
 16 17  1  1
 18 19  2  0
 19 20  1  0
 21 20  1  0
 22 18  1  0
 22 21  2  0
 23 24  2  0
 23 25  1  0
M  END
$$$$
