AQE.pdb
     RDKit          3D

 24 23  0  0  1  0  0  0  0  0999 V2000
   13.9933   -7.6701  -15.1667 C   0  0  0  0  0  0  0  0  0  0  0  0
   14.8441   -8.8340  -15.6467 C   0  0  2  0  0  0  0  0  0  0  0  0
   14.1438  -10.0519  -15.3594 N   0  0  0  0  0  0  0  0  0  0  0  0
   16.1695   -8.7872  -14.9137 C   0  0  0  0  0  0  0  0  0  0  0  0
   16.1981   -8.5747  -13.6773 O   0  0  0  0  0  0  0  0  0  0  0  0
   21.0616  -12.3222  -16.6816 N   0  0  0  0  0  0  0  0  0  0  0  0
   19.9735  -12.6565  -15.8214 C   0  0  0  0  0  0  0  0  0  0  0  0
   19.8207  -13.8630  -15.5537 O   0  0  0  0  0  0  0  0  0  0  0  0
   19.0971  -11.5558  -15.3016 C   0  0  0  0  0  0  0  0  0  0  0  0
   19.5317  -10.1950  -15.7170 C   0  0  0  0  0  0  0  0  0  0  0  0
   18.7005   -9.0823  -15.0534 C   0  0  2  0  0  0  0  0  0  0  0  0
   17.3773   -8.9800  -15.6071 N   0  0  0  0  0  0  0  0  0  0  0  0
   19.4610   -7.8247  -15.2421 C   0  0  0  0  0  0  0  0  0  0  0  0
   19.2410   -7.0879  -16.2685 O   0  0  0  0  0  0  0  0  0  0  0  0
   20.4542   -7.3291  -14.3629 N   0  0  0  0  0  0  0  0  0  0  0  0
   21.0492   -5.9942  -14.5370 C   0  0  1  0  0  0  0  0  0  0  0  0
   20.0120   -4.9390  -14.4357 C   0  0  0  0  0  0  0  0  0  0  0  0
   20.6125   -3.5636  -14.4455 C   0  0  0  0  0  0  0  0  0  0  0  0
   19.9582   -2.6817  -15.4531 C   0  0  0  0  0  0  0  0  0  0  0  0
   18.7253   -2.5141  -15.4115 O   0  0  0  0  0  0  0  0  0  0  0  0
   22.0950   -5.8473  -13.5084 C   0  0  0  0  0  0  0  0  0  0  0  0
   22.2143   -6.5902  -12.5028 O   0  0  0  0  0  0  0  0  0  0  0  0
   20.7045   -2.0507  -16.4298 O   0  0  0  0  0  0  0  0  0  0  0  0
   23.0285   -4.8174  -13.6412 O   0  0  0  0  0  0  0  0  0  0  0  0
  2  1  1  1
  3  2  1  0
  4  5  2  0
  4  2  1  0
  6  7  1  0
  7  9  1  0
  7  8  2  0
  9 10  1  0
 11 10  1  6
 11 13  1  0
 11 12  1  0
 12  4  1  0
 13 15  1  0
 14 13  2  0
 15 16  1  0
 16 21  1  0
 17 18  1  0
 16 17  1  1
 19 23  1  0
 19 18  1  0
 20 19  2  0
 21 22  2  0
 21 24  1  0
M  END
$$$$
