AQE.pdb
     RDKit          3D

 24 23  0  0  1  0  0  0  0  0999 V2000
   14.9408   -9.6754  -15.7249 C   0  0  0  0  0  0  0  0  0  0  0  0
   16.2278  -10.3599  -16.1535 C   0  0  2  0  0  0  0  0  0  0  0  0
   16.1054  -11.7617  -15.8774 N   0  0  0  0  0  0  0  0  0  0  0  0
   17.3728   -9.7527  -15.3683 C   0  0  0  0  0  0  0  0  0  0  0  0
   17.1706   -9.2808  -14.2232 O   0  0  0  0  0  0  0  0  0  0  0  0
   23.3574  -11.7061  -16.1866 N   0  0  0  0  0  0  0  0  0  0  0  0
   23.5528  -10.5300  -15.4026 C   0  0  0  0  0  0  0  0  0  0  0  0
   24.7165  -10.2925  -15.0287 O   0  0  0  0  0  0  0  0  0  0  0  0
   22.3677   -9.6680  -15.0831 C   0  0  0  0  0  0  0  0  0  0  0  0
   21.0961  -10.1459  -15.6898 C   0  0  0  0  0  0  0  0  0  0  0  0
   19.8825   -9.3048  -15.2550 C   0  0  2  0  0  0  0  0  0  0  0  0
   18.6690   -9.7105  -15.9112 N   0  0  0  0  0  0  0  0  0  0  0  0
   20.2180   -7.8959  -15.5680 C   0  0  0  0  0  0  0  0  0  0  0  0
   20.2598   -7.5004  -16.7873 O   0  0  0  0  0  0  0  0  0  0  0  0
   20.5115   -6.8928  -14.6127 N   0  0  0  0  0  0  0  0  0  0  0  0
   20.8460   -5.5158  -15.0105 C   0  0  1  0  0  0  0  0  0  0  0  0
   19.6948   -4.6087  -14.7838 C   0  0  0  0  0  0  0  0  0  0  0  0
   20.0350   -3.1836  -15.1088 C   0  0  0  0  0  0  0  0  0  0  0  0
   18.8686   -2.2774  -14.9095 C   0  0  0  0  0  0  0  0  0  0  0  0
   17.7733   -2.7565  -14.5620 O   0  0  0  0  0  0  0  0  0  0  0  0
   22.0322   -5.1149  -14.2324 C   0  0  0  0  0  0  0  0  0  0  0  0
   22.3253   -5.5661  -13.0975 O   0  0  0  0  0  0  0  0  0  0  0  0
   18.9910   -0.9153  -15.1061 O   0  0  0  0  0  0  0  0  0  0  0  0
   22.9043   -4.1693  -14.7755 O   0  0  0  0  0  0  0  0  0  0  0  0
  2  1  1  1
  3  2  1  0
  4  5  2  0
  4  2  1  0
  6  7  1  0
  7  9  1  0
  7  8  2  0
  9 10  1  0
 11 10  1  6
 11 13  1  0
 11 12  1  0
 12  4  1  0
 13 15  1  0
 14 13  2  0
 15 16  1  0
 16 21  1  0
 17 18  1  0
 16 17  1  1
 19 23  1  0
 19 18  1  0
 20 19  2  0
 21 22  2  0
 21 24  1  0
M  END
$$$$
