AQE.pdb
     RDKit          3D

 24 23  0  0  1  0  0  0  0  0999 V2000
   18.9375  -13.6175  -19.5777 C   0  0  0  0  0  0  0  0  0  0  0  0
   19.8404  -13.2134  -18.4243 C   0  0  2  0  0  0  0  0  0  0  0  0
   19.6905  -14.1799  -17.3756 N   0  0  0  0  0  0  0  0  0  0  0  0
   19.4210  -11.8356  -17.9532 C   0  0  0  0  0  0  0  0  0  0  0  0
   19.5383  -10.8464  -18.7164 O   0  0  0  0  0  0  0  0  0  0  0  0
   13.6676  -11.2372  -14.6960 N   0  0  0  0  0  0  0  0  0  0  0  0
   15.0396  -11.0753  -14.3393 C   0  0  0  0  0  0  0  0  0  0  0  0
   15.3141  -11.1336  -13.1262 O   0  0  0  0  0  0  0  0  0  0  0  0
   16.0483  -10.8495  -15.4263 C   0  0  0  0  0  0  0  0  0  0  0  0
   17.4365  -10.6573  -14.9272 C   0  0  0  0  0  0  0  0  0  0  0  0
   18.4453  -10.4221  -16.0657 C   0  0  2  0  0  0  0  0  0  0  0  0
   18.8983  -11.6501  -16.6612 N   0  0  0  0  0  0  0  0  0  0  0  0
   19.5723   -9.6635  -15.4743 C   0  0  0  0  0  0  0  0  0  0  0  0
   20.5834  -10.2866  -14.9904 O   0  0  0  0  0  0  0  0  0  0  0  0
   19.6511   -8.2526  -15.3838 N   0  0  0  0  0  0  0  0  0  0  0  0
   20.8194   -7.5762  -14.7975 C   0  0  1  0  0  0  0  0  0  0  0  0
   20.8191   -6.1335  -15.1414 C   0  0  0  0  0  0  0  0  0  0  0  0
   21.9887   -5.4150  -14.5347 C   0  0  0  0  0  0  0  0  0  0  0  0
   21.9281   -3.9475  -14.7878 C   0  0  0  0  0  0  0  0  0  0  0  0
   21.1191   -3.5032  -15.6233 O   0  0  0  0  0  0  0  0  0  0  0  0
   20.7663   -7.8013  -13.3416 C   0  0  0  0  0  0  0  0  0  0  0  0
   21.7744   -7.9268  -12.6031 O   0  0  0  0  0  0  0  0  0  0  0  0
   22.7585   -3.0786  -14.1065 O   0  0  0  0  0  0  0  0  0  0  0  0
   19.5190   -7.8841  -12.7193 O   0  0  0  0  0  0  0  0  0  0  0  0
  2  1  1  6
  3  2  1  0
  4  5  2  0
  4  2  1  0
  6  7  1  0
  7  9  1  0
  7  8  2  0
  9 10  1  0
 11 10  1  1
 11 13  1  0
 11 12  1  0
 12  4  1  0
 13 15  1  0
 14 13  2  0
 15 16  1  0
 16 21  1  0
 17 18  1  0
 16 17  1  1
 19 23  1  0
 19 18  1  0
 20 19  2  0
 21 22  2  0
 21 24  1  0
M  END
$$$$
