AQE.pdb
     RDKit          3D

 24 23  0  0  1  0  0  0  0  0999 V2000
   27.4317  -18.0956  -16.7835 C   0  0  0  0  0  0  0  0  0  0  0  0
   28.0927  -19.2960  -16.1270 C   0  0  2  0  0  0  0  0  0  0  0  0
   28.7518  -20.0600  -17.1459 N   0  0  0  0  0  0  0  0  0  0  0  0
   27.0164  -20.1177  -15.4469 C   0  0  0  0  0  0  0  0  0  0  0  0
   26.3523  -20.9542  -16.1056 O   0  0  0  0  0  0  0  0  0  0  0  0
   25.9007  -19.8027   -9.0456 N   0  0  0  0  0  0  0  0  0  0  0  0
   25.1061  -20.9030   -9.4857 C   0  0  0  0  0  0  0  0  0  0  0  0
   24.5184  -21.5580   -8.6047 O   0  0  0  0  0  0  0  0  0  0  0  0
   25.0282  -21.1978  -10.9543 C   0  0  0  0  0  0  0  0  0  0  0  0
   25.8466  -20.2831  -11.7950 C   0  0  0  0  0  0  0  0  0  0  0  0
   25.7285  -20.5986  -13.2969 C   0  0  2  0  0  0  0  0  0  0  0  0
   26.7499  -19.9528  -14.0762 N   0  0  0  0  0  0  0  0  0  0  0  0
   24.3762  -20.1564  -13.7108 C   0  0  0  0  0  0  0  0  0  0  0  0
   24.1265  -18.9077  -13.8634 O   0  0  0  0  0  0  0  0  0  0  0  0
   23.2779  -21.0126  -13.9673 N   0  0  0  0  0  0  0  0  0  0  0  0
   21.9750  -20.4923  -14.4120 C   0  0  1  0  0  0  0  0  0  0  0  0
   21.6028  -21.0628  -15.7294 C   0  0  0  0  0  0  0  0  0  0  0  0
   20.2859  -20.5319  -16.2154 C   0  0  0  0  0  0  0  0  0  0  0  0
   19.9053  -21.1180  -17.5318 C   0  0  0  0  0  0  0  0  0  0  0  0
   20.5422  -20.7969  -18.5522 O   0  0  0  0  0  0  0  0  0  0  0  0
   20.9935  -20.8255  -13.3637 C   0  0  0  0  0  0  0  0  0  0  0  0
   21.1106  -21.7800  -12.5559 O   0  0  0  0  0  0  0  0  0  0  0  0
   18.8557  -22.0111  -17.6301 O   0  0  0  0  0  0  0  0  0  0  0  0
   19.8464  -20.0386  -13.2423 O   0  0  0  0  0  0  0  0  0  0  0  0
  2  1  1  6
  3  2  1  0
  4  5  2  0
  4  2  1  0
  6  7  1  0
  7  9  1  0
  7  8  2  0
  9 10  1  0
 11 10  1  1
 11 13  1  0
 11 12  1  0
 12  4  1  0
 13 15  1  0
 14 13  2  0
 15 16  1  0
 16 21  1  0
 17 18  1  0
 16 17  1  6
 19 23  1  0
 19 18  1  0
 20 19  2  0
 21 22  2  0
 21 24  1  0
M  END
$$$$
