AQE.pdb
     RDKit          3D

 24 23  0  0  1  0  0  0  0  0999 V2000
   13.2351  -10.0765  -12.8612 C   0  0  0  0  0  0  0  0  0  0  0  0
   13.8599   -9.2339  -13.9605 C   0  0  2  0  0  0  0  0  0  0  0  0
   13.3055   -9.6493  -15.2160 N   0  0  0  0  0  0  0  0  0  0  0  0
   15.3590   -9.4532  -13.9329 C   0  0  0  0  0  0  0  0  0  0  0  0
   16.0218   -9.1447  -12.9130 O   0  0  0  0  0  0  0  0  0  0  0  0
   18.4145  -14.0992  -16.4963 N   0  0  0  0  0  0  0  0  0  0  0  0
   19.4842  -13.1552  -16.4860 C   0  0  0  0  0  0  0  0  0  0  0  0
   20.6355  -13.6110  -16.6185 O   0  0  0  0  0  0  0  0  0  0  0  0
   19.1634  -11.6994  -16.3197 C   0  0  0  0  0  0  0  0  0  0  0  0
   17.7099  -11.4174  -16.1746 C   0  0  0  0  0  0  0  0  0  0  0  0
   17.4269  -10.2758  -15.1817 C   0  0  2  0  0  0  0  0  0  0  0  0
   16.0219  -10.0019  -15.0447 N   0  0  0  0  0  0  0  0  0  0  0  0
   18.1588   -9.0913  -15.6884 C   0  0  0  0  0  0  0  0  0  0  0  0
   17.5831   -8.2754  -16.4933 O   0  0  0  0  0  0  0  0  0  0  0  0
   19.4935   -8.7514  -15.3596 N   0  0  0  0  0  0  0  0  0  0  0  0
   20.1110   -7.4969  -15.8190 C   0  0  1  0  0  0  0  0  0  0  0  0
   20.2497   -6.5373  -14.6967 C   0  0  0  0  0  0  0  0  0  0  0  0
   21.6556   -6.4901  -14.1736 C   0  0  0  0  0  0  0  0  0  0  0  0
   21.8107   -5.4724  -13.0958 C   0  0  0  0  0  0  0  0  0  0  0  0
   22.8870   -5.3978  -12.4744 O   0  0  0  0  0  0  0  0  0  0  0  0
   21.4125   -7.8467  -16.4163 C   0  0  0  0  0  0  0  0  0  0  0  0
   22.1464   -7.0444  -17.0449 O   0  0  0  0  0  0  0  0  0  0  0  0
   20.7748   -4.6142  -12.7806 O   0  0  0  0  0  0  0  0  0  0  0  0
   21.8818   -9.1554  -16.2863 O   0  0  0  0  0  0  0  0  0  0  0  0
  2  1  1  1
  3  2  1  0
  4  5  2  0
  4  2  1  0
  6  7  1  0
  7  9  1  0
  7  8  2  0
  9 10  1  0
 11 10  1  6
 11 13  1  0
 11 12  1  0
 12  4  1  0
 13 15  1  0
 14 13  2  0
 15 16  1  0
 16 21  1  0
 17 18  1  0
 16 17  1  1
 19 23  1  0
 19 18  1  0
 20 19  2  0
 21 22  2  0
 21 24  1  0
M  END
$$$$
