AQE.pdb
     RDKit          3D

 24 23  0  0  1  0  0  0  0  0999 V2000
   28.6458  -17.5727  -14.9301 C   0  0  0  0  0  0  0  0  0  0  0  0
   27.1780  -17.7609  -15.2748 C   0  0  2  0  0  0  0  0  0  0  0  0
   26.4152  -16.7974  -14.5360 N   0  0  0  0  0  0  0  0  0  0  0  0
   26.7784  -19.1724  -14.8951 C   0  0  0  0  0  0  0  0  0  0  0  0
   27.3252  -20.1537  -15.4544 O   0  0  0  0  0  0  0  0  0  0  0  0
   25.2490  -20.6310   -9.0589 N   0  0  0  0  0  0  0  0  0  0  0  0
   26.5185  -20.7797   -9.6931 C   0  0  0  0  0  0  0  0  0  0  0  0
   27.5062  -20.9117   -8.9464 O   0  0  0  0  0  0  0  0  0  0  0  0
   26.5848  -20.7685  -11.1915 C   0  0  0  0  0  0  0  0  0  0  0  0
   25.2562  -20.6521  -11.8508 C   0  0  0  0  0  0  0  0  0  0  0  0
   25.3572  -20.6614  -13.3867 C   0  0  2  0  0  0  0  0  0  0  0  0
   25.7944  -19.3982  -13.9165 N   0  0  0  0  0  0  0  0  0  0  0  0
   24.0105  -21.0190  -13.8910 C   0  0  0  0  0  0  0  0  0  0  0  0
   23.0370  -20.1935  -13.7660 O   0  0  0  0  0  0  0  0  0  0  0  0
   23.6718  -22.2377  -14.5274 N   0  0  0  0  0  0  0  0  0  0  0  0
   22.3201  -22.4903  -15.0518 C   0  0  1  0  0  0  0  0  0  0  0  0
   22.3814  -23.2838  -16.3033 C   0  0  0  0  0  0  0  0  0  0  0  0
   21.0135  -23.5681  -16.8513 C   0  0  0  0  0  0  0  0  0  0  0  0
   21.0729  -24.4253  -18.0691 C   0  0  0  0  0  0  0  0  0  0  0  0
   20.0207  -24.7043  -18.6734 O   0  0  0  0  0  0  0  0  0  0  0  0
   21.5648  -23.1814  -13.9911 C   0  0  0  0  0  0  0  0  0  0  0  0
   22.0858  -23.8676  -13.0773 O   0  0  0  0  0  0  0  0  0  0  0  0
   22.2803  -24.9118  -18.5321 O   0  0  0  0  0  0  0  0  0  0  0  0
   20.1722  -23.0795  -13.9821 O   0  0  0  0  0  0  0  0  0  0  0  0
  2  1  1  1
  3  2  1  0
  4  5  2  0
  4  2  1  0
  6  7  1  0
  7  9  1  0
  7  8  2  0
  9 10  1  0
 11 10  1  1
 11 13  1  0
 11 12  1  0
 12  4  1  0
 13 15  1  0
 14 13  2  0
 15 16  1  0
 16 21  1  0
 17 18  1  0
 16 17  1  6
 19 23  1  0
 19 18  1  0
 20 19  2  0
 21 22  2  0
 21 24  1  0
M  END
$$$$
