YRH.pdb
     RDKit          3D

 34 35  0  0  1  0  0  0  0  0999 V2000
    5.3019  -10.5661   28.1355 O   0  0  0  0  0  0  0  0  0  0  0  0
    5.9625  -11.5962   27.4803 C   0  0  0  0  0  0  0  0  0  0  0  0
    6.4872  -12.6132   28.2771 C   0  0  0  0  0  0  0  0  0  0  0  0
    7.1524  -13.6513   27.6215 C   0  0  0  0  0  0  0  0  0  0  0  0
    7.2814  -13.6658   26.2579 C   0  0  0  0  0  0  0  0  0  0  0  0
    7.9854  -14.7710   25.5940 C   0  0  0  0  0  0  0  0  0  0  0  0
    6.9531  -15.6992   24.9509 C   0  0  2  0  0  0  0  0  0  0  0  0
    6.6415  -16.8216   25.8134 N   0  0  0  0  0  0  0  0  0  0  0  0
    7.4242  -16.1631   23.6355 C   0  0  0  0  0  0  0  0  0  0  0  0
    8.0296  -17.2596   23.5609 O   0  0  0  0  0  0  0  0  0  0  0  0
    6.7493  -12.6446   25.5172 C   0  0  0  0  0  0  0  0  0  0  0  0
    6.0731  -11.5803   26.1240 C   0  0  0  0  0  0  0  0  0  0  0  0
    7.5232  -15.5973   16.5842 N   0  0  0  0  0  0  0  0  0  0  0  0
    8.4384  -14.6413   16.0548 C   0  0  0  0  0  0  0  0  0  0  0  0
    9.0157  -14.8484   14.9403 N   0  0  0  0  0  0  0  0  0  0  0  0
    8.6889  -13.4439   16.8119 N   0  0  0  0  0  0  0  0  0  0  0  0
    8.0274  -13.2763   18.0785 C   0  0  0  0  0  0  0  0  0  0  0  0
    8.4045  -14.3433   19.0517 C   0  0  0  0  0  0  0  0  0  0  0  0
    7.6816  -14.3942   20.3348 C   0  0  0  0  0  0  0  0  0  0  0  0
    8.0407  -15.4580   21.3031 C   0  0  2  0  0  0  0  0  0  0  0  0
    7.1901  -15.3751   22.4899 N   0  0  0  0  0  0  0  0  0  0  0  0
    9.4291  -15.5978   21.6959 C   0  0  0  0  0  0  0  0  0  0  0  0
    9.8642  -15.0820   22.7441 O   0  0  0  0  0  0  0  0  0  0  0  0
    9.7139  -14.2237   14.5082 N   0  0  0  0  0  0  0  0  0  0  0  0
   10.3260  -16.3334   20.8805 C   0  0  2  0  0  0  0  0  0  0  0  0
   11.6850  -16.6474   21.3413 C   0  0  0  0  0  0  0  0  0  0  0  0
   11.6772  -18.0187   21.9450 C   0  0  0  0  0  0  0  0  0  0  0  0
   11.4602  -18.0075   23.4120 C   0  0  0  0  0  0  0  0  0  0  0  0
   12.2750  -17.4415   24.3867 N   0  0  0  0  0  0  0  0  0  0  0  0
   11.7540  -17.6303   25.6012 C   0  0  0  0  0  0  0  0  0  0  0  0
   10.6099  -18.3137   25.4142 N   0  0  0  0  0  0  0  0  0  0  0  0
   10.4237  -18.5446   24.1118 C   0  0  0  0  0  0  0  0  0  0  0  0
   12.6286  -16.6206   20.2079 O   0  0  0  0  0  0  0  0  0  0  0  0
   12.2479  -16.3649   18.9077 O   0  0  0  0  0  0  0  0  0  0  0  0
  2  3  2  0
  2  1  1  0
  4  3  1  0
  5  4  2  0
  6  7  1  0
  6  5  1  0
  7  9  1  0
  7  8  1  1
  9 10  2  0
 11  5  1  0
 11 12  2  0
 12  2  1  0
 13 14  1  0
 14 15  2  0
 16 17  1  0
 16 14  1  0
 18 17  1  0
 19 18  1  0
 20 19  1  1
 20 22  1  0
 21 20  1  0
 21  9  1  0
 22 24  1  0
 22 23  2  0
 24 25  1  0
 25 32  1  0
 25 26  1  1
 27 26  1  0
 28 27  2  0
 29 28  1  0
 30 29  1  0
 30 31  2  0
 31 27  1  0
 32 34  2  0
 32 33  1  0
M  END
$$$$
