YRH.pdb
     RDKit          3D

 34 35  0  0  1  0  0  0  0  0999 V2000
    6.4108  -10.5830   27.9893 O   0  0  0  0  0  0  0  0  0  0  0  0
    6.8643  -11.6499   27.2260 C   0  0  0  0  0  0  0  0  0  0  0  0
    6.1123  -11.9809   26.0993 C   0  0  0  0  0  0  0  0  0  0  0  0
    6.5655  -13.0536   25.3287 C   0  0  0  0  0  0  0  0  0  0  0  0
    7.6975  -13.7464   25.6678 C   0  0  0  0  0  0  0  0  0  0  0  0
    8.1521  -14.8704   24.8384 C   0  0  0  0  0  0  0  0  0  0  0  0
    7.0155  -15.8874   24.7184 C   0  0  2  0  0  0  0  0  0  0  0  0
    6.6996  -16.4812   26.0023 N   0  0  0  0  0  0  0  0  0  0  0  0
    7.3527  -16.9244   23.7293 C   0  0  0  0  0  0  0  0  0  0  0  0
    7.8006  -18.0246   24.1336 O   0  0  0  0  0  0  0  0  0  0  0  0
    8.4033  -13.3844   26.7838 C   0  0  0  0  0  0  0  0  0  0  0  0
    7.9929  -12.3173   27.5907 C   0  0  0  0  0  0  0  0  0  0  0  0
    2.5798  -21.2624   18.6859 N   0  0  0  0  0  0  0  0  0  0  0  0
    2.0671  -20.2971   19.6007 C   0  0  0  0  0  0  0  0  0  0  0  0
    0.8178  -20.0646   19.6612 N   0  0  0  0  0  0  0  0  0  0  0  0
    2.9964  -19.5981   20.4477 N   0  0  0  0  0  0  0  0  0  0  0  0
    4.2493  -19.1647   19.8888 C   0  0  0  0  0  0  0  0  0  0  0  0
    4.9942  -18.2645   20.8176 C   0  0  0  0  0  0  0  0  0  0  0  0
    6.2898  -17.7265   20.3665 C   0  0  0  0  0  0  0  0  0  0  0  0
    7.4114  -17.6877   21.3353 C   0  0  2  0  0  0  0  0  0  0  0  0
    7.1689  -16.6678   22.3550 N   0  0  0  0  0  0  0  0  0  0  0  0
    8.7634  -17.5694   20.8259 C   0  0  0  0  0  0  0  0  0  0  0  0
    9.2753  -16.4574   20.5905 O   0  0  0  0  0  0  0  0  0  0  0  0
    0.3690  -19.3952   20.3054 N   0  0  0  0  0  0  0  0  0  0  0  0
    9.5343  -18.7344   20.5835 C   0  0  2  0  0  0  0  0  0  0  0  0
   10.9352  -18.8196   21.0171 C   0  0  0  0  0  0  0  0  0  0  0  0
   10.9800  -18.6847   22.5086 C   0  0  0  0  0  0  0  0  0  0  0  0
   11.5481  -17.3910   22.9592 C   0  0  0  0  0  0  0  0  0  0  0  0
   11.9938  -16.3378   22.1679 N   0  0  0  0  0  0  0  0  0  0  0  0
   12.4393  -15.3354   22.9286 C   0  0  0  0  0  0  0  0  0  0  0  0
   12.2831  -15.7367   24.2036 N   0  0  0  0  0  0  0  0  0  0  0  0
   11.7520  -16.9620   24.2346 C   0  0  0  0  0  0  0  0  0  0  0  0
   11.5127  -20.1203   20.6292 O   0  0  0  0  0  0  0  0  0  0  0  0
   12.3851  -20.2802   19.5737 O   0  0  0  0  0  0  0  0  0  0  0  0
  2  3  2  0
  2  1  1  0
  4  3  1  0
  5  4  2  0
  6  7  1  0
  6  5  1  0
  7  9  1  0
  7  8  1  1
  9 10  2  0
 11  5  1  0
 11 12  2  0
 12  2  1  0
 13 14  1  0
 14 15  2  0
 16 17  1  0
 16 14  1  0
 18 17  1  0
 19 18  1  0
 20 19  1  6
 20 22  1  0
 21 20  1  0
 21  9  1  0
 22 24  1  0
 22 23  2  0
 24 25  1  0
 25 32  1  0
 25 26  1  6
 27 26  1  0
 28 27  2  0
 29 28  1  0
 30 29  1  0
 30 31  2  0
 31 27  1  0
 32 34  2  0
 32 33  1  0
M  END
$$$$
