YRH.pdb
     RDKit          3D

 34 35  0  0  1  0  0  0  0  0999 V2000
    4.5212  -10.2841   27.4155 O   0  0  0  0  0  0  0  0  0  0  0  0
    5.3599  -11.2578   26.8910 C   0  0  0  0  0  0  0  0  0  0  0  0
    6.4227  -11.6706   27.6939 C   0  0  0  0  0  0  0  0  0  0  0  0
    7.2686  -12.6501   27.1697 C   0  0  0  0  0  0  0  0  0  0  0  0
    7.0604  -13.1786   25.9231 C   0  0  0  0  0  0  0  0  0  0  0  0
    7.9655  -14.2088   25.3967 C   0  0  0  0  0  0  0  0  0  0  0  0
    7.1358  -15.4140   24.9496 C   0  0  2  0  0  0  0  0  0  0  0  0
    6.3214  -15.9264   26.0336 N   0  0  0  0  0  0  0  0  0  0  0  0
    8.0076  -16.4677   24.4047 C   0  0  0  0  0  0  0  0  0  0  0  0
    8.3064  -17.4441   25.1339 O   0  0  0  0  0  0  0  0  0  0  0  0
    6.0029  -12.7415   25.1712 C   0  0  0  0  0  0  0  0  0  0  0  0
    5.1250  -11.7621   25.6489 C   0  0  0  0  0  0  0  0  0  0  0  0
   10.4725  -13.2841   19.0386 N   0  0  0  0  0  0  0  0  0  0  0  0
    9.0764  -13.3801   18.7678 C   0  0  0  0  0  0  0  0  0  0  0  0
    8.3380  -12.3450   18.8087 N   0  0  0  0  0  0  0  0  0  0  0  0
    8.5300  -14.6722   18.4492 N   0  0  0  0  0  0  0  0  0  0  0  0
    9.1872  -15.8455   18.9606 C   0  0  0  0  0  0  0  0  0  0  0  0
    9.1660  -15.8927   20.4523 C   0  0  0  0  0  0  0  0  0  0  0  0
    9.6761  -17.1077   21.1119 C   0  0  0  0  0  0  0  0  0  0  0  0
    9.5848  -17.1977   22.5890 C   0  0  2  0  0  0  0  0  0  0  0  0
    8.4894  -16.3644   23.0835 N   0  0  0  0  0  0  0  0  0  0  0  0
   10.7812  -16.9620   23.3729 C   0  0  0  0  0  0  0  0  0  0  0  0
   11.0414  -15.8364   23.8413 O   0  0  0  0  0  0  0  0  0  0  0  0
    7.3173  -12.3373   18.6576 N   0  0  0  0  0  0  0  0  0  0  0  0
   11.6870  -18.0242   23.6210 C   0  0  1  0  0  0  0  0  0  0  0  0
   12.5162  -18.0452   24.8333 C   0  0  0  0  0  0  0  0  0  0  0  0
   11.6173  -18.2061   26.0211 C   0  0  0  0  0  0  0  0  0  0  0  0
   11.3102  -16.9220   26.6966 C   0  0  0  0  0  0  0  0  0  0  0  0
   11.6491  -15.6399   26.2778 N   0  0  0  0  0  0  0  0  0  0  0  0
   11.2012  -14.7293   27.1452 C   0  0  0  0  0  0  0  0  0  0  0  0
   10.5766  -15.4171   28.1188 N   0  0  0  0  0  0  0  0  0  0  0  0
   10.6350  -16.7267   27.8621 C   0  0  0  0  0  0  0  0  0  0  0  0
   13.4646  -19.1739   24.7850 O   0  0  0  0  0  0  0  0  0  0  0  0
   14.4295  -19.3976   25.7441 O   0  0  0  0  0  0  0  0  0  0  0  0
  2  3  2  0
  2  1  1  0
  4  3  1  0
  5  4  2  0
  6  7  1  0
  6  5  1  0
  7  9  1  0
  7  8  1  1
  9 10  2  0
 11  5  1  0
 11 12  2  0
 12  2  1  0
 13 14  1  0
 14 15  2  0
 16 17  1  0
 16 14  1  0
 18 17  1  0
 19 18  1  0
 20 19  1  6
 20 22  1  0
 21 20  1  0
 21  9  1  0
 22 24  1  0
 22 23  2  0
 24 25  1  0
 25 32  1  0
 25 26  1  1
 27 26  1  0
 28 27  2  0
 29 28  1  0
 30 29  1  0
 30 31  2  0
 31 27  1  0
 32 34  2  0
 32 33  1  0
M  END
$$$$
