YRH.pdb
     RDKit          3D

 34 35  0  0  1  0  0  0  0  0999 V2000
    6.1682  -10.1696   26.9802 O   0  0  0  0  0  0  0  0  0  0  0  0
    6.4658  -11.5129   26.7970 C   0  0  0  0  0  0  0  0  0  0  0  0
    5.4203  -12.4182   26.9754 C   0  0  0  0  0  0  0  0  0  0  0  0
    5.7159  -13.7706   26.7919 C   0  0  0  0  0  0  0  0  0  0  0  0
    6.9767  -14.1846   26.4522 C   0  0  0  0  0  0  0  0  0  0  0  0
    7.2595  -15.6137   26.2643 C   0  0  0  0  0  0  0  0  0  0  0  0
    6.4874  -16.1137   25.0417 C   0  0  2  0  0  0  0  0  0  0  0  0
    5.6787  -17.2724   25.3649 N   0  0  0  0  0  0  0  0  0  0  0  0
    7.4104  -16.4104   23.9338 C   0  0  0  0  0  0  0  0  0  0  0  0
    7.9817  -17.5272   23.9036 O   0  0  0  0  0  0  0  0  0  0  0  0
    7.9715  -13.2583   26.2878 C   0  0  0  0  0  0  0  0  0  0  0  0
    7.7290  -11.8908   26.4597 C   0  0  0  0  0  0  0  0  0  0  0  0
    7.5491  -14.4970   15.2483 N   0  0  0  0  0  0  0  0  0  0  0  0
    7.9587  -13.9986   16.5193 C   0  0  0  0  0  0  0  0  0  0  0  0
    8.5964  -12.9013   16.6076 N   0  0  0  0  0  0  0  0  0  0  0  0
    7.6327  -14.7666   17.6913 N   0  0  0  0  0  0  0  0  0  0  0  0
    8.6876  -15.4687   18.3727 C   0  0  0  0  0  0  0  0  0  0  0  0
    9.1910  -14.7101   19.5554 C   0  0  0  0  0  0  0  0  0  0  0  0
    8.3380  -14.6573   20.7559 C   0  0  0  0  0  0  0  0  0  0  0  0
    8.5291  -15.6916   21.8009 C   0  0  2  0  0  0  0  0  0  0  0  0
    7.6363  -15.4437   22.9325 N   0  0  0  0  0  0  0  0  0  0  0  0
    9.8726  -15.9561   22.2768 C   0  0  0  0  0  0  0  0  0  0  0  0
   10.4106  -15.2366   23.1410 O   0  0  0  0  0  0  0  0  0  0  0  0
    8.9572  -12.4931   17.4838 N   0  0  0  0  0  0  0  0  0  0  0  0
   10.6056  -17.0531   21.7574 C   0  0  2  0  0  0  0  0  0  0  0  0
   11.9851  -17.3148   22.1890 C   0  0  0  0  0  0  0  0  0  0  0  0
   12.3320  -18.7299   21.8396 C   0  0  0  0  0  0  0  0  0  0  0  0
   13.6729  -19.1372   22.3249 C   0  0  0  0  0  0  0  0  0  0  0  0
   14.5918  -18.3658   23.0282 N   0  0  0  0  0  0  0  0  0  0  0  0
   15.6916  -19.0737   23.2951 C   0  0  0  0  0  0  0  0  0  0  0  0
   15.4862  -20.2950   22.7685 N   0  0  0  0  0  0  0  0  0  0  0  0
   14.2848  -20.3450   22.1868 C   0  0  0  0  0  0  0  0  0  0  0  0
   12.9181  -16.4018   21.5022 O   0  0  0  0  0  0  0  0  0  0  0  0
   12.9130  -16.1938   20.1393 O   0  0  0  0  0  0  0  0  0  0  0  0
  2  3  2  0
  2  1  1  0
  4  3  1  0
  5  4  2  0
  6  7  1  0
  6  5  1  0
  7  9  1  0
  7  8  1  1
  9 10  2  0
 11  5  1  0
 11 12  2  0
 12  2  1  0
 13 14  1  0
 14 15  2  0
 16 17  1  0
 16 14  1  0
 18 17  1  0
 19 18  1  0
 20 19  1  6
 20 22  1  0
 21 20  1  0
 21  9  1  0
 22 24  1  0
 22 23  2  0
 24 25  1  0
 25 32  1  0
 25 26  1  6
 27 26  1  0
 28 27  2  0
 29 28  1  0
 30 29  1  0
 30 31  2  0
 31 27  1  0
 32 34  2  0
 32 33  1  0
M  END
$$$$
