YRH.pdb
     RDKit          3D

 34 35  0  0  1  0  0  0  0  0999 V2000
    9.2075  -12.7905   17.1108 O   0  0  0  0  0  0  0  0  0  0  0  0
    8.7199  -13.2402   18.3301 C   0  0  0  0  0  0  0  0  0  0  0  0
    9.2002  -14.4678   18.7848 C   0  0  0  0  0  0  0  0  0  0  0  0
    8.7120  -14.9235   20.0111 C   0  0  0  0  0  0  0  0  0  0  0  0
    7.8028  -14.1947   20.7312 C   0  0  0  0  0  0  0  0  0  0  0  0
    7.3066  -14.6975   22.0191 C   0  0  0  0  0  0  0  0  0  0  0  0
    6.8409  -16.1437   21.8388 C   0  0  2  0  0  0  0  0  0  0  0  0
    5.5135  -16.2032   21.2596 N   0  0  0  0  0  0  0  0  0  0  0  0
    6.8866  -16.8647   23.1215 C   0  0  0  0  0  0  0  0  0  0  0  0
    5.9725  -16.6703   23.9588 O   0  0  0  0  0  0  0  0  0  0  0  0
    7.3600  -12.9942   20.2439 C   0  0  0  0  0  0  0  0  0  0  0  0
    7.8170  -12.4916   19.0205 C   0  0  0  0  0  0  0  0  0  0  0  0
    5.1859  -23.7474   26.8031 N   0  0  0  0  0  0  0  0  0  0  0  0
    6.1874  -23.3245   27.7250 C   0  0  0  0  0  0  0  0  0  0  0  0
    6.1962  -23.7682   28.9172 N   0  0  0  0  0  0  0  0  0  0  0  0
    7.1808  -22.3879   27.2718 N   0  0  0  0  0  0  0  0  0  0  0  0
    6.9596  -21.6918   26.0322 C   0  0  0  0  0  0  0  0  0  0  0  0
    8.0647  -20.7379   25.7217 C   0  0  0  0  0  0  0  0  0  0  0  0
    7.9278  -19.8885   24.5253 C   0  0  0  0  0  0  0  0  0  0  0  0
    8.0950  -18.4234   24.6795 C   0  0  2  0  0  0  0  0  0  0  0  0
    7.9473  -17.7549   23.3871 N   0  0  0  0  0  0  0  0  0  0  0  0
    9.2737  -17.9285   25.3630 C   0  0  0  0  0  0  0  0  0  0  0  0
   10.3722  -17.8345   24.7812 O   0  0  0  0  0  0  0  0  0  0  0  0
    6.8344  -23.4519   29.6638 N   0  0  0  0  0  0  0  0  0  0  0  0
    9.1931  -17.5394   26.7240 C   0  0  2  0  0  0  0  0  0  0  0  0
   10.4056  -17.2663   27.5069 C   0  0  0  0  0  0  0  0  0  0  0  0
   10.1927  -16.0057   28.2884 C   0  0  0  0  0  0  0  0  0  0  0  0
   10.0838  -14.8007   27.4307 C   0  0  0  0  0  0  0  0  0  0  0  0
   10.2020  -14.7299   26.0469 N   0  0  0  0  0  0  0  0  0  0  0  0
   10.0433  -13.4730   25.6262 C   0  0  0  0  0  0  0  0  0  0  0  0
    9.8239  -12.7351   26.7301 N   0  0  0  0  0  0  0  0  0  0  0  0
    9.8457  -13.5164   27.8132 C   0  0  0  0  0  0  0  0  0  0  0  0
   10.6734  -18.3771   28.4398 O   0  0  0  0  0  0  0  0  0  0  0  0
   11.7254  -18.3846   29.3308 O   0  0  0  0  0  0  0  0  0  0  0  0
  2  3  2  0
  2  1  1  0
  4  3  1  0
  5  4  2  0
  6  7  1  0
  6  5  1  0
  7  9  1  0
  7  8  1  1
  9 10  2  0
 11  5  1  0
 11 12  2  0
 12  2  1  0
 13 14  1  0
 14 15  2  0
 16 17  1  0
 16 14  1  0
 18 17  1  0
 19 18  1  0
 20 19  1  6
 20 22  1  0
 21 20  1  0
 21  9  1  0
 22 24  1  0
 22 23  2  0
 24 25  1  0
 25 32  1  0
 25 26  1  6
 27 26  1  0
 28 27  2  0
 29 28  1  0
 30 29  1  0
 30 31  2  0
 31 27  1  0
 32 34  2  0
 32 33  1  0
M  END
$$$$
