YRH.pdb
     RDKit          3D

 34 35  0  0  1  0  0  0  0  0999 V2000
    6.5721  -10.6820   26.5743 O   0  0  0  0  0  0  0  0  0  0  0  0
    6.6605  -12.0672   26.5815 C   0  0  0  0  0  0  0  0  0  0  0  0
    7.9407  -12.6147   26.6574 C   0  0  0  0  0  0  0  0  0  0  0  0
    8.0337  -14.0079   26.6651 C   0  0  0  0  0  0  0  0  0  0  0  0
    6.9158  -14.7970   26.6008 C   0  0  0  0  0  0  0  0  0  0  0  0
    7.0427  -16.2604   26.6116 C   0  0  0  0  0  0  0  0  0  0  0  0
    6.4728  -16.8155   25.3047 C   0  0  2  0  0  0  0  0  0  0  0  0
    6.1013  -18.2100   25.4402 N   0  0  0  0  0  0  0  0  0  0  0  0
    7.4330  -16.6328   24.2038 C   0  0  0  0  0  0  0  0  0  0  0  0
    8.3537  -17.4726   24.0571 O   0  0  0  0  0  0  0  0  0  0  0  0
    5.6793  -14.2135   26.5274 C   0  0  0  0  0  0  0  0  0  0  0  0
    5.5301  -12.8222   26.5164 C   0  0  0  0  0  0  0  0  0  0  0  0
    6.9816  -14.8166   17.0989 N   0  0  0  0  0  0  0  0  0  0  0  0
    8.0895  -13.9625   16.8256 C   0  0  0  0  0  0  0  0  0  0  0  0
    8.7157  -14.0505   15.7218 N   0  0  0  0  0  0  0  0  0  0  0  0
    8.4766  -13.0047   17.8268 N   0  0  0  0  0  0  0  0  0  0  0  0
    7.7950  -13.0159   19.0938 C   0  0  0  0  0  0  0  0  0  0  0  0
    8.3832  -14.0127   20.0363 C   0  0  0  0  0  0  0  0  0  0  0  0
    7.6083  -14.3669   21.2386 C   0  0  0  0  0  0  0  0  0  0  0  0
    8.2064  -15.3174   22.2066 C   0  0  2  0  0  0  0  0  0  0  0  0
    7.3045  -15.5267   23.3387 N   0  0  0  0  0  0  0  0  0  0  0  0
    9.5521  -15.0661   22.6833 C   0  0  0  0  0  0  0  0  0  0  0  0
    9.7612  -14.4996   23.7739 O   0  0  0  0  0  0  0  0  0  0  0  0
    9.4631  -13.4110   15.4104 N   0  0  0  0  0  0  0  0  0  0  0  0
   10.6668  -15.4662   21.9037 C   0  0  2  0  0  0  0  0  0  0  0  0
   11.8381  -16.0983   22.5251 C   0  0  0  0  0  0  0  0  0  0  0  0
   11.4266  -17.4336   23.0658 C   0  0  0  0  0  0  0  0  0  0  0  0
   11.3274  -17.4569   24.5454 C   0  0  0  0  0  0  0  0  0  0  0  0
   11.5062  -16.3948   25.4252 N   0  0  0  0  0  0  0  0  0  0  0  0
   11.3364  -16.7970   26.6867 C   0  0  0  0  0  0  0  0  0  0  0  0
   11.0496  -18.1103   26.6242 N   0  0  0  0  0  0  0  0  0  0  0  0
   11.0413  -18.5156   25.3514 C   0  0  0  0  0  0  0  0  0  0  0  0
   12.9076  -16.2868   21.5268 O   0  0  0  0  0  0  0  0  0  0  0  0
   12.7664  -15.9702   20.1925 O   0  0  0  0  0  0  0  0  0  0  0  0
  2  3  2  0
  2  1  1  0
  4  3  1  0
  5  4  2  0
  6  7  1  0
  6  5  1  0
  7  9  1  0
  7  8  1  1
  9 10  2  0
 11  5  1  0
 11 12  2  0
 12  2  1  0
 13 14  1  0
 14 15  2  0
 16 17  1  0
 16 14  1  0
 18 17  1  0
 19 18  1  0
 20 19  1  1
 20 22  1  0
 21 20  1  0
 21  9  1  0
 22 24  1  0
 22 23  2  0
 24 25  1  0
 25 32  1  0
 25 26  1  1
 27 26  1  0
 28 27  2  0
 29 28  1  0
 30 29  1  0
 30 31  2  0
 31 27  1  0
 32 34  2  0
 32 33  1  0
M  END
$$$$
