YRH.pdb
     RDKit          3D

 34 35  0  0  1  0  0  0  0  0999 V2000
    4.9767  -10.0792   27.6079 O   0  0  0  0  0  0  0  0  0  0  0  0
    5.7600  -11.0858   27.0603 C   0  0  0  0  0  0  0  0  0  0  0  0
    5.9627  -12.2210   27.8443 C   0  0  0  0  0  0  0  0  0  0  0  0
    6.7502  -13.2358   27.2968 C   0  0  0  0  0  0  0  0  0  0  0  0
    7.2968  -13.1174   26.0463 C   0  0  0  0  0  0  0  0  0  0  0  0
    8.1206  -14.2012   25.4944 C   0  0  0  0  0  0  0  0  0  0  0  0
    7.3254  -14.9192   24.4021 C   0  0  2  0  0  0  0  0  0  0  0  0
    6.2246  -15.6781   24.9620 N   0  0  0  0  0  0  0  0  0  0  0  0
    8.2090  -15.7862   23.6054 C   0  0  0  0  0  0  0  0  0  0  0  0
    8.2141  -17.0200   23.8340 O   0  0  0  0  0  0  0  0  0  0  0  0
    7.0698  -11.9833   25.3135 C   0  0  0  0  0  0  0  0  0  0  0  0
    6.2882  -10.9365   25.8150 C   0  0  0  0  0  0  0  0  0  0  0  0
    8.7529  -15.1610   16.1648 N   0  0  0  0  0  0  0  0  0  0  0  0
    8.0331  -14.4043   17.1347 C   0  0  0  0  0  0  0  0  0  0  0  0
    7.8732  -13.1509   16.9871 N   0  0  0  0  0  0  0  0  0  0  0  0
    7.4962  -15.0937   18.2776 N   0  0  0  0  0  0  0  0  0  0  0  0
    8.4072  -15.7323   19.1899 C   0  0  0  0  0  0  0  0  0  0  0  0
    9.4018  -14.7712   19.7512 C   0  0  0  0  0  0  0  0  0  0  0  0
   10.4444  -15.3014   20.6474 C   0  0  0  0  0  0  0  0  0  0  0  0
   10.0202  -16.0123   21.8774 C   0  0  2  0  0  0  0  0  0  0  0  0
    9.0288  -15.2220   22.6064 N   0  0  0  0  0  0  0  0  0  0  0  0
   11.0413  -16.4910   22.7883 C   0  0  0  0  0  0  0  0  0  0  0  0
   12.1032  -15.8623   22.9643 O   0  0  0  0  0  0  0  0  0  0  0  0
    7.4458  -12.5207   17.6833 N   0  0  0  0  0  0  0  0  0  0  0  0
   10.8442  -17.7001   23.5022 C   0  0  1  0  0  0  0  0  0  0  0  0
   11.5387  -17.9520   24.7718 C   0  0  0  0  0  0  0  0  0  0  0  0
   10.6679  -18.8228   25.6252 C   0  0  0  0  0  0  0  0  0  0  0  0
   11.3464  -19.2965   26.8559 C   0  0  0  0  0  0  0  0  0  0  0  0
   12.6636  -19.0700   27.2402 N   0  0  0  0  0  0  0  0  0  0  0  0
   12.9170  -19.6540   28.4135 C   0  0  0  0  0  0  0  0  0  0  0  0
   11.7718  -20.2545   28.7864 N   0  0  0  0  0  0  0  0  0  0  0  0
   10.8272  -20.0481   27.8648 C   0  0  0  0  0  0  0  0  0  0  0  0
   12.8209  -18.6387   24.5261 O   0  0  0  0  0  0  0  0  0  0  0  0
   13.8302  -18.7219   25.4618 O   0  0  0  0  0  0  0  0  0  0  0  0
  2  3  2  0
  2  1  1  0
  4  3  1  0
  5  4  2  0
  6  7  1  0
  6  5  1  0
  7  9  1  0
  7  8  1  1
  9 10  2  0
 11  5  1  0
 11 12  2  0
 12  2  1  0
 13 14  1  0
 14 15  2  0
 16 17  1  0
 16 14  1  0
 18 17  1  0
 19 18  1  0
 20 19  1  6
 20 22  1  0
 21 20  1  0
 21  9  1  0
 22 24  1  0
 22 23  2  0
 24 25  1  0
 25 32  1  0
 25 26  1  1
 27 26  1  0
 28 27  2  0
 29 28  1  0
 30 29  1  0
 30 31  2  0
 31 27  1  0
 32 34  2  0
 32 33  1  0
M  END
$$$$
