YRH.pdb
     RDKit          3D

 34 35  0  0  1  0  0  0  0  0999 V2000
    5.3947  -10.7795   28.4140 O   0  0  0  0  0  0  0  0  0  0  0  0
    6.0417  -11.7900   27.7161 C   0  0  0  0  0  0  0  0  0  0  0  0
    6.1369  -11.6371   26.3333 C   0  0  0  0  0  0  0  0  0  0  0  0
    6.7872  -12.6517   25.6279 C   0  0  0  0  0  0  0  0  0  0  0  0
    7.3064  -13.7453   26.2688 C   0  0  0  0  0  0  0  0  0  0  0  0
    7.9866  -14.7973   25.5018 C   0  0  0  0  0  0  0  0  0  0  0  0
    6.9463  -15.5605   24.6795 C   0  0  2  0  0  0  0  0  0  0  0  0
    6.5331  -16.7780   25.3488 N   0  0  0  0  0  0  0  0  0  0  0  0
    7.4650  -15.8520   23.3330 C   0  0  0  0  0  0  0  0  0  0  0  0
    8.1031  -16.9162   23.1466 O   0  0  0  0  0  0  0  0  0  0  0  0
    7.1885  -13.8514   27.6288 C   0  0  0  0  0  0  0  0  0  0  0  0
    6.5463  -12.8634   28.3835 C   0  0  0  0  0  0  0  0  0  0  0  0
    6.8243  -15.2812   15.4465 N   0  0  0  0  0  0  0  0  0  0  0  0
    8.1707  -14.8138   15.4641 C   0  0  0  0  0  0  0  0  0  0  0  0
    8.9074  -14.9282   14.4333 N   0  0  0  0  0  0  0  0  0  0  0  0
    8.6692  -14.2132   16.6726 N   0  0  0  0  0  0  0  0  0  0  0  0
    7.7635  -14.0234   17.7743 C   0  0  0  0  0  0  0  0  0  0  0  0
    8.4629  -13.5184   18.9924 C   0  0  0  0  0  0  0  0  0  0  0  0
    7.7882  -13.6794   20.2925 C   0  0  0  0  0  0  0  0  0  0  0  0
    8.1077  -14.8759   21.1077 C   0  0  2  0  0  0  0  0  0  0  0  0
    7.2389  -14.9389   22.2825 N   0  0  0  0  0  0  0  0  0  0  0  0
    9.4859  -15.1018   21.4964 C   0  0  0  0  0  0  0  0  0  0  0  0
    9.8758  -14.8949   22.6622 O   0  0  0  0  0  0  0  0  0  0  0  0
    9.8770  -14.5841   14.3553 N   0  0  0  0  0  0  0  0  0  0  0  0
   10.4247  -15.5675   20.5413 C   0  0  2  0  0  0  0  0  0  0  0  0
   11.3534  -16.6595   20.8620 C   0  0  0  0  0  0  0  0  0  0  0  0
   10.5531  -17.8704   21.2335 C   0  0  0  0  0  0  0  0  0  0  0  0
   11.3945  -19.0523   21.5410 C   0  0  0  0  0  0  0  0  0  0  0  0
   12.7826  -19.1351   21.5196 N   0  0  0  0  0  0  0  0  0  0  0  0
   13.1845  -20.3631   21.8551 C   0  0  0  0  0  0  0  0  0  0  0  0
   12.0644  -21.0704   22.0921 N   0  0  0  0  0  0  0  0  0  0  0  0
   10.9897  -20.2988   21.9079 C   0  0  0  0  0  0  0  0  0  0  0  0
   12.1967  -16.9739   19.6933 O   0  0  0  0  0  0  0  0  0  0  0  0
   13.5749  -16.9496   19.7218 O   0  0  0  0  0  0  0  0  0  0  0  0
  2  3  2  0
  2  1  1  0
  4  3  1  0
  5  4  2  0
  6  7  1  0
  6  5  1  0
  7  9  1  0
  7  8  1  1
  9 10  2  0
 11  5  1  0
 11 12  2  0
 12  2  1  0
 13 14  1  0
 14 15  2  0
 16 17  1  0
 16 14  1  0
 18 17  1  0
 19 18  1  0
 20 19  1  1
 20 22  1  0
 21 20  1  0
 21  9  1  0
 22 24  1  0
 22 23  2  0
 24 25  1  0
 25 32  1  0
 25 26  1  1
 27 26  1  0
 28 27  2  0
 29 28  1  0
 30 29  1  0
 30 31  2  0
 31 27  1  0
 32 34  2  0
 32 33  1  0
M  END
$$$$
