YRH.pdb
     RDKit          3D

 34 35  0  0  1  0  0  0  0  0999 V2000
    6.0771  -12.5791   16.2912 O   0  0  0  0  0  0  0  0  0  0  0  0
    7.0870  -13.4246   16.7292 C   0  0  0  0  0  0  0  0  0  0  0  0
    7.4113  -13.3669   18.0842 C   0  0  0  0  0  0  0  0  0  0  0  0
    8.4268  -14.2162   18.5285 C   0  0  0  0  0  0  0  0  0  0  0  0
    9.0724  -15.0654   17.6692 C   0  0  0  0  0  0  0  0  0  0  0  0
   10.1365  -15.9489   18.1640 C   0  0  0  0  0  0  0  0  0  0  0  0
    9.6062  -17.3833   18.2106 C   0  0  2  0  0  0  0  0  0  0  0  0
    8.5380  -17.5206   19.1806 N   0  0  0  0  0  0  0  0  0  0  0  0
   10.6983  -18.3286   18.4952 C   0  0  0  0  0  0  0  0  0  0  0  0
   10.9245  -18.6524   19.6862 O   0  0  0  0  0  0  0  0  0  0  0  0
    8.7191  -15.0867   16.3466 C   0  0  0  0  0  0  0  0  0  0  0  0
    7.7084  -14.2564   15.8493 C   0  0  0  0  0  0  0  0  0  0  0  0
   14.8643  -26.2724   15.8972 N   0  0  0  0  0  0  0  0  0  0  0  0
   14.3255  -24.9821   15.6208 C   0  0  0  0  0  0  0  0  0  0  0  0
   13.5863  -24.7956   14.6024 N   0  0  0  0  0  0  0  0  0  0  0  0
   14.6395  -23.9041   16.5202 N   0  0  0  0  0  0  0  0  0  0  0  0
   14.0859  -22.6022   16.2582 C   0  0  0  0  0  0  0  0  0  0  0  0
   12.8479  -22.3509   17.0532 C   0  0  0  0  0  0  0  0  0  0  0  0
   12.1147  -21.0959   16.8107 C   0  0  0  0  0  0  0  0  0  0  0  0
   12.4515  -19.9129   17.6386 C   0  0  2  0  0  0  0  0  0  0  0  0
   11.4666  -18.8511   17.4346 N   0  0  0  0  0  0  0  0  0  0  0  0
   13.7926  -19.3688   17.5568 C   0  0  0  0  0  0  0  0  0  0  0  0
   14.0987  -18.5177   16.6989 O   0  0  0  0  0  0  0  0  0  0  0  0
   13.1654  -23.8934   14.3313 N   0  0  0  0  0  0  0  0  0  0  0  0
   14.7910  -19.8042   18.4645 C   0  0  2  0  0  0  0  0  0  0  0  0
   16.1731  -19.3177   18.3610 C   0  0  0  0  0  0  0  0  0  0  0  0
   17.0186  -20.0772   19.3374 C   0  0  0  0  0  0  0  0  0  0  0  0
   18.4134  -19.5784   19.4106 C   0  0  0  0  0  0  0  0  0  0  0  0
   19.0012  -18.5838   18.6365 N   0  0  0  0  0  0  0  0  0  0  0  0
   20.2762  -18.4062   18.9901 C   0  0  0  0  0  0  0  0  0  0  0  0
   20.5122  -19.2798   19.9862 N   0  0  0  0  0  0  0  0  0  0  0  0
   19.4079  -19.9849   20.2461 C   0  0  0  0  0  0  0  0  0  0  0  0
   16.6914  -19.5352   16.9972 O   0  0  0  0  0  0  0  0  0  0  0  0
   17.2827  -18.5449   16.2418 O   0  0  0  0  0  0  0  0  0  0  0  0
  2  3  2  0
  2  1  1  0
  4  3  1  0
  5  4  2  0
  6  7  1  0
  6  5  1  0
  7  9  1  0
  7  8  1  1
  9 10  2  0
 11  5  1  0
 11 12  2  0
 12  2  1  0
 13 14  1  0
 14 15  2  0
 16 17  1  0
 16 14  1  0
 18 17  1  0
 19 18  1  0
 20 19  1  6
 20 22  1  0
 21 20  1  0
 21  9  1  0
 22 24  1  0
 22 23  2  0
 24 25  1  0
 25 32  1  0
 25 26  1  1
 27 26  1  0
 28 27  2  0
 29 28  1  0
 30 29  1  0
 30 31  2  0
 31 27  1  0
 32 34  2  0
 32 33  1  0
M  END
$$$$
