YRH.pdb
     RDKit          3D

 34 35  0  0  1  0  0  0  0  0999 V2000
    5.1499  -10.7731   28.3112 O   0  0  0  0  0  0  0  0  0  0  0  0
    5.8591  -11.6259   27.4767 C   0  0  0  0  0  0  0  0  0  0  0  0
    6.9045  -12.3452   28.0550 C   0  0  0  0  0  0  0  0  0  0  0  0
    7.6203  -13.2042   27.2186 C   0  0  0  0  0  0  0  0  0  0  0  0
    7.3066  -13.3314   25.8912 C   0  0  0  0  0  0  0  0  0  0  0  0
    8.0757  -14.2435   25.0343 C   0  0  0  0  0  0  0  0  0  0  0  0
    7.1098  -15.2175   24.3568 C   0  0  2  0  0  0  0  0  0  0  0  0
    6.5064  -16.1185   25.3186 N   0  0  0  0  0  0  0  0  0  0  0  0
    7.7957  -15.9686   23.2925 C   0  0  0  0  0  0  0  0  0  0  0  0
    8.1365  -17.1561   23.5121 O   0  0  0  0  0  0  0  0  0  0  0  0
    6.2711  -12.6041   25.3682 C   0  0  0  0  0  0  0  0  0  0  0  0
    5.5217  -11.7290   26.1623 C   0  0  0  0  0  0  0  0  0  0  0  0
    8.1765  -12.7759   17.0547 N   0  0  0  0  0  0  0  0  0  0  0  0
    8.0344  -14.1339   16.6457 C   0  0  0  0  0  0  0  0  0  0  0  0
    8.4364  -14.5081   15.4982 N   0  0  0  0  0  0  0  0  0  0  0  0
    7.4276  -15.0628   17.5614 N   0  0  0  0  0  0  0  0  0  0  0  0
    6.9442  -14.5719   18.8245 C   0  0  0  0  0  0  0  0  0  0  0  0
    8.0507  -14.0621   19.6867 C   0  0  0  0  0  0  0  0  0  0  0  0
    9.1887  -14.9598   19.9522 C   0  0  0  0  0  0  0  0  0  0  0  0
    9.2054  -15.7169   21.2269 C   0  0  2  0  0  0  0  0  0  0  0  0
    8.0569  -15.3477   22.0538 N   0  0  0  0  0  0  0  0  0  0  0  0
   10.4159  -15.7050   22.0242 C   0  0  0  0  0  0  0  0  0  0  0  0
   10.5139  -15.0013   23.0486 O   0  0  0  0  0  0  0  0  0  0  0  0
    8.2878  -15.4455   15.0935 N   0  0  0  0  0  0  0  0  0  0  0  0
   11.5231  -16.5050   21.6442 C   0  0  2  0  0  0  0  0  0  0  0  0
   12.3179  -17.2247   22.6483 C   0  0  0  0  0  0  0  0  0  0  0  0
   11.4057  -18.1337   23.4140 C   0  0  0  0  0  0  0  0  0  0  0  0
   12.0884  -18.8444   24.5223 C   0  0  0  0  0  0  0  0  0  0  0  0
   13.0170  -18.3265   25.4187 N   0  0  0  0  0  0  0  0  0  0  0  0
   13.4129  -19.2668   26.2796 C   0  0  0  0  0  0  0  0  0  0  0  0
   12.7452  -20.3857   25.9431 N   0  0  0  0  0  0  0  0  0  0  0  0
   11.9516  -20.1460   24.8957 C   0  0  0  0  0  0  0  0  0  0  0  0
   13.3658  -18.0285   21.9912 O   0  0  0  0  0  0  0  0  0  0  0  0
   13.4675  -18.1732   20.6239 O   0  0  0  0  0  0  0  0  0  0  0  0
  2  3  2  0
  2  1  1  0
  4  3  1  0
  5  4  2  0
  6  7  1  0
  6  5  1  0
  7  9  1  0
  7  8  1  1
  9 10  2  0
 11  5  1  0
 11 12  2  0
 12  2  1  0
 13 14  1  0
 14 15  2  0
 16 17  1  0
 16 14  1  0
 18 17  1  0
 19 18  1  0
 20 19  1  6
 20 22  1  0
 21 20  1  0
 21  9  1  0
 22 24  1  0
 22 23  2  0
 24 25  1  0
 25 32  1  0
 25 26  1  1
 27 26  1  0
 28 27  2  0
 29 28  1  0
 30 29  1  0
 30 31  2  0
 31 27  1  0
 32 34  2  0
 32 33  1  0
M  END
$$$$
