TNM.pdb
     RDKit          3D

 24 23  0  0  1  0  0  0  0  0999 V2000
    7.6632  -12.5979   18.9073 C   0  0  0  0  0  0  0  0  0  0  0  0
    8.0475  -13.5242   20.0375 C   0  0  1  0  0  0  0  0  0  0  0  0
    7.1317  -13.5470   21.0663 O   0  0  0  0  0  0  0  0  0  0  0  0
    8.4187  -14.8926   19.5293 C   0  0  2  0  0  0  0  0  0  0  0  0
    7.2601  -15.4116   18.8163 N   0  0  0  0  0  0  0  0  0  0  0  0
    8.8314  -15.8272   20.6157 C   0  0  0  0  0  0  0  0  0  0  0  0
    7.9822  -16.5241   21.2510 O   0  0  0  0  0  0  0  0  0  0  0  0
   13.3015  -17.9753   20.1232 N   0  0  0  0  0  0  0  0  0  0  0  0
   12.2380  -18.1152   21.0635 C   0  0  0  0  0  0  0  0  0  0  0  0
   11.4809  -19.1059   20.9592 O   0  0  0  0  0  0  0  0  0  0  0  0
   12.0767  -17.0949   22.1096 C   0  0  0  0  0  0  0  0  0  0  0  0
   10.6059  -16.7323   22.1618 C   0  0  2  0  0  0  0  0  0  0  0  0
   10.1890  -15.9881   20.9961 N   0  0  0  0  0  0  0  0  0  0  0  0
   10.3383  -16.0356   23.4186 C   0  0  0  0  0  0  0  0  0  0  0  0
   10.5786  -14.8047   23.5934 O   0  0  0  0  0  0  0  0  0  0  0  0
    7.5489  -11.4606   26.9296 C   0  0  0  0  0  0  0  0  0  0  0  0
    6.8530  -12.8855   26.0310 S   0  0  0  0  0  0  0  0  0  0  0  0
    7.7641  -14.3551   26.6414 C   0  0  0  0  0  0  0  0  0  0  0  0
    8.3358  -15.0462   25.4281 C   0  0  0  0  0  0  0  0  0  0  0  0
    9.4176  -16.0326   25.7533 C   0  0  2  0  0  0  0  0  0  0  0  0
    9.7808  -16.7455   24.5162 N   0  0  0  0  0  0  0  0  0  0  0  0
    8.9828  -17.0020   26.7599 C   0  0  0  0  0  0  0  0  0  0  0  0
    8.8224  -18.2148   26.4804 O   0  0  0  0  0  0  0  0  0  0  0  0
    8.7334  -16.6026   28.0645 O   0  0  0  0  0  0  0  0  0  0  0  0
  2  1  1  6
  2  3  1  0
  2  4  1  0
  4  5  1  1
  6  4  1  0
  6  7  2  0
  8  9  1  0
  9 11  1  0
 10  9  2  0
 12 11  1  6
 12 13  1  0
 13  6  1  0
 14 12  1  0
 15 14  2  0
 16 17  1  0
 17 18  1  0
 18 19  1  0
 20 19  1  6
 20 21  1  0
 20 22  1  0
 21 14  1  0
 22 24  1  0
 23 22  2  0
M  END
$$$$
