TNM.pdb
     RDKit          3D

 24 23  0  0  1  0  0  0  0  0999 V2000
    8.0530  -12.6805   18.4227 C   0  0  0  0  0  0  0  0  0  0  0  0
    8.3107  -13.4287   19.7100 C   0  0  1  0  0  0  0  0  0  0  0  0
    7.8104  -12.7937   20.8255 O   0  0  0  0  0  0  0  0  0  0  0  0
    7.8987  -14.8733   19.6021 C   0  0  2  0  0  0  0  0  0  0  0  0
    6.4686  -14.8898   19.3287 N   0  0  0  0  0  0  0  0  0  0  0  0
    8.2103  -15.6628   20.8283 C   0  0  0  0  0  0  0  0  0  0  0  0
    7.3563  -15.8167   21.7544 O   0  0  0  0  0  0  0  0  0  0  0  0
   10.6621  -19.8103   23.5043 N   0  0  0  0  0  0  0  0  0  0  0  0
   11.3029  -18.5501   23.3151 C   0  0  0  0  0  0  0  0  0  0  0  0
   12.0314  -18.1116   24.2331 O   0  0  0  0  0  0  0  0  0  0  0  0
   11.0815  -17.8231   22.0565 C   0  0  0  0  0  0  0  0  0  0  0  0
    9.8344  -16.9806   22.2369 C   0  0  2  0  0  0  0  0  0  0  0  0
    9.4714  -16.2826   21.0255 N   0  0  0  0  0  0  0  0  0  0  0  0
   10.0299  -16.0911   23.3802 C   0  0  0  0  0  0  0  0  0  0  0  0
   10.6932  -15.0144   23.3150 O   0  0  0  0  0  0  0  0  0  0  0  0
    6.4997  -11.2492   27.5351 C   0  0  0  0  0  0  0  0  0  0  0  0
    6.6021  -12.5478   26.2603 S   0  0  0  0  0  0  0  0  0  0  0  0
    8.1134  -13.5113   26.6481 C   0  0  0  0  0  0  0  0  0  0  0  0
    8.2618  -14.5434   25.5575 C   0  0  0  0  0  0  0  0  0  0  0  0
    9.4548  -15.4349   25.7333 C   0  0  2  0  0  0  0  0  0  0  0  0
    9.4601  -16.4218   24.6394 N   0  0  0  0  0  0  0  0  0  0  0  0
    9.4228  -16.1368   27.0172 C   0  0  0  0  0  0  0  0  0  0  0  0
    9.1692  -17.3635   27.0912 O   0  0  0  0  0  0  0  0  0  0  0  0
    9.6746  -15.4580   28.2003 O   0  0  0  0  0  0  0  0  0  0  0  0
  2  1  1  6
  2  3  1  0
  2  4  1  0
  4  5  1  1
  6  4  1  0
  6  7  2  0
  8  9  1  0
  9 11  1  0
 10  9  2  0
 12 11  1  6
 12 13  1  0
 13  6  1  0
 14 12  1  0
 15 14  2  0
 16 17  1  0
 17 18  1  0
 18 19  1  0
 20 19  1  6
 20 21  1  0
 20 22  1  0
 21 14  1  0
 22 24  1  0
 23 22  2  0
M  END
$$$$
