TNM.pdb
     RDKit          3D

 24 23  0  0  1  0  0  0  0  0999 V2000
    8.9916  -12.5710   19.7728 C   0  0  0  0  0  0  0  0  0  0  0  0
    8.2567  -13.2904   18.6657 C   0  0  1  0  0  0  0  0  0  0  0  0
    8.2194  -12.5868   17.4819 O   0  0  0  0  0  0  0  0  0  0  0  0
    8.7411  -14.7080   18.5104 C   0  0  2  0  0  0  0  0  0  0  0  0
    7.9729  -15.3051   17.4271 N   0  0  0  0  0  0  0  0  0  0  0  0
    8.6046  -15.5121   19.7590 C   0  0  0  0  0  0  0  0  0  0  0  0
    7.4688  -15.7665   20.2647 O   0  0  0  0  0  0  0  0  0  0  0  0
   11.2377  -19.3389   19.8662 N   0  0  0  0  0  0  0  0  0  0  0  0
   10.3075  -18.9245   20.8651 C   0  0  0  0  0  0  0  0  0  0  0  0
    9.1952  -19.4956   20.9127 O   0  0  0  0  0  0  0  0  0  0  0  0
   10.6924  -17.8495   21.7912 C   0  0  0  0  0  0  0  0  0  0  0  0
    9.6368  -16.7667   21.6874 C   0  0  2  0  0  0  0  0  0  0  0  0
    9.7310  -16.0345   20.4459 N   0  0  0  0  0  0  0  0  0  0  0  0
    9.7226  -15.9123   22.8704 C   0  0  0  0  0  0  0  0  0  0  0  0
   10.7540  -15.2399   23.1661 O   0  0  0  0  0  0  0  0  0  0  0  0
    6.4558  -11.0185   27.6536 C   0  0  0  0  0  0  0  0  0  0  0  0
    6.4385  -11.9739   26.1015 S   0  0  0  0  0  0  0  0  0  0  0  0
    7.2765  -13.5602   26.4814 C   0  0  0  0  0  0  0  0  0  0  0  0
    7.3666  -14.3249   25.1839 C   0  0  0  0  0  0  0  0  0  0  0  0
    8.6998  -14.9746   24.9615 C   0  0  2  0  0  0  0  0  0  0  0  0
    8.6117  -15.8091   23.7506 N   0  0  0  0  0  0  0  0  0  0  0  0
    9.0919  -15.8105   26.0971 C   0  0  0  0  0  0  0  0  0  0  0  0
    9.0435  -17.0632   26.0406 O   0  0  0  0  0  0  0  0  0  0  0  0
    9.5325  -15.2350   27.2796 O   0  0  0  0  0  0  0  0  0  0  0  0
  2  1  1  1
  2  3  1  0
  2  4  1  0
  4  5  1  6
  6  4  1  0
  6  7  2  0
  8  9  1  0
  9 11  1  0
 10  9  2  0
 12 11  1  1
 12 13  1  0
 13  6  1  0
 14 12  1  0
 15 14  2  0
 16 17  1  0
 17 18  1  0
 18 19  1  0
 20 19  1  1
 20 21  1  0
 20 22  1  0
 21 14  1  0
 22 24  1  0
 23 22  2  0
M  END
$$$$
