TNM.pdb
     RDKit          3D

 24 23  0  0  1  0  0  0  0  0999 V2000
    8.1488  -12.3217   18.3176 C   0  0  0  0  0  0  0  0  0  0  0  0
    8.4172  -13.1750   19.5354 C   0  0  1  0  0  0  0  0  0  0  0  0
    8.0377  -12.5807   20.7188 O   0  0  0  0  0  0  0  0  0  0  0  0
    7.8801  -14.5714   19.3616 C   0  0  2  0  0  0  0  0  0  0  0  0
    6.4595  -14.4483   19.0671 N   0  0  0  0  0  0  0  0  0  0  0  0
    8.0977  -15.4341   20.5584 C   0  0  0  0  0  0  0  0  0  0  0  0
    7.1619  -15.6790   21.3801 O   0  0  0  0  0  0  0  0  0  0  0  0
   10.0479  -19.9205   21.3053 N   0  0  0  0  0  0  0  0  0  0  0  0
   10.5711  -18.6601   20.8900 C   0  0  0  0  0  0  0  0  0  0  0  0
   10.7608  -18.4706   19.6678 O   0  0  0  0  0  0  0  0  0  0  0  0
   10.8642  -17.6425   21.9098 C   0  0  0  0  0  0  0  0  0  0  0  0
    9.6294  -16.7742   22.0471 C   0  0  2  0  0  0  0  0  0  0  0  0
    9.3557  -16.0259   20.8423 N   0  0  0  0  0  0  0  0  0  0  0  0
    9.7785  -15.9297   23.2309 C   0  0  0  0  0  0  0  0  0  0  0  0
   10.1456  -14.7190   23.1766 O   0  0  0  0  0  0  0  0  0  0  0  0
    6.6599  -12.0165   27.6554 C   0  0  0  0  0  0  0  0  0  0  0  0
    7.6958  -12.9648   26.4936 S   0  0  0  0  0  0  0  0  0  0  0  0
    6.6874  -14.4116   25.9910 C   0  0  0  0  0  0  0  0  0  0  0  0
    7.5139  -15.1932   24.9996 C   0  0  0  0  0  0  0  0  0  0  0  0
    8.8418  -15.6331   25.5402 C   0  0  2  0  0  0  0  0  0  0  0  0
    9.5049  -16.4630   24.5194 N   0  0  0  0  0  0  0  0  0  0  0  0
    8.6955  -16.4085   26.7729 C   0  0  0  0  0  0  0  0  0  0  0  0
    8.6680  -15.8559   27.8993 O   0  0  0  0  0  0  0  0  0  0  0  0
    8.5819  -17.7901   26.7296 O   0  0  0  0  0  0  0  0  0  0  0  0
  2  1  1  6
  2  3  1  0
  2  4  1  0
  4  5  1  1
  6  4  1  0
  6  7  2  0
  8  9  1  0
  9 11  1  0
 10  9  2  0
 12 11  1  6
 12 13  1  0
 13  6  1  0
 14 12  1  0
 15 14  2  0
 16 17  1  0
 17 18  1  0
 18 19  1  0
 20 19  1  6
 20 21  1  0
 20 22  1  0
 21 14  1  0
 22 24  1  0
 23 22  2  0
M  END
$$$$
