TNM.pdb
     RDKit          3D

 24 23  0  0  1  0  0  0  0  0999 V2000
    5.9868  -20.5786   24.6344 C   0  0  0  0  0  0  0  0  0  0  0  0
    6.7284  -19.5643   23.7951 C   0  0  1  0  0  0  0  0  0  0  0  0
    8.0606  -19.8659   23.6165 O   0  0  0  0  0  0  0  0  0  0  0  0
    5.9987  -19.2694   22.5110 C   0  0  2  0  0  0  0  0  0  0  0  0
    5.6203  -20.5506   21.9315 N   0  0  0  0  0  0  0  0  0  0  0  0
    6.8117  -18.4741   21.5464 C   0  0  0  0  0  0  0  0  0  0  0  0
    6.5141  -18.4185   20.3139 O   0  0  0  0  0  0  0  0  0  0  0  0
    8.8118  -14.0597   20.5079 N   0  0  0  0  0  0  0  0  0  0  0  0
    7.4634  -14.4707   20.2896 C   0  0  0  0  0  0  0  0  0  0  0  0
    6.7005  -13.6962   19.6700 O   0  0  0  0  0  0  0  0  0  0  0  0
    7.0289  -15.7795   20.7992 C   0  0  0  0  0  0  0  0  0  0  0  0
    8.1818  -16.3578   21.5954 C   0  0  2  0  0  0  0  0  0  0  0  0
    7.9560  -17.7393   21.9516 N   0  0  0  0  0  0  0  0  0  0  0  0
    8.4338  -15.4970   22.7496 C   0  0  0  0  0  0  0  0  0  0  0  0
    8.3943  -14.2326   22.6928 O   0  0  0  0  0  0  0  0  0  0  0  0
    6.5153  -10.6482   26.7980 C   0  0  0  0  0  0  0  0  0  0  0  0
    6.2767  -12.4268   26.4794 S   0  0  0  0  0  0  0  0  0  0  0  0
    7.8771  -13.0365   25.8238 C   0  0  0  0  0  0  0  0  0  0  0  0
    7.6822  -14.4951   25.4906 C   0  0  0  0  0  0  0  0  0  0  0  0
    8.9610  -15.2175   25.1873 C   0  0  2  0  0  0  0  0  0  0  0  0
    8.7395  -16.0762   24.0108 N   0  0  0  0  0  0  0  0  0  0  0  0
    9.3972  -16.0440   26.3136 C   0  0  0  0  0  0  0  0  0  0  0  0
    9.2840  -17.2936   26.2964 O   0  0  0  0  0  0  0  0  0  0  0  0
    9.9538  -15.4626   27.4432 O   0  0  0  0  0  0  0  0  0  0  0  0
  2  1  1  6
  2  3  1  0
  2  4  1  0
  4  5  1  6
  6  4  1  0
  6  7  2  0
  8  9  1  0
  9 11  1  0
 10  9  2  0
 12 11  1  1
 12 13  1  0
 13  6  1  0
 14 12  1  0
 15 14  2  0
 16 17  1  0
 17 18  1  0
 18 19  1  0
 20 19  1  1
 20 21  1  0
 20 22  1  0
 21 14  1  0
 22 24  1  0
 23 22  2  0
M  END
$$$$
