KNM.pdb
     RDKit          3D

 26 25  0  0  1  0  0  0  0  0999 V2000
   28.0664  -21.8572  -15.7588 N   0  0  0  0  0  0  0  0  0  0  0  0
   27.4951  -20.8168  -14.9571 C   0  0  1  0  0  0  0  0  0  0  0  0
   27.1030  -19.6098  -15.8031 C   0  0  0  0  0  0  0  0  0  0  0  0
   27.0308  -19.9720  -17.2495 C   0  0  0  0  0  0  0  0  0  0  0  0
   28.2287  -19.4757  -18.0276 C   0  0  0  0  0  0  0  0  0  0  0  0
   28.0516  -19.7486  -19.5096 C   0  0  0  0  0  0  0  0  0  0  0  0
   29.1787  -19.2505  -20.2555 N   0  0  0  0  0  0  0  0  0  0  0  0
   26.2236  -21.2609  -14.2926 C   0  0  0  0  0  0  0  0  0  0  0  0
   25.6072  -22.2698  -14.7105 O   0  0  0  0  0  0  0  0  0  0  0  0
   26.2262  -22.3139  -10.6583 N   0  0  0  0  0  0  0  0  0  0  0  0
   25.6010  -21.0819  -10.1723 C   0  0  0  0  0  0  0  0  0  0  0  0
   25.9554  -20.7860   -9.0234 O   0  0  0  0  0  0  0  0  0  0  0  0
   24.6801  -20.3839  -11.0568 C   0  0  0  0  0  0  0  0  0  0  0  0
   24.5256  -21.0051  -12.4142 C   0  0  2  0  0  0  0  0  0  0  0  0
   25.7413  -20.5226  -13.1957 N   0  0  0  0  0  0  0  0  0  0  0  0
   23.3619  -20.5386  -13.1781 C   0  0  0  0  0  0  0  0  0  0  0  0
   23.4225  -19.3573  -13.7140 O   0  0  0  0  0  0  0  0  0  0  0  0
   17.4771  -21.9174  -18.1541 C   0  0  0  0  0  0  0  0  0  0  0  0
   18.8944  -22.5045  -17.1858 S   0  0  0  0  0  0  0  0  0  0  0  0
   19.5078  -21.2294  -16.0674 C   0  0  0  0  0  0  0  0  0  0  0  0
   20.6822  -21.7016  -15.2335 C   0  0  0  0  0  0  0  0  0  0  0  0
   21.0971  -20.6424  -14.2507 C   0  0  2  0  0  0  0  0  0  0  0  0
   22.1642  -21.2361  -13.4107 N   0  0  0  0  0  0  0  0  0  0  0  0
   19.9535  -20.3262  -13.3801 C   0  0  0  0  0  0  0  0  0  0  0  0
   19.9301  -20.8723  -12.2455 O   0  0  0  0  0  0  0  0  0  0  0  0
   18.9198  -19.4793  -13.7284 O   0  0  0  0  0  0  0  0  0  0  0  0
  2  1  1  6
  3  2  1  0
  4  3  1  0
  4  5  1  0
  6  5  1  0
  6  7  1  0
  8  9  2  0
  8  2  1  0
 10 11  1  0
 11 13  1  0
 12 11  2  0
 14 13  1  1
 14 15  1  0
 15  8  1  0
 16 23  1  0
 16 14  1  0
 17 16  2  0
 19 20  1  0
 19 18  1  0
 20 21  1  0
 22 21  1  6
 22 24  1  0
 22 23  1  0
 24 26  1  0
 25 24  2  0
M  END
$$$$
