KNM.pdb
     RDKit          3D

 26 25  0  0  1  0  0  0  0  0999 V2000
   25.2830  -20.5400  -18.3447 N   0  0  0  0  0  0  0  0  0  0  0  0
   24.7072  -21.2255  -17.2266 C   0  0  1  0  0  0  0  0  0  0  0  0
   24.1637  -22.5930  -17.6279 C   0  0  0  0  0  0  0  0  0  0  0  0
   22.7577  -22.4863  -18.1180 C   0  0  0  0  0  0  0  0  0  0  0  0
   22.4382  -21.1090  -18.6545 C   0  0  0  0  0  0  0  0  0  0  0  0
   20.9960  -21.0404  -19.1209 C   0  0  0  0  0  0  0  0  0  0  0  0
   20.2682  -20.0460  -18.3750 N   0  0  0  0  0  0  0  0  0  0  0  0
   25.7268  -21.5053  -16.1600 C   0  0  0  0  0  0  0  0  0  0  0  0
   26.4959  -22.4908  -16.2592 O   0  0  0  0  0  0  0  0  0  0  0  0
   26.8803  -17.1532  -13.8376 N   0  0  0  0  0  0  0  0  0  0  0  0
   26.9261  -18.3889  -14.6223 C   0  0  0  0  0  0  0  0  0  0  0  0
   26.2928  -18.3063  -15.6832 O   0  0  0  0  0  0  0  0  0  0  0  0
   27.6761  -19.5152  -14.0869 C   0  0  0  0  0  0  0  0  0  0  0  0
   26.9067  -20.8018  -14.0175 C   0  0  2  0  0  0  0  0  0  0  0  0
   25.7993  -20.6410  -15.0516 N   0  0  0  0  0  0  0  0  0  0  0  0
   26.2175  -21.0415  -12.7435 C   0  0  0  0  0  0  0  0  0  0  0  0
   24.9232  -20.9372  -12.7256 O   0  0  0  0  0  0  0  0  0  0  0  0
   28.7806  -19.3216   -7.2242 C   0  0  0  0  0  0  0  0  0  0  0  0
   27.0439  -19.4864   -6.7267 S   0  0  0  0  0  0  0  0  0  0  0  0
   26.0747  -20.3521   -7.9774 C   0  0  0  0  0  0  0  0  0  0  0  0
   26.8597  -20.6085   -9.2485 C   0  0  0  0  0  0  0  0  0  0  0  0
   26.0132  -21.3292  -10.2604 C   0  0  2  0  0  0  0  0  0  0  0  0
   26.8033  -21.3853  -11.5132 N   0  0  0  0  0  0  0  0  0  0  0  0
   24.8016  -20.5353  -10.5199 C   0  0  0  0  0  0  0  0  0  0  0  0
   24.8848  -19.6342  -11.3957 O   0  0  0  0  0  0  0  0  0  0  0  0
   23.5970  -20.7169   -9.8695 O   0  0  0  0  0  0  0  0  0  0  0  0
  2  1  1  6
  3  2  1  0
  4  3  1  0
  4  5  1  0
  6  5  1  0
  6  7  1  0
  8  9  2  0
  8  2  1  0
 10 11  1  0
 11 13  1  0
 12 11  2  0
 14 13  1  1
 14 15  1  0
 15  8  1  0
 16 23  1  0
 16 14  1  0
 17 16  2  0
 19 20  1  0
 19 18  1  0
 20 21  1  0
 22 21  1  1
 22 24  1  0
 22 23  1  0
 24 26  1  0
 25 24  2  0
M  END
$$$$
