KNM.pdb
     RDKit          3D

 26 25  0  0  1  0  0  0  0  0999 V2000
   16.1157  -24.4424   -4.7442 N   0  0  0  0  0  0  0  0  0  0  0  0
   15.0400  -23.9543   -3.9341 C   0  0  1  0  0  0  0  0  0  0  0  0
   13.8787  -24.9422   -3.8916 C   0  0  0  0  0  0  0  0  0  0  0  0
   13.3228  -25.1722   -5.2578 C   0  0  0  0  0  0  0  0  0  0  0  0
   13.7260  -26.5150   -5.8246 C   0  0  0  0  0  0  0  0  0  0  0  0
   13.0866  -26.7335   -7.1831 C   0  0  0  0  0  0  0  0  0  0  0  0
   13.5018  -27.9942   -7.7424 N   0  0  0  0  0  0  0  0  0  0  0  0
   15.4577  -23.7769   -2.5024 C   0  0  0  0  0  0  0  0  0  0  0  0
   16.4992  -24.3267   -2.0717 O   0  0  0  0  0  0  0  0  0  0  0  0
   15.7501  -21.2318    2.0868 N   0  0  0  0  0  0  0  0  0  0  0  0
   14.7388  -20.6055    1.2324 C   0  0  0  0  0  0  0  0  0  0  0  0
   14.2998  -19.5488    1.7058 O   0  0  0  0  0  0  0  0  0  0  0  0
   14.3864  -21.2687   -0.0140 C   0  0  0  0  0  0  0  0  0  0  0  0
   15.1949  -22.4956   -0.3192 C   0  0  2  0  0  0  0  0  0  0  0  0
   14.6577  -22.9837   -1.6589 N   0  0  0  0  0  0  0  0  0  0  0  0
   14.9952  -23.6140    0.6108 C   0  0  0  0  0  0  0  0  0  0  0  0
   13.8111  -24.1430    0.6774 O   0  0  0  0  0  0  0  0  0  0  0  0
   17.3385  -29.8612    2.6946 C   0  0  0  0  0  0  0  0  0  0  0  0
   17.2193  -28.8958    1.1633 S   0  0  0  0  0  0  0  0  0  0  0  0
   16.0599  -27.5246    1.3319 C   0  0  0  0  0  0  0  0  0  0  0  0
   16.6187  -26.3881    2.1648 C   0  0  0  0  0  0  0  0  0  0  0  0
   15.5862  -25.3129    2.3587 C   0  0  2  0  0  0  0  0  0  0  0  0
   15.9561  -24.1996    1.4527 N   0  0  0  0  0  0  0  0  0  0  0  0
   15.6656  -24.8204    3.7432 C   0  0  0  0  0  0  0  0  0  0  0  0
   14.9020  -25.3598    4.5870 O   0  0  0  0  0  0  0  0  0  0  0  0
   16.5147  -23.8166    4.1656 O   0  0  0  0  0  0  0  0  0  0  0  0
  2  1  1  6
  3  2  1  0
  4  3  1  0
  4  5  1  0
  6  5  1  0
  6  7  1  0
  8  9  2  0
  8  2  1  0
 10 11  1  0
 11 13  1  0
 12 11  2  0
 14 13  1  1
 14 15  1  0
 15  8  1  0
 16 23  1  0
 16 14  1  0
 17 16  2  0
 19 20  1  0
 19 18  1  0
 20 21  1  0
 22 21  1  1
 22 24  1  0
 22 23  1  0
 24 26  1  0
 25 24  2  0
M  END
$$$$
