KNM.pdb
     RDKit          3D

 26 25  0  0  1  0  0  0  0  0999 V2000
   20.5191  -23.3268  -11.7973 N   0  0  0  0  0  0  0  0  0  0  0  0
   20.3573  -21.9775  -11.3448 C   0  0  1  0  0  0  0  0  0  0  0  0
   20.5971  -21.8584   -9.8432 C   0  0  0  0  0  0  0  0  0  0  0  0
   19.9441  -22.9810   -9.1072 C   0  0  0  0  0  0  0  0  0  0  0  0
   18.4588  -23.0611   -9.3800 C   0  0  0  0  0  0  0  0  0  0  0  0
   17.8394  -24.2190   -8.6200 C   0  0  0  0  0  0  0  0  0  0  0  0
   18.0160  -24.0469   -7.2009 N   0  0  0  0  0  0  0  0  0  0  0  0
   21.3591  -21.0545  -11.9773 C   0  0  0  0  0  0  0  0  0  0  0  0
   21.3756  -19.8360  -11.6813 O   0  0  0  0  0  0  0  0  0  0  0  0
   25.4683  -22.5176  -11.5542 N   0  0  0  0  0  0  0  0  0  0  0  0
   25.2683  -21.2968  -12.3381 C   0  0  0  0  0  0  0  0  0  0  0  0
   25.7544  -20.2949  -11.7966 O   0  0  0  0  0  0  0  0  0  0  0  0
   24.5550  -21.4014  -13.6022 C   0  0  0  0  0  0  0  0  0  0  0  0
   23.2449  -20.6706  -13.6427 C   0  0  2  0  0  0  0  0  0  0  0  0
   22.2743  -21.5850  -12.9055 N   0  0  0  0  0  0  0  0  0  0  0  0
   22.6746  -20.4989  -14.9846 C   0  0  0  0  0  0  0  0  0  0  0  0
   22.2980  -21.5645  -15.6241 O   0  0  0  0  0  0  0  0  0  0  0  0
   17.2675  -21.1581  -16.9331 C   0  0  0  0  0  0  0  0  0  0  0  0
   17.6587  -19.4823  -17.5072 S   0  0  0  0  0  0  0  0  0  0  0  0
   19.4178  -19.2950  -17.8586 C   0  0  0  0  0  0  0  0  0  0  0  0
   20.2725  -19.3675  -16.6089 C   0  0  0  0  0  0  0  0  0  0  0  0
   21.7318  -19.2675  -16.9557 C   0  0  2  0  0  0  0  0  0  0  0  0
   22.4761  -19.2905  -15.6742 N   0  0  0  0  0  0  0  0  0  0  0  0
   21.9794  -17.9699  -17.6043 C   0  0  0  0  0  0  0  0  0  0  0  0
   22.5987  -17.1034  -16.9323 O   0  0  0  0  0  0  0  0  0  0  0  0
   21.5785  -17.6507  -18.8867 O   0  0  0  0  0  0  0  0  0  0  0  0
  2  1  1  6
  3  2  1  0
  4  3  1  0
  4  5  1  0
  6  5  1  0
  6  7  1  0
  8  9  2  0
  8  2  1  0
 10 11  1  0
 11 13  1  0
 12 11  2  0
 14 13  1  6
 14 15  1  0
 15  8  1  0
 16 23  1  0
 16 14  1  0
 17 16  2  0
 19 20  1  0
 19 18  1  0
 20 21  1  0
 22 21  1  1
 22 24  1  0
 22 23  1  0
 24 26  1  0
 25 24  2  0
M  END
$$$$
