KNM.pdb
     RDKit          3D

 26 25  0  0  1  0  0  0  0  0999 V2000
   20.2934  -12.5835  -16.1806 N   0  0  0  0  0  0  0  0  0  0  0  0
   19.1193  -11.7659  -16.1132 C   0  0  1  0  0  0  0  0  0  0  0  0
   17.8999  -12.5726  -15.6785 C   0  0  0  0  0  0  0  0  0  0  0  0
   17.6400  -13.6988  -16.6232 C   0  0  0  0  0  0  0  0  0  0  0  0
   18.0271  -15.0396  -16.0408 C   0  0  0  0  0  0  0  0  0  0  0  0
   17.5784  -16.1661  -16.9529 C   0  0  0  0  0  0  0  0  0  0  0  0
   16.1682  -16.4145  -16.7964 N   0  0  0  0  0  0  0  0  0  0  0  0
   19.2568  -10.6778  -15.0872 C   0  0  0  0  0  0  0  0  0  0  0  0
   18.9555  -10.8926  -13.8890 O   0  0  0  0  0  0  0  0  0  0  0  0
   20.7643   -7.7369  -17.0685 N   0  0  0  0  0  0  0  0  0  0  0  0
   21.5861   -7.3359  -15.9245 C   0  0  0  0  0  0  0  0  0  0  0  0
   22.5969   -6.7037  -16.2591 O   0  0  0  0  0  0  0  0  0  0  0  0
   21.1377   -7.7105  -14.5917 C   0  0  0  0  0  0  0  0  0  0  0  0
   19.7352   -8.2409  -14.5305 C   0  0  2  0  0  0  0  0  0  0  0  0
   19.7291   -9.4175  -15.4986 N   0  0  0  0  0  0  0  0  0  0  0  0
   18.7047   -7.3216  -15.0291 C   0  0  0  0  0  0  0  0  0  0  0  0
   18.4528   -7.3268  -16.3030 O   0  0  0  0  0  0  0  0  0  0  0  0
   11.7132   -4.0305  -15.0384 C   0  0  0  0  0  0  0  0  0  0  0  0
   12.9331   -5.1621  -14.3157 S   0  0  0  0  0  0  0  0  0  0  0  0
   14.5934   -4.8339  -14.9389 C   0  0  0  0  0  0  0  0  0  0  0  0
   15.6267   -5.7890  -14.3751 C   0  0  0  0  0  0  0  0  0  0  0  0
   16.9879   -5.4954  -14.9418 C   0  0  2  0  0  0  0  0  0  0  0  0
   17.9348   -6.4199  -14.2745 N   0  0  0  0  0  0  0  0  0  0  0  0
   17.3657   -4.1186  -14.5844 C   0  0  0  0  0  0  0  0  0  0  0  0
   18.0467   -3.9661  -13.5361 O   0  0  0  0  0  0  0  0  0  0  0  0
   17.0225   -3.0009  -15.3192 O   0  0  0  0  0  0  0  0  0  0  0  0
  2  1  1  1
  3  2  1  0
  4  3  1  0
  4  5  1  0
  6  5  1  0
  6  7  1  0
  8  9  2  0
  8  2  1  0
 10 11  1  0
 11 13  1  0
 12 11  2  0
 14 13  1  6
 14 15  1  0
 15  8  1  0
 16 23  1  0
 16 14  1  0
 17 16  2  0
 19 20  1  0
 19 18  1  0
 20 21  1  0
 22 21  1  1
 22 24  1  0
 22 23  1  0
 24 26  1  0
 25 24  2  0
M  END
$$$$
