KNM.pdb
     RDKit          3D

 26 25  0  0  1  0  0  0  0  0999 V2000
   25.7102  -20.4330  -15.3182 N   0  0  0  0  0  0  0  0  0  0  0  0
   25.4725  -19.0562  -15.0030 C   0  0  1  0  0  0  0  0  0  0  0  0
   26.5562  -18.4967  -14.0870 C   0  0  0  0  0  0  0  0  0  0  0  0
   26.9135  -19.4783  -13.0206 C   0  0  0  0  0  0  0  0  0  0  0  0
   25.7784  -19.7109  -12.0488 C   0  0  0  0  0  0  0  0  0  0  0  0
   26.2042  -20.6690  -10.9520 C   0  0  0  0  0  0  0  0  0  0  0  0
   25.0984  -20.9616  -10.0765 N   0  0  0  0  0  0  0  0  0  0  0  0
   25.5087  -18.1901  -16.2294 C   0  0  0  0  0  0  0  0  0  0  0  0
   26.3522  -18.4029  -17.1327 O   0  0  0  0  0  0  0  0  0  0  0  0
   21.1634  -18.3344  -17.6097 N   0  0  0  0  0  0  0  0  0  0  0  0
   22.3544  -17.8154  -18.2859 C   0  0  0  0  0  0  0  0  0  0  0  0
   22.7903  -18.5889  -19.1490 O   0  0  0  0  0  0  0  0  0  0  0  0
   22.8604  -16.5122  -17.8819 C   0  0  0  0  0  0  0  0  0  0  0  0
   24.3467  -16.4535  -17.6823 C   0  0  2  0  0  0  0  0  0  0  0  0
   24.5795  -17.1391  -16.3417 N   0  0  0  0  0  0  0  0  0  0  0  0
   24.8963  -15.1009  -17.5281 C   0  0  0  0  0  0  0  0  0  0  0  0
   24.4221  -14.3591  -16.5735 O   0  0  0  0  0  0  0  0  0  0  0  0
   30.9223  -13.3742  -18.1955 C   0  0  0  0  0  0  0  0  0  0  0  0
   30.2400  -11.8591  -17.4675 S   0  0  0  0  0  0  0  0  0  0  0  0
   28.4390  -11.8309  -17.5607 C   0  0  0  0  0  0  0  0  0  0  0  0
   27.8434  -13.2124  -17.7460 C   0  0  0  0  0  0  0  0  0  0  0  0
   26.3650  -13.1243  -18.0038 C   0  0  2  0  0  0  0  0  0  0  0  0
   25.9028  -14.5003  -18.3035 N   0  0  0  0  0  0  0  0  0  0  0  0
   26.1385  -12.2961  -19.1990 C   0  0  0  0  0  0  0  0  0  0  0  0
   26.0631  -12.8951  -20.3042 O   0  0  0  0  0  0  0  0  0  0  0  0
   26.0062  -10.9216  -19.1808 O   0  0  0  0  0  0  0  0  0  0  0  0
  2  1  1  6
  3  2  1  0
  4  3  1  0
  4  5  1  0
  6  5  1  0
  6  7  1  0
  8  9  2  0
  8  2  1  0
 10 11  1  0
 11 13  1  0
 12 11  2  0
 14 13  1  1
 14 15  1  0
 15  8  1  0
 16 23  1  0
 16 14  1  0
 17 16  2  0
 19 20  1  0
 19 18  1  0
 20 21  1  0
 22 21  1  6
 22 24  1  0
 22 23  1  0
 24 26  1  0
 25 24  2  0
M  END
$$$$
