KNM.pdb
     RDKit          3D

 26 25  0  0  1  0  0  0  0  0999 V2000
   17.1439  -14.2803  -18.7410 N   0  0  0  0  0  0  0  0  0  0  0  0
   17.8358  -13.9199  -17.5397 C   0  0  1  0  0  0  0  0  0  0  0  0
   19.2068  -14.5842  -17.4629 C   0  0  0  0  0  0  0  0  0  0  0  0
   19.0767  -16.0505  -17.2151 C   0  0  0  0  0  0  0  0  0  0  0  0
   19.0118  -16.3816  -15.7410 C   0  0  0  0  0  0  0  0  0  0  0  0
   18.9941  -17.8844  -15.5329 C   0  0  0  0  0  0  0  0  0  0  0  0
   19.0581  -18.2031  -14.1296 N   0  0  0  0  0  0  0  0  0  0  0  0
   18.1098  -12.4446  -17.4765 C   0  0  0  0  0  0  0  0  0  0  0  0
   18.4600  -11.8188  -18.5053 O   0  0  0  0  0  0  0  0  0  0  0  0
   16.4849   -7.8919  -13.7846 N   0  0  0  0  0  0  0  0  0  0  0  0
   17.1045   -8.3481  -15.0307 C   0  0  0  0  0  0  0  0  0  0  0  0
   17.6231   -7.4255  -15.6735 O   0  0  0  0  0  0  0  0  0  0  0  0
   17.0402   -9.7662  -15.3508 C   0  0  0  0  0  0  0  0  0  0  0  0
   18.2094  -10.2829  -16.1370 C   0  0  2  0  0  0  0  0  0  0  0  0
   17.9657  -11.7833  -16.2426 N   0  0  0  0  0  0  0  0  0  0  0  0
   19.5106  -10.1461  -15.4709 C   0  0  0  0  0  0  0  0  0  0  0  0
   19.7190  -10.8474  -14.3979 O   0  0  0  0  0  0  0  0  0  0  0  0
   27.1217  -10.4293  -14.8265 C   0  0  0  0  0  0  0  0  0  0  0  0
   25.6149  -10.4753  -15.8357 S   0  0  0  0  0  0  0  0  0  0  0  0
   24.2089   -9.7596  -14.9618 C   0  0  0  0  0  0  0  0  0  0  0  0
   22.9184   -9.8643  -15.7501 C   0  0  0  0  0  0  0  0  0  0  0  0
   21.7885   -9.2026  -15.0114 C   0  0  2  0  0  0  0  0  0  0  0  0
   20.5861   -9.3333  -15.8681 N   0  0  0  0  0  0  0  0  0  0  0  0
   22.0904   -7.7698  -14.8638 C   0  0  0  0  0  0  0  0  0  0  0  0
   21.7195   -7.0081  -15.7955 O   0  0  0  0  0  0  0  0  0  0  0  0
   22.7468   -7.2194  -13.7806 O   0  0  0  0  0  0  0  0  0  0  0  0
  2  1  1  6
  3  2  1  0
  4  3  1  0
  4  5  1  0
  6  5  1  0
  6  7  1  0
  8  9  2  0
  8  2  1  0
 10 11  1  0
 11 13  1  0
 12 11  2  0
 14 13  1  1
 14 15  1  0
 15  8  1  0
 16 23  1  0
 16 14  1  0
 17 16  2  0
 19 20  1  0
 19 18  1  0
 20 21  1  0
 22 21  1  6
 22 24  1  0
 22 23  1  0
 24 26  1  0
 25 24  2  0
M  END
$$$$
