MMG.pdb
     RDKit          3D

 21 20  0  0  1  0  0  0  0  0999 V2000
    8.1593  -11.6733   19.7550 C   0  0  0  0  0  0  0  0  0  0  0  0
    7.6685  -12.8993   18.5005 S   0  0  0  0  0  0  0  0  0  0  0  0
    7.3061  -14.4477   19.3786 C   0  0  0  0  0  0  0  0  0  0  0  0
    8.6425  -15.0203   19.8290 C   0  0  0  0  0  0  0  0  0  0  0  0
    8.3394  -15.9742   20.9734 C   0  0  2  0  0  0  0  0  0  0  0  0
    7.1075  -16.6735   20.6657 N   0  0  0  0  0  0  0  0  0  0  0  0
    8.2008  -15.2336   22.2565 C   0  0  0  0  0  0  0  0  0  0  0  0
    8.1077  -13.9825   22.1956 O   0  0  0  0  0  0  0  0  0  0  0  0
    7.6839  -11.6658   26.8969 C   0  0  0  0  0  0  0  0  0  0  0  0
    6.3860  -12.8855   26.4987 S   0  0  0  0  0  0  0  0  0  0  0  0
    7.0582  -14.5215   26.8155 C   0  0  0  0  0  0  0  0  0  0  0  0
    6.9838  -15.3330   25.5387 C   0  0  0  0  0  0  0  0  0  0  0  0
    8.2893  -15.1584   24.7779 C   0  0  2  0  0  0  0  0  0  0  0  0
    8.1684  -15.8506   23.5202 N   0  0  0  0  0  0  0  0  0  0  0  0
    9.3393  -15.8349   25.5737 C   0  0  0  0  0  0  0  0  0  0  0  0
    9.8109  -15.2294   26.5660 O   0  0  0  0  0  0  0  0  0  0  0  0
    9.8269  -17.1229   25.2641 N   0  0  0  0  0  0  0  0  0  0  0  0
   10.9107  -17.6557   26.0565 C   0  0  0  0  0  0  0  0  0  0  0  0
   10.3322  -18.3385   27.2590 C   0  0  0  0  0  0  0  0  0  0  0  0
   11.1695  -18.9506   28.1868 O   0  0  0  0  0  0  0  0  0  0  0  0
    9.0953  -18.3872   27.4765 O   0  0  0  0  0  0  0  0  0  0  0  0
  2  3  1  0
  2  1  1  0
  3  4  1  0
  4  5  1  0
  5  7  1  0
  5  6  1  6
  7  8  2  0
  9 10  1  0
 10 11  1  0
 11 12  1  0
 13 12  1  1
 13 15  1  0
 14  7  1  0
 14 13  1  0
 15 16  2  0
 17 15  1  0
 17 18  1  0
 19 18  1  0
 19 20  1  0
 21 19  2  0
M  END
$$$$
