MMG.pdb
     RDKit          3D

 21 20  0  0  1  0  0  0  0  0999 V2000
    7.5267  -12.2409   25.9854 C   0  0  0  0  0  0  0  0  0  0  0  0
    6.5984  -13.0028   27.3548 S   0  0  0  0  0  0  0  0  0  0  0  0
    6.2683  -14.7260   26.8840 C   0  0  0  0  0  0  0  0  0  0  0  0
    7.1487  -15.0287   25.6799 C   0  0  0  0  0  0  0  0  0  0  0  0
    6.6513  -16.3438   25.1014 C   0  0  2  0  0  0  0  0  0  0  0  0
    6.2125  -17.1837   26.1983 N   0  0  0  0  0  0  0  0  0  0  0  0
    7.7290  -17.0253   24.3344 C   0  0  0  0  0  0  0  0  0  0  0  0
    8.4337  -17.8649   24.9476 O   0  0  0  0  0  0  0  0  0  0  0  0
    7.9260  -12.0715   19.4307 C   0  0  0  0  0  0  0  0  0  0  0  0
    7.8338  -13.6233   20.3866 S   0  0  0  0  0  0  0  0  0  0  0  0
    7.6696  -13.1869   22.1219 C   0  0  0  0  0  0  0  0  0  0  0  0
    7.4426  -14.4530   22.9220 C   0  0  0  0  0  0  0  0  0  0  0  0
    8.4132  -15.5161   22.4305 C   0  0  2  0  0  0  0  0  0  0  0  0
    7.9990  -16.7838   22.9752 N   0  0  0  0  0  0  0  0  0  0  0  0
    9.7369  -15.1818   23.0045 C   0  0  0  0  0  0  0  0  0  0  0  0
    9.7943  -14.2728   23.8673 O   0  0  0  0  0  0  0  0  0  0  0  0
   10.9268  -15.8389   22.6241 N   0  0  0  0  0  0  0  0  0  0  0  0
   12.1850  -15.1654   22.8476 C   0  0  0  0  0  0  0  0  0  0  0  0
   13.2961  -16.0734   22.4144 C   0  0  0  0  0  0  0  0  0  0  0  0
   14.4774  -16.1330   23.1476 O   0  0  0  0  0  0  0  0  0  0  0  0
   13.2118  -16.8027   21.3944 O   0  0  0  0  0  0  0  0  0  0  0  0
  2  3  1  0
  2  1  1  0
  3  4  1  0
  4  5  1  0
  5  7  1  0
  5  6  1  1
  7  8  2  0
  9 10  1  0
 10 11  1  0
 11 12  1  0
 13 12  1  1
 13 15  1  0
 14  7  1  0
 14 13  1  0
 15 16  2  0
 17 15  1  0
 17 18  1  0
 19 18  1  0
 19 20  1  0
 21 19  2  0
M  END
$$$$
