MMG.pdb
     RDKit          3D

 21 20  0  0  1  0  0  0  0  0999 V2000
    9.3451  -13.8264   28.9648 C   0  0  0  0  0  0  0  0  0  0  0  0
   10.5866  -14.9765   29.6384 S   0  0  0  0  0  0  0  0  0  0  0  0
   10.0938  -16.6508   29.1347 C   0  0  0  0  0  0  0  0  0  0  0  0
   10.0328  -16.6518   27.6139 C   0  0  0  0  0  0  0  0  0  0  0  0
    8.8614  -17.5417   27.2297 C   0  0  2  0  0  0  0  0  0  0  0  0
    9.3330  -18.9111   27.1717 N   0  0  0  0  0  0  0  0  0  0  0  0
    8.3000  -17.1373   25.9123 C   0  0  0  0  0  0  0  0  0  0  0  0
    7.7499  -18.0288   25.2194 O   0  0  0  0  0  0  0  0  0  0  0  0
    6.7654  -11.2899   25.3366 C   0  0  0  0  0  0  0  0  0  0  0  0
    6.0315  -12.5347   26.4512 S   0  0  0  0  0  0  0  0  0  0  0  0
    6.1379  -14.1308   25.6330 C   0  0  0  0  0  0  0  0  0  0  0  0
    7.0944  -14.0149   24.4642 C   0  0  0  0  0  0  0  0  0  0  0  0
    7.7012  -15.3841   24.1982 C   0  0  2  0  0  0  0  0  0  0  0  0
    8.3507  -15.8260   25.4058 N   0  0  0  0  0  0  0  0  0  0  0  0
    8.7421  -15.1941   23.1619 C   0  0  0  0  0  0  0  0  0  0  0  0
    8.3702  -14.9964   21.9801 O   0  0  0  0  0  0  0  0  0  0  0  0
   10.1242  -15.2257   23.4470 N   0  0  0  0  0  0  0  0  0  0  0  0
   10.8095  -16.4957   23.3843 C   0  0  0  0  0  0  0  0  0  0  0  0
   11.5580  -16.5707   22.0877 C   0  0  0  0  0  0  0  0  0  0  0  0
   12.9002  -16.2075   22.0324 O   0  0  0  0  0  0  0  0  0  0  0  0
   11.0190  -16.9552   21.0195 O   0  0  0  0  0  0  0  0  0  0  0  0
  2  3  1  0
  2  1  1  0
  3  4  1  0
  4  5  1  0
  5  7  1  0
  5  6  1  6
  7  8  2  0
  9 10  1  0
 10 11  1  0
 11 12  1  0
 13 12  1  1
 13 15  1  0
 14  7  1  0
 14 13  1  0
 15 16  2  0
 17 15  1  0
 17 18  1  0
 19 18  1  0
 19 20  1  0
 21 19  2  0
M  END
$$$$
