MMG.pdb
     RDKit          3D

 21 20  0  0  1  0  0  0  0  0999 V2000
    7.3664  -19.7782   20.2815 C   0  0  0  0  0  0  0  0  0  0  0  0
    6.5889  -18.9792   18.8412 S   0  0  0  0  0  0  0  0  0  0  0  0
    6.2039  -17.2699   19.3205 C   0  0  0  0  0  0  0  0  0  0  0  0
    7.3254  -16.8084   20.2402 C   0  0  0  0  0  0  0  0  0  0  0  0
    6.9515  -15.4113   20.7091 C   0  0  2  0  0  0  0  0  0  0  0  0
    6.9973  -14.5223   19.5651 N   0  0  0  0  0  0  0  0  0  0  0  0
    7.8899  -14.9383   21.7627 C   0  0  0  0  0  0  0  0  0  0  0  0
    8.9719  -14.4240   21.3856 O   0  0  0  0  0  0  0  0  0  0  0  0
    5.7726  -10.8245   26.7561 C   0  0  0  0  0  0  0  0  0  0  0  0
    6.4059  -12.5294   26.9073 S   0  0  0  0  0  0  0  0  0  0  0  0
    7.0421  -13.0202   25.3001 C   0  0  0  0  0  0  0  0  0  0  0  0
    7.7355  -14.3596   25.4405 C   0  0  0  0  0  0  0  0  0  0  0  0
    8.5451  -14.6195   24.1792 C   0  0  2  0  0  0  0  0  0  0  0  0
    7.6346  -15.0343   23.1426 N   0  0  0  0  0  0  0  0  0  0  0  0
    9.4462  -15.7561   24.4787 C   0  0  0  0  0  0  0  0  0  0  0  0
    8.9343  -16.8204   24.9018 O   0  0  0  0  0  0  0  0  0  0  0  0
   10.8460  -15.6915   24.3087 N   0  0  0  0  0  0  0  0  0  0  0  0
   11.6310  -16.8622   24.6245 C   0  0  0  0  0  0  0  0  0  0  0  0
   13.0697  -16.5675   24.3242 C   0  0  0  0  0  0  0  0  0  0  0  0
   14.0440  -17.5354   24.5490 O   0  0  0  0  0  0  0  0  0  0  0  0
   13.4499  -15.4600   23.8679 O   0  0  0  0  0  0  0  0  0  0  0  0
  2  3  1  0
  2  1  1  0
  3  4  1  0
  4  5  1  0
  5  7  1  0
  5  6  1  6
  7  8  2  0
  9 10  1  0
 10 11  1  0
 11 12  1  0
 13 12  1  1
 13 15  1  0
 14  7  1  0
 14 13  1  0
 15 16  2  0
 17 15  1  0
 17 18  1  0
 19 18  1  0
 19 20  1  0
 21 19  2  0
M  END
$$$$
