MMG.pdb
     RDKit          3D

 21 20  0  0  1  0  0  0  0  0999 V2000
   10.1127  -17.3011   29.0536 C   0  0  0  0  0  0  0  0  0  0  0  0
    9.2271  -18.8170   29.5385 S   0  0  0  0  0  0  0  0  0  0  0  0
    7.8210  -19.0016   28.4032 C   0  0  0  0  0  0  0  0  0  0  0  0
    8.1872  -18.2591   27.1261 C   0  0  0  0  0  0  0  0  0  0  0  0
    6.9672  -18.3288   26.2215 C   0  0  2  0  0  0  0  0  0  0  0  0
    6.8877  -19.6673   25.6708 N   0  0  0  0  0  0  0  0  0  0  0  0
    7.0649  -17.3287   25.1240 C   0  0  0  0  0  0  0  0  0  0  0  0
    7.1700  -17.7651   23.9510 O   0  0  0  0  0  0  0  0  0  0  0  0
    7.2048  -11.3937   27.0771 C   0  0  0  0  0  0  0  0  0  0  0  0
    5.6279  -11.9905   26.3787 S   0  0  0  0  0  0  0  0  0  0  0  0
    5.9310  -13.6021   25.6442 C   0  0  0  0  0  0  0  0  0  0  0  0
    7.2842  -13.5792   24.9638 C   0  0  0  0  0  0  0  0  0  0  0  0
    7.5649  -14.9634   24.3990 C   0  0  2  0  0  0  0  0  0  0  0  0
    7.0459  -15.9367   25.3256 N   0  0  0  0  0  0  0  0  0  0  0  0
    9.0376  -15.1139   24.3541 C   0  0  0  0  0  0  0  0  0  0  0  0
    9.7155  -14.5647   25.2557 O   0  0  0  0  0  0  0  0  0  0  0  0
    9.7044  -15.8442   23.3468 N   0  0  0  0  0  0  0  0  0  0  0  0
   11.0409  -15.4406   22.9764 C   0  0  0  0  0  0  0  0  0  0  0  0
   11.5017  -16.3016   21.8392 C   0  0  0  0  0  0  0  0  0  0  0  0
   12.8125  -16.2128   21.3805 O   0  0  0  0  0  0  0  0  0  0  0  0
   10.7425  -17.1213   21.2637 O   0  0  0  0  0  0  0  0  0  0  0  0
  2  3  1  0
  2  1  1  0
  3  4  1  0
  4  5  1  0
  5  7  1  0
  5  6  1  6
  7  8  2  0
  9 10  1  0
 10 11  1  0
 11 12  1  0
 13 12  1  1
 13 15  1  0
 14  7  1  0
 14 13  1  0
 15 16  2  0
 17 15  1  0
 17 18  1  0
 19 18  1  0
 19 20  1  0
 21 19  2  0
M  END
$$$$
