MMG.pdb
     RDKit          3D

 21 20  0  0  1  0  0  0  0  0999 V2000
    8.6524  -11.8662   19.5054 C   0  0  0  0  0  0  0  0  0  0  0  0
    7.1101  -12.8052   19.2662 S   0  0  0  0  0  0  0  0  0  0  0  0
    7.5653  -14.5595   19.1432 C   0  0  0  0  0  0  0  0  0  0  0  0
    8.9604  -14.6939   19.7366 C   0  0  0  0  0  0  0  0  0  0  0  0
    8.8957  -15.8373   20.7366 C   0  0  2  0  0  0  0  0  0  0  0  0
    7.6121  -16.4947   20.5902 N   0  0  0  0  0  0  0  0  0  0  0  0
    9.0570  -15.3333   22.1273 C   0  0  0  0  0  0  0  0  0  0  0  0
   10.0860  -14.6600   22.3832 O   0  0  0  0  0  0  0  0  0  0  0  0
    7.2368  -11.3023   27.8177 C   0  0  0  0  0  0  0  0  0  0  0  0
    6.4654  -12.2378   26.4537 S   0  0  0  0  0  0  0  0  0  0  0  0
    7.2986  -13.8257   26.3408 C   0  0  0  0  0  0  0  0  0  0  0  0
    7.0595  -14.4029   24.9609 C   0  0  0  0  0  0  0  0  0  0  0  0
    8.3064  -15.1606   24.5309 C   0  0  2  0  0  0  0  0  0  0  0  0
    8.1307  -15.5665   23.1598 N   0  0  0  0  0  0  0  0  0  0  0  0
    8.3707  -16.3824   25.3654 C   0  0  0  0  0  0  0  0  0  0  0  0
    7.2908  -16.9119   25.7222 O   0  0  0  0  0  0  0  0  0  0  0  0
    9.5875  -16.9711   25.7722 N   0  0  0  0  0  0  0  0  0  0  0  0
    9.6632  -17.5477   27.0944 C   0  0  0  0  0  0  0  0  0  0  0  0
   11.0521  -18.0691   27.3090 C   0  0  0  0  0  0  0  0  0  0  0  0
   12.0127  -17.9329   26.3114 O   0  0  0  0  0  0  0  0  0  0  0  0
   11.4012  -18.6389   28.3734 O   0  0  0  0  0  0  0  0  0  0  0  0
  2  3  1  0
  2  1  1  0
  3  4  1  0
  4  5  1  0
  5  7  1  0
  5  6  1  1
  7  8  2  0
  9 10  1  0
 10 11  1  0
 11 12  1  0
 13 12  1  1
 13 15  1  0
 14  7  1  0
 14 13  1  0
 15 16  2  0
 17 15  1  0
 17 18  1  0
 19 18  1  0
 19 20  1  0
 21 19  2  0
M  END
$$$$
