MMG.pdb
     RDKit          3D

 21 20  0  0  1  0  0  0  0  0999 V2000
    8.7036  -12.2931   19.0491 C   0  0  0  0  0  0  0  0  0  0  0  0
    7.1347  -12.5588   19.9353 S   0  0  0  0  0  0  0  0  0  0  0  0
    7.1018  -14.2992   20.4549 C   0  0  0  0  0  0  0  0  0  0  0  0
    8.5196  -14.8306   20.3004 C   0  0  0  0  0  0  0  0  0  0  0  0
    8.6729  -15.9524   21.3152 C   0  0  2  0  0  0  0  0  0  0  0  0
    7.3818  -16.5892   21.4845 N   0  0  0  0  0  0  0  0  0  0  0  0
    9.1577  -15.4235   22.6188 C   0  0  0  0  0  0  0  0  0  0  0  0
   10.3306  -14.9765   22.6620 O   0  0  0  0  0  0  0  0  0  0  0  0
    6.6859  -11.7377   27.3641 C   0  0  0  0  0  0  0  0  0  0  0  0
    5.7407  -12.4394   25.9694 S   0  0  0  0  0  0  0  0  0  0  0  0
    6.8872  -13.3707   24.9463 C   0  0  0  0  0  0  0  0  0  0  0  0
    7.6119  -14.3746   25.8190 C   0  0  0  0  0  0  0  0  0  0  0  0
    8.8296  -14.8829   25.0623 C   0  0  2  0  0  0  0  0  0  0  0  0
    8.3831  -15.3968   23.7927 N   0  0  0  0  0  0  0  0  0  0  0  0
    9.3765  -16.0137   25.8470 C   0  0  0  0  0  0  0  0  0  0  0  0
    9.6397  -15.8199   27.0582 O   0  0  0  0  0  0  0  0  0  0  0  0
    9.6116  -17.2904   25.2924 N   0  0  0  0  0  0  0  0  0  0  0  0
   10.1009  -18.3365   26.1599 C   0  0  0  0  0  0  0  0  0  0  0  0
   11.5252  -18.6306   25.7968 C   0  0  0  0  0  0  0  0  0  0  0  0
   11.8311  -19.1880   24.5590 O   0  0  0  0  0  0  0  0  0  0  0  0
   12.4823  -18.3929   26.5759 O   0  0  0  0  0  0  0  0  0  0  0  0
  2  3  1  0
  2  1  1  0
  3  4  1  0
  4  5  1  0
  5  7  1  0
  5  6  1  1
  7  8  2  0
  9 10  1  0
 10 11  1  0
 11 12  1  0
 13 12  1  1
 13 15  1  0
 14  7  1  0
 14 13  1  0
 15 16  2  0
 17 15  1  0
 17 18  1  0
 19 18  1  0
 19 20  1  0
 21 19  2  0
M  END
$$$$
