MMG.pdb
     RDKit          3D

 21 20  0  0  1  0  0  0  0  0999 V2000
    6.7150  -13.3372   15.7803 C   0  0  0  0  0  0  0  0  0  0  0  0
    7.7100  -12.9047   17.2434 S   0  0  0  0  0  0  0  0  0  0  0  0
    7.6909  -14.3463   18.3486 C   0  0  0  0  0  0  0  0  0  0  0  0
    8.4317  -13.9392   19.6143 C   0  0  0  0  0  0  0  0  0  0  0  0
    8.5046  -15.1802   20.4896 C   0  0  2  0  0  0  0  0  0  0  0  0
    7.1792  -15.7628   20.5604 N   0  0  0  0  0  0  0  0  0  0  0  0
    8.9864  -14.8367   21.8549 C   0  0  0  0  0  0  0  0  0  0  0  0
   10.1240  -14.3134   21.9527 O   0  0  0  0  0  0  0  0  0  0  0  0
    5.8475  -11.2692   26.5722 C   0  0  0  0  0  0  0  0  0  0  0  0
    6.7397  -12.8464   26.7889 S   0  0  0  0  0  0  0  0  0  0  0  0
    6.8336  -13.6459   25.1824 C   0  0  0  0  0  0  0  0  0  0  0  0
    7.5901  -14.9496   25.3320 C   0  0  0  0  0  0  0  0  0  0  0  0
    8.7660  -14.9399   24.3672 C   0  0  2  0  0  0  0  0  0  0  0  0
    8.2459  -15.0630   23.0293 N   0  0  0  0  0  0  0  0  0  0  0  0
    9.5667  -16.1509   24.6602 C   0  0  0  0  0  0  0  0  0  0  0  0
    9.0429  -17.2711   24.4492 O   0  0  0  0  0  0  0  0  0  0  0  0
   10.8847  -16.0967   25.1628 N   0  0  0  0  0  0  0  0  0  0  0  0
   11.6024  -17.3371   25.3435 C   0  0  0  0  0  0  0  0  0  0  0  0
   12.9665  -17.1918   24.7391 C   0  0  0  0  0  0  0  0  0  0  0  0
   14.0895  -17.6344   25.4314 O   0  0  0  0  0  0  0  0  0  0  0  0
   13.1511  -16.6759   23.6081 O   0  0  0  0  0  0  0  0  0  0  0  0
  2  3  1  0
  2  1  1  0
  3  4  1  0
  4  5  1  0
  5  7  1  0
  5  6  1  1
  7  8  2  0
  9 10  1  0
 10 11  1  0
 11 12  1  0
 13 12  1  1
 13 15  1  0
 14  7  1  0
 14 13  1  0
 15 16  2  0
 17 15  1  0
 17 18  1  0
 19 18  1  0
 19 20  1  0
 21 19  2  0
M  END
$$$$
