HGI.pdb
     RDKit          3D

 23 23  0  0  1  0  0  0  0  0999 V2000
   15.3688  -24.1449   -1.3472 N   0  0  0  0  0  0  0  0  0  0  0  0
   14.5501  -23.0200   -1.6945 C   0  0  1  0  0  0  0  0  0  0  0  0
   13.2472  -23.5264   -2.3070 C   0  0  0  0  0  0  0  0  0  0  0  0
   13.5754  -24.1543   -3.6139 C   0  0  0  0  0  0  0  0  0  0  0  0
   14.5161  -23.7146   -4.5477 C   0  0  0  0  0  0  0  0  0  0  0  0
   14.5200  -24.5476   -5.5997 N   0  0  0  0  0  0  0  0  0  0  0  0
   13.6144  -25.4973   -5.3614 C   0  0  0  0  0  0  0  0  0  0  0  0
   13.0390  -25.2649   -4.1609 N   0  0  0  0  0  0  0  0  0  0  0  0
   14.3212  -22.1817   -0.5251 C   0  0  0  0  0  0  0  0  0  0  0  0
   13.2292  -21.6339   -0.3143 O   0  0  0  0  0  0  0  0  0  0  0  0
   15.3874  -21.9798    0.4153 N   0  0  0  0  0  0  0  0  0  0  0  0
   15.2367  -21.1674    1.5721 C   0  0  0  0  0  0  0  0  0  0  0  0
   16.4621  -20.9348    2.3307 C   0  0  0  0  0  0  0  0  0  0  0  0
   17.2926  -21.9177    2.4612 O   0  0  0  0  0  0  0  0  0  0  0  0
   19.8947  -17.7107    0.9795 C   0  0  0  0  0  0  0  0  0  0  0  0
   19.2131  -18.8576    1.6842 C   0  0  0  0  0  0  0  0  0  0  0  0
   18.9197  -18.5295    3.1300 C   0  0  2  0  0  0  0  0  0  0  0  0
   20.1745  -18.2992    3.9378 C   0  0  0  0  0  0  0  0  0  0  0  0
   18.1199  -19.6860    3.7104 C   0  0  2  0  0  0  0  0  0  0  0  0
   16.8818  -19.7497    2.9622 N   0  0  0  0  0  0  0  0  0  0  0  0
   17.8693  -19.4532    5.1591 C   0  0  0  0  0  0  0  0  0  0  0  0
   16.6915  -18.9419    5.6507 O   0  0  0  0  0  0  0  0  0  0  0  0
   18.7833  -19.7406    5.9624 O   0  0  0  0  0  0  0  0  0  0  0  0
  2  1  1  1
  2  3  1  0
  4  3  1  0
  4  5  2  0
  6  5  1  0
  7  6  1  0
  8  7  2  0
  8  4  1  0
  9  2  1  0
  9 11  1  0
 10  9  2  0
 12 11  1  0
 12 13  1  0
 13 20  1  0
 14 13  2  0
 16 15  1  0
 17 16  1  0
 17 18  1  1
 19 21  1  0
 19 17  1  0
 19 20  1  6
 21 22  1  0
 23 21  2  0
M  END
$$$$
