HGI.pdb
     RDKit          3D

 23 23  0  0  1  0  0  0  0  0999 V2000
   21.8747  -19.1079  -19.0331 N   0  0  0  0  0  0  0  0  0  0  0  0
   22.2676  -17.8812  -18.4029 C   0  0  1  0  0  0  0  0  0  0  0  0
   21.3753  -16.7538  -18.9148 C   0  0  0  0  0  0  0  0  0  0  0  0
   21.7127  -16.5231  -20.3441 C   0  0  0  0  0  0  0  0  0  0  0  0
   22.5794  -15.5574  -20.8603 C   0  0  0  0  0  0  0  0  0  0  0  0
   22.6203  -15.6670  -22.1971 N   0  0  0  0  0  0  0  0  0  0  0  0
   21.8093  -16.6683  -22.5415 C   0  0  0  0  0  0  0  0  0  0  0  0
   21.2568  -17.1907  -21.4242 N   0  0  0  0  0  0  0  0  0  0  0  0
   22.2091  -18.0168  -16.9535 C   0  0  0  0  0  0  0  0  0  0  0  0
   21.1527  -18.2827  -16.3617 O   0  0  0  0  0  0  0  0  0  0  0  0
   23.4064  -17.8385  -16.1812 N   0  0  0  0  0  0  0  0  0  0  0  0
   23.4182  -17.9378  -14.7632 C   0  0  0  0  0  0  0  0  0  0  0  0
   23.3014  -19.2939  -14.2353 C   0  0  0  0  0  0  0  0  0  0  0  0
   22.8750  -20.2213  -15.0298 O   0  0  0  0  0  0  0  0  0  0  0  0
   25.8003  -20.7375   -9.5607 C   0  0  0  0  0  0  0  0  0  0  0  0
   24.6338  -20.5426  -10.4975 C   0  0  0  0  0  0  0  0  0  0  0  0
   24.7321  -21.4437  -11.7069 C   0  0  2  0  0  0  0  0  0  0  0  0
   26.0154  -21.2419  -12.4767 C   0  0  0  0  0  0  0  0  0  0  0  0
   23.5304  -21.1551  -12.5938 C   0  0  2  0  0  0  0  0  0  0  0  0
   23.5979  -19.7502  -12.9379 N   0  0  0  0  0  0  0  0  0  0  0  0
   22.2729  -21.4775  -11.8654 C   0  0  0  0  0  0  0  0  0  0  0  0
   21.7985  -22.7579  -11.7049 O   0  0  0  0  0  0  0  0  0  0  0  0
   21.6218  -20.5280  -11.3778 O   0  0  0  0  0  0  0  0  0  0  0  0
  2  1  1  6
  2  3  1  0
  4  3  1  0
  4  5  2  0
  6  5  1  0
  7  6  1  0
  8  7  2  0
  8  4  1  0
  9  2  1  0
  9 11  1  0
 10  9  2  0
 12 11  1  0
 12 13  1  0
 13 20  1  0
 14 13  2  0
 16 15  1  0
 17 16  1  0
 17 18  1  6
 19 21  1  0
 19 17  1  0
 19 20  1  1
 21 22  1  0
 23 21  2  0
M  END
$$$$
