HGI.pdb
     RDKit          3D

 23 23  0  0  1  0  0  0  0  0999 V2000
   25.0032  -16.7916  -18.3936 N   0  0  0  0  0  0  0  0  0  0  0  0
   26.4144  -16.7318  -18.1459 C   0  0  1  0  0  0  0  0  0  0  0  0
   26.9361  -15.3657  -18.5824 C   0  0  0  0  0  0  0  0  0  0  0  0
   26.5988  -15.1905  -20.0196 C   0  0  0  0  0  0  0  0  0  0  0  0
   27.0846  -15.9355  -21.0963 C   0  0  0  0  0  0  0  0  0  0  0  0
   26.5450  -15.4736  -22.2348 N   0  0  0  0  0  0  0  0  0  0  0  0
   25.7360  -14.4633  -21.9132 C   0  0  0  0  0  0  0  0  0  0  0  0
   25.7641  -14.2869  -20.5736 N   0  0  0  0  0  0  0  0  0  0  0  0
   26.6928  -17.0064  -16.7424 C   0  0  0  0  0  0  0  0  0  0  0  0
   27.8505  -17.0735  -16.3043 O   0  0  0  0  0  0  0  0  0  0  0  0
   25.5987  -17.2062  -15.8342 N   0  0  0  0  0  0  0  0  0  0  0  0
   25.7974  -17.5326  -14.4649 C   0  0  0  0  0  0  0  0  0  0  0  0
   25.2063  -18.7968  -14.0363 C   0  0  0  0  0  0  0  0  0  0  0  0
   24.6454  -19.5410  -14.9333 O   0  0  0  0  0  0  0  0  0  0  0  0
   25.9129  -20.9763   -8.9101 C   0  0  0  0  0  0  0  0  0  0  0  0
   25.1954  -20.4276  -10.1187 C   0  0  0  0  0  0  0  0  0  0  0  0
   25.4742  -21.2507  -11.3552 C   0  0  2  0  0  0  0  0  0  0  0  0
   26.9383  -21.2631  -11.7247 C   0  0  0  0  0  0  0  0  0  0  0  0
   24.6454  -20.6695  -12.4906 C   0  0  2  0  0  0  0  0  0  0  0  0
   25.1591  -19.3387  -12.7389 N   0  0  0  0  0  0  0  0  0  0  0  0
   23.2083  -20.6352  -12.1039 C   0  0  0  0  0  0  0  0  0  0  0  0
   22.3987  -21.7464  -12.1011 O   0  0  0  0  0  0  0  0  0  0  0  0
   22.7218  -19.5342  -11.7657 O   0  0  0  0  0  0  0  0  0  0  0  0
  2  1  1  1
  2  3  1  0
  4  3  1  0
  4  5  2  0
  6  5  1  0
  7  6  1  0
  8  7  2  0
  8  4  1  0
  9  2  1  0
  9 11  1  0
 10  9  2  0
 12 11  1  0
 12 13  1  0
 13 20  1  0
 14 13  2  0
 16 15  1  0
 17 16  1  0
 17 18  1  6
 19 21  1  0
 19 17  1  0
 19 20  1  1
 21 22  1  0
 23 21  2  0
M  END
$$$$
