HGI.pdb
     RDKit          3D

 23 23  0  0  1  0  0  0  0  0999 V2000
   28.4699  -23.6042  -17.6351 N   0  0  0  0  0  0  0  0  0  0  0  0
   29.2276  -22.4688  -17.1957 C   0  0  1  0  0  0  0  0  0  0  0  0
   29.8948  -21.8207  -18.4057 C   0  0  0  0  0  0  0  0  0  0  0  0
   30.9602  -22.7414  -18.8823 C   0  0  0  0  0  0  0  0  0  0  0  0
   30.8623  -23.6852  -19.9069 C   0  0  0  0  0  0  0  0  0  0  0  0
   32.0368  -24.3209  -20.0383 N   0  0  0  0  0  0  0  0  0  0  0  0
   32.8716  -23.8105  -19.1321 C   0  0  0  0  0  0  0  0  0  0  0  0
   32.2259  -22.8539  -18.4290 N   0  0  0  0  0  0  0  0  0  0  0  0
   28.3701  -21.5382  -16.4737 C   0  0  0  0  0  0  0  0  0  0  0  0
   28.8222  -20.5277  -15.9157 O   0  0  0  0  0  0  0  0  0  0  0  0
   26.9587  -21.7927  -16.4023 N   0  0  0  0  0  0  0  0  0  0  0  0
   26.0589  -20.9075  -15.7484 C   0  0  0  0  0  0  0  0  0  0  0  0
   25.4963  -21.4071  -14.4974 C   0  0  0  0  0  0  0  0  0  0  0  0
   25.1343  -22.6477  -14.4459 O   0  0  0  0  0  0  0  0  0  0  0  0
   27.0580  -20.4302   -9.5592 C   0  0  0  0  0  0  0  0  0  0  0  0
   26.4141  -21.0886  -10.7544 C   0  0  0  0  0  0  0  0  0  0  0  0
   24.9828  -20.6386  -10.9363 C   0  0  2  0  0  0  0  0  0  0  0  0
   24.0986  -21.0384   -9.7794 C   0  0  0  0  0  0  0  0  0  0  0  0
   24.4702  -21.2494  -12.2317 C   0  0  2  0  0  0  0  0  0  0  0  0
   25.2850  -20.7040  -13.2972 N   0  0  0  0  0  0  0  0  0  0  0  0
   23.0326  -20.9115  -12.4180 C   0  0  0  0  0  0  0  0  0  0  0  0
   22.5966  -19.8528  -13.1792 O   0  0  0  0  0  0  0  0  0  0  0  0
   22.1855  -21.6339  -11.8489 O   0  0  0  0  0  0  0  0  0  0  0  0
  2  1  1  6
  2  3  1  0
  4  3  1  0
  4  5  2  0
  6  5  1  0
  7  6  1  0
  8  7  2  0
  8  4  1  0
  9  2  1  0
  9 11  1  0
 10  9  2  0
 12 11  1  0
 12 13  1  0
 13 20  1  0
 14 13  2  0
 16 15  1  0
 17 16  1  0
 17 18  1  1
 19 21  1  0
 19 17  1  0
 19 20  1  6
 21 22  1  0
 23 21  2  0
M  END
$$$$
