HGI.pdb
     RDKit          3D

 23 23  0  0  1  0  0  0  0  0999 V2000
   26.3276  -17.6486  -13.5258 N   0  0  0  0  0  0  0  0  0  0  0  0
   25.9495  -18.8328  -14.2406 C   0  0  1  0  0  0  0  0  0  0  0  0
   26.0706  -18.5667  -15.7385 C   0  0  0  0  0  0  0  0  0  0  0  0
   25.0236  -17.5785  -16.1087 C   0  0  0  0  0  0  0  0  0  0  0  0
   24.0282  -17.0550  -15.2809 C   0  0  0  0  0  0  0  0  0  0  0  0
   23.2765  -16.1921  -15.9817 N   0  0  0  0  0  0  0  0  0  0  0  0
   23.7636  -16.1535  -17.2227 C   0  0  0  0  0  0  0  0  0  0  0  0
   24.8213  -16.9906  -17.3061 N   0  0  0  0  0  0  0  0  0  0  0  0
   26.7641  -19.9625  -13.8129 C   0  0  0  0  0  0  0  0  0  0  0  0
   26.5607  -21.1126  -14.2286 O   0  0  0  0  0  0  0  0  0  0  0  0
   27.8360  -19.7447  -12.8826 N   0  0  0  0  0  0  0  0  0  0  0  0
   28.5092  -20.8159  -12.2344 C   0  0  0  0  0  0  0  0  0  0  0  0
   27.9841  -21.1739  -10.9201 C   0  0  0  0  0  0  0  0  0  0  0  0
   28.3727  -22.2894  -10.3931 O   0  0  0  0  0  0  0  0  0  0  0  0
   27.5201  -20.0308   -5.2876 C   0  0  0  0  0  0  0  0  0  0  0  0
   26.8260  -20.7215   -6.4355 C   0  0  0  0  0  0  0  0  0  0  0  0
   27.1952  -20.1037   -7.7645 C   0  0  2  0  0  0  0  0  0  0  0  0
   26.7048  -18.6818   -7.8984 C   0  0  0  0  0  0  0  0  0  0  0  0
   26.5981  -20.9761   -8.8583 C   0  0  2  0  0  0  0  0  0  0  0  0
   27.0829  -20.4507  -10.1176 N   0  0  0  0  0  0  0  0  0  0  0  0
   25.1119  -20.9337   -8.7867 C   0  0  0  0  0  0  0  0  0  0  0  0
   24.3204  -20.4218   -9.7875 O   0  0  0  0  0  0  0  0  0  0  0  0
   24.5646  -21.3896   -7.7591 O   0  0  0  0  0  0  0  0  0  0  0  0
  2  1  1  1
  2  3  1  0
  4  3  1  0
  4  5  2  0
  6  5  1  0
  7  6  1  0
  8  7  2  0
  8  4  1  0
  9  2  1  0
  9 11  1  0
 10  9  2  0
 12 11  1  0
 12 13  1  0
 13 20  1  0
 14 13  2  0
 16 15  1  0
 17 16  1  0
 17 18  1  1
 19 21  1  0
 19 17  1  0
 19 20  1  6
 21 22  1  0
 23 21  2  0
M  END
$$$$
