IDT.pdb
     RDKit          3D

 24 23  0  0  1  0  0  0  0  0999 V2000
    5.6119  -11.6329   26.8104 C   0  0  0  0  0  0  0  0  0  0  0  0
    5.4919  -12.8054   25.8896 C   0  0  0  0  0  0  0  0  0  0  0  0
    6.7963  -13.5501   25.7945 C   0  0  2  0  0  0  0  0  0  0  0  0
    7.8008  -12.6229   25.1164 C   0  0  0  0  0  0  0  0  0  0  0  0
    6.6320  -14.7343   24.8425 C   0  0  2  0  0  0  0  0  0  0  0  0
    5.5615  -15.5330   25.4313 N   0  0  0  0  0  0  0  0  0  0  0  0
    7.8818  -15.5537   24.8259 C   0  0  0  0  0  0  0  0  0  0  0  0
    8.0965  -16.3560   25.7830 O   0  0  0  0  0  0  0  0  0  0  0  0
    8.8275  -15.4555   23.7692 N   0  0  0  0  0  0  0  0  0  0  0  0
    9.9800  -16.3320   23.7514 C   0  0  1  0  0  0  0  0  0  0  0  0
   10.6222  -16.2230   22.4067 C   0  0  0  0  0  0  0  0  0  0  0  0
   11.0814  -17.5520   21.9167 C   0  0  0  0  0  0  0  0  0  0  0  0
   11.2037  -18.4622   22.8136 O   0  0  0  0  0  0  0  0  0  0  0  0
   10.8909  -16.0965   24.8879 C   0  0  0  0  0  0  0  0  0  0  0  0
   11.7477  -15.1931   24.7263 O   0  0  0  0  0  0  0  0  0  0  0  0
   11.3721  -17.8554   20.6004 O   0  0  0  0  0  0  0  0  0  0  0  0
    9.8840  -14.5756   27.7297 C   0  0  0  0  0  0  0  0  0  0  0  0
   11.3340  -15.0320   27.7484 C   0  0  1  0  0  0  0  0  0  0  0  0
   11.9798  -14.7154   28.9400 O   0  0  0  0  0  0  0  0  0  0  0  0
   11.4731  -16.4547   27.3463 C   0  0  2  0  0  0  0  0  0  0  0  0
   10.8465  -16.8103   26.0996 N   0  0  0  0  0  0  0  0  0  0  0  0
   11.1524  -17.4338   28.4130 C   0  0  0  0  0  0  0  0  0  0  0  0
   10.0714  -18.3225   28.2453 O   0  0  0  0  0  0  0  0  0  0  0  0
   11.7658  -17.5611   29.4938 O   0  0  0  0  0  0  0  0  0  0  0  0
  2  1  1  0
  3  4  1  6
  3  2  1  0
  5  3  1  0
  5  6  1  1
  7  8  2  0
  7  5  1  0
  9  7  1  0
 10  9  1  0
 10 11  1  6
 12 11  1  0
 13 12  2  0
 14 10  1  0
 15 14  2  0
 16 12  1  0
 18 17  1  1
 19 18  1  0
 20 18  1  0
 20 21  1  6
 21 14  1  0
 22 20  1  0
 23 22  1  0
 24 22  2  0
M  END
$$$$
