IDT.pdb
     RDKit          3D

 24 23  0  0  1  0  0  0  0  0999 V2000
    6.8194  -12.3077   20.2487 C   0  0  0  0  0  0  0  0  0  0  0  0
    7.4548  -13.5498   19.7099 C   0  0  0  0  0  0  0  0  0  0  0  0
    7.9437  -14.4317   20.8271 C   0  0  2  0  0  0  0  0  0  0  0  0
    9.0267  -13.6595   21.5750 C   0  0  0  0  0  0  0  0  0  0  0  0
    8.6514  -15.6498   20.2343 C   0  0  2  0  0  0  0  0  0  0  0  0
    7.6118  -16.3509   19.4873 N   0  0  0  0  0  0  0  0  0  0  0  0
    9.1336  -16.5440   21.3305 C   0  0  0  0  0  0  0  0  0  0  0  0
    8.3033  -17.3168   21.8954 O   0  0  0  0  0  0  0  0  0  0  0  0
   10.4917  -16.5484   21.7503 N   0  0  0  0  0  0  0  0  0  0  0  0
   10.9122  -17.4331   22.8167 C   0  0  1  0  0  0  0  0  0  0  0  0
   12.3997  -17.5590   22.7526 C   0  0  0  0  0  0  0  0  0  0  0  0
   12.8308  -18.2587   21.5109 C   0  0  0  0  0  0  0  0  0  0  0  0
   13.4582  -17.5356   20.6558 O   0  0  0  0  0  0  0  0  0  0  0  0
   10.3866  -17.0257   24.1338 C   0  0  0  0  0  0  0  0  0  0  0  0
   10.7417  -15.8919   24.5395 O   0  0  0  0  0  0  0  0  0  0  0  0
   12.6061  -19.5935   21.2335 O   0  0  0  0  0  0  0  0  0  0  0  0
    6.9879  -16.2780   25.2715 C   0  0  0  0  0  0  0  0  0  0  0  0
    7.4828  -17.3546   26.2240 C   0  0  1  0  0  0  0  0  0  0  0  0
    6.8131  -18.5638   26.0601 O   0  0  0  0  0  0  0  0  0  0  0  0
    8.9626  -17.4769   26.2025 C   0  0  2  0  0  0  0  0  0  0  0  0
    9.5376  -17.8188   24.9274 N   0  0  0  0  0  0  0  0  0  0  0  0
    9.5313  -18.3050   27.2934 C   0  0  0  0  0  0  0  0  0  0  0  0
    9.2266  -18.0000   28.6352 O   0  0  0  0  0  0  0  0  0  0  0  0
   10.2862  -19.2890   27.1436 O   0  0  0  0  0  0  0  0  0  0  0  0
  2  1  1  0
  3  4  1  1
  3  2  1  0
  5  3  1  0
  5  6  1  6
  7  8  2  0
  7  5  1  0
  9  7  1  0
 10  9  1  0
 10 11  1  1
 12 11  1  0
 13 12  2  0
 14 10  1  0
 15 14  2  0
 16 12  1  0
 18 17  1  6
 19 18  1  0
 20 18  1  0
 20 21  1  6
 21 14  1  0
 22 20  1  0
 23 22  1  0
 24 22  2  0
M  END
$$$$
