IDT.pdb
     RDKit          3D

 24 23  0  0  1  0  0  0  0  0999 V2000
    7.6922  -12.7858   18.9237 C   0  0  0  0  0  0  0  0  0  0  0  0
    6.7314  -13.6004   19.7299 C   0  0  0  0  0  0  0  0  0  0  0  0
    7.4439  -14.3374   20.8318 C   0  0  2  0  0  0  0  0  0  0  0  0
    8.3181  -13.3242   21.5650 C   0  0  0  0  0  0  0  0  0  0  0  0
    8.4176  -15.3427   20.2178 C   0  0  2  0  0  0  0  0  0  0  0  0
    7.5760  -16.2282   19.4191 N   0  0  0  0  0  0  0  0  0  0  0  0
    9.0666  -16.1491   21.2958 C   0  0  0  0  0  0  0  0  0  0  0  0
    8.3617  -16.9799   21.9428 O   0  0  0  0  0  0  0  0  0  0  0  0
   10.4459  -16.0076   21.6093 N   0  0  0  0  0  0  0  0  0  0  0  0
   11.0451  -16.8560   22.6182 C   0  0  1  0  0  0  0  0  0  0  0  0
   12.5295  -16.7740   22.4682 C   0  0  0  0  0  0  0  0  0  0  0  0
   13.2237  -17.6018   23.4929 C   0  0  0  0  0  0  0  0  0  0  0  0
   12.7066  -18.7549   23.7183 O   0  0  0  0  0  0  0  0  0  0  0  0
   10.5480  -16.5627   23.9760 C   0  0  0  0  0  0  0  0  0  0  0  0
   10.9512  -15.4895   24.4881 O   0  0  0  0  0  0  0  0  0  0  0  0
   14.3532  -17.2184   24.1905 O   0  0  0  0  0  0  0  0  0  0  0  0
    7.3213  -15.6177   25.4989 C   0  0  0  0  0  0  0  0  0  0  0  0
    7.7150  -16.9410   26.1351 C   0  0  1  0  0  0  0  0  0  0  0  0
    6.9257  -18.0010   25.6986 O   0  0  0  0  0  0  0  0  0  0  0  0
    9.1748  -17.1935   26.0321 C   0  0  2  0  0  0  0  0  0  0  0  0
    9.6755  -17.3981   24.6976 N   0  0  0  0  0  0  0  0  0  0  0  0
    9.6933  -18.2195   26.9690 C   0  0  0  0  0  0  0  0  0  0  0  0
    9.4263  -18.1065   28.3483 O   0  0  0  0  0  0  0  0  0  0  0  0
   10.3724  -19.2189   26.6523 O   0  0  0  0  0  0  0  0  0  0  0  0
  2  1  1  0
  3  4  1  1
  3  2  1  0
  5  3  1  0
  5  6  1  6
  7  8  2  0
  7  5  1  0
  9  7  1  0
 10  9  1  0
 10 11  1  1
 12 11  1  0
 13 12  2  0
 14 10  1  0
 15 14  2  0
 16 12  1  0
 18 17  1  6
 19 18  1  0
 20 18  1  0
 20 21  1  6
 21 14  1  0
 22 20  1  0
 23 22  1  0
 24 22  2  0
M  END
$$$$
