IDT.pdb
     RDKit          3D

 24 23  0  0  1  0  0  0  0  0999 V2000
    5.7978  -11.6340   26.8019 C   0  0  0  0  0  0  0  0  0  0  0  0
    5.6415  -12.8621   25.9626 C   0  0  0  0  0  0  0  0  0  0  0  0
    6.9090  -13.6734   25.9555 C   0  0  2  0  0  0  0  0  0  0  0  0
    7.9919  -12.8192   25.3027 C   0  0  0  0  0  0  0  0  0  0  0  0
    6.7312  -14.8774   25.0310 C   0  0  2  0  0  0  0  0  0  0  0  0
    5.6424  -15.6429   25.6303 N   0  0  0  0  0  0  0  0  0  0  0  0
    7.9665  -15.7185   25.0442 C   0  0  0  0  0  0  0  0  0  0  0  0
    8.1076  -16.5786   25.9640 O   0  0  0  0  0  0  0  0  0  0  0  0
    8.9788  -15.5778   24.0561 N   0  0  0  0  0  0  0  0  0  0  0  0
   10.1784  -16.3848   24.1351 C   0  0  1  0  0  0  0  0  0  0  0  0
   10.9466  -16.1953   22.8676 C   0  0  0  0  0  0  0  0  0  0  0  0
   11.9718  -17.2607   22.6914 C   0  0  0  0  0  0  0  0  0  0  0  0
   12.0546  -18.1146   23.6462 O   0  0  0  0  0  0  0  0  0  0  0  0
   10.9525  -16.1337   25.3657 C   0  0  0  0  0  0  0  0  0  0  0  0
   11.5621  -15.0372   25.4164 O   0  0  0  0  0  0  0  0  0  0  0  0
   12.8093  -17.3832   21.5992 O   0  0  0  0  0  0  0  0  0  0  0  0
   10.8012  -14.3306   27.5491 C   0  0  0  0  0  0  0  0  0  0  0  0
   10.7102  -15.5750   28.4176 C   0  0  1  0  0  0  0  0  0  0  0  0
    9.4076  -15.8513   28.8228 O   0  0  0  0  0  0  0  0  0  0  0  0
   11.4093  -16.7324   27.8038 C   0  0  2  0  0  0  0  0  0  0  0  0
   11.0368  -17.0319   26.4454 N   0  0  0  0  0  0  0  0  0  0  0  0
   11.4345  -17.9559   28.6414 C   0  0  0  0  0  0  0  0  0  0  0  0
   12.0652  -17.9284   29.9016 O   0  0  0  0  0  0  0  0  0  0  0  0
   10.9337  -19.0588   28.3359 O   0  0  0  0  0  0  0  0  0  0  0  0
  2  1  1  0
  3  4  1  6
  3  2  1  0
  5  3  1  0
  5  6  1  1
  7  8  2  0
  7  5  1  0
  9  7  1  0
 10  9  1  0
 10 11  1  6
 12 11  1  0
 13 12  2  0
 14 10  1  0
 15 14  2  0
 16 12  1  0
 18 17  1  6
 19 18  1  0
 20 18  1  0
 20 21  1  6
 21 14  1  0
 22 20  1  0
 23 22  1  0
 24 22  2  0
M  END
$$$$
