IDT.pdb
     RDKit          3D

 24 23  0  0  1  0  0  0  0  0999 V2000
    7.3256  -11.8666   18.8859 C   0  0  0  0  0  0  0  0  0  0  0  0
    7.9312  -13.1555   18.4288 C   0  0  0  0  0  0  0  0  0  0  0  0
    8.2265  -14.0554   19.5984 C   0  0  2  0  0  0  0  0  0  0  0  0
    9.3110  -13.3779   20.4310 C   0  0  0  0  0  0  0  0  0  0  0  0
    8.8571  -15.3515   19.0901 C   0  0  2  0  0  0  0  0  0  0  0  0
    7.8058  -15.9866   18.3014 N   0  0  0  0  0  0  0  0  0  0  0  0
    9.1910  -16.2432   20.2420 C   0  0  0  0  0  0  0  0  0  0  0  0
    8.2514  -16.8616   20.8256 O   0  0  0  0  0  0  0  0  0  0  0  0
   10.5279  -16.4133   20.6942 N   0  0  0  0  0  0  0  0  0  0  0  0
   10.8103  -17.3358   21.7740 C   0  0  1  0  0  0  0  0  0  0  0  0
   12.2218  -17.8028   21.6251 C   0  0  0  0  0  0  0  0  0  0  0  0
   12.5968  -18.7483   22.7125 C   0  0  0  0  0  0  0  0  0  0  0  0
   13.7648  -18.5785   23.2172 O   0  0  0  0  0  0  0  0  0  0  0  0
   10.4854  -16.7757   23.0997 C   0  0  0  0  0  0  0  0  0  0  0  0
   11.1764  -15.7929   23.4645 O   0  0  0  0  0  0  0  0  0  0  0  0
   11.7911  -19.7612   23.1963 O   0  0  0  0  0  0  0  0  0  0  0  0
    7.3715  -15.1670   24.5850 C   0  0  0  0  0  0  0  0  0  0  0  0
    7.7115  -16.3826   25.4322 C   0  0  1  0  0  0  0  0  0  0  0  0
    6.7923  -17.4165   25.2788 O   0  0  0  0  0  0  0  0  0  0  0  0
    9.1255  -16.8019   25.2587 C   0  0  2  0  0  0  0  0  0  0  0  0
    9.4752  -17.2728   23.9436 N   0  0  0  0  0  0  0  0  0  0  0  0
    9.6357  -17.7109   26.3135 C   0  0  0  0  0  0  0  0  0  0  0  0
    9.5374  -17.3356   27.6685 O   0  0  0  0  0  0  0  0  0  0  0  0
   10.1675  -18.8247   26.1210 O   0  0  0  0  0  0  0  0  0  0  0  0
  2  1  1  0
  3  4  1  1
  3  2  1  0
  5  3  1  0
  5  6  1  6
  7  8  2  0
  7  5  1  0
  9  7  1  0
 10  9  1  0
 10 11  1  1
 12 11  1  0
 13 12  2  0
 14 10  1  0
 15 14  2  0
 16 12  1  0
 18 17  1  6
 19 18  1  0
 20 18  1  0
 20 21  1  6
 21 14  1  0
 22 20  1  0
 23 22  1  0
 24 22  2  0
M  END
$$$$
