IDT.pdb
     RDKit          3D

 24 23  0  0  1  0  0  0  0  0999 V2000
    7.4392  -12.3907   21.2580 C   0  0  0  0  0  0  0  0  0  0  0  0
    7.5563  -13.7613   20.6709 C   0  0  0  0  0  0  0  0  0  0  0  0
    8.6246  -13.8030   19.6116 C   0  0  2  0  0  0  0  0  0  0  0  0
    8.1155  -12.9965   18.4205 C   0  0  0  0  0  0  0  0  0  0  0  0
    8.7694  -15.2353   19.0984 C   0  0  2  0  0  0  0  0  0  0  0  0
    7.4184  -15.6222   18.7039 N   0  0  0  0  0  0  0  0  0  0  0  0
    9.2156  -16.1326   20.2072 C   0  0  0  0  0  0  0  0  0  0  0  0
    8.3374  -16.7347   20.8942 O   0  0  0  0  0  0  0  0  0  0  0  0
   10.5919  -16.3257   20.5063 N   0  0  0  0  0  0  0  0  0  0  0  0
   10.9748  -17.1674   21.6205 C   0  0  1  0  0  0  0  0  0  0  0  0
   12.3966  -17.5806   21.4197 C   0  0  0  0  0  0  0  0  0  0  0  0
   12.5379  -18.4789   20.2406 C   0  0  0  0  0  0  0  0  0  0  0  0
   13.5077  -18.2033   19.4460 O   0  0  0  0  0  0  0  0  0  0  0  0
   10.6957  -16.5423   22.9274 C   0  0  0  0  0  0  0  0  0  0  0  0
   11.3713  -15.5204   23.2024 O   0  0  0  0  0  0  0  0  0  0  0  0
   11.7183  -19.5555   19.9604 O   0  0  0  0  0  0  0  0  0  0  0  0
    7.7706  -14.7480   24.2557 C   0  0  0  0  0  0  0  0  0  0  0  0
    8.0002  -15.9111   25.2072 C   0  0  1  0  0  0  0  0  0  0  0  0
    7.0147  -16.8888   25.1057 O   0  0  0  0  0  0  0  0  0  0  0  0
    9.3851  -16.4388   25.1145 C   0  0  2  0  0  0  0  0  0  0  0  0
    9.7432  -17.0197   23.8465 N   0  0  0  0  0  0  0  0  0  0  0  0
    9.7933  -17.3088   26.2440 C   0  0  0  0  0  0  0  0  0  0  0  0
    9.7251  -16.8198   27.5641 O   0  0  0  0  0  0  0  0  0  0  0  0
   10.2101  -18.4823   26.1464 O   0  0  0  0  0  0  0  0  0  0  0  0
  2  1  1  0
  3  4  1  6
  3  2  1  0
  5  3  1  0
  5  6  1  1
  7  8  2  0
  7  5  1  0
  9  7  1  0
 10  9  1  0
 10 11  1  6
 12 11  1  0
 13 12  2  0
 14 10  1  0
 15 14  2  0
 16 12  1  0
 18 17  1  6
 19 18  1  0
 20 18  1  0
 20 21  1  6
 21 14  1  0
 22 20  1  0
 23 22  1  0
 24 22  2  0
M  END
$$$$
