CDT.pdb
     RDKit          3D

 22 21  0  0  1  0  0  0  0  0999 V2000
   18.0156  -11.1127  -17.3211 N   0  0  0  0  0  0  0  0  0  0  0  0
   17.3960  -10.2299  -16.3596 C   0  0  1  0  0  0  0  0  0  0  0  0
   17.7156  -10.7521  -14.9603 C   0  0  0  0  0  0  0  0  0  0  0  0
   16.6512  -12.1668  -14.6049 S   0  0  0  0  0  0  0  0  0  0  0  0
   18.0896   -8.9006  -16.4432 C   0  0  0  0  0  0  0  0  0  0  0  0
   19.2249   -8.8646  -16.9594 O   0  0  0  0  0  0  0  0  0  0  0  0
   17.4871   -7.7241  -15.9579 N   0  0  0  0  0  0  0  0  0  0  0  0
   18.1635   -6.4435  -16.1363 C   0  0  1  0  0  0  0  0  0  0  0  0
   17.1896   -5.3301  -16.3445 C   0  0  0  0  0  0  0  0  0  0  0  0
   16.5639   -5.3051  -17.6530 C   0  0  0  0  0  0  0  0  0  0  0  0
   15.3730   -5.5185  -17.9376 O   0  0  0  0  0  0  0  0  0  0  0  0
   19.0997   -6.2188  -15.0044 C   0  0  0  0  0  0  0  0  0  0  0  0
   18.6374   -6.1286  -13.8471 O   0  0  0  0  0  0  0  0  0  0  0  0
   17.3782   -5.0036  -18.7729 O   0  0  0  0  0  0  0  0  0  0  0  0
   21.8063   -8.4272  -13.9461 C   0  0  0  0  0  0  0  0  0  0  0  0
   22.4510   -7.0640  -14.0648 C   0  0  1  0  0  0  0  0  0  0  0  0
   23.0214   -6.9151  -15.3448 O   0  0  0  0  0  0  0  0  0  0  0  0
   21.3412   -6.0283  -13.9974 C   0  0  2  0  0  0  0  0  0  0  0  0
   20.4903   -6.0985  -15.1583 N   0  0  0  0  0  0  0  0  0  0  0  0
   21.9020   -4.6572  -13.8798 C   0  0  0  0  0  0  0  0  0  0  0  0
   21.7693   -3.7940  -14.7830 O   0  0  0  0  0  0  0  0  0  0  0  0
   22.5994   -4.3031  -12.7381 O   0  0  0  0  0  0  0  0  0  0  0  0
  2  1  1  6
  2  5  1  0
  3  2  1  0
  4  3  1  0
  5  6  2  0
  7  5  1  0
  7  8  1  0
  8 12  1  0
  9 10  1  0
  8  9  1  1
 10 11  2  0
 12 19  1  0
 12 13  2  0
 14 10  1  0
 16 15  1  6
 16 18  1  0
 17 16  1  0
 18 20  1  0
 18 19  1  6
 20 21  2  0
 20 22  1  0
M  END
$$$$
