CDT.pdb
     RDKit          3D

 22 21  0  0  1  0  0  0  0  0999 V2000
   13.3864  -14.7891  -11.7266 N   0  0  0  0  0  0  0  0  0  0  0  0
   13.0627  -13.3892  -11.8797 C   0  0  1  0  0  0  0  0  0  0  0  0
   12.4707  -12.8917  -10.5626 C   0  0  0  0  0  0  0  0  0  0  0  0
   11.0192  -13.8870  -10.1589 S   0  0  0  0  0  0  0  0  0  0  0  0
   14.3516  -12.6340  -12.0332 C   0  0  0  0  0  0  0  0  0  0  0  0
   15.3520  -13.2604  -12.4375 O   0  0  0  0  0  0  0  0  0  0  0  0
   14.4405  -11.2610  -11.7337 N   0  0  0  0  0  0  0  0  0  0  0  0
   15.6613  -10.5315  -12.0602 C   0  0  1  0  0  0  0  0  0  0  0  0
   16.1080  -10.8028  -13.4596 C   0  0  0  0  0  0  0  0  0  0  0  0
   17.3105  -10.0985  -13.8624 C   0  0  0  0  0  0  0  0  0  0  0  0
   18.2689   -9.7496  -13.1521 O   0  0  0  0  0  0  0  0  0  0  0  0
   15.4685   -9.0889  -11.7602 C   0  0  0  0  0  0  0  0  0  0  0  0
   14.5427   -8.4722  -12.3294 O   0  0  0  0  0  0  0  0  0  0  0  0
   17.4479   -9.7462  -15.2280 O   0  0  0  0  0  0  0  0  0  0  0  0
   15.0107   -7.3915   -8.3396 C   0  0  0  0  0  0  0  0  0  0  0  0
   16.1416   -6.7080   -9.0757 C   0  0  1  0  0  0  0  0  0  0  0  0
   17.3688   -7.3077   -8.7290 O   0  0  0  0  0  0  0  0  0  0  0  0
   15.9596   -6.9948  -10.5568 C   0  0  2  0  0  0  0  0  0  0  0  0
   16.2746   -8.3667  -10.8655 N   0  0  0  0  0  0  0  0  0  0  0  0
   16.8110   -6.0966  -11.3793 C   0  0  0  0  0  0  0  0  0  0  0  0
   17.7197   -6.5298  -12.1311 O   0  0  0  0  0  0  0  0  0  0  0  0
   16.6071   -4.7288  -11.3258 O   0  0  0  0  0  0  0  0  0  0  0  0
  2  1  1  1
  2  5  1  0
  3  2  1  0
  4  3  1  0
  5  6  2  0
  7  5  1  0
  7  8  1  0
  8 12  1  0
  9 10  1  0
  8  9  1  6
 10 11  2  0
 12 19  1  0
 12 13  2  0
 14 10  1  0
 16 15  1  1
 16 18  1  0
 17 16  1  0
 18 20  1  0
 18 19  1  1
 20 21  2  0
 20 22  1  0
M  END
$$$$
