CDT.pdb
     RDKit          3D

 22 21  0  0  1  0  0  0  0  0999 V2000
   20.6392  -11.9628  -18.5459 N   0  0  0  0  0  0  0  0  0  0  0  0
   21.4376  -11.2830  -17.5518 C   0  0  1  0  0  0  0  0  0  0  0  0
   22.7308  -10.8176  -18.2182 C   0  0  0  0  0  0  0  0  0  0  0  0
   23.7889  -12.2513  -18.5105 S   0  0  0  0  0  0  0  0  0  0  0  0
   20.7214  -10.0184  -17.1740 C   0  0  0  0  0  0  0  0  0  0  0  0
   20.1156   -9.3987  -18.0716 O   0  0  0  0  0  0  0  0  0  0  0  0
   20.7257   -9.5370  -15.8507 N   0  0  0  0  0  0  0  0  0  0  0  0
   19.9822   -8.3247  -15.5242 C   0  0  1  0  0  0  0  0  0  0  0  0
   18.9485   -8.5777  -14.4759 C   0  0  0  0  0  0  0  0  0  0  0  0
   17.8055   -9.3516  -14.9219 C   0  0  0  0  0  0  0  0  0  0  0  0
   17.4663   -9.6157  -16.0882 O   0  0  0  0  0  0  0  0  0  0  0  0
   20.9364   -7.2397  -15.1772 C   0  0  0  0  0  0  0  0  0  0  0  0
   21.8184   -7.4623  -14.3206 O   0  0  0  0  0  0  0  0  0  0  0  0
   16.9432   -9.8914  -13.9355 O   0  0  0  0  0  0  0  0  0  0  0  0
   22.8456   -5.0794  -17.7752 C   0  0  0  0  0  0  0  0  0  0  0  0
   22.2635   -4.1693  -16.7164 C   0  0  1  0  0  0  0  0  0  0  0  0
   21.0118   -3.6810  -17.1416 O   0  0  0  0  0  0  0  0  0  0  0  0
   21.9668   -5.0234  -15.4952 C   0  0  2  0  0  0  0  0  0  0  0  0
   20.9062   -5.9624  -15.7599 N   0  0  0  0  0  0  0  0  0  0  0  0
   21.5953   -4.1755  -14.3327 C   0  0  0  0  0  0  0  0  0  0  0  0
   22.3613   -3.2949  -13.8675 O   0  0  0  0  0  0  0  0  0  0  0  0
   20.3623   -4.3508  -13.7293 O   0  0  0  0  0  0  0  0  0  0  0  0
  2  1  1  6
  2  5  1  0
  3  2  1  0
  4  3  1  0
  5  6  2  0
  7  5  1  0
  7  8  1  0
  8 12  1  0
  9 10  1  0
  8  9  1  1
 10 11  2  0
 12 19  1  0
 12 13  2  0
 14 10  1  0
 16 15  1  6
 16 18  1  0
 17 16  1  0
 18 20  1  0
 18 19  1  6
 20 21  2  0
 20 22  1  0
M  END
$$$$
