CDT.pdb
     RDKit          3D

 22 21  0  0  1  0  0  0  0  0999 V2000
   19.0926  -29.3461   -9.8066 N   0  0  0  0  0  0  0  0  0  0  0  0
   19.8613  -28.1449   -9.5741 C   0  0  1  0  0  0  0  0  0  0  0  0
   20.7736  -27.9240  -10.7790 C   0  0  0  0  0  0  0  0  0  0  0  0
   22.2584  -28.9328  -10.5832 S   0  0  0  0  0  0  0  0  0  0  0  0
   18.9117  -26.9817   -9.5907 C   0  0  0  0  0  0  0  0  0  0  0  0
   17.8981  -27.0642  -10.3136 O   0  0  0  0  0  0  0  0  0  0  0  0
   19.1469  -25.8282   -8.8181 N   0  0  0  0  0  0  0  0  0  0  0  0
   18.1789  -24.7367   -8.8425 C   0  0  1  0  0  0  0  0  0  0  0  0
   18.2455  -23.9130   -7.5981 C   0  0  0  0  0  0  0  0  0  0  0  0
   18.0993  -24.6611   -6.3640 C   0  0  0  0  0  0  0  0  0  0  0  0
   18.8147  -24.6129   -5.3488 O   0  0  0  0  0  0  0  0  0  0  0  0
   18.3524  -23.9519  -10.0923 C   0  0  0  0  0  0  0  0  0  0  0  0
   19.4329  -23.3546  -10.2853 O   0  0  0  0  0  0  0  0  0  0  0  0
   17.0179  -25.5714   -6.2633 O   0  0  0  0  0  0  0  0  0  0  0  0
   18.3799  -25.1291  -13.5317 C   0  0  0  0  0  0  0  0  0  0  0  0
   17.3562  -24.0156  -13.5195 C   0  0  1  0  0  0  0  0  0  0  0  0
   16.0723  -24.5494  -13.2902 O   0  0  0  0  0  0  0  0  0  0  0  0
   17.6487  -23.1418  -12.3112 C   0  0  2  0  0  0  0  0  0  0  0  0
   17.3629  -23.8378  -11.0821 N   0  0  0  0  0  0  0  0  0  0  0  0
   16.8569  -21.8853  -12.3615 C   0  0  0  0  0  0  0  0  0  0  0  0
   17.0362  -21.0095  -13.2443 O   0  0  0  0  0  0  0  0  0  0  0  0
   15.8817  -21.6570  -11.4064 O   0  0  0  0  0  0  0  0  0  0  0  0
  2  1  1  6
  2  5  1  0
  3  2  1  0
  4  3  1  0
  5  6  2  0
  7  5  1  0
  7  8  1  0
  8 12  1  0
  9 10  1  0
  8  9  1  1
 10 11  2  0
 12 19  1  0
 12 13  2  0
 14 10  1  0
 16 15  1  1
 16 18  1  0
 17 16  1  0
 18 20  1  0
 18 19  1  1
 20 21  2  0
 20 22  1  0
M  END
$$$$
