CDT.pdb
     RDKit          3D

 22 21  0  0  1  0  0  0  0  0999 V2000
   17.9121  -12.2399  -17.9139 N   0  0  0  0  0  0  0  0  0  0  0  0
   18.5781  -11.7763  -16.7184 C   0  0  1  0  0  0  0  0  0  0  0  0
   20.0360  -12.2274  -16.7815 C   0  0  0  0  0  0  0  0  0  0  0  0
   20.1282  -13.9767  -16.3433 S   0  0  0  0  0  0  0  0  0  0  0  0
   18.6352  -10.2769  -16.7767 C   0  0  0  0  0  0  0  0  0  0  0  0
   18.4482   -9.7268  -17.8809 O   0  0  0  0  0  0  0  0  0  0  0  0
   18.8906   -9.5046  -15.6273 N   0  0  0  0  0  0  0  0  0  0  0  0
   18.8216   -8.0494  -15.7088 C   0  0  1  0  0  0  0  0  0  0  0  0
   17.4492   -7.5446  -15.4037 C   0  0  0  0  0  0  0  0  0  0  0  0
   17.3220   -6.0997  -15.3845 C   0  0  0  0  0  0  0  0  0  0  0  0
   17.8687   -5.2719  -16.1332 O   0  0  0  0  0  0  0  0  0  0  0  0
   19.8832   -7.4570  -14.8542 C   0  0  0  0  0  0  0  0  0  0  0  0
   19.9266   -7.7657  -13.6442 O   0  0  0  0  0  0  0  0  0  0  0  0
   16.4782   -5.5204  -14.4045 O   0  0  0  0  0  0  0  0  0  0  0  0
   23.5389   -7.7757  -15.0656 C   0  0  0  0  0  0  0  0  0  0  0  0
   23.2657   -6.2880  -15.0557 C   0  0  1  0  0  0  0  0  0  0  0  0
   23.1634   -5.8122  -16.3782 O   0  0  0  0  0  0  0  0  0  0  0  0
   21.8882   -6.0823  -14.4480 C   0  0  2  0  0  0  0  0  0  0  0  0
   20.8523   -6.5587  -15.3293 N   0  0  0  0  0  0  0  0  0  0  0  0
   21.6529   -4.6475  -14.1413 C   0  0  0  0  0  0  0  0  0  0  0  0
   20.7988   -3.9580  -14.7526 O   0  0  0  0  0  0  0  0  0  0  0  0
   22.3948   -4.0337  -13.1473 O   0  0  0  0  0  0  0  0  0  0  0  0
  2  1  1  6
  2  5  1  0
  3  2  1  0
  4  3  1  0
  5  6  2  0
  7  5  1  0
  7  8  1  0
  8 12  1  0
  9 10  1  0
  8  9  1  1
 10 11  2  0
 12 19  1  0
 12 13  2  0
 14 10  1  0
 16 15  1  6
 16 18  1  0
 17 16  1  0
 18 20  1  0
 18 19  1  6
 20 21  2  0
 20 22  1  0
M  END
$$$$
