CDT.pdb
     RDKit          3D

 22 21  0  0  1  0  0  0  0  0999 V2000
   15.0689  -14.0603  -11.8230 N   0  0  0  0  0  0  0  0  0  0  0  0
   14.3672  -12.8271  -12.0964 C   0  0  1  0  0  0  0  0  0  0  0  0
   13.2353  -12.6892  -11.0801 C   0  0  0  0  0  0  0  0  0  0  0  0
   11.9922  -13.9564  -11.4110 S   0  0  0  0  0  0  0  0  0  0  0  0
   15.3001  -11.6906  -11.7916 C   0  0  0  0  0  0  0  0  0  0  0  0
   16.1196  -11.8395  -10.8626 O   0  0  0  0  0  0  0  0  0  0  0  0
   15.2612  -10.4892  -12.5250 N   0  0  0  0  0  0  0  0  0  0  0  0
   16.2843   -9.4741  -12.2970 C   0  0  1  0  0  0  0  0  0  0  0  0
   17.0109   -9.1313  -13.5564 C   0  0  0  0  0  0  0  0  0  0  0  0
   18.0172   -8.0959  -13.4163 C   0  0  0  0  0  0  0  0  0  0  0  0
   18.5205   -7.6525  -12.3699 O   0  0  0  0  0  0  0  0  0  0  0  0
   15.6731   -8.3021  -11.6182 C   0  0  0  0  0  0  0  0  0  0  0  0
   14.5683   -7.8793  -12.0209 O   0  0  0  0  0  0  0  0  0  0  0  0
   18.5144   -7.4890  -14.5964 O   0  0  0  0  0  0  0  0  0  0  0  0
   14.7267   -7.4501   -7.9482 C   0  0  0  0  0  0  0  0  0  0  0  0
   15.7347   -6.4489   -8.4675 C   0  0  1  0  0  0  0  0  0  0  0  0
   17.0406   -6.8878   -8.1707 O   0  0  0  0  0  0  0  0  0  0  0  0
   15.6442   -6.4569   -9.9844 C   0  0  2  0  0  0  0  0  0  0  0  0
   16.2696   -7.6310  -10.5385 N   0  0  0  0  0  0  0  0  0  0  0  0
   16.2786   -5.2426  -10.5598 C   0  0  0  0  0  0  0  0  0  0  0  0
   17.2935   -5.2969  -11.2983 O   0  0  0  0  0  0  0  0  0  0  0  0
   15.7423   -3.9977  -10.2806 O   0  0  0  0  0  0  0  0  0  0  0  0
  2  1  1  1
  2  5  1  0
  3  2  1  0
  4  3  1  0
  5  6  2  0
  7  5  1  0
  7  8  1  0
  8 12  1  0
  9 10  1  0
  8  9  1  6
 10 11  2  0
 12 19  1  0
 12 13  2  0
 14 10  1  0
 16 15  1  1
 16 18  1  0
 17 16  1  0
 18 20  1  0
 18 19  1  6
 20 21  2  0
 20 22  1  0
M  END
$$$$
