CDT.pdb
     RDKit          3D

 22 21  0  0  1  0  0  0  0  0999 V2000
   24.8899   -9.4706  -15.9468 N   0  0  0  0  0  0  0  0  0  0  0  0
   23.6803  -10.1860  -16.2828 C   0  0  1  0  0  0  0  0  0  0  0  0
   23.4626  -11.2715  -15.2305 C   0  0  0  0  0  0  0  0  0  0  0  0
   24.8646  -12.4090  -15.2625 S   0  0  0  0  0  0  0  0  0  0  0  0
   22.5252   -9.2424  -16.1085 C   0  0  0  0  0  0  0  0  0  0  0  0
   21.3735   -9.6887  -16.2847 O   0  0  0  0  0  0  0  0  0  0  0  0
   22.7233   -7.8934  -15.7568 N   0  0  0  0  0  0  0  0  0  0  0  0
   21.5675   -7.0379  -15.5086 C   0  0  1  0  0  0  0  0  0  0  0  0
   20.6913   -7.5933  -14.4338 C   0  0  0  0  0  0  0  0  0  0  0  0
   19.2775   -7.3107  -14.5939 C   0  0  0  0  0  0  0  0  0  0  0  0
   18.7407   -6.2307  -14.8942 O   0  0  0  0  0  0  0  0  0  0  0  0
   22.0288   -5.6492  -15.2497 C   0  0  0  0  0  0  0  0  0  0  0  0
   22.8640   -5.4496  -14.3420 O   0  0  0  0  0  0  0  0  0  0  0  0
   18.3609   -8.3723  -14.3913 O   0  0  0  0  0  0  0  0  0  0  0  0
   23.7058   -3.3694  -17.5815 C   0  0  0  0  0  0  0  0  0  0  0  0
   22.5726   -2.5529  -17.0007 C   0  0  1  0  0  0  0  0  0  0  0  0
   21.4517   -2.6176  -17.8523 O   0  0  0  0  0  0  0  0  0  0  0  0
   22.1370   -3.2308  -15.7124 C   0  0  2  0  0  0  0  0  0  0  0  0
   21.5763   -4.5328  -15.9713 N   0  0  0  0  0  0  0  0  0  0  0  0
   21.1406   -2.4005  -14.9871 C   0  0  0  0  0  0  0  0  0  0  0  0
   19.9463   -2.7595  -14.8341 O   0  0  0  0  0  0  0  0  0  0  0  0
   21.5279   -1.1833  -14.4545 O   0  0  0  0  0  0  0  0  0  0  0  0
  2  1  1  1
  2  5  1  0
  3  2  1  0
  4  3  1  0
  5  6  2  0
  7  5  1  0
  7  8  1  0
  8 12  1  0
  9 10  1  0
  8  9  1  1
 10 11  2  0
 12 19  1  0
 12 13  2  0
 14 10  1  0
 16 15  1  6
 16 18  1  0
 17 16  1  0
 18 20  1  0
 18 19  1  6
 20 21  2  0
 20 22  1  0
M  END
$$$$
