CDT.pdb
     RDKit          3D

 22 21  0  0  1  0  0  0  0  0999 V2000
   17.2523  -13.7831  -15.5963 N   0  0  0  0  0  0  0  0  0  0  0  0
   16.9266  -12.5196  -16.2171 C   0  0  1  0  0  0  0  0  0  0  0  0
   15.4675  -12.1972  -15.9012 C   0  0  0  0  0  0  0  0  0  0  0  0
   14.4111  -13.4391  -16.6772 S   0  0  0  0  0  0  0  0  0  0  0  0
   17.7177  -11.4491  -15.5219 C   0  0  0  0  0  0  0  0  0  0  0  0
   18.2412  -11.7281  -14.4243 O   0  0  0  0  0  0  0  0  0  0  0  0
   17.8714  -10.1663  -16.0819 N   0  0  0  0  0  0  0  0  0  0  0  0
   18.7645   -9.2052  -15.4433 C   0  0  1  0  0  0  0  0  0  0  0  0
   20.1513   -9.7445  -15.3116 C   0  0  0  0  0  0  0  0  0  0  0  0
   21.1100   -8.8240  -14.7304 C   0  0  0  0  0  0  0  0  0  0  0  0
   21.0107   -8.1808  -13.6715 O   0  0  0  0  0  0  0  0  0  0  0  0
   18.6903   -7.9084  -16.1651 C   0  0  0  0  0  0  0  0  0  0  0  0
   19.1454   -7.8369  -17.3266 O   0  0  0  0  0  0  0  0  0  0  0  0
   22.3246   -8.6032  -15.4263 O   0  0  0  0  0  0  0  0  0  0  0  0
   15.5774   -5.5425  -16.4314 C   0  0  0  0  0  0  0  0  0  0  0  0
   16.7945   -4.7409  -16.0261 C   0  0  1  0  0  0  0  0  0  0  0  0
   16.8490   -4.6318  -14.6222 O   0  0  0  0  0  0  0  0  0  0  0  0
   18.0214   -5.5492  -16.4134 C   0  0  2  0  0  0  0  0  0  0  0  0
   18.1340   -6.7428  -15.6139 N   0  0  0  0  0  0  0  0  0  0  0  0
   19.2584   -4.7390  -16.2660 C   0  0  0  0  0  0  0  0  0  0  0  0
   20.1909   -5.0660  -15.4902 O   0  0  0  0  0  0  0  0  0  0  0  0
   19.4030   -3.5777  -17.0048 O   0  0  0  0  0  0  0  0  0  0  0  0
  2  1  1  1
  2  5  1  0
  3  2  1  0
  4  3  1  0
  5  6  2  0
  7  5  1  0
  7  8  1  0
  8 12  1  0
  9 10  1  0
  8  9  1  6
 10 11  2  0
 12 19  1  0
 12 13  2  0
 14 10  1  0
 16 15  1  1
 16 18  1  0
 17 16  1  0
 18 20  1  0
 18 19  1  1
 20 21  2  0
 20 22  1  0
M  END
$$$$
