CDT.pdb
     RDKit          3D

 22 21  0  0  1  0  0  0  0  0999 V2000
   39.6965  -25.6019  -17.5674 N   0  0  0  0  0  0  0  0  0  0  0  0
   39.7833  -27.0144  -17.8589 C   0  0  1  0  0  0  0  0  0  0  0  0
   41.0348  -27.5641  -17.1776 C   0  0  0  0  0  0  0  0  0  0  0  0
   42.4645  -27.2486  -18.2345 S   0  0  0  0  0  0  0  0  0  0  0  0
   38.6371  -27.6969  -17.1692 C   0  0  0  0  0  0  0  0  0  0  0  0
   38.1115  -27.1185  -16.1967 O   0  0  0  0  0  0  0  0  0  0  0  0
   38.1611  -28.9507  -17.5981 N   0  0  0  0  0  0  0  0  0  0  0  0
   36.9691  -29.5183  -16.9765 C   0  0  1  0  0  0  0  0  0  0  0  0
   35.9145  -29.8283  -17.9880 C   0  0  0  0  0  0  0  0  0  0  0  0
   34.6927  -30.3881  -17.4419 C   0  0  0  0  0  0  0  0  0  0  0  0
   34.0181  -29.9696  -16.4856 O   0  0  0  0  0  0  0  0  0  0  0  0
   37.3573  -30.6818  -16.1376 C   0  0  0  0  0  0  0  0  0  0  0  0
   38.3349  -31.3779  -16.4856 O   0  0  0  0  0  0  0  0  0  0  0  0
   34.1704  -31.5586  -18.0463 O   0  0  0  0  0  0  0  0  0  0  0  0
   34.9807  -32.4066  -13.1125 C   0  0  0  0  0  0  0  0  0  0  0  0
   36.4546  -32.2200  -12.8283 C   0  0  1  0  0  0  0  0  0  0  0  0
   36.9676  -33.3680  -12.1919 O   0  0  0  0  0  0  0  0  0  0  0  0
   37.1708  -32.1498  -14.1666 C   0  0  2  0  0  0  0  0  0  0  0  0
   36.6829  -31.0524  -14.9630 N   0  0  0  0  0  0  0  0  0  0  0  0
   37.0070  -33.4185  -14.9228 C   0  0  0  0  0  0  0  0  0  0  0  0
   36.1172  -33.5735  -15.7962 O   0  0  0  0  0  0  0  0  0  0  0  0
   37.8592  -34.4783  -14.6663 O   0  0  0  0  0  0  0  0  0  0  0  0
  2  1  1  1
  2  5  1  0
  3  2  1  0
  4  3  1  0
  5  6  2  0
  7  5  1  0
  7  8  1  0
  8 12  1  0
  9 10  1  0
  8  9  1  6
 10 11  2  0
 12 19  1  0
 12 13  2  0
 14 10  1  0
 16 15  1  6
 16 18  1  0
 17 16  1  0
 18 20  1  0
 18 19  1  6
 20 21  2  0
 20 22  1  0
M  END
$$$$
