NIP.pdb
     RDKit          3D

 24 24  0  0  1  0  0  0  0  0999 V2000
    9.6354  -11.5466  -14.3946 N   0  0  0  0  0  0  0  0  0  0  0  0
   10.9435  -11.0276  -14.4648 C   0  0  0  0  0  0  0  0  0  0  0  0
   11.4726  -10.7651  -15.5670 O   0  0  0  0  0  0  0  0  0  0  0  0
   11.7111  -10.7863  -13.2266 C   0  0  0  0  0  0  0  0  0  0  0  0
   13.1032  -11.3202  -13.4561 C   0  0  2  0  0  0  0  0  0  0  0  0
   13.0742  -12.7874  -13.3595 N   0  0  0  0  0  0  0  0  0  0  0  0
   14.1270  -10.7591  -12.5808 C   0  0  0  0  0  0  0  0  0  0  0  0
   14.1958  -11.1292  -11.3582 O   0  0  0  0  0  0  0  0  0  0  0  0
   18.7005  -11.0595  -14.1433 C   0  0  0  0  0  0  0  0  0  0  0  0
   17.7367  -10.8729  -13.0135 C   0  0  0  0  0  0  0  0  0  0  0  0
   17.3498   -9.4977  -12.6790 C   0  0  2  0  0  0  0  0  0  0  0  0
   18.5016   -8.8072  -11.9777 C   0  0  0  0  0  0  0  0  0  0  0  0
   16.0212   -9.1742  -12.1174 C   0  0  2  0  0  0  0  0  0  0  0  0
   15.0842   -9.8044  -13.0012 N   0  0  0  0  0  0  0  0  0  0  0  0
   15.7637   -7.8181  -11.6705 C   0  0  0  0  0  0  0  0  0  0  0  0
   16.1206   -6.9560  -12.5596 O   0  0  0  0  0  0  0  0  0  0  0  0
   15.2171   -7.3193  -10.4877 N   0  0  0  0  0  0  0  0  0  0  0  0
   14.4119   -8.0447   -9.4691 C   0  0  0  0  0  0  0  0  0  0  0  0
   15.2350   -7.7446   -8.2305 C   0  0  0  0  0  0  0  0  0  0  0  0
   15.9728   -6.4570   -8.5507 C   0  0  0  0  0  0  0  0  0  0  0  0
   15.1998   -6.0440   -9.8356 C   0  0  1  0  0  0  0  0  0  0  0  0
   15.7448   -4.8768  -10.4425 C   0  0  0  0  0  0  0  0  0  0  0  0
   16.7923   -4.7803  -11.0693 O   0  0  0  0  0  0  0  0  0  0  0  0
   15.0068   -3.6715  -10.3206 O   0  0  0  0  0  0  0  0  0  0  0  0
  1  2  1  0
  2  3  2  0
  4  2  1  0
  4  5  1  0
  5  6  1  1
  7  8  2  0
  7  5  1  0
  9 10  1  0
 10 11  1  0
 11 12  1  1
 13 11  1  0
 13 14  1  6
 14  7  1  0
 15 13  1  0
 16 15  2  0
 17 18  1  0
 17 15  1  0
 19 18  1  0
 20 21  1  0
 20 19  1  0
 21 17  1  0
 22 24  1  0
 21 22  1  6
 23 22  2  0
M  END
$$$$
