NIP.pdb
     RDKit          3D

 24 24  0  0  1  0  0  0  0  0999 V2000
   18.4953  -13.4650  -18.7043 N   0  0  0  0  0  0  0  0  0  0  0  0
   17.7640  -12.2895  -18.9666 C   0  0  0  0  0  0  0  0  0  0  0  0
   17.3120  -12.0551  -20.1087 O   0  0  0  0  0  0  0  0  0  0  0  0
   17.5216  -11.3124  -17.8862 C   0  0  0  0  0  0  0  0  0  0  0  0
   18.2809  -11.7928  -16.6745 C   0  0  2  0  0  0  0  0  0  0  0  0
   17.3498  -12.4846  -15.7705 N   0  0  0  0  0  0  0  0  0  0  0  0
   19.0240  -10.7561  -15.9658 C   0  0  0  0  0  0  0  0  0  0  0  0
   18.4819  -10.1373  -14.9862 O   0  0  0  0  0  0  0  0  0  0  0  0
   23.8488  -11.7089  -14.3157 C   0  0  0  0  0  0  0  0  0  0  0  0
   22.4747  -11.1557  -14.5302 C   0  0  0  0  0  0  0  0  0  0  0  0
   22.3649   -9.8971  -15.2764 C   0  0  2  0  0  0  0  0  0  0  0  0
   23.3559   -8.8947  -14.7214 C   0  0  0  0  0  0  0  0  0  0  0  0
   21.0551   -9.3137  -15.6364 C   0  0  2  0  0  0  0  0  0  0  0  0
   20.3473  -10.3739  -16.2930 N   0  0  0  0  0  0  0  0  0  0  0  0
   21.0185   -7.9821  -16.2115 C   0  0  0  0  0  0  0  0  0  0  0  0
   21.9987   -7.7972  -17.0277 O   0  0  0  0  0  0  0  0  0  0  0  0
   20.1341   -6.9182  -16.0318 N   0  0  0  0  0  0  0  0  0  0  0  0
   18.7149   -6.9667  -15.5892 C   0  0  0  0  0  0  0  0  0  0  0  0
   18.7818   -6.0155  -14.4091 C   0  0  0  0  0  0  0  0  0  0  0  0
   19.9675   -5.1125  -14.6983 C   0  0  0  0  0  0  0  0  0  0  0  0
   20.2115   -5.4961  -16.1857 C   0  0  1  0  0  0  0  0  0  0  0  0
   21.3622   -4.8555  -16.7272 C   0  0  0  0  0  0  0  0  0  0  0  0
   22.5367   -5.0842  -16.4667 O   0  0  0  0  0  0  0  0  0  0  0  0
   21.1497   -3.8287  -17.6825 O   0  0  0  0  0  0  0  0  0  0  0  0
  1  2  1  0
  2  3  2  0
  4  2  1  0
  4  5  1  0
  5  6  1  1
  7  8  2  0
  7  5  1  0
  9 10  1  0
 10 11  1  0
 11 12  1  1
 13 11  1  0
 13 14  1  6
 14  7  1  0
 15 13  1  0
 16 15  2  0
 17 18  1  0
 17 15  1  0
 19 18  1  0
 20 21  1  0
 20 19  1  0
 21 17  1  0
 22 24  1  0
 21 22  1  1
 23 22  2  0
M  END
$$$$
