NIP.pdb
     RDKit          3D

 24 24  0  0  1  0  0  0  0  0999 V2000
   29.2018  -18.3027  -17.8470 N   0  0  0  0  0  0  0  0  0  0  0  0
   28.3279  -18.0583  -16.7690 C   0  0  0  0  0  0  0  0  0  0  0  0
   28.4852  -17.0643  -16.0268 O   0  0  0  0  0  0  0  0  0  0  0  0
   27.2071  -18.9817  -16.5011 C   0  0  0  0  0  0  0  0  0  0  0  0
   27.6796  -19.9619  -15.4563 C   0  0  2  0  0  0  0  0  0  0  0  0
   28.5763  -20.9404  -16.0899 N   0  0  0  0  0  0  0  0  0  0  0  0
   26.6142  -20.6314  -14.7175 C   0  0  0  0  0  0  0  0  0  0  0  0
   26.0927  -21.7045  -15.1790 O   0  0  0  0  0  0  0  0  0  0  0  0
   27.3955  -20.7002   -9.7910 C   0  0  0  0  0  0  0  0  0  0  0  0
   26.6476  -21.3931  -10.8868 C   0  0  0  0  0  0  0  0  0  0  0  0
   25.4114  -20.7614  -11.3617 C   0  0  2  0  0  0  0  0  0  0  0  0
   24.2838  -21.0758  -10.4000 C   0  0  0  0  0  0  0  0  0  0  0  0
   25.0151  -20.7919  -12.7857 C   0  0  2  0  0  0  0  0  0  0  0  0
   26.0998  -20.1653  -13.4835 N   0  0  0  0  0  0  0  0  0  0  0  0
   23.6534  -20.4373  -13.1389 C   0  0  0  0  0  0  0  0  0  0  0  0
   23.2548  -19.4002  -12.4857 O   0  0  0  0  0  0  0  0  0  0  0  0
   22.7470  -21.0114  -14.0308 N   0  0  0  0  0  0  0  0  0  0  0  0
   23.0335  -21.8999  -15.1887 C   0  0  0  0  0  0  0  0  0  0  0  0
   22.1453  -23.0776  -14.8339 C   0  0  0  0  0  0  0  0  0  0  0  0
   21.0588  -22.4978  -13.9462 C   0  0  0  0  0  0  0  0  0  0  0  0
   21.3237  -20.9847  -14.1902 C   0  0  1  0  0  0  0  0  0  0  0  0
   20.4885  -20.1540  -13.3901 C   0  0  0  0  0  0  0  0  0  0  0  0
   19.7336  -19.2673  -13.7689 O   0  0  0  0  0  0  0  0  0  0  0  0
   20.5161  -20.3578  -11.9866 O   0  0  0  0  0  0  0  0  0  0  0  0
  1  2  1  0
  2  3  2  0
  4  2  1  0
  4  5  1  0
  5  6  1  6
  7  8  2  0
  7  5  1  0
  9 10  1  0
 10 11  1  0
 11 12  1  1
 13 11  1  0
 13 14  1  6
 14  7  1  0
 15 13  1  0
 16 15  2  0
 17 18  1  0
 17 15  1  0
 19 18  1  0
 20 21  1  0
 20 19  1  0
 21 17  1  0
 22 24  1  0
 21 22  1  1
 23 22  2  0
M  END
$$$$
