NIP.pdb
     RDKit          3D

 24 24  0  0  1  0  0  0  0  0999 V2000
   20.2116  -22.3951  -16.4506 N   0  0  0  0  0  0  0  0  0  0  0  0
   19.9792  -21.0640  -16.0510 C   0  0  0  0  0  0  0  0  0  0  0  0
   18.8160  -20.6378  -15.8807 O   0  0  0  0  0  0  0  0  0  0  0  0
   21.1168  -20.1493  -15.8275 C   0  0  0  0  0  0  0  0  0  0  0  0
   21.3987  -20.1453  -14.3455 C   0  0  2  0  0  0  0  0  0  0  0  0
   20.4462  -19.2434  -13.6805 N   0  0  0  0  0  0  0  0  0  0  0  0
   22.7727  -19.8131  -13.9837 C   0  0  0  0  0  0  0  0  0  0  0  0
   23.2069  -18.6211  -14.1484 O   0  0  0  0  0  0  0  0  0  0  0  0
   24.6166  -20.8388   -9.2790 C   0  0  0  0  0  0  0  0  0  0  0  0
   24.3732  -20.3252  -10.6636 C   0  0  0  0  0  0  0  0  0  0  0  0
   25.2394  -20.8352  -11.7325 C   0  0  2  0  0  0  0  0  0  0  0  0
   26.6803  -20.8159  -11.2650 C   0  0  0  0  0  0  0  0  0  0  0  0
   25.0582  -20.4338  -13.1437 C   0  0  2  0  0  0  0  0  0  0  0  0
   23.6908  -20.7452  -13.4427 N   0  0  0  0  0  0  0  0  0  0  0  0
   26.0858  -20.7838  -14.1063 C   0  0  0  0  0  0  0  0  0  0  0  0
   26.4158  -22.0258  -14.0087 O   0  0  0  0  0  0  0  0  0  0  0  0
   26.7444  -20.0274  -15.0762 N   0  0  0  0  0  0  0  0  0  0  0  0
   26.4511  -18.6364  -15.5135 C   0  0  0  0  0  0  0  0  0  0  0  0
   27.8147  -18.0071  -15.2979 C   0  0  0  0  0  0  0  0  0  0  0  0
   28.7984  -19.1602  -15.3850 C   0  0  0  0  0  0  0  0  0  0  0  0
   27.8494  -20.2499  -15.9603 C   0  0  1  0  0  0  0  0  0  0  0  0
   28.4868  -21.5185  -16.0698 C   0  0  0  0  0  0  0  0  0  0  0  0
   28.6508  -22.1873  -17.0824 O   0  0  0  0  0  0  0  0  0  0  0  0
   29.0003  -22.0967  -14.8807 O   0  0  0  0  0  0  0  0  0  0  0  0
  1  2  1  0
  2  3  2  0
  4  2  1  0
  4  5  1  0
  5  6  1  1
  7  8  2  0
  7  5  1  0
  9 10  1  0
 10 11  1  0
 11 12  1  1
 13 11  1  0
 13 14  1  6
 14  7  1  0
 15 13  1  0
 16 15  2  0
 17 18  1  0
 17 15  1  0
 19 18  1  0
 20 21  1  0
 20 19  1  0
 21 17  1  0
 22 24  1  0
 21 22  1  1
 23 22  2  0
M  END
$$$$
