NIP.pdb
     RDKit          3D

 24 24  0  0  1  0  0  0  0  0999 V2000
   17.5803  -15.7225  -17.7572 N   0  0  0  0  0  0  0  0  0  0  0  0
   18.9098  -15.5804  -18.2019 C   0  0  0  0  0  0  0  0  0  0  0  0
   19.2538  -15.9770  -19.3368 O   0  0  0  0  0  0  0  0  0  0  0  0
   19.9207  -14.9566  -17.3246 C   0  0  0  0  0  0  0  0  0  0  0  0
   20.1789  -13.5703  -17.8605 C   0  0  2  0  0  0  0  0  0  0  0  0
   20.8453  -13.6797  -19.1670 N   0  0  0  0  0  0  0  0  0  0  0  0
   20.9274  -12.6958  -16.9638 C   0  0  0  0  0  0  0  0  0  0  0  0
   20.6683  -12.6918  -15.7111 O   0  0  0  0  0  0  0  0  0  0  0  0
   25.8480  -11.3676  -14.9791 C   0  0  0  0  0  0  0  0  0  0  0  0
   25.1545  -10.5371  -16.0132 C   0  0  0  0  0  0  0  0  0  0  0  0
   24.0914  -11.1821  -16.7923 C   0  0  2  0  0  0  0  0  0  0  0  0
   24.4546  -11.1496  -18.2627 C   0  0  0  0  0  0  0  0  0  0  0  0
   22.6604  -10.9312  -16.5193 C   0  0  2  0  0  0  0  0  0  0  0  0
   21.9565  -11.8236  -17.3936 N   0  0  0  0  0  0  0  0  0  0  0  0
   22.2030   -9.5597  -16.3977 C   0  0  0  0  0  0  0  0  0  0  0  0
   22.5727   -8.8511  -17.4088 O   0  0  0  0  0  0  0  0  0  0  0  0
   21.4616   -8.9136  -15.4081 N   0  0  0  0  0  0  0  0  0  0  0  0
   20.5504   -9.5177  -14.3996 C   0  0  0  0  0  0  0  0  0  0  0  0
   21.1632   -8.9549  -13.1309 C   0  0  0  0  0  0  0  0  0  0  0  0
   21.8752   -7.6869  -13.5668 C   0  0  0  0  0  0  0  0  0  0  0  0
   21.2831   -7.5524  -14.9987 C   0  0  1  0  0  0  0  0  0  0  0  0
   21.8536   -6.4649  -15.7195 C   0  0  0  0  0  0  0  0  0  0  0  0
   22.9462   -6.4254  -16.2712 O   0  0  0  0  0  0  0  0  0  0  0  0
   21.0863   -5.2766  -15.8250 O   0  0  0  0  0  0  0  0  0  0  0  0
  1  2  1  0
  2  3  2  0
  4  2  1  0
  4  5  1  0
  5  6  1  6
  7  8  2  0
  7  5  1  0
  9 10  1  0
 10 11  1  0
 11 12  1  6
 13 11  1  0
 13 14  1  6
 14  7  1  0
 15 13  1  0
 16 15  2  0
 17 18  1  0
 17 15  1  0
 19 18  1  0
 20 21  1  0
 20 19  1  0
 21 17  1  0
 22 24  1  0
 21 22  1  6
 23 22  2  0
M  END
$$$$
