NIP.pdb
     RDKit          3D

 24 24  0  0  1  0  0  0  0  0999 V2000
   25.4279  -22.8063  -15.0554 N   0  0  0  0  0  0  0  0  0  0  0  0
   24.4789  -22.9692  -16.0842 C   0  0  0  0  0  0  0  0  0  0  0  0
   23.2988  -22.5826  -15.9373 O   0  0  0  0  0  0  0  0  0  0  0  0
   24.8708  -23.6047  -17.3583 C   0  0  0  0  0  0  0  0  0  0  0  0
   26.3116  -24.0292  -17.2181 C   0  0  2  0  0  0  0  0  0  0  0  0
   27.1667  -23.0537  -17.9110 N   0  0  0  0  0  0  0  0  0  0  0  0
   26.5972  -25.3873  -17.6686 C   0  0  0  0  0  0  0  0  0  0  0  0
   26.4034  -25.7094  -18.8913 O   0  0  0  0  0  0  0  0  0  0  0  0
   30.7459  -26.4726  -16.5568 C   0  0  0  0  0  0  0  0  0  0  0  0
   29.8078  -27.1075  -17.5350 C   0  0  0  0  0  0  0  0  0  0  0  0
   28.7670  -27.9893  -16.9943 C   0  0  2  0  0  0  0  0  0  0  0  0
   29.1965  -29.4331  -17.1561 C   0  0  0  0  0  0  0  0  0  0  0  0
   27.3309  -27.7549  -17.2553 C   0  0  2  0  0  0  0  0  0  0  0  0
   27.0927  -26.4087  -16.8226 N   0  0  0  0  0  0  0  0  0  0  0  0
   26.3783  -28.7883  -16.8951 C   0  0  0  0  0  0  0  0  0  0  0  0
   26.4083  -29.0328  -15.6301 O   0  0  0  0  0  0  0  0  0  0  0  0
   25.4764  -29.5264  -17.6621 N   0  0  0  0  0  0  0  0  0  0  0  0
   24.6576  -29.0660  -18.8153 C   0  0  0  0  0  0  0  0  0  0  0  0
   25.0843  -30.0847  -19.8554 C   0  0  0  0  0  0  0  0  0  0  0  0
   25.5482  -31.2905  -19.0582 C   0  0  0  0  0  0  0  0  0  0  0  0
   25.0100  -30.8808  -17.6576 C   0  0  1  0  0  0  0  0  0  0  0  0
   25.3851  -31.8065  -16.6426 C   0  0  0  0  0  0  0  0  0  0  0  0
   26.5174  -32.1404  -16.3173 O   0  0  0  0  0  0  0  0  0  0  0  0
   24.3432  -32.4283  -15.9079 O   0  0  0  0  0  0  0  0  0  0  0  0
  1  2  1  0
  2  3  2  0
  4  2  1  0
  4  5  1  0
  5  6  1  6
  7  8  2  0
  7  5  1  0
  9 10  1  0
 10 11  1  0
 11 12  1  6
 13 11  1  0
 13 14  1  1
 14  7  1  0
 15 13  1  0
 16 15  2  0
 17 18  1  0
 17 15  1  0
 19 18  1  0
 20 21  1  0
 20 19  1  0
 21 17  1  0
 22 24  1  0
 21 22  1  1
 23 22  2  0
M  END
$$$$
