NIP.pdb
     RDKit          3D

 24 24  0  0  1  0  0  0  0  0999 V2000
   22.1921  -13.7847  -21.7165 N   0  0  0  0  0  0  0  0  0  0  0  0
   21.4332  -12.5988  -21.6629 C   0  0  0  0  0  0  0  0  0  0  0  0
   20.9440  -12.1013  -22.7007 O   0  0  0  0  0  0  0  0  0  0  0  0
   21.2057  -11.9238  -20.3694 C   0  0  0  0  0  0  0  0  0  0  0  0
   21.9332  -12.7235  -19.3173 C   0  0  2  0  0  0  0  0  0  0  0  0
   21.2296  -13.9991  -19.1154 N   0  0  0  0  0  0  0  0  0  0  0  0
   22.1323  -12.0303  -18.0489 C   0  0  0  0  0  0  0  0  0  0  0  0
   21.2664  -12.1456  -17.1144 O   0  0  0  0  0  0  0  0  0  0  0  0
   26.9944   -9.6791  -16.2950 C   0  0  0  0  0  0  0  0  0  0  0  0
   25.9817  -10.6218  -16.8660 C   0  0  0  0  0  0  0  0  0  0  0  0
   24.7801  -10.8842  -16.0658 C   0  0  2  0  0  0  0  0  0  0  0  0
   24.8596  -12.2796  -15.4811 C   0  0  0  0  0  0  0  0  0  0  0  0
   23.4307  -10.5028  -16.5338 C   0  0  2  0  0  0  0  0  0  0  0  0
   23.2537  -11.2135  -17.7666 N   0  0  0  0  0  0  0  0  0  0  0  0
   23.0356   -9.1086  -16.4629 C   0  0  0  0  0  0  0  0  0  0  0  0
   23.8273   -8.3615  -17.1530 O   0  0  0  0  0  0  0  0  0  0  0  0
   21.9850   -8.4749  -15.7985 N   0  0  0  0  0  0  0  0  0  0  0  0
   20.6755   -9.0496  -15.3898 C   0  0  0  0  0  0  0  0  0  0  0  0
   20.7019   -8.7199  -13.9092 C   0  0  0  0  0  0  0  0  0  0  0  0
   21.6317   -7.5258  -13.7884 C   0  0  0  0  0  0  0  0  0  0  0  0
   21.7517   -7.1546  -15.2940 C   0  0  1  0  0  0  0  0  0  0  0  0
   22.6678   -6.0873  -15.5161 C   0  0  0  0  0  0  0  0  0  0  0  0
   23.8891   -6.1514  -15.5773 O   0  0  0  0  0  0  0  0  0  0  0  0
   22.1270   -4.7875  -15.6899 O   0  0  0  0  0  0  0  0  0  0  0  0
  1  2  1  0
  2  3  2  0
  4  2  1  0
  4  5  1  0
  5  6  1  1
  7  8  2  0
  7  5  1  0
  9 10  1  0
 10 11  1  0
 11 12  1  6
 13 11  1  0
 13 14  1  6
 14  7  1  0
 15 13  1  0
 16 15  2  0
 17 18  1  0
 17 15  1  0
 19 18  1  0
 20 21  1  0
 20 19  1  0
 21 17  1  0
 22 24  1  0
 21 22  1  1
 23 22  2  0
M  END
$$$$
