NIP.pdb
     RDKit          3D

 24 24  0  0  1  0  0  0  0  0999 V2000
   22.1886  -22.8815  -19.3256 N   0  0  0  0  0  0  0  0  0  0  0  0
   23.2065  -23.8128  -19.0394 C   0  0  0  0  0  0  0  0  0  0  0  0
   23.4692  -24.7423  -19.8336 O   0  0  0  0  0  0  0  0  0  0  0  0
   23.9809  -23.7008  -17.7870 C   0  0  0  0  0  0  0  0  0  0  0  0
   25.0510  -22.6629  -18.0179 C   0  0  2  0  0  0  0  0  0  0  0  0
   26.1636  -23.2798  -18.7556 N   0  0  0  0  0  0  0  0  0  0  0  0
   25.5298  -21.9969  -16.8111 C   0  0  0  0  0  0  0  0  0  0  0  0
   26.5263  -22.4768  -16.1685 O   0  0  0  0  0  0  0  0  0  0  0  0
   27.4657  -17.3693  -14.4972 C   0  0  0  0  0  0  0  0  0  0  0  0
   26.0578  -17.8516  -14.3383 C   0  0  0  0  0  0  0  0  0  0  0  0
   25.5520  -18.7945  -15.3423 C   0  0  2  0  0  0  0  0  0  0  0  0
   24.4068  -18.1556  -16.1009 C   0  0  0  0  0  0  0  0  0  0  0  0
   25.3482  -20.2265  -15.0370 C   0  0  2  0  0  0  0  0  0  0  0  0
   24.9536  -20.8164  -16.2831 N   0  0  0  0  0  0  0  0  0  0  0  0
   24.6295  -20.5873  -13.8294 C   0  0  0  0  0  0  0  0  0  0  0  0
   23.3730  -20.3200  -13.9344 O   0  0  0  0  0  0  0  0  0  0  0  0
   25.0593  -21.1509  -12.6277 N   0  0  0  0  0  0  0  0  0  0  0  0
   26.3074  -21.9161  -12.3652 C   0  0  0  0  0  0  0  0  0  0  0  0
   26.8700  -21.1019  -11.2153 C   0  0  0  0  0  0  0  0  0  0  0  0
   25.6653  -20.4272  -10.5843 C   0  0  0  0  0  0  0  0  0  0  0  0
   24.5359  -21.2252  -11.2963 C   0  0  1  0  0  0  0  0  0  0  0  0
   23.2392  -20.7388  -10.9652 C   0  0  0  0  0  0  0  0  0  0  0  0
   22.3589  -21.3210  -10.3440 O   0  0  0  0  0  0  0  0  0  0  0  0
   22.9034  -19.4290  -11.3938 O   0  0  0  0  0  0  0  0  0  0  0  0
  1  2  1  0
  2  3  2  0
  4  2  1  0
  4  5  1  0
  5  6  1  1
  7  8  2  0
  7  5  1  0
  9 10  1  0
 10 11  1  0
 11 12  1  1
 13 11  1  0
 13 14  1  6
 14  7  1  0
 15 13  1  0
 16 15  2  0
 17 18  1  0
 17 15  1  0
 19 18  1  0
 20 21  1  0
 20 19  1  0
 21 17  1  0
 22 24  1  0
 21 22  1  6
 23 22  2  0
M  END
$$$$
