NIP.pdb
     RDKit          3D

 24 24  0  0  1  0  0  0  0  0999 V2000
   21.3447  -11.8102  -20.8768 N   0  0  0  0  0  0  0  0  0  0  0  0
   20.9255  -10.4855  -21.1110 C   0  0  0  0  0  0  0  0  0  0  0  0
   21.0989   -9.9438  -22.2246 O   0  0  0  0  0  0  0  0  0  0  0  0
   20.2715   -9.7152  -20.0341 C   0  0  0  0  0  0  0  0  0  0  0  0
   20.1960  -10.6163  -18.8266 C   0  0  2  0  0  0  0  0  0  0  0  0
   19.0474  -11.5223  -18.9777 N   0  0  0  0  0  0  0  0  0  0  0  0
   20.1478   -9.9209  -17.5447 C   0  0  0  0  0  0  0  0  0  0  0  0
   19.0237   -9.7190  -16.9687 O   0  0  0  0  0  0  0  0  0  0  0  0
   20.9561   -9.6995  -12.3167 C   0  0  0  0  0  0  0  0  0  0  0  0
   22.0576   -9.2728  -13.2359 C   0  0  0  0  0  0  0  0  0  0  0  0
   21.9247   -9.6245  -14.6543 C   0  0  2  0  0  0  0  0  0  0  0  0
   23.2357  -10.1935  -15.1567 C   0  0  0  0  0  0  0  0  0  0  0  0
   21.2443   -8.7352  -15.6196 C   0  0  2  0  0  0  0  0  0  0  0  0
   21.2942   -9.4393  -16.8677 N   0  0  0  0  0  0  0  0  0  0  0  0
   21.5520   -7.3175  -15.5992 C   0  0  0  0  0  0  0  0  0  0  0  0
   22.8245   -7.1138  -15.6170 O   0  0  0  0  0  0  0  0  0  0  0  0
   20.7302   -6.1905  -15.5649 N   0  0  0  0  0  0  0  0  0  0  0  0
   19.3643   -6.0306  -16.1315 C   0  0  0  0  0  0  0  0  0  0  0  0
   18.6230   -5.5754  -14.8885 C   0  0  0  0  0  0  0  0  0  0  0  0
   19.6862   -4.9512  -14.0026 C   0  0  0  0  0  0  0  0  0  0  0  0
   20.8463   -4.8647  -15.0349 C   0  0  1  0  0  0  0  0  0  0  0  0
   22.0541   -4.3865  -14.4516 C   0  0  0  0  0  0  0  0  0  0  0  0
   22.7535   -3.4580  -14.8369 O   0  0  0  0  0  0  0  0  0  0  0  0
   22.5234   -5.0463  -13.2870 O   0  0  0  0  0  0  0  0  0  0  0  0
  1  2  1  0
  2  3  2  0
  4  2  1  0
  4  5  1  0
  5  6  1  6
  7  8  2  0
  7  5  1  0
  9 10  1  0
 10 11  1  0
 11 12  1  6
 13 11  1  0
 13 14  1  6
 14  7  1  0
 15 13  1  0
 16 15  2  0
 17 18  1  0
 17 15  1  0
 19 18  1  0
 20 21  1  0
 20 19  1  0
 21 17  1  0
 22 24  1  0
 21 22  1  1
 23 22  2  0
M  END
$$$$
