TFW.pdb
     RDKit          3D

 33 35  0  0  1  0  0  0  0  0999 V2000
    9.5086  -19.5099   19.5074 C   0  0  0  0  0  0  0  0  0  0  0  0
   10.3085  -18.5793   18.6231 C   0  0  1  0  0  0  0  0  0  0  0  0
   10.3008  -19.0818   17.3069 O   0  0  0  0  0  0  0  0  0  0  0  0
    9.6470  -17.2287   18.6616 C   0  0  2  0  0  0  0  0  0  0  0  0
   10.2251  -16.4028   17.6222 N   0  0  0  0  0  0  0  0  0  0  0  0
    9.7525  -16.5744   19.9722 C   0  0  0  0  0  0  0  0  0  0  0  0
   10.8391  -16.0957   20.4024 O   0  0  0  0  0  0  0  0  0  0  0  0
    8.5900  -16.4792   20.7802 N   0  0  0  0  0  0  0  0  0  0  0  0
    8.6120  -15.8364   22.0744 C   0  0  1  0  0  0  0  0  0  0  0  0
    7.1769  -15.4224   22.3638 C   0  0  0  0  0  0  0  0  0  0  0  0
    7.0542  -14.8007   23.6920 C   0  0  0  0  0  0  0  0  0  0  0  0
    6.6253  -15.5576   24.7763 C   0  0  0  0  0  0  0  0  0  0  0  0
    6.4929  -15.0297   26.0400 C   0  0  0  0  0  0  0  0  0  0  0  0
    6.7887  -13.7022   26.2745 C   0  0  0  0  0  0  0  0  0  0  0  0
    7.2139  -12.9399   25.2136 C   0  0  0  0  0  0  0  0  0  0  0  0
    7.3433  -13.4831   23.9448 C   0  0  0  0  0  0  0  0  0  0  0  0
    9.1465  -16.7903   23.0662 C   0  0  0  0  0  0  0  0  0  0  0  0
    8.8422  -18.0031   22.9763 O   0  0  0  0  0  0  0  0  0  0  0  0
   10.0135  -16.3990   24.1458 N   0  0  0  0  0  0  0  0  0  0  0  0
   10.8180  -17.3972   24.8103 C   0  0  1  0  0  0  0  0  0  0  0  0
   11.8136  -16.7440   25.7649 C   0  0  0  0  0  0  0  0  0  0  0  0
   11.1465  -16.4062   27.0318 C   0  0  0  0  0  0  0  0  0  0  0  0
   10.8870  -17.2199   28.1285 C   0  0  0  0  0  0  0  0  0  0  0  0
   10.2620  -16.4798   29.0330 N   0  0  0  0  0  0  0  0  0  0  0  0
   10.0943  -15.2352   28.6028 C   0  0  0  0  0  0  0  0  0  0  0  0
    9.5114  -14.0989   29.1591 C   0  0  0  0  0  0  0  0  0  0  0  0
    9.4956  -12.9331   28.4440 C   0  0  0  0  0  0  0  0  0  0  0  0
   10.0366  -12.8384   27.1881 C   0  0  0  0  0  0  0  0  0  0  0  0
   10.6174  -13.9542   26.6231 C   0  0  0  0  0  0  0  0  0  0  0  0
   10.6408  -15.1484   27.3398 C   0  0  0  0  0  0  0  0  0  0  0  0
    9.9290  -18.2417   25.6369 C   0  0  0  0  0  0  0  0  0  0  0  0
   10.4060  -19.3382   26.3379 O   0  0  0  0  0  0  0  0  0  0  0  0
    8.6846  -17.9971   25.7395 O   0  0  0  0  0  0  0  0  0  0  0  0
  2  1  1  1
  2  3  1  0
  4  2  1  0
  4  5  1  6
  6  4  1  0
  6  7  2  0
  8  6  1  0
  9  8  1  0
  9 10  1  1
 10 11  1  0
 11 12  2  0
 12 13  1  0
 14 13  2  0
 15 14  1  0
 16 11  1  0
 16 15  2  0
 17  9  1  0
 18 17  2  0
 19 17  1  0
 20 21  1  1
 20 19  1  0
 21 22  1  0
 22 30  1  0
 23 22  2  0
 23 24  1  0
 24 25  1  0
 25 26  1  0
 26 27  2  0
 28 27  1  0
 29 28  2  0
 30 25  2  0
 30 29  1  0
 31 32  1  0
 31 20  1  0
 33 31  2  0
M  END
$$$$
