TFW.pdb
     RDKit          3D

 33 35  0  0  1  0  0  0  0  0999 V2000
    8.4851  -20.3137   18.9397 C   0  0  0  0  0  0  0  0  0  0  0  0
    8.8562  -19.2806   19.9804 C   0  0  1  0  0  0  0  0  0  0  0  0
   10.2323  -19.3904   20.2619 O   0  0  0  0  0  0  0  0  0  0  0  0
    8.5556  -17.9229   19.4065 C   0  0  2  0  0  0  0  0  0  0  0  0
    9.2915  -17.7728   18.1685 N   0  0  0  0  0  0  0  0  0  0  0  0
    8.8600  -16.8265   20.3350 C   0  0  0  0  0  0  0  0  0  0  0  0
    9.9029  -16.1221   20.2293 O   0  0  0  0  0  0  0  0  0  0  0  0
    7.9474  -16.5526   21.3864 N   0  0  0  0  0  0  0  0  0  0  0  0
    8.1878  -15.5027   22.3501 C   0  0  1  0  0  0  0  0  0  0  0  0
    6.9961  -15.5176   23.2956 C   0  0  0  0  0  0  0  0  0  0  0  0
    7.1168  -14.4768   24.3290 C   0  0  0  0  0  0  0  0  0  0  0  0
    6.7644  -14.7593   25.6438 C   0  0  0  0  0  0  0  0  0  0  0  0
    6.8574  -13.8261   26.6506 C   0  0  0  0  0  0  0  0  0  0  0  0
    7.3138  -12.5523   26.3794 C   0  0  0  0  0  0  0  0  0  0  0  0
    7.6662  -12.2564   25.0849 C   0  0  0  0  0  0  0  0  0  0  0  0
    7.5681  -13.2051   24.0788 C   0  0  0  0  0  0  0  0  0  0  0  0
    9.4678  -15.7735   23.0337 C   0  0  0  0  0  0  0  0  0  0  0  0
   10.4006  -14.9411   22.9410 O   0  0  0  0  0  0  0  0  0  0  0  0
    9.7069  -16.9579   23.8152 N   0  0  0  0  0  0  0  0  0  0  0  0
   11.0279  -17.2089   24.3413 C   0  0  1  0  0  0  0  0  0  0  0  0
   11.4339  -16.1197   25.3303 C   0  0  0  0  0  0  0  0  0  0  0  0
   10.8496  -16.3982   26.6513 C   0  0  0  0  0  0  0  0  0  0  0  0
   10.6418  -17.6225   27.2760 C   0  0  0  0  0  0  0  0  0  0  0  0
   10.0848  -17.3781   28.4535 N   0  0  0  0  0  0  0  0  0  0  0  0
    9.9135  -16.0753   28.6429 C   0  0  0  0  0  0  0  0  0  0  0  0
    9.3847  -15.3197   29.6867 C   0  0  0  0  0  0  0  0  0  0  0  0
    9.3467  -13.9569   29.5776 C   0  0  0  0  0  0  0  0  0  0  0  0
    9.8134  -13.2988   28.4694 C   0  0  0  0  0  0  0  0  0  0  0  0
   10.3399  -14.0323   27.4271 C   0  0  0  0  0  0  0  0  0  0  0  0
   10.3851  -15.4211   27.5244 C   0  0  0  0  0  0  0  0  0  0  0  0
   10.9977  -18.4792   25.0978 C   0  0  0  0  0  0  0  0  0  0  0  0
    9.8211  -19.1842   25.2966 O   0  0  0  0  0  0  0  0  0  0  0  0
   12.0540  -18.9800   25.6003 O   0  0  0  0  0  0  0  0  0  0  0  0
  2  1  1  6
  2  3  1  0
  4  2  1  0
  4  5  1  6
  6  4  1  0
  6  7  2  0
  8  6  1  0
  9  8  1  0
  9 10  1  1
 10 11  1  0
 11 12  2  0
 12 13  1  0
 14 13  2  0
 15 14  1  0
 16 11  1  0
 16 15  2  0
 17  9  1  0
 18 17  2  0
 19 17  1  0
 20 21  1  1
 20 19  1  0
 21 22  1  0
 22 30  1  0
 23 22  2  0
 23 24  1  0
 24 25  1  0
 25 26  1  0
 26 27  2  0
 28 27  1  0
 29 28  2  0
 30 25  2  0
 30 29  1  0
 31 32  1  0
 31 20  1  0
 33 31  2  0
M  END
$$$$
