TFW.pdb
     RDKit          3D

 33 35  0  0  1  0  0  0  0  0999 V2000
    7.5208  -20.4952   20.6921 C   0  0  0  0  0  0  0  0  0  0  0  0
    8.3773  -19.4478   21.3684 C   0  0  1  0  0  0  0  0  0  0  0  0
    9.6276  -20.0152   21.6842 O   0  0  0  0  0  0  0  0  0  0  0  0
    8.5588  -18.3096   20.4017 C   0  0  2  0  0  0  0  0  0  0  0  0
    9.1683  -18.8242   19.1933 N   0  0  0  0  0  0  0  0  0  0  0  0
    9.3481  -17.2033   20.9584 C   0  0  0  0  0  0  0  0  0  0  0  0
   10.5263  -16.9556   20.5770 O   0  0  0  0  0  0  0  0  0  0  0  0
    8.7623  -16.3866   21.9600 N   0  0  0  0  0  0  0  0  0  0  0  0
    9.4564  -15.2479   22.5171 C   0  0  1  0  0  0  0  0  0  0  0  0
    8.4693  -14.0910   22.4754 C   0  0  0  0  0  0  0  0  0  0  0  0
    8.0422  -13.7982   21.0979 C   0  0  0  0  0  0  0  0  0  0  0  0
    6.7648  -14.1501   20.6772 C   0  0  0  0  0  0  0  0  0  0  0  0
    6.3116  -13.9004   19.4022 C   0  0  0  0  0  0  0  0  0  0  0  0
    7.1304  -13.2787   18.4815 C   0  0  0  0  0  0  0  0  0  0  0  0
    8.3962  -12.9244   18.8810 C   0  0  0  0  0  0  0  0  0  0  0  0
    8.8416  -13.1813   20.1684 C   0  0  0  0  0  0  0  0  0  0  0  0
    9.8910  -15.5840   23.8872 C   0  0  0  0  0  0  0  0  0  0  0  0
   10.7169  -14.8410   24.4681 O   0  0  0  0  0  0  0  0  0  0  0  0
    9.4093  -16.7342   24.6051 N   0  0  0  0  0  0  0  0  0  0  0  0
    9.8266  -16.9469   25.9710 C   0  0  1  0  0  0  0  0  0  0  0  0
    8.6178  -17.0695   26.8946 C   0  0  0  0  0  0  0  0  0  0  0  0
    7.6545  -15.9958   26.6057 C   0  0  0  0  0  0  0  0  0  0  0  0
    6.4724  -16.0533   25.8766 C   0  0  0  0  0  0  0  0  0  0  0  0
    5.9429  -14.8384   25.8821 N   0  0  0  0  0  0  0  0  0  0  0  0
    6.6987  -13.9880   26.5662 C   0  0  0  0  0  0  0  0  0  0  0  0
    6.5880  -12.6314   26.8624 C   0  0  0  0  0  0  0  0  0  0  0  0
    7.5593  -12.0257   27.6111 C   0  0  0  0  0  0  0  0  0  0  0  0
    8.6487  -12.7086   28.0860 C   0  0  0  0  0  0  0  0  0  0  0  0
    8.7732  -14.0521   27.8015 C   0  0  0  0  0  0  0  0  0  0  0  0
    7.7917  -14.6824   27.0401 C   0  0  0  0  0  0  0  0  0  0  0  0
   10.5497  -18.2347   26.0454 C   0  0  0  0  0  0  0  0  0  0  0  0
   11.1370  -18.6769   27.2204 O   0  0  0  0  0  0  0  0  0  0  0  0
   10.6640  -18.9935   25.0305 O   0  0  0  0  0  0  0  0  0  0  0  0
  2  1  1  6
  2  3  1  0
  4  2  1  0
  4  5  1  6
  6  4  1  0
  6  7  2  0
  8  6  1  0
  9  8  1  0
  9 10  1  1
 10 11  1  0
 11 12  2  0
 12 13  1  0
 14 13  2  0
 15 14  1  0
 16 11  1  0
 16 15  2  0
 17  9  1  0
 18 17  2  0
 19 17  1  0
 20 21  1  1
 20 19  1  0
 21 22  1  0
 22 30  1  0
 23 22  2  0
 23 24  1  0
 24 25  1  0
 25 26  1  0
 26 27  2  0
 28 27  1  0
 29 28  2  0
 30 25  2  0
 30 29  1  0
 31 32  1  0
 31 20  1  0
 33 31  2  0
M  END
$$$$
