TFW.pdb
     RDKit          3D

 33 35  0  0  1  0  0  0  0  0999 V2000
    9.2848  -19.9478   22.4077 C   0  0  0  0  0  0  0  0  0  0  0  0
    9.9724  -19.8113   21.0673 C   0  0  1  0  0  0  0  0  0  0  0  0
    9.7087  -20.9631   20.2999 O   0  0  0  0  0  0  0  0  0  0  0  0
    9.4063  -18.5970   20.3830 C   0  0  2  0  0  0  0  0  0  0  0  0
    9.8165  -18.6175   18.9945 N   0  0  0  0  0  0  0  0  0  0  0  0
    9.7998  -17.3380   21.0286 C   0  0  0  0  0  0  0  0  0  0  0  0
   10.9193  -16.7925   20.8186 O   0  0  0  0  0  0  0  0  0  0  0  0
    8.8868  -16.7161   21.9192 N   0  0  0  0  0  0  0  0  0  0  0  0
    9.1448  -15.4126   22.4877 C   0  0  1  0  0  0  0  0  0  0  0  0
    7.8291  -14.6526   22.4135 C   0  0  0  0  0  0  0  0  0  0  0  0
    7.5822  -14.1363   21.0578 C   0  0  0  0  0  0  0  0  0  0  0  0
    6.5770  -14.6927   20.2750 C   0  0  0  0  0  0  0  0  0  0  0  0
    6.3013  -14.2499   19.0018 C   0  0  0  0  0  0  0  0  0  0  0  0
    7.0312  -13.2164   18.4507 C   0  0  0  0  0  0  0  0  0  0  0  0
    8.0286  -12.6553   19.2109 C   0  0  0  0  0  0  0  0  0  0  0  0
    8.2970  -13.1101   20.4927 C   0  0  0  0  0  0  0  0  0  0  0  0
    9.6302  -15.5886   23.8707 C   0  0  0  0  0  0  0  0  0  0  0  0
   10.1773  -14.6244   24.4559 O   0  0  0  0  0  0  0  0  0  0  0  0
    9.5056  -16.8248   24.5966 N   0  0  0  0  0  0  0  0  0  0  0  0
    9.9632  -16.8964   25.9643 C   0  0  1  0  0  0  0  0  0  0  0  0
    8.7847  -17.0377   26.9237 C   0  0  0  0  0  0  0  0  0  0  0  0
    7.7089  -16.1117   26.5371 C   0  0  0  0  0  0  0  0  0  0  0  0
    6.4916  -16.3904   25.9268 C   0  0  0  0  0  0  0  0  0  0  0  0
    5.8531  -15.2396   25.7704 N   0  0  0  0  0  0  0  0  0  0  0  0
    6.5704  -14.2248   26.2374 C   0  0  0  0  0  0  0  0  0  0  0  0
    6.3542  -12.8506   26.3085 C   0  0  0  0  0  0  0  0  0  0  0  0
    7.3125  -12.0474   26.8626 C   0  0  0  0  0  0  0  0  0  0  0  0
    8.4898  -12.5472   27.3558 C   0  0  0  0  0  0  0  0  0  0  0  0
    8.7193  -13.9055   27.2928 C   0  0  0  0  0  0  0  0  0  0  0  0
    7.7521  -14.7358   26.7312 C   0  0  0  0  0  0  0  0  0  0  0  0
   10.7859  -18.1152   26.1203 C   0  0  0  0  0  0  0  0  0  0  0  0
   11.4798  -18.3843   27.2896 O   0  0  0  0  0  0  0  0  0  0  0  0
   10.8924  -18.9708   25.1847 O   0  0  0  0  0  0  0  0  0  0  0  0
  2  1  1  1
  2  3  1  0
  4  2  1  0
  4  5  1  6
  6  4  1  0
  6  7  2  0
  8  6  1  0
  9  8  1  0
  9 10  1  1
 10 11  1  0
 11 12  2  0
 12 13  1  0
 14 13  2  0
 15 14  1  0
 16 11  1  0
 16 15  2  0
 17  9  1  0
 18 17  2  0
 19 17  1  0
 20 21  1  1
 20 19  1  0
 21 22  1  0
 22 30  1  0
 23 22  2  0
 23 24  1  0
 24 25  1  0
 25 26  1  0
 26 27  2  0
 28 27  1  0
 29 28  2  0
 30 25  2  0
 30 29  1  0
 31 32  1  0
 31 20  1  0
 33 31  2  0
M  END
$$$$
