EFQ.pdb
     RDKit          3D

 30 30  0  0  1  0  0  0  0  0999 V2000
   25.5539  -11.9421  -20.5791 N   0  0  0  0  0  0  0  0  0  0  0  0
   25.9458  -10.7142  -19.9412 C   0  0  1  0  0  0  0  0  0  0  0  0
   25.5940   -9.5567  -20.8513 C   0  0  0  0  0  0  0  0  0  0  0  0
   26.5049   -9.4663  -22.0374 C   0  0  0  0  0  0  0  0  0  0  0  0
   27.8616   -9.0921  -21.5649 C   0  0  0  0  0  0  0  0  0  0  0  0
   28.8285   -9.8901  -21.6402 O   0  0  0  0  0  0  0  0  0  0  0  0
   25.1868  -10.5199  -18.6769 C   0  0  0  0  0  0  0  0  0  0  0  0
   24.0510  -11.0645  -18.5706 O   0  0  0  0  0  0  0  0  0  0  0  0
   28.1094   -7.8403  -21.0207 O   0  0  0  0  0  0  0  0  0  0  0  0
   25.6835   -9.7538  -17.5951 N   0  0  0  0  0  0  0  0  0  0  0  0
   25.0217   -9.7393  -16.3312 C   0  0  1  0  0  0  0  0  0  0  0  0
   25.8919  -10.1345  -15.1868 C   0  0  0  0  0  0  0  0  0  0  0  0
   26.4163  -11.4857  -15.1741 C   0  0  0  0  0  0  0  0  0  0  0  0
   27.6984  -11.7032  -15.6280 C   0  0  0  0  0  0  0  0  0  0  0  0
   28.2543  -12.9817  -15.6395 C   0  0  0  0  0  0  0  0  0  0  0  0
   27.5284  -14.0650  -15.1937 C   0  0  0  0  0  0  0  0  0  0  0  0
   26.2490  -13.8105  -14.7466 C   0  0  0  0  0  0  0  0  0  0  0  0
   25.6825  -12.5767  -14.7240 C   0  0  0  0  0  0  0  0  0  0  0  0
   24.1910   -8.5332  -16.1175 C   0  0  0  0  0  0  0  0  0  0  0  0
   24.7424   -7.3829  -16.2395 O   0  0  0  0  0  0  0  0  0  0  0  0
   18.8000   -7.0448  -18.4137 N   0  0  0  0  0  0  0  0  0  0  0  0
   19.0012   -5.9645  -17.5434 C   0  0  0  0  0  0  0  0  0  0  0  0
   18.2371   -4.9875  -17.5443 O   0  0  0  0  0  0  0  0  0  0  0  0
   20.1500   -5.9749  -16.5933 C   0  0  0  0  0  0  0  0  0  0  0  0
   20.9605   -7.2299  -16.7191 C   0  0  0  0  0  0  0  0  0  0  0  0
   22.0495   -7.2681  -15.7207 C   0  0  2  0  0  0  0  0  0  0  0  0
   22.8189   -8.5115  -15.7884 N   0  0  0  0  0  0  0  0  0  0  0  0
   21.5813   -6.9755  -14.3703 C   0  0  0  0  0  0  0  0  0  0  0  0
   21.3182   -8.0829  -13.5444 O   0  0  0  0  0  0  0  0  0  0  0  0
   21.3781   -5.8745  -13.8392 O   0  0  0  0  0  0  0  0  0  0  0  0
  2  1  1  6
  3  2  1  0
  3  4  1  0
  4  5  1  0
  5  6  2  0
  5  9  1  0
  7  2  1  0
  7  8  2  0
 10  7  1  0
 11 19  1  0
 11 10  1  0
 11 12  1  1
 13 18  2  0
 13 12  1  0
 14 13  1  0
 15 14  2  0
 16 15  1  0
 16 17  2  0
 17 18  1  0
 19 27  1  0
 20 19  2  0
 22 21  1  0
 22 23  2  0
 24 25  1  0
 24 22  1  0
 26 25  1  6
 26 28  1  0
 27 26  1  0
 28 30  2  0
 28 29  1  0
M  END
$$$$
