EFQ.pdb
     RDKit          3D

 30 30  0  0  1  0  0  0  0  0999 V2000
   28.5436  -22.1406  -16.8341 N   0  0  0  0  0  0  0  0  0  0  0  0
   27.5379  -21.1344  -16.6239 C   0  0  1  0  0  0  0  0  0  0  0  0
   26.5771  -21.1518  -17.7937 C   0  0  0  0  0  0  0  0  0  0  0  0
   27.1143  -20.4175  -18.9841 C   0  0  0  0  0  0  0  0  0  0  0  0
   27.0472  -21.3156  -20.1642 C   0  0  0  0  0  0  0  0  0  0  0  0
   27.4150  -20.9349  -21.3031 O   0  0  0  0  0  0  0  0  0  0  0  0
   26.7437  -21.4401  -15.4040 C   0  0  0  0  0  0  0  0  0  0  0  0
   26.4839  -22.6500  -15.1462 O   0  0  0  0  0  0  0  0  0  0  0  0
   26.5730  -22.6142  -20.0487 O   0  0  0  0  0  0  0  0  0  0  0  0
   26.2706  -20.4354  -14.5261 N   0  0  0  0  0  0  0  0  0  0  0  0
   25.6181  -20.7678  -13.3017 C   0  0  1  0  0  0  0  0  0  0  0  0
   26.2094  -20.1098  -12.1015 C   0  0  0  0  0  0  0  0  0  0  0  0
   27.5270  -20.5402  -11.6776 C   0  0  0  0  0  0  0  0  0  0  0  0
   28.6247  -20.1168  -12.3937 C   0  0  0  0  0  0  0  0  0  0  0  0
   29.9156  -20.4999  -12.0324 C   0  0  0  0  0  0  0  0  0  0  0  0
   30.1244  -21.3169  -10.9424 C   0  0  0  0  0  0  0  0  0  0  0  0
   29.0031  -21.7215  -10.2490 C   0  0  0  0  0  0  0  0  0  0  0  0
   27.7352  -21.3642  -10.5780 C   0  0  0  0  0  0  0  0  0  0  0  0
   24.1415  -20.7250  -13.3932 C   0  0  0  0  0  0  0  0  0  0  0  0
   23.5896  -19.6695  -13.8659 O   0  0  0  0  0  0  0  0  0  0  0  0
   19.7259  -25.3015  -13.4706 N   0  0  0  0  0  0  0  0  0  0  0  0
   18.9712  -24.1204  -13.4876 C   0  0  0  0  0  0  0  0  0  0  0  0
   17.7325  -24.1498  -13.5433 O   0  0  0  0  0  0  0  0  0  0  0  0
   19.6551  -22.7965  -13.4383 C   0  0  0  0  0  0  0  0  0  0  0  0
   21.1347  -22.9450  -13.2481 C   0  0  0  0  0  0  0  0  0  0  0  0
   21.8008  -21.6281  -13.1698 C   0  0  2  0  0  0  0  0  0  0  0  0
   23.2507  -21.7500  -13.0093 N   0  0  0  0  0  0  0  0  0  0  0  0
   21.2006  -20.7562  -12.1658 C   0  0  0  0  0  0  0  0  0  0  0  0
   20.1461  -19.9333  -12.6000 O   0  0  0  0  0  0  0  0  0  0  0  0
   21.4919  -20.6342  -10.9676 O   0  0  0  0  0  0  0  0  0  0  0  0
  2  1  1  6
  3  2  1  0
  3  4  1  0
  4  5  1  0
  5  6  2  0
  5  9  1  0
  7  2  1  0
  7  8  2  0
 10  7  1  0
 11 19  1  0
 11 10  1  0
 11 12  1  1
 13 18  2  0
 13 12  1  0
 14 13  1  0
 15 14  2  0
 16 15  1  0
 16 17  2  0
 17 18  1  0
 19 27  1  0
 20 19  2  0
 22 21  1  0
 22 23  2  0
 24 25  1  0
 24 22  1  0
 26 25  1  1
 26 28  1  0
 27 26  1  0
 28 30  2  0
 28 29  1  0
M  END
$$$$
