EFQ.pdb
     RDKit          3D

 30 30  0  0  1  0  0  0  0  0999 V2000
   28.4465  -22.2994  -15.8872 N   0  0  0  0  0  0  0  0  0  0  0  0
   27.3550  -21.3664  -15.9674 C   0  0  1  0  0  0  0  0  0  0  0  0
   26.5518  -21.6600  -17.2166 C   0  0  0  0  0  0  0  0  0  0  0  0
   27.0767  -20.9322  -18.4164 C   0  0  0  0  0  0  0  0  0  0  0  0
   28.4118  -21.4841  -18.7582 C   0  0  0  0  0  0  0  0  0  0  0  0
   28.5378  -22.5880  -19.3436 O   0  0  0  0  0  0  0  0  0  0  0  0
   26.4375  -21.5390  -14.8095 C   0  0  0  0  0  0  0  0  0  0  0  0
   25.8199  -22.6358  -14.6932 O   0  0  0  0  0  0  0  0  0  0  0  0
   29.5733  -20.7950  -18.4405 O   0  0  0  0  0  0  0  0  0  0  0  0
   26.2303  -20.5295  -13.8391 N   0  0  0  0  0  0  0  0  0  0  0  0
   25.3359  -20.7252  -12.7449 C   0  0  1  0  0  0  0  0  0  0  0  0
   25.7658  -20.0565  -11.4835 C   0  0  0  0  0  0  0  0  0  0  0  0
   27.0394  -20.4487  -10.9132 C   0  0  0  0  0  0  0  0  0  0  0  0
   27.1161  -20.6767   -9.5570 C   0  0  0  0  0  0  0  0  0  0  0  0
   28.3147  -21.0552   -8.9539 C   0  0  0  0  0  0  0  0  0  0  0  0
   29.4586  -21.2112   -9.7065 C   0  0  0  0  0  0  0  0  0  0  0  0
   29.3452  -20.9748  -11.0604 C   0  0  0  0  0  0  0  0  0  0  0  0
   28.1917  -20.6054  -11.6741 C   0  0  0  0  0  0  0  0  0  0  0  0
   23.9129  -20.5476  -13.1110 C   0  0  0  0  0  0  0  0  0  0  0  0
   23.6095  -19.6325  -13.9551 O   0  0  0  0  0  0  0  0  0  0  0  0
   22.7206  -21.3707  -16.2449 N   0  0  0  0  0  0  0  0  0  0  0  0
   21.4112  -20.8834  -16.3583 C   0  0  0  0  0  0  0  0  0  0  0  0
   21.0505  -20.2347  -17.3521 O   0  0  0  0  0  0  0  0  0  0  0  0
   20.4219  -21.1409  -15.2730 C   0  0  0  0  0  0  0  0  0  0  0  0
   21.0262  -21.9280  -14.1491 C   0  0  0  0  0  0  0  0  0  0  0  0
   21.4448  -21.0455  -13.0400 C   0  0  2  0  0  0  0  0  0  0  0  0
   22.8241  -21.2998  -12.6209 N   0  0  0  0  0  0  0  0  0  0  0  0
   20.5090  -21.0705  -11.9211 C   0  0  0  0  0  0  0  0  0  0  0  0
   19.5953  -20.0043  -11.8442 O   0  0  0  0  0  0  0  0  0  0  0  0
   20.4029  -21.9088  -11.0147 O   0  0  0  0  0  0  0  0  0  0  0  0
  2  1  1  1
  3  2  1  0
  3  4  1  0
  4  5  1  0
  5  6  2  0
  5  9  1  0
  7  2  1  0
  7  8  2  0
 10  7  1  0
 11 19  1  0
 11 10  1  0
 11 12  1  1
 13 18  2  0
 13 12  1  0
 14 13  1  0
 15 14  2  0
 16 15  1  0
 16 17  2  0
 17 18  1  0
 19 27  1  0
 20 19  2  0
 22 21  1  0
 22 23  2  0
 24 25  1  0
 24 22  1  0
 26 25  1  6
 26 28  1  0
 27 26  1  0
 28 30  2  0
 28 29  1  0
M  END
$$$$
