EFQ.pdb
     RDKit          3D

 30 30  0  0  1  0  0  0  0  0999 V2000
   27.2668  -23.6191  -17.6486 N   0  0  0  0  0  0  0  0  0  0  0  0
   27.1176  -22.2838  -17.1357 C   0  0  1  0  0  0  0  0  0  0  0  0
   26.2073  -21.5040  -18.0605 C   0  0  0  0  0  0  0  0  0  0  0  0
   26.9213  -21.0119  -19.2823 C   0  0  0  0  0  0  0  0  0  0  0  0
   27.9730  -20.0523  -18.8617 C   0  0  0  0  0  0  0  0  0  0  0  0
   27.7117  -19.0714  -18.1223 O   0  0  0  0  0  0  0  0  0  0  0  0
   26.4625  -22.3099  -15.8006 C   0  0  0  0  0  0  0  0  0  0  0  0
   25.6688  -23.2591  -15.5414 O   0  0  0  0  0  0  0  0  0  0  0  0
   29.2887  -20.2072  -19.2736 O   0  0  0  0  0  0  0  0  0  0  0  0
   26.6917  -21.3196  -14.8153 N   0  0  0  0  0  0  0  0  0  0  0  0
   26.0230  -21.3584  -13.5556 C   0  0  1  0  0  0  0  0  0  0  0  0
   26.7528  -20.6581  -12.4601 C   0  0  0  0  0  0  0  0  0  0  0  0
   26.0829  -20.5254  -11.1816 C   0  0  0  0  0  0  0  0  0  0  0  0
   26.3284  -21.4644  -10.2043 C   0  0  0  0  0  0  0  0  0  0  0  0
   25.7118  -21.3874   -8.9563 C   0  0  0  0  0  0  0  0  0  0  0  0
   24.8363  -20.3624   -8.6697 C   0  0  0  0  0  0  0  0  0  0  0  0
   24.6143  -19.4406   -9.6711 C   0  0  0  0  0  0  0  0  0  0  0  0
   25.2004  -19.4908  -10.8948 C   0  0  0  0  0  0  0  0  0  0  0  0
   24.5754  -21.0650  -13.6503 C   0  0  0  0  0  0  0  0  0  0  0  0
   24.2090  -19.9786  -14.2226 O   0  0  0  0  0  0  0  0  0  0  0  0
   17.5828  -23.3358  -12.9968 N   0  0  0  0  0  0  0  0  0  0  0  0
   18.8739  -23.4193  -13.5362 C   0  0  0  0  0  0  0  0  0  0  0  0
   19.2811  -24.4620  -14.0705 O   0  0  0  0  0  0  0  0  0  0  0  0
   19.7867  -22.2421  -13.4746 C   0  0  0  0  0  0  0  0  0  0  0  0
   21.2170  -22.6593  -13.3087 C   0  0  0  0  0  0  0  0  0  0  0  0
   22.1190  -21.4887  -13.2890 C   0  0  2  0  0  0  0  0  0  0  0  0
   23.5255  -21.8759  -13.1689 N   0  0  0  0  0  0  0  0  0  0  0  0
   21.7272  -20.4970  -12.2934 C   0  0  0  0  0  0  0  0  0  0  0  0
   20.5045  -19.8377  -12.5127 O   0  0  0  0  0  0  0  0  0  0  0  0
   22.3269  -20.1462  -11.2673 O   0  0  0  0  0  0  0  0  0  0  0  0
  2  1  1  6
  3  2  1  0
  3  4  1  0
  4  5  1  0
  5  6  2  0
  5  9  1  0
  7  2  1  0
  7  8  2  0
 10  7  1  0
 11 19  1  0
 11 10  1  0
 11 12  1  1
 13 18  2  0
 13 12  1  0
 14 13  1  0
 15 14  2  0
 16 15  1  0
 16 17  2  0
 17 18  1  0
 19 27  1  0
 20 19  2  0
 22 21  1  0
 22 23  2  0
 24 25  1  0
 24 22  1  0
 26 25  1  1
 26 28  1  0
 27 26  1  0
 28 30  2  0
 28 29  1  0
M  END
$$$$
