EFQ.pdb
     RDKit          3D

 30 30  0  0  1  0  0  0  0  0999 V2000
   28.3681  -22.8254  -17.8314 N   0  0  0  0  0  0  0  0  0  0  0  0
   27.6913  -21.6157  -17.4483 C   0  0  1  0  0  0  0  0  0  0  0  0
   26.6725  -21.2676  -18.5126 C   0  0  0  0  0  0  0  0  0  0  0  0
   27.3114  -20.7627  -19.7703 C   0  0  0  0  0  0  0  0  0  0  0  0
   28.3111  -19.7261  -19.4104 C   0  0  0  0  0  0  0  0  0  0  0  0
   29.5424  -19.9149  -19.5709 O   0  0  0  0  0  0  0  0  0  0  0  0
   26.9426  -21.8186  -16.1792 C   0  0  0  0  0  0  0  0  0  0  0  0
   26.4890  -22.9717  -15.9292 O   0  0  0  0  0  0  0  0  0  0  0  0
   27.9173  -18.5057  -18.8809 O   0  0  0  0  0  0  0  0  0  0  0  0
   26.7196  -20.7773  -15.2464 N   0  0  0  0  0  0  0  0  0  0  0  0
   26.0449  -21.0190  -14.0127 C   0  0  1  0  0  0  0  0  0  0  0  0
   26.6518  -20.3211  -12.8432 C   0  0  0  0  0  0  0  0  0  0  0  0
   25.9943  -20.4618  -11.5591 C   0  0  0  0  0  0  0  0  0  0  0  0
   26.5273  -21.3316  -10.6336 C   0  0  0  0  0  0  0  0  0  0  0  0
   25.9370  -21.5077   -9.3829 C   0  0  0  0  0  0  0  0  0  0  0  0
   24.7983  -20.8104   -9.0415 C   0  0  0  0  0  0  0  0  0  0  0  0
   24.2925  -19.9487   -9.9920 C   0  0  0  0  0  0  0  0  0  0  0  0
   24.8462  -19.7575  -11.2169 C   0  0  0  0  0  0  0  0  0  0  0  0
   24.5719  -20.9246  -14.1211 C   0  0  0  0  0  0  0  0  0  0  0  0
   24.0607  -19.8345  -14.5598 O   0  0  0  0  0  0  0  0  0  0  0  0
   19.8653  -25.2257  -13.4561 N   0  0  0  0  0  0  0  0  0  0  0  0
   19.1933  -24.0179  -13.6897 C   0  0  0  0  0  0  0  0  0  0  0  0
   17.9556  -23.9734  -13.7564 O   0  0  0  0  0  0  0  0  0  0  0  0
   19.9662  -22.7549  -13.8634 C   0  0  0  0  0  0  0  0  0  0  0  0
   21.4394  -22.9813  -13.7019 C   0  0  0  0  0  0  0  0  0  0  0  0
   22.1969  -21.7226  -13.8626 C   0  0  2  0  0  0  0  0  0  0  0  0
   23.6434  -21.9339  -13.7881 N   0  0  0  0  0  0  0  0  0  0  0  0
   21.7396  -20.6746  -12.9565 C   0  0  0  0  0  0  0  0  0  0  0  0
   20.7818  -19.7797  -13.4656 O   0  0  0  0  0  0  0  0  0  0  0  0
   22.0802  -20.4562  -11.7852 O   0  0  0  0  0  0  0  0  0  0  0  0
  2  1  1  6
  3  2  1  0
  3  4  1  0
  4  5  1  0
  5  6  2  0
  5  9  1  0
  7  2  1  0
  7  8  2  0
 10  7  1  0
 11 19  1  0
 11 10  1  0
 11 12  1  1
 13 18  2  0
 13 12  1  0
 14 13  1  0
 15 14  2  0
 16 15  1  0
 16 17  2  0
 17 18  1  0
 19 27  1  0
 20 19  2  0
 22 21  1  0
 22 23  2  0
 24 25  1  0
 24 22  1  0
 26 25  1  1
 26 28  1  0
 27 26  1  0
 28 30  2  0
 28 29  1  0
M  END
$$$$
