EFQ.pdb
     RDKit          3D

 30 30  0  0  1  0  0  0  0  0999 V2000
   28.3214  -21.6800  -15.2219 N   0  0  0  0  0  0  0  0  0  0  0  0
   27.8906  -20.5291  -14.4748 C   0  0  1  0  0  0  0  0  0  0  0  0
   27.3362  -19.5009  -15.4377 C   0  0  0  0  0  0  0  0  0  0  0  0
   28.3760  -18.9901  -16.3878 C   0  0  0  0  0  0  0  0  0  0  0  0
   27.8656  -19.1401  -17.7737 C   0  0  0  0  0  0  0  0  0  0  0  0
   26.7421  -19.6493  -18.0101 O   0  0  0  0  0  0  0  0  0  0  0  0
   26.7877  -20.8950  -13.5465 C   0  0  0  0  0  0  0  0  0  0  0  0
   26.0273  -21.8524  -13.8677 O   0  0  0  0  0  0  0  0  0  0  0  0
   28.6167  -18.7204  -18.8620 O   0  0  0  0  0  0  0  0  0  0  0  0
   26.5577  -20.2173  -12.3251 N   0  0  0  0  0  0  0  0  0  0  0  0
   25.4580  -20.5593  -11.4830 C   0  0  1  0  0  0  0  0  0  0  0  0
   25.6018  -20.0867  -10.0762 C   0  0  0  0  0  0  0  0  0  0  0  0
   26.7958  -20.4769   -9.3530 C   0  0  0  0  0  0  0  0  0  0  0  0
   26.9135  -20.1215   -8.0275 C   0  0  0  0  0  0  0  0  0  0  0  0
   28.0397  -20.4691   -7.2829 C   0  0  0  0  0  0  0  0  0  0  0  0
   29.0685  -21.1816   -7.8602 C   0  0  0  0  0  0  0  0  0  0  0  0
   28.9169  -21.5205   -9.1883 C   0  0  0  0  0  0  0  0  0  0  0  0
   27.8320  -21.1955   -9.9373 C   0  0  0  0  0  0  0  0  0  0  0  0
   24.1400  -20.3128  -12.1098 C   0  0  0  0  0  0  0  0  0  0  0  0
   23.9380  -19.1844  -12.6826 O   0  0  0  0  0  0  0  0  0  0  0  0
   20.9514  -23.9719  -15.6816 N   0  0  0  0  0  0  0  0  0  0  0  0
   20.3073  -24.0228  -14.4376 C   0  0  0  0  0  0  0  0  0  0  0  0
   19.5198  -24.9395  -14.1585 O   0  0  0  0  0  0  0  0  0  0  0  0
   20.5628  -22.9630  -13.4205 C   0  0  0  0  0  0  0  0  0  0  0  0
   21.5378  -21.9399  -13.9207 C   0  0  0  0  0  0  0  0  0  0  0  0
   21.8233  -20.9210  -12.8891 C   0  0  2  0  0  0  0  0  0  0  0  0
   23.0527  -21.2115  -12.1496 N   0  0  0  0  0  0  0  0  0  0  0  0
   20.6858  -20.6833  -12.0071 C   0  0  0  0  0  0  0  0  0  0  0  0
   20.8494  -21.0520  -10.6599 O   0  0  0  0  0  0  0  0  0  0  0  0
   19.5791  -20.1968  -12.2793 O   0  0  0  0  0  0  0  0  0  0  0  0
  2  1  1  6
  3  2  1  0
  3  4  1  0
  4  5  1  0
  5  6  2  0
  5  9  1  0
  7  2  1  0
  7  8  2  0
 10  7  1  0
 11 19  1  0
 11 10  1  0
 11 12  1  1
 13 18  2  0
 13 12  1  0
 14 13  1  0
 15 14  2  0
 16 15  1  0
 16 17  2  0
 17 18  1  0
 19 27  1  0
 20 19  2  0
 22 21  1  0
 22 23  2  0
 24 25  1  0
 24 22  1  0
 26 25  1  6
 26 28  1  0
 27 26  1  0
 28 30  2  0
 28 29  1  0
M  END
$$$$
