EFQ.pdb
     RDKit          3D

 30 30  0  0  1  0  0  0  0  0999 V2000
   23.6552  -12.6528  -18.0920 N   0  0  0  0  0  0  0  0  0  0  0  0
   23.1739  -11.4273  -18.6707 C   0  0  1  0  0  0  0  0  0  0  0  0
   21.8196  -11.6817  -19.2977 C   0  0  0  0  0  0  0  0  0  0  0  0
   21.9039  -12.5836  -20.4911 C   0  0  0  0  0  0  0  0  0  0  0  0
   22.6510  -11.8805  -21.5641 C   0  0  0  0  0  0  0  0  0  0  0  0
   23.1721  -10.7538  -21.3738 O   0  0  0  0  0  0  0  0  0  0  0  0
   22.9786  -10.3962  -17.6167 C   0  0  0  0  0  0  0  0  0  0  0  0
   22.5069  -10.7611  -16.5021 O   0  0  0  0  0  0  0  0  0  0  0  0
   22.7999  -12.4474  -22.8215 O   0  0  0  0  0  0  0  0  0  0  0  0
   23.2984   -9.0311  -17.8119 N   0  0  0  0  0  0  0  0  0  0  0  0
   23.1917   -8.0853  -16.7490 C   0  0  1  0  0  0  0  0  0  0  0  0
   24.5045   -7.5945  -16.2403 C   0  0  0  0  0  0  0  0  0  0  0  0
   25.5307   -8.5800  -15.9627 C   0  0  0  0  0  0  0  0  0  0  0  0
   25.4408   -9.3225  -14.8062 C   0  0  0  0  0  0  0  0  0  0  0  0
   26.3991  -10.2836  -14.4875 C   0  0  0  0  0  0  0  0  0  0  0  0
   27.4662  -10.5144  -15.3286 C   0  0  0  0  0  0  0  0  0  0  0  0
   27.5242   -9.7532  -16.4771 C   0  0  0  0  0  0  0  0  0  0  0  0
   26.6058   -8.8111  -16.8125 C   0  0  0  0  0  0  0  0  0  0  0  0
   22.1687   -7.0435  -16.9909 C   0  0  0  0  0  0  0  0  0  0  0  0
   22.3088   -6.2746  -18.0064 O   0  0  0  0  0  0  0  0  0  0  0  0
   16.1039   -6.4070  -15.2466 N   0  0  0  0  0  0  0  0  0  0  0  0
   16.3523   -5.2817  -16.0447 C   0  0  0  0  0  0  0  0  0  0  0  0
   15.4306   -4.5357  -16.4088 O   0  0  0  0  0  0  0  0  0  0  0  0
   17.7443   -4.9620  -16.4722 C   0  0  0  0  0  0  0  0  0  0  0  0
   18.7112   -6.0266  -16.0489 C   0  0  0  0  0  0  0  0  0  0  0  0
   20.0829   -5.7180  -16.5042 C   0  0  2  0  0  0  0  0  0  0  0  0
   21.0219   -6.8004  -16.2052 N   0  0  0  0  0  0  0  0  0  0  0  0
   20.5540   -4.4234  -16.0242 C   0  0  0  0  0  0  0  0  0  0  0  0
   20.3610   -3.3278  -16.8845 O   0  0  0  0  0  0  0  0  0  0  0  0
   21.1091   -4.1468  -14.9513 O   0  0  0  0  0  0  0  0  0  0  0  0
  2  1  1  1
  3  2  1  0
  3  4  1  0
  4  5  1  0
  5  6  2  0
  5  9  1  0
  7  2  1  0
  7  8  2  0
 10  7  1  0
 11 19  1  0
 11 10  1  0
 11 12  1  6
 13 18  2  0
 13 12  1  0
 14 13  1  0
 15 14  2  0
 16 15  1  0
 16 17  2  0
 17 18  1  0
 19 27  1  0
 20 19  2  0
 22 21  1  0
 22 23  2  0
 24 25  1  0
 24 22  1  0
 26 25  1  1
 26 28  1  0
 27 26  1  0
 28 30  2  0
 28 29  1  0
M  END
$$$$
