GMY.pdb
     RDKit          3D

 25 25  0  0  1  0  0  0  0  0999 V2000
    9.0099  -17.0154   17.8980 N   0  0  0  0  0  0  0  0  0  0  0  0
    8.3062  -17.3820   19.1118 C   0  0  0  0  0  0  0  0  0  0  0  0
    8.6662  -16.4164   20.1892 C   0  0  0  0  0  0  0  0  0  0  0  0
    9.8787  -16.0625   20.3386 O   0  0  0  0  0  0  0  0  0  0  0  0
    6.8830  -11.7730   26.1709 C   0  0  0  0  0  0  0  0  0  0  0  0
    6.7642  -13.3000   25.1582 S   0  0  0  0  0  0  0  0  0  0  0  0
    7.2213  -12.9518   23.4627 C   0  0  0  0  0  0  0  0  0  0  0  0
    6.9678  -14.0464   22.4867 C   0  0  0  0  0  0  0  0  0  0  0  0
    8.1211  -14.9214   22.1488 C   0  0  2  0  0  0  0  0  0  0  0  0
    7.7090  -15.8599   21.0751 N   0  0  0  0  0  0  0  0  0  0  0  0
    8.7259  -15.6855   23.2608 C   0  0  0  0  0  0  0  0  0  0  0  0
    8.1794  -16.7821   23.6082 O   0  0  0  0  0  0  0  0  0  0  0  0
   10.7787  -16.3503   31.5877 O   0  0  0  0  0  0  0  0  0  0  0  0
   10.8309  -15.9813   30.2409 C   0  0  0  0  0  0  0  0  0  0  0  0
   11.5180  -16.7583   29.3287 C   0  0  0  0  0  0  0  0  0  0  0  0
   11.5717  -16.3963   27.9967 C   0  0  0  0  0  0  0  0  0  0  0  0
   10.9415  -15.2445   27.5246 C   0  0  0  0  0  0  0  0  0  0  0  0
   11.0039  -14.8629   26.1019 C   0  0  0  0  0  0  0  0  0  0  0  0
   10.4738  -15.8424   25.1320 C   0  0  2  0  0  0  0  0  0  0  0  0
    9.8810  -15.2769   23.9581 N   0  0  0  0  0  0  0  0  0  0  0  0
    9.7898  -17.0102   25.7181 C   0  0  0  0  0  0  0  0  0  0  0  0
   10.4617  -18.2248   25.9309 O   0  0  0  0  0  0  0  0  0  0  0  0
   10.2570  -14.4744   28.4449 C   0  0  0  0  0  0  0  0  0  0  0  0
   10.2085  -14.8443   29.7758 C   0  0  0  0  0  0  0  0  0  0  0  0
    8.5868  -17.0014   26.0578 O   0  0  0  0  0  0  0  0  0  0  0  0
  2  1  1  0
  3  2  1  0
  4  3  2  0
  5  6  1  0
  6  7  1  0
  7  8  1  0
  9  8  1  1
  9 11  1  0
  9 10  1  0
 10  3  1  0
 11 20  1  0
 12 11  2  0
 14 24  2  0
 14 13  1  0
 15 14  1  0
 16 17  1  0
 16 15  2  0
 17 23  2  0
 18 17  1  0
 19 18  1  1
 20 19  1  0
 21 22  1  0
 21 19  1  0
 23 24  1  0
 25 21  2  0
M  END
$$$$
