GMY.pdb
     RDKit          3D

 25 25  0  0  1  0  0  0  0  0999 V2000
    5.7436  -18.1986   21.4839 N   0  0  0  0  0  0  0  0  0  0  0  0
    5.5964  -17.9265   22.9007 C   0  0  0  0  0  0  0  0  0  0  0  0
    6.5227  -16.8212   23.2789 C   0  0  0  0  0  0  0  0  0  0  0  0
    7.4556  -16.4812   22.4840 O   0  0  0  0  0  0  0  0  0  0  0  0
    7.1148  -10.9089   27.1401 C   0  0  0  0  0  0  0  0  0  0  0  0
    5.6578  -11.8795   26.5865 S   0  0  0  0  0  0  0  0  0  0  0  0
    6.1604  -13.1224   25.4001 C   0  0  0  0  0  0  0  0  0  0  0  0
    6.9556  -14.2551   25.9477 C   0  0  0  0  0  0  0  0  0  0  0  0
    7.5102  -15.2206   24.9628 C   0  0  2  0  0  0  0  0  0  0  0  0
    6.4174  -16.1140   24.5035 N   0  0  0  0  0  0  0  0  0  0  0  0
    8.6580  -16.0401   25.4069 C   0  0  0  0  0  0  0  0  0  0  0  0
    8.4876  -16.8405   26.3827 O   0  0  0  0  0  0  0  0  0  0  0  0
    8.8345  -20.6154   29.7370 O   0  0  0  0  0  0  0  0  0  0  0  0
    9.2401  -20.0675   28.5172 C   0  0  0  0  0  0  0  0  0  0  0  0
    8.3943  -20.0875   27.4255 C   0  0  0  0  0  0  0  0  0  0  0  0
    8.7921  -19.5468   26.2182 C   0  0  0  0  0  0  0  0  0  0  0  0
   10.0499  -18.9655   26.0548 C   0  0  0  0  0  0  0  0  0  0  0  0
   10.4691  -18.3915   24.7632 C   0  0  0  0  0  0  0  0  0  0  0  0
   10.9560  -16.9974   24.7875 C   0  0  2  0  0  0  0  0  0  0  0  0
    9.9335  -15.9958   24.8082 N   0  0  0  0  0  0  0  0  0  0  0  0
   12.1322  -16.7206   23.9418 C   0  0  0  0  0  0  0  0  0  0  0  0
   13.4402  -16.8800   24.4273 O   0  0  0  0  0  0  0  0  0  0  0  0
   10.8883  -18.9505   27.1528 C   0  0  0  0  0  0  0  0  0  0  0  0
   10.4818  -19.4938   28.3570 C   0  0  0  0  0  0  0  0  0  0  0  0
   12.0486  -16.3301   22.7572 O   0  0  0  0  0  0  0  0  0  0  0  0
  2  1  1  0
  3  2  1  0
  4  3  2  0
  5  6  1  0
  6  7  1  0
  7  8  1  0
  9  8  1  1
  9 11  1  0
  9 10  1  0
 10  3  1  0
 11 20  1  0
 12 11  2  0
 14 24  2  0
 14 13  1  0
 15 14  1  0
 16 17  1  0
 16 15  2  0
 17 23  2  0
 18 17  1  0
 19 18  1  6
 20 19  1  0
 21 22  1  0
 21 19  1  0
 23 24  1  0
 25 21  2  0
M  END
$$$$
