GMY.pdb
     RDKit          3D

 25 25  0  0  1  0  0  0  0  0999 V2000
    8.7341  -16.9398   18.2615 N   0  0  0  0  0  0  0  0  0  0  0  0
    8.1095  -17.2982   19.5203 C   0  0  0  0  0  0  0  0  0  0  0  0
    8.5528  -16.3370   20.5702 C   0  0  0  0  0  0  0  0  0  0  0  0
    9.7761  -15.9950   20.6352 O   0  0  0  0  0  0  0  0  0  0  0  0
    6.8545  -11.5752   26.6492 C   0  0  0  0  0  0  0  0  0  0  0  0
    6.4860  -13.0712   25.6504 S   0  0  0  0  0  0  0  0  0  0  0  0
    7.3510  -12.9949   24.0848 C   0  0  0  0  0  0  0  0  0  0  0  0
    7.0241  -14.0728   23.1121 C   0  0  0  0  0  0  0  0  0  0  0  0
    8.1651  -14.8668   22.5853 C   0  0  2  0  0  0  0  0  0  0  0  0
    7.6648  -15.7719   21.5205 N   0  0  0  0  0  0  0  0  0  0  0  0
    8.9415  -15.6512   23.5693 C   0  0  0  0  0  0  0  0  0  0  0  0
    8.4328  -16.7279   24.0206 O   0  0  0  0  0  0  0  0  0  0  0  0
   11.2153  -16.6145   31.6821 O   0  0  0  0  0  0  0  0  0  0  0  0
   11.0137  -16.1304   30.3869 C   0  0  0  0  0  0  0  0  0  0  0  0
   11.3139  -16.9164   29.2915 C   0  0  0  0  0  0  0  0  0  0  0  0
   11.1160  -16.4409   28.0098 C   0  0  0  0  0  0  0  0  0  0  0  0
   10.6108  -15.1621   27.7728 C   0  0  0  0  0  0  0  0  0  0  0  0
   10.4033  -14.6598   26.4023 C   0  0  0  0  0  0  0  0  0  0  0  0
   10.8303  -15.5478   25.3023 C   0  0  2  0  0  0  0  0  0  0  0  0
   10.2203  -15.2830   24.0345 N   0  0  0  0  0  0  0  0  0  0  0  0
   11.0085  -16.9665   25.6639 C   0  0  0  0  0  0  0  0  0  0  0  0
   12.2840  -17.5200   25.8604 O   0  0  0  0  0  0  0  0  0  0  0  0
   10.3138  -14.3839   28.8750 C   0  0  0  0  0  0  0  0  0  0  0  0
   10.5150  -14.8680   30.1539 C   0  0  0  0  0  0  0  0  0  0  0  0
   10.0550  -17.7606   25.8157 O   0  0  0  0  0  0  0  0  0  0  0  0
  2  1  1  0
  3  2  1  0
  4  3  2  0
  5  6  1  0
  6  7  1  0
  7  8  1  0
  9  8  1  1
  9 11  1  0
  9 10  1  0
 10  3  1  0
 11 20  1  0
 12 11  2  0
 14 24  2  0
 14 13  1  0
 15 14  1  0
 16 17  1  0
 16 15  2  0
 17 23  2  0
 18 17  1  0
 19 18  1  1
 20 19  1  0
 21 22  1  0
 21 19  1  0
 23 24  1  0
 25 21  2  0
M  END
$$$$
