GMY.pdb
     RDKit          3D

 25 25  0  0  1  0  0  0  0  0999 V2000
    6.8192  -13.5399   19.5302 N   0  0  0  0  0  0  0  0  0  0  0  0
    7.7107  -14.6355   19.8589 C   0  0  0  0  0  0  0  0  0  0  0  0
    8.1723  -14.4763   21.2676 C   0  0  0  0  0  0  0  0  0  0  0  0
    9.1148  -13.6649   21.5338 O   0  0  0  0  0  0  0  0  0  0  0  0
    6.2641  -11.7170   26.9845 C   0  0  0  0  0  0  0  0  0  0  0  0
    7.2976  -13.0731   26.3031 S   0  0  0  0  0  0  0  0  0  0  0  0
    6.3005  -14.1537   25.2818 C   0  0  0  0  0  0  0  0  0  0  0  0
    7.0110  -15.3182   24.6866 C   0  0  0  0  0  0  0  0  0  0  0  0
    8.1103  -15.0148   23.7330 C   0  0  2  0  0  0  0  0  0  0  0  0
    7.6049  -15.1967   22.3493 N   0  0  0  0  0  0  0  0  0  0  0  0
    9.3660  -15.7775   23.8994 C   0  0  0  0  0  0  0  0  0  0  0  0
    9.4275  -16.9536   23.4148 O   0  0  0  0  0  0  0  0  0  0  0  0
   10.3893  -16.0274   31.1676 O   0  0  0  0  0  0  0  0  0  0  0  0
   10.9138  -15.8584   29.8834 C   0  0  0  0  0  0  0  0  0  0  0  0
   11.6742  -16.8539   29.3016 C   0  0  0  0  0  0  0  0  0  0  0  0
   12.1942  -16.6901   28.0324 C   0  0  0  0  0  0  0  0  0  0  0  0
   11.9749  -15.5257   27.2956 C   0  0  0  0  0  0  0  0  0  0  0  0
   12.5340  -15.3564   25.9420 C   0  0  0  0  0  0  0  0  0  0  0  0
   11.7523  -15.9309   24.8284 C   0  0  2  0  0  0  0  0  0  0  0  0
   10.5079  -15.2772   24.5574 N   0  0  0  0  0  0  0  0  0  0  0  0
   11.7549  -17.4034   24.7439 C   0  0  0  0  0  0  0  0  0  0  0  0
   10.6119  -18.1589   25.0513 O   0  0  0  0  0  0  0  0  0  0  0  0
   11.2131  -14.5362   27.8864 C   0  0  0  0  0  0  0  0  0  0  0  0
   10.6967  -14.7088   29.1568 C   0  0  0  0  0  0  0  0  0  0  0  0
   12.7562  -18.0689   24.4015 O   0  0  0  0  0  0  0  0  0  0  0  0
  2  1  1  0
  3  2  1  0
  4  3  2  0
  5  6  1  0
  6  7  1  0
  7  8  1  0
  9  8  1  1
  9 11  1  0
  9 10  1  0
 10  3  1  0
 11 20  1  0
 12 11  2  0
 14 24  2  0
 14 13  1  0
 15 14  1  0
 16 17  1  0
 16 15  2  0
 17 23  2  0
 18 17  1  0
 19 18  1  1
 20 19  1  0
 21 22  1  0
 21 19  1  0
 23 24  1  0
 25 21  2  0
M  END
$$$$
