GMY.pdb
     RDKit          3D

 25 25  0  0  1  0  0  0  0  0999 V2000
    5.8774  -19.7199   21.8654 N   0  0  0  0  0  0  0  0  0  0  0  0
    6.1315  -19.3724   23.2502 C   0  0  0  0  0  0  0  0  0  0  0  0
    6.7217  -18.0044   23.3042 C   0  0  0  0  0  0  0  0  0  0  0  0
    7.4818  -17.6086   22.3643 O   0  0  0  0  0  0  0  0  0  0  0  0
    6.9094  -10.7983   26.6960 C   0  0  0  0  0  0  0  0  0  0  0  0
    6.1280  -12.4592   26.6500 S   0  0  0  0  0  0  0  0  0  0  0  0
    6.9966  -13.5168   25.4959 C   0  0  0  0  0  0  0  0  0  0  0  0
    6.4772  -14.9063   25.3750 C   0  0  0  0  0  0  0  0  0  0  0  0
    7.2209  -15.8219   24.4703 C   0  0  2  0  0  0  0  0  0  0  0  0
    6.4761  -17.1019   24.3701 N   0  0  0  0  0  0  0  0  0  0  0  0
    8.6305  -16.1019   24.8177 C   0  0  0  0  0  0  0  0  0  0  0  0
    8.8751  -17.0458   25.6369 O   0  0  0  0  0  0  0  0  0  0  0  0
   10.3500  -16.6393   30.8215 O   0  0  0  0  0  0  0  0  0  0  0  0
   10.6918  -16.2084   29.5369 C   0  0  0  0  0  0  0  0  0  0  0  0
   11.3516  -17.0548   28.6674 C   0  0  0  0  0  0  0  0  0  0  0  0
   11.6910  -16.6320   27.3969 C   0  0  0  0  0  0  0  0  0  0  0  0
   11.3846  -15.3476   26.9460 C   0  0  0  0  0  0  0  0  0  0  0  0
   11.7510  -14.9019   25.5893 C   0  0  0  0  0  0  0  0  0  0  0  0
   11.1270  -15.6283   24.4650 C   0  0  2  0  0  0  0  0  0  0  0  0
    9.7265  -15.3902   24.2888 N   0  0  0  0  0  0  0  0  0  0  0  0
   11.5889  -17.0154   24.2707 C   0  0  0  0  0  0  0  0  0  0  0  0
   12.9419  -17.3654   24.4082 O   0  0  0  0  0  0  0  0  0  0  0  0
   10.7246  -14.5089   27.8232 C   0  0  0  0  0  0  0  0  0  0  0  0
   10.3889  -14.9405   29.0927 C   0  0  0  0  0  0  0  0  0  0  0  0
   10.8234  -17.9580   23.9734 O   0  0  0  0  0  0  0  0  0  0  0  0
  2  1  1  0
  3  2  1  0
  4  3  2  0
  5  6  1  0
  6  7  1  0
  7  8  1  0
  9  8  1  1
  9 11  1  0
  9 10  1  0
 10  3  1  0
 11 20  1  0
 12 11  2  0
 14 24  2  0
 14 13  1  0
 15 14  1  0
 16 17  1  0
 16 15  2  0
 17 23  2  0
 18 17  1  0
 19 18  1  1
 20 19  1  0
 21 22  1  0
 21 19  1  0
 23 24  1  0
 25 21  2  0
M  END
$$$$
