GMY.pdb
     RDKit          3D

 25 25  0  0  1  0  0  0  0  0999 V2000
    7.7105  -16.3493   18.1664 N   0  0  0  0  0  0  0  0  0  0  0  0
    6.8549  -16.1685   19.3233 C   0  0  0  0  0  0  0  0  0  0  0  0
    7.6493  -15.5415   20.4181 C   0  0  0  0  0  0  0  0  0  0  0  0
    8.9050  -15.7354   20.4759 O   0  0  0  0  0  0  0  0  0  0  0  0
    5.3451  -12.2428   25.9937 C   0  0  0  0  0  0  0  0  0  0  0  0
    6.8791  -11.4193   25.4105 S   0  0  0  0  0  0  0  0  0  0  0  0
    7.8441  -12.5501   24.4130 C   0  0  0  0  0  0  0  0  0  0  0  0
    7.0932  -13.2852   23.3591 C   0  0  0  0  0  0  0  0  0  0  0  0
    7.8269  -14.3613   22.6425 C   0  0  2  0  0  0  0  0  0  0  0  0
    7.0674  -14.7235   21.4196 N   0  0  0  0  0  0  0  0  0  0  0  0
    8.1296  -15.5874   23.4115 C   0  0  0  0  0  0  0  0  0  0  0  0
    7.1610  -16.3378   23.7584 O   0  0  0  0  0  0  0  0  0  0  0  0
   11.8421  -15.6187   31.2763 O   0  0  0  0  0  0  0  0  0  0  0  0
   11.2040  -15.6996   30.0358 C   0  0  0  0  0  0  0  0  0  0  0  0
   10.8824  -16.9284   29.4932 C   0  0  0  0  0  0  0  0  0  0  0  0
   10.2516  -17.0118   28.2670 C   0  0  0  0  0  0  0  0  0  0  0  0
    9.9180  -15.8714   27.5357 C   0  0  0  0  0  0  0  0  0  0  0  0
    9.2461  -15.9673   26.2269 C   0  0  0  0  0  0  0  0  0  0  0  0
   10.1034  -15.8241   25.0330 C   0  0  2  0  0  0  0  0  0  0  0  0
    9.4318  -15.9831   23.7787 N   0  0  0  0  0  0  0  0  0  0  0  0
   11.4475  -16.4216   25.1408 C   0  0  0  0  0  0  0  0  0  0  0  0
   11.6494  -17.8050   25.0086 O   0  0  0  0  0  0  0  0  0  0  0  0
   10.2438  -14.6473   28.0872 C   0  0  0  0  0  0  0  0  0  0  0  0
   10.8749  -14.5734   29.3147 C   0  0  0  0  0  0  0  0  0  0  0  0
   12.4808  -15.7515   25.3554 O   0  0  0  0  0  0  0  0  0  0  0  0
  2  1  1  0
  3  2  1  0
  4  3  2  0
  5  6  1  0
  6  7  1  0
  7  8  1  0
  9  8  1  1
  9 11  1  0
  9 10  1  0
 10  3  1  0
 11 20  1  0
 12 11  2  0
 14 24  2  0
 14 13  1  0
 15 14  1  0
 16 17  1  0
 16 15  2  0
 17 23  2  0
 18 17  1  0
 19 18  1  1
 20 19  1  0
 21 22  1  0
 21 19  1  0
 23 24  1  0
 25 21  2  0
M  END
$$$$
