GMY.pdb
     RDKit          3D

 25 25  0  0  1  0  0  0  0  0999 V2000
    8.4331  -17.4877   19.5398 N   0  0  0  0  0  0  0  0  0  0  0  0
    7.5031  -17.2998   20.6366 C   0  0  0  0  0  0  0  0  0  0  0  0
    7.9585  -16.1459   21.4636 C   0  0  0  0  0  0  0  0  0  0  0  0
    9.1808  -15.7951   21.4367 O   0  0  0  0  0  0  0  0  0  0  0  0
    6.6459  -10.5580   26.7231 C   0  0  0  0  0  0  0  0  0  0  0  0
    6.2237  -12.1428   25.8977 S   0  0  0  0  0  0  0  0  0  0  0  0
    6.8172  -12.1349   24.2087 C   0  0  0  0  0  0  0  0  0  0  0  0
    6.4869  -13.3407   23.4014 C   0  0  0  0  0  0  0  0  0  0  0  0
    7.5954  -14.2970   23.1435 C   0  0  2  0  0  0  0  0  0  0  0  0
    7.0835  -15.4031   22.2963 N   0  0  0  0  0  0  0  0  0  0  0  0
    8.2764  -14.8627   24.3277 C   0  0  0  0  0  0  0  0  0  0  0  0
    7.5829  -15.0947   25.3703 O   0  0  0  0  0  0  0  0  0  0  0  0
   12.5731  -18.5044   30.8921 O   0  0  0  0  0  0  0  0  0  0  0  0
   11.8718  -18.0387   29.7768 C   0  0  0  0  0  0  0  0  0  0  0  0
   11.2132  -18.9232   28.9450 C   0  0  0  0  0  0  0  0  0  0  0  0
   10.5191  -18.4662   27.8416 C   0  0  0  0  0  0  0  0  0  0  0  0
   10.4561  -17.1085   27.5265 C   0  0  0  0  0  0  0  0  0  0  0  0
    9.7147  -16.6273   26.3465 C   0  0  0  0  0  0  0  0  0  0  0  0
   10.4269  -15.6868   25.4580 C   0  0  2  0  0  0  0  0  0  0  0  0
    9.6514  -15.1706   24.3710 N   0  0  0  0  0  0  0  0  0  0  0  0
   11.8295  -16.0325   25.1607 C   0  0  0  0  0  0  0  0  0  0  0  0
   12.1645  -17.1952   24.4479 O   0  0  0  0  0  0  0  0  0  0  0  0
   11.1180  -16.2322   28.3647 C   0  0  0  0  0  0  0  0  0  0  0  0
   11.8100  -16.6984   29.4665 C   0  0  0  0  0  0  0  0  0  0  0  0
   12.7996  -15.3294   25.5173 O   0  0  0  0  0  0  0  0  0  0  0  0
  2  1  1  0
  3  2  1  0
  4  3  2  0
  5  6  1  0
  6  7  1  0
  7  8  1  0
  9  8  1  1
  9 11  1  0
  9 10  1  0
 10  3  1  0
 11 20  1  0
 12 11  2  0
 14 24  2  0
 14 13  1  0
 15 14  1  0
 16 17  1  0
 16 15  2  0
 17 23  2  0
 18 17  1  0
 19 18  1  6
 20 19  1  0
 21 22  1  0
 21 19  1  0
 23 24  1  0
 25 21  2  0
M  END
$$$$
