GMY.pdb
     RDKit          3D

 25 25  0  0  1  0  0  0  0  0999 V2000
    8.9940  -16.4443   20.1508 N   0  0  0  0  0  0  0  0  0  0  0  0
    7.7264  -16.1971   20.8106 C   0  0  0  0  0  0  0  0  0  0  0  0
    7.9854  -15.5375   22.1223 C   0  0  0  0  0  0  0  0  0  0  0  0
    9.0571  -15.7958   22.7567 O   0  0  0  0  0  0  0  0  0  0  0  0
    7.4949  -10.8711   27.9143 C   0  0  0  0  0  0  0  0  0  0  0  0
    7.5516  -11.3501   26.1427 S   0  0  0  0  0  0  0  0  0  0  0  0
    6.2664  -12.5444   25.7862 C   0  0  0  0  0  0  0  0  0  0  0  0
    6.2664  -13.1020   24.4063 C   0  0  0  0  0  0  0  0  0  0  0  0
    7.2689  -14.1595   24.1123 C   0  0  2  0  0  0  0  0  0  0  0  0
    7.0816  -14.6183   22.7131 N   0  0  0  0  0  0  0  0  0  0  0  0
    7.2847  -15.3316   25.0135 C   0  0  0  0  0  0  0  0  0  0  0  0
    6.1988  -15.9732   25.1897 O   0  0  0  0  0  0  0  0  0  0  0  0
    8.0093  -22.8496   29.1554 O   0  0  0  0  0  0  0  0  0  0  0  0
    8.0154  -21.7083   28.3492 C   0  0  0  0  0  0  0  0  0  0  0  0
    6.8828  -20.9260   28.2353 C   0  0  0  0  0  0  0  0  0  0  0  0
    6.8854  -19.7972   27.4391 C   0  0  0  0  0  0  0  0  0  0  0  0
    8.0192  -19.4065   26.7259 C   0  0  0  0  0  0  0  0  0  0  0  0
    8.0151  -18.2014   25.8766 C   0  0  0  0  0  0  0  0  0  0  0  0
    8.6155  -16.9832   26.4566 C   0  0  2  0  0  0  0  0  0  0  0  0
    8.4355  -15.7898   25.6866 N   0  0  0  0  0  0  0  0  0  0  0  0
    9.9347  -17.1652   27.0905 C   0  0  0  0  0  0  0  0  0  0  0  0
   10.0627  -17.3756   28.4730 O   0  0  0  0  0  0  0  0  0  0  0  0
    9.1468  -20.1955   26.8466 C   0  0  0  0  0  0  0  0  0  0  0  0
    9.1350  -21.3233   27.6457 C   0  0  0  0  0  0  0  0  0  0  0  0
   11.0104  -17.1430   26.4541 O   0  0  0  0  0  0  0  0  0  0  0  0
  2  1  1  0
  3  2  1  0
  4  3  2  0
  5  6  1  0
  6  7  1  0
  7  8  1  0
  9  8  1  1
  9 11  1  0
  9 10  1  0
 10  3  1  0
 11 20  1  0
 12 11  2  0
 14 24  2  0
 14 13  1  0
 15 14  1  0
 16 17  1  0
 16 15  2  0
 17 23  2  0
 18 17  1  0
 19 18  1  6
 20 19  1  0
 21 22  1  0
 21 19  1  0
 23 24  1  0
 25 21  2  0
M  END
$$$$
