GMY.pdb
     RDKit          3D

 25 25  0  0  1  0  0  0  0  0999 V2000
    7.8438  -16.7417   19.7274 N   0  0  0  0  0  0  0  0  0  0  0  0
    7.4220  -17.0367   21.0832 C   0  0  0  0  0  0  0  0  0  0  0  0
    7.8455  -15.9190   21.9745 C   0  0  0  0  0  0  0  0  0  0  0  0
    8.9255  -15.2932   21.7305 O   0  0  0  0  0  0  0  0  0  0  0  0
    6.3404  -10.3371   26.3292 C   0  0  0  0  0  0  0  0  0  0  0  0
    5.7679  -12.0525   26.6469 S   0  0  0  0  0  0  0  0  0  0  0  0
    7.0204  -13.2246   26.1349 C   0  0  0  0  0  0  0  0  0  0  0  0
    6.6198  -14.1698   25.0574 C   0  0  0  0  0  0  0  0  0  0  0  0
    7.6956  -14.6380   24.1445 C   0  0  2  0  0  0  0  0  0  0  0  0
    7.0927  -15.5079   23.1038 N   0  0  0  0  0  0  0  0  0  0  0  0
    8.8388  -15.3397   24.7666 C   0  0  0  0  0  0  0  0  0  0  0  0
    8.7344  -15.7060   25.9818 O   0  0  0  0  0  0  0  0  0  0  0  0
   11.3067  -15.7916   31.0752 O   0  0  0  0  0  0  0  0  0  0  0  0
   11.2391  -16.1577   29.7283 C   0  0  0  0  0  0  0  0  0  0  0  0
   11.6222  -17.4226   29.3270 C   0  0  0  0  0  0  0  0  0  0  0  0
   11.5568  -17.7878   27.9964 C   0  0  0  0  0  0  0  0  0  0  0  0
   11.1064  -16.9037   27.0155 C   0  0  0  0  0  0  0  0  0  0  0  0
   11.0403  -17.2990   25.5967 C   0  0  0  0  0  0  0  0  0  0  0  0
   11.2408  -16.2255   24.6025 C   0  0  2  0  0  0  0  0  0  0  0  0
   10.0399  -15.6372   24.0913 N   0  0  0  0  0  0  0  0  0  0  0  0
   12.3274  -16.4538   23.6317 C   0  0  0  0  0  0  0  0  0  0  0  0
   12.1671  -17.3229   22.5404 O   0  0  0  0  0  0  0  0  0  0  0  0
   10.7255  -15.6411   27.4272 C   0  0  0  0  0  0  0  0  0  0  0  0
   10.7943  -15.2845   28.7608 C   0  0  0  0  0  0  0  0  0  0  0  0
   13.4462  -15.9020   23.7122 O   0  0  0  0  0  0  0  0  0  0  0  0
  2  1  1  0
  3  2  1  0
  4  3  2  0
  5  6  1  0
  6  7  1  0
  7  8  1  0
  9  8  1  1
  9 11  1  0
  9 10  1  0
 10  3  1  0
 11 20  1  0
 12 11  2  0
 14 24  2  0
 14 13  1  0
 15 14  1  0
 16 17  1  0
 16 15  2  0
 17 23  2  0
 18 17  1  0
 19 18  1  6
 20 19  1  0
 21 22  1  0
 21 19  1  0
 23 24  1  0
 25 21  2  0
M  END
$$$$
