GMY.pdb
     RDKit          3D

 25 25  0  0  1  0  0  0  0  0999 V2000
    5.9431  -18.9476   22.6677 N   0  0  0  0  0  0  0  0  0  0  0  0
    5.9705  -18.3797   24.0017 C   0  0  0  0  0  0  0  0  0  0  0  0
    6.9716  -17.2754   24.0359 C   0  0  0  0  0  0  0  0  0  0  0  0
    8.0623  -17.3936   23.3925 O   0  0  0  0  0  0  0  0  0  0  0  0
    6.7168  -10.8287   26.3282 C   0  0  0  0  0  0  0  0  0  0  0  0
    5.4982  -11.7860   25.3434 S   0  0  0  0  0  0  0  0  0  0  0  0
    6.2664  -13.2590   24.6764 C   0  0  0  0  0  0  0  0  0  0  0  0
    7.3537  -13.8518   25.5019 C   0  0  0  0  0  0  0  0  0  0  0  0
    7.9002  -15.1582   25.0496 C   0  0  2  0  0  0  0  0  0  0  0  0
    6.7685  -16.0749   24.7630 N   0  0  0  0  0  0  0  0  0  0  0  0
    8.8566  -15.8298   25.9555 C   0  0  0  0  0  0  0  0  0  0  0  0
    8.4908  -16.0673   27.1520 O   0  0  0  0  0  0  0  0  0  0  0  0
   14.0927  -20.5458   30.8446 O   0  0  0  0  0  0  0  0  0  0  0  0
   13.2189  -19.9309   29.9440 C   0  0  0  0  0  0  0  0  0  0  0  0
   12.6750  -20.6482   28.8964 C   0  0  0  0  0  0  0  0  0  0  0  0
   11.8111  -20.0435   28.0042 C   0  0  0  0  0  0  0  0  0  0  0  0
   11.4572  -18.6992   28.1239 C   0  0  0  0  0  0  0  0  0  0  0  0
   10.5356  -18.0592   27.1675 C   0  0  0  0  0  0  0  0  0  0  0  0
   11.1083  -17.0095   26.3008 C   0  0  2  0  0  0  0  0  0  0  0  0
   10.1517  -16.2331   25.5717 N   0  0  0  0  0  0  0  0  0  0  0  0
   12.3401  -17.3826   25.5806 C   0  0  0  0  0  0  0  0  0  0  0  0
   12.4122  -17.3428   24.1787 O   0  0  0  0  0  0  0  0  0  0  0  0
   12.0065  -17.9906   29.1751 C   0  0  0  0  0  0  0  0  0  0  0  0
   12.8702  -18.6040   30.0630 C   0  0  0  0  0  0  0  0  0  0  0  0
   13.3852  -17.7552   26.1564 O   0  0  0  0  0  0  0  0  0  0  0  0
  2  1  1  0
  3  2  1  0
  4  3  2  0
  5  6  1  0
  6  7  1  0
  7  8  1  0
  9  8  1  1
  9 11  1  0
  9 10  1  0
 10  3  1  0
 11 20  1  0
 12 11  2  0
 14 24  2  0
 14 13  1  0
 15 14  1  0
 16 17  1  0
 16 15  2  0
 17 23  2  0
 18 17  1  0
 19 18  1  6
 20 19  1  0
 21 22  1  0
 21 19  1  0
 23 24  1  0
 25 21  2  0
M  END
$$$$
