SAE.pdb
     RDKit          3D

 21 20  0  0  1  0  0  0  0  0999 V2000
   18.4552  -13.8284  -15.0175 O   0  0  0  0  0  0  0  0  0  0  0  0
   18.5256  -12.5022  -14.6362 C   0  0  0  0  0  0  0  0  0  0  0  0
   17.4320  -11.7517  -15.3658 C   0  0  2  0  0  0  0  0  0  0  0  0
   17.9223  -11.4695  -16.7022 N   0  0  0  0  0  0  0  0  0  0  0  0
   17.2183  -10.4650  -14.6245 C   0  0  0  0  0  0  0  0  0  0  0  0
   18.0568   -9.5399  -14.7617 O   0  0  0  0  0  0  0  0  0  0  0  0
   14.4925   -9.0683  -12.4705 C   0  0  0  0  0  0  0  0  0  0  0  0
   15.8735   -8.9952  -13.0729 C   0  0  2  0  0  0  0  0  0  0  0  0
   16.1176  -10.2376  -13.7754 N   0  0  0  0  0  0  0  0  0  0  0  0
   16.9219   -8.7149  -12.0616 C   0  0  0  0  0  0  0  0  0  0  0  0
   17.3961   -9.6536  -11.3725 O   0  0  0  0  0  0  0  0  0  0  0  0
   17.4391   -7.4162  -11.8148 N   0  0  0  0  0  0  0  0  0  0  0  0
   18.4907   -7.1298  -10.8541 C   0  0  1  0  0  0  0  0  0  0  0  0
   19.7706   -6.9004  -11.5999 C   0  0  0  0  0  0  0  0  0  0  0  0
   20.1354   -5.4732  -11.8148 C   0  0  0  0  0  0  0  0  0  0  0  0
   21.4067   -5.2763  -12.5433 C   0  0  0  0  0  0  0  0  0  0  0  0
   22.3607   -6.0906  -12.5670 O   0  0  0  0  0  0  0  0  0  0  0  0
   18.1174   -5.9821   -9.9795 C   0  0  0  0  0  0  0  0  0  0  0  0
   17.2188   -5.1490  -10.3102 O   0  0  0  0  0  0  0  0  0  0  0  0
   21.5636   -4.0999  -13.2595 O   0  0  0  0  0  0  0  0  0  0  0  0
   18.7372   -5.7709   -8.7591 O   0  0  0  0  0  0  0  0  0  0  0  0
  1  2  1  0
  2  3  1  0
  3  4  1  6
  5  3  1  0
  5  6  2  0
  8  7  1  1
  8 10  1  0
  8  9  1  0
  9  5  1  0
 10 12  1  0
 11 10  2  0
 12 13  1  0
 13 14  1  6
 14 15  1  0
 15 16  1  0
 16 20  1  0
 17 16  2  0
 18 13  1  0
 19 18  2  0
 21 18  1  0
M  END
$$$$
