SAE.pdb
     RDKit          3D

 21 20  0  0  1  0  0  0  0  0999 V2000
   15.3082  -11.7006  -12.8119 O   0  0  0  0  0  0  0  0  0  0  0  0
   16.1635  -10.6922  -13.2127 C   0  0  0  0  0  0  0  0  0  0  0  0
   15.5643  -10.0362  -14.4383 C   0  0  2  0  0  0  0  0  0  0  0  0
   15.6163  -11.0080  -15.5148 N   0  0  0  0  0  0  0  0  0  0  0  0
   16.4373   -8.8633  -14.7746 C   0  0  0  0  0  0  0  0  0  0  0  0
   17.4864   -9.0587  -15.4371 O   0  0  0  0  0  0  0  0  0  0  0  0
   16.2341   -5.1596  -14.2412 C   0  0  0  0  0  0  0  0  0  0  0  0
   16.9756   -6.3981  -14.6786 C   0  0  2  0  0  0  0  0  0  0  0  0
   16.1400   -7.5432  -14.3834 N   0  0  0  0  0  0  0  0  0  0  0  0
   18.3145   -6.5121  -14.0501 C   0  0  0  0  0  0  0  0  0  0  0  0
   18.4201   -6.9342  -12.8704 O   0  0  0  0  0  0  0  0  0  0  0  0
   19.5195   -6.1648  -14.7150 N   0  0  0  0  0  0  0  0  0  0  0  0
   20.8438   -6.3566  -14.1492 C   0  0  1  0  0  0  0  0  0  0  0  0
   21.6085   -7.2987  -15.0296 C   0  0  0  0  0  0  0  0  0  0  0  0
   23.0017   -7.5892  -14.5930 C   0  0  0  0  0  0  0  0  0  0  0  0
   23.7258   -8.5350  -15.4687 C   0  0  0  0  0  0  0  0  0  0  0  0
   24.1800   -8.2648  -16.6065 O   0  0  0  0  0  0  0  0  0  0  0  0
   21.5378   -5.0514  -13.9587 C   0  0  0  0  0  0  0  0  0  0  0  0
   21.2728   -4.0379  -14.6753 O   0  0  0  0  0  0  0  0  0  0  0  0
   23.9219   -9.8252  -15.0013 O   0  0  0  0  0  0  0  0  0  0  0  0
   22.5087   -4.8835  -12.9855 O   0  0  0  0  0  0  0  0  0  0  0  0
  1  2  1  0
  2  3  1  0
  3  4  1  6
  5  3  1  0
  5  6  2  0
  8  7  1  1
  8 10  1  0
  8  9  1  0
  9  5  1  0
 10 12  1  0
 11 10  2  0
 12 13  1  0
 13 14  1  6
 14 15  1  0
 15 16  1  0
 16 20  1  0
 17 16  2  0
 18 13  1  0
 19 18  2  0
 21 18  1  0
M  END
$$$$
