SAE.pdb
     RDKit          3D

 21 20  0  0  1  0  0  0  0  0999 V2000
   19.9957   -9.6410  -19.7481 O   0  0  0  0  0  0  0  0  0  0  0  0
   20.7385  -10.7991  -19.8746 C   0  0  0  0  0  0  0  0  0  0  0  0
   20.4133  -11.6895  -18.6943 C   0  0  2  0  0  0  0  0  0  0  0  0
   18.9797  -11.9146  -18.7080 N   0  0  0  0  0  0  0  0  0  0  0  0
   20.7929  -10.9289  -17.4581 C   0  0  0  0  0  0  0  0  0  0  0  0
   19.9125  -10.2572  -16.8653 O   0  0  0  0  0  0  0  0  0  0  0  0
   23.9004  -10.5628  -15.3992 C   0  0  0  0  0  0  0  0  0  0  0  0
   22.5116  -10.1246  -15.7920 C   0  0  2  0  0  0  0  0  0  0  0  0
   22.0958  -10.9283  -16.9225 N   0  0  0  0  0  0  0  0  0  0  0  0
   22.4342   -8.6726  -16.0857 C   0  0  0  0  0  0  0  0  0  0  0  0
   22.4246   -8.2731  -17.2779 O   0  0  0  0  0  0  0  0  0  0  0  0
   22.3685   -7.6760  -15.0770 N   0  0  0  0  0  0  0  0  0  0  0  0
   22.1216   -6.2687  -15.3405 C   0  0  1  0  0  0  0  0  0  0  0  0
   20.7752   -6.1317  -15.9854 C   0  0  0  0  0  0  0  0  0  0  0  0
   20.3076   -4.7337  -16.1922 C   0  0  0  0  0  0  0  0  0  0  0  0
   18.9139   -4.6264  -16.6737 C   0  0  0  0  0  0  0  0  0  0  0  0
   18.1586   -5.5960  -16.9251 O   0  0  0  0  0  0  0  0  0  0  0  0
   22.2507   -5.4612  -14.0944 C   0  0  0  0  0  0  0  0  0  0  0  0
   22.0723   -5.9665  -12.9439 O   0  0  0  0  0  0  0  0  0  0  0  0
   18.3939   -3.3557  -16.8647 O   0  0  0  0  0  0  0  0  0  0  0  0
   22.5732   -4.1149  -14.1350 O   0  0  0  0  0  0  0  0  0  0  0  0
  1  2  1  0
  2  3  1  0
  3  4  1  1
  5  3  1  0
  5  6  2  0
  8  7  1  6
  8 10  1  0
  8  9  1  0
  9  5  1  0
 10 12  1  0
 11 10  2  0
 12 13  1  0
 13 14  1  1
 14 15  1  0
 15 16  1  0
 16 20  1  0
 17 16  2  0
 18 13  1  0
 19 18  2  0
 21 18  1  0
M  END
$$$$
