SAE.pdb
     RDKit          3D

 21 20  0  0  1  0  0  0  0  0999 V2000
   17.8493  -11.8345  -19.3692 O   0  0  0  0  0  0  0  0  0  0  0  0
   18.3124  -10.9915  -18.3772 C   0  0  0  0  0  0  0  0  0  0  0  0
   19.2984  -11.7687  -17.5316 C   0  0  2  0  0  0  0  0  0  0  0  0
   18.5530  -12.8120  -16.8520 N   0  0  0  0  0  0  0  0  0  0  0  0
   19.8574  -10.8091  -16.5228 C   0  0  0  0  0  0  0  0  0  0  0  0
   19.0740  -10.0227  -15.9352 O   0  0  0  0  0  0  0  0  0  0  0  0
   23.1672  -10.3761  -14.8522 C   0  0  0  0  0  0  0  0  0  0  0  0
   21.7798   -9.8800  -15.1746 C   0  0  2  0  0  0  0  0  0  0  0  0
   21.2263  -10.7430  -16.1971 N   0  0  0  0  0  0  0  0  0  0  0  0
   21.7657   -8.4546  -15.5849 C   0  0  0  0  0  0  0  0  0  0  0  0
   22.1237   -8.1323  -16.7464 O   0  0  0  0  0  0  0  0  0  0  0  0
   21.3619   -7.4000  -14.7248 N   0  0  0  0  0  0  0  0  0  0  0  0
   21.4097   -5.9936  -15.0861 C   0  0  1  0  0  0  0  0  0  0  0  0
   20.0065   -5.4717  -15.1641 C   0  0  0  0  0  0  0  0  0  0  0  0
   19.2000   -5.9816  -16.3067 C   0  0  0  0  0  0  0  0  0  0  0  0
   17.8826   -6.5303  -15.9208 C   0  0  0  0  0  0  0  0  0  0  0  0
   17.4982   -7.7056  -16.1324 O   0  0  0  0  0  0  0  0  0  0  0  0
   22.2601   -5.2256  -14.1330 C   0  0  0  0  0  0  0  0  0  0  0  0
   22.6658   -5.7264  -13.0397 O   0  0  0  0  0  0  0  0  0  0  0  0
   16.9965   -5.6838  -15.2730 O   0  0  0  0  0  0  0  0  0  0  0  0
   22.6489   -3.9231  -14.3982 O   0  0  0  0  0  0  0  0  0  0  0  0
  1  2  1  0
  2  3  1  0
  3  4  1  1
  5  3  1  0
  5  6  2  0
  8  7  1  6
  8 10  1  0
  8  9  1  0
  9  5  1  0
 10 12  1  0
 11 10  2  0
 12 13  1  0
 13 14  1  1
 14 15  1  0
 15 16  1  0
 16 20  1  0
 17 16  2  0
 18 13  1  0
 19 18  2  0
 21 18  1  0
M  END
$$$$
