SAE.pdb
     RDKit          3D

 21 20  0  0  1  0  0  0  0  0999 V2000
   19.1901  -14.1955  -16.8046 O   0  0  0  0  0  0  0  0  0  0  0  0
   19.1273  -13.0619  -16.0171 C   0  0  0  0  0  0  0  0  0  0  0  0
   19.8237  -11.9422  -16.7606 C   0  0  2  0  0  0  0  0  0  0  0  0
   20.9227  -12.5354  -17.4996 N   0  0  0  0  0  0  0  0  0  0  0  0
   20.3624  -11.0009  -15.7239 C   0  0  0  0  0  0  0  0  0  0  0  0
   19.5555  -10.4081  -14.9655 O   0  0  0  0  0  0  0  0  0  0  0  0
   23.7432  -10.0979  -14.4286 C   0  0  0  0  0  0  0  0  0  0  0  0
   22.2778   -9.7900  -14.6097 C   0  0  2  0  0  0  0  0  0  0  0  0
   21.7372  -10.7447  -15.5547 N   0  0  0  0  0  0  0  0  0  0  0  0
   22.0386   -8.3900  -15.0377 C   0  0  0  0  0  0  0  0  0  0  0  0
   22.1664   -8.0731  -16.2477 O   0  0  0  0  0  0  0  0  0  0  0  0
   21.6636   -7.3546  -14.1420 N   0  0  0  0  0  0  0  0  0  0  0  0
   21.4726   -5.9693  -14.5360 C   0  0  1  0  0  0  0  0  0  0  0  0
   20.0022   -5.6785  -14.5653 C   0  0  0  0  0  0  0  0  0  0  0  0
   19.6374   -4.2734  -14.8947 C   0  0  0  0  0  0  0  0  0  0  0  0
   18.1814   -4.0217  -14.9448 C   0  0  0  0  0  0  0  0  0  0  0  0
   17.5843   -3.1038  -14.3328 O   0  0  0  0  0  0  0  0  0  0  0  0
   22.2261   -5.0494  -13.6375 C   0  0  0  0  0  0  0  0  0  0  0  0
   22.5543   -5.3814  -12.4573 O   0  0  0  0  0  0  0  0  0  0  0  0
   17.4085   -4.8638  -15.7291 O   0  0  0  0  0  0  0  0  0  0  0  0
   22.6050   -3.7833  -14.0515 O   0  0  0  0  0  0  0  0  0  0  0  0
  1  2  1  0
  2  3  1  0
  3  4  1  1
  5  3  1  0
  5  6  2  0
  8  7  1  6
  8 10  1  0
  8  9  1  0
  9  5  1  0
 10 12  1  0
 11 10  2  0
 12 13  1  0
 13 14  1  1
 14 15  1  0
 15 16  1  0
 16 20  1  0
 17 16  2  0
 18 13  1  0
 19 18  2  0
 21 18  1  0
M  END
$$$$
