SAE.pdb
     RDKit          3D

 21 20  0  0  1  0  0  0  0  0999 V2000
   18.7704  -12.1413  -17.3087 O   0  0  0  0  0  0  0  0  0  0  0  0
   19.9645  -12.5007  -17.9039 C   0  0  0  0  0  0  0  0  0  0  0  0
   20.8669  -13.0660  -16.8280 C   0  0  2  0  0  0  0  0  0  0  0  0
   20.0449  -13.9030  -15.9737 N   0  0  0  0  0  0  0  0  0  0  0  0
   21.3886  -11.9001  -16.0411 C   0  0  0  0  0  0  0  0  0  0  0  0
   20.6284  -11.3379  -15.2142 O   0  0  0  0  0  0  0  0  0  0  0  0
   24.6686  -10.1043  -15.7936 C   0  0  0  0  0  0  0  0  0  0  0  0
   23.1886  -10.2072  -15.5209 C   0  0  2  0  0  0  0  0  0  0  0  0
   22.6973  -11.3983  -16.1817 N   0  0  0  0  0  0  0  0  0  0  0  0
   22.4463   -8.9937  -15.9415 C   0  0  0  0  0  0  0  0  0  0  0  0
   21.8023   -8.9948  -17.0214 O   0  0  0  0  0  0  0  0  0  0  0  0
   22.4156   -7.7961  -15.1802 N   0  0  0  0  0  0  0  0  0  0  0  0
   21.5981   -6.6423  -15.5137 C   0  0  1  0  0  0  0  0  0  0  0  0
   20.1612   -7.0681  -15.5489 C   0  0  0  0  0  0  0  0  0  0  0  0
   19.1764   -5.9701  -15.7503 C   0  0  0  0  0  0  0  0  0  0  0  0
   18.2485   -6.1887  -16.8804 C   0  0  0  0  0  0  0  0  0  0  0  0
   18.3937   -5.7231  -18.0362 O   0  0  0  0  0  0  0  0  0  0  0  0
   21.8454   -5.5198  -14.5648 C   0  0  0  0  0  0  0  0  0  0  0  0
   21.7177   -4.3056  -14.9114 O   0  0  0  0  0  0  0  0  0  0  0  0
   17.1264   -6.9697  -16.6512 O   0  0  0  0  0  0  0  0  0  0  0  0
   22.2277   -5.7516  -13.2540 O   0  0  0  0  0  0  0  0  0  0  0  0
  1  2  1  0
  2  3  1  0
  3  4  1  1
  5  3  1  0
  5  6  2  0
  8  7  1  6
  8 10  1  0
  8  9  1  0
  9  5  1  0
 10 12  1  0
 11 10  2  0
 12 13  1  0
 13 14  1  1
 14 15  1  0
 15 16  1  0
 16 20  1  0
 17 16  2  0
 18 13  1  0
 19 18  2  0
 21 18  1  0
M  END
$$$$
