VEY.pdb
     RDKit          3D

 29 29  0  0  1  0  0  0  0  0999 V2000
   17.9627  -12.6076  -17.7249 C   0  0  0  0  0  0  0  0  0  0  0  0
   18.2501  -14.0204  -17.2803 C   0  0  1  0  0  0  0  0  0  0  0  0
   17.1010  -14.8936  -17.7543 C   0  0  0  0  0  0  0  0  0  0  0  0
   19.5081  -14.5732  -17.8933 C   0  0  2  0  0  0  0  0  0  0  0  0
   19.6602  -15.9394  -17.4415 N   0  0  0  0  0  0  0  0  0  0  0  0
   20.7112  -13.8119  -17.5684 C   0  0  0  0  0  0  0  0  0  0  0  0
   21.3202  -13.9030  -16.4569 O   0  0  0  0  0  0  0  0  0  0  0  0
   21.2405  -12.9186  -18.5345 N   0  0  0  0  0  0  0  0  0  0  0  0
   22.4526  -12.1254  -18.2711 C   0  0  1  0  0  0  0  0  0  0  0  0
   23.5682  -12.5233  -19.1552 C   0  0  0  0  0  0  0  0  0  0  0  0
   23.3202  -12.6639  -20.5941 C   0  0  0  0  0  0  0  0  0  0  0  0
   24.3855  -12.9793  -21.5147 C   0  0  0  0  0  0  0  0  0  0  0  0
   24.3049  -13.8004  -22.4384 O   0  0  0  0  0  0  0  0  0  0  0  0
   22.1564  -10.7119  -18.2023 C   0  0  0  0  0  0  0  0  0  0  0  0
   21.2234  -10.2116  -18.8657 O   0  0  0  0  0  0  0  0  0  0  0  0
   25.6436  -12.3382  -21.4100 O   0  0  0  0  0  0  0  0  0  0  0  0
   22.7890   -2.6047  -14.5564 O   0  0  0  0  0  0  0  0  0  0  0  0
   22.9079   -3.9497  -14.8953 C   0  0  0  0  0  0  0  0  0  0  0  0
   22.0173   -4.8748  -14.4370 C   0  0  0  0  0  0  0  0  0  0  0  0
   22.1777   -6.2158  -14.8047 C   0  0  0  0  0  0  0  0  0  0  0  0
   23.2217   -6.6060  -15.6206 C   0  0  0  0  0  0  0  0  0  0  0  0
   23.3499   -8.0114  -15.9743 C   0  0  0  0  0  0  0  0  0  0  0  0
   22.7175   -8.4186  -17.2804 C   0  0  2  0  0  0  0  0  0  0  0  0
   22.9296   -9.8726  -17.3631 N   0  0  0  0  0  0  0  0  0  0  0  0
   23.4047   -7.7477  -18.4069 C   0  0  0  0  0  0  0  0  0  0  0  0
   22.8839   -6.6005  -18.9846 O   0  0  0  0  0  0  0  0  0  0  0  0
   24.1190   -5.6570  -16.0791 C   0  0  0  0  0  0  0  0  0  0  0  0
   23.9577   -4.3370  -15.7149 C   0  0  0  0  0  0  0  0  0  0  0  0
   24.4801   -8.1976  -18.8736 O   0  0  0  0  0  0  0  0  0  0  0  0
  2  1  1  6
  3  2  1  0
  4  2  1  0
  4  5  1  1
  6  4  1  0
  7  6  2  0
  8  6  1  0
  9  8  1  0
 10 11  1  0
  9 10  1  6
 12 16  1  0
 12 11  1  0
 13 12  2  0
 14 24  1  0
 14  9  1  0
 15 14  2  0
 18 17  1  0
 19 18  2  0
 20 19  1  0
 21 27  1  0
 21 20  2  0
 23 22  1  1
 22 21  1  0
 23 25  1  0
 23 24  1  0
 25 26  1  0
 27 28  2  0
 28 18  1  0
 29 25  2  0
M  END
$$$$
