VEY.pdb
     RDKit          3D

 29 29  0  0  1  0  0  0  0  0999 V2000
   21.4695  -15.8350  -15.1396 C   0  0  0  0  0  0  0  0  0  0  0  0
   21.3505  -14.3372  -15.2755 C   0  0  1  0  0  0  0  0  0  0  0  0
   22.6028  -13.7208  -14.6763 C   0  0  0  0  0  0  0  0  0  0  0  0
   21.2815  -13.8922  -16.7111 C   0  0  2  0  0  0  0  0  0  0  0  0
   22.4657  -14.3790  -17.3853 N   0  0  0  0  0  0  0  0  0  0  0  0
   21.1802  -12.4452  -16.8801 C   0  0  0  0  0  0  0  0  0  0  0  0
   22.1566  -11.7093  -17.2261 O   0  0  0  0  0  0  0  0  0  0  0  0
   19.9321  -11.8125  -16.6492 N   0  0  0  0  0  0  0  0  0  0  0  0
   19.7231  -10.3853  -16.9446 C   0  0  1  0  0  0  0  0  0  0  0  0
   18.3735  -10.1331  -17.4918 C   0  0  0  0  0  0  0  0  0  0  0  0
   18.0132  -10.7106  -18.7911 C   0  0  0  0  0  0  0  0  0  0  0  0
   16.6425  -11.0089  -19.1288 C   0  0  0  0  0  0  0  0  0  0  0  0
   16.2853  -11.7535  -20.0518 O   0  0  0  0  0  0  0  0  0  0  0  0
   20.1384   -9.5492  -15.8406 C   0  0  0  0  0  0  0  0  0  0  0  0
   19.8037   -9.8121  -14.6660 O   0  0  0  0  0  0  0  0  0  0  0  0
   15.5769  -10.4409  -18.3896 O   0  0  0  0  0  0  0  0  0  0  0  0
   26.1919  -11.8477  -15.1466 O   0  0  0  0  0  0  0  0  0  0  0  0
   25.3825  -10.7168  -15.2096 C   0  0  0  0  0  0  0  0  0  0  0  0
   25.4796   -9.8358  -16.2457 C   0  0  0  0  0  0  0  0  0  0  0  0
   24.6445   -8.7127  -16.2658 C   0  0  0  0  0  0  0  0  0  0  0  0
   23.7310   -8.4917  -15.2535 C   0  0  0  0  0  0  0  0  0  0  0  0
   22.8856   -7.3093  -15.3156 C   0  0  0  0  0  0  0  0  0  0  0  0
   21.4264   -7.5304  -15.0100 C   0  0  2  0  0  0  0  0  0  0  0  0
   20.9468   -8.4123  -16.0863 N   0  0  0  0  0  0  0  0  0  0  0  0
   20.6982   -6.2426  -15.0563 C   0  0  0  0  0  0  0  0  0  0  0  0
   19.8505   -5.9347  -16.1088 O   0  0  0  0  0  0  0  0  0  0  0  0
   23.6424   -9.3938  -14.2074 C   0  0  0  0  0  0  0  0  0  0  0  0
   24.4666  -10.4989  -14.1910 C   0  0  0  0  0  0  0  0  0  0  0  0
   20.8263   -5.3896  -14.1437 O   0  0  0  0  0  0  0  0  0  0  0  0
  2  1  1  6
  3  2  1  0
  4  2  1  0
  4  5  1  6
  6  4  1  0
  7  6  2  0
  8  6  1  0
  9  8  1  0
 10 11  1  0
  9 10  1  1
 12 16  1  0
 12 11  1  0
 13 12  2  0
 14 24  1  0
 14  9  1  0
 15 14  2  0
 18 17  1  0
 19 18  2  0
 20 19  1  0
 21 27  1  0
 21 20  2  0
 23 22  1  6
 22 21  1  0
 23 25  1  0
 23 24  1  0
 25 26  1  0
 27 28  2  0
 28 18  1  0
 29 25  2  0
M  END
$$$$
