VEY.pdb
     RDKit          3D

 29 29  0  0  1  0  0  0  0  0999 V2000
   37.3327  -28.1581  -20.8087 C   0  0  0  0  0  0  0  0  0  0  0  0
   36.7180  -29.3534  -20.1234 C   0  0  1  0  0  0  0  0  0  0  0  0
   35.2284  -29.3372  -20.4205 C   0  0  0  0  0  0  0  0  0  0  0  0
   37.2589  -30.6575  -20.6434 C   0  0  2  0  0  0  0  0  0  0  0  0
   37.0750  -30.6749  -22.0787 N   0  0  0  0  0  0  0  0  0  0  0  0
   36.6324  -31.8376  -20.0540 C   0  0  0  0  0  0  0  0  0  0  0  0
   35.6134  -32.4125  -20.5498 O   0  0  0  0  0  0  0  0  0  0  0  0
   37.1786  -32.3831  -18.8642 N   0  0  0  0  0  0  0  0  0  0  0  0
   36.5759  -33.5522  -18.2027 C   0  0  1  0  0  0  0  0  0  0  0  0
   37.5981  -34.3981  -17.5515 C   0  0  0  0  0  0  0  0  0  0  0  0
   37.3056  -35.8168  -17.3205 C   0  0  0  0  0  0  0  0  0  0  0  0
   37.2153  -36.3598  -15.9867 C   0  0  0  0  0  0  0  0  0  0  0  0
   36.4224  -37.2429  -15.6326 O   0  0  0  0  0  0  0  0  0  0  0  0
   35.4389  -33.1754  -17.3930 C   0  0  0  0  0  0  0  0  0  0  0  0
   35.3074  -32.0103  -16.9615 O   0  0  0  0  0  0  0  0  0  0  0  0
   38.0680  -35.8923  -14.9577 O   0  0  0  0  0  0  0  0  0  0  0  0
   27.2239  -31.5447  -15.7491 O   0  0  0  0  0  0  0  0  0  0  0  0
   28.5288  -31.8437  -16.1305 C   0  0  0  0  0  0  0  0  0  0  0  0
   29.1298  -31.1891  -17.1647 C   0  0  0  0  0  0  0  0  0  0  0  0
   30.4437  -31.5243  -17.5119 C   0  0  0  0  0  0  0  0  0  0  0  0
   31.1302  -32.5041  -16.8215 C   0  0  0  0  0  0  0  0  0  0  0  0
   32.4934  -32.8204  -17.2197 C   0  0  0  0  0  0  0  0  0  0  0  0
   33.2205  -33.8058  -16.3414 C   0  0  2  0  0  0  0  0  0  0  0  0
   34.4466  -34.1381  -17.0848 N   0  0  0  0  0  0  0  0  0  0  0  0
   32.3998  -35.0242  -16.1594 C   0  0  0  0  0  0  0  0  0  0  0  0
   32.7219  -36.2093  -16.8019 O   0  0  0  0  0  0  0  0  0  0  0  0
   30.5088  -33.1611  -15.7736 C   0  0  0  0  0  0  0  0  0  0  0  0
   29.2145  -32.8282  -15.4345 C   0  0  0  0  0  0  0  0  0  0  0  0
   31.3866  -35.0212  -15.4176 O   0  0  0  0  0  0  0  0  0  0  0  0
  2  1  1  6
  3  2  1  0
  4  2  1  0
  4  5  1  6
  6  4  1  0
  7  6  2  0
  8  6  1  0
  9  8  1  0
 10 11  1  0
  9 10  1  1
 12 16  1  0
 12 11  1  0
 13 12  2  0
 14 24  1  0
 14  9  1  0
 15 14  2  0
 18 17  1  0
 19 18  2  0
 20 19  1  0
 21 27  1  0
 21 20  2  0
 23 22  1  6
 22 21  1  0
 23 25  1  0
 23 24  1  0
 25 26  1  0
 27 28  2  0
 28 18  1  0
 29 25  2  0
M  END
$$$$
