VEY.pdb
     RDKit          3D

 29 29  0  0  1  0  0  0  0  0999 V2000
   15.1320   -6.4300  -15.2191 C   0  0  0  0  0  0  0  0  0  0  0  0
   14.6949   -7.6534  -14.4521 C   0  0  1  0  0  0  0  0  0  0  0  0
   13.3641   -8.1054  -15.0283 C   0  0  0  0  0  0  0  0  0  0  0  0
   15.6553   -8.8019  -14.6024 C   0  0  2  0  0  0  0  0  0  0  0  0
   15.1392   -9.9166  -13.8377 N   0  0  0  0  0  0  0  0  0  0  0  0
   17.0166   -8.4981  -14.1698 C   0  0  0  0  0  0  0  0  0  0  0  0
   17.3875   -8.5183  -12.9547 O   0  0  0  0  0  0  0  0  0  0  0  0
   17.9882   -8.1605  -15.1463 N   0  0  0  0  0  0  0  0  0  0  0  0
   19.3486   -7.7416  -14.7698 C   0  0  1  0  0  0  0  0  0  0  0  0
   20.3494   -8.7785  -15.0978 C   0  0  0  0  0  0  0  0  0  0  0  0
   21.7633   -8.5206  -14.8048 C   0  0  0  0  0  0  0  0  0  0  0  0
   22.7861   -9.4894  -15.1167 C   0  0  0  0  0  0  0  0  0  0  0  0
   23.6368   -9.3609  -16.0076 O   0  0  0  0  0  0  0  0  0  0  0  0
   19.6356   -6.4003  -15.2267 C   0  0  0  0  0  0  0  0  0  0  0  0
   19.3556   -6.0370  -16.3888 O   0  0  0  0  0  0  0  0  0  0  0  0
   22.8804  -10.6996  -14.3879 O   0  0  0  0  0  0  0  0  0  0  0  0
   20.7721    2.2983  -14.4496 O   0  0  0  0  0  0  0  0  0  0  0  0
   20.6106    0.9302  -14.2493 C   0  0  0  0  0  0  0  0  0  0  0  0
   19.4119    0.3203  -14.4735 C   0  0  0  0  0  0  0  0  0  0  0  0
   19.2976   -1.0580  -14.2582 C   0  0  0  0  0  0  0  0  0  0  0  0
   20.3798   -1.7987  -13.8241 C   0  0  0  0  0  0  0  0  0  0  0  0
   20.2131   -3.2283  -13.6115 C   0  0  0  0  0  0  0  0  0  0  0  0
   20.6245   -4.1137  -14.7597 C   0  0  2  0  0  0  0  0  0  0  0  0
   20.2390   -5.4718  -14.3434 N   0  0  0  0  0  0  0  0  0  0  0  0
   22.0907   -4.0462  -14.9514 C   0  0  0  0  0  0  0  0  0  0  0  0
   22.6458   -3.3204  -15.9935 O   0  0  0  0  0  0  0  0  0  0  0  0
   21.5911   -1.1675  -13.6003 C   0  0  0  0  0  0  0  0  0  0  0  0
   21.6999    0.1903  -13.8135 C   0  0  0  0  0  0  0  0  0  0  0  0
   22.8764   -4.6448  -14.1760 O   0  0  0  0  0  0  0  0  0  0  0  0
  2  1  1  6
  3  2  1  0
  4  2  1  0
  4  5  1  1
  6  4  1  0
  7  6  2  0
  8  6  1  0
  9  8  1  0
 10 11  1  0
  9 10  1  6
 12 16  1  0
 12 11  1  0
 13 12  2  0
 14 24  1  0
 14  9  1  0
 15 14  2  0
 18 17  1  0
 19 18  2  0
 20 19  1  0
 21 27  1  0
 21 20  2  0
 23 22  1  1
 22 21  1  0
 23 25  1  0
 23 24  1  0
 25 26  1  0
 27 28  2  0
 28 18  1  0
 29 25  2  0
M  END
$$$$
