PMQ.pdb
     RDKit          3D

 25 25  0  0  1  0  0  0  0  0999 V2000
   27.6651  -19.1999  -14.9567 N   0  0  0  0  0  0  0  0  0  0  0  0
   28.6259  -18.9435  -16.0409 C   0  0  0  0  0  0  0  0  0  0  0  0
   29.4781  -20.2000  -16.0827 C   0  0  0  0  0  0  0  0  0  0  0  0
   28.7255  -21.2190  -15.2156 C   0  0  0  0  0  0  0  0  0  0  0  0
   27.3420  -20.5875  -15.2087 C   0  0  1  0  0  0  0  0  0  0  0  0
   26.4465  -21.1649  -14.2022 C   0  0  0  0  0  0  0  0  0  0  0  0
   26.0064  -22.3295  -14.3715 O   0  0  0  0  0  0  0  0  0  0  0  0
   27.2120  -20.0601   -7.4836 C   0  0  0  0  0  0  0  0  0  0  0  0
   26.0926  -21.2329   -8.2494 S   0  0  0  0  0  0  0  0  0  0  0  0
   25.0333  -20.4605   -9.4941 C   0  0  0  0  0  0  0  0  0  0  0  0
   25.7612  -20.3271  -10.7661 C   0  0  0  0  0  0  0  0  0  0  0  0
   25.1991  -20.9852  -11.9906 C   0  0  2  0  0  0  0  0  0  0  0  0
   26.0824  -20.4398  -13.0693 N   0  0  0  0  0  0  0  0  0  0  0  0
   23.8105  -20.6263  -12.3461 C   0  0  0  0  0  0  0  0  0  0  0  0
   23.5674  -19.4485  -12.7512 O   0  0  0  0  0  0  0  0  0  0  0  0
   20.4490  -23.8804  -15.7331 N   0  0  0  0  0  0  0  0  0  0  0  0
   20.4929  -22.5110  -16.0796 C   0  0  0  0  0  0  0  0  0  0  0  0
   20.4035  -22.1131  -17.2789 O   0  0  0  0  0  0  0  0  0  0  0  0
   20.6407  -21.4850  -15.0233 C   0  0  0  0  0  0  0  0  0  0  0  0
   20.7711  -21.9985  -13.6412 C   0  0  0  0  0  0  0  0  0  0  0  0
   21.3350  -21.0304  -12.6576 C   0  0  2  0  0  0  0  0  0  0  0  0
   22.6945  -21.4997  -12.2866 N   0  0  0  0  0  0  0  0  0  0  0  0
   20.5283  -20.8188  -11.4953 C   0  0  0  0  0  0  0  0  0  0  0  0
   19.4911  -19.8694  -11.4678 O   0  0  0  0  0  0  0  0  0  0  0  0
   20.6999  -21.4546  -10.4307 O   0  0  0  0  0  0  0  0  0  0  0  0
  1  5  1  0
  1  2  1  0
  2  3  1  0
  4  5  1  0
  4  3  1  0
  5  6  1  1
  6 13  1  0
  6  7  2  0
  8  9  1  0
  9 10  1  0
 11 10  1  0
 12 11  1  1
 12 14  1  0
 13 12  1  0
 14 15  2  0
 16 17  1  0
 17 19  1  0
 17 18  2  0
 19 20  1  0
 21 20  1  6
 22 21  1  0
 22 14  1  0
 23 24  1  0
 23 21  1  0
 25 23  2  0
M  END
$$$$
