PMQ.pdb
     RDKit          3D

 25 25  0  0  1  0  0  0  0  0999 V2000
   27.7994  -18.9846  -14.7250 N   0  0  0  0  0  0  0  0  0  0  0  0
   28.6454  -18.5997  -15.8654 C   0  0  0  0  0  0  0  0  0  0  0  0
   29.5719  -19.7882  -16.0545 C   0  0  0  0  0  0  0  0  0  0  0  0
   28.9647  -20.9056  -15.1946 C   0  0  0  0  0  0  0  0  0  0  0  0
   27.5482  -20.3751  -15.0360 C   0  0  1  0  0  0  0  0  0  0  0  0
   26.7817  -21.0708  -13.9983 C   0  0  0  0  0  0  0  0  0  0  0  0
   26.3830  -22.2424  -14.2146 O   0  0  0  0  0  0  0  0  0  0  0  0
   27.9247  -20.8673   -7.3153 C   0  0  0  0  0  0  0  0  0  0  0  0
   26.5327  -19.8721   -7.8509 S   0  0  0  0  0  0  0  0  0  0  0  0
   25.5943  -20.6608   -9.1797 C   0  0  0  0  0  0  0  0  0  0  0  0
   26.2846  -20.4752  -10.4660 C   0  0  0  0  0  0  0  0  0  0  0  0
   25.6946  -21.0963  -11.6968 C   0  0  2  0  0  0  0  0  0  0  0  0
   26.4940  -20.4493  -12.7847 N   0  0  0  0  0  0  0  0  0  0  0  0
   24.2737  -20.7923  -11.9651 C   0  0  0  0  0  0  0  0  0  0  0  0
   23.9611  -19.6274  -12.3598 O   0  0  0  0  0  0  0  0  0  0  0  0
   20.6544  -25.0765  -14.5480 N   0  0  0  0  0  0  0  0  0  0  0  0
   19.8547  -23.9174  -14.6669 C   0  0  0  0  0  0  0  0  0  0  0  0
   18.7849  -23.8998  -15.3449 O   0  0  0  0  0  0  0  0  0  0  0  0
   20.2546  -22.6692  -13.9797 C   0  0  0  0  0  0  0  0  0  0  0  0
   21.5243  -22.7304  -13.2214 C   0  0  0  0  0  0  0  0  0  0  0  0
   21.9029  -21.4709  -12.5193 C   0  0  2  0  0  0  0  0  0  0  0  0
   23.1976  -21.7064  -11.8304 N   0  0  0  0  0  0  0  0  0  0  0  0
   20.9181  -20.9732  -11.6087 C   0  0  0  0  0  0  0  0  0  0  0  0
   21.1614  -20.8697  -10.2275 O   0  0  0  0  0  0  0  0  0  0  0  0
   19.7792  -20.6097  -11.9801 O   0  0  0  0  0  0  0  0  0  0  0  0
  1  5  1  0
  1  2  1  0
  2  3  1  0
  4  5  1  0
  4  3  1  0
  5  6  1  1
  6 13  1  0
  6  7  2  0
  8  9  1  0
  9 10  1  0
 11 10  1  0
 12 11  1  1
 12 14  1  0
 13 12  1  0
 14 15  2  0
 16 17  1  0
 17 19  1  0
 17 18  2  0
 19 20  1  0
 21 20  1  1
 22 21  1  0
 22 14  1  0
 23 24  1  0
 23 21  1  0
 25 23  2  0
M  END
$$$$
