PMQ.pdb
     RDKit          3D

 25 25  0  0  1  0  0  0  0  0999 V2000
   27.6189  -18.7806  -14.7158 N   0  0  0  0  0  0  0  0  0  0  0  0
   28.6237  -18.2886  -15.6710 C   0  0  0  0  0  0  0  0  0  0  0  0
   29.7145  -19.3450  -15.6350 C   0  0  0  0  0  0  0  0  0  0  0  0
   29.0931  -20.5317  -14.8853 C   0  0  0  0  0  0  0  0  0  0  0  0
   27.6179  -20.1923  -15.0324 C   0  0  1  0  0  0  0  0  0  0  0  0
   26.7511  -20.9819  -14.1527 C   0  0  0  0  0  0  0  0  0  0  0  0
   26.5438  -22.1911  -14.4236 O   0  0  0  0  0  0  0  0  0  0  0  0
   26.6762  -18.9913   -7.9352 C   0  0  0  0  0  0  0  0  0  0  0  0
   26.3982  -20.7412   -8.2102 S   0  0  0  0  0  0  0  0  0  0  0  0
   26.6141  -21.2078   -9.9434 C   0  0  0  0  0  0  0  0  0  0  0  0
   25.5928  -20.5517  -10.7753 C   0  0  0  0  0  0  0  0  0  0  0  0
   25.2497  -21.1548  -12.1046 C   0  0  2  0  0  0  0  0  0  0  0  0
   26.1605  -20.4080  -13.0287 N   0  0  0  0  0  0  0  0  0  0  0  0
   23.8700  -20.9339  -12.5856 C   0  0  0  0  0  0  0  0  0  0  0  0
   23.5287  -19.7677  -12.9513 O   0  0  0  0  0  0  0  0  0  0  0  0
   19.8607  -25.1761  -15.0703 N   0  0  0  0  0  0  0  0  0  0  0  0
   19.0693  -24.0068  -15.0106 C   0  0  0  0  0  0  0  0  0  0  0  0
   17.8979  -23.9572  -15.4902 O   0  0  0  0  0  0  0  0  0  0  0  0
   19.6007  -22.7860  -14.3646 C   0  0  0  0  0  0  0  0  0  0  0  0
   20.9717  -22.8925  -13.8169 C   0  0  0  0  0  0  0  0  0  0  0  0
   21.5402  -21.6216  -13.2839 C   0  0  2  0  0  0  0  0  0  0  0  0
   22.8664  -21.9307  -12.6908 N   0  0  0  0  0  0  0  0  0  0  0  0
   20.7036  -20.9377  -12.3463 C   0  0  0  0  0  0  0  0  0  0  0  0
   19.6161  -20.1448  -12.7543 O   0  0  0  0  0  0  0  0  0  0  0  0
   20.8914  -20.9928  -11.1099 O   0  0  0  0  0  0  0  0  0  0  0  0
  1  5  1  0
  1  2  1  0
  2  3  1  0
  4  5  1  0
  4  3  1  0
  5  6  1  1
  6 13  1  0
  6  7  2  0
  8  9  1  0
  9 10  1  0
 11 10  1  0
 12 11  1  1
 12 14  1  0
 13 12  1  0
 14 15  2  0
 16 17  1  0
 17 19  1  0
 17 18  2  0
 19 20  1  0
 21 20  1  1
 22 21  1  0
 22 14  1  0
 23 24  1  0
 23 21  1  0
 25 23  2  0
M  END
$$$$
