PMQ.pdb
     RDKit          3D

 25 25  0  0  1  0  0  0  0  0999 V2000
   26.9473  -18.6327  -15.0753 N   0  0  0  0  0  0  0  0  0  0  0  0
   27.9947  -18.0506  -15.9287 C   0  0  0  0  0  0  0  0  0  0  0  0
   29.2648  -18.7566  -15.4865 C   0  0  0  0  0  0  0  0  0  0  0  0
   28.7856  -19.9294  -14.6195 C   0  0  0  0  0  0  0  0  0  0  0  0
   27.3400  -20.0251  -15.0824 C   0  0  1  0  0  0  0  0  0  0  0  0
   26.5085  -20.8652  -14.2157 C   0  0  0  0  0  0  0  0  0  0  0  0
   26.4682  -22.1040  -14.4211 O   0  0  0  0  0  0  0  0  0  0  0  0
   26.1153  -19.3214   -8.2264 C   0  0  0  0  0  0  0  0  0  0  0  0
   26.6658  -20.9842   -8.6098 S   0  0  0  0  0  0  0  0  0  0  0  0
   26.5054  -21.3736  -10.3679 C   0  0  0  0  0  0  0  0  0  0  0  0
   25.3171  -20.7097  -10.9270 C   0  0  0  0  0  0  0  0  0  0  0  0
   24.8514  -21.1001  -12.2979 C   0  0  2  0  0  0  0  0  0  0  0  0
   25.7689  -20.3065  -13.1751 N   0  0  0  0  0  0  0  0  0  0  0  0
   23.4705  -20.7127  -12.6537 C   0  0  0  0  0  0  0  0  0  0  0  0
   23.1968  -19.4812  -12.7918 O   0  0  0  0  0  0  0  0  0  0  0  0
   20.2629  -20.5108  -16.8472 N   0  0  0  0  0  0  0  0  0  0  0  0
   19.0969  -20.8726  -16.1352 C   0  0  0  0  0  0  0  0  0  0  0  0
   17.9360  -20.5597  -16.5339 O   0  0  0  0  0  0  0  0  0  0  0  0
   19.2076  -21.6503  -14.8810 C   0  0  0  0  0  0  0  0  0  0  0  0
   20.5848  -21.9382  -14.4217 C   0  0  0  0  0  0  0  0  0  0  0  0
   21.0525  -21.1149  -13.2701 C   0  0  2  0  0  0  0  0  0  0  0  0
   22.3949  -21.6110  -12.8724 N   0  0  0  0  0  0  0  0  0  0  0  0
   20.1612  -21.0882  -12.1514 C   0  0  0  0  0  0  0  0  0  0  0  0
   19.0937  -20.1766  -12.0676 O   0  0  0  0  0  0  0  0  0  0  0  0
   20.2802  -21.8638  -11.1761 O   0  0  0  0  0  0  0  0  0  0  0  0
  1  5  1  0
  1  2  1  0
  2  3  1  0
  4  5  1  0
  4  3  1  0
  5  6  1  1
  6 13  1  0
  6  7  2  0
  8  9  1  0
  9 10  1  0
 11 10  1  0
 12 11  1  1
 12 14  1  0
 13 12  1  0
 14 15  2  0
 16 17  1  0
 17 19  1  0
 17 18  2  0
 19 20  1  0
 21 20  1  6
 22 21  1  0
 22 14  1  0
 23 24  1  0
 23 21  1  0
 25 23  2  0
M  END
$$$$
