PMQ.pdb
     RDKit          3D

 25 25  0  0  1  0  0  0  0  0999 V2000
   27.2811  -18.2937  -15.7505 N   0  0  0  0  0  0  0  0  0  0  0  0
   28.1239  -17.6944  -16.7968 C   0  0  0  0  0  0  0  0  0  0  0  0
   29.4077  -18.5045  -16.7446 C   0  0  0  0  0  0  0  0  0  0  0  0
   29.0729  -19.7229  -15.8728 C   0  0  0  0  0  0  0  0  0  0  0  0
   27.5547  -19.6990  -15.9592 C   0  0  1  0  0  0  0  0  0  0  0  0
   26.9044  -20.5676  -14.9738 C   0  0  0  0  0  0  0  0  0  0  0  0
   26.9880  -21.8140  -15.1079 O   0  0  0  0  0  0  0  0  0  0  0  0
   25.8119  -20.4834   -7.3375 C   0  0  0  0  0  0  0  0  0  0  0  0
   26.5045  -20.0606   -8.9364 S   0  0  0  0  0  0  0  0  0  0  0  0
   25.5025  -20.6833  -10.3063 C   0  0  0  0  0  0  0  0  0  0  0  0
   26.1240  -20.3258  -11.5914 C   0  0  0  0  0  0  0  0  0  0  0  0
   25.5224  -20.8606  -12.8565 C   0  0  2  0  0  0  0  0  0  0  0  0
   26.2007  -20.0276  -13.8992 N   0  0  0  0  0  0  0  0  0  0  0  0
   24.0677  -20.6617  -13.0231 C   0  0  0  0  0  0  0  0  0  0  0  0
   23.6302  -19.4887  -13.2310 O   0  0  0  0  0  0  0  0  0  0  0  0
   19.6621  -24.8787  -14.8019 N   0  0  0  0  0  0  0  0  0  0  0  0
   18.8851  -23.7467  -14.4670 C   0  0  0  0  0  0  0  0  0  0  0  0
   17.6294  -23.7153  -14.6306 O   0  0  0  0  0  0  0  0  0  0  0  0
   19.5352  -22.5455  -13.8972 C   0  0  0  0  0  0  0  0  0  0  0  0
   20.9999  -22.6367  -13.7047 C   0  0  0  0  0  0  0  0  0  0  0  0
   21.6545  -21.3844  -13.2295 C   0  0  2  0  0  0  0  0  0  0  0  0
   23.0877  -21.6863  -12.9826 N   0  0  0  0  0  0  0  0  0  0  0  0
   21.0475  -20.7908  -12.0780 C   0  0  0  0  0  0  0  0  0  0  0  0
   20.0618  -19.7932  -12.1828 O   0  0  0  0  0  0  0  0  0  0  0  0
   21.3608  -21.1126  -10.9095 O   0  0  0  0  0  0  0  0  0  0  0  0
  1  5  1  0
  1  2  1  0
  2  3  1  0
  4  5  1  0
  4  3  1  0
  5  6  1  1
  6 13  1  0
  6  7  2  0
  8  9  1  0
  9 10  1  0
 11 10  1  0
 12 11  1  1
 12 14  1  0
 13 12  1  0
 14 15  2  0
 16 17  1  0
 17 19  1  0
 17 18  2  0
 19 20  1  0
 21 20  1  1
 22 21  1  0
 22 14  1  0
 23 24  1  0
 23 21  1  0
 25 23  2  0
M  END
$$$$
