PMQ.pdb
     RDKit          3D

 25 25  0  0  1  0  0  0  0  0999 V2000
   26.7215  -17.4731  -15.4112 N   0  0  0  0  0  0  0  0  0  0  0  0
   27.4428  -16.6526  -16.3965 C   0  0  0  0  0  0  0  0  0  0  0  0
   28.8276  -17.2744  -16.4505 C   0  0  0  0  0  0  0  0  0  0  0  0
   28.6902  -18.6139  -15.7133 C   0  0  0  0  0  0  0  0  0  0  0  0
   27.1815  -18.7953  -15.7764 C   0  0  1  0  0  0  0  0  0  0  0  0
   26.6864  -19.8472  -14.8838 C   0  0  0  0  0  0  0  0  0  0  0  0
   26.9549  -21.0466  -15.1442 O   0  0  0  0  0  0  0  0  0  0  0  0
   25.9874  -20.8597   -7.3066 C   0  0  0  0  0  0  0  0  0  0  0  0
   26.1735  -19.9046   -8.8126 S   0  0  0  0  0  0  0  0  0  0  0  0
   25.5636  -20.7882  -10.2671 C   0  0  0  0  0  0  0  0  0  0  0  0
   25.7905  -19.9851  -11.4793 C   0  0  0  0  0  0  0  0  0  0  0  0
   25.3966  -20.5583  -12.8078 C   0  0  2  0  0  0  0  0  0  0  0  0
   25.9274  -19.5311  -13.7587 N   0  0  0  0  0  0  0  0  0  0  0  0
   23.9461  -20.6762  -13.0641 C   0  0  0  0  0  0  0  0  0  0  0  0
   23.3019  -19.6431  -13.4223 O   0  0  0  0  0  0  0  0  0  0  0  0
   20.6732  -25.9030  -14.5737 N   0  0  0  0  0  0  0  0  0  0  0  0
   19.6711  -24.9070  -14.5421 C   0  0  0  0  0  0  0  0  0  0  0  0
   18.4649  -25.1506  -14.8424 O   0  0  0  0  0  0  0  0  0  0  0  0
   20.0147  -23.5245  -14.1408 C   0  0  0  0  0  0  0  0  0  0  0  0
   21.4291  -23.2948  -13.7701 C   0  0  0  0  0  0  0  0  0  0  0  0
   21.7542  -21.9022  -13.3486 C   0  0  2  0  0  0  0  0  0  0  0  0
   23.1862  -21.8689  -12.9558 N   0  0  0  0  0  0  0  0  0  0  0  0
   20.9224  -21.3817  -12.3075 C   0  0  0  0  0  0  0  0  0  0  0  0
   19.5995  -20.9675  -12.5441 O   0  0  0  0  0  0  0  0  0  0  0  0
   21.3205  -21.2526  -11.1277 O   0  0  0  0  0  0  0  0  0  0  0  0
  1  5  1  0
  1  2  1  0
  2  3  1  0
  4  5  1  0
  4  3  1  0
  5  6  1  1
  6 13  1  0
  6  7  2  0
  8  9  1  0
  9 10  1  0
 11 10  1  0
 12 11  1  1
 12 14  1  0
 13 12  1  0
 14 15  2  0
 16 17  1  0
 17 19  1  0
 17 18  2  0
 19 20  1  0
 21 20  1  1
 22 21  1  0
 22 14  1  0
 23 24  1  0
 23 21  1  0
 25 23  2  0
M  END
$$$$
