PMQ.pdb
     RDKit          3D

 25 25  0  0  1  0  0  0  0  0999 V2000
   27.4082  -19.6313  -14.9421 N   0  0  0  0  0  0  0  0  0  0  0  0
   28.2750  -19.5723  -16.1293 C   0  0  0  0  0  0  0  0  0  0  0  0
   29.2216  -20.7470  -15.9530 C   0  0  0  0  0  0  0  0  0  0  0  0
   28.6098  -21.5832  -14.8202 C   0  0  0  0  0  0  0  0  0  0  0  0
   27.1830  -21.0573  -14.8463 C   0  0  1  0  0  0  0  0  0  0  0  0
   26.4021  -21.4417  -13.6669 C   0  0  0  0  0  0  0  0  0  0  0  0
   25.6173  -22.4197  -13.7455 O   0  0  0  0  0  0  0  0  0  0  0  0
   26.9092  -19.9322   -5.9492 C   0  0  0  0  0  0  0  0  0  0  0  0
   27.4749  -20.0684   -7.6452 S   0  0  0  0  0  0  0  0  0  0  0  0
   26.1675  -20.6232   -8.7638 C   0  0  0  0  0  0  0  0  0  0  0  0
   26.6666  -20.6585  -10.1477 C   0  0  0  0  0  0  0  0  0  0  0  0
   25.7240  -21.0565  -11.2440 C   0  0  2  0  0  0  0  0  0  0  0  0
   26.5217  -20.7381  -12.4701 N   0  0  0  0  0  0  0  0  0  0  0  0
   24.4657  -20.2871  -11.3349 C   0  0  0  0  0  0  0  0  0  0  0  0
   24.5211  -19.0577  -11.6449 O   0  0  0  0  0  0  0  0  0  0  0  0
   22.9994  -20.9162  -16.1296 N   0  0  0  0  0  0  0  0  0  0  0  0
   21.7221  -20.4164  -15.7892 C   0  0  0  0  0  0  0  0  0  0  0  0
   20.8690  -20.0861  -16.6655 O   0  0  0  0  0  0  0  0  0  0  0  0
   21.3397  -20.2703  -14.3671 C   0  0  0  0  0  0  0  0  0  0  0  0
   22.3796  -20.6381  -13.3801 C   0  0  0  0  0  0  0  0  0  0  0  0
   22.0177  -20.3851  -11.9561 C   0  0  2  0  0  0  0  0  0  0  0  0
   23.1653  -20.8084  -11.1135 N   0  0  0  0  0  0  0  0  0  0  0  0
   20.8049  -21.0102  -11.5260 C   0  0  0  0  0  0  0  0  0  0  0  0
   19.5412  -20.4549  -11.7954 O   0  0  0  0  0  0  0  0  0  0  0  0
   20.7916  -22.0804  -10.8768 O   0  0  0  0  0  0  0  0  0  0  0  0
  1  5  1  0
  1  2  1  0
  2  3  1  0
  4  5  1  0
  4  3  1  0
  5  6  1  1
  6 13  1  0
  6  7  2  0
  8  9  1  0
  9 10  1  0
 11 10  1  0
 12 11  1  1
 12 14  1  0
 13 12  1  0
 14 15  2  0
 16 17  1  0
 17 19  1  0
 17 18  2  0
 19 20  1  0
 21 20  1  6
 22 21  1  0
 22 14  1  0
 23 24  1  0
 23 21  1  0
 25 23  2  0
M  END
$$$$
