PMQ.pdb
     RDKit          3D

 25 25  0  0  1  0  0  0  0  0999 V2000
   19.6754  -12.3976  -18.6833 N   0  0  0  0  0  0  0  0  0  0  0  0
   18.5554  -13.2443  -19.1225 C   0  0  0  0  0  0  0  0  0  0  0  0
   18.2608  -14.1199  -17.9169 C   0  0  0  0  0  0  0  0  0  0  0  0
   19.0410  -13.4789  -16.7606 C   0  0  0  0  0  0  0  0  0  0  0  0
   19.2618  -12.0869  -17.3322 C   0  0  1  0  0  0  0  0  0  0  0  0
   20.2543  -11.3058  -16.5884 C   0  0  0  0  0  0  0  0  0  0  0  0
   20.0133  -10.9862  -15.3975 O   0  0  0  0  0  0  0  0  0  0  0  0
   27.2433  -10.4396  -14.7649 C   0  0  0  0  0  0  0  0  0  0  0  0
   25.7309  -11.0933  -15.4720 S   0  0  0  0  0  0  0  0  0  0  0  0
   25.0448  -10.0119  -16.7480 C   0  0  0  0  0  0  0  0  0  0  0  0
   23.7482  -10.5330  -17.2097 C   0  0  0  0  0  0  0  0  0  0  0  0
   22.5048  -10.1214  -16.4796 C   0  0  2  0  0  0  0  0  0  0  0  0
   21.4522  -10.9182  -17.1856 N   0  0  0  0  0  0  0  0  0  0  0  0
   22.1203   -8.6993  -16.5943 C   0  0  0  0  0  0  0  0  0  0  0  0
   21.6088   -8.2894  -17.6810 O   0  0  0  0  0  0  0  0  0  0  0  0
   17.2702   -4.2172  -16.6604 N   0  0  0  0  0  0  0  0  0  0  0  0
   18.0243   -5.3814  -16.3898 C   0  0  0  0  0  0  0  0  0  0  0  0
   17.5350   -6.5449  -16.4974 O   0  0  0  0  0  0  0  0  0  0  0  0
   19.4390   -5.2657  -15.9713 C   0  0  0  0  0  0  0  0  0  0  0  0
   20.2165   -6.5252  -15.9758 C   0  0  0  0  0  0  0  0  0  0  0  0
   21.6778   -6.3672  -15.7261 C   0  0  2  0  0  0  0  0  0  0  0  0
   22.2621   -7.7242  -15.5741 N   0  0  0  0  0  0  0  0  0  0  0  0
   22.0085   -5.5361  -14.6096 C   0  0  0  0  0  0  0  0  0  0  0  0
   22.6654   -6.0385  -13.4722 O   0  0  0  0  0  0  0  0  0  0  0  0
   21.7264   -4.3171  -14.5697 O   0  0  0  0  0  0  0  0  0  0  0  0
  1  5  1  0
  1  2  1  0
  2  3  1  0
  4  5  1  0
  4  3  1  0
  5  6  1  1
  6 13  1  0
  6  7  2  0
  8  9  1  0
  9 10  1  0
 11 10  1  0
 12 11  1  6
 12 14  1  0
 13 12  1  0
 14 15  2  0
 16 17  1  0
 17 19  1  0
 17 18  2  0
 19 20  1  0
 21 20  1  1
 22 21  1  0
 22 14  1  0
 23 24  1  0
 23 21  1  0
 25 23  2  0
M  END
$$$$
