FPH.pdb
     RDKit          3D

 29 31  0  0  1  0  0  0  0  0999 V2000
   24.2229  -19.4489  -19.1201 N   0  0  0  0  0  0  0  0  0  0  0  0
   24.5998  -18.6716  -18.0059 C   0  0  1  0  0  0  0  0  0  0  0  0
   23.4358  -17.7848  -17.5867 C   0  0  0  0  0  0  0  0  0  0  0  0
   23.2164  -16.7994  -18.6678 C   0  0  0  0  0  0  0  0  0  0  0  0
   22.1044  -16.9385  -19.5060 C   0  0  0  0  0  0  0  0  0  0  0  0
   21.9209  -16.0129  -20.5147 C   0  0  0  0  0  0  0  0  0  0  0  0
   22.8134  -14.9801  -20.6872 C   0  0  0  0  0  0  0  0  0  0  0  0
   23.9183  -14.8214  -19.8734 C   0  0  0  0  0  0  0  0  0  0  0  0
   24.0851  -15.7586  -18.8687 C   0  0  0  0  0  0  0  0  0  0  0  0
   25.2197  -19.3543  -16.8695 C   0  0  0  0  0  0  0  0  0  0  0  0
   24.8867  -20.5933  -16.6943 O   0  0  0  0  0  0  0  0  0  0  0  0
   26.1361  -18.8315  -15.9378 N   0  0  0  0  0  0  0  0  0  0  0  0
   26.6992  -17.5148  -15.8202 C   0  0  0  0  0  0  0  0  0  0  0  0
   28.1596  -17.8229  -15.4886 C   0  0  0  0  0  0  0  0  0  0  0  0
   28.0886  -19.0923  -14.6728 C   0  0  0  0  0  0  0  0  0  0  0  0
   26.7033  -19.6303  -14.8351 C   0  0  1  0  0  0  0  0  0  0  0  0
   25.8662  -19.4564  -13.6075 C   0  0  0  0  0  0  0  0  0  0  0  0
   24.9966  -18.5322  -13.5324 O   0  0  0  0  0  0  0  0  0  0  0  0
   26.0102  -20.3087  -12.4916 N   0  0  0  0  0  0  0  0  0  0  0  0
   24.9488  -20.5598  -11.5113 C   0  0  1  0  0  0  0  0  0  0  0  0
   23.8707  -21.2916  -12.2642 C   0  0  0  0  0  0  0  0  0  0  0  0
   22.6153  -20.5519  -12.4200 C   0  0  0  0  0  0  0  0  0  0  0  0
   22.5644  -19.2368  -12.8473 C   0  0  0  0  0  0  0  0  0  0  0  0
   21.2689  -18.8869  -12.8725 N   0  0  0  0  0  0  0  0  0  0  0  0
   20.5278  -19.9340  -12.4784 C   0  0  0  0  0  0  0  0  0  0  0  0
   21.3643  -20.9400  -12.2065 N   0  0  0  0  0  0  0  0  0  0  0  0
   25.5353  -21.4053  -10.4431 C   0  0  0  0  0  0  0  0  0  0  0  0
   25.1297  -21.2278   -9.1349 O   0  0  0  0  0  0  0  0  0  0  0  0
   26.3976  -22.2962  -10.6426 O   0  0  0  0  0  0  0  0  0  0  0  0
  2  1  1  6
  2 10  1  0
  2  3  1  0
  3  4  1  0
  4  5  2  0
  4  9  1  0
  5  6  1  0
  6  7  2  0
  8  7  1  0
  9  8  2  0
 10 12  1  0
 11 10  2  0
 12 16  1  0
 13 12  1  0
 13 14  1  0
 15 14  1  0
 16 15  1  0
 16 17  1  1
 18 17  2  0
 19 17  1  0
 20 21  1  6
 20 19  1  0
 21 22  1  0
 22 26  1  0
 22 23  2  0
 23 24  1  0
 25 24  1  0
 26 25  2  0
 27 28  1  0
 27 20  1  0
 29 27  2  0
M  END
$$$$
