FPH.pdb
     RDKit          3D

 29 31  0  0  1  0  0  0  0  0999 V2000
   18.4009  -13.2240  -17.0472 N   0  0  0  0  0  0  0  0  0  0  0  0
   19.7602  -12.8499  -17.0354 C   0  0  1  0  0  0  0  0  0  0  0  0
   20.2368  -12.6182  -18.4623 C   0  0  0  0  0  0  0  0  0  0  0  0
   19.3033  -11.6594  -19.0923 C   0  0  0  0  0  0  0  0  0  0  0  0
   19.6257  -10.2976  -19.1060 C   0  0  0  0  0  0  0  0  0  0  0  0
   18.7375   -9.4169  -19.6919 C   0  0  0  0  0  0  0  0  0  0  0  0
   17.5644   -9.8728  -20.2478 C   0  0  0  0  0  0  0  0  0  0  0  0
   17.2235  -11.2115  -20.2468 C   0  0  0  0  0  0  0  0  0  0  0  0
   18.1259  -12.0782  -19.6551 C   0  0  0  0  0  0  0  0  0  0  0  0
   20.1700  -11.7770  -16.1282 C   0  0  0  0  0  0  0  0  0  0  0  0
   19.2184  -11.1629  -15.5004 O   0  0  0  0  0  0  0  0  0  0  0  0
   21.4741  -11.3257  -15.8511 N   0  0  0  0  0  0  0  0  0  0  0  0
   22.7440  -11.7792  -16.3474 C   0  0  0  0  0  0  0  0  0  0  0  0
   23.6060  -11.7520  -15.0849 C   0  0  0  0  0  0  0  0  0  0  0  0
   23.0588  -10.5867  -14.2945 C   0  0  0  0  0  0  0  0  0  0  0  0
   21.7582  -10.2105  -14.9285 C   0  0  1  0  0  0  0  0  0  0  0  0
   21.8372   -8.9303  -15.6984 C   0  0  0  0  0  0  0  0  0  0  0  0
   21.8206   -8.9274  -16.9695 O   0  0  0  0  0  0  0  0  0  0  0  0
   21.9327   -7.6829  -15.0446 N   0  0  0  0  0  0  0  0  0  0  0  0
   21.2138   -6.4782  -15.4714 C   0  0  1  0  0  0  0  0  0  0  0  0
   19.7530   -6.8301  -15.3866 C   0  0  0  0  0  0  0  0  0  0  0  0
   18.9472   -6.4028  -16.5336 C   0  0  0  0  0  0  0  0  0  0  0  0
   19.4640   -5.6644  -17.5834 C   0  0  0  0  0  0  0  0  0  0  0  0
   18.4557   -5.4554  -18.4442 N   0  0  0  0  0  0  0  0  0  0  0  0
   17.3456   -6.0358  -17.9629 C   0  0  0  0  0  0  0  0  0  0  0  0
   17.6631   -6.6085  -16.7980 N   0  0  0  0  0  0  0  0  0  0  0  0
   21.5691   -5.3994  -14.5174 C   0  0  0  0  0  0  0  0  0  0  0  0
   21.8969   -4.1468  -14.9979 O   0  0  0  0  0  0  0  0  0  0  0  0
   21.5956   -5.5418  -13.2700 O   0  0  0  0  0  0  0  0  0  0  0  0
  2  1  1  6
  2 10  1  0
  2  3  1  0
  3  4  1  0
  4  5  2  0
  4  9  1  0
  5  6  1  0
  6  7  2  0
  8  7  1  0
  9  8  2  0
 10 12  1  0
 11 10  2  0
 12 16  1  0
 13 12  1  0
 13 14  1  0
 15 14  1  0
 16 15  1  0
 16 17  1  6
 18 17  2  0
 19 17  1  0
 20 21  1  1
 20 19  1  0
 21 22  1  0
 22 26  1  0
 22 23  2  0
 23 24  1  0
 25 24  1  0
 26 25  2  0
 27 28  1  0
 27 20  1  0
 29 27  2  0
M  END
$$$$
