FPH.pdb
     RDKit          3D

 29 31  0  0  1  0  0  0  0  0999 V2000
   20.2924  -12.5132  -17.0607 N   0  0  0  0  0  0  0  0  0  0  0  0
   20.0117  -11.2225  -17.5537 C   0  0  1  0  0  0  0  0  0  0  0  0
   18.5496  -10.8863  -17.2966 C   0  0  0  0  0  0  0  0  0  0  0  0
   17.7323  -11.7799  -18.1459 C   0  0  0  0  0  0  0  0  0  0  0  0
   17.2722  -12.9926  -17.6202 C   0  0  0  0  0  0  0  0  0  0  0  0
   16.5171  -13.8171  -18.4313 C   0  0  0  0  0  0  0  0  0  0  0  0
   16.2268  -13.4502  -19.7252 C   0  0  0  0  0  0  0  0  0  0  0  0
   16.6692  -12.2590  -20.2670 C   0  0  0  0  0  0  0  0  0  0  0  0
   17.4242  -11.4465  -19.4391 C   0  0  0  0  0  0  0  0  0  0  0  0
   20.9109  -10.1315  -17.1754 C   0  0  0  0  0  0  0  0  0  0  0  0
   21.5123  -10.2540  -16.0352 O   0  0  0  0  0  0  0  0  0  0  0  0
   21.2054   -8.9598  -17.8976 N   0  0  0  0  0  0  0  0  0  0  0  0
   20.6965   -8.4854  -19.1548 C   0  0  0  0  0  0  0  0  0  0  0  0
   21.9608   -7.9488  -19.8265 C   0  0  0  0  0  0  0  0  0  0  0  0
   22.7889   -7.4223  -18.6780 C   0  0  0  0  0  0  0  0  0  0  0  0
   22.1655   -7.9452  -17.4239 C   0  0  1  0  0  0  0  0  0  0  0  0
   21.4393   -6.8886  -16.6531 C   0  0  0  0  0  0  0  0  0  0  0  0
   20.2325   -6.5931  -16.9225 O   0  0  0  0  0  0  0  0  0  0  0  0
   22.0644   -6.1833  -15.6023 N   0  0  0  0  0  0  0  0  0  0  0  0
   21.3956   -5.1604  -14.7918 C   0  0  1  0  0  0  0  0  0  0  0  0
   21.7617   -5.4740  -13.3661 C   0  0  0  0  0  0  0  0  0  0  0  0
   21.0901   -6.6469  -12.7997 C   0  0  0  0  0  0  0  0  0  0  0  0
   20.1611   -7.3945  -13.5015 C   0  0  0  0  0  0  0  0  0  0  0  0
   19.7582   -8.3796  -12.6838 N   0  0  0  0  0  0  0  0  0  0  0  0
   20.4030   -8.2636  -11.5125 C   0  0  0  0  0  0  0  0  0  0  0  0
   21.2105   -7.2026  -11.6006 N   0  0  0  0  0  0  0  0  0  0  0  0
   21.9383   -3.8468  -15.2159 C   0  0  0  0  0  0  0  0  0  0  0  0
   21.3851   -2.6866  -14.7104 O   0  0  0  0  0  0  0  0  0  0  0  0
   22.8900   -3.7043  -16.0229 O   0  0  0  0  0  0  0  0  0  0  0  0
  2  1  1  1
  2 10  1  0
  2  3  1  0
  3  4  1  0
  4  5  2  0
  4  9  1  0
  5  6  1  0
  6  7  2  0
  8  7  1  0
  9  8  2  0
 10 12  1  0
 11 10  2  0
 12 16  1  0
 13 12  1  0
 13 14  1  0
 15 14  1  0
 16 15  1  0
 16 17  1  6
 18 17  2  0
 19 17  1  0
 20 21  1  1
 20 19  1  0
 21 22  1  0
 22 26  1  0
 22 23  2  0
 23 24  1  0
 25 24  1  0
 26 25  2  0
 27 28  1  0
 27 20  1  0
 29 27  2  0
M  END
$$$$
