FPH.pdb
     RDKit          3D

 29 31  0  0  1  0  0  0  0  0999 V2000
   26.4608  -18.2592   -7.7844 N   0  0  0  0  0  0  0  0  0  0  0  0
   26.8856  -19.4078   -8.4831 C   0  0  1  0  0  0  0  0  0  0  0  0
   26.7783  -20.6247   -7.5751 C   0  0  0  0  0  0  0  0  0  0  0  0
   27.6493  -20.3835   -6.4042 C   0  0  0  0  0  0  0  0  0  0  0  0
   27.1225  -19.7372   -5.2802 C   0  0  0  0  0  0  0  0  0  0  0  0
   27.9536  -19.5140   -4.1998 C   0  0  0  0  0  0  0  0  0  0  0  0
   29.2680  -19.9193   -4.2328 C   0  0  0  0  0  0  0  0  0  0  0  0
   29.8114  -20.5587   -5.3302 C   0  0  0  0  0  0  0  0  0  0  0  0
   28.9632  -20.7733   -6.4026 C   0  0  0  0  0  0  0  0  0  0  0  0
   26.3235  -19.6509   -9.8123 C   0  0  0  0  0  0  0  0  0  0  0  0
   25.2191  -19.0341  -10.0889 O   0  0  0  0  0  0  0  0  0  0  0  0
   26.8338  -20.4752  -10.8327 N   0  0  0  0  0  0  0  0  0  0  0  0
   27.8222  -21.5171  -10.7844 C   0  0  0  0  0  0  0  0  0  0  0  0
   28.6291  -21.2479  -12.0548 C   0  0  0  0  0  0  0  0  0  0  0  0
   27.6072  -20.7118  -13.0297 C   0  0  0  0  0  0  0  0  0  0  0  0
   26.3830  -20.3893  -12.2345 C   0  0  1  0  0  0  0  0  0  0  0  0
   25.2696  -21.3618  -12.4639 C   0  0  0  0  0  0  0  0  0  0  0  0
   25.2544  -22.4908  -11.8798 O   0  0  0  0  0  0  0  0  0  0  0  0
   24.1990  -21.0631  -13.3339 N   0  0  0  0  0  0  0  0  0  0  0  0
   23.0847  -21.9774  -13.6041 C   0  0  1  0  0  0  0  0  0  0  0  0
   21.8632  -21.2993  -13.0448 C   0  0  0  0  0  0  0  0  0  0  0  0
   21.7441  -21.3472  -11.5850 C   0  0  0  0  0  0  0  0  0  0  0  0
   22.0664  -20.2782  -10.7678 C   0  0  0  0  0  0  0  0  0  0  0  0
   21.8383  -20.6723   -9.5052 N   0  0  0  0  0  0  0  0  0  0  0  0
   21.3903  -21.9373   -9.5187 C   0  0  0  0  0  0  0  0  0  0  0  0
   21.3390  -22.3329  -10.7941 N   0  0  0  0  0  0  0  0  0  0  0  0
   22.9953  -22.1298  -15.0768 C   0  0  0  0  0  0  0  0  0  0  0  0
   23.0130  -21.0061  -15.8796 O   0  0  0  0  0  0  0  0  0  0  0  0
   22.9021  -23.2343  -15.6671 O   0  0  0  0  0  0  0  0  0  0  0  0
  2  1  1  1
  2 10  1  0
  2  3  1  0
  3  4  1  0
  4  5  2  0
  4  9  1  0
  5  6  1  0
  6  7  2  0
  8  7  1  0
  9  8  2  0
 10 12  1  0
 11 10  2  0
 12 16  1  0
 13 12  1  0
 13 14  1  0
 15 14  1  0
 16 15  1  0
 16 17  1  1
 18 17  2  0
 19 17  1  0
 20 21  1  6
 20 19  1  0
 21 22  1  0
 22 26  1  0
 22 23  2  0
 23 24  1  0
 25 24  1  0
 26 25  2  0
 27 28  1  0
 27 20  1  0
 29 27  2  0
M  END
$$$$
