FPH.pdb
     RDKit          3D

 29 31  0  0  1  0  0  0  0  0999 V2000
   28.4576  -20.2057  -16.1133 N   0  0  0  0  0  0  0  0  0  0  0  0
   28.1086  -20.1255  -14.7496 C   0  0  1  0  0  0  0  0  0  0  0  0
   28.2784  -18.6929  -14.2640 C   0  0  0  0  0  0  0  0  0  0  0  0
   27.4461  -17.8291  -15.1294 C   0  0  0  0  0  0  0  0  0  0  0  0
   26.3500  -17.1578  -14.5759 C   0  0  0  0  0  0  0  0  0  0  0  0
   25.5802  -16.3620  -15.4018 C   0  0  0  0  0  0  0  0  0  0  0  0
   25.8880  -16.2356  -16.7368 C   0  0  0  0  0  0  0  0  0  0  0  0
   26.9641  -16.8878  -17.3067 C   0  0  0  0  0  0  0  0  0  0  0  0
   27.7233  -17.6804  -16.4634 C   0  0  0  0  0  0  0  0  0  0  0  0
   26.8341  -20.7103  -14.3306 C   0  0  0  0  0  0  0  0  0  0  0  0
   26.1337  -21.2818  -15.2578 O   0  0  0  0  0  0  0  0  0  0  0  0
   26.2703  -20.7293  -13.0411 N   0  0  0  0  0  0  0  0  0  0  0  0
   26.6995  -20.0952  -11.8252 C   0  0  0  0  0  0  0  0  0  0  0  0
   26.4633  -21.1974  -10.7922 C   0  0  0  0  0  0  0  0  0  0  0  0
   25.2473  -21.9288  -11.3104 C   0  0  0  0  0  0  0  0  0  0  0  0
   25.0349  -21.4668  -12.7162 C   0  0  1  0  0  0  0  0  0  0  0  0
   23.8560  -20.5565  -12.8556 C   0  0  0  0  0  0  0  0  0  0  0  0
   23.8936  -19.3633  -12.4189 O   0  0  0  0  0  0  0  0  0  0  0  0
   22.6628  -20.9871  -13.4749 N   0  0  0  0  0  0  0  0  0  0  0  0
   21.4641  -20.1532  -13.6100 C   0  0  1  0  0  0  0  0  0  0  0  0
   21.1458  -20.1416  -15.0809 C   0  0  0  0  0  0  0  0  0  0  0  0
   22.1454  -19.4799  -15.9238 C   0  0  0  0  0  0  0  0  0  0  0  0
   22.5539  -18.1734  -15.7225 C   0  0  0  0  0  0  0  0  0  0  0  0
   23.4670  -17.9023  -16.6682 N   0  0  0  0  0  0  0  0  0  0  0  0
   23.6320  -18.9893  -17.4377 C   0  0  0  0  0  0  0  0  0  0  0  0
   22.8191  -19.9411  -16.9700 N   0  0  0  0  0  0  0  0  0  0  0  0
   20.3886  -20.8085  -12.8264 C   0  0  0  0  0  0  0  0  0  0  0  0
   20.5689  -22.0996  -12.3705 O   0  0  0  0  0  0  0  0  0  0  0  0
   19.2947  -20.2635  -12.5373 O   0  0  0  0  0  0  0  0  0  0  0  0
  2  1  1  6
  2 10  1  0
  2  3  1  0
  3  4  1  0
  4  5  2  0
  4  9  1  0
  5  6  1  0
  6  7  2  0
  8  7  1  0
  9  8  2  0
 10 12  1  0
 11 10  2  0
 12 16  1  0
 13 12  1  0
 13 14  1  0
 15 14  1  0
 16 15  1  0
 16 17  1  1
 18 17  2  0
 19 17  1  0
 20 21  1  6
 20 19  1  0
 21 22  1  0
 22 26  1  0
 22 23  2  0
 23 24  1  0
 25 24  1  0
 26 25  2  0
 27 28  1  0
 27 20  1  0
 29 27  2  0
M  END
$$$$
