FPH.pdb
     RDKit          3D

 29 31  0  0  1  0  0  0  0  0999 V2000
   19.6653  -29.9671  -15.7769 N   0  0  0  0  0  0  0  0  0  0  0  0
   20.8238  -30.4072  -15.1044 C   0  0  1  0  0  0  0  0  0  0  0  0
   21.6269  -29.2032  -14.6328 C   0  0  0  0  0  0  0  0  0  0  0  0
   22.0706  -28.4662  -15.8360 C   0  0  0  0  0  0  0  0  0  0  0  0
   23.2317  -28.8763  -16.5011 C   0  0  0  0  0  0  0  0  0  0  0  0
   23.6342  -28.1706  -17.6182 C   0  0  0  0  0  0  0  0  0  0  0  0
   22.9071  -27.0904  -18.0627 C   0  0  0  0  0  0  0  0  0  0  0  0
   21.7582  -26.6661  -17.4237 C   0  0  0  0  0  0  0  0  0  0  0  0
   21.3711  -27.3856  -16.3066 C   0  0  0  0  0  0  0  0  0  0  0  0
   20.6690  -31.4199  -14.0593 C   0  0  0  0  0  0  0  0  0  0  0  0
   19.5165  -31.4641  -13.4706 O   0  0  0  0  0  0  0  0  0  0  0  0
   21.6195  -32.3559  -13.6104 N   0  0  0  0  0  0  0  0  0  0  0  0
   22.9974  -32.5358  -13.9761 C   0  0  0  0  0  0  0  0  0  0  0  0
   23.1050  -34.0582  -14.0678 C   0  0  0  0  0  0  0  0  0  0  0  0
   22.1482  -34.5561  -13.0101 C   0  0  0  0  0  0  0  0  0  0  0  0
   21.3167  -33.3843  -12.5974 C   0  0  1  0  0  0  0  0  0  0  0  0
   21.6732  -32.8702  -11.2385 C   0  0  0  0  0  0  0  0  0  0  0  0
   22.6034  -32.0178  -11.0832 O   0  0  0  0  0  0  0  0  0  0  0  0
   20.9926  -33.3106  -10.0829 N   0  0  0  0  0  0  0  0  0  0  0  0
   21.2567  -32.8008   -8.7335 C   0  0  1  0  0  0  0  0  0  0  0  0
   19.9158  -32.7535   -8.0518 C   0  0  0  0  0  0  0  0  0  0  0  0
   19.0789  -31.6064   -8.4141 C   0  0  0  0  0  0  0  0  0  0  0  0
   19.5029  -30.6058   -9.2706 C   0  0  0  0  0  0  0  0  0  0  0  0
   18.4919  -29.7290   -9.3735 N   0  0  0  0  0  0  0  0  0  0  0  0
   17.4691  -30.1535   -8.6155 C   0  0  0  0  0  0  0  0  0  0  0  0
   17.8440  -31.2988   -8.0380 N   0  0  0  0  0  0  0  0  0  0  0  0
   22.1677  -33.7680   -8.0744 C   0  0  0  0  0  0  0  0  0  0  0  0
   22.5516  -34.9101   -8.7494 O   0  0  0  0  0  0  0  0  0  0  0  0
   22.6303  -33.6240   -6.9157 O   0  0  0  0  0  0  0  0  0  0  0  0
  2  1  1  1
  2 10  1  0
  2  3  1  0
  3  4  1  0
  4  5  2  0
  4  9  1  0
  5  6  1  0
  6  7  2  0
  8  7  1  0
  9  8  2  0
 10 12  1  0
 11 10  2  0
 12 16  1  0
 13 12  1  0
 13 14  1  0
 15 14  1  0
 16 15  1  0
 16 17  1  1
 18 17  2  0
 19 17  1  0
 20 21  1  1
 20 19  1  0
 21 22  1  0
 22 26  1  0
 22 23  2  0
 23 24  1  0
 25 24  1  0
 26 25  2  0
 27 28  1  0
 27 20  1  0
 29 27  2  0
M  END
$$$$
