FPH.pdb
     RDKit          3D

 29 31  0  0  1  0  0  0  0  0999 V2000
   26.0233  -31.5745  -20.6013 N   0  0  0  0  0  0  0  0  0  0  0  0
   26.0423  -31.1920  -19.2444 C   0  0  1  0  0  0  0  0  0  0  0  0
   24.7882  -30.3912  -18.9236 C   0  0  0  0  0  0  0  0  0  0  0  0
   24.8182  -29.1675  -19.7539 C   0  0  0  0  0  0  0  0  0  0  0  0
   24.0449  -29.1111  -20.9190 C   0  0  0  0  0  0  0  0  0  0  0  0
   24.0923  -27.9628  -21.6852 C   0  0  0  0  0  0  0  0  0  0  0  0
   24.8828  -26.9019  -21.3075 C   0  0  0  0  0  0  0  0  0  0  0  0
   25.6550  -26.9333  -20.1625 C   0  0  0  0  0  0  0  0  0  0  0  0
   25.5943  -28.0921  -19.4081 C   0  0  0  0  0  0  0  0  0  0  0  0
   26.3182  -32.2233  -18.2433 C   0  0  0  0  0  0  0  0  0  0  0  0
   25.9757  -33.4321  -18.5567 O   0  0  0  0  0  0  0  0  0  0  0  0
   26.9109  -32.0663  -16.9764 N   0  0  0  0  0  0  0  0  0  0  0  0
   27.3624  -30.8834  -16.2971 C   0  0  0  0  0  0  0  0  0  0  0  0
   28.6808  -31.3542  -15.6825 C   0  0  0  0  0  0  0  0  0  0  0  0
   28.4349  -32.8099  -15.3624 C   0  0  0  0  0  0  0  0  0  0  0  0
   27.1758  -33.1983  -16.0686 C   0  0  1  0  0  0  0  0  0  0  0  0
   26.0191  -33.3751  -15.1365 C   0  0  0  0  0  0  0  0  0  0  0  0
   24.8215  -33.2927  -15.5547 O   0  0  0  0  0  0  0  0  0  0  0  0
   26.2138  -33.6389  -13.7636 N   0  0  0  0  0  0  0  0  0  0  0  0
   25.2008  -34.2484  -12.8958 C   0  0  1  0  0  0  0  0  0  0  0  0
   24.8510  -35.5600  -13.5456 C   0  0  0  0  0  0  0  0  0  0  0  0
   23.5681  -36.1328  -13.1289 C   0  0  0  0  0  0  0  0  0  0  0  0
   22.7822  -35.5761  -12.1354 C   0  0  0  0  0  0  0  0  0  0  0  0
   21.6945  -36.3539  -12.0197 N   0  0  0  0  0  0  0  0  0  0  0  0
   21.7846  -37.3616  -12.9013 C   0  0  0  0  0  0  0  0  0  0  0  0
   22.9324  -37.2115  -13.5688 N   0  0  0  0  0  0  0  0  0  0  0  0
   25.8309  -34.4506  -11.5683 C   0  0  0  0  0  0  0  0  0  0  0  0
   25.1345  -34.1095  -10.4255 O   0  0  0  0  0  0  0  0  0  0  0  0
   26.9826  -34.9217  -11.3988 O   0  0  0  0  0  0  0  0  0  0  0  0
  2  1  1  6
  2 10  1  0
  2  3  1  0
  3  4  1  0
  4  5  2  0
  4  9  1  0
  5  6  1  0
  6  7  2  0
  8  7  1  0
  9  8  2  0
 10 12  1  0
 11 10  2  0
 12 16  1  0
 13 12  1  0
 13 14  1  0
 15 14  1  0
 16 15  1  0
 16 17  1  1
 18 17  2  0
 19 17  1  0
 20 21  1  6
 20 19  1  0
 21 22  1  0
 22 26  1  0
 22 23  2  0
 23 24  1  0
 25 24  1  0
 26 25  2  0
 27 28  1  0
 27 20  1  0
 29 27  2  0
M  END
$$$$
