FPH.pdb
     RDKit          3D

 29 31  0  0  1  0  0  0  0  0999 V2000
   25.3496  -19.9328  -16.9738 N   0  0  0  0  0  0  0  0  0  0  0  0
   25.8106  -19.6774  -15.6660 C   0  0  1  0  0  0  0  0  0  0  0  0
   25.7539  -18.1817  -15.3893 C   0  0  0  0  0  0  0  0  0  0  0  0
   26.9217  -17.5626  -16.0532 C   0  0  0  0  0  0  0  0  0  0  0  0
   28.2077  -17.8399  -15.5758 C   0  0  0  0  0  0  0  0  0  0  0  0
   29.2850  -17.2460  -16.2040 C   0  0  0  0  0  0  0  0  0  0  0  0
   29.0930  -16.4023  -17.2737 C   0  0  0  0  0  0  0  0  0  0  0  0
   27.8341  -16.1128  -17.7633 C   0  0  0  0  0  0  0  0  0  0  0  0
   26.7676  -16.7171  -17.1208 C   0  0  0  0  0  0  0  0  0  0  0  0
   25.2479  -20.4699  -14.5719 C   0  0  0  0  0  0  0  0  0  0  0  0
   24.1759  -21.1431  -14.8444 O   0  0  0  0  0  0  0  0  0  0  0  0
   25.7267  -20.5927  -13.2540 N   0  0  0  0  0  0  0  0  0  0  0  0
   26.8742  -20.0054  -12.6192 C   0  0  0  0  0  0  0  0  0  0  0  0
   27.4153  -21.1755  -11.7970 C   0  0  0  0  0  0  0  0  0  0  0  0
   26.1774  -21.9423  -11.3950 C   0  0  0  0  0  0  0  0  0  0  0  0
   25.0551  -21.4142  -12.2295 C   0  0  1  0  0  0  0  0  0  0  0  0
   24.1029  -20.5639  -11.4496 C   0  0  0  0  0  0  0  0  0  0  0  0
   24.4809  -19.4706  -10.9224 O   0  0  0  0  0  0  0  0  0  0  0  0
   22.7549  -20.9424  -11.2708 N   0  0  0  0  0  0  0  0  0  0  0  0
   21.7651  -20.1308  -10.5551 C   0  0  1  0  0  0  0  0  0  0  0  0
   21.6527  -18.8505  -11.3381 C   0  0  0  0  0  0  0  0  0  0  0  0
   21.1400  -19.0039  -12.7024 C   0  0  0  0  0  0  0  0  0  0  0  0
   20.8736  -20.2362  -13.2724 C   0  0  0  0  0  0  0  0  0  0  0  0
   20.4237  -20.0000  -14.5146 N   0  0  0  0  0  0  0  0  0  0  0  0
   20.4047  -18.6748  -14.7257 C   0  0  0  0  0  0  0  0  0  0  0  0
   20.8444  -18.0831  -13.6111 N   0  0  0  0  0  0  0  0  0  0  0  0
   20.4905  -20.8892  -10.5678 C   0  0  0  0  0  0  0  0  0  0  0  0
   19.4126  -20.4208   -9.8425 O   0  0  0  0  0  0  0  0  0  0  0  0
   20.3109  -21.9557  -11.2061 O   0  0  0  0  0  0  0  0  0  0  0  0
  2  1  1  6
  2 10  1  0
  2  3  1  0
  3  4  1  0
  4  5  2  0
  4  9  1  0
  5  6  1  0
  6  7  2  0
  8  7  1  0
  9  8  2  0
 10 12  1  0
 11 10  2  0
 12 16  1  0
 13 12  1  0
 13 14  1  0
 15 14  1  0
 16 15  1  0
 16 17  1  1
 18 17  2  0
 19 17  1  0
 20 21  1  6
 20 19  1  0
 21 22  1  0
 22 26  1  0
 22 23  2  0
 23 24  1  0
 25 24  1  0
 26 25  2  0
 27 28  1  0
 27 20  1  0
 29 27  2  0
M  END
$$$$
