FPH.pdb
     RDKit          3D

 29 31  0  0  1  0  0  0  0  0999 V2000
   27.1068  -20.7158  -16.7479 N   0  0  0  0  0  0  0  0  0  0  0  0
   27.6072  -20.0197  -15.6285 C   0  0  1  0  0  0  0  0  0  0  0  0
   27.1216  -18.5776  -15.6671 C   0  0  0  0  0  0  0  0  0  0  0  0
   27.7433  -17.9308  -16.8431 C   0  0  0  0  0  0  0  0  0  0  0  0
   29.1099  -17.6299  -16.8167 C   0  0  0  0  0  0  0  0  0  0  0  0
   29.6705  -17.0188  -17.9213 C   0  0  0  0  0  0  0  0  0  0  0  0
   28.8992  -16.7151  -19.0194 C   0  0  0  0  0  0  0  0  0  0  0  0
   27.5488  -17.0017  -19.0697 C   0  0  0  0  0  0  0  0  0  0  0  0
   27.0054  -17.6138  -17.9536 C   0  0  0  0  0  0  0  0  0  0  0  0
   27.4412  -20.6302  -14.3088 C   0  0  0  0  0  0  0  0  0  0  0  0
   26.4263  -21.4218  -14.1673 O   0  0  0  0  0  0  0  0  0  0  0  0
   28.2489  -20.4641  -13.1681 N   0  0  0  0  0  0  0  0  0  0  0  0
   29.4563  -19.7079  -12.9813 C   0  0  0  0  0  0  0  0  0  0  0  0
   30.3013  -20.6629  -12.1377 C   0  0  0  0  0  0  0  0  0  0  0  0
   29.2882  -21.3919  -11.2867 C   0  0  0  0  0  0  0  0  0  0  0  0
   27.9441  -21.0952  -11.8703 C   0  0  1  0  0  0  0  0  0  0  0  0
   27.1424  -20.1524  -11.0300 C   0  0  0  0  0  0  0  0  0  0  0  0
   27.2057  -18.8959  -11.2120 O   0  0  0  0  0  0  0  0  0  0  0  0
   26.2892  -20.6211  -10.0078 N   0  0  0  0  0  0  0  0  0  0  0  0
   24.8925  -20.2022   -9.8514 C   0  0  1  0  0  0  0  0  0  0  0  0
   24.2084  -20.5967  -11.1325 C   0  0  0  0  0  0  0  0  0  0  0  0
   22.7627  -20.3583  -11.1594 C   0  0  0  0  0  0  0  0  0  0  0  0
   22.0620  -19.8573  -10.0765 C   0  0  0  0  0  0  0  0  0  0  0  0
   20.7768  -19.7694  -10.4530 N   0  0  0  0  0  0  0  0  0  0  0  0
   20.6647  -20.1959  -11.7205 C   0  0  0  0  0  0  0  0  0  0  0  0
   21.8843  -20.5509  -12.1353 N   0  0  0  0  0  0  0  0  0  0  0  0
   24.3435  -20.9452   -8.6910 C   0  0  0  0  0  0  0  0  0  0  0  0
   23.6136  -20.2687   -7.7334 O   0  0  0  0  0  0  0  0  0  0  0  0
   24.4958  -22.1781   -8.5070 O   0  0  0  0  0  0  0  0  0  0  0  0
  2  1  1  6
  2 10  1  0
  2  3  1  0
  3  4  1  0
  4  5  2  0
  4  9  1  0
  5  6  1  0
  6  7  2  0
  8  7  1  0
  9  8  2  0
 10 12  1  0
 11 10  2  0
 12 16  1  0
 13 12  1  0
 13 14  1  0
 15 14  1  0
 16 15  1  0
 16 17  1  1
 18 17  2  0
 19 17  1  0
 20 21  1  6
 20 19  1  0
 21 22  1  0
 22 26  1  0
 22 23  2  0
 23 24  1  0
 25 24  1  0
 26 25  2  0
 27 28  1  0
 27 20  1  0
 29 27  2  0
M  END
$$$$
