GAV.pdb
     RDKit          3D

 17 16  0  0  1  0  0  0  0  0999 V2000
   15.2238  -11.3991  -11.6798 N   0  0  0  0  0  0  0  0  0  0  0  0
   16.0018  -10.6067  -10.7548 C   0  0  0  0  0  0  0  0  0  0  0  0
   15.4665   -9.2120  -10.6704 C   0  0  0  0  0  0  0  0  0  0  0  0
   14.6515   -8.7930  -11.5147 O   0  0  0  0  0  0  0  0  0  0  0  0
   15.7923   -6.5051   -8.1091 C   0  0  0  0  0  0  0  0  0  0  0  0
   15.3516   -7.0066   -9.4483 C   0  0  2  0  0  0  0  0  0  0  0  0
   15.8708   -8.3447   -9.6377 N   0  0  0  0  0  0  0  0  0  0  0  0
   15.9009   -6.0747  -10.4906 C   0  0  0  0  0  0  0  0  0  0  0  0
   17.1113   -6.0993  -10.8356 O   0  0  0  0  0  0  0  0  0  0  0  0
   14.9067   -5.7984  -14.0643 C   0  0  0  0  0  0  0  0  0  0  0  0
   14.7303   -4.4407  -13.4398 C   0  0  1  0  0  0  0  0  0  0  0  0
   13.2804   -4.1989  -13.1197 C   0  0  0  0  0  0  0  0  0  0  0  0
   15.5567   -4.2654  -12.1923 C   0  0  2  0  0  0  0  0  0  0  0  0
   15.0752   -5.1194  -11.1368 N   0  0  0  0  0  0  0  0  0  0  0  0
   15.6470   -2.8444  -11.7711 C   0  0  0  0  0  0  0  0  0  0  0  0
   16.5705   -1.9671  -12.3367 O   0  0  0  0  0  0  0  0  0  0  0  0
   14.8970   -2.3614  -10.8852 O   0  0  0  0  0  0  0  0  0  0  0  0
  1  2  1  0
  2  3  1  0
  3  4  2  0
  6  5  1  1
  7  6  1  0
  7  3  1  0
  8  6  1  0
  8  9  2  0
 11 10  1  1
 11 13  1  0
 12 11  1  0
 13 14  1  1
 13 15  1  0
 14  8  1  0
 15 16  1  0
 17 15  2  0
M  END
$$$$
