GAV.pdb
     RDKit          3D

 17 16  0  0  1  0  0  0  0  0999 V2000
   18.1233  -15.5249  -15.8117 N   0  0  0  0  0  0  0  0  0  0  0  0
   17.3264  -14.3242  -15.7008 C   0  0  0  0  0  0  0  0  0  0  0  0
   18.1390  -13.1149  -16.0409 C   0  0  0  0  0  0  0  0  0  0  0  0
   19.3627  -13.2124  -16.2554 O   0  0  0  0  0  0  0  0  0  0  0  0
   17.2432   -9.5568  -16.7661 C   0  0  0  0  0  0  0  0  0  0  0  0
   18.2456  -10.6350  -16.4985 C   0  0  2  0  0  0  0  0  0  0  0  0
   17.5407  -11.8433  -16.1258 N   0  0  0  0  0  0  0  0  0  0  0  0
   19.1292  -10.1716  -15.3755 C   0  0  0  0  0  0  0  0  0  0  0  0
   18.7932  -10.2945  -14.1687 O   0  0  0  0  0  0  0  0  0  0  0  0
   22.6983  -11.2033  -14.8300 C   0  0  0  0  0  0  0  0  0  0  0  0
   22.6637   -9.6993  -14.7930 C   0  0  1  0  0  0  0  0  0  0  0  0
   23.2236   -9.1338  -16.0697 C   0  0  0  0  0  0  0  0  0  0  0  0
   21.2759   -9.1574  -14.5689 C   0  0  2  0  0  0  0  0  0  0  0  0
   20.3895   -9.5710  -15.6264 N   0  0  0  0  0  0  0  0  0  0  0  0
   21.2706   -7.6857  -14.3718 C   0  0  0  0  0  0  0  0  0  0  0  0
   21.6852   -7.1026  -13.1757 O   0  0  0  0  0  0  0  0  0  0  0  0
   20.8929   -6.8926  -15.2712 O   0  0  0  0  0  0  0  0  0  0  0  0
  1  2  1  0
  2  3  1  0
  3  4  2  0
  6  5  1  1
  7  6  1  0
  7  3  1  0
  8  6  1  0
  8  9  2  0
 11 10  1  6
 11 13  1  0
 12 11  1  0
 13 14  1  6
 13 15  1  0
 14  8  1  0
 15 16  1  0
 17 15  2  0
M  END
$$$$
