GAV.pdb
     RDKit          3D

 17 16  0  0  1  0  0  0  0  0999 V2000
   14.4985  -12.5394  -15.4827 N   0  0  0  0  0  0  0  0  0  0  0  0
   14.6579  -11.1030  -15.4760 C   0  0  0  0  0  0  0  0  0  0  0  0
   16.0239  -10.7186  -15.9502 C   0  0  0  0  0  0  0  0  0  0  0  0
   16.9369  -11.5647  -16.0083 O   0  0  0  0  0  0  0  0  0  0  0  0
   17.4321   -7.5854  -17.4283 C   0  0  0  0  0  0  0  0  0  0  0  0
   17.5918   -8.9512  -16.8384 C   0  0  2  0  0  0  0  0  0  0  0  0
   16.3072   -9.3959  -16.3404 N   0  0  0  0  0  0  0  0  0  0  0  0
   18.5873   -8.8534  -15.7176 C   0  0  0  0  0  0  0  0  0  0  0  0
   18.2376   -8.5982  -14.5357 O   0  0  0  0  0  0  0  0  0  0  0  0
   22.8436   -9.8213  -16.3014 C   0  0  0  0  0  0  0  0  0  0  0  0
   21.9939  -10.0817  -15.0870 C   0  0  1  0  0  0  0  0  0  0  0  0
   22.8573  -10.1832  -13.8591 C   0  0  0  0  0  0  0  0  0  0  0  0
   20.9437   -9.0219  -14.8770 C   0  0  2  0  0  0  0  0  0  0  0  0
   19.9746   -9.0455  -15.9426 N   0  0  0  0  0  0  0  0  0  0  0  0
   21.5346   -7.6738  -14.6817 C   0  0  0  0  0  0  0  0  0  0  0  0
   22.0538   -7.2696  -13.4531 O   0  0  0  0  0  0  0  0  0  0  0  0
   21.5965   -6.8305  -15.6121 O   0  0  0  0  0  0  0  0  0  0  0  0
  1  2  1  0
  2  3  1  0
  3  4  2  0
  6  5  1  1
  7  6  1  0
  7  3  1  0
  8  6  1  0
  8  9  2  0
 11 10  1  6
 11 13  1  0
 12 11  1  0
 13 14  1  6
 13 15  1  0
 14  8  1  0
 15 16  1  0
 17 15  2  0
M  END
$$$$
