GAV.pdb
     RDKit          3D

 17 16  0  0  1  0  0  0  0  0999 V2000
   15.6514  -12.9352  -17.9652 N   0  0  0  0  0  0  0  0  0  0  0  0
   15.9562  -11.5287  -18.0979 C   0  0  0  0  0  0  0  0  0  0  0  0
   17.3635  -11.2484  -17.6743 C   0  0  0  0  0  0  0  0  0  0  0  0
   17.8357  -11.7794  -16.6507 O   0  0  0  0  0  0  0  0  0  0  0  0
   20.1276   -9.1920  -19.1509 C   0  0  0  0  0  0  0  0  0  0  0  0
   19.5412  -10.0321  -18.0603 C   0  0  2  0  0  0  0  0  0  0  0  0
   18.1832  -10.3809  -18.4211 N   0  0  0  0  0  0  0  0  0  0  0  0
   19.5597   -9.2209  -16.7960 C   0  0  0  0  0  0  0  0  0  0  0  0
   18.6044   -8.4675  -16.4732 O   0  0  0  0  0  0  0  0  0  0  0  0
   22.3598  -10.0568  -13.6103 C   0  0  0  0  0  0  0  0  0  0  0  0
   21.0037   -9.4127  -13.5069 C   0  0  1  0  0  0  0  0  0  0  0  0
   20.8965   -8.6266  -12.2287 C   0  0  0  0  0  0  0  0  0  0  0  0
   20.6989   -8.5139  -14.6770 C   0  0  2  0  0  0  0  0  0  0  0  0
   20.6614   -9.2680  -15.9038 N   0  0  0  0  0  0  0  0  0  0  0  0
   21.6253   -7.3561  -14.7548 C   0  0  0  0  0  0  0  0  0  0  0  0
   21.4614   -6.2282  -13.9527 O   0  0  0  0  0  0  0  0  0  0  0  0
   22.6021   -7.3342  -15.5459 O   0  0  0  0  0  0  0  0  0  0  0  0
  1  2  1  0
  2  3  1  0
  3  4  2  0
  6  5  1  6
  7  6  1  0
  7  3  1  0
  8  6  1  0
  8  9  2  0
 11 10  1  6
 11 13  1  0
 12 11  1  0
 13 14  1  6
 13 15  1  0
 14  8  1  0
 15 16  1  0
 17 15  2  0
M  END
$$$$
