GAV.pdb
     RDKit          3D

 17 16  0  0  1  0  0  0  0  0999 V2000
   19.3523  -11.1002  -18.7613 N   0  0  0  0  0  0  0  0  0  0  0  0
   19.6287   -9.7005  -18.9924 C   0  0  0  0  0  0  0  0  0  0  0  0
   20.4521   -9.1317  -17.8803 C   0  0  0  0  0  0  0  0  0  0  0  0
   20.3914   -9.6162  -16.7338 O   0  0  0  0  0  0  0  0  0  0  0  0
   23.0856   -6.4743  -17.7423 C   0  0  0  0  0  0  0  0  0  0  0  0
   22.1519   -7.4428  -17.0871 C   0  0  2  0  0  0  0  0  0  0  0  0
   21.3116   -8.0392  -18.1040 N   0  0  0  0  0  0  0  0  0  0  0  0
   21.3202   -6.6793  -16.0961 C   0  0  0  0  0  0  0  0  0  0  0  0
   20.3147   -6.0080  -16.4465 O   0  0  0  0  0  0  0  0  0  0  0  0
   19.3783   -7.9406  -13.4448 C   0  0  0  0  0  0  0  0  0  0  0  0
   20.2012   -6.8801  -12.7645 C   0  0  1  0  0  0  0  0  0  0  0  0
   21.2479   -7.5144  -11.8897 C   0  0  0  0  0  0  0  0  0  0  0  0
   20.8629   -5.9445  -13.7427 C   0  0  2  0  0  0  0  0  0  0  0  0
   21.6327   -6.6808  -14.7125 N   0  0  0  0  0  0  0  0  0  0  0  0
   21.6655   -4.8954  -13.0643 C   0  0  0  0  0  0  0  0  0  0  0  0
   23.0558   -4.8596  -13.1553 O   0  0  0  0  0  0  0  0  0  0  0  0
   21.1334   -3.9885  -12.3753 O   0  0  0  0  0  0  0  0  0  0  0  0
  1  2  1  0
  2  3  1  0
  3  4  2  0
  6  5  1  6
  7  6  1  0
  7  3  1  0
  8  6  1  0
  8  9  2  0
 11 10  1  6
 11 13  1  0
 12 11  1  0
 13 14  1  6
 13 15  1  0
 14  8  1  0
 15 16  1  0
 17 15  2  0
M  END
$$$$
