GAV.pdb
     RDKit          3D

 17 16  0  0  1  0  0  0  0  0999 V2000
   17.4874  -15.0017  -16.3466 N   0  0  0  0  0  0  0  0  0  0  0  0
   16.9382  -13.6681  -16.4409 C   0  0  0  0  0  0  0  0  0  0  0  0
   18.0209  -12.6644  -16.6835 C   0  0  0  0  0  0  0  0  0  0  0  0
   19.2201  -12.9984  -16.6267 O   0  0  0  0  0  0  0  0  0  0  0  0
   18.0189   -9.1061  -17.8245 C   0  0  0  0  0  0  0  0  0  0  0  0
   18.6969  -10.2904  -17.2107 C   0  0  2  0  0  0  0  0  0  0  0  0
   17.7095  -11.3239  -16.9805 N   0  0  0  0  0  0  0  0  0  0  0  0
   19.3092   -9.8468  -15.9126 C   0  0  0  0  0  0  0  0  0  0  0  0
   18.6620   -9.8551  -14.8330 O   0  0  0  0  0  0  0  0  0  0  0  0
   22.4528  -10.9980  -14.1613 C   0  0  0  0  0  0  0  0  0  0  0  0
   22.5627   -9.5097  -14.3548 C   0  0  1  0  0  0  0  0  0  0  0  0
   23.5206   -9.1990  -15.4725 C   0  0  0  0  0  0  0  0  0  0  0  0
   21.2319   -8.8629  -14.6387 C   0  0  2  0  0  0  0  0  0  0  0  0
   20.6523   -9.3958  -15.8451 N   0  0  0  0  0  0  0  0  0  0  0  0
   21.3191   -7.3808  -14.6618 C   0  0  0  0  0  0  0  0  0  0  0  0
   21.5134   -6.6375  -13.4990 O   0  0  0  0  0  0  0  0  0  0  0  0
   21.2223   -6.7225  -15.7285 O   0  0  0  0  0  0  0  0  0  0  0  0
  1  2  1  0
  2  3  1  0
  3  4  2  0
  6  5  1  1
  7  6  1  0
  7  3  1  0
  8  6  1  0
  8  9  2  0
 11 10  1  6
 11 13  1  0
 12 11  1  0
 13 14  1  6
 13 15  1  0
 14  8  1  0
 15 16  1  0
 17 15  2  0
M  END
$$$$
