GAV.pdb
     RDKit          3D

 17 16  0  0  1  0  0  0  0  0999 V2000
   14.3884  -12.2680  -13.7471 N   0  0  0  0  0  0  0  0  0  0  0  0
   14.8541  -10.9458  -14.0988 C   0  0  0  0  0  0  0  0  0  0  0  0
   15.3999  -10.2388  -12.8985 C   0  0  0  0  0  0  0  0  0  0  0  0
   14.7529  -10.2036  -11.8340 O   0  0  0  0  0  0  0  0  0  0  0  0
   18.6063   -8.4103  -12.2387 C   0  0  0  0  0  0  0  0  0  0  0  0
   17.2610   -8.9162  -11.8225 C   0  0  2  0  0  0  0  0  0  0  0  0
   16.6533   -9.5993  -12.9450 N   0  0  0  0  0  0  0  0  0  0  0  0
   16.4320   -7.7321  -11.4134 C   0  0  0  0  0  0  0  0  0  0  0  0
   15.8860   -6.9764  -12.2591 O   0  0  0  0  0  0  0  0  0  0  0  0
   13.4177   -7.6468   -9.3071 C   0  0  0  0  0  0  0  0  0  0  0  0
   14.3636   -6.6514   -8.6915 C   0  0  1  0  0  0  0  0  0  0  0  0
   14.9491   -7.2057   -7.4214 C   0  0  0  0  0  0  0  0  0  0  0  0
   15.4761   -6.2548   -9.6269 C   0  0  2  0  0  0  0  0  0  0  0  0
   16.2261   -7.4107  -10.0473 N   0  0  0  0  0  0  0  0  0  0  0  0
   16.3453   -5.1969   -9.0523 C   0  0  0  0  0  0  0  0  0  0  0  0
   15.9299   -3.8692   -8.9684 O   0  0  0  0  0  0  0  0  0  0  0  0
   17.4972   -5.4442   -8.6134 O   0  0  0  0  0  0  0  0  0  0  0  0
  1  2  1  0
  2  3  1  0
  3  4  2  0
  6  5  1  6
  7  6  1  0
  7  3  1  0
  8  6  1  0
  8  9  2  0
 11 10  1  6
 11 13  1  0
 12 11  1  0
 13 14  1  1
 13 15  1  0
 14  8  1  0
 15 16  1  0
 17 15  2  0
M  END
$$$$
