PMA.pdb
     RDKit          3D

 21 21  0  0  1  0  0  0  0  0999 V2000
   28.3136  -21.0536  -15.8663 N   0  0  0  0  0  0  0  0  0  0  0  0
   28.8541  -20.1004  -16.8164 C   0  0  0  0  0  0  0  0  0  0  0  0
   28.2700  -18.7607  -16.5128 C   0  0  0  0  0  0  0  0  0  0  0  0
   27.2339  -19.0776  -15.4297 C   0  0  0  0  0  0  0  0  0  0  0  0
   27.9287  -20.2530  -14.7606 C   0  0  1  0  0  0  0  0  0  0  0  0
   27.0315  -20.9242  -13.7996 C   0  0  0  0  0  0  0  0  0  0  0  0
   26.3526  -21.8952  -14.2036 O   0  0  0  0  0  0  0  0  0  0  0  0
   26.7785  -19.6270   -6.9983 C   0  0  0  0  0  0  0  0  0  0  0  0
   26.1068  -21.2004   -7.6100 S   0  0  0  0  0  0  0  0  0  0  0  0
   25.2114  -20.8259   -9.1577 C   0  0  0  0  0  0  0  0  0  0  0  0
   26.1643  -20.3829  -10.2251 C   0  0  0  0  0  0  0  0  0  0  0  0
   25.8316  -21.0067  -11.5647 C   0  0  2  0  0  0  0  0  0  0  0  0
   26.9099  -20.5152  -12.4483 N   0  0  0  0  0  0  0  0  0  0  0  0
   24.5231  -20.6065  -12.1037 C   0  0  0  0  0  0  0  0  0  0  0  0
   24.3163  -19.3928  -12.4618 O   0  0  0  0  0  0  0  0  0  0  0  0
   21.7684  -21.9495  -14.0289 C   0  0  0  0  0  0  0  0  0  0  0  0
   22.1714  -21.0139  -12.9085 C   0  0  2  0  0  0  0  0  0  0  0  0
   23.4180  -21.4757  -12.2783 N   0  0  0  0  0  0  0  0  0  0  0  0
   21.0762  -20.9348  -11.9391 C   0  0  0  0  0  0  0  0  0  0  0  0
   21.2536  -21.3754  -10.7773 O   0  0  0  0  0  0  0  0  0  0  0  0
   19.8387  -20.3911  -12.2443 O   0  0  0  0  0  0  0  0  0  0  0  0
  2  1  1  0
  3  2  1  0
  4  3  1  0
  4  5  1  0
  5  1  1  0
  6 13  1  0
  5  6  1  1
  7  6  2  0
  9  8  1  0
 10  9  1  0
 12 11  1  1
 11 10  1  0
 12 14  1  0
 12 13  1  0
 14 18  1  0
 15 14  2  0
 17 19  1  0
 17 16  1  6
 18 17  1  0
 19 21  1  0
 20 19  2  0
M  END
$$$$
