PMA.pdb
     RDKit          3D

 21 21  0  0  1  0  0  0  0  0999 V2000
   21.1085  -13.1282  -18.8816 N   0  0  0  0  0  0  0  0  0  0  0  0
   20.4709  -14.3208  -19.4057 C   0  0  0  0  0  0  0  0  0  0  0  0
   19.8514  -15.0557  -18.2635 C   0  0  0  0  0  0  0  0  0  0  0  0
   20.3413  -14.2675  -17.0446 C   0  0  0  0  0  0  0  0  0  0  0  0
   20.4235  -12.8814  -17.6644 C   0  0  1  0  0  0  0  0  0  0  0  0
   21.1026  -11.9335  -16.7593 C   0  0  0  0  0  0  0  0  0  0  0  0
   20.5475  -11.6525  -15.6731 O   0  0  0  0  0  0  0  0  0  0  0  0
   27.6557  -10.8925  -15.0967 C   0  0  0  0  0  0  0  0  0  0  0  0
   26.6980  -12.2577  -15.8179 S   0  0  0  0  0  0  0  0  0  0  0  0
   24.9353  -11.8797  -15.5222 C   0  0  0  0  0  0  0  0  0  0  0  0
   24.4982  -10.7141  -16.3552 C   0  0  0  0  0  0  0  0  0  0  0  0
   23.0308  -10.3999  -16.1496 C   0  0  2  0  0  0  0  0  0  0  0  0
   22.3487  -11.3343  -17.0698 N   0  0  0  0  0  0  0  0  0  0  0  0
   22.6623   -9.0152  -16.4805 C   0  0  0  0  0  0  0  0  0  0  0  0
   22.7696   -8.5889  -17.6850 O   0  0  0  0  0  0  0  0  0  0  0  0
   20.3700   -6.6577  -16.4409 C   0  0  0  0  0  0  0  0  0  0  0  0
   21.8094   -6.7003  -15.9725 C   0  0  2  0  0  0  0  0  0  0  0  0
   22.1721   -8.0630  -15.5531 N   0  0  0  0  0  0  0  0  0  0  0  0
   21.9822   -5.7382  -14.8816 C   0  0  0  0  0  0  0  0  0  0  0  0
   22.1633   -6.1619  -13.7141 O   0  0  0  0  0  0  0  0  0  0  0  0
   21.9556   -4.3665  -15.0766 O   0  0  0  0  0  0  0  0  0  0  0  0
  2  1  1  0
  3  2  1  0
  4  3  1  0
  4  5  1  0
  5  1  1  0
  6 13  1  0
  5  6  1  1
  7  6  2  0
  9  8  1  0
 10  9  1  0
 12 11  1  6
 11 10  1  0
 12 14  1  0
 12 13  1  0
 14 18  1  0
 15 14  2  0
 17 19  1  0
 17 16  1  1
 18 17  1  0
 19 21  1  0
 20 19  2  0
M  END
$$$$
