PMA.pdb
     RDKit          3D

 21 21  0  0  1  0  0  0  0  0999 V2000
   26.9271  -17.6065  -15.3137 N   0  0  0  0  0  0  0  0  0  0  0  0
   27.8683  -16.7411  -15.9985 C   0  0  0  0  0  0  0  0  0  0  0  0
   29.0756  -17.5488  -16.3424 C   0  0  0  0  0  0  0  0  0  0  0  0
   28.8025  -18.8850  -15.6443 C   0  0  0  0  0  0  0  0  0  0  0  0
   27.2854  -18.9095  -15.7443 C   0  0  1  0  0  0  0  0  0  0  0  0
   26.7166  -20.0026  -14.9315 C   0  0  0  0  0  0  0  0  0  0  0  0
   26.9103  -21.1809  -15.3070 O   0  0  0  0  0  0  0  0  0  0  0  0
   25.8653  -19.5368   -8.5627 C   0  0  0  0  0  0  0  0  0  0  0  0
   26.0646  -21.3082   -8.9145 S   0  0  0  0  0  0  0  0  0  0  0  0
   25.3578  -21.5996  -10.5737 C   0  0  0  0  0  0  0  0  0  0  0  0
   25.8823  -20.5965  -11.5547 C   0  0  0  0  0  0  0  0  0  0  0  0
   25.3795  -20.8710  -12.9568 C   0  0  2  0  0  0  0  0  0  0  0  0
   25.9659  -19.7715  -13.7520 N   0  0  0  0  0  0  0  0  0  0  0  0
   23.9143  -20.8517  -13.0827 C   0  0  0  0  0  0  0  0  0  0  0  0
   23.2671  -19.7564  -12.9232 O   0  0  0  0  0  0  0  0  0  0  0  0
   21.1080  -23.0922  -14.2537 C   0  0  0  0  0  0  0  0  0  0  0  0
   21.6572  -21.8582  -13.5692 C   0  0  2  0  0  0  0  0  0  0  0  0
   23.1114  -21.9799  -13.3823 N   0  0  0  0  0  0  0  0  0  0  0  0
   20.9644  -21.6762  -12.2915 C   0  0  0  0  0  0  0  0  0  0  0  0
   21.5961  -21.8535  -11.2215 O   0  0  0  0  0  0  0  0  0  0  0  0
   19.6298  -21.3136  -12.2040 O   0  0  0  0  0  0  0  0  0  0  0  0
  2  1  1  0
  3  2  1  0
  4  3  1  0
  4  5  1  0
  5  1  1  0
  6 13  1  0
  5  6  1  1
  7  6  2  0
  9  8  1  0
 10  9  1  0
 12 11  1  1
 11 10  1  0
 12 14  1  0
 12 13  1  0
 14 18  1  0
 15 14  2  0
 17 19  1  0
 17 16  1  1
 18 17  1  0
 19 21  1  0
 20 19  2  0
M  END
$$$$
