PMA.pdb
     RDKit          3D

 21 21  0  0  1  0  0  0  0  0999 V2000
   37.5025   -5.7242  -13.8886 N   0  0  0  0  0  0  0  0  0  0  0  0
   37.6395   -6.9363  -14.6733 C   0  0  0  0  0  0  0  0  0  0  0  0
   36.2740   -7.4869  -14.9188 C   0  0  0  0  0  0  0  0  0  0  0  0
   35.3817   -6.5801  -14.0651 C   0  0  0  0  0  0  0  0  0  0  0  0
   36.1800   -5.2893  -14.1599 C   0  0  1  0  0  0  0  0  0  0  0  0
   35.6630   -4.2742  -13.2212 C   0  0  0  0  0  0  0  0  0  0  0  0
   34.4525   -3.9636  -13.2942 O   0  0  0  0  0  0  0  0  0  0  0  0
   37.2175   -0.8577   -6.3223 C   0  0  0  0  0  0  0  0  0  0  0  0
   37.7440   -2.0277   -7.6089 S   0  0  0  0  0  0  0  0  0  0  0  0
   36.5611   -1.8599   -8.9909 C   0  0  0  0  0  0  0  0  0  0  0  0
   36.8718   -2.8460  -10.0747 C   0  0  0  0  0  0  0  0  0  0  0  0
   35.9339   -2.6935  -11.2542 C   0  0  2  0  0  0  0  0  0  0  0  0
   36.4773   -3.6427  -12.2485 N   0  0  0  0  0  0  0  0  0  0  0  0
   35.9024   -1.3378  -11.8235 C   0  0  0  0  0  0  0  0  0  0  0  0
   36.9208   -0.8780  -12.4524 O   0  0  0  0  0  0  0  0  0  0  0  0
   33.4352    1.4041  -12.5845 C   0  0  0  0  0  0  0  0  0  0  0  0
   34.8396    0.8784  -12.3742 C   0  0  2  0  0  0  0  0  0  0  0  0
   34.8007   -0.4506  -11.7442 N   0  0  0  0  0  0  0  0  0  0  0  0
   35.5884    1.8378  -11.5592 C   0  0  0  0  0  0  0  0  0  0  0  0
   35.6432    1.6742  -10.3160 O   0  0  0  0  0  0  0  0  0  0  0  0
   36.2477    2.9307  -12.0988 O   0  0  0  0  0  0  0  0  0  0  0  0
  2  1  1  0
  3  2  1  0
  4  3  1  0
  4  5  1  0
  5  1  1  0
  6 13  1  0
  5  6  1  1
  7  6  2  0
  9  8  1  0
 10  9  1  0
 12 11  1  1
 11 10  1  0
 12 14  1  0
 12 13  1  0
 14 18  1  0
 15 14  2  0
 17 19  1  0
 17 16  1  1
 18 17  1  0
 19 21  1  0
 20 19  2  0
M  END
$$$$
