PMA.pdb
     RDKit          3D

 21 21  0  0  1  0  0  0  0  0999 V2000
   22.4050  -12.3804  -19.1810 N   0  0  0  0  0  0  0  0  0  0  0  0
   21.8706  -13.4977  -19.9359 C   0  0  0  0  0  0  0  0  0  0  0  0
   20.9355  -14.2515  -19.0496 C   0  0  0  0  0  0  0  0  0  0  0  0
   21.1236  -13.5655  -17.6928 C   0  0  0  0  0  0  0  0  0  0  0  0
   21.4353  -12.1560  -18.1705 C   0  0  1  0  0  0  0  0  0  0  0  0
   21.8967  -11.3063  -17.0551 C   0  0  0  0  0  0  0  0  0  0  0  0
   21.1435  -11.1709  -16.0644 O   0  0  0  0  0  0  0  0  0  0  0  0
   27.6107  -13.1865  -14.6537 C   0  0  0  0  0  0  0  0  0  0  0  0
   27.2645  -11.6162  -15.4996 S   0  0  0  0  0  0  0  0  0  0  0  0
   25.4627  -11.3388  -15.3807 C   0  0  0  0  0  0  0  0  0  0  0  0
   25.0987   -9.9921  -15.9262 C   0  0  0  0  0  0  0  0  0  0  0  0
   23.5984   -9.7846  -15.9461 C   0  0  2  0  0  0  0  0  0  0  0  0
   23.1490  -10.6433  -17.0622 N   0  0  0  0  0  0  0  0  0  0  0  0
   23.1889   -8.3934  -16.1903 C   0  0  0  0  0  0  0  0  0  0  0  0
   23.4825   -7.8192  -17.2985 O   0  0  0  0  0  0  0  0  0  0  0  0
   20.7271   -6.0159  -15.9999 C   0  0  0  0  0  0  0  0  0  0  0  0
   22.1684   -6.1773  -15.5645 C   0  0  2  0  0  0  0  0  0  0  0  0
   22.4622   -7.5900  -15.2773 N   0  0  0  0  0  0  0  0  0  0  0  0
   22.4084   -5.3297  -14.3942 C   0  0  0  0  0  0  0  0  0  0  0  0
   22.3899   -4.0818  -14.5275 O   0  0  0  0  0  0  0  0  0  0  0  0
   22.6579   -5.8432  -13.1315 O   0  0  0  0  0  0  0  0  0  0  0  0
  2  1  1  0
  3  2  1  0
  4  3  1  0
  4  5  1  0
  5  1  1  0
  6 13  1  0
  5  6  1  1
  7  6  2  0
  9  8  1  0
 10  9  1  0
 12 11  1  6
 11 10  1  0
 12 14  1  0
 12 13  1  0
 14 18  1  0
 15 14  2  0
 17 19  1  0
 17 16  1  1
 18 17  1  0
 19 21  1  0
 20 19  2  0
M  END
$$$$
