PMA.pdb
     RDKit          3D

 21 21  0  0  1  0  0  0  0  0999 V2000
   17.5155  -12.0332  -15.1291 N   0  0  0  0  0  0  0  0  0  0  0  0
   18.5840  -12.7447  -15.8041 C   0  0  0  0  0  0  0  0  0  0  0  0
   19.7423  -11.8142  -15.9482 C   0  0  0  0  0  0  0  0  0  0  0  0
   19.1724  -10.4807  -15.4542 C   0  0  0  0  0  0  0  0  0  0  0  0
   18.1852  -11.0021  -14.4219 C   0  0  1  0  0  0  0  0  0  0  0  0
   17.3059   -9.9216  -13.9337 C   0  0  0  0  0  0  0  0  0  0  0  0
   16.2557   -9.6809  -14.5709 O   0  0  0  0  0  0  0  0  0  0  0  0
   14.6207   -6.3371   -7.6248 C   0  0  0  0  0  0  0  0  0  0  0  0
   15.5820   -7.6896   -8.3651 S   0  0  0  0  0  0  0  0  0  0  0  0
   15.9120   -7.2153  -10.0981 C   0  0  0  0  0  0  0  0  0  0  0  0
   16.7062   -8.2776  -10.7943 C   0  0  0  0  0  0  0  0  0  0  0  0
   16.7131   -8.0761  -12.2954 C   0  0  2  0  0  0  0  0  0  0  0  0
   17.6023   -9.1524  -12.7810 N   0  0  0  0  0  0  0  0  0  0  0  0
   17.2332   -6.7683  -12.7222 C   0  0  0  0  0  0  0  0  0  0  0  0
   18.4695   -6.4768  -12.5469 O   0  0  0  0  0  0  0  0  0  0  0  0
   16.2748   -3.8346  -14.8571 C   0  0  0  0  0  0  0  0  0  0  0  0
   17.0620   -4.4652  -13.7276 C   0  0  2  0  0  0  0  0  0  0  0  0
   16.4640   -5.7531  -13.3425 N   0  0  0  0  0  0  0  0  0  0  0  0
   17.1027   -3.5326  -12.5989 C   0  0  0  0  0  0  0  0  0  0  0  0
   17.6886   -2.4310  -12.7354 O   0  0  0  0  0  0  0  0  0  0  0  0
   16.5194   -3.8091  -11.3727 O   0  0  0  0  0  0  0  0  0  0  0  0
  2  1  1  0
  3  2  1  0
  4  3  1  0
  4  5  1  0
  5  1  1  0
  6 13  1  0
  5  6  1  6
  7  6  2  0
  9  8  1  0
 10  9  1  0
 12 11  1  1
 11 10  1  0
 12 14  1  0
 12 13  1  0
 14 18  1  0
 15 14  2  0
 17 19  1  0
 17 16  1  6
 18 17  1  0
 19 21  1  0
 20 19  2  0
M  END
$$$$
