WCA.pdb
     RDKit          3D

 26 27  0  0  1  0  0  0  0  0999 V2000
   19.5786  -21.2770  -13.6510 N   0  0  0  0  0  0  0  0  0  0  0  0
   19.0688  -22.5126  -14.1239 C   0  0  1  0  0  0  0  0  0  0  0  0
   19.6370  -22.8980  -15.4516 C   0  0  0  0  0  0  0  0  0  0  0  0
   19.4209  -21.8103  -16.4178 C   0  0  0  0  0  0  0  0  0  0  0  0
   20.1219  -20.6007  -16.5031 C   0  0  0  0  0  0  0  0  0  0  0  0
   19.6514  -19.8908  -17.5398 N   0  0  0  0  0  0  0  0  0  0  0  0
   18.6681  -20.5744  -18.1474 C   0  0  0  0  0  0  0  0  0  0  0  0
   17.8581  -20.3154  -19.2243 C   0  0  0  0  0  0  0  0  0  0  0  0
   16.8951  -21.2184  -19.6340 C   0  0  0  0  0  0  0  0  0  0  0  0
   16.7452  -22.3932  -18.9538 C   0  0  0  0  0  0  0  0  0  0  0  0
   17.5547  -22.6616  -17.8712 C   0  0  0  0  0  0  0  0  0  0  0  0
   18.5145  -21.7815  -17.4505 C   0  0  0  0  0  0  0  0  0  0  0  0
   19.1234  -23.6320  -13.1452 C   0  0  0  0  0  0  0  0  0  0  0  0
   20.0283  -23.5424  -12.2622 O   0  0  0  0  0  0  0  0  0  0  0  0
   18.2785  -24.7418  -13.1245 N   0  0  0  0  0  0  0  0  0  0  0  0
   18.4477  -25.7474  -12.0803 C   0  0  1  0  0  0  0  0  0  0  0  0
   18.1175  -25.0119  -10.7889 C   0  0  0  0  0  0  0  0  0  0  0  0
   18.3448  -26.0404   -9.3331 S   0  0  0  0  0  0  0  0  0  0  0  0
   17.4667  -26.8545  -12.2758 C   0  0  0  0  0  0  0  0  0  0  0  0
   16.2155  -26.6029  -12.3007 O   0  0  0  0  0  0  0  0  0  0  0  0
   17.6955  -30.6438  -12.7507 C   0  0  0  0  0  0  0  0  0  0  0  0
   17.0088  -29.3346  -12.5929 C   0  0  2  0  0  0  0  0  0  0  0  0
   17.8774  -28.1984  -12.4406 N   0  0  0  0  0  0  0  0  0  0  0  0
   15.9326  -29.3506  -11.5372 C   0  0  0  0  0  0  0  0  0  0  0  0
   14.6623  -29.7993  -11.8042 O   0  0  0  0  0  0  0  0  0  0  0  0
   16.2298  -28.9407  -10.4012 O   0  0  0  0  0  0  0  0  0  0  0  0
  2  1  1  1
  2 13  1  0
  3  2  1  0
  3  4  1  0
  4  5  2  0
  4 12  1  0
  5  6  1  0
  6  7  1  0
  7  8  2  0
  8  9  1  0
 10  9  2  0
 11 10  1  0
 12 11  2  0
 12  7  1  0
 13 14  2  0
 15 16  1  0
 15 13  1  0
 16 19  1  0
 16 17  1  1
 18 17  1  0
 19 23  1  0
 20 19  2  0
 22 21  1  1
 23 22  1  0
 24 25  1  0
 24 22  1  0
 26 24  2  0
M  END
$$$$
