WCA.pdb
     RDKit          3D

 26 27  0  0  1  0  0  0  0  0999 V2000
   40.5472   -9.1993   -7.9998 N   0  0  0  0  0  0  0  0  0  0  0  0
   39.4231   -8.7230   -8.7204 C   0  0  1  0  0  0  0  0  0  0  0  0
   38.1957   -8.6272   -7.8726 C   0  0  0  0  0  0  0  0  0  0  0  0
   37.7232   -9.9773   -7.5302 C   0  0  0  0  0  0  0  0  0  0  0  0
   37.6694  -10.5589   -6.2571 C   0  0  0  0  0  0  0  0  0  0  0  0
   37.1436  -11.7893   -6.3566 N   0  0  0  0  0  0  0  0  0  0  0  0
   36.8460  -12.0520   -7.6395 C   0  0  0  0  0  0  0  0  0  0  0  0
   36.3101  -13.1373   -8.2857 C   0  0  0  0  0  0  0  0  0  0  0  0
   36.1200  -13.1379   -9.6549 C   0  0  0  0  0  0  0  0  0  0  0  0
   36.4728  -12.0362  -10.3810 C   0  0  0  0  0  0  0  0  0  0  0  0
   37.0114  -10.9417   -9.7399 C   0  0  0  0  0  0  0  0  0  0  0  0
   37.2065  -10.9208   -8.3857 C   0  0  0  0  0  0  0  0  0  0  0  0
   39.6589   -7.4820   -9.5065 C   0  0  0  0  0  0  0  0  0  0  0  0
   40.4961   -6.6707   -9.0090 O   0  0  0  0  0  0  0  0  0  0  0  0
   39.0470   -7.1515  -10.7158 N   0  0  0  0  0  0  0  0  0  0  0  0
   39.3337   -5.8589  -11.3302 C   0  0  1  0  0  0  0  0  0  0  0  0
   39.2008   -6.1125  -12.8255 C   0  0  0  0  0  0  0  0  0  0  0  0
   39.2265   -4.5943  -13.7864 S   0  0  0  0  0  0  0  0  0  0  0  0
   38.3094   -4.8580  -10.9121 C   0  0  0  0  0  0  0  0  0  0  0  0
   37.0921   -5.2126  -10.7644 O   0  0  0  0  0  0  0  0  0  0  0  0
   38.3925   -1.3513   -9.4784 C   0  0  0  0  0  0  0  0  0  0  0  0
   37.7449   -2.4892  -10.1829 C   0  0  2  0  0  0  0  0  0  0  0  0
   38.6416   -3.5049  -10.6655 N   0  0  0  0  0  0  0  0  0  0  0  0
   36.7786   -2.0531  -11.2548 C   0  0  0  0  0  0  0  0  0  0  0  0
   36.9953   -2.3309  -12.5822 O   0  0  0  0  0  0  0  0  0  0  0  0
   35.7648   -1.4260  -10.9001 O   0  0  0  0  0  0  0  0  0  0  0  0
  2  1  1  1
  2 13  1  0
  3  2  1  0
  3  4  1  0
  4  5  2  0
  4 12  1  0
  5  6  1  0
  6  7  1  0
  7  8  2  0
  8  9  1  0
 10  9  2  0
 11 10  1  0
 12 11  2  0
 12  7  1  0
 13 14  2  0
 15 16  1  0
 15 13  1  0
 16 19  1  0
 16 17  1  6
 18 17  1  0
 19 23  1  0
 20 19  2  0
 22 21  1  6
 23 22  1  0
 24 25  1  0
 24 22  1  0
 26 24  2  0
M  END
$$$$
