WCA.pdb
     RDKit          3D

 26 27  0  0  1  0  0  0  0  0999 V2000
   21.9380  -34.6263   -5.3283 N   0  0  0  0  0  0  0  0  0  0  0  0
   23.2903  -34.4379   -4.9466 C   0  0  1  0  0  0  0  0  0  0  0  0
   23.7297  -33.0147   -5.0723 C   0  0  0  0  0  0  0  0  0  0  0  0
   23.8204  -32.6477   -6.4937 C   0  0  0  0  0  0  0  0  0  0  0  0
   22.7627  -32.3380   -7.3582 C   0  0  0  0  0  0  0  0  0  0  0  0
   23.2577  -32.0203   -8.5641 N   0  0  0  0  0  0  0  0  0  0  0  0
   24.5977  -32.1057   -8.5401 C   0  0  0  0  0  0  0  0  0  0  0  0
   25.5779  -31.9026   -9.4786 C   0  0  0  0  0  0  0  0  0  0  0  0
   26.9144  -32.0795   -9.1730 C   0  0  0  0  0  0  0  0  0  0  0  0
   27.2681  -32.4646   -7.9112 C   0  0  0  0  0  0  0  0  0  0  0  0
   26.2901  -32.6704   -6.9624 C   0  0  0  0  0  0  0  0  0  0  0  0
   24.9620  -32.4996   -7.2446 C   0  0  0  0  0  0  0  0  0  0  0  0
   23.6604  -35.0240   -3.6301 C   0  0  0  0  0  0  0  0  0  0  0  0
   22.7223  -35.0957   -2.7807 O   0  0  0  0  0  0  0  0  0  0  0  0
   24.9251  -35.4883   -3.2682 N   0  0  0  0  0  0  0  0  0  0  0  0
   25.1033  -36.1354   -1.9721 C   0  0  1  0  0  0  0  0  0  0  0  0
   25.8363  -37.4306   -2.2929 C   0  0  0  0  0  0  0  0  0  0  0  0
   27.0760  -37.2205   -3.5766 S   0  0  0  0  0  0  0  0  0  0  0  0
   25.9659  -35.2907   -1.0956 C   0  0  0  0  0  0  0  0  0  0  0  0
   26.7206  -34.3988   -1.6098 O   0  0  0  0  0  0  0  0  0  0  0  0
   26.2976  -34.6661    2.6366 C   0  0  0  0  0  0  0  0  0  0  0  0
   26.7890  -34.6918    1.2336 C   0  0  2  0  0  0  0  0  0  0  0  0
   25.9784  -35.4408    0.3113 N   0  0  0  0  0  0  0  0  0  0  0  0
   28.2443  -35.0687    1.1197 C   0  0  0  0  0  0  0  0  0  0  0  0
   29.2359  -34.3113    1.6933 O   0  0  0  0  0  0  0  0  0  0  0  0
   28.5274  -36.0991    0.4832 O   0  0  0  0  0  0  0  0  0  0  0  0
  2  1  1  1
  2 13  1  0
  3  2  1  0
  3  4  1  0
  4  5  2  0
  4 12  1  0
  5  6  1  0
  6  7  1  0
  7  8  2  0
  8  9  1  0
 10  9  2  0
 11 10  1  0
 12 11  2  0
 12  7  1  0
 13 14  2  0
 15 16  1  0
 15 13  1  0
 16 19  1  0
 16 17  1  6
 18 17  1  0
 19 23  1  0
 20 19  2  0
 22 21  1  1
 23 22  1  0
 24 25  1  0
 24 22  1  0
 26 24  2  0
M  END
$$$$
