WCA.pdb
     RDKit          3D

 26 27  0  0  1  0  0  0  0  0999 V2000
   24.4095  -20.2536   -8.6811 N   0  0  0  0  0  0  0  0  0  0  0  0
   25.5552  -20.4163   -9.5001 C   0  0  1  0  0  0  0  0  0  0  0  0
   26.5896  -21.2945   -8.8730 C   0  0  0  0  0  0  0  0  0  0  0  0
   26.6046  -21.0812   -7.4179 C   0  0  0  0  0  0  0  0  0  0  0  0
   25.7233  -21.6216   -6.4729 C   0  0  0  0  0  0  0  0  0  0  0  0
   26.0905  -21.2191   -5.2468 N   0  0  0  0  0  0  0  0  0  0  0  0
   27.1767  -20.4343   -5.3346 C   0  0  0  0  0  0  0  0  0  0  0  0
   27.9398  -19.7643   -4.4118 C   0  0  0  0  0  0  0  0  0  0  0  0
   29.0254  -18.9993   -4.7950 C   0  0  0  0  0  0  0  0  0  0  0  0
   29.3465  -18.9072   -6.1193 C   0  0  0  0  0  0  0  0  0  0  0  0
   28.5856  -19.5772   -7.0529 C   0  0  0  0  0  0  0  0  0  0  0  0
   27.5080  -20.3404   -6.6939 C   0  0  0  0  0  0  0  0  0  0  0  0
   25.2723  -20.8025  -10.9089 C   0  0  0  0  0  0  0  0  0  0  0  0
   25.7784  -21.9016  -11.2864 O   0  0  0  0  0  0  0  0  0  0  0  0
   24.5136  -20.0690  -11.8211 N   0  0  0  0  0  0  0  0  0  0  0  0
   24.3436  -20.5772  -13.1788 C   0  0  1  0  0  0  0  0  0  0  0  0
   22.9598  -21.2120  -13.1753 C   0  0  0  0  0  0  0  0  0  0  0  0
   22.4138  -21.6824  -14.8214 S   0  0  0  0  0  0  0  0  0  0  0  0
   24.3591  -19.4460  -14.1515 C   0  0  0  0  0  0  0  0  0  0  0  0
   23.7096  -18.3766  -13.8987 O   0  0  0  0  0  0  0  0  0  0  0  0
   26.2268  -18.6203  -17.3666 C   0  0  0  0  0  0  0  0  0  0  0  0
   25.1165  -18.4985  -16.3854 C   0  0  2  0  0  0  0  0  0  0  0  0
   25.0820  -19.5126  -15.3660 N   0  0  0  0  0  0  0  0  0  0  0  0
   23.7665  -18.3226  -17.0331 C   0  0  0  0  0  0  0  0  0  0  0  0
   23.2702  -17.0813  -17.3479 O   0  0  0  0  0  0  0  0  0  0  0  0
   23.1043  -19.3463  -17.2787 O   0  0  0  0  0  0  0  0  0  0  0  0
  2  1  1  1
  2 13  1  0
  3  2  1  0
  3  4  1  0
  4  5  2  0
  4 12  1  0
  5  6  1  0
  6  7  1  0
  7  8  2  0
  8  9  1  0
 10  9  2  0
 11 10  1  0
 12 11  2  0
 12  7  1  0
 13 14  2  0
 15 16  1  0
 15 13  1  0
 16 19  1  0
 16 17  1  1
 18 17  1  0
 19 23  1  0
 20 19  2  0
 22 21  1  6
 23 22  1  0
 24 25  1  0
 24 22  1  0
 26 24  2  0
M  END
$$$$
