WCA.pdb
     RDKit          3D

 26 27  0  0  1  0  0  0  0  0999 V2000
   28.7967  -21.0624  -15.3559 N   0  0  0  0  0  0  0  0  0  0  0  0
   27.6673  -20.3724  -14.8478 C   0  0  1  0  0  0  0  0  0  0  0  0
   26.8584  -19.7235  -15.9244 C   0  0  0  0  0  0  0  0  0  0  0  0
   27.5858  -18.5625  -16.4593 C   0  0  0  0  0  0  0  0  0  0  0  0
   28.3845  -18.5191  -17.6092 C   0  0  0  0  0  0  0  0  0  0  0  0
   28.8439  -17.2701  -17.7799 N   0  0  0  0  0  0  0  0  0  0  0  0
   28.3867  -16.4811  -16.7941 C   0  0  0  0  0  0  0  0  0  0  0  0
   28.5524  -15.1539  -16.4874 C   0  0  0  0  0  0  0  0  0  0  0  0
   27.9575  -14.5932  -15.3728 C   0  0  0  0  0  0  0  0  0  0  0  0
   27.1885  -15.3751  -14.5587 C   0  0  0  0  0  0  0  0  0  0  0  0
   27.0164  -16.7089  -14.8595 C   0  0  0  0  0  0  0  0  0  0  0  0
   27.5958  -17.2827  -15.9585 C   0  0  0  0  0  0  0  0  0  0  0  0
   26.8216  -21.1558  -13.9072 C   0  0  0  0  0  0  0  0  0  0  0  0
   26.7028  -22.3887  -14.1764 O   0  0  0  0  0  0  0  0  0  0  0  0
   26.1677  -20.6524  -12.7825 N   0  0  0  0  0  0  0  0  0  0  0  0
   25.2262  -21.5052  -12.0638 C   0  0  1  0  0  0  0  0  0  0  0  0
   25.4852  -21.2014  -10.5946 C   0  0  0  0  0  0  0  0  0  0  0  0
   25.4311  -19.4416  -10.2354 S   0  0  0  0  0  0  0  0  0  0  0  0
   23.8261  -21.1168  -12.4029 C   0  0  0  0  0  0  0  0  0  0  0  0
   23.5233  -19.8862  -12.5557 O   0  0  0  0  0  0  0  0  0  0  0  0
   20.7280  -22.8750  -13.6521 C   0  0  0  0  0  0  0  0  0  0  0  0
   21.4290  -21.8023  -12.8982 C   0  0  2  0  0  0  0  0  0  0  0  0
   22.8013  -22.0783  -12.5676 N   0  0  0  0  0  0  0  0  0  0  0  0
   20.6590  -21.3199  -11.6951 C   0  0  0  0  0  0  0  0  0  0  0  0
   19.5356  -20.5396  -11.8190 O   0  0  0  0  0  0  0  0  0  0  0  0
   21.0739  -21.6522  -10.5707 O   0  0  0  0  0  0  0  0  0  0  0  0
  2  1  1  6
  2 13  1  0
  3  2  1  0
  3  4  1  0
  4  5  2  0
  4 12  1  0
  5  6  1  0
  6  7  1  0
  7  8  2  0
  8  9  1  0
 10  9  2  0
 11 10  1  0
 12 11  2  0
 12  7  1  0
 13 14  2  0
 15 16  1  0
 15 13  1  0
 16 19  1  0
 16 17  1  1
 18 17  1  0
 19 23  1  0
 20 19  2  0
 22 21  1  1
 23 22  1  0
 24 25  1  0
 24 22  1  0
 26 24  2  0
M  END
$$$$
