WCA.pdb
     RDKit          3D

 26 27  0  0  1  0  0  0  0  0999 V2000
   19.0655  -12.9088  -17.3675 N   0  0  0  0  0  0  0  0  0  0  0  0
   18.8676  -11.5076  -17.4550 C   0  0  1  0  0  0  0  0  0  0  0  0
   17.4402  -11.1151  -17.2485 C   0  0  0  0  0  0  0  0  0  0  0  0
   16.5972  -11.7564  -18.2691 C   0  0  0  0  0  0  0  0  0  0  0  0
   16.8820  -11.9052  -19.6324 C   0  0  0  0  0  0  0  0  0  0  0  0
   15.8806  -12.5763  -20.2212 N   0  0  0  0  0  0  0  0  0  0  0  0
   14.9420  -12.8800  -19.3101 C   0  0  0  0  0  0  0  0  0  0  0  0
   13.7369  -13.5333  -19.3713 C   0  0  0  0  0  0  0  0  0  0  0  0
   12.9489  -13.6963  -18.2474 C   0  0  0  0  0  0  0  0  0  0  0  0
   13.3772  -13.1973  -17.0503 C   0  0  0  0  0  0  0  0  0  0  0  0
   14.5865  -12.5401  -16.9798 C   0  0  0  0  0  0  0  0  0  0  0  0
   15.3816  -12.3693  -18.0803 C   0  0  0  0  0  0  0  0  0  0  0  0
   19.7982  -10.6879  -16.6330 C   0  0  0  0  0  0  0  0  0  0  0  0
   19.8665  -11.0026  -15.4071 O   0  0  0  0  0  0  0  0  0  0  0  0
   20.5804   -9.6290  -17.0946 N   0  0  0  0  0  0  0  0  0  0  0  0
   21.4036   -8.8845  -16.1467 C   0  0  1  0  0  0  0  0  0  0  0  0
   22.7831   -8.8486  -16.7897 C   0  0  0  0  0  0  0  0  0  0  0  0
   23.9209   -7.7643  -15.9188 S   0  0  0  0  0  0  0  0  0  0  0  0
   20.8911   -7.4897  -16.0132 C   0  0  0  0  0  0  0  0  0  0  0  0
   20.6197   -6.8057  -17.0562 O   0  0  0  0  0  0  0  0  0  0  0  0
   19.0970   -5.3521  -13.6411 C   0  0  0  0  0  0  0  0  0  0  0  0
   20.2827   -5.5234  -14.5215 C   0  0  2  0  0  0  0  0  0  0  0  0
   20.6877   -6.8844  -14.7506 N   0  0  0  0  0  0  0  0  0  0  0  0
   21.4522   -4.6611  -14.1192 C   0  0  0  0  0  0  0  0  0  0  0  0
   21.4982   -3.3201  -14.4119 O   0  0  0  0  0  0  0  0  0  0  0  0
   22.3881   -5.2042  -13.5059 O   0  0  0  0  0  0  0  0  0  0  0  0
  2  1  1  1
  2 13  1  0
  3  2  1  0
  3  4  1  0
  4  5  2  0
  4 12  1  0
  5  6  1  0
  6  7  1  0
  7  8  2  0
  8  9  1  0
 10  9  2  0
 11 10  1  0
 12 11  2  0
 12  7  1  0
 13 14  2  0
 15 16  1  0
 15 13  1  0
 16 19  1  0
 16 17  1  6
 18 17  1  0
 19 23  1  0
 20 19  2  0
 22 21  1  1
 23 22  1  0
 24 25  1  0
 24 22  1  0
 26 24  2  0
M  END
$$$$
