WCA.pdb
     RDKit          3D

 26 27  0  0  1  0  0  0  0  0999 V2000
   28.2675  -20.8975  -11.3035 N   0  0  0  0  0  0  0  0  0  0  0  0
   27.0015  -21.0991  -10.6979 C   0  0  1  0  0  0  0  0  0  0  0  0
   26.8442  -20.3300   -9.4259 C   0  0  0  0  0  0  0  0  0  0  0  0
   28.0016  -20.5752   -8.5521 C   0  0  0  0  0  0  0  0  0  0  0  0
   29.1939  -21.2289   -8.8882 C   0  0  0  0  0  0  0  0  0  0  0  0
   30.0165  -21.2178   -7.8284 N   0  0  0  0  0  0  0  0  0  0  0  0
   29.4239  -20.5863   -6.8020 C   0  0  0  0  0  0  0  0  0  0  0  0
   29.8042  -20.3064   -5.5136 C   0  0  0  0  0  0  0  0  0  0  0  0
   28.9648  -19.6332   -4.6458 C   0  0  0  0  0  0  0  0  0  0  0  0
   27.7310  -19.2381   -5.0780 C   0  0  0  0  0  0  0  0  0  0  0  0
   27.3411  -19.5149   -6.3705 C   0  0  0  0  0  0  0  0  0  0  0  0
   28.1574  -20.1789   -7.2453 C   0  0  0  0  0  0  0  0  0  0  0  0
   25.8350  -20.9256  -11.6050 C   0  0  0  0  0  0  0  0  0  0  0  0
   25.8608  -19.8911  -12.3369 O   0  0  0  0  0  0  0  0  0  0  0  0
   24.7452  -21.7900  -11.7099 N   0  0  0  0  0  0  0  0  0  0  0  0
   23.7686  -21.5805  -12.7742 C   0  0  1  0  0  0  0  0  0  0  0  0
   23.8481  -22.8465  -13.6159 C   0  0  0  0  0  0  0  0  0  0  0  0
   22.6084  -22.8880  -14.9161 S   0  0  0  0  0  0  0  0  0  0  0  0
   22.3991  -21.4659  -12.1932 C   0  0  0  0  0  0  0  0  0  0  0  0
   22.0478  -22.2260  -11.2298 O   0  0  0  0  0  0  0  0  0  0  0  0
   19.3223  -19.2965  -12.8701 C   0  0  0  0  0  0  0  0  0  0  0  0
   20.0824  -20.4224  -12.2659 C   0  0  2  0  0  0  0  0  0  0  0  0
   21.4569  -20.5275  -12.6764 N   0  0  0  0  0  0  0  0  0  0  0  0
   19.3717  -21.7474  -12.3767 C   0  0  0  0  0  0  0  0  0  0  0  0
   18.4657  -22.1648  -11.4328 O   0  0  0  0  0  0  0  0  0  0  0  0
   19.6313  -22.4632  -13.3602 O   0  0  0  0  0  0  0  0  0  0  0  0
  2  1  1  6
  2 13  1  0
  3  2  1  0
  3  4  1  0
  4  5  2  0
  4 12  1  0
  5  6  1  0
  6  7  1  0
  7  8  2  0
  8  9  1  0
 10  9  2  0
 11 10  1  0
 12 11  2  0
 12  7  1  0
 13 14  2  0
 15 16  1  0
 15 13  1  0
 16 19  1  0
 16 17  1  6
 18 17  1  0
 19 23  1  0
 20 19  2  0
 22 21  1  6
 23 22  1  0
 24 25  1  0
 24 22  1  0
 26 24  2  0
M  END
$$$$
