WCA.pdb
     RDKit          3D

 26 27  0  0  1  0  0  0  0  0999 V2000
   33.7056  -25.1074  -17.1233 N   0  0  0  0  0  0  0  0  0  0  0  0
   32.8741  -26.1478  -16.6374 C   0  0  1  0  0  0  0  0  0  0  0  0
   32.1003  -25.7453  -15.4235 C   0  0  0  0  0  0  0  0  0  0  0  0
   31.0152  -24.8301  -15.8084 C   0  0  0  0  0  0  0  0  0  0  0  0
   31.1239  -23.4674  -16.1135 C   0  0  0  0  0  0  0  0  0  0  0  0
   29.9151  -22.9937  -16.4522 N   0  0  0  0  0  0  0  0  0  0  0  0
   29.0072  -23.9809  -16.3851 C   0  0  0  0  0  0  0  0  0  0  0  0
   27.6554  -24.0433  -16.6127 C   0  0  0  0  0  0  0  0  0  0  0  0
   26.9522  -25.2223  -16.4508 C   0  0  0  0  0  0  0  0  0  0  0  0
   27.6150  -26.3493  -16.0558 C   0  0  0  0  0  0  0  0  0  0  0  0
   28.9727  -26.2956  -15.8254 C   0  0  0  0  0  0  0  0  0  0  0  0
   29.6870  -25.1389  -15.9812 C   0  0  0  0  0  0  0  0  0  0  0  0
   32.0112  -26.7946  -17.6625 C   0  0  0  0  0  0  0  0  0  0  0  0
   32.1177  -26.3316  -18.8376 O   0  0  0  0  0  0  0  0  0  0  0  0
   31.1188  -27.8428  -17.4366 N   0  0  0  0  0  0  0  0  0  0  0  0
   30.4026  -28.4257  -18.5670 C   0  0  1  0  0  0  0  0  0  0  0  0
   31.4863  -29.1058  -19.3921 C   0  0  0  0  0  0  0  0  0  0  0  0
   32.2556  -30.4769  -18.5222 S   0  0  0  0  0  0  0  0  0  0  0  0
   29.4391  -29.4566  -18.0824 C   0  0  0  0  0  0  0  0  0  0  0  0
   29.6995  -30.1304  -17.0299 O   0  0  0  0  0  0  0  0  0  0  0  0
   26.5237  -28.7861  -17.2225 C   0  0  0  0  0  0  0  0  0  0  0  0
   26.9338  -29.8830  -18.1386 C   0  0  2  0  0  0  0  0  0  0  0  0
   28.2228  -29.7199  -18.7555 N   0  0  0  0  0  0  0  0  0  0  0  0
   25.8775  -30.2358  -19.1548 C   0  0  0  0  0  0  0  0  0  0  0  0
   25.7488  -29.5460  -20.3354 O   0  0  0  0  0  0  0  0  0  0  0  0
   25.1144  -31.1820  -18.8920 O   0  0  0  0  0  0  0  0  0  0  0  0
  2  1  1  6
  2 13  1  0
  3  2  1  0
  3  4  1  0
  4  5  2  0
  4 12  1  0
  5  6  1  0
  6  7  1  0
  7  8  2  0
  8  9  1  0
 10  9  2  0
 11 10  1  0
 12 11  2  0
 12  7  1  0
 13 14  2  0
 15 16  1  0
 15 13  1  0
 16 19  1  0
 16 17  1  6
 18 17  1  0
 19 23  1  0
 20 19  2  0
 22 21  1  6
 23 22  1  0
 24 25  1  0
 24 22  1  0
 26 24  2  0
M  END
$$$$
