NHM.pdb
     RDKit          3D

 27 27  0  0  1  0  0  0  0  0999 V2000
    7.5842  -15.2394   15.8809 N   0  0  0  0  0  0  0  0  0  0  0  0
    7.8809  -14.1302   16.6999 C   0  0  0  0  0  0  0  0  0  0  0  0
    8.5019  -13.1556   16.2455 O   0  0  0  0  0  0  0  0  0  0  0  0
    7.4355  -14.1555   18.1104 C   0  0  0  0  0  0  0  0  0  0  0  0
    8.6240  -14.0531   19.0395 C   0  0  2  0  0  0  0  0  0  0  0  0
    9.8195  -14.4902   18.4591 N   0  0  0  0  0  0  0  0  0  0  0  0
    8.3099  -14.8534   20.2533 C   0  0  0  0  0  0  0  0  0  0  0  0
    7.2353  -14.5681   20.8608 O   0  0  0  0  0  0  0  0  0  0  0  0
    9.1970  -15.8704   20.6682 N   0  0  0  0  0  0  0  0  0  0  0  0
    8.9336  -16.5863   21.9052 C   0  0  1  0  0  0  0  0  0  0  0  0
    9.7420  -17.8376   21.9973 C   0  0  0  0  0  0  0  0  0  0  0  0
    9.0599  -18.9553   21.3173 C   0  0  0  0  0  0  0  0  0  0  0  0
    7.7519  -19.0333   20.8650 C   0  0  0  0  0  0  0  0  0  0  0  0
    7.4926  -20.2364   20.3228 N   0  0  0  0  0  0  0  0  0  0  0  0
    8.6423  -20.9238   20.4329 C   0  0  0  0  0  0  0  0  0  0  0  0
    9.5842  -20.1842   21.0191 N   0  0  0  0  0  0  0  0  0  0  0  0
    9.2571  -15.6825   23.0245 C   0  0  0  0  0  0  0  0  0  0  0  0
   10.2918  -15.0015   23.0636 O   0  0  0  0  0  0  0  0  0  0  0  0
    5.9003  -10.6246   27.8741 C   0  0  0  0  0  0  0  0  0  0  0  0
    5.8779  -11.8268   26.5392 S   0  0  0  0  0  0  0  0  0  0  0  0
    7.3937  -12.7990   26.4617 C   0  0  0  0  0  0  0  0  0  0  0  0
    7.3315  -13.7606   25.3181 C   0  0  0  0  0  0  0  0  0  0  0  0
    8.5653  -14.6288   25.2165 C   0  0  2  0  0  0  0  0  0  0  0  0
    8.3597  -15.5643   24.1271 N   0  0  0  0  0  0  0  0  0  0  0  0
    8.8763  -15.3310   26.4560 C   0  0  0  0  0  0  0  0  0  0  0  0
    9.3983  -14.6378   27.5309 O   0  0  0  0  0  0  0  0  0  0  0  0
    8.6797  -16.5610   26.5716 O   0  0  0  0  0  0  0  0  0  0  0  0
  1  2  1  0
  2  3  2  0
  4  2  1  0
  5  4  1  0
  5  6  1  6
  7  5  1  0
  7  8  2  0
  9  7  1  0
 10  9  1  0
 10 11  1  1
 11 12  1  0
 12 16  1  0
 13 12  2  0
 13 14  1  0
 14 15  1  0
 16 15  2  0
 17 10  1  0
 18 17  2  0
 20 19  1  0
 21 20  1  0
 22 21  1  0
 23 22  1  1
 23 24  1  0
 24 17  1  0
 25 23  1  0
 26 25  1  0
 27 25  2  0
M  END
$$$$
