NHM.pdb
     RDKit          3D

 27 27  0  0  1  0  0  0  0  0999 V2000
    8.6242  -12.5311   17.4538 N   0  0  0  0  0  0  0  0  0  0  0  0
    7.6486  -13.5487   17.4115 C   0  0  0  0  0  0  0  0  0  0  0  0
    6.9079  -13.6751   16.4230 O   0  0  0  0  0  0  0  0  0  0  0  0
    7.5292  -14.4600   18.5706 C   0  0  0  0  0  0  0  0  0  0  0  0
    8.4739  -14.0365   19.6726 C   0  0  2  0  0  0  0  0  0  0  0  0
    9.8101  -13.9750   19.2629 N   0  0  0  0  0  0  0  0  0  0  0  0
    8.3148  -15.0039   20.7912 C   0  0  0  0  0  0  0  0  0  0  0  0
    7.1587  -15.1003   21.3004 O   0  0  0  0  0  0  0  0  0  0  0  0
    9.4275  -15.7549   21.2285 N   0  0  0  0  0  0  0  0  0  0  0  0
    9.2504  -16.7521   22.2708 C   0  0  1  0  0  0  0  0  0  0  0  0
   10.0887  -17.9614   22.0208 C   0  0  0  0  0  0  0  0  0  0  0  0
    9.4946  -18.8039   20.9653 C   0  0  0  0  0  0  0  0  0  0  0  0
    8.4257  -19.6825   21.0491 C   0  0  0  0  0  0  0  0  0  0  0  0
    8.2020  -20.2946   19.8727 N   0  0  0  0  0  0  0  0  0  0  0  0
    9.1344  -19.8011   19.0398 C   0  0  0  0  0  0  0  0  0  0  0  0
    9.9110  -18.9166   19.6661 N   0  0  0  0  0  0  0  0  0  0  0  0
    9.6185  -16.1288   23.5555 C   0  0  0  0  0  0  0  0  0  0  0  0
   10.6350  -15.4353   23.7015 O   0  0  0  0  0  0  0  0  0  0  0  0
    6.6078  -11.0662   26.7868 C   0  0  0  0  0  0  0  0  0  0  0  0
    6.5852  -12.8453   27.0364 S   0  0  0  0  0  0  0  0  0  0  0  0
    8.0289  -13.6591   26.3277 C   0  0  0  0  0  0  0  0  0  0  0  0
    7.9887  -15.1255   26.6186 C   0  0  0  0  0  0  0  0  0  0  0  0
    9.1652  -15.8707   26.0297 C   0  0  2  0  0  0  0  0  0  0  0  0
    8.7882  -16.3135   24.7008 N   0  0  0  0  0  0  0  0  0  0  0  0
    9.6017  -16.9942   26.8502 C   0  0  0  0  0  0  0  0  0  0  0  0
   10.3017  -16.7658   28.0190 O   0  0  0  0  0  0  0  0  0  0  0  0
    9.3547  -18.1747   26.5178 O   0  0  0  0  0  0  0  0  0  0  0  0
  1  2  1  0
  2  3  2  0
  4  2  1  0
  5  4  1  0
  5  6  1  6
  7  5  1  0
  7  8  2  0
  9  7  1  0
 10  9  1  0
 10 11  1  6
 11 12  1  0
 12 16  1  0
 13 12  2  0
 13 14  1  0
 14 15  1  0
 16 15  2  0
 17 10  1  0
 18 17  2  0
 20 19  1  0
 21 20  1  0
 22 21  1  0
 23 22  1  1
 23 24  1  0
 24 17  1  0
 25 23  1  0
 26 25  1  0
 27 25  2  0
M  END
$$$$
