NHM.pdb
     RDKit          3D

 27 27  0  0  1  0  0  0  0  0999 V2000
    6.8753  -13.1492   16.0455 N   0  0  0  0  0  0  0  0  0  0  0  0
    7.9805  -13.4810   16.8565 C   0  0  0  0  0  0  0  0  0  0  0  0
    9.1071  -13.6374   16.3585 O   0  0  0  0  0  0  0  0  0  0  0  0
    7.7657  -13.6376   18.3118 C   0  0  0  0  0  0  0  0  0  0  0  0
    8.8838  -14.4508   18.9242 C   0  0  2  0  0  0  0  0  0  0  0  0
    9.2955  -15.5192   18.1205 N   0  0  0  0  0  0  0  0  0  0  0  0
    8.4042  -14.9442   20.2430 C   0  0  0  0  0  0  0  0  0  0  0  0
    7.8925  -14.0846   21.0205 O   0  0  0  0  0  0  0  0  0  0  0  0
    8.5347  -16.3123   20.5663 N   0  0  0  0  0  0  0  0  0  0  0  0
    8.1383  -16.7748   21.8857 C   0  0  1  0  0  0  0  0  0  0  0  0
    8.1210  -18.2653   21.9620 C   0  0  0  0  0  0  0  0  0  0  0  0
    7.1550  -18.8297   21.0000 C   0  0  0  0  0  0  0  0  0  0  0  0
    5.7735  -18.8985   21.0899 C   0  0  0  0  0  0  0  0  0  0  0  0
    5.2437  -19.5181   20.0203 N   0  0  0  0  0  0  0  0  0  0  0  0
    6.2955  -19.8436   19.2494 C   0  0  0  0  0  0  0  0  0  0  0  0
    7.4376  -19.4454   19.8105 N   0  0  0  0  0  0  0  0  0  0  0  0
    9.0957  -16.2219   22.8615 C   0  0  0  0  0  0  0  0  0  0  0  0
    9.9700  -15.3986   22.5559 O   0  0  0  0  0  0  0  0  0  0  0  0
    6.9934  -11.0271   27.1763 C   0  0  0  0  0  0  0  0  0  0  0  0
    6.7643  -12.5211   26.2051 S   0  0  0  0  0  0  0  0  0  0  0  0
    8.3087  -13.4095   25.9326 C   0  0  0  0  0  0  0  0  0  0  0  0
    8.0571  -14.6468   25.1311 C   0  0  0  0  0  0  0  0  0  0  0  0
    9.1203  -15.7024   25.3361 C   0  0  2  0  0  0  0  0  0  0  0  0
    9.0394  -16.6331   24.2264 N   0  0  0  0  0  0  0  0  0  0  0  0
    8.9991  -16.3986   26.6115 C   0  0  0  0  0  0  0  0  0  0  0  0
    8.1261  -17.4616   26.7385 O   0  0  0  0  0  0  0  0  0  0  0  0
    9.6747  -16.0527   27.6060 O   0  0  0  0  0  0  0  0  0  0  0  0
  1  2  1  0
  2  3  2  0
  4  2  1  0
  5  4  1  0
  5  6  1  6
  7  5  1  0
  7  8  2  0
  9  7  1  0
 10  9  1  0
 10 11  1  6
 11 12  1  0
 12 16  1  0
 13 12  2  0
 13 14  1  0
 14 15  1  0
 16 15  2  0
 17 10  1  0
 18 17  2  0
 20 19  1  0
 21 20  1  0
 22 21  1  0
 23 22  1  6
 23 24  1  0
 24 17  1  0
 25 23  1  0
 26 25  1  0
 27 25  2  0
M  END
$$$$
