NHM.pdb
     RDKit          3D

 27 27  0  0  1  0  0  0  0  0999 V2000
    9.2873  -13.7762   16.7303 N   0  0  0  0  0  0  0  0  0  0  0  0
    7.9850  -13.4862   17.1876 C   0  0  0  0  0  0  0  0  0  0  0  0
    7.1942  -12.8416   16.4798 O   0  0  0  0  0  0  0  0  0  0  0  0
    7.5845  -13.9675   18.5279 C   0  0  0  0  0  0  0  0  0  0  0  0
    8.7258  -14.7131   19.1820 C   0  0  2  0  0  0  0  0  0  0  0  0
    9.1467  -15.8306   18.4533 N   0  0  0  0  0  0  0  0  0  0  0  0
    8.2733  -15.1159   20.5405 C   0  0  0  0  0  0  0  0  0  0  0  0
    7.9662  -14.1811   21.3386 O   0  0  0  0  0  0  0  0  0  0  0  0
    8.2062  -16.4855   20.8767 N   0  0  0  0  0  0  0  0  0  0  0  0
    7.7607  -16.8734   22.2045 C   0  0  1  0  0  0  0  0  0  0  0  0
    7.6563  -18.3565   22.3363 C   0  0  0  0  0  0  0  0  0  0  0  0
    7.1983  -18.7333   23.6873 C   0  0  0  0  0  0  0  0  0  0  0  0
    6.9184  -17.9175   24.7724 C   0  0  0  0  0  0  0  0  0  0  0  0
    6.5555  -18.6400   25.8471 N   0  0  0  0  0  0  0  0  0  0  0  0
    6.6065  -19.9200   25.4402 C   0  0  0  0  0  0  0  0  0  0  0  0
    6.9851  -19.9986   24.1642 N   0  0  0  0  0  0  0  0  0  0  0  0
    8.7309  -16.3386   23.1776 C   0  0  0  0  0  0  0  0  0  0  0  0
    9.9518  -16.3111   22.9667 O   0  0  0  0  0  0  0  0  0  0  0  0
    5.2376  -12.0315   27.6277 C   0  0  0  0  0  0  0  0  0  0  0  0
    6.7616  -12.0922   26.6781 S   0  0  0  0  0  0  0  0  0  0  0  0
    7.3066  -13.7798   26.3565 C   0  0  0  0  0  0  0  0  0  0  0  0
    8.6044  -13.7696   25.6134 C   0  0  0  0  0  0  0  0  0  0  0  0
    9.1519  -15.1587   25.3741 C   0  0  2  0  0  0  0  0  0  0  0  0
    8.2760  -15.8225   24.4273 N   0  0  0  0  0  0  0  0  0  0  0  0
    9.2871  -15.9407   26.5973 C   0  0  0  0  0  0  0  0  0  0  0  0
   10.2776  -15.6317   27.5092 O   0  0  0  0  0  0  0  0  0  0  0  0
    8.5186  -16.8964   26.8444 O   0  0  0  0  0  0  0  0  0  0  0  0
  1  2  1  0
  2  3  2  0
  4  2  1  0
  5  4  1  0
  5  6  1  6
  7  5  1  0
  7  8  2  0
  9  7  1  0
 10  9  1  0
 10 11  1  6
 11 12  1  0
 12 16  1  0
 13 12  2  0
 13 14  1  0
 14 15  1  0
 16 15  2  0
 17 10  1  0
 18 17  2  0
 20 19  1  0
 21 20  1  0
 22 21  1  0
 23 22  1  1
 23 24  1  0
 24 17  1  0
 25 23  1  0
 26 25  1  0
 27 25  2  0
M  END
$$$$
