NHM.pdb
     RDKit          3D

 27 27  0  0  1  0  0  0  0  0999 V2000
    9.4007  -20.8611   19.2867 N   0  0  0  0  0  0  0  0  0  0  0  0
    9.0052  -19.8850   18.3487 C   0  0  0  0  0  0  0  0  0  0  0  0
    8.4776  -20.2160   17.2745 O   0  0  0  0  0  0  0  0  0  0  0  0
    9.2335  -18.4602   18.6746 C   0  0  0  0  0  0  0  0  0  0  0  0
    9.0657  -18.2264   20.1590 C   0  0  2  0  0  0  0  0  0  0  0  0
    7.7709  -18.4908   20.6181 N   0  0  0  0  0  0  0  0  0  0  0  0
    9.4376  -16.8122   20.4314 C   0  0  0  0  0  0  0  0  0  0  0  0
   10.6117  -16.4605   20.1108 O   0  0  0  0  0  0  0  0  0  0  0  0
    8.4936  -15.9429   21.0199 N   0  0  0  0  0  0  0  0  0  0  0  0
    8.8234  -14.5370   21.1845 C   0  0  1  0  0  0  0  0  0  0  0  0
    7.8017  -13.6559   20.5461 C   0  0  0  0  0  0  0  0  0  0  0  0
    7.8597  -13.7633   19.0758 C   0  0  0  0  0  0  0  0  0  0  0  0
    8.3829  -12.8682   18.1558 C   0  0  0  0  0  0  0  0  0  0  0  0
    8.2189  -13.3093   16.8960 N   0  0  0  0  0  0  0  0  0  0  0  0
    7.5882  -14.4898   17.0191 C   0  0  0  0  0  0  0  0  0  0  0  0
    7.3654  -14.7783   18.3016 N   0  0  0  0  0  0  0  0  0  0  0  0
    8.9071  -14.2619   22.6307 C   0  0  0  0  0  0  0  0  0  0  0  0
    9.0101  -13.1173   23.0943 O   0  0  0  0  0  0  0  0  0  0  0  0
    6.7056  -11.7895   28.7028 C   0  0  0  0  0  0  0  0  0  0  0  0
    6.7049  -12.3065   26.9821 S   0  0  0  0  0  0  0  0  0  0  0  0
    7.5005  -13.9060   26.7427 C   0  0  0  0  0  0  0  0  0  0  0  0
    7.6729  -14.1826   25.2831 C   0  0  0  0  0  0  0  0  0  0  0  0
    8.8082  -15.1404   24.9998 C   0  0  2  0  0  0  0  0  0  0  0  0
    8.8709  -15.3400   23.5644 N   0  0  0  0  0  0  0  0  0  0  0  0
    8.6731  -16.4130   25.6985 C   0  0  0  0  0  0  0  0  0  0  0  0
    8.6237  -17.5931   24.9821 O   0  0  0  0  0  0  0  0  0  0  0  0
    8.5999  -16.4633   26.9464 O   0  0  0  0  0  0  0  0  0  0  0  0
  1  2  1  0
  2  3  2  0
  4  2  1  0
  5  4  1  0
  5  6  1  6
  7  5  1  0
  7  8  2  0
  9  7  1  0
 10  9  1  0
 10 11  1  1
 11 12  1  0
 12 16  1  0
 13 12  2  0
 13 14  1  0
 14 15  1  0
 16 15  2  0
 17 10  1  0
 18 17  2  0
 20 19  1  0
 21 20  1  0
 22 21  1  0
 23 22  1  6
 23 24  1  0
 24 17  1  0
 25 23  1  0
 26 25  1  0
 27 25  2  0
M  END
$$$$
