NHM.pdb
     RDKit          3D

 27 27  0  0  1  0  0  0  0  0999 V2000
   13.4538  -16.0461   18.4539 N   0  0  0  0  0  0  0  0  0  0  0  0
   13.1322  -14.8487   19.1262 C   0  0  0  0  0  0  0  0  0  0  0  0
   13.7885  -13.8140   18.9257 O   0  0  0  0  0  0  0  0  0  0  0  0
   11.9965  -14.8551   20.0741 C   0  0  0  0  0  0  0  0  0  0  0  0
   10.6905  -15.0170   19.3295 C   0  0  2  0  0  0  0  0  0  0  0  0
   10.3168  -13.8752   18.6127 N   0  0  0  0  0  0  0  0  0  0  0  0
    9.6482  -15.3691   20.3308 C   0  0  0  0  0  0  0  0  0  0  0  0
    8.5379  -14.7669   20.2324 O   0  0  0  0  0  0  0  0  0  0  0  0
    9.9303  -16.3331   21.3229 N   0  0  0  0  0  0  0  0  0  0  0  0
    8.8611  -16.7986   22.1901 C   0  0  1  0  0  0  0  0  0  0  0  0
    8.6304  -18.2653   22.0372 C   0  0  0  0  0  0  0  0  0  0  0  0
    7.5280  -18.7176   22.9073 C   0  0  0  0  0  0  0  0  0  0  0  0
    6.6269  -17.9595   23.6386 C   0  0  0  0  0  0  0  0  0  0  0  0
    5.7845  -18.7406   24.3379 N   0  0  0  0  0  0  0  0  0  0  0  0
    6.1546  -19.9998   24.0479 C   0  0  0  0  0  0  0  0  0  0  0  0
    7.1855  -20.0096   23.2024 N   0  0  0  0  0  0  0  0  0  0  0  0
    9.2395  -16.4806   23.5794 C   0  0  0  0  0  0  0  0  0  0  0  0
   10.3034  -16.8572   24.0914 O   0  0  0  0  0  0  0  0  0  0  0  0
    4.8858  -11.6780   26.5556 C   0  0  0  0  0  0  0  0  0  0  0  0
    6.6401  -12.0405   26.6933 S   0  0  0  0  0  0  0  0  0  0  0  0
    7.1657  -13.3419   25.5625 C   0  0  0  0  0  0  0  0  0  0  0  0
    7.4936  -14.5860   26.3249 C   0  0  0  0  0  0  0  0  0  0  0  0
    8.6867  -15.3218   25.7578 C   0  0  2  0  0  0  0  0  0  0  0  0
    8.3633  -15.7068   24.3972 N   0  0  0  0  0  0  0  0  0  0  0  0
    9.0749  -16.4824   26.5506 C   0  0  0  0  0  0  0  0  0  0  0  0
    9.9966  -16.3458   27.5704 O   0  0  0  0  0  0  0  0  0  0  0  0
    8.5877  -17.6128   26.3272 O   0  0  0  0  0  0  0  0  0  0  0  0
  1  2  1  0
  2  3  2  0
  4  2  1  0
  5  4  1  0
  5  6  1  1
  7  5  1  0
  7  8  2  0
  9  7  1  0
 10  9  1  0
 10 11  1  1
 11 12  1  0
 12 16  1  0
 13 12  2  0
 13 14  1  0
 14 15  1  0
 16 15  2  0
 17 10  1  0
 18 17  2  0
 20 19  1  0
 21 20  1  0
 22 21  1  0
 23 22  1  1
 23 24  1  0
 24 17  1  0
 25 23  1  0
 26 25  1  0
 27 25  2  0
M  END
$$$$
