NHM.pdb
     RDKit          3D

 27 27  0  0  1  0  0  0  0  0999 V2000
   11.6359  -20.0375   18.3601 N   0  0  0  0  0  0  0  0  0  0  0  0
   11.6184  -18.8003   17.6832 C   0  0  0  0  0  0  0  0  0  0  0  0
   11.9969  -18.7186   16.5034 O   0  0  0  0  0  0  0  0  0  0  0  0
   11.1392  -17.6048   18.4109 C   0  0  0  0  0  0  0  0  0  0  0  0
   10.8550  -17.9472   19.8560 C   0  0  2  0  0  0  0  0  0  0  0  0
    9.8209  -18.8764   20.0117 N   0  0  0  0  0  0  0  0  0  0  0  0
   10.5260  -16.6775   20.5576 C   0  0  0  0  0  0  0  0  0  0  0  0
   11.4242  -15.7841   20.5689 O   0  0  0  0  0  0  0  0  0  0  0  0
    9.2612  -16.5232   21.1657 N   0  0  0  0  0  0  0  0  0  0  0  0
    8.9817  -15.3236   21.9370 C   0  0  1  0  0  0  0  0  0  0  0  0
    7.6873  -14.7005   21.5320 C   0  0  0  0  0  0  0  0  0  0  0  0
    7.7269  -14.2774   20.1191 C   0  0  0  0  0  0  0  0  0  0  0  0
    8.1212  -13.0612   19.5836 C   0  0  0  0  0  0  0  0  0  0  0  0
    7.9843  -13.0481   18.2457 N   0  0  0  0  0  0  0  0  0  0  0  0
    7.5005  -14.2624   17.9327 C   0  0  0  0  0  0  0  0  0  0  0  0
    7.3402  -15.0069   19.0272 N   0  0  0  0  0  0  0  0  0  0  0  0
    8.9450  -15.7041   23.3611 C   0  0  0  0  0  0  0  0  0  0  0  0
    8.3633  -16.7177   23.7733 O   0  0  0  0  0  0  0  0  0  0  0  0
    6.9648  -10.8720   26.2014 C   0  0  0  0  0  0  0  0  0  0  0  0
    6.5008  -12.1825   27.3395 S   0  0  0  0  0  0  0  0  0  0  0  0
    7.5922  -13.6124   27.2261 C   0  0  0  0  0  0  0  0  0  0  0  0
    8.1758  -13.7078   25.8525 C   0  0  0  0  0  0  0  0  0  0  0  0
    9.1822  -14.8288   25.7216 C   0  0  2  0  0  0  0  0  0  0  0  0
    9.5984  -14.8898   24.3333 N   0  0  0  0  0  0  0  0  0  0  0  0
    8.6672  -16.1173   26.1694 C   0  0  0  0  0  0  0  0  0  0  0  0
    9.2421  -16.7528   27.2528 O   0  0  0  0  0  0  0  0  0  0  0  0
    7.7055  -16.6685   25.5893 O   0  0  0  0  0  0  0  0  0  0  0  0
  1  2  1  0
  2  3  2  0
  4  2  1  0
  5  4  1  0
  5  6  1  6
  7  5  1  0
  7  8  2  0
  9  7  1  0
 10  9  1  0
 10 11  1  6
 11 12  1  0
 12 16  1  0
 13 12  2  0
 13 14  1  0
 14 15  1  0
 16 15  2  0
 17 10  1  0
 18 17  2  0
 20 19  1  0
 21 20  1  0
 22 21  1  0
 23 22  1  6
 23 24  1  0
 24 17  1  0
 25 23  1  0
 26 25  1  0
 27 25  2  0
M  END
$$$$
