NHM.pdb
     RDKit          3D

 27 27  0  0  1  0  0  0  0  0999 V2000
   12.9007  -18.7687   16.9485 N   0  0  0  0  0  0  0  0  0  0  0  0
   13.1598  -18.0515   18.1349 C   0  0  0  0  0  0  0  0  0  0  0  0
   14.2339  -18.1966   18.7408 O   0  0  0  0  0  0  0  0  0  0  0  0
   12.1234  -17.1241   18.6392 C   0  0  0  0  0  0  0  0  0  0  0  0
   11.8458  -17.3901   20.1016 C   0  0  2  0  0  0  0  0  0  0  0  0
   11.1396  -18.5770   20.3240 N   0  0  0  0  0  0  0  0  0  0  0  0
   11.0871  -16.2245   20.6294 C   0  0  0  0  0  0  0  0  0  0  0  0
   11.7196  -15.1311   20.7280 O   0  0  0  0  0  0  0  0  0  0  0  0
    9.7308  -16.3792   20.9894 N   0  0  0  0  0  0  0  0  0  0  0  0
    8.9818  -15.2267   21.4614 C   0  0  1  0  0  0  0  0  0  0  0  0
    7.6163  -15.1768   20.8610 C   0  0  0  0  0  0  0  0  0  0  0  0
    7.6893  -14.9254   19.4090 C   0  0  0  0  0  0  0  0  0  0  0  0
    7.9332  -13.7355   18.7410 C   0  0  0  0  0  0  0  0  0  0  0  0
    7.8884  -13.9048   17.4076 N   0  0  0  0  0  0  0  0  0  0  0  0
    7.6142  -15.2087   17.2305 C   0  0  0  0  0  0  0  0  0  0  0  0
    7.4921  -15.8323   18.4027 N   0  0  0  0  0  0  0  0  0  0  0  0
    8.8936  -15.3197   22.9304 C   0  0  0  0  0  0  0  0  0  0  0  0
    9.5545  -16.1300   23.5955 O   0  0  0  0  0  0  0  0  0  0  0  0
    6.8275  -10.7232   28.2821 C   0  0  0  0  0  0  0  0  0  0  0  0
    5.7603  -11.8729   27.4062 S   0  0  0  0  0  0  0  0  0  0  0  0
    6.6113  -13.3964   26.9554 C   0  0  0  0  0  0  0  0  0  0  0  0
    6.8815  -13.4201   25.4847 C   0  0  0  0  0  0  0  0  0  0  0  0
    7.8932  -14.4735   25.0931 C   0  0  2  0  0  0  0  0  0  0  0  0
    8.0174  -14.4521   23.6480 N   0  0  0  0  0  0  0  0  0  0  0  0
    7.5453  -15.8076   25.5676 C   0  0  0  0  0  0  0  0  0  0  0  0
    6.8858  -16.6882   24.7322 O   0  0  0  0  0  0  0  0  0  0  0  0
    7.8330  -16.1791   26.7271 O   0  0  0  0  0  0  0  0  0  0  0  0
  1  2  1  0
  2  3  2  0
  4  2  1  0
  5  4  1  0
  5  6  1  6
  7  5  1  0
  7  8  2  0
  9  7  1  0
 10  9  1  0
 10 11  1  6
 11 12  1  0
 12 16  1  0
 13 12  2  0
 13 14  1  0
 14 15  1  0
 16 15  2  0
 17 10  1  0
 18 17  2  0
 20 19  1  0
 21 20  1  0
 22 21  1  0
 23 22  1  6
 23 24  1  0
 24 17  1  0
 25 23  1  0
 26 25  1  0
 27 25  2  0
M  END
$$$$
