NHM.pdb
     RDKit          3D

 27 27  0  0  1  0  0  0  0  0999 V2000
    8.8187  -12.8911   16.7917 N   0  0  0  0  0  0  0  0  0  0  0  0
    7.6517  -13.6755   16.9010 C   0  0  0  0  0  0  0  0  0  0  0  0
    6.7915  -13.6592   16.0056 O   0  0  0  0  0  0  0  0  0  0  0  0
    7.4773  -14.5166   18.1054 C   0  0  0  0  0  0  0  0  0  0  0  0
    8.5225  -14.1734   19.1428 C   0  0  2  0  0  0  0  0  0  0  0  0
    9.8335  -14.3165   18.6760 N   0  0  0  0  0  0  0  0  0  0  0  0
    8.2880  -15.0538   20.3186 C   0  0  0  0  0  0  0  0  0  0  0  0
    7.1503  -14.9752   20.8706 O   0  0  0  0  0  0  0  0  0  0  0  0
    9.3139  -15.9173   20.7601 N   0  0  0  0  0  0  0  0  0  0  0  0
    9.0808  -16.7723   21.9119 C   0  0  1  0  0  0  0  0  0  0  0  0
    9.9600  -17.9781   21.8867 C   0  0  0  0  0  0  0  0  0  0  0  0
    9.3927  -19.0243   21.0146 C   0  0  0  0  0  0  0  0  0  0  0  0
    8.1664  -19.0510   20.3688 C   0  0  0  0  0  0  0  0  0  0  0  0
    7.9973  -20.1979   19.6871 N   0  0  0  0  0  0  0  0  0  0  0  0
    9.1223  -20.9010   19.9027 C   0  0  0  0  0  0  0  0  0  0  0  0
    9.9627  -20.2248   20.6865 N   0  0  0  0  0  0  0  0  0  0  0  0
    9.3399  -15.9732   23.1238 C   0  0  0  0  0  0  0  0  0  0  0  0
   10.3150  -15.2169   23.2369 O   0  0  0  0  0  0  0  0  0  0  0  0
    6.6652  -10.4898   27.0316 C   0  0  0  0  0  0  0  0  0  0  0  0
    6.3156  -12.1842   26.5471 S   0  0  0  0  0  0  0  0  0  0  0  0
    7.8095  -13.1070   26.1405 C   0  0  0  0  0  0  0  0  0  0  0  0
    7.4632  -14.5178   25.7852 C   0  0  0  0  0  0  0  0  0  0  0  0
    8.6821  -15.3617   25.4876 C   0  0  2  0  0  0  0  0  0  0  0  0
    8.4469  -16.0520   24.2336 N   0  0  0  0  0  0  0  0  0  0  0  0
    8.9999  -16.3062   26.5520 C   0  0  0  0  0  0  0  0  0  0  0  0
    8.8686  -17.6639   26.3333 O   0  0  0  0  0  0  0  0  0  0  0  0
    9.3934  -15.9126   27.6724 O   0  0  0  0  0  0  0  0  0  0  0  0
  1  2  1  0
  2  3  2  0
  4  2  1  0
  5  4  1  0
  5  6  1  6
  7  5  1  0
  7  8  2  0
  9  7  1  0
 10  9  1  0
 10 11  1  6
 11 12  1  0
 12 16  1  0
 13 12  2  0
 13 14  1  0
 14 15  1  0
 16 15  2  0
 17 10  1  0
 18 17  2  0
 20 19  1  0
 21 20  1  0
 22 21  1  0
 23 22  1  1
 23 24  1  0
 24 17  1  0
 25 23  1  0
 26 25  1  0
 27 25  2  0
M  END
$$$$
