QAK.pdb
     RDKit          3D

 24 23  0  0  1  0  0  0  0  0999 V2000
   25.7998  -21.0121  -10.2319 N   0  0  0  0  0  0  0  0  0  0  0  0
   24.4576  -20.8856   -9.8044 C   0  0  0  0  0  0  0  0  0  0  0  0
   24.2264  -20.8071   -8.5653 O   0  0  0  0  0  0  0  0  0  0  0  0
   23.3304  -20.8438  -10.7719 C   0  0  0  0  0  0  0  0  0  0  0  0
   23.8453  -20.7927  -12.1906 C   0  0  0  0  0  0  0  0  0  0  0  0
   22.7631  -20.5809  -13.1990 C   0  0  2  0  0  0  0  0  0  0  0  0
   21.8353  -21.6640  -13.1205 N   0  0  0  0  0  0  0  0  0  0  0  0
   23.2873  -20.3578  -14.5695 C   0  0  0  0  0  0  0  0  0  0  0  0
   24.0216  -21.2082  -15.1353 O   0  0  0  0  0  0  0  0  0  0  0  0
   22.7477  -17.7570  -17.2112 C   0  0  0  0  0  0  0  0  0  0  0  0
   23.5731  -18.9073  -16.6195 C   0  0  2  0  0  0  0  0  0  0  0  0
   22.9998  -19.1862  -15.3248 N   0  0  0  0  0  0  0  0  0  0  0  0
   25.0026  -18.5771  -16.5736 C   0  0  0  0  0  0  0  0  0  0  0  0
   25.4099  -17.8168  -15.6821 O   0  0  0  0  0  0  0  0  0  0  0  0
   25.9732  -19.0831  -17.5050 N   0  0  0  0  0  0  0  0  0  0  0  0
   27.3639  -18.9280  -17.4305 C   0  0  1  0  0  0  0  0  0  0  0  0
   28.2877  -20.0629  -17.3430 C   0  0  0  0  0  0  0  0  0  0  0  0
   27.9358  -21.2338  -16.4922 C   0  0  0  0  0  0  0  0  0  0  0  0
   27.0955  -22.3032  -17.0570 C   0  0  0  0  0  0  0  0  0  0  0  0
   26.9814  -23.4009  -15.9723 C   0  0  0  0  0  0  0  0  0  0  0  0
   26.1087  -24.4560  -16.3947 N   0  0  0  0  0  0  0  0  0  0  0  0
   27.8496  -17.8539  -18.3662 C   0  0  0  0  0  0  0  0  0  0  0  0
   27.1068  -17.4291  -19.2800 O   0  0  0  0  0  0  0  0  0  0  0  0
   29.1128  -17.3036  -18.2559 O   0  0  0  0  0  0  0  0  0  0  0  0
  2  1  1  0
  2  3  2  0
  4  5  1  0
  4  2  1  0
  6  8  1  0
  6  7  1  6
  6  5  1  0
  8  9  2  0
 11 10  1  1
 11 13  1  0
 12 11  1  0
 12  8  1  0
 13 14  2  0
 13 15  1  0
 15 16  1  0
 16 22  1  0
 16 17  1  6
 18 17  1  0
 19 18  1  0
 20 19  1  0
 21 20  1  0
 22 23  2  0
 22 24  1  0
M  END
$$$$
