QAK.pdb
     RDKit          3D

 24 23  0  0  1  0  0  0  0  0999 V2000
   25.9617  -19.1981   -9.7177 N   0  0  0  0  0  0  0  0  0  0  0  0
   25.5706  -20.5562   -9.6654 C   0  0  0  0  0  0  0  0  0  0  0  0
   24.8550  -20.9388   -8.6976 O   0  0  0  0  0  0  0  0  0  0  0  0
   25.9799  -21.5278  -10.7128 C   0  0  0  0  0  0  0  0  0  0  0  0
   26.9129  -20.8798  -11.7077 C   0  0  0  0  0  0  0  0  0  0  0  0
   26.4425  -21.0067  -13.1203 C   0  0  2  0  0  0  0  0  0  0  0  0
   27.2661  -21.9540  -13.8017 N   0  0  0  0  0  0  0  0  0  0  0  0
   26.3537  -19.7000  -13.8184 C   0  0  0  0  0  0  0  0  0  0  0  0
   25.4732  -18.8545  -13.5143 O   0  0  0  0  0  0  0  0  0  0  0  0
   28.4825  -17.7718  -16.1783 C   0  0  0  0  0  0  0  0  0  0  0  0
   27.0838  -18.1256  -15.6559 C   0  0  2  0  0  0  0  0  0  0  0  0
   27.2436  -19.3202  -14.8622 N   0  0  0  0  0  0  0  0  0  0  0  0
   26.1192  -18.2700  -16.7528 C   0  0  0  0  0  0  0  0  0  0  0  0
   26.1126  -19.3252  -17.4049 O   0  0  0  0  0  0  0  0  0  0  0  0
   25.1703  -17.2568  -17.1254 N   0  0  0  0  0  0  0  0  0  0  0  0
   23.7761  -17.3911  -17.1656 C   0  0  1  0  0  0  0  0  0  0  0  0
   23.0135  -18.0894  -16.1264 C   0  0  0  0  0  0  0  0  0  0  0  0
   22.4167  -19.4217  -16.4221 C   0  0  0  0  0  0  0  0  0  0  0  0
   21.6292  -20.1014  -15.3797 C   0  0  0  0  0  0  0  0  0  0  0  0
   21.1431  -21.4384  -15.9884 C   0  0  0  0  0  0  0  0  0  0  0  0
   20.3265  -22.1624  -15.0598 N   0  0  0  0  0  0  0  0  0  0  0  0
   23.1125  -16.1179  -17.6168 C   0  0  0  0  0  0  0  0  0  0  0  0
   22.9285  -15.1805  -16.8077 O   0  0  0  0  0  0  0  0  0  0  0  0
   22.6873  -15.9360  -18.9195 O   0  0  0  0  0  0  0  0  0  0  0  0
  2  1  1  0
  2  3  2  0
  4  5  1  0
  4  2  1  0
  6  8  1  0
  6  7  1  6
  6  5  1  0
  8  9  2  0
 11 10  1  6
 11 13  1  0
 12 11  1  0
 12  8  1  0
 13 14  2  0
 13 15  1  0
 15 16  1  0
 16 22  1  0
 16 17  1  1
 18 17  1  0
 19 18  1  0
 20 19  1  0
 21 20  1  0
 22 23  2  0
 22 24  1  0
M  END
$$$$
