QAK.pdb
     RDKit          3D

 24 23  0  0  1  0  0  0  0  0999 V2000
   22.2455  -13.2303  -21.6559 N   0  0  0  0  0  0  0  0  0  0  0  0
   21.8721  -14.3632  -20.8961 C   0  0  0  0  0  0  0  0  0  0  0  0
   20.8978  -15.0604  -21.2958 O   0  0  0  0  0  0  0  0  0  0  0  0
   22.5942  -14.7434  -19.6542 C   0  0  0  0  0  0  0  0  0  0  0  0
   23.7194  -13.7765  -19.3729 C   0  0  0  0  0  0  0  0  0  0  0  0
   24.4999  -14.1266  -18.1477 C   0  0  2  0  0  0  0  0  0  0  0  0
   24.1708  -15.4588  -17.7512 N   0  0  0  0  0  0  0  0  0  0  0  0
   24.3362  -13.1343  -17.0563 C   0  0  0  0  0  0  0  0  0  0  0  0
   23.2624  -13.0477  -16.4066 O   0  0  0  0  0  0  0  0  0  0  0  0
   26.5331  -10.4423  -15.6210 C   0  0  0  0  0  0  0  0  0  0  0  0
   25.1737  -11.1431  -15.7439 C   0  0  2  0  0  0  0  0  0  0  0  0
   25.3656  -12.2278  -16.6762 N   0  0  0  0  0  0  0  0  0  0  0  0
   24.1169  -10.2043  -16.1398 C   0  0  0  0  0  0  0  0  0  0  0  0
   23.8613  -10.0695  -17.3461 O   0  0  0  0  0  0  0  0  0  0  0  0
   23.3496   -9.4215  -15.2101 N   0  0  0  0  0  0  0  0  0  0  0  0
   22.2427   -8.6161  -15.5092 C   0  0  1  0  0  0  0  0  0  0  0  0
   21.1674   -9.0435  -16.4092 C   0  0  0  0  0  0  0  0  0  0  0  0
   20.0273   -8.1244  -16.6815 C   0  0  0  0  0  0  0  0  0  0  0  0
   18.9569   -8.5612  -17.5938 C   0  0  0  0  0  0  0  0  0  0  0  0
   17.9460   -7.3934  -17.6870 C   0  0  0  0  0  0  0  0  0  0  0  0
   16.8820   -7.7022  -18.5959 N   0  0  0  0  0  0  0  0  0  0  0  0
   21.7285   -7.9089  -14.2841 C   0  0  0  0  0  0  0  0  0  0  0  0
   20.9045   -6.9729  -14.3944 O   0  0  0  0  0  0  0  0  0  0  0  0
   22.1384   -8.2584  -13.0111 O   0  0  0  0  0  0  0  0  0  0  0  0
  2  1  1  0
  2  3  2  0
  4  5  1  0
  4  2  1  0
  6  8  1  0
  6  7  1  1
  6  5  1  0
  8  9  2  0
 11 10  1  6
 11 13  1  0
 12 11  1  0
 12  8  1  0
 13 14  2  0
 13 15  1  0
 15 16  1  0
 16 22  1  0
 16 17  1  1
 18 17  1  0
 19 18  1  0
 20 19  1  0
 21 20  1  0
 22 23  2  0
 22 24  1  0
M  END
$$$$
