QAK.pdb
     RDKit          3D

 24 23  0  0  1  0  0  0  0  0999 V2000
   22.7552  -18.9687  -14.3918 N   0  0  0  0  0  0  0  0  0  0  0  0
   21.5427  -18.6679  -15.0548 C   0  0  0  0  0  0  0  0  0  0  0  0
   20.6882  -19.5878  -15.1914 O   0  0  0  0  0  0  0  0  0  0  0  0
   21.2592  -17.3093  -15.5861 C   0  0  0  0  0  0  0  0  0  0  0  0
   22.4041  -16.3701  -15.2905 C   0  0  0  0  0  0  0  0  0  0  0  0
   22.5222  -15.2600  -16.2837 C   0  0  2  0  0  0  0  0  0  0  0  0
   23.5236  -15.5992  -17.2440 N   0  0  0  0  0  0  0  0  0  0  0  0
   22.7461  -13.9379  -15.6473 C   0  0  0  0  0  0  0  0  0  0  0  0
   21.8424  -13.3719  -14.9799 O   0  0  0  0  0  0  0  0  0  0  0  0
   25.6908  -11.6227  -15.3712 C   0  0  0  0  0  0  0  0  0  0  0  0
   24.1972  -11.9208  -15.1851 C   0  0  2  0  0  0  0  0  0  0  0  0
   23.9778  -13.2319  -15.7470 N   0  0  0  0  0  0  0  0  0  0  0  0
   23.3599  -10.8742  -15.7835 C   0  0  0  0  0  0  0  0  0  0  0  0
   23.0610  -10.9646  -16.9841 O   0  0  0  0  0  0  0  0  0  0  0  0
   22.8574   -9.7378  -15.0611 N   0  0  0  0  0  0  0  0  0  0  0  0
   21.9651   -8.7698  -15.5408 C   0  0  1  0  0  0  0  0  0  0  0  0
   20.7384   -9.1090  -16.2684 C   0  0  0  0  0  0  0  0  0  0  0  0
   19.8859   -8.0197  -16.8209 C   0  0  0  0  0  0  0  0  0  0  0  0
   18.6690   -8.3729  -17.5713 C   0  0  0  0  0  0  0  0  0  0  0  0
   18.0520   -7.0449  -18.0713 C   0  0  0  0  0  0  0  0  0  0  0  0
   16.8805   -7.2843  -18.8611 N   0  0  0  0  0  0  0  0  0  0  0  0
   21.7603   -7.6646  -14.5399 C   0  0  0  0  0  0  0  0  0  0  0  0
   21.7019   -7.9234  -13.3164 O   0  0  0  0  0  0  0  0  0  0  0  0
   21.6309   -6.3433  -14.9247 O   0  0  0  0  0  0  0  0  0  0  0  0
  2  1  1  0
  2  3  2  0
  4  5  1  0
  4  2  1  0
  6  8  1  0
  6  7  1  6
  6  5  1  0
  8  9  2  0
 11 10  1  6
 11 13  1  0
 12 11  1  0
 12  8  1  0
 13 14  2  0
 13 15  1  0
 15 16  1  0
 16 22  1  0
 16 17  1  1
 18 17  1  0
 19 18  1  0
 20 19  1  0
 21 20  1  0
 22 23  2  0
 22 24  1  0
M  END
$$$$
