QAK.pdb
     RDKit          3D

 24 23  0  0  1  0  0  0  0  0999 V2000
   13.2430   -8.8553  -15.9123 N   0  0  0  0  0  0  0  0  0  0  0  0
   13.1892  -10.2589  -16.0774 C   0  0  0  0  0  0  0  0  0  0  0  0
   12.7166  -10.7196  -17.1542 O   0  0  0  0  0  0  0  0  0  0  0  0
   13.6713  -11.1885  -15.0230 C   0  0  0  0  0  0  0  0  0  0  0  0
   14.1776  -10.4214  -13.8249 C   0  0  0  0  0  0  0  0  0  0  0  0
   15.6688  -10.3986  -13.7316 C   0  0  2  0  0  0  0  0  0  0  0  0
   16.1451  -11.7349  -13.5652 N   0  0  0  0  0  0  0  0  0  0  0  0
   16.1675   -9.4660  -12.6903 C   0  0  0  0  0  0  0  0  0  0  0  0
   15.8811   -9.6277  -11.4761 O   0  0  0  0  0  0  0  0  0  0  0  0
   18.4979   -6.5269  -12.6879 C   0  0  0  0  0  0  0  0  0  0  0  0
   17.4260   -7.3847  -12.0028 C   0  0  2  0  0  0  0  0  0  0  0  0
   16.9902   -8.3437  -12.9893 N   0  0  0  0  0  0  0  0  0  0  0  0
   16.3396   -6.5592  -11.4614 C   0  0  0  0  0  0  0  0  0  0  0  0
   15.4230   -6.2088  -12.2204 O   0  0  0  0  0  0  0  0  0  0  0  0
   16.2672   -6.1249  -10.0933 N   0  0  0  0  0  0  0  0  0  0  0  0
   15.2499   -5.3558   -9.5128 C   0  0  1  0  0  0  0  0  0  0  0  0
   15.0751   -5.2314   -8.0626 C   0  0  0  0  0  0  0  0  0  0  0  0
   13.9494   -4.4178   -7.5246 C   0  0  0  0  0  0  0  0  0  0  0  0
   13.8102   -4.2628   -6.0667 C   0  0  0  0  0  0  0  0  0  0  0  0
   12.5682   -3.3708   -5.8295 C   0  0  0  0  0  0  0  0  0  0  0  0
   12.3550   -3.1431   -4.4309 N   0  0  0  0  0  0  0  0  0  0  0  0
   15.0680   -4.0476  -10.2344 C   0  0  0  0  0  0  0  0  0  0  0  0
   13.9210   -3.6475  -10.5373 O   0  0  0  0  0  0  0  0  0  0  0  0
   16.1409   -3.2499  -10.5854 O   0  0  0  0  0  0  0  0  0  0  0  0
  2  1  1  0
  2  3  2  0
  4  5  1  0
  4  2  1  0
  6  8  1  0
  6  7  1  1
  6  5  1  0
  8  9  2  0
 11 10  1  6
 11 13  1  0
 12 11  1  0
 12  8  1  0
 13 14  2  0
 13 15  1  0
 15 16  1  0
 16 22  1  0
 16 17  1  1
 18 17  1  0
 19 18  1  0
 20 19  1  0
 21 20  1  0
 22 23  2  0
 22 24  1  0
M  END
$$$$
