QAK.pdb
     RDKit          3D

 24 23  0  0  1  0  0  0  0  0999 V2000
   20.5894  -33.9708   -3.1898 N   0  0  0  0  0  0  0  0  0  0  0  0
   20.0941  -33.3677   -4.3693 C   0  0  0  0  0  0  0  0  0  0  0  0
   18.9860  -32.7640   -4.3159 O   0  0  0  0  0  0  0  0  0  0  0  0
   20.8421  -33.4299   -5.6518 C   0  0  0  0  0  0  0  0  0  0  0  0
   22.1218  -34.2145   -5.4867 C   0  0  0  0  0  0  0  0  0  0  0  0
   23.2779  -33.6090   -6.2145 C   0  0  2  0  0  0  0  0  0  0  0  0
   23.2507  -34.0436   -7.5748 N   0  0  0  0  0  0  0  0  0  0  0  0
   24.5780  -33.8632   -5.5452 C   0  0  0  0  0  0  0  0  0  0  0  0
   25.2490  -34.8985   -5.7914 O   0  0  0  0  0  0  0  0  0  0  0  0
   26.6817  -31.9565   -3.0849 C   0  0  0  0  0  0  0  0  0  0  0  0
   26.3661  -33.2345   -3.8732 C   0  0  2  0  0  0  0  0  0  0  0  0
   25.1452  -32.9681   -4.5950 N   0  0  0  0  0  0  0  0  0  0  0  0
   26.2876  -34.4059   -2.9921 C   0  0  0  0  0  0  0  0  0  0  0  0
   25.1757  -34.7629   -2.5738 O   0  0  0  0  0  0  0  0  0  0  0  0
   27.4283  -35.1757   -2.5773 N   0  0  0  0  0  0  0  0  0  0  0  0
   27.4312  -36.2437   -1.6701 C   0  0  1  0  0  0  0  0  0  0  0  0
   27.9085  -37.5846   -2.0210 C   0  0  0  0  0  0  0  0  0  0  0  0
   27.7580  -38.6981   -1.0431 C   0  0  0  0  0  0  0  0  0  0  0  0
   28.2793  -40.0312   -1.3894 C   0  0  0  0  0  0  0  0  0  0  0  0
   27.9065  -40.9736   -0.2201 C   0  0  0  0  0  0  0  0  0  0  0  0
   28.2524  -42.3314   -0.5202 N   0  0  0  0  0  0  0  0  0  0  0  0
   27.8838  -35.8048   -0.3035 C   0  0  0  0  0  0  0  0  0  0  0  0
   27.3219  -36.2523    0.7218 O   0  0  0  0  0  0  0  0  0  0  0  0
   28.9195  -34.9061   -0.1290 O   0  0  0  0  0  0  0  0  0  0  0  0
  2  1  1  0
  2  3  2  0
  4  5  1  0
  4  2  1  0
  6  8  1  0
  6  7  1  6
  6  5  1  0
  8  9  2  0
 11 10  1  1
 11 13  1  0
 12 11  1  0
 12  8  1  0
 13 14  2  0
 13 15  1  0
 15 16  1  0
 16 22  1  0
 16 17  1  6
 18 17  1  0
 19 18  1  0
 20 19  1  0
 21 20  1  0
 22 23  2  0
 22 24  1  0
M  END
$$$$
