QPN.pdb
     RDKit          3D

 25 25  0  0  1  0  0  0  0  0999 V2000
   15.0875  -12.2468    8.6624 N   0  0  0  0  0  0  0  0  0  0  0  0
   14.5467  -11.9701    7.3900 C   0  0  0  0  0  0  0  0  0  0  0  0
   13.3478  -12.2192    7.1481 O   0  0  0  0  0  0  0  0  0  0  0  0
   15.3983  -11.3841    6.3385 C   0  0  0  0  0  0  0  0  0  0  0  0
   16.8297  -11.1811    6.8422 C   0  0  0  0  0  0  0  0  0  0  0  0
   17.8218  -11.7032    5.8060 C   0  0  2  0  0  0  0  0  0  0  0  0
   17.0643  -12.2049    4.6969 N   0  0  0  0  0  0  0  0  0  0  0  0
   18.7812  -12.6297    6.3973 C   0  0  0  0  0  0  0  0  0  0  0  0
   18.8948  -13.7653    5.8101 O   0  0  0  0  0  0  0  0  0  0  0  0
   19.5584  -12.3821    7.5161 N   0  0  0  0  0  0  0  0  0  0  0  0
   19.6102  -11.3231    8.4951 C   0  0  0  0  0  0  0  0  0  0  0  0
   21.0930  -10.9560    8.4521 C   0  0  0  0  0  0  0  0  0  0  0  0
   21.7203  -12.3319    8.3743 C   0  0  0  0  0  0  0  0  0  0  0  0
   20.6433  -13.2839    7.9948 C   0  0  1  0  0  0  0  0  0  0  0  0
   20.1600  -14.1652    9.0568 C   0  0  0  0  0  0  0  0  0  0  0  0
   19.0811  -13.8393    9.6485 O   0  0  0  0  0  0  0  0  0  0  0  0
   19.1613  -18.1525   12.2532 N   0  0  0  0  0  0  0  0  0  0  0  0
   19.7363  -18.5842   11.0159 C   0  0  0  0  0  0  0  0  0  0  0  0
   19.7014  -19.8100   10.7857 O   0  0  0  0  0  0  0  0  0  0  0  0
   20.3174  -17.5998   10.1118 C   0  0  0  0  0  0  0  0  0  0  0  0
   20.2074  -16.1660   10.5403 C   0  0  2  0  0  0  0  0  0  0  0  0
   20.7961  -15.3456    9.4747 N   0  0  0  0  0  0  0  0  0  0  0  0
   20.8888  -15.8834   11.8132 C   0  0  0  0  0  0  0  0  0  0  0  0
   22.0054  -15.0302   11.8015 O   0  0  0  0  0  0  0  0  0  0  0  0
   20.5664  -16.3375   12.9339 O   0  0  0  0  0  0  0  0  0  0  0  0
  1  2  1  0
  2  3  2  0
  2  4  1  0
  4  5  1  0
  6  8  1  0
  6  5  1  0
  6  7  1  6
  8 10  1  0
  9  8  2  0
 10 14  1  0
 10 11  1  0
 11 12  1  0
 12 13  1  0
 14 13  1  0
 15 22  1  0
 14 15  1  1
 16 15  2  0
 17 18  1  0
 18 19  2  0
 21 20  1  6
 20 18  1  0
 21 23  1  0
 21 22  1  0
 23 24  1  0
 25 23  2  0
M  END
$$$$
