QPN.pdb
     RDKit          3D

 25 25  0  0  1  0  0  0  0  0999 V2000
   29.7980   -5.7532  -20.8176 N   0  0  0  0  0  0  0  0  0  0  0  0
   29.0997   -6.8869  -21.2815 C   0  0  0  0  0  0  0  0  0  0  0  0
   28.4231   -6.8244  -22.3284 O   0  0  0  0  0  0  0  0  0  0  0  0
   29.1670   -8.1531  -20.5289 C   0  0  0  0  0  0  0  0  0  0  0  0
   30.0142   -7.9945  -19.2636 C   0  0  0  0  0  0  0  0  0  0  0  0
   30.0428   -9.3112  -18.4915 C   0  0  2  0  0  0  0  0  0  0  0  0
   28.7029   -9.5909  -18.0647 N   0  0  0  0  0  0  0  0  0  0  0  0
   31.0589   -9.3002  -17.4445 C   0  0  0  0  0  0  0  0  0  0  0  0
   30.6567   -8.9384  -16.2806 O   0  0  0  0  0  0  0  0  0  0  0  0
   32.3905   -9.6419  -17.6084 N   0  0  0  0  0  0  0  0  0  0  0  0
   33.1945  -10.0609  -18.7313 C   0  0  0  0  0  0  0  0  0  0  0  0
   33.8339  -11.3329  -18.1759 C   0  0  0  0  0  0  0  0  0  0  0  0
   34.1665  -10.8876  -16.7674 C   0  0  0  0  0  0  0  0  0  0  0  0
   33.3930   -9.6450  -16.5064 C   0  0  1  0  0  0  0  0  0  0  0  0
   34.1602   -8.4003  -16.4941 C   0  0  0  0  0  0  0  0  0  0  0  0
   33.8993   -7.5376  -17.3930 O   0  0  0  0  0  0  0  0  0  0  0  0
   35.8780   -3.9925  -14.5627 N   0  0  0  0  0  0  0  0  0  0  0  0
   34.5700   -4.5629  -14.4528 C   0  0  0  0  0  0  0  0  0  0  0  0
   33.6662   -3.8040  -14.0479 O   0  0  0  0  0  0  0  0  0  0  0  0
   34.3641   -5.9610  -14.8088 C   0  0  0  0  0  0  0  0  0  0  0  0
   35.5606   -6.6858  -15.3514 C   0  0  2  0  0  0  0  0  0  0  0  0
   35.1646   -8.0832  -15.5650 N   0  0  0  0  0  0  0  0  0  0  0  0
   36.7282   -6.6357  -14.4576 C   0  0  0  0  0  0  0  0  0  0  0  0
   37.6628   -5.6008  -14.6322 O   0  0  0  0  0  0  0  0  0  0  0  0
   36.9797   -7.4419  -13.5341 O   0  0  0  0  0  0  0  0  0  0  0  0
  1  2  1  0
  2  3  2  0
  2  4  1  0
  4  5  1  0
  6  8  1  0
  6  5  1  0
  6  7  1  1
  8 10  1  0
  9  8  2  0
 10 14  1  0
 10 11  1  0
 11 12  1  0
 12 13  1  0
 14 13  1  0
 15 22  1  0
 14 15  1  6
 16 15  2  0
 17 18  1  0
 18 19  2  0
 21 20  1  1
 20 18  1  0
 21 23  1  0
 21 22  1  0
 23 24  1  0
 25 23  2  0
M  END
$$$$
