QPN.pdb
     RDKit          3D

 25 25  0  0  1  0  0  0  0  0999 V2000
   23.8256  -17.9365  -18.4440 N   0  0  0  0  0  0  0  0  0  0  0  0
   23.5375  -17.8418  -17.0670 C   0  0  0  0  0  0  0  0  0  0  0  0
   22.3855  -17.5522  -16.6835 O   0  0  0  0  0  0  0  0  0  0  0  0
   24.5993  -18.0852  -16.0732 C   0  0  0  0  0  0  0  0  0  0  0  0
   25.9642  -18.2247  -16.7524 C   0  0  0  0  0  0  0  0  0  0  0  0
   26.3529  -19.6988  -16.8349 C   0  0  2  0  0  0  0  0  0  0  0  0
   25.4714  -20.3260  -17.7758 N   0  0  0  0  0  0  0  0  0  0  0  0
   26.4205  -20.3132  -15.5133 C   0  0  0  0  0  0  0  0  0  0  0  0
   25.5953  -21.2731  -15.3015 O   0  0  0  0  0  0  0  0  0  0  0  0
   27.2861  -19.9475  -14.4965 N   0  0  0  0  0  0  0  0  0  0  0  0
   28.2791  -18.9121  -14.3394 C   0  0  0  0  0  0  0  0  0  0  0  0
   29.4916  -19.7324  -13.9013 C   0  0  0  0  0  0  0  0  0  0  0  0
   28.8405  -20.7033  -12.9390 C   0  0  0  0  0  0  0  0  0  0  0  0
   27.3752  -20.6474  -13.1843 C   0  0  1  0  0  0  0  0  0  0  0  0
   26.5788  -19.9589  -12.1695 C   0  0  0  0  0  0  0  0  0  0  0  0
   26.2682  -18.7438  -12.3876 O   0  0  0  0  0  0  0  0  0  0  0  0
   21.4329  -21.2833  -11.3498 N   0  0  0  0  0  0  0  0  0  0  0  0
   22.4093  -20.2446  -11.2231 C   0  0  0  0  0  0  0  0  0  0  0  0
   21.9896  -19.1316  -10.8470 O   0  0  0  0  0  0  0  0  0  0  0  0
   23.8051  -20.5298  -11.5306 C   0  0  0  0  0  0  0  0  0  0  0  0
   24.7957  -20.2147  -10.4486 C   0  0  2  0  0  0  0  0  0  0  0  0
   26.1295  -20.5364  -10.9707 N   0  0  0  0  0  0  0  0  0  0  0  0
   24.5595  -20.9641   -9.2048 C   0  0  0  0  0  0  0  0  0  0  0  0
   25.0568  -22.2748   -9.1064 O   0  0  0  0  0  0  0  0  0  0  0  0
   23.9449  -20.5416   -8.1998 O   0  0  0  0  0  0  0  0  0  0  0  0
  1  2  1  0
  2  3  2  0
  2  4  1  0
  4  5  1  0
  6  8  1  0
  6  5  1  0
  6  7  1  6
  8 10  1  0
  9  8  2  0
 10 14  1  0
 10 11  1  0
 11 12  1  0
 12 13  1  0
 14 13  1  0
 15 22  1  0
 14 15  1  1
 16 15  2  0
 17 18  1  0
 18 19  2  0
 21 20  1  6
 20 18  1  0
 21 23  1  0
 21 22  1  0
 23 24  1  0
 25 23  2  0
M  END
$$$$
