QPN.pdb
     RDKit          3D

 25 25  0  0  1  0  0  0  0  0999 V2000
   20.8340  -20.7883  -17.0248 N   0  0  0  0  0  0  0  0  0  0  0  0
   21.9093  -21.4197  -17.6829 C   0  0  0  0  0  0  0  0  0  0  0  0
   21.7428  -22.5204  -18.2473 O   0  0  0  0  0  0  0  0  0  0  0  0
   23.2375  -20.7796  -17.7062 C   0  0  0  0  0  0  0  0  0  0  0  0
   23.1528  -19.3242  -17.2389 C   0  0  0  0  0  0  0  0  0  0  0  0
   23.6184  -19.2184  -15.7888 C   0  0  2  0  0  0  0  0  0  0  0  0
   22.7742  -20.0682  -15.0009 N   0  0  0  0  0  0  0  0  0  0  0  0
   23.7136  -17.8292  -15.3532 C   0  0  0  0  0  0  0  0  0  0  0  0
   22.7502  -17.4081  -14.6170 O   0  0  0  0  0  0  0  0  0  0  0  0
   24.7390  -16.9534  -15.6667 N   0  0  0  0  0  0  0  0  0  0  0  0
   25.9675  -17.0640  -16.4159 C   0  0  0  0  0  0  0  0  0  0  0  0
   26.9770  -16.5199  -15.4059 C   0  0  0  0  0  0  0  0  0  0  0  0
   26.2049  -15.3456  -14.8424 C   0  0  0  0  0  0  0  0  0  0  0  0
   24.7819  -15.5289  -15.2324 C   0  0  1  0  0  0  0  0  0  0  0  0
   24.2850  -14.6458  -16.2865 C   0  0  0  0  0  0  0  0  0  0  0  0
   24.0663  -15.1582  -17.4310 O   0  0  0  0  0  0  0  0  0  0  0  0
   20.3870  -11.6734  -17.6949 N   0  0  0  0  0  0  0  0  0  0  0  0
   20.3866  -12.8310  -16.8533 C   0  0  0  0  0  0  0  0  0  0  0  0
   19.2758  -13.3523  -16.6276 O   0  0  0  0  0  0  0  0  0  0  0  0
   21.6468  -13.3294  -16.3172 C   0  0  0  0  0  0  0  0  0  0  0  0
   22.8890  -12.6515  -16.8158 C   0  0  2  0  0  0  0  0  0  0  0  0
   24.0299  -13.2733  -16.1326 N   0  0  0  0  0  0  0  0  0  0  0  0
   22.8999  -11.2006  -16.5723 C   0  0  0  0  0  0  0  0  0  0  0  0
   22.5923  -10.3388  -17.6389 O   0  0  0  0  0  0  0  0  0  0  0  0
   23.1620  -10.6419  -15.4835 O   0  0  0  0  0  0  0  0  0  0  0  0
  1  2  1  0
  2  3  2  0
  2  4  1  0
  4  5  1  0
  6  8  1  0
  6  5  1  0
  6  7  1  1
  8 10  1  0
  9  8  2  0
 10 14  1  0
 10 11  1  0
 11 12  1  0
 12 13  1  0
 14 13  1  0
 15 22  1  0
 14 15  1  6
 16 15  2  0
 17 18  1  0
 18 19  2  0
 21 20  1  1
 20 18  1  0
 21 23  1  0
 21 22  1  0
 23 24  1  0
 25 23  2  0
M  END
$$$$
