QPN.pdb
     RDKit          3D

 25 25  0  0  1  0  0  0  0  0999 V2000
   21.9440  -12.9189  -19.4441 N   0  0  0  0  0  0  0  0  0  0  0  0
   20.7257  -13.0513  -20.1415 C   0  0  0  0  0  0  0  0  0  0  0  0
   20.6428  -13.8170  -21.1237 O   0  0  0  0  0  0  0  0  0  0  0  0
   19.5428  -12.2834  -19.7112 C   0  0  0  0  0  0  0  0  0  0  0  0
   19.8920  -11.3388  -18.5581 C   0  0  0  0  0  0  0  0  0  0  0  0
   19.9404  -12.1189  -17.2467 C   0  0  2  0  0  0  0  0  0  0  0  0
   18.6829  -12.7911  -17.0972 N   0  0  0  0  0  0  0  0  0  0  0  0
   20.3505  -11.2728  -16.1311 C   0  0  0  0  0  0  0  0  0  0  0  0
   19.4009  -10.8195  -15.3962 O   0  0  0  0  0  0  0  0  0  0  0  0
   21.6541  -10.9309  -15.8139 N   0  0  0  0  0  0  0  0  0  0  0  0
   22.9450  -11.2381  -16.3813 C   0  0  0  0  0  0  0  0  0  0  0  0
   23.6944  -11.7431  -15.1491 C   0  0  0  0  0  0  0  0  0  0  0  0
   23.2262  -10.7478  -14.1086 C   0  0  0  0  0  0  0  0  0  0  0  0
   22.0326  -10.0590  -14.6667 C   0  0  1  0  0  0  0  0  0  0  0  0
   22.2325   -8.6779  -15.1034 C   0  0  0  0  0  0  0  0  0  0  0  0
   22.3767   -8.4686  -16.3507 O   0  0  0  0  0  0  0  0  0  0  0  0
   21.2764   -3.6989  -15.7589 N   0  0  0  0  0  0  0  0  0  0  0  0
   20.4271   -4.8265  -15.9943 C   0  0  0  0  0  0  0  0  0  0  0  0
   19.3588   -4.6000  -16.5977 O   0  0  0  0  0  0  0  0  0  0  0  0
   20.8397   -6.1454  -15.5314 C   0  0  0  0  0  0  0  0  0  0  0  0
   22.1474   -6.2069  -14.7982 C   0  0  2  0  0  0  0  0  0  0  0  0
   22.2775   -7.5628  -14.2507 N   0  0  0  0  0  0  0  0  0  0  0  0
   22.2525   -5.2235  -13.7089 C   0  0  0  0  0  0  0  0  0  0  0  0
   21.6641   -5.5292  -12.4699 O   0  0  0  0  0  0  0  0  0  0  0  0
   22.8277   -4.1141  -13.7759 O   0  0  0  0  0  0  0  0  0  0  0  0
  1  2  1  0
  2  3  2  0
  2  4  1  0
  4  5  1  0
  6  8  1  0
  6  5  1  0
  6  7  1  1
  8 10  1  0
  9  8  2  0
 10 14  1  0
 10 11  1  0
 11 12  1  0
 12 13  1  0
 14 13  1  0
 15 22  1  0
 14 15  1  6
 16 15  2  0
 17 18  1  0
 18 19  2  0
 21 20  1  1
 20 18  1  0
 21 23  1  0
 21 22  1  0
 23 24  1  0
 25 23  2  0
M  END
$$$$
