QPN.pdb
     RDKit          3D

 25 25  0  0  1  0  0  0  0  0999 V2000
   16.0141  -22.9638   -2.4925 N   0  0  0  0  0  0  0  0  0  0  0  0
   15.2930  -23.7648   -1.5834 C   0  0  0  0  0  0  0  0  0  0  0  0
   15.7631  -24.8533   -1.1935 O   0  0  0  0  0  0  0  0  0  0  0  0
   13.9776  -23.3176   -1.0894 C   0  0  0  0  0  0  0  0  0  0  0  0
   14.1253  -22.4863    0.1877 C   0  0  0  0  0  0  0  0  0  0  0  0
   14.1243  -23.4056    1.4065 C   0  0  2  0  0  0  0  0  0  0  0  0
   12.8682  -24.0967    1.4253 N   0  0  0  0  0  0  0  0  0  0  0  0
   14.4768  -22.6852    2.6253 C   0  0  0  0  0  0  0  0  0  0  0  0
   13.5032  -22.4212    3.4187 O   0  0  0  0  0  0  0  0  0  0  0  0
   15.7506  -22.2755    2.9809 N   0  0  0  0  0  0  0  0  0  0  0  0
   17.0382  -22.3013    2.3295 C   0  0  0  0  0  0  0  0  0  0  0  0
   17.8949  -22.9766    3.3996 C   0  0  0  0  0  0  0  0  0  0  0  0
   17.3742  -22.2948    4.6472 C   0  0  0  0  0  0  0  0  0  0  0  0
   16.0892  -21.6404    4.2853 C   0  0  1  0  0  0  0  0  0  0  0  0
   16.1207  -20.1835    4.1649 C   0  0  0  0  0  0  0  0  0  0  0  0
   16.7050  -19.6881    3.1482 O   0  0  0  0  0  0  0  0  0  0  0  0
   13.9550  -15.1163    3.9734 N   0  0  0  0  0  0  0  0  0  0  0  0
   14.2573  -15.7837    5.2028 C   0  0  0  0  0  0  0  0  0  0  0  0
   14.4439  -15.0550    6.1982 O   0  0  0  0  0  0  0  0  0  0  0  0
   14.3303  -17.2390    5.2307 C   0  0  0  0  0  0  0  0  0  0  0  0
   15.6570  -17.8392    4.8687 C   0  0  2  0  0  0  0  0  0  0  0  0
   15.5549  -19.2874    5.0864 N   0  0  0  0  0  0  0  0  0  0  0  0
   16.7760  -17.3001    5.6571 C   0  0  0  0  0  0  0  0  0  0  0  0
   17.2256  -15.9977    5.3805 O   0  0  0  0  0  0  0  0  0  0  0  0
   17.3836  -17.8993    6.5725 O   0  0  0  0  0  0  0  0  0  0  0  0
  1  2  1  0
  2  3  2  0
  2  4  1  0
  4  5  1  0
  6  8  1  0
  6  5  1  0
  6  7  1  1
  8 10  1  0
  9  8  2  0
 10 14  1  0
 10 11  1  0
 11 12  1  0
 12 13  1  0
 14 13  1  0
 15 22  1  0
 14 15  1  6
 16 15  2  0
 17 18  1  0
 18 19  2  0
 21 20  1  1
 20 18  1  0
 21 23  1  0
 21 22  1  0
 23 24  1  0
 25 23  2  0
M  END
$$$$
