DDL.pdb
     RDKit          3D

 25 24  0  0  1  0  0  0  0  0999 V2000
   17.7150  -15.4563  -17.9747 N   0  0  0  0  0  0  0  0  0  0  0  0
   17.6677  -14.5994  -16.8034 C   0  0  1  0  0  0  0  0  0  0  0  0
   18.6054  -15.1040  -15.7371 C   0  0  0  0  0  0  0  0  0  0  0  0
   18.2282  -16.4454  -15.2688 C   0  0  0  0  0  0  0  0  0  0  0  0
   17.2450  -17.0617  -15.7227 O   0  0  0  0  0  0  0  0  0  0  0  0
   17.9058  -13.2040  -17.1779 C   0  0  0  0  0  0  0  0  0  0  0  0
   17.5477  -12.8155  -18.3195 O   0  0  0  0  0  0  0  0  0  0  0  0
   18.9811  -17.0616  -14.2888 O   0  0  0  0  0  0  0  0  0  0  0  0
   18.5140  -12.2507  -16.3456 N   0  0  0  0  0  0  0  0  0  0  0  0
   18.6230  -10.8309  -16.6488 C   0  0  1  0  0  0  0  0  0  0  0  0
   17.2938  -10.1981  -16.8792 C   0  0  0  0  0  0  0  0  0  0  0  0
   17.4740   -8.7773  -17.2394 C   0  0  0  0  0  0  0  0  0  0  0  0
   16.9829   -7.8044  -16.5874 O   0  0  0  0  0  0  0  0  0  0  0  0
   19.3887  -10.1316  -15.5778 C   0  0  0  0  0  0  0  0  0  0  0  0
   18.9794  -10.0545  -14.3968 O   0  0  0  0  0  0  0  0  0  0  0  0
   18.2264   -8.4053  -18.3647 O   0  0  0  0  0  0  0  0  0  0  0  0
   24.6652  -11.0186  -15.5749 C   0  0  0  0  0  0  0  0  0  0  0  0
   23.2311  -10.7372  -15.2104 C   0  0  1  0  0  0  0  0  0  0  0  0
   22.9837  -11.4340  -13.8722 C   0  0  0  0  0  0  0  0  0  0  0  0
   22.9237   -9.2886  -15.0197 C   0  0  0  0  0  0  0  0  0  0  0  0
   21.4605   -8.9923  -14.7672 C   0  0  2  0  0  0  0  0  0  0  0  0
   20.6391   -9.5111  -15.8546 N   0  0  0  0  0  0  0  0  0  0  0  0
   21.1767   -7.5603  -14.5710 C   0  0  0  0  0  0  0  0  0  0  0  0
   21.6663   -6.9874  -13.5554 O   0  0  0  0  0  0  0  0  0  0  0  0
   20.3986   -6.8105  -15.4473 O   0  0  0  0  0  0  0  0  0  0  0  0
  2  1  1  6
  2  6  1  0
  2  3  1  0
  4  3  1  0
  5  4  2  0
  6  7  2  0
  8  4  1  0
  9 10  1  0
  9  6  1  0
 10 14  1  0
 10 11  1  1
 12 11  1  0
 13 12  2  0
 14 15  2  0
 16 12  1  0
 18 17  1  1
 18 19  1  0
 20 18  1  0
 21 20  1  6
 22 14  1  0
 22 21  1  0
 23 21  1  0
 24 23  2  0
 25 23  1  0
M  END
$$$$
