DDL.pdb
     RDKit          3D

 25 24  0  0  1  0  0  0  0  0999 V2000
   18.2243  -14.4839  -19.6062 N   0  0  0  0  0  0  0  0  0  0  0  0
   18.3038  -14.3855  -18.1596 C   0  0  1  0  0  0  0  0  0  0  0  0
   19.4674  -15.1867  -17.6353 C   0  0  0  0  0  0  0  0  0  0  0  0
   19.2058  -16.6320  -17.6945 C   0  0  0  0  0  0  0  0  0  0  0  0
   18.0725  -17.0992  -17.9179 O   0  0  0  0  0  0  0  0  0  0  0  0
   18.3246  -12.9825  -17.7407 C   0  0  0  0  0  0  0  0  0  0  0  0
   18.9231  -12.1450  -18.4638 O   0  0  0  0  0  0  0  0  0  0  0  0
   20.2440  -17.5210  -17.4976 O   0  0  0  0  0  0  0  0  0  0  0  0
   17.7170  -12.4929  -16.5734 N   0  0  0  0  0  0  0  0  0  0  0  0
   17.8038  -11.1171  -16.1053 C   0  0  1  0  0  0  0  0  0  0  0  0
   16.6532  -10.7418  -15.2361 C   0  0  0  0  0  0  0  0  0  0  0  0
   15.3937  -10.8595  -15.9981 C   0  0  0  0  0  0  0  0  0  0  0  0
   15.2660  -10.5534  -17.2240 O   0  0  0  0  0  0  0  0  0  0  0  0
   19.1090  -10.8851  -15.4233 C   0  0  0  0  0  0  0  0  0  0  0  0
   19.7897  -11.8160  -14.9353 O   0  0  0  0  0  0  0  0  0  0  0  0
   14.2210  -11.3343  -15.3897 O   0  0  0  0  0  0  0  0  0  0  0  0
   23.7655  -10.7065  -13.9002 C   0  0  0  0  0  0  0  0  0  0  0  0
   23.4158  -10.0039  -15.1859 C   0  0  1  0  0  0  0  0  0  0  0  0
   24.2915  -10.6322  -16.2702 C   0  0  0  0  0  0  0  0  0  0  0  0
   21.9942  -10.1774  -15.6080 C   0  0  0  0  0  0  0  0  0  0  0  0
   21.0013   -9.3808  -14.7880 C   0  0  2  0  0  0  0  0  0  0  0  0
   19.6480   -9.5743  -15.2953 N   0  0  0  0  0  0  0  0  0  0  0  0
   21.3084   -7.9414  -14.7304 C   0  0  0  0  0  0  0  0  0  0  0  0
   21.8649   -7.4899  -13.6884 O   0  0  0  0  0  0  0  0  0  0  0  0
   21.0167   -7.0579  -15.7648 O   0  0  0  0  0  0  0  0  0  0  0  0
  2  1  1  6
  2  6  1  0
  2  3  1  0
  4  3  1  0
  5  4  2  0
  6  7  2  0
  8  4  1  0
  9 10  1  0
  9  6  1  0
 10 14  1  0
 10 11  1  1
 12 11  1  0
 13 12  2  0
 14 15  2  0
 16 12  1  0
 18 17  1  1
 18 19  1  0
 20 18  1  0
 21 20  1  6
 22 14  1  0
 22 21  1  0
 23 21  1  0
 24 23  2  0
 25 23  1  0
M  END
$$$$
