DDL.pdb
     RDKit          3D

 25 24  0  0  1  0  0  0  0  0999 V2000
   17.1373  -14.0662  -16.1548 N   0  0  0  0  0  0  0  0  0  0  0  0
   18.5447  -14.0273  -16.5103 C   0  0  1  0  0  0  0  0  0  0  0  0
   18.8380  -14.9955  -17.6270 C   0  0  0  0  0  0  0  0  0  0  0  0
   18.6040  -16.3880  -17.2179 C   0  0  0  0  0  0  0  0  0  0  0  0
   17.6825  -16.7132  -16.4449 O   0  0  0  0  0  0  0  0  0  0  0  0
   18.9629  -12.6547  -16.8023 C   0  0  0  0  0  0  0  0  0  0  0  0
   20.1586  -12.4447  -17.1318 O   0  0  0  0  0  0  0  0  0  0  0  0
   19.4269  -17.3870  -17.6991 O   0  0  0  0  0  0  0  0  0  0  0  0
   18.1162  -11.5363  -16.7414 N   0  0  0  0  0  0  0  0  0  0  0  0
   18.5055  -10.1785  -17.0941 C   0  0  1  0  0  0  0  0  0  0  0  0
   17.3316   -9.3187  -17.4148 C   0  0  0  0  0  0  0  0  0  0  0  0
   17.7947   -7.9921  -17.8691 C   0  0  0  0  0  0  0  0  0  0  0  0
   18.6685   -7.8082  -18.7722 O   0  0  0  0  0  0  0  0  0  0  0  0
   19.3453   -9.5853  -16.0147 C   0  0  0  0  0  0  0  0  0  0  0  0
   19.0122   -9.6149  -14.8079 O   0  0  0  0  0  0  0  0  0  0  0  0
   17.2771   -6.8135  -17.3090 O   0  0  0  0  0  0  0  0  0  0  0  0
   24.4296  -10.7840  -15.0859 C   0  0  0  0  0  0  0  0  0  0  0  0
   23.0476  -10.2432  -14.8278 C   0  0  1  0  0  0  0  0  0  0  0  0
   22.8861  -10.1856  -13.3085 C   0  0  0  0  0  0  0  0  0  0  0  0
   22.8262   -8.8621  -15.3500 C   0  0  0  0  0  0  0  0  0  0  0  0
   21.3947   -8.3801  -15.2435 C   0  0  2  0  0  0  0  0  0  0  0  0
   20.5831   -8.9494  -16.3127 N   0  0  0  0  0  0  0  0  0  0  0  0
   21.2672   -6.9127  -15.2517 C   0  0  0  0  0  0  0  0  0  0  0  0
   21.7088   -6.2685  -14.2571 O   0  0  0  0  0  0  0  0  0  0  0  0
   20.6863   -6.2040  -16.2986 O   0  0  0  0  0  0  0  0  0  0  0  0
  2  1  1  6
  2  6  1  0
  2  3  1  0
  4  3  1  0
  5  4  2  0
  6  7  2  0
  8  4  1  0
  9 10  1  0
  9  6  1  0
 10 14  1  0
 10 11  1  1
 12 11  1  0
 13 12  2  0
 14 15  2  0
 16 12  1  0
 18 17  1  1
 18 19  1  0
 20 18  1  0
 21 20  1  6
 22 14  1  0
 22 21  1  0
 23 21  1  0
 24 23  2  0
 25 23  1  0
M  END
$$$$
