DDL.pdb
     RDKit          3D

 25 24  0  0  1  0  0  0  0  0999 V2000
   18.8668  -14.7733  -18.5960 N   0  0  0  0  0  0  0  0  0  0  0  0
   18.1931  -14.1002  -17.4998 C   0  0  1  0  0  0  0  0  0  0  0  0
   18.4808  -14.7932  -16.1930 C   0  0  0  0  0  0  0  0  0  0  0  0
   17.8264  -16.1073  -16.1164 C   0  0  0  0  0  0  0  0  0  0  0  0
   17.0049  -16.4974  -16.9681 O   0  0  0  0  0  0  0  0  0  0  0  0
   18.5260  -12.6743  -17.4905 C   0  0  0  0  0  0  0  0  0  0  0  0
   19.6689  -12.3183  -17.8774 O   0  0  0  0  0  0  0  0  0  0  0  0
   18.1215  -16.9552  -15.0671 O   0  0  0  0  0  0  0  0  0  0  0  0
   17.6518  -11.6570  -17.0754 N   0  0  0  0  0  0  0  0  0  0  0  0
   17.9933  -10.2434  -17.0080 C   0  0  1  0  0  0  0  0  0  0  0  0
   16.7861   -9.3722  -16.9461 C   0  0  0  0  0  0  0  0  0  0  0  0
   17.1951   -7.9532  -16.9450 C   0  0  0  0  0  0  0  0  0  0  0  0
   17.0361   -7.1618  -15.9644 O   0  0  0  0  0  0  0  0  0  0  0  0
   18.9163   -9.9891  -15.8653 C   0  0  0  0  0  0  0  0  0  0  0  0
   19.0457  -10.7905  -14.9117 O   0  0  0  0  0  0  0  0  0  0  0  0
   17.8061   -7.3748  -18.0687 O   0  0  0  0  0  0  0  0  0  0  0  0
   23.0464  -10.3452  -13.2084 C   0  0  0  0  0  0  0  0  0  0  0  0
   23.1487   -9.8827  -14.6383 C   0  0  1  0  0  0  0  0  0  0  0  0
   24.0767  -10.8719  -15.3439 C   0  0  0  0  0  0  0  0  0  0  0  0
   21.8503   -9.8896  -15.3754 C   0  0  0  0  0  0  0  0  0  0  0  0
   20.9124   -8.7646  -14.9913 C   0  0  2  0  0  0  0  0  0  0  0  0
   19.7044   -8.8056  -15.8070 N   0  0  0  0  0  0  0  0  0  0  0  0
   21.5279   -7.4296  -15.0833 C   0  0  0  0  0  0  0  0  0  0  0  0
   22.4916   -7.1609  -14.3097 O   0  0  0  0  0  0  0  0  0  0  0  0
   21.1012   -6.4537  -15.9783 O   0  0  0  0  0  0  0  0  0  0  0  0
  2  1  1  6
  2  6  1  0
  2  3  1  0
  4  3  1  0
  5  4  2  0
  6  7  2  0
  8  4  1  0
  9 10  1  0
  9  6  1  0
 10 14  1  0
 10 11  1  1
 12 11  1  0
 13 12  2  0
 14 15  2  0
 16 12  1  0
 18 17  1  1
 18 19  1  0
 20 18  1  0
 21 20  1  6
 22 14  1  0
 22 21  1  0
 23 21  1  0
 24 23  2  0
 25 23  1  0
M  END
$$$$
