INW.pdb
     RDKit          3D

 31 32  0  0  1  0  0  0  0  0999 V2000
    7.3523  -11.7152   19.9196 C   0  0  0  0  0  0  0  0  0  0  0  0
    7.6563  -13.0939   19.4467 C   0  0  0  0  0  0  0  0  0  0  0  0
    8.1376  -14.0256   20.5120 C   0  0  2  0  0  0  0  0  0  0  0  0
    9.3066  -13.4183   21.2830 C   0  0  0  0  0  0  0  0  0  0  0  0
    8.4356  -15.4170   20.0602 C   0  0  2  0  0  0  0  0  0  0  0  0
    7.2399  -15.9082   19.4021 N   0  0  0  0  0  0  0  0  0  0  0  0
    8.8655  -16.3289   21.1564 C   0  0  0  0  0  0  0  0  0  0  0  0
    7.9819  -16.8516   21.8637 O   0  0  0  0  0  0  0  0  0  0  0  0
   11.8995  -19.3291   19.8367 N   0  0  0  0  0  0  0  0  0  0  0  0
   11.3106  -19.3810   21.1427 C   0  0  0  0  0  0  0  0  0  0  0  0
   10.4736  -20.3063   21.3009 O   0  0  0  0  0  0  0  0  0  0  0  0
   11.7001  -18.3973   22.1670 C   0  0  0  0  0  0  0  0  0  0  0  0
   10.6711  -17.4392   22.5703 C   0  0  2  0  0  0  0  0  0  0  0  0
   10.2127  -16.6226   21.4267 N   0  0  0  0  0  0  0  0  0  0  0  0
   10.8545  -16.5485   23.6803 C   0  0  0  0  0  0  0  0  0  0  0  0
   11.9881  -15.9828   23.8370 O   0  0  0  0  0  0  0  0  0  0  0  0
    9.8700  -16.2221   24.6487 N   0  0  0  0  0  0  0  0  0  0  0  0
   10.0514  -16.2817   26.0505 C   0  0  1  0  0  0  0  0  0  0  0  0
    8.8557  -16.2553   26.9303 C   0  0  0  0  0  0  0  0  0  0  0  0
    7.7026  -15.4755   26.4293 C   0  0  0  0  0  0  0  0  0  0  0  0
    6.4730  -16.0013   26.0150 C   0  0  0  0  0  0  0  0  0  0  0  0
    5.6786  -14.9932   25.6512 N   0  0  0  0  0  0  0  0  0  0  0  0
    6.2918  -13.8235   25.7930 C   0  0  0  0  0  0  0  0  0  0  0  0
    5.9212  -12.5255   25.5552 C   0  0  0  0  0  0  0  0  0  0  0  0
    6.7864  -11.4851   25.7880 C   0  0  0  0  0  0  0  0  0  0  0  0
    8.0540  -11.7432   26.2701 C   0  0  0  0  0  0  0  0  0  0  0  0
    8.4057  -13.0660   26.5032 C   0  0  0  0  0  0  0  0  0  0  0  0
    7.5546  -14.1230   26.2778 C   0  0  0  0  0  0  0  0  0  0  0  0
   11.0056  -17.3839   26.4589 C   0  0  0  0  0  0  0  0  0  0  0  0
   11.3499  -18.2891   25.6805 O   0  0  0  0  0  0  0  0  0  0  0  0
   11.4907  -17.3540   27.7493 O   0  0  0  0  0  0  0  0  0  0  0  0
  2  3  1  0
  2  1  1  0
  3  4  1  6
  5  6  1  1
  5  3  1  0
  7  5  1  0
  8  7  2  0
  9 10  1  0
 10 12  1  0
 11 10  2  0
 13 12  1  6
 13 15  1  0
 13 14  1  0
 14  7  1  0
 15 16  2  0
 17 18  1  0
 17 15  1  0
 18 29  1  0
 18 19  1  1
 20 19  1  0
 20 28  1  0
 21 20  2  0
 22 21  1  0
 22 23  1  0
 23 24  1  0
 23 28  2  0
 24 25  2  0
 25 26  1  0
 27 26  2  0
 28 27  1  0
 29 30  2  0
 29 31  1  0
M  END
$$$$
