INW.pdb
     RDKit          3D

 31 32  0  0  1  0  0  0  0  0999 V2000
    6.9976  -13.5577   17.8919 C   0  0  0  0  0  0  0  0  0  0  0  0
    7.5121  -14.2150   19.1248 C   0  0  0  0  0  0  0  0  0  0  0  0
    8.3722  -13.3436   19.9824 C   0  0  2  0  0  0  0  0  0  0  0  0
    8.6002  -11.9844   19.3266 C   0  0  0  0  0  0  0  0  0  0  0  0
    9.6529  -13.9590   20.4408 C   0  0  2  0  0  0  0  0  0  0  0  0
   10.4057  -14.2957   19.2475 N   0  0  0  0  0  0  0  0  0  0  0  0
    9.4714  -15.1464   21.3212 C   0  0  0  0  0  0  0  0  0  0  0  0
    8.6550  -15.0604   22.2594 O   0  0  0  0  0  0  0  0  0  0  0  0
   11.0763  -19.0679   19.0266 N   0  0  0  0  0  0  0  0  0  0  0  0
   10.2096  -19.1048   20.1680 C   0  0  0  0  0  0  0  0  0  0  0  0
    9.0418  -19.5023   19.9233 O   0  0  0  0  0  0  0  0  0  0  0  0
   10.7129  -18.6946   21.4897 C   0  0  0  0  0  0  0  0  0  0  0  0
   10.1067  -17.4971   22.0713 C   0  0  2  0  0  0  0  0  0  0  0  0
   10.1754  -16.3491   21.1426 N   0  0  0  0  0  0  0  0  0  0  0  0
   10.4746  -17.0131   23.3710 C   0  0  0  0  0  0  0  0  0  0  0  0
   11.4405  -16.1844   23.4704 O   0  0  0  0  0  0  0  0  0  0  0  0
    9.8505  -17.3731   24.5935 N   0  0  0  0  0  0  0  0  0  0  0  0
   10.1536  -16.8195   25.8597 C   0  0  1  0  0  0  0  0  0  0  0  0
    9.8498  -15.3875   26.1078 C   0  0  0  0  0  0  0  0  0  0  0  0
    8.4217  -15.0082   26.0335 C   0  0  0  0  0  0  0  0  0  0  0  0
    7.3592  -15.8654   25.7229 C   0  0  0  0  0  0  0  0  0  0  0  0
    6.2216  -15.1706   25.7739 N   0  0  0  0  0  0  0  0  0  0  0  0
    6.4475  -13.9025   26.0981 C   0  0  0  0  0  0  0  0  0  0  0  0
    5.6373  -12.8100   26.2677 C   0  0  0  0  0  0  0  0  0  0  0  0
    6.1577  -11.5839   26.6011 C   0  0  0  0  0  0  0  0  0  0  0  0
    7.5204  -11.4412   26.7699 C   0  0  0  0  0  0  0  0  0  0  0  0
    8.3200  -12.5624   26.5928 C   0  0  0  0  0  0  0  0  0  0  0  0
    7.8196  -13.7998   26.2598 C   0  0  0  0  0  0  0  0  0  0  0  0
    9.6607  -17.6874   26.9980 C   0  0  0  0  0  0  0  0  0  0  0  0
    8.9235  -18.6709   26.8148 O   0  0  0  0  0  0  0  0  0  0  0  0
   10.0610  -17.3459   28.2725 O   0  0  0  0  0  0  0  0  0  0  0  0
  2  3  1  0
  2  1  1  0
  3  4  1  6
  5  6  1  6
  5  3  1  0
  7  5  1  0
  8  7  2  0
  9 10  1  0
 10 12  1  0
 11 10  2  0
 13 12  1  6
 13 15  1  0
 13 14  1  0
 14  7  1  0
 15 16  2  0
 17 18  1  0
 17 15  1  0
 18 29  1  0
 18 19  1  6
 20 19  1  0
 20 28  1  0
 21 20  2  0
 22 21  1  0
 22 23  1  0
 23 24  1  0
 23 28  2  0
 24 25  2  0
 25 26  1  0
 27 26  2  0
 28 27  1  0
 29 30  2  0
 29 31  1  0
M  END
$$$$
