INW.pdb
     RDKit          3D

 31 32  0  0  1  0  0  0  0  0999 V2000
    7.2583  -11.9292   21.6784 C   0  0  0  0  0  0  0  0  0  0  0  0
    7.1935  -13.4128   21.5714 C   0  0  0  0  0  0  0  0  0  0  0  0
    7.9630  -13.9888   20.4266 C   0  0  2  0  0  0  0  0  0  0  0  0
    7.6780  -13.2250   19.1362 C   0  0  0  0  0  0  0  0  0  0  0  0
    7.8254  -15.4635   20.2389 C   0  0  2  0  0  0  0  0  0  0  0  0
    6.4139  -15.7295   20.0367 N   0  0  0  0  0  0  0  0  0  0  0  0
    8.3739  -16.2694   21.3649 C   0  0  0  0  0  0  0  0  0  0  0  0
    7.6159  -16.5357   22.3180 O   0  0  0  0  0  0  0  0  0  0  0  0
   11.2398  -18.6154   19.4706 N   0  0  0  0  0  0  0  0  0  0  0  0
   11.8735  -18.0920   20.6453 C   0  0  0  0  0  0  0  0  0  0  0  0
   12.8701  -17.3595   20.4177 O   0  0  0  0  0  0  0  0  0  0  0  0
   11.3470  -18.4278   21.9790 C   0  0  0  0  0  0  0  0  0  0  0  0
   10.2464  -17.5984   22.4692 C   0  0  2  0  0  0  0  0  0  0  0  0
    9.6981  -16.7377   21.3999 N   0  0  0  0  0  0  0  0  0  0  0  0
   10.3721  -16.7851   23.6447 C   0  0  0  0  0  0  0  0  0  0  0  0
   11.0083  -15.6812   23.5664 O   0  0  0  0  0  0  0  0  0  0  0  0
    9.8409  -17.0944   24.9237 N   0  0  0  0  0  0  0  0  0  0  0  0
   10.3622  -16.6379   26.1572 C   0  0  1  0  0  0  0  0  0  0  0  0
    9.9038  -15.3298   26.6895 C   0  0  0  0  0  0  0  0  0  0  0  0
    8.4972  -14.9728   26.4016 C   0  0  0  0  0  0  0  0  0  0  0  0
    7.4686  -15.8708   26.0923 C   0  0  0  0  0  0  0  0  0  0  0  0
    6.3394  -15.1824   25.9176 N   0  0  0  0  0  0  0  0  0  0  0  0
    6.5395  -13.8804   26.0885 C   0  0  0  0  0  0  0  0  0  0  0  0
    5.7260  -12.7798   26.0133 C   0  0  0  0  0  0  0  0  0  0  0  0
    6.2171  -11.5165   26.2327 C   0  0  0  0  0  0  0  0  0  0  0  0
    7.5531  -11.3439   26.5346 C   0  0  0  0  0  0  0  0  0  0  0  0
    8.3566  -12.4740   26.6051 C   0  0  0  0  0  0  0  0  0  0  0  0
    7.8852  -13.7483   26.3900 C   0  0  0  0  0  0  0  0  0  0  0  0
   10.3220  -17.7075   27.2279 C   0  0  0  0  0  0  0  0  0  0  0  0
   10.8037  -17.5348   28.3602 O   0  0  0  0  0  0  0  0  0  0  0  0
    9.7237  -18.9062   26.9017 O   0  0  0  0  0  0  0  0  0  0  0  0
  2  3  1  0
  2  1  1  0
  3  4  1  6
  5  6  1  1
  5  3  1  0
  7  5  1  0
  8  7  2  0
  9 10  1  0
 10 12  1  0
 11 10  2  0
 13 12  1  6
 13 15  1  0
 13 14  1  0
 14  7  1  0
 15 16  2  0
 17 18  1  0
 17 15  1  0
 18 29  1  0
 18 19  1  1
 20 19  1  0
 20 28  1  0
 21 20  2  0
 22 21  1  0
 22 23  1  0
 23 24  1  0
 23 28  2  0
 24 25  2  0
 25 26  1  0
 27 26  2  0
 28 27  1  0
 29 30  2  0
 29 31  1  0
M  END
$$$$
