INW.pdb
     RDKit          3D

 31 32  0  0  1  0  0  0  0  0999 V2000
    6.5966  -12.4190   27.0092 C   0  0  0  0  0  0  0  0  0  0  0  0
    6.1356  -13.6652   26.3377 C   0  0  0  0  0  0  0  0  0  0  0  0
    7.1949  -14.3861   25.5677 C   0  0  2  0  0  0  0  0  0  0  0  0
    7.9466  -13.4307   24.6448 C   0  0  0  0  0  0  0  0  0  0  0  0
    6.7409  -15.6112   24.8452 C   0  0  2  0  0  0  0  0  0  0  0  0
    6.0350  -16.4298   25.8126 N   0  0  0  0  0  0  0  0  0  0  0  0
    7.8432  -16.3709   24.1927 C   0  0  0  0  0  0  0  0  0  0  0  0
    8.4310  -17.2420   24.8633 O   0  0  0  0  0  0  0  0  0  0  0  0
   11.2191  -18.3455   20.6439 N   0  0  0  0  0  0  0  0  0  0  0  0
   10.1665  -17.6461   19.9669 C   0  0  0  0  0  0  0  0  0  0  0  0
   10.2001  -17.7405   18.7132 O   0  0  0  0  0  0  0  0  0  0  0  0
    9.1624  -16.8967   20.7405 C   0  0  0  0  0  0  0  0  0  0  0  0
    9.3338  -16.8925   22.1932 C   0  0  2  0  0  0  0  0  0  0  0  0
    8.2470  -16.1496   22.8652 N   0  0  0  0  0  0  0  0  0  0  0  0
   10.5653  -16.4937   22.8124 C   0  0  0  0  0  0  0  0  0  0  0  0
   10.9162  -15.2677   22.7555 O   0  0  0  0  0  0  0  0  0  0  0  0
   11.4574  -17.3527   23.5052 N   0  0  0  0  0  0  0  0  0  0  0  0
   12.6544  -16.9467   24.1410 C   0  0  1  0  0  0  0  0  0  0  0  0
   12.6072  -15.8193   25.1060 C   0  0  0  0  0  0  0  0  0  0  0  0
   11.7758  -16.0349   26.3105 C   0  0  0  0  0  0  0  0  0  0  0  0
   11.3535  -17.2743   26.8062 C   0  0  0  0  0  0  0  0  0  0  0  0
   10.6417  -17.0701   27.9158 N   0  0  0  0  0  0  0  0  0  0  0  0
   10.5565  -15.7754   28.2001 C   0  0  0  0  0  0  0  0  0  0  0  0
    9.9460  -15.0641   29.2001 C   0  0  0  0  0  0  0  0  0  0  0  0
   10.0143  -13.6934   29.2411 C   0  0  0  0  0  0  0  0  0  0  0  0
   10.7083  -13.0126   28.2610 C   0  0  0  0  0  0  0  0  0  0  0  0
   11.3181  -13.7553   27.2589 C   0  0  0  0  0  0  0  0  0  0  0  0
   11.2631  -15.1286   27.1992 C   0  0  0  0  0  0  0  0  0  0  0  0
   13.4289  -18.1179   24.7069 C   0  0  0  0  0  0  0  0  0  0  0  0
   14.5277  -17.9798   25.2705 O   0  0  0  0  0  0  0  0  0  0  0  0
   12.8677  -19.3703   24.5741 O   0  0  0  0  0  0  0  0  0  0  0  0
  2  3  1  0
  2  1  1  0
  3  4  1  6
  5  6  1  1
  5  3  1  0
  7  5  1  0
  8  7  2  0
  9 10  1  0
 10 12  1  0
 11 10  2  0
 13 12  1  6
 13 15  1  0
 13 14  1  0
 14  7  1  0
 15 16  2  0
 17 18  1  0
 17 15  1  0
 18 29  1  0
 18 19  1  1
 20 19  1  0
 20 28  1  0
 21 20  2  0
 22 21  1  0
 22 23  1  0
 23 24  1  0
 23 28  2  0
 24 25  2  0
 25 26  1  0
 27 26  2  0
 28 27  1  0
 29 30  2  0
 29 31  1  0
M  END
$$$$
