INW.pdb
     RDKit          3D

 31 32  0  0  1  0  0  0  0  0999 V2000
    7.3105  -12.1483   21.1935 C   0  0  0  0  0  0  0  0  0  0  0  0
    7.4789  -13.5289   20.6622 C   0  0  0  0  0  0  0  0  0  0  0  0
    8.8458  -13.8321   20.1385 C   0  0  2  0  0  0  0  0  0  0  0  0
    9.2531  -12.8316   19.0602 C   0  0  0  0  0  0  0  0  0  0  0  0
    9.0653  -15.2414   19.6973 C   0  0  2  0  0  0  0  0  0  0  0  0
    8.2634  -15.4359   18.5044 N   0  0  0  0  0  0  0  0  0  0  0  0
    8.7450  -16.2571   20.7384 C   0  0  0  0  0  0  0  0  0  0  0  0
    7.5469  -16.4357   21.0332 O   0  0  0  0  0  0  0  0  0  0  0  0
   10.5002  -20.0379   19.3982 N   0  0  0  0  0  0  0  0  0  0  0  0
    9.5283  -19.7837   20.4209 C   0  0  0  0  0  0  0  0  0  0  0  0
    8.3339  -19.9122   20.0486 O   0  0  0  0  0  0  0  0  0  0  0  0
    9.9648  -19.4055   21.7755 C   0  0  0  0  0  0  0  0  0  0  0  0
    9.4322  -18.1486   22.3011 C   0  0  2  0  0  0  0  0  0  0  0  0
    9.7263  -17.0157   21.3984 N   0  0  0  0  0  0  0  0  0  0  0  0
    9.7061  -17.7067   23.6385 C   0  0  0  0  0  0  0  0  0  0  0  0
    9.6736  -18.5584   24.5888 O   0  0  0  0  0  0  0  0  0  0  0  0
   10.0217  -16.3771   24.0206 N   0  0  0  0  0  0  0  0  0  0  0  0
   10.3507  -15.9600   25.3319 C   0  0  1  0  0  0  0  0  0  0  0  0
    9.3817  -16.2106   26.4286 C   0  0  0  0  0  0  0  0  0  0  0  0
    8.0363  -15.6224   26.2483 C   0  0  0  0  0  0  0  0  0  0  0  0
    6.8750  -16.3205   25.8959 C   0  0  0  0  0  0  0  0  0  0  0  0
    5.8570  -15.4596   25.8495 N   0  0  0  0  0  0  0  0  0  0  0  0
    6.2558  -14.2281   26.1471 C   0  0  0  0  0  0  0  0  0  0  0  0
    5.6149  -13.0191   26.2279 C   0  0  0  0  0  0  0  0  0  0  0  0
    6.2971  -11.8735   26.5554 C   0  0  0  0  0  0  0  0  0  0  0  0
    7.6528  -11.9323   26.8091 C   0  0  0  0  0  0  0  0  0  0  0  0
    8.2792  -13.1683   26.7210 C   0  0  0  0  0  0  0  0  0  0  0  0
    7.6151  -14.3282   26.3956 C   0  0  0  0  0  0  0  0  0  0  0  0
   11.7494  -16.3783   25.7329 C   0  0  0  0  0  0  0  0  0  0  0  0
   12.0203  -16.7894   26.8738 O   0  0  0  0  0  0  0  0  0  0  0  0
   12.7360  -16.2859   24.7741 O   0  0  0  0  0  0  0  0  0  0  0  0
  2  3  1  0
  2  1  1  0
  3  4  1  6
  5  6  1  6
  5  3  1  0
  7  5  1  0
  8  7  2  0
  9 10  1  0
 10 12  1  0
 11 10  2  0
 13 12  1  6
 13 15  1  0
 13 14  1  0
 14  7  1  0
 15 16  2  0
 17 18  1  0
 17 15  1  0
 18 29  1  0
 18 19  1  1
 20 19  1  0
 20 28  1  0
 21 20  2  0
 22 21  1  0
 22 23  1  0
 23 24  1  0
 23 28  2  0
 24 25  2  0
 25 26  1  0
 27 26  2  0
 28 27  1  0
 29 30  2  0
 29 31  1  0
M  END
$$$$
