INW.pdb
     RDKit          3D

 31 32  0  0  1  0  0  0  0  0999 V2000
    8.0371  -11.8569   20.5956 C   0  0  0  0  0  0  0  0  0  0  0  0
    8.5963  -13.2344   20.5157 C   0  0  0  0  0  0  0  0  0  0  0  0
    7.6151  -14.2815   20.0972 C   0  0  2  0  0  0  0  0  0  0  0  0
    6.3465  -14.2121   20.9430 C   0  0  0  0  0  0  0  0  0  0  0  0
    8.1542  -15.6717   20.0209 C   0  0  2  0  0  0  0  0  0  0  0  0
    7.2533  -16.4234   19.1680 N   0  0  0  0  0  0  0  0  0  0  0  0
    8.3207  -16.3285   21.3471 C   0  0  0  0  0  0  0  0  0  0  0  0
    7.3990  -17.0603   21.7581 O   0  0  0  0  0  0  0  0  0  0  0  0
   12.0002  -19.9402   21.3228 N   0  0  0  0  0  0  0  0  0  0  0  0
   12.3265  -18.5785   21.6306 C   0  0  0  0  0  0  0  0  0  0  0  0
   13.4838  -18.4116   22.0938 O   0  0  0  0  0  0  0  0  0  0  0  0
   11.3372  -17.5126   21.3991 C   0  0  0  0  0  0  0  0  0  0  0  0
   10.4033  -17.2461   22.4930 C   0  0  2  0  0  0  0  0  0  0  0  0
    9.4618  -16.1597   22.1494 N   0  0  0  0  0  0  0  0  0  0  0  0
   10.8519  -17.0091   23.8352 C   0  0  0  0  0  0  0  0  0  0  0  0
   11.6484  -17.8468   24.3768 O   0  0  0  0  0  0  0  0  0  0  0  0
   10.4890  -15.9009   24.6437 N   0  0  0  0  0  0  0  0  0  0  0  0
   10.2121  -15.9567   26.0301 C   0  0  1  0  0  0  0  0  0  0  0  0
    8.8246  -16.2443   26.4734 C   0  0  0  0  0  0  0  0  0  0  0  0
    7.7851  -15.3100   25.9883 C   0  0  0  0  0  0  0  0  0  0  0  0
    6.6536  -15.6564   25.2401 C   0  0  0  0  0  0  0  0  0  0  0  0
    5.9412  -14.5527   25.0079 N   0  0  0  0  0  0  0  0  0  0  0  0
    6.5180  -13.4860   25.5500 C   0  0  0  0  0  0  0  0  0  0  0  0
    6.1988  -12.1536   25.5872 C   0  0  0  0  0  0  0  0  0  0  0  0
    7.0062  -11.2468   26.2282 C   0  0  0  0  0  0  0  0  0  0  0  0
    8.1620  -11.6773   26.8485 C   0  0  0  0  0  0  0  0  0  0  0  0
    8.4635  -13.0316   26.7970 C   0  0  0  0  0  0  0  0  0  0  0  0
    7.6686  -13.9570   26.1614 C   0  0  0  0  0  0  0  0  0  0  0  0
   11.2130  -16.8091   26.7809 C   0  0  0  0  0  0  0  0  0  0  0  0
   11.1926  -16.9264   28.0178 O   0  0  0  0  0  0  0  0  0  0  0  0
   12.1702  -17.4644   26.0356 O   0  0  0  0  0  0  0  0  0  0  0  0
  2  3  1  0
  2  1  1  0
  3  4  1  1
  5  6  1  6
  5  3  1  0
  7  5  1  0
  8  7  2  0
  9 10  1  0
 10 12  1  0
 11 10  2  0
 13 12  1  6
 13 15  1  0
 13 14  1  0
 14  7  1  0
 15 16  2  0
 17 18  1  0
 17 15  1  0
 18 29  1  0
 18 19  1  6
 20 19  1  0
 20 28  1  0
 21 20  2  0
 22 21  1  0
 22 23  1  0
 23 24  1  0
 23 28  2  0
 24 25  2  0
 25 26  1  0
 27 26  2  0
 28 27  1  0
 29 30  2  0
 29 31  1  0
M  END
$$$$
