INW.pdb
     RDKit          3D

 31 32  0  0  1  0  0  0  0  0999 V2000
    8.1984  -12.2882   19.2472 C   0  0  0  0  0  0  0  0  0  0  0  0
    7.1441  -12.9707   20.0469 C   0  0  0  0  0  0  0  0  0  0  0  0
    7.6599  -13.9594   21.0424 C   0  0  2  0  0  0  0  0  0  0  0  0
    8.5537  -13.2797   22.0762 C   0  0  0  0  0  0  0  0  0  0  0  0
    8.3075  -15.1737   20.4636 C   0  0  2  0  0  0  0  0  0  0  0  0
    7.3866  -15.7099   19.4795 N   0  0  0  0  0  0  0  0  0  0  0  0
    8.6787  -16.2009   21.4761 C   0  0  0  0  0  0  0  0  0  0  0  0
    7.7602  -16.8385   22.0273 O   0  0  0  0  0  0  0  0  0  0  0  0
   12.8230  -17.4326   20.3902 N   0  0  0  0  0  0  0  0  0  0  0  0
   12.6730  -17.6544   21.7986 C   0  0  0  0  0  0  0  0  0  0  0  0
   13.6186  -17.2118   22.4998 O   0  0  0  0  0  0  0  0  0  0  0  0
   11.4827  -18.3526   22.3125 C   0  0  0  0  0  0  0  0  0  0  0  0
   10.4040  -17.5062   22.8220 C   0  0  2  0  0  0  0  0  0  0  0  0
   10.0083  -16.4795   21.8350 N   0  0  0  0  0  0  0  0  0  0  0  0
   10.4855  -16.8569   24.0990 C   0  0  0  0  0  0  0  0  0  0  0  0
   11.2397  -15.8346   24.2247 O   0  0  0  0  0  0  0  0  0  0  0  0
    9.7876  -17.2486   25.2708 N   0  0  0  0  0  0  0  0  0  0  0  0
   10.0897  -16.8181   26.5842 C   0  0  1  0  0  0  0  0  0  0  0  0
    9.0086  -16.2248   27.4111 C   0  0  0  0  0  0  0  0  0  0  0  0
    7.9245  -15.5472   26.6667 C   0  0  0  0  0  0  0  0  0  0  0  0
    6.8886  -16.1786   25.9678 C   0  0  0  0  0  0  0  0  0  0  0  0
    6.0947  -15.2431   25.4444 N   0  0  0  0  0  0  0  0  0  0  0  0
    6.5272  -14.0236   25.7444 C   0  0  0  0  0  0  0  0  0  0  0  0
    6.0823  -12.7617   25.4472 C   0  0  0  0  0  0  0  0  0  0  0  0
    6.7516  -11.6487   25.8926 C   0  0  0  0  0  0  0  0  0  0  0  0
    7.8939  -11.7953   26.6538 C   0  0  0  0  0  0  0  0  0  0  0  0
    8.3244  -13.0835   26.9415 C   0  0  0  0  0  0  0  0  0  0  0  0
    7.6688  -14.2119   26.5064 C   0  0  0  0  0  0  0  0  0  0  0  0
   10.8658  -17.8578   27.3643 C   0  0  0  0  0  0  0  0  0  0  0  0
   11.0306  -19.0169   26.9480 O   0  0  0  0  0  0  0  0  0  0  0  0
   11.3945  -17.4728   28.5782 O   0  0  0  0  0  0  0  0  0  0  0  0
  2  3  1  0
  2  1  1  0
  3  4  1  1
  5  6  1  6
  5  3  1  0
  7  5  1  0
  8  7  2  0
  9 10  1  0
 10 12  1  0
 11 10  2  0
 13 12  1  6
 13 15  1  0
 13 14  1  0
 14  7  1  0
 15 16  2  0
 17 18  1  0
 17 15  1  0
 18 29  1  0
 18 19  1  1
 20 19  1  0
 20 28  1  0
 21 20  2  0
 22 21  1  0
 22 23  1  0
 23 24  1  0
 23 28  2  0
 24 25  2  0
 25 26  1  0
 27 26  2  0
 28 27  1  0
 29 30  2  0
 29 31  1  0
M  END
$$$$
