INW.pdb
     RDKit          3D

 31 32  0  0  1  0  0  0  0  0999 V2000
    7.3904  -11.6651   20.0514 C   0  0  0  0  0  0  0  0  0  0  0  0
    7.5016  -13.0735   19.5816 C   0  0  0  0  0  0  0  0  0  0  0  0
    7.9286  -14.0482   20.6315 C   0  0  2  0  0  0  0  0  0  0  0  0
    9.2145  -13.5892   21.3138 C   0  0  0  0  0  0  0  0  0  0  0  0
    8.0146  -15.4713   20.1884 C   0  0  2  0  0  0  0  0  0  0  0  0
    6.6944  -15.8426   19.7157 N   0  0  0  0  0  0  0  0  0  0  0  0
    8.4954  -16.4047   21.2446 C   0  0  0  0  0  0  0  0  0  0  0  0
    7.6665  -16.8272   22.0744 O   0  0  0  0  0  0  0  0  0  0  0  0
   13.4991  -19.3394   23.1280 N   0  0  0  0  0  0  0  0  0  0  0  0
   12.0819  -19.4239   22.9288 C   0  0  0  0  0  0  0  0  0  0  0  0
   11.5012  -20.2634   23.6634 O   0  0  0  0  0  0  0  0  0  0  0  0
   11.4257  -18.5676   21.9264 C   0  0  0  0  0  0  0  0  0  0  0  0
   10.3448  -17.7108   22.4134 C   0  0  2  0  0  0  0  0  0  0  0  0
    9.8321  -16.8257   21.3463 N   0  0  0  0  0  0  0  0  0  0  0  0
   10.4827  -16.9113   23.5969 C   0  0  0  0  0  0  0  0  0  0  0  0
   11.3263  -15.9533   23.6000 O   0  0  0  0  0  0  0  0  0  0  0  0
    9.7500  -17.0836   24.7999 N   0  0  0  0  0  0  0  0  0  0  0  0
   10.1913  -16.6983   26.0878 C   0  0  1  0  0  0  0  0  0  0  0  0
    9.6618  -15.4451   26.6823 C   0  0  0  0  0  0  0  0  0  0  0  0
    8.2752  -15.0891   26.3091 C   0  0  0  0  0  0  0  0  0  0  0  0
    7.2432  -15.9918   26.0259 C   0  0  0  0  0  0  0  0  0  0  0  0
    6.1353  -15.3011   25.7519 N   0  0  0  0  0  0  0  0  0  0  0  0
    6.3529  -13.9931   25.8317 C   0  0  0  0  0  0  0  0  0  0  0  0
    5.5641  -12.8888   25.6389 C   0  0  0  0  0  0  0  0  0  0  0  0
    6.0698  -11.6204   25.7821 C   0  0  0  0  0  0  0  0  0  0  0  0
    7.3953  -11.4462   26.1261 C   0  0  0  0  0  0  0  0  0  0  0  0
    8.1737  -12.5801   26.3161 C   0  0  0  0  0  0  0  0  0  0  0  0
    7.6875  -13.8596   26.1788 C   0  0  0  0  0  0  0  0  0  0  0  0
   10.1327  -17.8406   27.0796 C   0  0  0  0  0  0  0  0  0  0  0  0
    9.5107  -18.8914   26.8493 O   0  0  0  0  0  0  0  0  0  0  0  0
   10.8031  -17.6763   28.2733 O   0  0  0  0  0  0  0  0  0  0  0  0
  2  3  1  0
  2  1  1  0
  3  4  1  6
  5  6  1  1
  5  3  1  0
  7  5  1  0
  8  7  2  0
  9 10  1  0
 10 12  1  0
 11 10  2  0
 13 12  1  6
 13 15  1  0
 13 14  1  0
 14  7  1  0
 15 16  2  0
 17 18  1  0
 17 15  1  0
 18 29  1  0
 18 19  1  1
 20 19  1  0
 20 28  1  0
 21 20  2  0
 22 21  1  0
 22 23  1  0
 23 24  1  0
 23 28  2  0
 24 25  2  0
 25 26  1  0
 27 26  2  0
 28 27  1  0
 29 30  2  0
 29 31  1  0
M  END
$$$$
