RLW.pdb
     RDKit          3D

 34 35  0  0  1  0  0  0  0  0999 V2000
    7.1062  -13.4570   13.3239 N   0  0  0  0  0  0  0  0  0  0  0  0
    7.9045  -13.7540   14.5087 C   0  0  0  0  0  0  0  0  0  0  0  0
    8.9222  -14.5052   14.4137 N   0  0  0  0  0  0  0  0  0  0  0  0
    7.5181  -13.1948   15.7522 N   0  0  0  0  0  0  0  0  0  0  0  0
    8.1298  -13.4706   17.0024 C   0  0  0  0  0  0  0  0  0  0  0  0
    7.8255  -14.7528   17.6831 C   0  0  0  0  0  0  0  0  0  0  0  0
    7.5708  -14.5371   19.1855 C   0  0  0  0  0  0  0  0  0  0  0  0
    8.0196  -15.7015   20.0007 C   0  0  2  0  0  0  0  0  0  0  0  0
    6.8867  -16.5520   20.2795 N   0  0  0  0  0  0  0  0  0  0  0  0
    8.5560  -15.2332   21.3368 C   0  0  0  0  0  0  0  0  0  0  0  0
    9.7210  -14.8358   21.3997 O   0  0  0  0  0  0  0  0  0  0  0  0
    9.3293  -14.8448   13.5607 C   0  0  0  0  0  0  0  0  0  0  0  0
    5.5395  -14.1189   26.5467 C   0  0  1  0  0  0  0  0  0  0  0  0
    6.9221  -13.8884   25.9097 C   0  0  0  0  0  0  0  0  0  0  0  0
    7.1904  -12.3932   25.8912 C   0  0  0  0  0  0  0  0  0  0  0  0
    6.8419  -14.4794   24.5373 C   0  0  2  0  0  0  0  0  0  0  0  0
    8.1026  -14.6044   23.7623 N   0  0  0  0  0  0  0  0  0  0  0  0
    7.7268  -15.2591   22.4764 C   0  0  0  0  0  0  0  0  0  0  0  0
    9.2235  -15.3015   24.3630 O   0  0  0  0  0  0  0  0  0  0  0  0
    9.9782  -14.6413   25.1781 N   0  0  0  0  0  0  0  0  0  0  0  0
    9.5365  -16.6432   24.1194 C   0  0  1  0  0  0  0  0  0  0  0  0
   10.7624  -17.3068   24.5849 C   0  0  0  0  0  0  0  0  0  0  0  0
   11.5854  -16.3896   25.3972 C   0  0  0  0  0  0  0  0  0  0  0  0
   11.2137  -16.3420   26.8116 C   0  0  0  0  0  0  0  0  0  0  0  0
   10.9816  -17.4286   27.6635 N   0  0  0  0  0  0  0  0  0  0  0  0
   10.6256  -17.0023   28.8813 C   0  0  0  0  0  0  0  0  0  0  0  0
   10.6088  -15.6462   28.8850 C   0  0  0  0  0  0  0  0  0  0  0  0
   10.3407  -14.6974   29.8457 C   0  0  0  0  0  0  0  0  0  0  0  0
   10.4244  -13.3440   29.5761 C   0  0  0  0  0  0  0  0  0  0  0  0
   10.7845  -12.9327   28.3163 C   0  0  0  0  0  0  0  0  0  0  0  0
   11.0524  -13.8715   27.3533 C   0  0  0  0  0  0  0  0  0  0  0  0
   10.9735  -15.2342   27.6027 C   0  0  0  0  0  0  0  0  0  0  0  0
   10.3828  -18.5241   25.2821 O   0  0  0  0  0  0  0  0  0  0  0  0
   11.2736  -19.5041   25.7400 O   0  0  0  0  0  0  0  0  0  0  0  0
  1  2  1  0
  2  3  2  0
  4  2  1  0
  5  4  1  0
  6  5  1  0
  7  6  1  0
  8  7  1  0
  8  9  1  1
 10 11  2  0
 10  8  1  0
 13 12  1  1
 13 15  1  0
 14 13  1  0
 16 15  1  6
 16 17  1  0
 17 10  1  0
 18 19  2  0
 18 16  1  0
 20 18  1  0
 21 20  1  0
 21 22  1  6
 22 23  1  0
 23 31  1  0
 23 24  2  0
 24 25  1  0
 25 26  1  0
 26 27  2  0
 28 27  1  0
 29 28  2  0
 30 31  2  0
 30 29  1  0
 31 26  1  0
 32 21  1  0
 33 32  1  0
 34 32  2  0
M  END
$$$$
