RLW.pdb
     RDKit          3D

 34 35  0  0  1  0  0  0  0  0999 V2000
    8.5722  -16.2612   15.8768 N   0  0  0  0  0  0  0  0  0  0  0  0
    7.8260  -17.5149   15.8478 C   0  0  0  0  0  0  0  0  0  0  0  0
    6.5768  -17.5026   15.6279 N   0  0  0  0  0  0  0  0  0  0  0  0
    8.5200  -18.7298   16.0732 N   0  0  0  0  0  0  0  0  0  0  0  0
    9.8570  -18.8384   16.5359 C   0  0  0  0  0  0  0  0  0  0  0  0
   10.1011  -19.3049   17.9225 C   0  0  0  0  0  0  0  0  0  0  0  0
   10.7793  -18.2101   18.7653 C   0  0  0  0  0  0  0  0  0  0  0  0
   10.4083  -18.3045   20.2058 C   0  0  2  0  0  0  0  0  0  0  0  0
    9.0123  -18.6560   20.3156 N   0  0  0  0  0  0  0  0  0  0  0  0
   10.5768  -16.9603   20.8818 C   0  0  0  0  0  0  0  0  0  0  0  0
   11.7060  -16.4715   20.9526 O   0  0  0  0  0  0  0  0  0  0  0  0
    5.9792  -18.3073   15.5653 C   0  0  0  0  0  0  0  0  0  0  0  0
    9.1317  -13.2607   19.6576 C   0  0  2  0  0  0  0  0  0  0  0  0
    8.0340  -14.1362   20.2893 C   0  0  0  0  0  0  0  0  0  0  0  0
    6.6918  -13.4760   20.0232 C   0  0  0  0  0  0  0  0  0  0  0  0
    8.3628  -14.2128   21.7471 C   0  0  2  0  0  0  0  0  0  0  0  0
    9.5569  -15.0000   22.1472 N   0  0  0  0  0  0  0  0  0  0  0  0
    9.4544  -16.2953   21.4157 C   0  0  0  0  0  0  0  0  0  0  0  0
    9.7890  -15.2457   23.5575 O   0  0  0  0  0  0  0  0  0  0  0  0
   10.0618  -14.2313   24.3101 N   0  0  0  0  0  0  0  0  0  0  0  0
    9.7321  -16.5096   24.1549 C   0  0  1  0  0  0  0  0  0  0  0  0
    9.7116  -16.7411   25.6060 C   0  0  0  0  0  0  0  0  0  0  0  0
    8.4422  -16.2766   26.1986 C   0  0  0  0  0  0  0  0  0  0  0  0
    8.4994  -14.9263   26.7592 C   0  0  0  0  0  0  0  0  0  0  0  0
    9.4473  -14.4215   27.6574 N   0  0  0  0  0  0  0  0  0  0  0  0
    9.1605  -13.1544   27.9795 C   0  0  0  0  0  0  0  0  0  0  0  0
    8.0363  -12.7771   27.3213 C   0  0  0  0  0  0  0  0  0  0  0  0
    7.3126  -11.6077   27.2605 C   0  0  0  0  0  0  0  0  0  0  0  0
    6.1871  -11.4881   26.4664 C   0  0  0  0  0  0  0  0  0  0  0  0
    5.7782  -12.5639   25.7172 C   0  0  0  0  0  0  0  0  0  0  0  0
    6.4931  -13.7327   25.7728 C   0  0  0  0  0  0  0  0  0  0  0  0
    7.6245  -13.8741   26.5635 C   0  0  0  0  0  0  0  0  0  0  0  0
    9.9880  -18.1477   25.8452 O   0  0  0  0  0  0  0  0  0  0  0  0
   10.3903  -18.6950   27.0707 O   0  0  0  0  0  0  0  0  0  0  0  0
  1  2  1  0
  2  3  2  0
  4  2  1  0
  5  4  1  0
  6  5  1  0
  7  6  1  0
  8  7  1  0
  8  9  1  6
 10 11  2  0
 10  8  1  0
 13 12  1  6
 13 15  1  0
 14 13  1  0
 16 15  1  6
 16 17  1  0
 17 10  1  0
 18 19  2  0
 18 16  1  0
 20 18  1  0
 21 20  1  0
 21 22  1  1
 22 23  1  0
 23 31  1  0
 23 24  2  0
 24 25  1  0
 25 26  1  0
 26 27  2  0
 28 27  1  0
 29 28  2  0
 30 31  2  0
 30 29  1  0
 31 26  1  0
 32 21  1  0
 33 32  1  0
 34 32  2  0
M  END
$$$$
