RLW.pdb
     RDKit          3D

 34 35  0  0  1  0  0  0  0  0999 V2000
   15.6267  -17.2280   16.9709 N   0  0  0  0  0  0  0  0  0  0  0  0
   15.5924  -18.6867   16.9472 C   0  0  0  0  0  0  0  0  0  0  0  0
   16.5579  -19.3501   17.4339 N   0  0  0  0  0  0  0  0  0  0  0  0
   14.4722  -19.3357   16.3706 N   0  0  0  0  0  0  0  0  0  0  0  0
   13.3477  -18.6834   15.8021 C   0  0  0  0  0  0  0  0  0  0  0  0
   12.0431  -18.7593   16.5036 C   0  0  0  0  0  0  0  0  0  0  0  0
   11.9953  -17.7851   17.6941 C   0  0  0  0  0  0  0  0  0  0  0  0
   10.6888  -17.8413   18.4094 C   0  0  2  0  0  0  0  0  0  0  0  0
    9.6308  -17.4775   17.4970 N   0  0  0  0  0  0  0  0  0  0  0  0
   10.6623  -16.8316   19.5371 C   0  0  0  0  0  0  0  0  0  0  0  0
   11.7298  -16.3601   19.9337 O   0  0  0  0  0  0  0  0  0  0  0  0
   16.6726  -20.3468   17.3895 C   0  0  0  0  0  0  0  0  0  0  0  0
    8.7434  -12.9359   19.6639 C   0  0  2  0  0  0  0  0  0  0  0  0
    7.7568  -14.1154   19.7426 C   0  0  0  0  0  0  0  0  0  0  0  0
    6.3465  -13.5588   19.6458 C   0  0  0  0  0  0  0  0  0  0  0  0
    8.0264  -14.7850   21.0534 C   0  0  2  0  0  0  0  0  0  0  0  0
    9.3350  -15.4654   21.2271 N   0  0  0  0  0  0  0  0  0  0  0  0
    9.4330  -16.4504   20.1120 C   0  0  0  0  0  0  0  0  0  0  0  0
    9.6182  -16.1189   22.4903 O   0  0  0  0  0  0  0  0  0  0  0  0
    9.9778  -17.3598   22.4608 N   0  0  0  0  0  0  0  0  0  0  0  0
    9.5310  -15.4906   23.7374 C   0  0  2  0  0  0  0  0  0  0  0  0
    9.8945  -16.1239   25.0128 C   0  0  0  0  0  0  0  0  0  0  0  0
    9.6470  -15.2119   26.1464 C   0  0  0  0  0  0  0  0  0  0  0  0
    8.2747  -14.7104   26.2256 C   0  0  0  0  0  0  0  0  0  0  0  0
    7.0938  -15.4439   26.0589 N   0  0  0  0  0  0  0  0  0  0  0  0
    6.0258  -14.6442   26.1647 C   0  0  0  0  0  0  0  0  0  0  0  0
    6.4470  -13.3770   26.4013 C   0  0  0  0  0  0  0  0  0  0  0  0
    5.8010  -12.1795   26.6101 C   0  0  0  0  0  0  0  0  0  0  0  0
    6.4961  -11.0106   26.8594 C   0  0  0  0  0  0  0  0  0  0  0  0
    7.8684  -11.0428   26.9003 C   0  0  0  0  0  0  0  0  0  0  0  0
    8.5197  -12.2315   26.6924 C   0  0  0  0  0  0  0  0  0  0  0  0
    7.8414  -13.4154   26.4398 C   0  0  0  0  0  0  0  0  0  0  0  0
    9.1816  -17.3865   25.1120 O   0  0  0  0  0  0  0  0  0  0  0  0
    9.5454  -18.4568   25.9399 O   0  0  0  0  0  0  0  0  0  0  0  0
  1  2  1  0
  2  3  2  0
  4  2  1  0
  5  4  1  0
  6  5  1  0
  7  6  1  0
  8  7  1  0
  8  9  1  6
 10 11  2  0
 10  8  1  0
 13 12  1  6
 13 15  1  0
 14 13  1  0
 16 15  1  6
 16 17  1  0
 17 10  1  0
 18 19  2  0
 18 16  1  0
 20 18  1  0
 21 20  1  0
 21 22  1  6
 22 23  1  0
 23 31  1  0
 23 24  2  0
 24 25  1  0
 25 26  1  0
 26 27  2  0
 28 27  1  0
 29 28  2  0
 30 31  2  0
 30 29  1  0
 31 26  1  0
 32 21  1  0
 33 32  1  0
 34 32  2  0
M  END
$$$$
