RLW.pdb
     RDKit          3D

 34 35  0  0  1  0  0  0  0  0999 V2000
   13.6940  -18.3716   16.7558 N   0  0  0  0  0  0  0  0  0  0  0  0
   13.2941  -18.7726   15.4110 C   0  0  0  0  0  0  0  0  0  0  0  0
   14.1782  -19.0389   14.5411 N   0  0  0  0  0  0  0  0  0  0  0  0
   11.9132  -18.8516   15.1026 N   0  0  0  0  0  0  0  0  0  0  0  0
   10.8560  -18.4461   15.9577 C   0  0  0  0  0  0  0  0  0  0  0  0
   10.9584  -18.7299   17.4100 C   0  0  0  0  0  0  0  0  0  0  0  0
    9.8248  -18.0422   18.1913 C   0  0  0  0  0  0  0  0  0  0  0  0
    9.9910  -18.1931   19.6649 C   0  0  2  0  0  0  0  0  0  0  0  0
    8.7912  -18.7714   20.2223 N   0  0  0  0  0  0  0  0  0  0  0  0
   10.1683  -16.8378   20.3161 C   0  0  0  0  0  0  0  0  0  0  0  0
   11.1641  -16.1703   20.0301 O   0  0  0  0  0  0  0  0  0  0  0  0
   14.0108  -19.3967   13.6178 C   0  0  0  0  0  0  0  0  0  0  0  0
    8.5633  -13.1128   19.6378 C   0  0  2  0  0  0  0  0  0  0  0  0
    7.5995  -14.1594   20.2262 C   0  0  0  0  0  0  0  0  0  0  0  0
    6.1842  -13.6217   20.1004 C   0  0  0  0  0  0  0  0  0  0  0  0
    8.0228  -14.3484   21.6490 C   0  0  2  0  0  0  0  0  0  0  0  0
    9.3139  -15.0377   21.9016 N   0  0  0  0  0  0  0  0  0  0  0  0
    9.2051  -16.3646   21.2300 C   0  0  0  0  0  0  0  0  0  0  0  0
    9.7542  -15.2119   23.2722 O   0  0  0  0  0  0  0  0  0  0  0  0
   10.3858  -14.2336   23.8324 N   0  0  0  0  0  0  0  0  0  0  0  0
    9.5350  -16.3694   24.0272 C   0  0  1  0  0  0  0  0  0  0  0  0
   10.1641  -16.6438   25.3267 C   0  0  0  0  0  0  0  0  0  0  0  0
    9.7068  -15.6834   26.3498 C   0  0  0  0  0  0  0  0  0  0  0  0
    8.3373  -15.2061   26.1564 C   0  0  0  0  0  0  0  0  0  0  0  0
    7.2045  -15.9766   25.8678 N   0  0  0  0  0  0  0  0  0  0  0  0
    6.1288  -15.1935   25.7224 C   0  0  0  0  0  0  0  0  0  0  0  0
    6.4977  -13.9014   25.9057 C   0  0  0  0  0  0  0  0  0  0  0  0
    5.8188  -12.7039   25.8936 C   0  0  0  0  0  0  0  0  0  0  0  0
    6.4563  -11.5026   26.1433 C   0  0  0  0  0  0  0  0  0  0  0  0
    7.8032  -11.5018   26.4109 C   0  0  0  0  0  0  0  0  0  0  0  0
    8.4870  -12.6903   26.4240 C   0  0  0  0  0  0  0  0  0  0  0  0
    7.8668  -13.9065   26.1753 C   0  0  0  0  0  0  0  0  0  0  0  0
    9.9065  -18.0319   25.6716 O   0  0  0  0  0  0  0  0  0  0  0  0
   10.4527  -18.7056   26.7721 O   0  0  0  0  0  0  0  0  0  0  0  0
  1  2  1  0
  2  3  2  0
  4  2  1  0
  5  4  1  0
  6  5  1  0
  7  6  1  0
  8  7  1  0
  8  9  1  1
 10 11  2  0
 10  8  1  0
 13 12  1  6
 13 15  1  0
 14 13  1  0
 16 15  1  6
 16 17  1  0
 17 10  1  0
 18 19  2  0
 18 16  1  0
 20 18  1  0
 21 20  1  0
 21 22  1  1
 22 23  1  0
 23 31  1  0
 23 24  2  0
 24 25  1  0
 25 26  1  0
 26 27  2  0
 28 27  1  0
 29 28  2  0
 30 31  2  0
 30 29  1  0
 31 26  1  0
 32 21  1  0
 33 32  1  0
 34 32  2  0
M  END
$$$$
