RLW.pdb
     RDKit          3D

 34 35  0  0  1  0  0  0  0  0999 V2000
   11.9247  -16.0870   15.0146 N   0  0  0  0  0  0  0  0  0  0  0  0
   10.7409  -16.7445   14.4709 C   0  0  0  0  0  0  0  0  0  0  0  0
    9.9134  -16.0822   13.7740 N   0  0  0  0  0  0  0  0  0  0  0  0
   10.5378  -18.1209   14.7407 N   0  0  0  0  0  0  0  0  0  0  0  0
   10.9601  -18.7991   15.9133 C   0  0  0  0  0  0  0  0  0  0  0  0
   10.1384  -18.6866   17.1430 C   0  0  0  0  0  0  0  0  0  0  0  0
   10.6835  -17.5912   18.0766 C   0  0  0  0  0  0  0  0  0  0  0  0
   10.4000  -17.8872   19.5097 C   0  0  2  0  0  0  0  0  0  0  0  0
    9.0758  -18.4507   19.6263 N   0  0  0  0  0  0  0  0  0  0  0  0
   10.4064  -16.6098   20.3223 C   0  0  0  0  0  0  0  0  0  0  0  0
   11.4546  -15.9667   20.4045 O   0  0  0  0  0  0  0  0  0  0  0  0
    9.0775  -16.4412   13.3486 C   0  0  0  0  0  0  0  0  0  0  0  0
    8.1934  -13.0956   19.3489 C   0  0  2  0  0  0  0  0  0  0  0  0
    7.3541  -14.2454   19.9355 C   0  0  0  0  0  0  0  0  0  0  0  0
    5.8861  -13.8921   19.7673 C   0  0  0  0  0  0  0  0  0  0  0  0
    7.7623  -14.3564   21.3708 C   0  0  2  0  0  0  0  0  0  0  0  0
    9.1256  -14.8664   21.6656 N   0  0  0  0  0  0  0  0  0  0  0  0
    9.2289  -16.1796   20.9668 C   0  0  0  0  0  0  0  0  0  0  0  0
    9.5316  -15.0100   23.0504 O   0  0  0  0  0  0  0  0  0  0  0  0
   10.0688  -13.9881   23.6310 N   0  0  0  0  0  0  0  0  0  0  0  0
    9.3746  -16.1821   23.7980 C   0  0  1  0  0  0  0  0  0  0  0  0
    9.8479  -16.3552   25.1785 C   0  0  0  0  0  0  0  0  0  0  0  0
    8.7310  -16.6901   26.0832 C   0  0  0  0  0  0  0  0  0  0  0  0
    7.5856  -15.7848   25.9846 C   0  0  0  0  0  0  0  0  0  0  0  0
    6.2902  -16.1011   25.5580 N   0  0  0  0  0  0  0  0  0  0  0  0
    5.5148  -15.0102   25.5636 C   0  0  0  0  0  0  0  0  0  0  0  0
    6.2491  -13.9510   25.9855 C   0  0  0  0  0  0  0  0  0  0  0  0
    5.9698  -12.6200   26.1992 C   0  0  0  0  0  0  0  0  0  0  0  0
    6.9280  -11.7410   26.6690 C   0  0  0  0  0  0  0  0  0  0  0  0
    8.1935  -12.2060   26.9303 C   0  0  0  0  0  0  0  0  0  0  0  0
    8.4801  -13.5303   26.7193 C   0  0  0  0  0  0  0  0  0  0  0  0
    7.5338  -14.4288   26.2476 C   0  0  0  0  0  0  0  0  0  0  0  0
   10.9121  -17.3449   25.1728 O   0  0  0  0  0  0  0  0  0  0  0  0
   11.6992  -17.6913   26.2791 O   0  0  0  0  0  0  0  0  0  0  0  0
  1  2  1  0
  2  3  2  0
  4  2  1  0
  5  4  1  0
  6  5  1  0
  7  6  1  0
  8  7  1  0
  8  9  1  6
 10 11  2  0
 10  8  1  0
 13 12  1  6
 13 15  1  0
 14 13  1  0
 16 15  1  6
 16 17  1  0
 17 10  1  0
 18 19  2  0
 18 16  1  0
 20 18  1  0
 21 20  1  0
 21 22  1  1
 22 23  1  0
 23 31  1  0
 23 24  2  0
 24 25  1  0
 25 26  1  0
 26 27  2  0
 28 27  1  0
 29 28  2  0
 30 31  2  0
 30 29  1  0
 31 26  1  0
 32 21  1  0
 33 32  1  0
 34 32  2  0
M  END
$$$$
