RLW.pdb
     RDKit          3D

 34 35  0  0  1  0  0  0  0  0999 V2000
   11.5775  -16.4803   15.1369 N   0  0  0  0  0  0  0  0  0  0  0  0
   10.5836  -17.0610   14.2400 C   0  0  0  0  0  0  0  0  0  0  0  0
   10.8347  -17.1670   13.0012 N   0  0  0  0  0  0  0  0  0  0  0  0
    9.3458  -17.4932   14.7781 N   0  0  0  0  0  0  0  0  0  0  0  0
    9.0019  -17.4879   16.1547 C   0  0  0  0  0  0  0  0  0  0  0  0
    9.6348  -18.4810   17.0565 C   0  0  0  0  0  0  0  0  0  0  0  0
   10.7241  -17.8272   17.9251 C   0  0  0  0  0  0  0  0  0  0  0  0
   10.4376  -17.9699   19.3810 C   0  0  2  0  0  0  0  0  0  0  0  0
    9.0090  -18.0291   19.5812 N   0  0  0  0  0  0  0  0  0  0  0  0
   10.9368  -16.7569   20.1370 C   0  0  0  0  0  0  0  0  0  0  0  0
   11.8359  -16.0778   19.6376 O   0  0  0  0  0  0  0  0  0  0  0  0
   10.2212  -17.5490   12.3038 C   0  0  0  0  0  0  0  0  0  0  0  0
    6.9097  -13.6017   19.9168 C   0  0  1  0  0  0  0  0  0  0  0  0
    8.2184  -13.3958   20.7013 C   0  0  0  0  0  0  0  0  0  0  0  0
    8.9649  -12.2293   20.0767 C   0  0  0  0  0  0  0  0  0  0  0  0
    8.9664  -14.6872   20.5920 C   0  0  2  0  0  0  0  0  0  0  0  0
    9.8722  -15.0594   21.7084 N   0  0  0  0  0  0  0  0  0  0  0  0
   10.3748  -16.4259   21.3866 C   0  0  0  0  0  0  0  0  0  0  0  0
    9.3570  -15.0286   23.0636 O   0  0  0  0  0  0  0  0  0  0  0  0
    8.9314  -13.8979   23.5221 N   0  0  0  0  0  0  0  0  0  0  0  0
    9.2876  -16.1453   23.9038 C   0  0  1  0  0  0  0  0  0  0  0  0
   10.1236  -16.3390   25.0969 C   0  0  0  0  0  0  0  0  0  0  0  0
    9.3907  -15.9679   26.3230 C   0  0  0  0  0  0  0  0  0  0  0  0
    8.0551  -15.4209   26.0824 C   0  0  0  0  0  0  0  0  0  0  0  0
    6.9377  -16.1022   25.5848 N   0  0  0  0  0  0  0  0  0  0  0  0
    5.8967  -15.2698   25.4625 C   0  0  0  0  0  0  0  0  0  0  0  0
    6.2742  -14.0313   25.8660 C   0  0  0  0  0  0  0  0  0  0  0  0
    5.6247  -12.8221   25.9710 C   0  0  0  0  0  0  0  0  0  0  0  0
    6.2616  -11.6924   26.4503 C   0  0  0  0  0  0  0  0  0  0  0  0
    7.5779  -11.7766   26.8325 C   0  0  0  0  0  0  0  0  0  0  0  0
    8.2324  -12.9772   26.7303 C   0  0  0  0  0  0  0  0  0  0  0  0
    7.6123  -14.1224   26.2513 C   0  0  0  0  0  0  0  0  0  0  0  0
   10.6047  -17.7104   25.0961 O   0  0  0  0  0  0  0  0  0  0  0  0
   11.5833  -18.2236   25.9577 O   0  0  0  0  0  0  0  0  0  0  0  0
  1  2  1  0
  2  3  2  0
  4  2  1  0
  5  4  1  0
  6  5  1  0
  7  6  1  0
  8  7  1  0
  8  9  1  6
 10 11  2  0
 10  8  1  0
 13 12  1  1
 13 15  1  0
 14 13  1  0
 16 15  1  6
 16 17  1  0
 17 10  1  0
 18 19  2  0
 18 16  1  0
 20 18  1  0
 21 20  1  0
 21 22  1  1
 22 23  1  0
 23 31  1  0
 23 24  2  0
 24 25  1  0
 25 26  1  0
 26 27  2  0
 28 27  1  0
 29 28  2  0
 30 31  2  0
 30 29  1  0
 31 26  1  0
 32 21  1  0
 33 32  1  0
 34 32  2  0
M  END
$$$$
