RLW.pdb
     RDKit          3D

 34 35  0  0  1  0  0  0  0  0999 V2000
    9.6644  -14.4193   17.8064 N   0  0  0  0  0  0  0  0  0  0  0  0
    8.7482  -13.3630   17.3893 C   0  0  0  0  0  0  0  0  0  0  0  0
    8.6900  -13.0214   16.1691 N   0  0  0  0  0  0  0  0  0  0  0  0
    7.9394  -12.7328   18.3677 N   0  0  0  0  0  0  0  0  0  0  0  0
    7.7923  -13.1617   19.7122 C   0  0  0  0  0  0  0  0  0  0  0  0
    7.2832  -14.5292   19.9779 C   0  0  0  0  0  0  0  0  0  0  0  0
    6.9221  -14.7084   21.4631 C   0  0  0  0  0  0  0  0  0  0  0  0
    7.6890  -15.8201   22.0939 C   0  0  2  0  0  0  0  0  0  0  0  0
    6.7794  -16.8833   22.4503 N   0  0  0  0  0  0  0  0  0  0  0  0
    8.3382  -15.3493   23.3780 C   0  0  0  0  0  0  0  0  0  0  0  0
    9.4005  -14.7280   23.3101 O   0  0  0  0  0  0  0  0  0  0  0  0
    8.1196  -12.2887   15.7864 C   0  0  0  0  0  0  0  0  0  0  0  0
    7.8176  -12.0069   25.9020 C   0  0  2  0  0  0  0  0  0  0  0  0
    6.6618  -13.0022   25.6918 C   0  0  0  0  0  0  0  0  0  0  0  0
    5.3912  -12.3725   26.2370 C   0  0  0  0  0  0  0  0  0  0  0  0
    7.0548  -14.2441   26.4282 C   0  0  2  0  0  0  0  0  0  0  0  0
    8.1998  -15.0291   25.9004 N   0  0  0  0  0  0  0  0  0  0  0  0
    7.7276  -15.6258   24.6180 C   0  0  0  0  0  0  0  0  0  0  0  0
    8.7846  -16.0578   26.7387 O   0  0  0  0  0  0  0  0  0  0  0  0
    9.0408  -15.7600   27.9698 N   0  0  0  0  0  0  0  0  0  0  0  0
    9.0849  -17.3522   26.3005 C   0  0  2  0  0  0  0  0  0  0  0  0
    9.5840  -18.4273   27.1693 C   0  0  0  0  0  0  0  0  0  0  0  0
   10.5230  -17.8998   28.1784 C   0  0  0  0  0  0  0  0  0  0  0  0
   11.7674  -17.3686   27.6215 C   0  0  0  0  0  0  0  0  0  0  0  0
   11.9242  -16.6542   26.4276 N   0  0  0  0  0  0  0  0  0  0  0  0
   13.2139  -16.3615   26.2218 C   0  0  0  0  0  0  0  0  0  0  0  0
   13.9469  -16.8585   27.2489 C   0  0  0  0  0  0  0  0  0  0  0  0
   15.2871  -16.8382   27.5628 C   0  0  0  0  0  0  0  0  0  0  0  0
   15.7731  -17.4193   28.7194 C   0  0  0  0  0  0  0  0  0  0  0  0
   14.8969  -18.0341   29.5798 C   0  0  0  0  0  0  0  0  0  0  0  0
   13.5604  -18.0594   29.2740 C   0  0  0  0  0  0  0  0  0  0  0  0
   13.0522  -17.4833   28.1185 C   0  0  0  0  0  0  0  0  0  0  0  0
    8.4396  -19.1175   27.7404 O   0  0  0  0  0  0  0  0  0  0  0  0
    8.5063  -20.1282   28.7086 O   0  0  0  0  0  0  0  0  0  0  0  0
  1  2  1  0
  2  3  2  0
  4  2  1  0
  5  4  1  0
  6  5  1  0
  7  6  1  0
  8  7  1  0
  8  9  1  1
 10 11  2  0
 10  8  1  0
 13 12  1  6
 13 15  1  0
 14 13  1  0
 16 15  1  6
 16 17  1  0
 17 10  1  0
 18 19  2  0
 18 16  1  0
 20 18  1  0
 21 20  1  0
 21 22  1  6
 22 23  1  0
 23 31  1  0
 23 24  2  0
 24 25  1  0
 25 26  1  0
 26 27  2  0
 28 27  1  0
 29 28  2  0
 30 31  2  0
 30 29  1  0
 31 26  1  0
 32 21  1  0
 33 32  1  0
 34 32  2  0
M  END
$$$$
