RLW.pdb
     RDKit          3D

 34 35  0  0  1  0  0  0  0  0999 V2000
   13.1533  -21.2087   15.2254 N   0  0  0  0  0  0  0  0  0  0  0  0
   11.9059  -21.9011   14.9189 C   0  0  0  0  0  0  0  0  0  0  0  0
   11.9354  -23.0760   14.4414 N   0  0  0  0  0  0  0  0  0  0  0  0
   10.6774  -21.2369   15.1595 N   0  0  0  0  0  0  0  0  0  0  0  0
   10.5412  -19.9323   15.7006 C   0  0  0  0  0  0  0  0  0  0  0  0
   10.5782  -19.7583   17.1731 C   0  0  0  0  0  0  0  0  0  0  0  0
   10.2814  -18.3007   17.5677 C   0  0  0  0  0  0  0  0  0  0  0  0
   10.3795  -18.0897   19.0400 C   0  0  2  0  0  0  0  0  0  0  0  0
    9.3592  -18.8684   19.7012 N   0  0  0  0  0  0  0  0  0  0  0  0
   10.1153  -16.6389   19.3826 C   0  0  0  0  0  0  0  0  0  0  0  0
    9.9693  -15.8314   18.4629 O   0  0  0  0  0  0  0  0  0  0  0  0
   11.1385  -23.6281   14.1791 C   0  0  0  0  0  0  0  0  0  0  0  0
    7.9388  -12.7069   21.1843 C   0  0  1  0  0  0  0  0  0  0  0  0
    7.0427  -13.9488   21.0250 C   0  0  0  0  0  0  0  0  0  0  0  0
    6.2877  -14.1566   22.3270 C   0  0  0  0  0  0  0  0  0  0  0  0
    7.9681  -15.0804   20.7053 C   0  0  1  0  0  0  0  0  0  0  0  0
    9.3775  -14.9724   21.1610 N   0  0  0  0  0  0  0  0  0  0  0  0
   10.0422  -16.2362   20.7314 C   0  0  0  0  0  0  0  0  0  0  0  0
    9.6385  -14.7295   22.5666 O   0  0  0  0  0  0  0  0  0  0  0  0
    8.9804  -13.7814   23.1478 N   0  0  0  0  0  0  0  0  0  0  0  0
   10.5538  -15.4587   23.3336 C   0  0  2  0  0  0  0  0  0  0  0  0
   10.2691  -16.0043   24.6681 C   0  0  0  0  0  0  0  0  0  0  0  0
    8.8549  -15.7953   25.0350 C   0  0  0  0  0  0  0  0  0  0  0  0
    8.6406  -14.7383   26.0238 C   0  0  0  0  0  0  0  0  0  0  0  0
    9.2128  -14.6415   27.2979 N   0  0  0  0  0  0  0  0  0  0  0  0
    8.7561  -13.5574   27.9363 C   0  0  0  0  0  0  0  0  0  0  0  0
    7.8828  -12.9065   27.1282 C   0  0  0  0  0  0  0  0  0  0  0  0
    7.1436  -11.7522   27.2546 C   0  0  0  0  0  0  0  0  0  0  0  0
    6.3296  -11.2932   26.2356 C   0  0  0  0  0  0  0  0  0  0  0  0
    6.2550  -12.0068   25.0646 C   0  0  0  0  0  0  0  0  0  0  0  0
    6.9876  -13.1583   24.9310 C   0  0  0  0  0  0  0  0  0  0  0  0
    7.8096  -13.6367   25.9413 C   0  0  0  0  0  0  0  0  0  0  0  0
   10.6772  -17.3990   24.6848 O   0  0  0  0  0  0  0  0  0  0  0  0
   11.0627  -18.1415   23.5607 O   0  0  0  0  0  0  0  0  0  0  0  0
  1  2  1  0
  2  3  2  0
  4  2  1  0
  5  4  1  0
  6  5  1  0
  7  6  1  0
  8  7  1  0
  8  9  1  1
 10 11  2  0
 10  8  1  0
 13 12  1  6
 13 15  1  0
 14 13  1  0
 16 15  1  6
 16 17  1  0
 17 10  1  0
 18 19  2  0
 18 16  1  0
 20 18  1  0
 21 20  1  0
 21 22  1  1
 22 23  1  0
 23 31  1  0
 23 24  2  0
 24 25  1  0
 25 26  1  0
 26 27  2  0
 28 27  1  0
 29 28  2  0
 30 31  2  0
 30 29  1  0
 31 26  1  0
 32 21  1  0
 33 32  1  0
 34 32  2  0
M  END
$$$$
