RLW.pdb
     RDKit          3D

 34 35  0  0  1  0  0  0  0  0999 V2000
   12.2866  -18.0966   14.6742 N   0  0  0  0  0  0  0  0  0  0  0  0
   11.4019  -17.3270   13.8057 C   0  0  0  0  0  0  0  0  0  0  0  0
   11.8739  -16.7313   12.7901 N   0  0  0  0  0  0  0  0  0  0  0  0
   10.0223  -17.2578   14.1223 N   0  0  0  0  0  0  0  0  0  0  0  0
    9.3918  -17.9328   15.1994 C   0  0  0  0  0  0  0  0  0  0  0  0
   10.2357  -18.5780   16.2346 C   0  0  0  0  0  0  0  0  0  0  0  0
    9.3724  -19.1929   17.3505 C   0  0  0  0  0  0  0  0  0  0  0  0
    9.8596  -18.8127   18.7069 C   0  0  2  0  0  0  0  0  0  0  0  0
    8.9370  -19.3092   19.7003 N   0  0  0  0  0  0  0  0  0  0  0  0
    9.8911  -17.3060   18.8516 C   0  0  0  0  0  0  0  0  0  0  0  0
    9.7650  -16.6122   17.8408 O   0  0  0  0  0  0  0  0  0  0  0  0
   11.3678  -16.1205   12.1741 C   0  0  0  0  0  0  0  0  0  0  0  0
    6.5713  -13.5106   19.6857 C   0  0  1  0  0  0  0  0  0  0  0  0
    8.0395  -13.5282   20.1492 C   0  0  0  0  0  0  0  0  0  0  0  0
    8.8172  -12.5437   19.2923 C   0  0  0  0  0  0  0  0  0  0  0  0
    8.5044  -14.9400   19.9759 C   0  0  2  0  0  0  0  0  0  0  0  0
    9.8986  -15.2635   20.3723 N   0  0  0  0  0  0  0  0  0  0  0  0
   10.0638  -16.7245   20.1240 C   0  0  0  0  0  0  0  0  0  0  0  0
   10.3340  -14.9382   21.7168 O   0  0  0  0  0  0  0  0  0  0  0  0
   10.6381  -13.7083   21.9718 N   0  0  0  0  0  0  0  0  0  0  0  0
   10.4416  -15.8696   22.7552 C   0  0  1  0  0  0  0  0  0  0  0  0
    9.6649  -15.8159   24.0017 C   0  0  0  0  0  0  0  0  0  0  0  0
    8.2587  -15.4560   23.7344 C   0  0  0  0  0  0  0  0  0  0  0  0
    7.5404  -14.9345   24.8975 C   0  0  0  0  0  0  0  0  0  0  0  0
    6.6989  -15.6451   25.7620 N   0  0  0  0  0  0  0  0  0  0  0  0
    6.1871  -14.8309   26.6930 C   0  0  0  0  0  0  0  0  0  0  0  0
    6.6593  -13.5763   26.4875 C   0  0  0  0  0  0  0  0  0  0  0  0
    6.4873  -12.3736   27.1348 C   0  0  0  0  0  0  0  0  0  0  0  0
    7.1261  -11.2219   26.7138 C   0  0  0  0  0  0  0  0  0  0  0  0
    7.9551  -11.2770   25.6203 C   0  0  0  0  0  0  0  0  0  0  0  0
    8.1311  -12.4710   24.9694 C   0  0  0  0  0  0  0  0  0  0  0  0
    7.4990  -13.6379   25.3748 C   0  0  0  0  0  0  0  0  0  0  0  0
    9.8224  -17.0863   24.6897 O   0  0  0  0  0  0  0  0  0  0  0  0
   10.3949  -18.2392   24.1363 O   0  0  0  0  0  0  0  0  0  0  0  0
  1  2  1  0
  2  3  2  0
  4  2  1  0
  5  4  1  0
  6  5  1  0
  7  6  1  0
  8  7  1  0
  8  9  1  1
 10 11  2  0
 10  8  1  0
 13 12  1  1
 13 15  1  0
 14 13  1  0
 16 15  1  6
 16 17  1  0
 17 10  1  0
 18 19  2  0
 18 16  1  0
 20 18  1  0
 21 20  1  0
 21 22  1  1
 22 23  1  0
 23 31  1  0
 23 24  2  0
 24 25  1  0
 25 26  1  0
 26 27  2  0
 28 27  1  0
 29 28  2  0
 30 31  2  0
 30 29  1  0
 31 26  1  0
 32 21  1  0
 33 32  1  0
 34 32  2  0
M  END
$$$$
