RLW.pdb
     RDKit          3D

 34 35  0  0  1  0  0  0  0  0999 V2000
    9.2600  -18.0809   12.7698 N   0  0  0  0  0  0  0  0  0  0  0  0
    9.0260  -19.4196   13.3013 C   0  0  0  0  0  0  0  0  0  0  0  0
    8.7962  -20.3834   12.5093 N   0  0  0  0  0  0  0  0  0  0  0  0
    9.0561  -19.6137   14.7048 N   0  0  0  0  0  0  0  0  0  0  0  0
    9.3343  -18.6088   15.6672 C   0  0  0  0  0  0  0  0  0  0  0  0
    9.3494  -18.9756   17.1043 C   0  0  0  0  0  0  0  0  0  0  0  0
    9.6656  -17.7543   17.9857 C   0  0  0  0  0  0  0  0  0  0  0  0
    9.6280  -18.0890   19.4377 C   0  0  2  0  0  0  0  0  0  0  0  0
    8.2728  -18.4124   19.8165 N   0  0  0  0  0  0  0  0  0  0  0  0
   10.0406  -16.8901   20.2651 C   0  0  0  0  0  0  0  0  0  0  0  0
   11.2093  -16.5036   20.2039 O   0  0  0  0  0  0  0  0  0  0  0  0
    8.5092  -21.3093   12.7718 C   0  0  0  0  0  0  0  0  0  0  0  0
    8.7459  -12.8942   19.6162 C   0  0  2  0  0  0  0  0  0  0  0  0
    7.7038  -13.8470   20.2299 C   0  0  0  0  0  0  0  0  0  0  0  0
    6.3511  -13.1566   20.1898 C   0  0  0  0  0  0  0  0  0  0  0  0
    8.1733  -14.1206   21.6242 C   0  0  2  0  0  0  0  0  0  0  0  0
    9.3850  -14.9623   21.7942 N   0  0  0  0  0  0  0  0  0  0  0  0
    9.0949  -16.2415   21.0848 C   0  0  0  0  0  0  0  0  0  0  0  0
    9.8591  -15.2380   23.1367 O   0  0  0  0  0  0  0  0  0  0  0  0
   10.5672  -14.3311   23.7249 N   0  0  0  0  0  0  0  0  0  0  0  0
    9.5952  -16.4206   23.8362 C   0  0  1  0  0  0  0  0  0  0  0  0
   10.1316  -16.7341   25.1680 C   0  0  0  0  0  0  0  0  0  0  0  0
    9.7986  -15.6716   26.1366 C   0  0  0  0  0  0  0  0  0  0  0  0
    8.3899  -15.2762   26.1341 C   0  0  0  0  0  0  0  0  0  0  0  0
    7.2864  -16.0751   25.8111 N   0  0  0  0  0  0  0  0  0  0  0  0
    6.1548  -15.3639   25.8838 C   0  0  0  0  0  0  0  0  0  0  0  0
    6.4567  -14.0936   26.2505 C   0  0  0  0  0  0  0  0  0  0  0  0
    5.7055  -12.9656   26.4919 C   0  0  0  0  0  0  0  0  0  0  0  0
    6.2861  -11.7747   26.8876 C   0  0  0  0  0  0  0  0  0  0  0  0
    7.6490  -11.7133   27.0446 C   0  0  0  0  0  0  0  0  0  0  0  0
    8.4045  -12.8324   26.8052 C   0  0  0  0  0  0  0  0  0  0  0  0
    7.8422  -14.0366   26.4066 C   0  0  0  0  0  0  0  0  0  0  0  0
    9.6482  -18.0492   25.5540 O   0  0  0  0  0  0  0  0  0  0  0  0
    8.8682  -18.8912   24.7502 O   0  0  0  0  0  0  0  0  0  0  0  0
  1  2  1  0
  2  3  2  0
  4  2  1  0
  5  4  1  0
  6  5  1  0
  7  6  1  0
  8  7  1  0
  8  9  1  1
 10 11  2  0
 10  8  1  0
 13 12  1  6
 13 15  1  0
 14 13  1  0
 16 15  1  6
 16 17  1  0
 17 10  1  0
 18 19  2  0
 18 16  1  0
 20 18  1  0
 21 20  1  0
 21 22  1  1
 22 23  1  0
 23 31  1  0
 23 24  2  0
 24 25  1  0
 25 26  1  0
 26 27  2  0
 28 27  1  0
 29 28  2  0
 30 31  2  0
 30 29  1  0
 31 26  1  0
 32 21  1  0
 33 32  1  0
 34 32  2  0
M  END
$$$$
