RNN.pdb
     RDKit          3D

 28 27  0  0  1  0  0  0  0  0999 V2000
    6.3435  -13.0690   15.9534 N   0  0  0  0  0  0  0  0  0  0  0  0
    7.4362  -13.8542   15.5100 C   0  0  0  0  0  0  0  0  0  0  0  0
    7.9335  -13.7703   14.3052 N   0  0  0  0  0  0  0  0  0  0  0  0
    8.0633  -14.7950   16.3756 N   0  0  0  0  0  0  0  0  0  0  0  0
    7.7525  -14.8849   17.8006 C   0  0  0  0  0  0  0  0  0  0  0  0
    8.4624  -13.7627   18.4718 C   0  0  0  0  0  0  0  0  0  0  0  0
    8.2784  -13.6161   19.9338 C   0  0  0  0  0  0  0  0  0  0  0  0
    9.2682  -14.3886   20.7606 C   0  0  2  0  0  0  0  0  0  0  0  0
    9.6486  -15.6494   20.1656 N   0  0  0  0  0  0  0  0  0  0  0  0
    8.5871  -14.6219   22.0862 C   0  0  0  0  0  0  0  0  0  0  0  0
    7.8605  -13.7140   22.5507 O   0  0  0  0  0  0  0  0  0  0  0  0
    8.8001  -14.3391   14.1029 N   0  0  0  0  0  0  0  0  0  0  0  0
    6.8692  -14.3642   24.6135 C   0  0  0  0  0  0  0  0  0  0  0  0
    6.7838  -15.7373   25.0767 O   0  0  0  0  0  0  0  0  0  0  0  0
    5.7070  -16.0682   25.6036 C   0  0  0  0  0  0  0  0  0  0  0  0
    7.9588  -16.5585   24.8711 C   0  0  2  0  0  0  0  0  0  0  0  0
    9.1039  -15.8485   24.2106 N   0  0  0  0  0  0  0  0  0  0  0  0
    8.7877  -15.8291   22.7414 C   0  0  0  0  0  0  0  0  0  0  0  0
   10.3926  -16.5563   24.2516 O   0  0  0  0  0  0  0  0  0  0  0  0
   10.9870  -16.6547   25.3877 N   0  0  0  0  0  0  0  0  0  0  0  0
   14.4242  -14.1850   21.3570 C   0  0  0  0  0  0  0  0  0  0  0  0
   14.0500  -15.1429   22.3198 O   0  0  0  0  0  0  0  0  0  0  0  0
   14.9188  -15.7402   23.0032 C   0  0  0  0  0  0  0  0  0  0  0  0
   12.6152  -15.4417   22.5206 C   0  0  1  0  0  0  0  0  0  0  0  0
   12.4961  -16.8801   22.9216 N   0  0  0  0  0  0  0  0  0  0  0  0
   11.0510  -17.1501   23.1644 C   0  0  0  0  0  0  0  0  0  0  0  0
   13.2573  -17.1744   24.1572 O   0  0  0  0  0  0  0  0  0  0  0  0
   14.3604  -17.9923   24.1195 O   0  0  0  0  0  0  0  0  0  0  0  0
  1  2  1  0
  2  4  1  0
  3  2  2  0
  4  5  1  0
  5  6  1  0
  7  6  1  0
  8  9  1  6
  8  7  1  0
 10  8  1  0
 10 11  2  0
 13 15  1  0
 13 12  1  0
 14 13  2  0
 16 15  1  1
 16 17  1  0
 16 18  1  0
 17 10  1  0
 18 25  1  0
 19 18  2  0
 20 21  1  0
 21 23  1  0
 22 21  2  0
 24 23  1  6
 24 26  1  0
 25 24  1  0
 26 28  2  0
 26 27  1  0
M  END
$$$$
