RNN.pdb
     RDKit          3D

 28 27  0  0  1  0  0  0  0  0999 V2000
    7.2646  -13.0674   14.6827 N   0  0  0  0  0  0  0  0  0  0  0  0
    7.8878  -14.3395   14.6573 C   0  0  0  0  0  0  0  0  0  0  0  0
    7.8041  -15.1555   13.6408 N   0  0  0  0  0  0  0  0  0  0  0  0
    8.6559  -14.8031   15.7630 N   0  0  0  0  0  0  0  0  0  0  0  0
    8.7866  -14.0453   17.0055 C   0  0  0  0  0  0  0  0  0  0  0  0
    7.8665  -14.6696   17.9941 C   0  0  0  0  0  0  0  0  0  0  0  0
    7.8667  -14.1192   19.3689 C   0  0  0  0  0  0  0  0  0  0  0  0
    8.6660  -14.9241   20.3554 C   0  0  2  0  0  0  0  0  0  0  0  0
    8.2567  -16.3081   20.4281 N   0  0  0  0  0  0  0  0  0  0  0  0
    8.4566  -14.2476   21.6873 C   0  0  0  0  0  0  0  0  0  0  0  0
    8.5956  -13.0049   21.7528 O   0  0  0  0  0  0  0  0  0  0  0  0
    8.2344  -16.1129   13.7571 N   0  0  0  0  0  0  0  0  0  0  0  0
    7.0209  -13.2053   26.4057 C   0  0  0  0  0  0  0  0  0  0  0  0
    6.2324  -14.3294   25.9346 O   0  0  0  0  0  0  0  0  0  0  0  0
    5.2709  -14.6587   26.6513 C   0  0  0  0  0  0  0  0  0  0  0  0
    6.6565  -14.9337   24.6887 C   0  0  2  0  0  0  0  0  0  0  0  0
    7.9381  -14.3821   24.1363 N   0  0  0  0  0  0  0  0  0  0  0  0
    8.1180  -15.0221   22.7884 C   0  0  0  0  0  0  0  0  0  0  0  0
    9.1586  -14.7885   24.8494 O   0  0  0  0  0  0  0  0  0  0  0  0
    9.2489  -14.4965   26.0986 N   0  0  0  0  0  0  0  0  0  0  0  0
   11.7836  -18.6434   26.4499 C   0  0  0  0  0  0  0  0  0  0  0  0
   10.3840  -18.4844   26.4657 O   0  0  0  0  0  0  0  0  0  0  0  0
    9.6530  -19.2897   27.0947 C   0  0  0  0  0  0  0  0  0  0  0  0
    9.7780  -17.3531   25.7299 C   0  0  1  0  0  0  0  0  0  0  0  0
   10.8814  -16.6025   25.0496 N   0  0  0  0  0  0  0  0  0  0  0  0
   10.2516  -15.4774   24.3027 C   0  0  0  0  0  0  0  0  0  0  0  0
   11.6269  -17.4575   24.0978 O   0  0  0  0  0  0  0  0  0  0  0  0
   12.9669  -17.6999   24.2788 O   0  0  0  0  0  0  0  0  0  0  0  0
  1  2  1  0
  2  4  1  0
  3  2  2  0
  4  5  1  0
  5  6  1  0
  7  6  1  0
  8  9  1  1
  8  7  1  0
 10  8  1  0
 10 11  2  0
 13 15  1  0
 13 12  1  0
 14 13  2  0
 16 15  1  6
 16 17  1  0
 16 18  1  0
 17 10  1  0
 18 25  1  0
 19 18  2  0
 20 21  1  0
 21 23  1  0
 22 21  2  0
 24 23  1  1
 24 26  1  0
 25 24  1  0
 26 28  2  0
 26 27  1  0
M  END
$$$$
