RNN.pdb
     RDKit          3D

 28 27  0  0  1  0  0  0  0  0999 V2000
    6.8592  -13.1104   20.0822 N   0  0  0  0  0  0  0  0  0  0  0  0
    8.0039  -12.4577   19.5615 C   0  0  0  0  0  0  0  0  0  0  0  0
    8.4242  -11.2993   19.9946 N   0  0  0  0  0  0  0  0  0  0  0  0
    8.7727  -13.0455   18.5171 N   0  0  0  0  0  0  0  0  0  0  0  0
    9.9353  -13.8925   18.7743 C   0  0  0  0  0  0  0  0  0  0  0  0
    9.4737  -15.0138   19.6365 C   0  0  0  0  0  0  0  0  0  0  0  0
    9.5532  -16.3824   19.0765 C   0  0  0  0  0  0  0  0  0  0  0  0
   10.4784  -17.3019   19.8239 C   0  0  2  0  0  0  0  0  0  0  0  0
   10.7550  -16.8614   21.1721 N   0  0  0  0  0  0  0  0  0  0  0  0
   11.7508  -17.3342   19.0144 C   0  0  0  0  0  0  0  0  0  0  0  0
   11.6751  -17.1523   17.7778 O   0  0  0  0  0  0  0  0  0  0  0  0
    9.3030  -10.9125   19.5547 N   0  0  0  0  0  0  0  0  0  0  0  0
   15.6487  -15.0948   18.4854 C   0  0  0  0  0  0  0  0  0  0  0  0
   14.2966  -14.5689   18.4328 O   0  0  0  0  0  0  0  0  0  0  0  0
   14.1155  -13.6082   17.6643 C   0  0  0  0  0  0  0  0  0  0  0  0
   13.3201  -15.2231   19.2788 C   0  0  2  0  0  0  0  0  0  0  0  0
   13.8470  -16.4093   20.0318 N   0  0  0  0  0  0  0  0  0  0  0  0
   12.9555  -17.5625   19.6652 C   0  0  0  0  0  0  0  0  0  0  0  0
   13.7010  -16.3437   21.4938 O   0  0  0  0  0  0  0  0  0  0  0  0
   14.3834  -15.4554   22.1256 N   0  0  0  0  0  0  0  0  0  0  0  0
    9.7331  -18.6497   23.2948 C   0  0  0  0  0  0  0  0  0  0  0  0
   10.9357  -18.4289   23.9945 O   0  0  0  0  0  0  0  0  0  0  0  0
   11.5996  -19.3930   24.4510 C   0  0  0  0  0  0  0  0  0  0  0  0
   11.4134  -17.0424   24.1886 C   0  0  1  0  0  0  0  0  0  0  0  0
   12.8492  -16.9867   23.7653 N   0  0  0  0  0  0  0  0  0  0  0  0
   12.8779  -17.1585   22.2855 C   0  0  0  0  0  0  0  0  0  0  0  0
   13.6527  -18.0608   24.3925 O   0  0  0  0  0  0  0  0  0  0  0  0
   13.9830  -17.9986   25.7245 O   0  0  0  0  0  0  0  0  0  0  0  0
  1  2  1  0
  2  4  1  0
  3  2  2  0
  4  5  1  0
  5  6  1  0
  7  6  1  0
  8  9  1  1
  8  7  1  0
 10  8  1  0
 10 11  2  0
 13 15  1  0
 13 12  1  0
 14 13  2  0
 16 15  1  6
 16 17  1  0
 16 18  1  0
 17 10  1  0
 18 25  1  0
 19 18  2  0
 20 21  1  0
 21 23  1  0
 22 21  2  0
 24 23  1  6
 24 26  1  0
 25 24  1  0
 26 28  2  0
 26 27  1  0
M  END
$$$$
