RNN.pdb
     RDKit          3D

 28 27  0  0  1  0  0  0  0  0999 V2000
    8.1786  -13.7513   16.7994 N   0  0  0  0  0  0  0  0  0  0  0  0
    8.4874  -13.3445   18.1209 C   0  0  0  0  0  0  0  0  0  0  0  0
    8.3869  -12.1079   18.5292 N   0  0  0  0  0  0  0  0  0  0  0  0
    8.9313  -14.2847   19.0938 N   0  0  0  0  0  0  0  0  0  0  0  0
    8.0103  -15.1222   19.8591 C   0  0  0  0  0  0  0  0  0  0  0  0
    7.6390  -14.3565   21.0796 C   0  0  0  0  0  0  0  0  0  0  0  0
    6.6935  -14.9946   22.0240 C   0  0  0  0  0  0  0  0  0  0  0  0
    6.8463  -16.4859   22.1364 C   0  0  2  0  0  0  0  0  0  0  0  0
    5.8481  -17.2200   21.3927 N   0  0  0  0  0  0  0  0  0  0  0  0
    6.7282  -16.7907   23.6091 C   0  0  0  0  0  0  0  0  0  0  0  0
    5.6116  -16.6523   24.1585 O   0  0  0  0  0  0  0  0  0  0  0  0
    8.6072  -11.9183   19.5446 N   0  0  0  0  0  0  0  0  0  0  0  0
    7.7359  -19.2359   27.9527 C   0  0  0  0  0  0  0  0  0  0  0  0
    6.8296  -19.6696   26.9049 O   0  0  0  0  0  0  0  0  0  0  0  0
    6.1247  -20.6594   27.1699 C   0  0  0  0  0  0  0  0  0  0  0  0
    6.8521  -18.9010   25.6778 C   0  0  1  0  0  0  0  0  0  0  0  0
    7.7370  -17.6898   25.7206 N   0  0  0  0  0  0  0  0  0  0  0  0
    7.8556  -17.2126   24.3004 C   0  0  0  0  0  0  0  0  0  0  0  0
    9.1374  -17.9448   26.0909 O   0  0  0  0  0  0  0  0  0  0  0  0
    9.5221  -19.1691   26.1754 N   0  0  0  0  0  0  0  0  0  0  0  0
    9.5428  -13.5371   29.2462 C   0  0  0  0  0  0  0  0  0  0  0  0
    9.6383  -14.4093   28.1442 O   0  0  0  0  0  0  0  0  0  0  0  0
    9.9811  -13.9812   27.0138 C   0  0  0  0  0  0  0  0  0  0  0  0
    9.3292  -15.8439   28.3305 C   0  0  2  0  0  0  0  0  0  0  0  0
   10.4689  -16.6372   27.7690 N   0  0  0  0  0  0  0  0  0  0  0  0
   10.1163  -16.9770   26.3617 C   0  0  0  0  0  0  0  0  0  0  0  0
   10.6972  -17.8892   28.5260 O   0  0  0  0  0  0  0  0  0  0  0  0
   11.9074  -18.1290   29.1303 O   0  0  0  0  0  0  0  0  0  0  0  0
  1  2  1  0
  2  4  1  0
  3  2  2  0
  4  5  1  0
  5  6  1  0
  7  6  1  0
  8  9  1  6
  8  7  1  0
 10  8  1  0
 10 11  2  0
 13 15  1  0
 13 12  1  0
 14 13  2  0
 16 15  1  1
 16 17  1  0
 16 18  1  0
 17 10  1  0
 18 25  1  0
 19 18  2  0
 20 21  1  0
 21 23  1  0
 22 21  2  0
 24 23  1  6
 24 26  1  0
 25 24  1  0
 26 28  2  0
 26 27  1  0
M  END
$$$$
