RNN.pdb
     RDKit          3D

 28 27  0  0  1  0  0  0  0  0999 V2000
    7.8235  -13.4173   17.4499 N   0  0  0  0  0  0  0  0  0  0  0  0
    8.0480  -12.8902   18.7457 C   0  0  0  0  0  0  0  0  0  0  0  0
    7.7738  -11.6555   19.0716 N   0  0  0  0  0  0  0  0  0  0  0  0
    8.5949  -13.6986   19.7825 N   0  0  0  0  0  0  0  0  0  0  0  0
    8.9495  -15.1022   19.5843 C   0  0  0  0  0  0  0  0  0  0  0  0
    7.9092  -15.9143   20.2714 C   0  0  0  0  0  0  0  0  0  0  0  0
    8.0582  -17.3871   20.2337 C   0  0  0  0  0  0  0  0  0  0  0  0
    9.4419  -17.8757   20.5608 C   0  0  2  0  0  0  0  0  0  0  0  0
    9.6291  -19.2831   20.2917 N   0  0  0  0  0  0  0  0  0  0  0  0
    9.6277  -17.5966   22.0316 C   0  0  0  0  0  0  0  0  0  0  0  0
    8.6292  -17.2509   22.7033 O   0  0  0  0  0  0  0  0  0  0  0  0
    7.8413  -11.4029   20.0949 N   0  0  0  0  0  0  0  0  0  0  0  0
   11.7961  -20.8131   25.1644 C   0  0  0  0  0  0  0  0  0  0  0  0
   10.9352  -20.1385   24.2099 O   0  0  0  0  0  0  0  0  0  0  0  0
   10.7664  -20.7195   23.1234 C   0  0  0  0  0  0  0  0  0  0  0  0
   10.3754  -18.8719   24.6336 C   0  0  1  0  0  0  0  0  0  0  0  0
   11.0754  -17.6669   24.0770 N   0  0  0  0  0  0  0  0  0  0  0  0
   10.8927  -17.7330   22.5867 C   0  0  0  0  0  0  0  0  0  0  0  0
   12.5392  -17.6659   24.2206 O   0  0  0  0  0  0  0  0  0  0  0  0
   13.0252  -17.6976   25.4109 N   0  0  0  0  0  0  0  0  0  0  0  0
   15.0716  -19.5592   24.5704 C   0  0  0  0  0  0  0  0  0  0  0  0
   15.8886  -19.3680   23.4389 O   0  0  0  0  0  0  0  0  0  0  0  0
   16.6998  -20.2557   23.0747 C   0  0  0  0  0  0  0  0  0  0  0  0
   15.7826  -18.1040   22.6776 C   0  0  2  0  0  0  0  0  0  0  0  0
   14.8738  -17.1852   23.4350 N   0  0  0  0  0  0  0  0  0  0  0  0
   13.4778  -17.6384   23.1782 C   0  0  0  0  0  0  0  0  0  0  0  0
   15.0150  -15.7792   22.9924 O   0  0  0  0  0  0  0  0  0  0  0  0
   14.0599  -15.1997   22.1927 O   0  0  0  0  0  0  0  0  0  0  0  0
  1  2  1  0
  2  4  1  0
  3  2  2  0
  4  5  1  0
  5  6  1  0
  7  6  1  0
  8  9  1  1
  8  7  1  0
 10  8  1  0
 10 11  2  0
 13 15  1  0
 13 12  1  0
 14 13  2  0
 16 15  1  1
 16 17  1  0
 16 18  1  0
 17 10  1  0
 18 25  1  0
 19 18  2  0
 20 21  1  0
 21 23  1  0
 22 21  2  0
 24 23  1  1
 24 26  1  0
 25 24  1  0
 26 28  2  0
 26 27  1  0
M  END
$$$$
