RNN.pdb
     RDKit          3D

 28 27  0  0  1  0  0  0  0  0999 V2000
    8.5758  -14.4727   15.9044 N   0  0  0  0  0  0  0  0  0  0  0  0
    8.9946  -14.1887   17.2278 C   0  0  0  0  0  0  0  0  0  0  0  0
   10.0481  -14.7328   17.7756 N   0  0  0  0  0  0  0  0  0  0  0  0
    8.2730  -13.2735   18.0458 N   0  0  0  0  0  0  0  0  0  0  0  0
    8.6865  -12.9362   19.4061 C   0  0  0  0  0  0  0  0  0  0  0  0
    8.3398  -14.0993   20.2667 C   0  0  0  0  0  0  0  0  0  0  0  0
    7.1455  -13.9749   21.1333 C   0  0  0  0  0  0  0  0  0  0  0  0
    6.8666  -15.1875   21.9770 C   0  0  2  0  0  0  0  0  0  0  0  0
    5.5420  -15.1890   22.5547 N   0  0  0  0  0  0  0  0  0  0  0  0
    7.9105  -15.1665   23.0658 C   0  0  0  0  0  0  0  0  0  0  0  0
    7.8405  -14.2741   23.9412 O   0  0  0  0  0  0  0  0  0  0  0  0
   10.2670  -14.4584   18.7717 N   0  0  0  0  0  0  0  0  0  0  0  0
   10.8234  -16.2581   27.0159 C   0  0  0  0  0  0  0  0  0  0  0  0
   10.3665  -17.4044   26.2513 O   0  0  0  0  0  0  0  0  0  0  0  0
   10.8231  -18.5077   26.5988 C   0  0  0  0  0  0  0  0  0  0  0  0
    9.4350  -17.1296   25.1771 C   0  0  1  0  0  0  0  0  0  0  0  0
    9.9410  -16.1593   24.1503 N   0  0  0  0  0  0  0  0  0  0  0  0
    8.9069  -16.1330   23.0599 C   0  0  0  0  0  0  0  0  0  0  0  0
   11.1540  -16.5775   23.4314 O   0  0  0  0  0  0  0  0  0  0  0  0
   12.1009  -17.1159   24.1152 N   0  0  0  0  0  0  0  0  0  0  0  0
   11.3924  -18.8356   18.8587 C   0  0  0  0  0  0  0  0  0  0  0  0
   11.3037  -17.7102   19.7013 O   0  0  0  0  0  0  0  0  0  0  0  0
   10.2046  -17.3714   20.2071 C   0  0  0  0  0  0  0  0  0  0  0  0
   12.5243  -16.9251   19.9876 C   0  0  2  0  0  0  0  0  0  0  0  0
   12.6979  -16.8694   21.4744 N   0  0  0  0  0  0  0  0  0  0  0  0
   11.3897  -16.4536   22.0540 C   0  0  0  0  0  0  0  0  0  0  0  0
   13.7362  -15.8921   21.8736 O   0  0  0  0  0  0  0  0  0  0  0  0
   13.9459  -14.7544   21.1328 O   0  0  0  0  0  0  0  0  0  0  0  0
  1  2  1  0
  2  4  1  0
  3  2  2  0
  4  5  1  0
  5  6  1  0
  7  6  1  0
  8  9  1  1
  8  7  1  0
 10  8  1  0
 10 11  2  0
 13 15  1  0
 13 12  1  0
 14 13  2  0
 16 15  1  1
 16 17  1  0
 16 18  1  0
 17 10  1  0
 18 25  1  0
 19 18  2  0
 20 21  1  0
 21 23  1  0
 22 21  2  0
 24 23  1  1
 24 26  1  0
 25 24  1  0
 26 28  2  0
 26 27  1  0
M  END
$$$$
