RNN.pdb
     RDKit          3D

 28 27  0  0  1  0  0  0  0  0999 V2000
    8.1706  -12.2071   18.5553 N   0  0  0  0  0  0  0  0  0  0  0  0
    8.7928  -13.2236   17.7892 C   0  0  0  0  0  0  0  0  0  0  0  0
    9.9363  -13.0595   17.1796 N   0  0  0  0  0  0  0  0  0  0  0  0
    8.1904  -14.5055   17.6429 N   0  0  0  0  0  0  0  0  0  0  0  0
    7.2342  -15.0424   18.6087 C   0  0  0  0  0  0  0  0  0  0  0  0
    8.0225  -15.5545   19.7619 C   0  0  0  0  0  0  0  0  0  0  0  0
    7.6114  -15.1195   21.1164 C   0  0  0  0  0  0  0  0  0  0  0  0
    7.0399  -16.2173   21.9698 C   0  0  2  0  0  0  0  0  0  0  0  0
    5.6071  -16.3538   21.8409 N   0  0  0  0  0  0  0  0  0  0  0  0
    7.4036  -15.8528   23.3877 C   0  0  0  0  0  0  0  0  0  0  0  0
    7.0542  -14.7320   23.8231 O   0  0  0  0  0  0  0  0  0  0  0  0
   10.3132  -13.8831   16.6364 N   0  0  0  0  0  0  0  0  0  0  0  0
    7.4217  -13.7302   25.8406 C   0  0  0  0  0  0  0  0  0  0  0  0
    6.5336  -14.8785   25.8348 O   0  0  0  0  0  0  0  0  0  0  0  0
    5.3634  -14.6600   25.4750 C   0  0  0  0  0  0  0  0  0  0  0  0
    7.1128  -16.1401   26.2471 C   0  0  2  0  0  0  0  0  0  0  0  0
    8.4248  -16.4632   25.5943 N   0  0  0  0  0  0  0  0  0  0  0  0
    8.1086  -16.7683   24.1570 C   0  0  0  0  0  0  0  0  0  0  0  0
    9.0676  -17.7046   26.0514 O   0  0  0  0  0  0  0  0  0  0  0  0
    8.3081  -18.6982   26.3511 N   0  0  0  0  0  0  0  0  0  0  0  0
   13.5700  -18.1417   24.7524 C   0  0  0  0  0  0  0  0  0  0  0  0
   12.6603  -19.1012   25.2383 O   0  0  0  0  0  0  0  0  0  0  0  0
   12.0542  -19.8690   24.4498 C   0  0  0  0  0  0  0  0  0  0  0  0
   12.4227  -19.1976   26.6952 C   0  0  2  0  0  0  0  0  0  0  0  0
   10.9447  -19.1219   26.9268 N   0  0  0  0  0  0  0  0  0  0  0  0
   10.4459  -17.9250   26.1928 C   0  0  0  0  0  0  0  0  0  0  0  0
   10.6168  -18.9794   28.3637 O   0  0  0  0  0  0  0  0  0  0  0  0
   10.2678  -17.7560   28.8823 O   0  0  0  0  0  0  0  0  0  0  0  0
  1  2  1  0
  2  4  1  0
  3  2  2  0
  4  5  1  0
  5  6  1  0
  7  6  1  0
  8  9  1  1
  8  7  1  0
 10  8  1  0
 10 11  2  0
 13 15  1  0
 13 12  1  0
 14 13  2  0
 16 15  1  6
 16 17  1  0
 16 18  1  0
 17 10  1  0
 18 25  1  0
 19 18  2  0
 20 21  1  0
 21 23  1  0
 22 21  2  0
 24 23  1  6
 24 26  1  0
 25 24  1  0
 26 28  2  0
 26 27  1  0
M  END
$$$$
