RNN.pdb
     RDKit          3D

 28 27  0  0  1  0  0  0  0  0999 V2000
    8.0214  -11.6406   20.5415 N   0  0  0  0  0  0  0  0  0  0  0  0
    8.4464  -12.7328   19.7454 C   0  0  0  0  0  0  0  0  0  0  0  0
    9.3633  -12.6285   18.8211 N   0  0  0  0  0  0  0  0  0  0  0  0
    7.8840  -14.0296   19.9176 N   0  0  0  0  0  0  0  0  0  0  0  0
    6.9306  -14.3410   20.9803 C   0  0  0  0  0  0  0  0  0  0  0  0
    7.4769  -15.5067   21.7262 C   0  0  0  0  0  0  0  0  0  0  0  0
    6.7319  -15.9612   22.9226 C   0  0  0  0  0  0  0  0  0  0  0  0
    7.3845  -17.0962   23.6614 C   0  0  2  0  0  0  0  0  0  0  0  0
    7.6241  -18.2549   22.8318 N   0  0  0  0  0  0  0  0  0  0  0  0
    6.4353  -17.4436   24.7811 C   0  0  0  0  0  0  0  0  0  0  0  0
    5.3328  -17.9603   24.4889 O   0  0  0  0  0  0  0  0  0  0  0  0
    9.6331  -13.5129   18.3107 N   0  0  0  0  0  0  0  0  0  0  0  0
    6.2822  -20.4983   26.7548 C   0  0  0  0  0  0  0  0  0  0  0  0
    7.5253  -20.4698   26.0057 O   0  0  0  0  0  0  0  0  0  0  0  0
    7.9437  -21.5694   25.6028 C   0  0  0  0  0  0  0  0  0  0  0  0
    8.1306  -19.1679   25.8157 C   0  0  2  0  0  0  0  0  0  0  0  0
    7.7136  -18.1369   26.8231 N   0  0  0  0  0  0  0  0  0  0  0  0
    6.8153  -17.1806   26.0900 C   0  0  0  0  0  0  0  0  0  0  0  0
    8.7889  -17.2585   27.3082 O   0  0  0  0  0  0  0  0  0  0  0  0
    9.8894  -17.8083   27.6832 N   0  0  0  0  0  0  0  0  0  0  0  0
    7.9102  -12.7784   26.0556 C   0  0  0  0  0  0  0  0  0  0  0  0
    9.0990  -13.5100   26.2449 O   0  0  0  0  0  0  0  0  0  0  0  0
    9.6863  -14.0445   25.2713 C   0  0  0  0  0  0  0  0  0  0  0  0
    9.6539  -13.6447   27.6096 C   0  0  2  0  0  0  0  0  0  0  0  0
    9.9407  -15.0953   27.8490 N   0  0  0  0  0  0  0  0  0  0  0  0
    8.7422  -15.8595   27.4022 C   0  0  0  0  0  0  0  0  0  0  0  0
   10.1904  -15.3807   29.2803 O   0  0  0  0  0  0  0  0  0  0  0  0
    9.1944  -15.8966   30.0735 O   0  0  0  0  0  0  0  0  0  0  0  0
  1  2  1  0
  2  4  1  0
  3  2  2  0
  4  5  1  0
  5  6  1  0
  7  6  1  0
  8  9  1  6
  8  7  1  0
 10  8  1  0
 10 11  2  0
 13 15  1  0
 13 12  1  0
 14 13  2  0
 16 15  1  1
 16 17  1  0
 16 18  1  0
 17 10  1  0
 18 25  1  0
 19 18  2  0
 20 21  1  0
 21 23  1  0
 22 21  2  0
 24 23  1  6
 24 26  1  0
 25 24  1  0
 26 28  2  0
 26 27  1  0
M  END
$$$$
