RNN.pdb
     RDKit          3D

 28 27  0  0  1  0  0  0  0  0999 V2000
    8.8062  -12.1454   17.8109 N   0  0  0  0  0  0  0  0  0  0  0  0
    8.3021  -13.1862   16.9924 C   0  0  0  0  0  0  0  0  0  0  0  0
    8.7523  -13.4315   15.7911 N   0  0  0  0  0  0  0  0  0  0  0  0
    7.2564  -14.0381   17.4489 N   0  0  0  0  0  0  0  0  0  0  0  0
    6.6154  -13.8717   18.7514 C   0  0  0  0  0  0  0  0  0  0  0  0
    7.5041  -14.5124   19.7580 C   0  0  0  0  0  0  0  0  0  0  0  0
    6.9802  -14.6597   21.1353 C   0  0  0  0  0  0  0  0  0  0  0  0
    7.9216  -15.3497   22.0828 C   0  0  2  0  0  0  0  0  0  0  0  0
    8.6233  -16.4612   21.4824 N   0  0  0  0  0  0  0  0  0  0  0  0
    7.0600  -15.8316   23.2233 C   0  0  0  0  0  0  0  0  0  0  0  0
    6.3210  -15.0035   23.8030 O   0  0  0  0  0  0  0  0  0  0  0  0
    8.3196  -14.2438   15.2730 N   0  0  0  0  0  0  0  0  0  0  0  0
    4.6656  -17.6176   22.3584 C   0  0  0  0  0  0  0  0  0  0  0  0
    4.9014  -18.9513   22.8809 O   0  0  0  0  0  0  0  0  0  0  0  0
    4.3971  -19.8864   22.2345 C   0  0  0  0  0  0  0  0  0  0  0  0
    5.6942  -19.0362   24.0898 C   0  0  2  0  0  0  0  0  0  0  0  0
    6.1642  -17.7125   24.6177 N   0  0  0  0  0  0  0  0  0  0  0  0
    7.1153  -17.1697   23.5883 C   0  0  0  0  0  0  0  0  0  0  0  0
    7.0014  -17.7766   25.8252 O   0  0  0  0  0  0  0  0  0  0  0  0
    6.4444  -17.5206   26.9557 N   0  0  0  0  0  0  0  0  0  0  0  0
    9.1427  -21.6111   27.9008 C   0  0  0  0  0  0  0  0  0  0  0  0
    9.3014  -20.2970   28.3828 O   0  0  0  0  0  0  0  0  0  0  0  0
   10.2560  -20.0032   29.1451 C   0  0  0  0  0  0  0  0  0  0  0  0
    8.3276  -19.2585   27.9808 C   0  0  1  0  0  0  0  0  0  0  0  0
    9.0617  -18.2213   27.1877 N   0  0  0  0  0  0  0  0  0  0  0  0
    8.3661  -18.0980   25.8757 C   0  0  0  0  0  0  0  0  0  0  0  0
   10.4734  -18.6014   26.9528 O   0  0  0  0  0  0  0  0  0  0  0  0
   10.8687  -19.1010   25.7356 O   0  0  0  0  0  0  0  0  0  0  0  0
  1  2  1  0
  2  4  1  0
  3  2  2  0
  4  5  1  0
  5  6  1  0
  7  6  1  0
  8  9  1  6
  8  7  1  0
 10  8  1  0
 10 11  2  0
 13 15  1  0
 13 12  1  0
 14 13  2  0
 16 15  1  6
 16 17  1  0
 16 18  1  0
 17 10  1  0
 18 25  1  0
 19 18  2  0
 20 21  1  0
 21 23  1  0
 22 21  2  0
 24 23  1  1
 24 26  1  0
 25 24  1  0
 26 28  2  0
 26 27  1  0
M  END
$$$$
