RNN.pdb
     RDKit          3D

 28 27  0  0  1  0  0  0  0  0999 V2000
    8.5661  -15.9720   16.3532 N   0  0  0  0  0  0  0  0  0  0  0  0
    8.1529  -14.6964   15.8957 C   0  0  0  0  0  0  0  0  0  0  0  0
    7.7029  -14.4821   14.6883 N   0  0  0  0  0  0  0  0  0  0  0  0
    8.2067  -13.5575   16.7486 N   0  0  0  0  0  0  0  0  0  0  0  0
    8.5736  -13.6461   18.1603 C   0  0  0  0  0  0  0  0  0  0  0  0
    7.3557  -13.3130   18.9474 C   0  0  0  0  0  0  0  0  0  0  0  0
    7.4416  -13.4329   20.4209 C   0  0  0  0  0  0  0  0  0  0  0  0
    8.5034  -14.3825   20.9016 C   0  0  2  0  0  0  0  0  0  0  0  0
    8.2364  -15.7600   20.5561 N   0  0  0  0  0  0  0  0  0  0  0  0
    8.5387  -14.2181   22.4007 C   0  0  0  0  0  0  0  0  0  0  0  0
    8.7065  -13.0696   22.8703 O   0  0  0  0  0  0  0  0  0  0  0  0
    7.3783  -13.5025   14.4639 N   0  0  0  0  0  0  0  0  0  0  0  0
    6.9644  -13.2021   25.8348 C   0  0  0  0  0  0  0  0  0  0  0  0
    6.2645  -14.4686   25.7188 O   0  0  0  0  0  0  0  0  0  0  0  0
    5.0836  -14.4759   26.1087 C   0  0  0  0  0  0  0  0  0  0  0  0
    7.0212  -15.5717   25.1640 C   0  0  2  0  0  0  0  0  0  0  0  0
    8.4008  -15.2066   24.7003 N   0  0  0  0  0  0  0  0  0  0  0  0
    8.3839  -15.3400   23.2034 C   0  0  0  0  0  0  0  0  0  0  0  0
    9.4660  -16.1416   25.0932 O   0  0  0  0  0  0  0  0  0  0  0  0
    9.1684  -17.0734   25.9281 N   0  0  0  0  0  0  0  0  0  0  0  0
   11.6442  -19.4176   21.4085 C   0  0  0  0  0  0  0  0  0  0  0  0
   11.2367  -19.2838   22.7503 O   0  0  0  0  0  0  0  0  0  0  0  0
   11.4199  -20.2152   23.5733 C   0  0  0  0  0  0  0  0  0  0  0  0
   10.5864  -18.0282   23.1851 C   0  0  2  0  0  0  0  0  0  0  0  0
   11.4600  -17.3927   24.2228 N   0  0  0  0  0  0  0  0  0  0  0  0
   10.7944  -16.1272   24.6420 C   0  0  0  0  0  0  0  0  0  0  0  0
   12.8071  -17.0785   23.6946 O   0  0  0  0  0  0  0  0  0  0  0  0
   13.0300  -15.9162   22.9968 O   0  0  0  0  0  0  0  0  0  0  0  0
  1  2  1  0
  2  4  1  0
  3  2  2  0
  4  5  1  0
  5  6  1  0
  7  6  1  0
  8  9  1  1
  8  7  1  0
 10  8  1  0
 10 11  2  0
 13 15  1  0
 13 12  1  0
 14 13  2  0
 16 15  1  6
 16 17  1  0
 16 18  1  0
 17 10  1  0
 18 25  1  0
 19 18  2  0
 20 21  1  0
 21 23  1  0
 22 21  2  0
 24 23  1  1
 24 26  1  0
 25 24  1  0
 26 28  2  0
 26 27  1  0
M  END
$$$$
