AYE.pdb
     RDKit          3D

 27 27  0  0  1  0  0  0  0  0999 V2000
   16.7961  -10.7793  -17.7133 C   0  0  0  0  0  0  0  0  0  0  0  0
   18.2679  -11.0547  -17.5044 C   0  0  2  0  0  0  0  0  0  0  0  0
   18.3755  -12.3114  -16.7965 N   0  0  0  0  0  0  0  0  0  0  0  0
   18.9447  -10.0112  -16.7356 C   0  0  0  0  0  0  0  0  0  0  0  0
   18.6568   -9.8768  -15.5164 O   0  0  0  0  0  0  0  0  0  0  0  0
   24.4772  -12.7240  -14.8832 O   0  0  0  0  0  0  0  0  0  0  0  0
   23.8601  -11.5670  -15.3056 C   0  0  0  0  0  0  0  0  0  0  0  0
   23.5401  -10.5898  -14.3639 C   0  0  0  0  0  0  0  0  0  0  0  0
   22.9220   -9.4233  -14.7642 C   0  0  0  0  0  0  0  0  0  0  0  0
   22.6383   -9.2642  -16.1053 C   0  0  0  0  0  0  0  0  0  0  0  0
   21.9830   -8.0294  -16.5353 C   0  0  0  0  0  0  0  0  0  0  0  0
   20.4766   -8.0955  -16.4490 C   0  0  2  0  0  0  0  0  0  0  0  0
   19.9158   -9.1269  -17.2716 N   0  0  0  0  0  0  0  0  0  0  0  0
   19.8786   -6.7754  -16.8364 C   0  0  0  0  0  0  0  0  0  0  0  0
   19.5786   -6.5456  -18.0155 O   0  0  0  0  0  0  0  0  0  0  0  0
   22.9552  -10.2368  -17.0528 C   0  0  0  0  0  0  0  0  0  0  0  0
   23.5731  -11.4001  -16.6444 C   0  0  0  0  0  0  0  0  0  0  0  0
   19.6522   -5.7817  -15.8581 N   0  0  0  0  0  0  0  0  0  0  0  0
   18.9757   -4.5332  -16.1000 C   0  0  1  0  0  0  0  0  0  0  0  0
   17.5566   -4.6870  -15.5379 C   0  0  0  0  0  0  0  0  0  0  0  0
   16.8250   -3.3945  -15.8703 C   0  0  0  0  0  0  0  0  0  0  0  0
   15.4414   -3.4144  -15.3580 C   0  0  0  0  0  0  0  0  0  0  0  0
   14.7416   -4.4391  -15.4903 O   0  0  0  0  0  0  0  0  0  0  0  0
   19.6901   -3.4255  -15.4638 C   0  0  0  0  0  0  0  0  0  0  0  0
   19.6082   -2.1484  -15.9834 O   0  0  0  0  0  0  0  0  0  0  0  0
   14.9309   -2.2970  -14.7350 O   0  0  0  0  0  0  0  0  0  0  0  0
   20.3817   -3.6341  -14.4407 O   0  0  0  0  0  0  0  0  0  0  0  0
  2  1  1  1
  2  4  1  0
  3  2  1  0
  4 13  1  0
  5  4  2  0
  7  6  1  0
  8  7  2  0
  9  8  1  0
 10 16  1  0
 10  9  2  0
 11 10  1  0
 12 14  1  0
 12 11  1  6
 13 12  1  0
 14 15  2  0
 16 17  2  0
 17  7  1  0
 18 19  1  0
 18 14  1  0
 19 20  1  1
 20 21  1  0
 21 22  1  0
 22 23  2  0
 22 26  1  0
 24 25  1  0
 24 19  1  0
 27 24  2  0
M  END
$$$$
