AYE.pdb
     RDKit          3D

 27 27  0  0  1  0  0  0  0  0999 V2000
   17.7118  -10.8002  -11.8520 C   0  0  0  0  0  0  0  0  0  0  0  0
   16.4523  -10.6486  -11.0295 C   0  0  2  0  0  0  0  0  0  0  0  0
   15.3817  -11.2940  -11.7569 N   0  0  0  0  0  0  0  0  0  0  0  0
   16.0916   -9.2534  -10.7820 C   0  0  0  0  0  0  0  0  0  0  0  0
   15.5260   -8.6038  -11.7014 O   0  0  0  0  0  0  0  0  0  0  0  0
    9.8690   -8.1531   -7.8489 O   0  0  0  0  0  0  0  0  0  0  0  0
   11.2090   -7.8391   -7.9085 C   0  0  0  0  0  0  0  0  0  0  0  0
   12.1317   -8.7021   -7.3186 C   0  0  0  0  0  0  0  0  0  0  0  0
   13.4785   -8.4078   -7.3660 C   0  0  0  0  0  0  0  0  0  0  0  0
   13.8695   -7.2499   -8.0068 C   0  0  0  0  0  0  0  0  0  0  0  0
   15.2963   -6.9328   -8.0602 C   0  0  0  0  0  0  0  0  0  0  0  0
   15.9156   -7.2075   -9.4101 C   0  0  2  0  0  0  0  0  0  0  0  0
   16.3364   -8.5692   -9.5636 N   0  0  0  0  0  0  0  0  0  0  0  0
   17.0889   -6.3001   -9.6344 C   0  0  0  0  0  0  0  0  0  0  0  0
   17.9645   -6.1824   -8.7670 O   0  0  0  0  0  0  0  0  0  0  0  0
   12.9529   -6.3820   -8.5991 C   0  0  0  0  0  0  0  0  0  0  0  0
   11.6081   -6.6835   -8.5472 C   0  0  0  0  0  0  0  0  0  0  0  0
   17.2051   -5.5710  -10.8389 N   0  0  0  0  0  0  0  0  0  0  0  0
   18.3401   -4.7609  -11.1998 C   0  0  1  0  0  0  0  0  0  0  0  0
   19.3621   -5.7023  -11.8500 C   0  0  0  0  0  0  0  0  0  0  0  0
   20.5210   -4.8253  -12.3019 C   0  0  0  0  0  0  0  0  0  0  0  0
   21.5601   -5.6196  -12.9848 C   0  0  0  0  0  0  0  0  0  0  0  0
   21.7583   -6.8059  -12.6518 O   0  0  0  0  0  0  0  0  0  0  0  0
   17.9411   -3.6869  -12.1105 C   0  0  0  0  0  0  0  0  0  0  0  0
   16.7548   -3.7686  -12.8132 O   0  0  0  0  0  0  0  0  0  0  0  0
   22.3066   -5.0431  -13.9886 O   0  0  0  0  0  0  0  0  0  0  0  0
   18.6786   -2.6853  -12.2558 O   0  0  0  0  0  0  0  0  0  0  0  0
  2  1  1  6
  2  4  1  0
  3  2  1  0
  4 13  1  0
  5  4  2  0
  7  6  1  0
  8  7  2  0
  9  8  1  0
 10 16  1  0
 10  9  2  0
 11 10  1  0
 12 14  1  0
 12 11  1  1
 13 12  1  0
 14 15  2  0
 16 17  2  0
 17  7  1  0
 18 19  1  0
 18 14  1  0
 19 20  1  6
 20 21  1  0
 21 22  1  0
 22 23  2  0
 22 26  1  0
 24 25  1  0
 24 19  1  0
 27 24  2  0
M  END
$$$$
