AYE.pdb
     RDKit          3D

 27 27  0  0  1  0  0  0  0  0999 V2000
   27.4865  -32.2716  -16.7738 C   0  0  0  0  0  0  0  0  0  0  0  0
   27.8981  -31.1538  -17.7048 C   0  0  2  0  0  0  0  0  0  0  0  0
   26.8423  -30.9940  -18.6803 N   0  0  0  0  0  0  0  0  0  0  0  0
   29.1573  -31.4182  -18.3993 C   0  0  0  0  0  0  0  0  0  0  0  0
   29.1185  -31.7532  -19.6132 O   0  0  0  0  0  0  0  0  0  0  0  0
   31.3311  -25.7903  -21.0581 O   0  0  0  0  0  0  0  0  0  0  0  0
   31.6579  -26.9523  -20.3941 C   0  0  0  0  0  0  0  0  0  0  0  0
   32.1105  -28.0464  -21.1304 C   0  0  0  0  0  0  0  0  0  0  0  0
   32.4434  -29.2201  -20.4867 C   0  0  0  0  0  0  0  0  0  0  0  0
   32.3138  -29.2686  -19.1136 C   0  0  0  0  0  0  0  0  0  0  0  0
   32.6653  -30.5106  -18.4258 C   0  0  0  0  0  0  0  0  0  0  0  0
   31.6153  -31.5867  -18.5695 C   0  0  2  0  0  0  0  0  0  0  0  0
   30.4376  -31.3232  -17.7958 N   0  0  0  0  0  0  0  0  0  0  0  0
   32.1811  -32.9172  -18.1695 C   0  0  0  0  0  0  0  0  0  0  0  0
   32.4271  -33.1615  -16.9810 O   0  0  0  0  0  0  0  0  0  0  0  0
   31.8619  -28.1788  -18.3705 C   0  0  0  0  0  0  0  0  0  0  0  0
   31.5311  -27.0091  -19.0218 C   0  0  0  0  0  0  0  0  0  0  0  0
   32.4385  -33.9043  -19.1469 N   0  0  0  0  0  0  0  0  0  0  0  0
   32.9048  -35.2370  -18.8621 C   0  0  1  0  0  0  0  0  0  0  0  0
   32.0853  -36.1868  -19.7454 C   0  0  0  0  0  0  0  0  0  0  0  0
   32.3876  -37.5942  -19.2513 C   0  0  0  0  0  0  0  0  0  0  0  0
   31.3507  -38.0680  -18.3146 C   0  0  0  0  0  0  0  0  0  0  0  0
   30.1440  -37.8840  -18.5743 O   0  0  0  0  0  0  0  0  0  0  0  0
   34.3386  -35.3526  -19.1320 C   0  0  0  0  0  0  0  0  0  0  0  0
   35.1344  -36.1704  -18.3538 O   0  0  0  0  0  0  0  0  0  0  0  0
   31.7243  -38.7123  -17.1560 O   0  0  0  0  0  0  0  0  0  0  0  0
   34.8506  -34.7065  -20.0748 O   0  0  0  0  0  0  0  0  0  0  0  0
  2  1  1  1
  2  4  1  0
  3  2  1  0
  4 13  1  0
  5  4  2  0
  7  6  1  0
  8  7  2  0
  9  8  1  0
 10 16  1  0
 10  9  2  0
 11 10  1  0
 12 14  1  0
 12 11  1  1
 13 12  1  0
 14 15  2  0
 16 17  2  0
 17  7  1  0
 18 19  1  0
 18 14  1  0
 19 20  1  6
 20 21  1  0
 21 22  1  0
 22 23  2  0
 22 26  1  0
 24 25  1  0
 24 19  1  0
 27 24  2  0
M  END
$$$$
