AYE.pdb
     RDKit          3D

 27 27  0  0  1  0  0  0  0  0999 V2000
   27.4557  -19.3961  -18.9509 C   0  0  0  0  0  0  0  0  0  0  0  0
   28.1348  -20.4508  -18.1070 C   0  0  2  0  0  0  0  0  0  0  0  0
   28.1796  -21.6664  -18.8894 N   0  0  0  0  0  0  0  0  0  0  0  0
   27.4397  -20.7155  -16.8482 C   0  0  0  0  0  0  0  0  0  0  0  0
   26.5053  -21.5605  -16.8406 O   0  0  0  0  0  0  0  0  0  0  0  0
   24.5576  -20.7579   -8.6238 O   0  0  0  0  0  0  0  0  0  0  0  0
   25.3291  -20.5654   -9.7487 C   0  0  0  0  0  0  0  0  0  0  0  0
   25.3793  -19.2963  -10.3241 C   0  0  0  0  0  0  0  0  0  0  0  0
   26.1453  -19.0803  -11.4508 C   0  0  0  0  0  0  0  0  0  0  0  0
   26.8457  -20.1472  -11.9759 C   0  0  0  0  0  0  0  0  0  0  0  0
   27.6594  -19.9239  -13.1705 C   0  0  0  0  0  0  0  0  0  0  0  0
   26.9929  -20.3981  -14.4402 C   0  0  2  0  0  0  0  0  0  0  0  0
   27.7463  -20.0800  -15.6175 N   0  0  0  0  0  0  0  0  0  0  0  0
   25.6208  -19.8032  -14.5565 C   0  0  0  0  0  0  0  0  0  0  0  0
   25.4760  -18.6301  -14.9251 O   0  0  0  0  0  0  0  0  0  0  0  0
   26.8005  -21.4190  -11.4063 C   0  0  0  0  0  0  0  0  0  0  0  0
   26.0323  -21.6265  -10.2799 C   0  0  0  0  0  0  0  0  0  0  0  0
   24.4805  -20.5772  -14.2461 N   0  0  0  0  0  0  0  0  0  0  0  0
   23.1320  -20.0719  -14.2119 C   0  0  1  0  0  0  0  0  0  0  0  0
   22.4076  -20.6721  -15.4238 C   0  0  0  0  0  0  0  0  0  0  0  0
   20.9905  -20.1178  -15.3897 C   0  0  0  0  0  0  0  0  0  0  0  0
   20.1469  -20.7384  -16.4290 C   0  0  0  0  0  0  0  0  0  0  0  0
   20.6583  -21.4987  -17.2763 O   0  0  0  0  0  0  0  0  0  0  0  0
   22.4743  -20.4362  -12.9562 C   0  0  0  0  0  0  0  0  0  0  0  0
   21.5110  -19.6138  -12.4054 O   0  0  0  0  0  0  0  0  0  0  0  0
   18.7957  -20.4726  -16.4561 O   0  0  0  0  0  0  0  0  0  0  0  0
   22.7851  -21.5009  -12.3745 O   0  0  0  0  0  0  0  0  0  0  0  0
  2  1  1  6
  2  4  1  0
  3  2  1  0
  4 13  1  0
  5  4  2  0
  7  6  1  0
  8  7  2  0
  9  8  1  0
 10 16  1  0
 10  9  2  0
 11 10  1  0
 12 14  1  0
 12 11  1  1
 13 12  1  0
 14 15  2  0
 16 17  2  0
 17  7  1  0
 18 19  1  0
 18 14  1  0
 19 20  1  6
 20 21  1  0
 21 22  1  0
 22 23  2  0
 22 26  1  0
 24 25  1  0
 24 19  1  0
 27 24  2  0
M  END
$$$$
