AYE.pdb
     RDKit          3D

 27 27  0  0  1  0  0  0  0  0999 V2000
   22.3372  -10.9560  -20.7465 C   0  0  0  0  0  0  0  0  0  0  0  0
   23.6251  -10.9932  -19.9556 C   0  0  2  0  0  0  0  0  0  0  0  0
   23.7965  -12.3461  -19.4736 N   0  0  0  0  0  0  0  0  0  0  0  0
   23.6282  -10.0745  -18.8182 C   0  0  0  0  0  0  0  0  0  0  0  0
   23.0206  -10.4123  -17.7675 O   0  0  0  0  0  0  0  0  0  0  0  0
   28.8192  -12.3468  -16.1313 O   0  0  0  0  0  0  0  0  0  0  0  0
   28.0751  -11.2164  -16.3893 C   0  0  0  0  0  0  0  0  0  0  0  0
   28.1888  -10.6031  -17.6363 C   0  0  0  0  0  0  0  0  0  0  0  0
   27.4533   -9.4703  -17.9167 C   0  0  0  0  0  0  0  0  0  0  0  0
   26.6176   -8.9775  -16.9352 C   0  0  0  0  0  0  0  0  0  0  0  0
   25.8353   -7.7767  -17.2270 C   0  0  0  0  0  0  0  0  0  0  0  0
   24.3999   -8.0764  -17.5888 C   0  0  2  0  0  0  0  0  0  0  0  0
   24.2756   -8.8121  -18.8129 N   0  0  0  0  0  0  0  0  0  0  0  0
   23.6176   -6.8011  -17.6980 C   0  0  0  0  0  0  0  0  0  0  0  0
   23.7418   -6.0733  -18.6919 O   0  0  0  0  0  0  0  0  0  0  0  0
   26.4985   -9.5852  -15.6860 C   0  0  0  0  0  0  0  0  0  0  0  0
   27.2374  -10.7174  -15.4137 C   0  0  0  0  0  0  0  0  0  0  0  0
   22.7313   -6.4190  -16.6664 N   0  0  0  0  0  0  0  0  0  0  0  0
   21.9129   -5.2338  -16.6868 C   0  0  1  0  0  0  0  0  0  0  0  0
   20.6553   -5.5547  -15.8688 C   0  0  0  0  0  0  0  0  0  0  0  0
   19.7466   -4.3400  -15.9916 C   0  0  0  0  0  0  0  0  0  0  0  0
   18.4464   -4.5744  -15.3345 C   0  0  0  0  0  0  0  0  0  0  0  0
   17.6932   -3.6124  -15.0803 O   0  0  0  0  0  0  0  0  0  0  0  0
   22.6408   -4.0924  -16.1306 C   0  0  0  0  0  0  0  0  0  0  0  0
   22.6533   -2.8797  -16.7917 O   0  0  0  0  0  0  0  0  0  0  0  0
   18.0728   -5.8586  -15.0052 O   0  0  0  0  0  0  0  0  0  0  0  0
   23.2578   -4.2130  -15.0474 O   0  0  0  0  0  0  0  0  0  0  0  0
  2  1  1  1
  2  4  1  0
  3  2  1  0
  4 13  1  0
  5  4  2  0
  7  6  1  0
  8  7  2  0
  9  8  1  0
 10 16  1  0
 10  9  2  0
 11 10  1  0
 12 14  1  0
 12 11  1  6
 13 12  1  0
 14 15  2  0
 16 17  2  0
 17  7  1  0
 18 19  1  0
 18 14  1  0
 19 20  1  1
 20 21  1  0
 21 22  1  0
 22 23  2  0
 22 26  1  0
 24 25  1  0
 24 19  1  0
 27 24  2  0
M  END
$$$$
