AYE.pdb
     RDKit          3D

 27 27  0  0  1  0  0  0  0  0999 V2000
   27.6017  -20.4272  -18.6197 C   0  0  0  0  0  0  0  0  0  0  0  0
   28.1616  -21.4523  -17.6598 C   0  0  2  0  0  0  0  0  0  0  0  0
   28.0915  -22.7401  -18.3145 N   0  0  0  0  0  0  0  0  0  0  0  0
   27.4299  -21.5161  -16.3955 C   0  0  0  0  0  0  0  0  0  0  0  0
   26.4242  -22.2710  -16.3174 O   0  0  0  0  0  0  0  0  0  0  0  0
   24.4369  -20.4876   -8.2808 O   0  0  0  0  0  0  0  0  0  0  0  0
   25.2363  -20.4844   -9.4028 C   0  0  0  0  0  0  0  0  0  0  0  0
   25.7595  -19.2739   -9.8558 C   0  0  0  0  0  0  0  0  0  0  0  0
   26.5624  -19.2468  -10.9771 C   0  0  0  0  0  0  0  0  0  0  0  0
   26.8226  -20.4398  -11.6201 C   0  0  0  0  0  0  0  0  0  0  0  0
   27.6734  -20.4170  -12.8096 C   0  0  0  0  0  0  0  0  0  0  0  0
   26.9557  -20.8626  -14.0616 C   0  0  2  0  0  0  0  0  0  0  0  0
   27.7761  -20.7786  -15.2341 N   0  0  0  0  0  0  0  0  0  0  0  0
   25.7167  -20.0423  -14.2665 C   0  0  0  0  0  0  0  0  0  0  0  0
   25.7939  -18.8947  -14.7247 O   0  0  0  0  0  0  0  0  0  0  0  0
   26.3032  -21.6541  -11.1732 C   0  0  0  0  0  0  0  0  0  0  0  0
   25.5013  -21.6725  -10.0514 C   0  0  0  0  0  0  0  0  0  0  0  0
   24.4492  -20.5727  -13.9378 N   0  0  0  0  0  0  0  0  0  0  0  0
   23.2158  -19.8296  -13.9743 C   0  0  1  0  0  0  0  0  0  0  0  0
   22.8826  -19.6047  -15.4549 C   0  0  0  0  0  0  0  0  0  0  0  0
   22.3707  -20.9372  -15.9828 C   0  0  0  0  0  0  0  0  0  0  0  0
   22.3988  -20.9763  -17.4575 C   0  0  0  0  0  0  0  0  0  0  0  0
   21.5732  -20.3105  -18.1153 O   0  0  0  0  0  0  0  0  0  0  0  0
   22.1502  -20.5608  -13.2872 C   0  0  0  0  0  0  0  0  0  0  0  0
   20.9482  -19.9434  -13.0015 O   0  0  0  0  0  0  0  0  0  0  0  0
   23.3399  -21.7505  -18.0993 O   0  0  0  0  0  0  0  0  0  0  0  0
   22.3268  -21.7552  -12.9546 O   0  0  0  0  0  0  0  0  0  0  0  0
  2  1  1  6
  2  4  1  0
  3  2  1  0
  4 13  1  0
  5  4  2  0
  7  6  1  0
  8  7  2  0
  9  8  1  0
 10 16  1  0
 10  9  2  0
 11 10  1  0
 12 14  1  0
 12 11  1  1
 13 12  1  0
 14 15  2  0
 16 17  2  0
 17  7  1  0
 18 19  1  0
 18 14  1  0
 19 20  1  6
 20 21  1  0
 21 22  1  0
 22 23  2  0
 22 26  1  0
 24 25  1  0
 24 19  1  0
 27 24  2  0
M  END
$$$$
