AYE.pdb
     RDKit          3D

 27 27  0  0  1  0  0  0  0  0999 V2000
   22.3296  -10.8307  -19.7437 C   0  0  0  0  0  0  0  0  0  0  0  0
   21.6486  -11.6638  -18.6817 C   0  0  2  0  0  0  0  0  0  0  0  0
   21.0086  -12.7755  -19.3498 N   0  0  0  0  0  0  0  0  0  0  0  0
   20.6459  -10.9189  -17.9217 C   0  0  0  0  0  0  0  0  0  0  0  0
   19.5362  -10.6729  -18.4653 O   0  0  0  0  0  0  0  0  0  0  0  0
   16.0018  -14.6807  -15.4198 O   0  0  0  0  0  0  0  0  0  0  0  0
   16.8149  -13.5841  -15.2346 C   0  0  0  0  0  0  0  0  0  0  0  0
   18.1753  -13.7835  -15.0029 C   0  0  0  0  0  0  0  0  0  0  0  0
   19.0083  -12.7003  -14.8147 C   0  0  0  0  0  0  0  0  0  0  0  0
   18.4545  -11.4372  -14.8636 C   0  0  0  0  0  0  0  0  0  0  0  0
   19.3331  -10.2849  -14.6647 C   0  0  0  0  0  0  0  0  0  0  0  0
   19.8115   -9.6724  -15.9598 C   0  0  2  0  0  0  0  0  0  0  0  0
   20.8357  -10.4465  -16.5976 N   0  0  0  0  0  0  0  0  0  0  0  0
   20.3222   -8.2831  -15.7165 C   0  0  0  0  0  0  0  0  0  0  0  0
   21.4690   -8.1039  -15.2856 O   0  0  0  0  0  0  0  0  0  0  0  0
   17.0952  -11.2298  -15.0949 C   0  0  0  0  0  0  0  0  0  0  0  0
   16.2693  -12.3182  -15.2820 C   0  0  0  0  0  0  0  0  0  0  0  0
   19.4981   -7.1657  -15.9772 N   0  0  0  0  0  0  0  0  0  0  0  0
   19.8985   -5.7934  -15.7999 C   0  0  1  0  0  0  0  0  0  0  0  0
   20.2408   -5.2525  -17.1941 C   0  0  0  0  0  0  0  0  0  0  0  0
   20.5973   -3.7850  -17.0053 C   0  0  0  0  0  0  0  0  0  0  0  0
   20.8169   -3.1154  -18.3016 C   0  0  0  0  0  0  0  0  0  0  0  0
   21.1295   -1.9077  -18.3353 O   0  0  0  0  0  0  0  0  0  0  0  0
   18.8284   -5.0192  -15.1693 C   0  0  0  0  0  0  0  0  0  0  0  0
   19.1220   -3.8873  -14.4344 O   0  0  0  0  0  0  0  0  0  0  0  0
   20.6746   -3.8317  -19.4695 O   0  0  0  0  0  0  0  0  0  0  0  0
   17.6367   -5.3833  -15.2953 O   0  0  0  0  0  0  0  0  0  0  0  0
  2  1  1  6
  2  4  1  0
  3  2  1  0
  4 13  1  0
  5  4  2  0
  7  6  1  0
  8  7  2  0
  9  8  1  0
 10 16  1  0
 10  9  2  0
 11 10  1  0
 12 14  1  0
 12 11  1  1
 13 12  1  0
 14 15  2  0
 16 17  2  0
 17  7  1  0
 18 19  1  0
 18 14  1  0
 19 20  1  6
 20 21  1  0
 21 22  1  0
 22 23  2  0
 22 26  1  0
 24 25  1  0
 24 19  1  0
 27 24  2  0
M  END
$$$$
