AYE.pdb
     RDKit          3D

 27 27  0  0  1  0  0  0  0  0999 V2000
   26.7422  -21.2761  -18.5687 C   0  0  0  0  0  0  0  0  0  0  0  0
   27.8288  -21.4705  -17.5356 C   0  0  2  0  0  0  0  0  0  0  0  0
   28.5168  -22.7008  -17.8593 N   0  0  0  0  0  0  0  0  0  0  0  0
   27.3148  -21.5532  -16.1692 C   0  0  0  0  0  0  0  0  0  0  0  0
   26.7202  -22.6044  -15.8104 O   0  0  0  0  0  0  0  0  0  0  0  0
   25.4080  -20.4077   -7.7600 O   0  0  0  0  0  0  0  0  0  0  0  0
   25.9688  -20.2977   -9.0136 C   0  0  0  0  0  0  0  0  0  0  0  0
   25.5596  -19.2579   -9.8476 C   0  0  0  0  0  0  0  0  0  0  0  0
   26.1074  -19.1284  -11.1068 C   0  0  0  0  0  0  0  0  0  0  0  0
   27.0569  -20.0488  -11.5013 C   0  0  0  0  0  0  0  0  0  0  0  0
   27.6412  -19.9163  -12.8356 C   0  0  0  0  0  0  0  0  0  0  0  0
   26.8949  -20.6975  -13.8910 C   0  0  2  0  0  0  0  0  0  0  0  0
   27.4395  -20.5200  -15.2051 N   0  0  0  0  0  0  0  0  0  0  0  0
   25.4477  -20.3028  -13.8990 C   0  0  0  0  0  0  0  0  0  0  0  0
   25.0901  -19.2447  -14.4333 O   0  0  0  0  0  0  0  0  0  0  0  0
   27.4712  -21.0912  -10.6731 C   0  0  0  0  0  0  0  0  0  0  0  0
   26.9185  -21.2136   -9.4156 C   0  0  0  0  0  0  0  0  0  0  0  0
   24.4791  -21.1360  -13.2963 N   0  0  0  0  0  0  0  0  0  0  0  0
   23.0837  -20.8049  -13.1612 C   0  0  1  0  0  0  0  0  0  0  0  0
   22.3157  -21.7538  -14.0904 C   0  0  0  0  0  0  0  0  0  0  0  0
   22.1628  -21.0204  -15.4153 C   0  0  0  0  0  0  0  0  0  0  0  0
   20.7623  -20.6178  -15.6469 C   0  0  0  0  0  0  0  0  0  0  0  0
   20.4889  -19.8015  -16.5503 O   0  0  0  0  0  0  0  0  0  0  0  0
   22.6506  -20.9452  -11.7703 C   0  0  0  0  0  0  0  0  0  0  0  0
   21.4813  -20.3511  -11.3371 O   0  0  0  0  0  0  0  0  0  0  0  0
   19.7635  -21.1484  -14.8607 O   0  0  0  0  0  0  0  0  0  0  0  0
   23.3431  -21.6082  -10.9645 O   0  0  0  0  0  0  0  0  0  0  0  0
  2  1  1  6
  2  4  1  0
  3  2  1  0
  4 13  1  0
  5  4  2  0
  7  6  1  0
  8  7  2  0
  9  8  1  0
 10 16  1  0
 10  9  2  0
 11 10  1  0
 12 14  1  0
 12 11  1  1
 13 12  1  0
 14 15  2  0
 16 17  2  0
 17  7  1  0
 18 19  1  0
 18 14  1  0
 19 20  1  6
 20 21  1  0
 21 22  1  0
 22 23  2  0
 22 26  1  0
 24 25  1  0
 24 19  1  0
 27 24  2  0
M  END
$$$$
