AYE.pdb
     RDKit          3D

 27 27  0  0  1  0  0  0  0  0999 V2000
   21.1244  -15.6936  -17.2413 C   0  0  0  0  0  0  0  0  0  0  0  0
   22.5641  -16.0464  -16.9435 C   0  0  2  0  0  0  0  0  0  0  0  0
   23.3581  -15.6053  -18.0691 N   0  0  0  0  0  0  0  0  0  0  0  0
   22.7747  -17.4788  -16.7394 C   0  0  0  0  0  0  0  0  0  0  0  0
   22.9247  -18.2169  -17.7494 O   0  0  0  0  0  0  0  0  0  0  0  0
   25.0117  -25.4554  -14.6549 O   0  0  0  0  0  0  0  0  0  0  0  0
   24.7919  -24.0957  -14.6278 C   0  0  0  0  0  0  0  0  0  0  0  0
   24.0287  -23.5555  -13.5934 C   0  0  0  0  0  0  0  0  0  0  0  0
   23.7957  -22.1968  -13.5460 C   0  0  0  0  0  0  0  0  0  0  0  0
   24.3362  -21.4087  -14.5416 C   0  0  0  0  0  0  0  0  0  0  0  0
   24.0923  -19.9673  -14.4964 C   0  0  0  0  0  0  0  0  0  0  0  0
   22.9450  -19.5312  -15.3765 C   0  0  2  0  0  0  0  0  0  0  0  0
   22.8230  -18.1058  -15.4678 N   0  0  0  0  0  0  0  0  0  0  0  0
   21.6560  -20.1052  -14.8670 C   0  0  0  0  0  0  0  0  0  0  0  0
   21.1391  -19.6630  -13.8326 O   0  0  0  0  0  0  0  0  0  0  0  0
   25.1004  -21.9414  -15.5791 C   0  0  0  0  0  0  0  0  0  0  0  0
   25.3286  -23.3009  -15.6191 C   0  0  0  0  0  0  0  0  0  0  0  0
   21.0201  -21.1566  -15.5641 N   0  0  0  0  0  0  0  0  0  0  0  0
   19.7586  -21.7425  -15.1895 C   0  0  1  0  0  0  0  0  0  0  0  0
   19.2028  -22.4273  -16.4448 C   0  0  0  0  0  0  0  0  0  0  0  0
   17.8982  -23.0897  -16.0256 C   0  0  0  0  0  0  0  0  0  0  0  0
   17.1406  -23.5708  -17.1968 C   0  0  0  0  0  0  0  0  0  0  0  0
   17.6312  -24.4433  -17.9421 O   0  0  0  0  0  0  0  0  0  0  0  0
   19.9352  -22.6929  -14.0906 C   0  0  0  0  0  0  0  0  0  0  0  0
   19.0191  -22.7488  -13.0584 O   0  0  0  0  0  0  0  0  0  0  0  0
   15.8925  -23.0509  -17.4594 O   0  0  0  0  0  0  0  0  0  0  0  0
   20.9232  -23.4625  -14.0833 O   0  0  0  0  0  0  0  0  0  0  0  0
  2  1  1  6
  2  4  1  0
  3  2  1  0
  4 13  1  0
  5  4  2  0
  7  6  1  0
  8  7  2  0
  9  8  1  0
 10 16  1  0
 10  9  2  0
 11 10  1  0
 12 14  1  0
 12 11  1  1
 13 12  1  0
 14 15  2  0
 16 17  2  0
 17  7  1  0
 18 19  1  0
 18 14  1  0
 19 20  1  6
 20 21  1  0
 21 22  1  0
 22 23  2  0
 22 26  1  0
 24 25  1  0
 24 19  1  0
 27 24  2  0
M  END
$$$$
