AYE.pdb
     RDKit          3D

 27 27  0  0  1  0  0  0  0  0999 V2000
   16.7696  -11.8503  -17.9270 C   0  0  0  0  0  0  0  0  0  0  0  0
   17.7771  -12.2122  -16.8595 C   0  0  2  0  0  0  0  0  0  0  0  0
   17.1208  -13.1081  -15.9328 N   0  0  0  0  0  0  0  0  0  0  0  0
   18.2824  -11.0512  -16.1284 C   0  0  0  0  0  0  0  0  0  0  0  0
   17.5134  -10.4645  -15.3211 O   0  0  0  0  0  0  0  0  0  0  0  0
   22.8502   -4.1494  -13.4024 O   0  0  0  0  0  0  0  0  0  0  0  0
   22.4972   -5.3885  -13.8902 C   0  0  0  0  0  0  0  0  0  0  0  0
   21.9586   -6.3306  -13.0146 C   0  0  0  0  0  0  0  0  0  0  0  0
   21.5980   -7.5777  -13.4809 C   0  0  0  0  0  0  0  0  0  0  0  0
   21.7871   -7.8514  -14.8202 C   0  0  0  0  0  0  0  0  0  0  0  0
   21.4065   -9.1722  -15.3202 C   0  0  0  0  0  0  0  0  0  0  0  0
   19.9370   -9.2809  -15.6514 C   0  0  2  0  0  0  0  0  0  0  0  0
   19.5950  -10.5305  -16.2650 N   0  0  0  0  0  0  0  0  0  0  0  0
   19.5272   -8.1578  -16.5574 C   0  0  0  0  0  0  0  0  0  0  0  0
   19.8284   -8.1799  -17.7581 O   0  0  0  0  0  0  0  0  0  0  0  0
   22.3250   -6.9147  -15.7019 C   0  0  0  0  0  0  0  0  0  0  0  0
   22.6829   -5.6701  -15.2276 C   0  0  0  0  0  0  0  0  0  0  0  0
   18.7931   -7.0636  -16.0478 N   0  0  0  0  0  0  0  0  0  0  0  0
   18.2890   -5.9737  -16.8433 C   0  0  1  0  0  0  0  0  0  0  0  0
   16.8545   -5.7100  -16.3675 C   0  0  0  0  0  0  0  0  0  0  0  0
   16.2884   -4.6434  -17.2939 C   0  0  0  0  0  0  0  0  0  0  0  0
   14.9213   -4.2573  -16.8950 C   0  0  0  0  0  0  0  0  0  0  0  0
   13.9601   -5.0105  -17.1517 O   0  0  0  0  0  0  0  0  0  0  0  0
   19.1335   -4.7880  -16.6916 C   0  0  0  0  0  0  0  0  0  0  0  0
   19.2856   -3.8977  -17.7365 O   0  0  0  0  0  0  0  0  0  0  0  0
   14.7160   -3.0634  -16.2395 O   0  0  0  0  0  0  0  0  0  0  0  0
   19.7239   -4.5765  -15.6076 O   0  0  0  0  0  0  0  0  0  0  0  0
  2  1  1  6
  2  4  1  0
  3  2  1  0
  4 13  1  0
  5  4  2  0
  7  6  1  0
  8  7  2  0
  9  8  1  0
 10 16  1  0
 10  9  2  0
 11 10  1  0
 12 14  1  0
 12 11  1  6
 13 12  1  0
 14 15  2  0
 16 17  2  0
 17  7  1  0
 18 19  1  0
 18 14  1  0
 19 20  1  1
 20 21  1  0
 21 22  1  0
 22 23  2  0
 22 26  1  0
 24 25  1  0
 24 19  1  0
 27 24  2  0
M  END
$$$$
