SFS.pdb
     RDKit          3D

 24 24  0  0  1  0  0  0  0  0999 V2000
    7.5033  -19.6993   21.2673 O   0  0  0  0  0  0  0  0  0  0  0  0
    6.1806  -19.2745   21.2636 C   0  0  0  0  0  0  0  0  0  0  0  0
    6.0818  -17.7946   20.9648 C   0  0  2  0  0  0  0  0  0  0  0  0
    6.3813  -17.4955   19.5942 N   0  0  0  0  0  0  0  0  0  0  0  0
    6.9290  -16.9882   21.8461 C   0  0  0  0  0  0  0  0  0  0  0  0
    8.0110  -16.5163   21.4310 O   0  0  0  0  0  0  0  0  0  0  0  0
    6.5058  -16.7486   23.1797 N   0  0  0  0  0  0  0  0  0  0  0  0
    7.2101  -15.8776   24.0742 C   0  0  1  0  0  0  0  0  0  0  0  0
    6.2571  -15.4947   25.1878 C   0  0  0  0  0  0  0  0  0  0  0  0
    6.7817  -14.3430   25.9550 C   0  0  0  0  0  0  0  0  0  0  0  0
    7.7137  -14.5067   26.9787 C   0  0  0  0  0  0  0  0  0  0  0  0
    8.2017  -13.4349   27.6924 C   0  0  0  0  0  0  0  0  0  0  0  0
    7.7585  -12.1673   27.3884 C   0  0  0  0  0  0  0  0  0  0  0  0
    6.8362  -11.9814   26.3790 C   0  0  0  0  0  0  0  0  0  0  0  0
    6.3517  -13.0525   25.6692 C   0  0  0  0  0  0  0  0  0  0  0  0
    8.4069  -16.5646   24.5842 C   0  0  0  0  0  0  0  0  0  0  0  0
    8.3072  -17.5982   25.2945 O   0  0  0  0  0  0  0  0  0  0  0  0
   12.3046  -15.3962   23.4081 O   0  0  0  0  0  0  0  0  0  0  0  0
   11.9312  -16.7119   23.5371 C   0  0  0  0  0  0  0  0  0  0  0  0
   10.8801  -16.9207   24.6148 C   0  0  2  0  0  0  0  0  0  0  0  0
    9.7323  -16.1123   24.3119 N   0  0  0  0  0  0  0  0  0  0  0  0
   11.3818  -16.6279   25.9546 C   0  0  0  0  0  0  0  0  0  0  0  0
   12.4061  -17.1905   26.4048 O   0  0  0  0  0  0  0  0  0  0  0  0
   10.7279  -15.7138   26.7598 O   0  0  0  0  0  0  0  0  0  0  0  0
  2  1  1  0
  3  2  1  0
  3  4  1  6
  5  3  1  0
  5  6  2  0
  7  5  1  0
  8  7  1  0
  9 10  1  0
  8  9  1  1
 10 15  2  0
 11 10  1  0
 11 12  2  0
 12 13  1  0
 13 14  2  0
 15 14  1  0
 16 21  1  0
 16  8  1  0
 17 16  2  0
 18 19  1  0
 20 19  1  6
 20 21  1  0
 20 22  1  0
 22 23  2  0
 22 24  1  0
M  END
$$$$
