SFS.pdb
     RDKit          3D

 24 24  0  0  1  0  0  0  0  0999 V2000
    8.6037  -16.2607   18.9300 O   0  0  0  0  0  0  0  0  0  0  0  0
    7.3230  -15.7645   19.1389 C   0  0  0  0  0  0  0  0  0  0  0  0
    7.3641  -14.3394   19.6457 C   0  0  2  0  0  0  0  0  0  0  0  0
    8.0436  -13.4595   18.7392 N   0  0  0  0  0  0  0  0  0  0  0  0
    7.9607  -14.2369   20.9792 C   0  0  0  0  0  0  0  0  0  0  0  0
    9.1216  -13.7928   21.1241 O   0  0  0  0  0  0  0  0  0  0  0  0
    7.2035  -14.6487   22.1070 N   0  0  0  0  0  0  0  0  0  0  0  0
    7.6921  -14.5468   23.4508 C   0  0  1  0  0  0  0  0  0  0  0  0
    6.5020  -14.2992   24.3547 C   0  0  0  0  0  0  0  0  0  0  0  0
    6.9072  -13.5441   25.5613 C   0  0  0  0  0  0  0  0  0  0  0  0
    6.5288  -12.2167   25.7575 C   0  0  0  0  0  0  0  0  0  0  0  0
    6.9060  -11.5142   26.8803 C   0  0  0  0  0  0  0  0  0  0  0  0
    7.6773  -12.1377   27.8354 C   0  0  0  0  0  0  0  0  0  0  0  0
    8.0636  -13.4510   27.6622 C   0  0  0  0  0  0  0  0  0  0  0  0
    7.6857  -14.1486   26.5414 C   0  0  0  0  0  0  0  0  0  0  0  0
    8.4071  -15.7826   23.8060 C   0  0  0  0  0  0  0  0  0  0  0  0
    7.8563  -16.9072   23.6848 O   0  0  0  0  0  0  0  0  0  0  0  0
   12.4857  -15.9938   23.8566 O   0  0  0  0  0  0  0  0  0  0  0  0
   11.6820  -17.1022   23.7442 C   0  0  0  0  0  0  0  0  0  0  0  0
   10.4321  -17.0103   24.6038 C   0  0  2  0  0  0  0  0  0  0  0  0
    9.7450  -15.7860   24.3013 N   0  0  0  0  0  0  0  0  0  0  0  0
   10.7229  -17.1027   26.0318 C   0  0  0  0  0  0  0  0  0  0  0  0
   11.3624  -18.0696   26.5059 O   0  0  0  0  0  0  0  0  0  0  0  0
   10.2929  -16.1134   26.8966 O   0  0  0  0  0  0  0  0  0  0  0  0
  2  1  1  0
  3  2  1  0
  3  4  1  6
  5  3  1  0
  5  6  2  0
  7  5  1  0
  8  7  1  0
  9 10  1  0
  8  9  1  1
 10 15  2  0
 11 10  1  0
 11 12  2  0
 12 13  1  0
 13 14  2  0
 15 14  1  0
 16 21  1  0
 16  8  1  0
 17 16  2  0
 18 19  1  0
 20 19  1  6
 20 21  1  0
 20 22  1  0
 22 23  2  0
 22 24  1  0
M  END
$$$$
