SFS.pdb
     RDKit          3D

 24 24  0  0  1  0  0  0  0  0999 V2000
   10.2714  -18.7804   20.8649 O   0  0  0  0  0  0  0  0  0  0  0  0
    9.0621  -18.0973   20.8958 C   0  0  0  0  0  0  0  0  0  0  0  0
    9.2788  -16.5999   20.8908 C   0  0  2  0  0  0  0  0  0  0  0  0
   10.0194  -16.1618   19.7430 N   0  0  0  0  0  0  0  0  0  0  0  0
    9.9299  -16.1248   22.1135 C   0  0  0  0  0  0  0  0  0  0  0  0
   11.1366  -15.7942   22.1042 O   0  0  0  0  0  0  0  0  0  0  0  0
    9.1725  -16.0443   23.3114 N   0  0  0  0  0  0  0  0  0  0  0  0
    9.7417  -15.6475   24.5658 C   0  0  1  0  0  0  0  0  0  0  0  0
    8.5995  -15.3186   25.5049 C   0  0  0  0  0  0  0  0  0  0  0  0
    9.1124  -14.8712   26.8191 C   0  0  0  0  0  0  0  0  0  0  0  0
    9.4297  -13.5365   27.0671 C   0  0  0  0  0  0  0  0  0  0  0  0
    9.9070  -13.1205   28.2900 C   0  0  0  0  0  0  0  0  0  0  0  0
   10.0761  -14.0458   29.2955 C   0  0  0  0  0  0  0  0  0  0  0  0
    9.7685  -15.3724   29.0725 C   0  0  0  0  0  0  0  0  0  0  0  0
    9.2928  -15.7838   27.8518 C   0  0  0  0  0  0  0  0  0  0  0  0
   10.5869  -16.7343   25.0847 C   0  0  0  0  0  0  0  0  0  0  0  0
   10.1374  -17.9031   25.2053 O   0  0  0  0  0  0  0  0  0  0  0  0
   14.7067  -16.2208   25.4993 O   0  0  0  0  0  0  0  0  0  0  0  0
   14.1573  -17.4466   25.2118 C   0  0  0  0  0  0  0  0  0  0  0  0
   12.7889  -17.6393   25.8441 C   0  0  2  0  0  0  0  0  0  0  0  0
   11.9443  -16.5372   25.4770 N   0  0  0  0  0  0  0  0  0  0  0  0
   12.8547  -17.7812   27.2960 C   0  0  0  0  0  0  0  0  0  0  0  0
   12.2288  -17.0071   28.0560 O   0  0  0  0  0  0  0  0  0  0  0  0
   13.6177  -18.7841   27.8649 O   0  0  0  0  0  0  0  0  0  0  0  0
  2  1  1  0
  3  2  1  0
  3  4  1  6
  5  3  1  0
  5  6  2  0
  7  5  1  0
  8  7  1  0
  9 10  1  0
  8  9  1  1
 10 15  2  0
 11 10  1  0
 11 12  2  0
 12 13  1  0
 13 14  2  0
 15 14  1  0
 16 21  1  0
 16  8  1  0
 17 16  2  0
 18 19  1  0
 20 19  1  1
 20 21  1  0
 20 22  1  0
 22 23  2  0
 22 24  1  0
M  END
$$$$
