SFS.pdb
     RDKit          3D

 24 24  0  0  1  0  0  0  0  0999 V2000
   10.4330  -20.1850   19.6804 O   0  0  0  0  0  0  0  0  0  0  0  0
    9.1327  -19.7712   19.4194 C   0  0  0  0  0  0  0  0  0  0  0  0
    9.1018  -18.3406   18.9279 C   0  0  2  0  0  0  0  0  0  0  0  0
    9.5529  -18.2220   17.5714 N   0  0  0  0  0  0  0  0  0  0  0  0
    9.8691  -17.4369   19.7878 C   0  0  0  0  0  0  0  0  0  0  0  0
   10.9507  -16.9478   19.3918 O   0  0  0  0  0  0  0  0  0  0  0  0
    9.3688  -17.1227   21.0785 N   0  0  0  0  0  0  0  0  0  0  0  0
   10.0184  -16.1976   21.9600 C   0  0  1  0  0  0  0  0  0  0  0  0
    8.9407  -15.4682   22.7355 C   0  0  0  0  0  0  0  0  0  0  0  0
    8.2180  -14.5169   21.8621 C   0  0  0  0  0  0  0  0  0  0  0  0
    6.9441  -14.7960   21.3691 C   0  0  0  0  0  0  0  0  0  0  0  0
    6.2718  -13.9107   20.5564 C   0  0  0  0  0  0  0  0  0  0  0  0
    6.8719  -12.7178   20.2207 C   0  0  0  0  0  0  0  0  0  0  0  0
    8.1324  -12.4204   20.6972 C   0  0  0  0  0  0  0  0  0  0  0  0
    8.8000  -13.3055   21.5074 C   0  0  0  0  0  0  0  0  0  0  0  0
   10.9365  -16.9296   22.8466 C   0  0  0  0  0  0  0  0  0  0  0  0
   10.5778  -17.9932   23.4147 O   0  0  0  0  0  0  0  0  0  0  0  0
   14.8878  -15.6070   23.5897 O   0  0  0  0  0  0  0  0  0  0  0  0
   14.6109  -16.9423   23.4232 C   0  0  0  0  0  0  0  0  0  0  0  0
   13.1965  -17.3052   23.8444 C   0  0  2  0  0  0  0  0  0  0  0  0
   12.2668  -16.4894   23.1144 N   0  0  0  0  0  0  0  0  0  0  0  0
   12.9857  -17.1712   25.2831 C   0  0  0  0  0  0  0  0  0  0  0  0
   13.7263  -17.7541   26.1078 O   0  0  0  0  0  0  0  0  0  0  0  0
   11.9530  -16.3895   25.7668 O   0  0  0  0  0  0  0  0  0  0  0  0
  2  1  1  0
  3  2  1  0
  3  4  1  6
  5  3  1  0
  5  6  2  0
  7  5  1  0
  8  7  1  0
  9 10  1  0
  8  9  1  1
 10 15  2  0
 11 10  1  0
 11 12  2  0
 12 13  1  0
 13 14  2  0
 15 14  1  0
 16 21  1  0
 16  8  1  0
 17 16  2  0
 18 19  1  0
 20 19  1  1
 20 21  1  0
 20 22  1  0
 22 23  2  0
 22 24  1  0
M  END
$$$$
