SFS.pdb
     RDKit          3D

 24 24  0  0  1  0  0  0  0  0999 V2000
   10.1459  -18.6967   21.8468 O   0  0  0  0  0  0  0  0  0  0  0  0
    9.4447  -18.0502   20.8366 C   0  0  0  0  0  0  0  0  0  0  0  0
    9.9216  -16.6246   20.6652 C   0  0  2  0  0  0  0  0  0  0  0  0
   11.2096  -16.5540   20.0378 N   0  0  0  0  0  0  0  0  0  0  0  0
    9.9433  -15.8861   21.9297 C   0  0  0  0  0  0  0  0  0  0  0  0
   11.0299  -15.5479   22.4500 O   0  0  0  0  0  0  0  0  0  0  0  0
    8.7134  -15.5586   22.5583 N   0  0  0  0  0  0  0  0  0  0  0  0
    8.6362  -14.7627   23.7480 C   0  0  1  0  0  0  0  0  0  0  0  0
    7.2734  -14.1016   23.7706 C   0  0  0  0  0  0  0  0  0  0  0  0
    7.1328  -13.2292   24.9578 C   0  0  0  0  0  0  0  0  0  0  0  0
    6.1778  -13.4784   25.9424 C   0  0  0  0  0  0  0  0  0  0  0  0
    6.0471  -12.6665   27.0470 C   0  0  0  0  0  0  0  0  0  0  0  0
    6.8808  -11.5793   27.1843 C   0  0  0  0  0  0  0  0  0  0  0  0
    7.8334  -11.3133   26.2220 C   0  0  0  0  0  0  0  0  0  0  0  0
    7.9610  -12.1251   25.1218 C   0  0  0  0  0  0  0  0  0  0  0  0
    8.8533  -15.6195   24.9242 C   0  0  0  0  0  0  0  0  0  0  0  0
    8.6811  -15.1764   26.0890 O   0  0  0  0  0  0  0  0  0  0  0  0
   10.5767  -19.5130   24.7404 O   0  0  0  0  0  0  0  0  0  0  0  0
    9.4904  -19.2669   25.5445 C   0  0  0  0  0  0  0  0  0  0  0  0
    9.4026  -17.8148   25.9841 C   0  0  2  0  0  0  0  0  0  0  0  0
    9.2652  -16.9816   24.8224 N   0  0  0  0  0  0  0  0  0  0  0  0
   10.5492  -17.3996   26.7875 C   0  0  0  0  0  0  0  0  0  0  0  0
   10.8605  -18.0025   27.8401 O   0  0  0  0  0  0  0  0  0  0  0  0
   11.3209  -16.3212   26.3965 O   0  0  0  0  0  0  0  0  0  0  0  0
  2  1  1  0
  3  2  1  0
  3  4  1  1
  5  3  1  0
  5  6  2  0
  7  5  1  0
  8  7  1  0
  9 10  1  0
  8  9  1  1
 10 15  2  0
 11 10  1  0
 11 12  2  0
 12 13  1  0
 13 14  2  0
 15 14  1  0
 16 21  1  0
 16  8  1  0
 17 16  2  0
 18 19  1  0
 20 19  1  6
 20 21  1  0
 20 22  1  0
 22 23  2  0
 22 24  1  0
M  END
$$$$
