SFS.pdb
     RDKit          3D

 24 24  0  0  1  0  0  0  0  0999 V2000
    8.8015  -19.5448   21.3469 O   0  0  0  0  0  0  0  0  0  0  0  0
    7.9271  -18.7455   20.6212 C   0  0  0  0  0  0  0  0  0  0  0  0
    8.5403  -17.3952   20.3215 C   0  0  2  0  0  0  0  0  0  0  0  0
    9.7002  -17.4988   19.4839 N   0  0  0  0  0  0  0  0  0  0  0  0
    8.8701  -16.6484   21.5373 C   0  0  0  0  0  0  0  0  0  0  0  0
   10.0534  -16.5761   21.9380 O   0  0  0  0  0  0  0  0  0  0  0  0
    7.8281  -16.0065   22.2564 N   0  0  0  0  0  0  0  0  0  0  0  0
    8.0554  -15.2770   23.4693 C   0  0  1  0  0  0  0  0  0  0  0  0
    6.8813  -14.3410   23.6692 C   0  0  0  0  0  0  0  0  0  0  0  0
    7.0385  -13.5605   24.9168 C   0  0  0  0  0  0  0  0  0  0  0  0
    8.0477  -12.6103   25.0655 C   0  0  0  0  0  0  0  0  0  0  0  0
    8.1938  -11.8842   26.2264 C   0  0  0  0  0  0  0  0  0  0  0  0
    7.3211  -12.1012   27.2690 C   0  0  0  0  0  0  0  0  0  0  0  0
    6.3145  -13.0369   27.1442 C   0  0  0  0  0  0  0  0  0  0  0  0
    6.1717  -13.7591   25.9851 C   0  0  0  0  0  0  0  0  0  0  0  0
    8.2043  -16.2218   24.5873 C   0  0  0  0  0  0  0  0  0  0  0  0
    7.2975  -17.0499   24.8606 O   0  0  0  0  0  0  0  0  0  0  0  0
   11.7040  -17.7895   25.5244 O   0  0  0  0  0  0  0  0  0  0  0  0
   10.5008  -18.3206   25.9212 C   0  0  0  0  0  0  0  0  0  0  0  0
    9.5324  -17.2652   26.4290 C   0  0  2  0  0  0  0  0  0  0  0  0
    9.3637  -16.2594   25.4177 N   0  0  0  0  0  0  0  0  0  0  0  0
    9.9626  -16.6663   27.6894 C   0  0  0  0  0  0  0  0  0  0  0  0
   10.1581  -15.4336   27.7926 O   0  0  0  0  0  0  0  0  0  0  0  0
   10.1643  -17.4581   28.8048 O   0  0  0  0  0  0  0  0  0  0  0  0
  2  1  1  0
  3  2  1  0
  3  4  1  1
  5  3  1  0
  5  6  2  0
  7  5  1  0
  8  7  1  0
  9 10  1  0
  8  9  1  1
 10 15  2  0
 11 10  1  0
 11 12  2  0
 12 13  1  0
 13 14  2  0
 15 14  1  0
 16 21  1  0
 16  8  1  0
 17 16  2  0
 18 19  1  0
 20 19  1  6
 20 21  1  0
 20 22  1  0
 22 23  2  0
 22 24  1  0
M  END
$$$$
