SFS.pdb
     RDKit          3D

 24 24  0  0  1  0  0  0  0  0999 V2000
    8.3348  -17.3539   20.2593 O   0  0  0  0  0  0  0  0  0  0  0  0
    7.1182  -16.6920   20.3686 C   0  0  0  0  0  0  0  0  0  0  0  0
    7.3156  -15.2463   20.7687 C   0  0  2  0  0  0  0  0  0  0  0  0
    8.0258  -14.4984   19.7717 N   0  0  0  0  0  0  0  0  0  0  0  0
    7.9864  -15.1108   22.0635 C   0  0  0  0  0  0  0  0  0  0  0  0
    9.1644  -14.6938   22.1288 O   0  0  0  0  0  0  0  0  0  0  0  0
    7.2815  -15.4594   23.2452 N   0  0  0  0  0  0  0  0  0  0  0  0
    7.8623  -15.3677   24.5526 C   0  0  1  0  0  0  0  0  0  0  0  0
    6.7417  -15.0963   25.5350 C   0  0  0  0  0  0  0  0  0  0  0  0
    6.8673  -13.7397   26.1131 C   0  0  0  0  0  0  0  0  0  0  0  0
    5.7664  -12.8954   26.2494 C   0  0  0  0  0  0  0  0  0  0  0  0
    5.8836  -11.6331   26.7873 C   0  0  0  0  0  0  0  0  0  0  0  0
    7.1200  -11.1916   27.2022 C   0  0  0  0  0  0  0  0  0  0  0  0
    8.2238  -12.0103   27.0769 C   0  0  0  0  0  0  0  0  0  0  0  0
    8.1033  -13.2684   26.5400 C   0  0  0  0  0  0  0  0  0  0  0  0
    8.5746  -16.6179   24.8598 C   0  0  0  0  0  0  0  0  0  0  0  0
    8.0271  -17.7362   24.6799 O   0  0  0  0  0  0  0  0  0  0  0  0
   12.7099  -17.0993   24.8933 O   0  0  0  0  0  0  0  0  0  0  0  0
   11.7429  -18.0619   24.7338 C   0  0  0  0  0  0  0  0  0  0  0  0
   10.5696  -17.8780   25.6821 C   0  0  2  0  0  0  0  0  0  0  0  0
    9.9060  -16.6428   25.3715 N   0  0  0  0  0  0  0  0  0  0  0  0
   10.9698  -17.9132   27.0860 C   0  0  0  0  0  0  0  0  0  0  0  0
   10.6801  -16.9808   27.8703 O   0  0  0  0  0  0  0  0  0  0  0  0
   11.6839  -18.9887   27.5809 O   0  0  0  0  0  0  0  0  0  0  0  0
  2  1  1  0
  3  2  1  0
  3  4  1  6
  5  3  1  0
  5  6  2  0
  7  5  1  0
  8  7  1  0
  9 10  1  0
  8  9  1  1
 10 15  2  0
 11 10  1  0
 11 12  2  0
 12 13  1  0
 13 14  2  0
 15 14  1  0
 16 21  1  0
 16  8  1  0
 17 16  2  0
 18 19  1  0
 20 19  1  6
 20 21  1  0
 20 22  1  0
 22 23  2  0
 22 24  1  0
M  END
$$$$
