SFS.pdb
     RDKit          3D

 24 24  0  0  1  0  0  0  0  0999 V2000
    9.5122  -18.7218   20.7431 O   0  0  0  0  0  0  0  0  0  0  0  0
    8.7206  -17.7626   20.1239 C   0  0  0  0  0  0  0  0  0  0  0  0
    9.4096  -16.4158   20.1014 C   0  0  2  0  0  0  0  0  0  0  0  0
   10.6940  -16.4727   19.4654 N   0  0  0  0  0  0  0  0  0  0  0  0
    9.5422  -15.8329   21.4384 C   0  0  0  0  0  0  0  0  0  0  0  0
   10.6460  -15.8385   22.0278 O   0  0  0  0  0  0  0  0  0  0  0  0
    8.4003  -15.2608   22.0577 N   0  0  0  0  0  0  0  0  0  0  0  0
    8.4227  -14.7273   23.3881 C   0  0  1  0  0  0  0  0  0  0  0  0
    7.1585  -13.9147   23.5784 C   0  0  0  0  0  0  0  0  0  0  0  0
    7.1064  -13.3361   24.9396 C   0  0  0  0  0  0  0  0  0  0  0  0
    7.9907  -12.3384   25.3471 C   0  0  0  0  0  0  0  0  0  0  0  0
    7.9420  -11.8001   26.6137 C   0  0  0  0  0  0  0  0  0  0  0  0
    6.9954  -12.2582   27.5025 C   0  0  0  0  0  0  0  0  0  0  0  0
    6.1097  -13.2452   27.1209 C   0  0  0  0  0  0  0  0  0  0  0  0
    6.1612  -13.7797   25.8571 C   0  0  0  0  0  0  0  0  0  0  0  0
    8.5198  -15.8313   24.3558 C   0  0  0  0  0  0  0  0  0  0  0  0
    7.6699  -16.7588   24.3678 O   0  0  0  0  0  0  0  0  0  0  0  0
   11.9228  -17.2944   25.3400 O   0  0  0  0  0  0  0  0  0  0  0  0
   10.7746  -17.9711   25.6730 C   0  0  0  0  0  0  0  0  0  0  0  0
    9.6838  -17.0529   26.1990 C   0  0  2  0  0  0  0  0  0  0  0  0
    9.5635  -15.9201   25.3243 N   0  0  0  0  0  0  0  0  0  0  0  0
    9.9240  -16.6235   27.5738 C   0  0  0  0  0  0  0  0  0  0  0  0
    9.9780  -15.4098   27.8780 O   0  0  0  0  0  0  0  0  0  0  0  0
   10.0983  -17.5594   28.5765 O   0  0  0  0  0  0  0  0  0  0  0  0
  2  1  1  0
  3  2  1  0
  3  4  1  1
  5  3  1  0
  5  6  2  0
  7  5  1  0
  8  7  1  0
  9 10  1  0
  8  9  1  1
 10 15  2  0
 11 10  1  0
 11 12  2  0
 12 13  1  0
 13 14  2  0
 15 14  1  0
 16 21  1  0
 16  8  1  0
 17 16  2  0
 18 19  1  0
 20 19  1  6
 20 21  1  0
 20 22  1  0
 22 23  2  0
 22 24  1  0
M  END
$$$$
