KIG.pdb
     RDKit          3D

 22 21  0  0  1  0  0  0  0  0999 V2000
    7.1121  -15.6061   20.8501 N   0  0  0  0  0  0  0  0  0  0  0  0
    6.7309  -15.8421   22.2020 C   0  0  1  0  0  0  0  0  0  0  0  0
    6.5892  -17.2688   22.5963 C   0  0  0  0  0  0  0  0  0  0  0  0
    7.3199  -18.2207   21.7177 C   0  0  0  0  0  0  0  0  0  0  0  0
    7.1234  -19.6663   22.0239 C   0  0  0  0  0  0  0  0  0  0  0  0
    7.8696  -20.4942   20.9625 C   0  0  0  0  0  0  0  0  0  0  0  0
    7.8344  -21.8942   21.3219 N   0  0  0  0  0  0  0  0  0  0  0  0
    7.6401  -15.0877   23.1075 C   0  0  0  0  0  0  0  0  0  0  0  0
    8.8386  -14.9235   22.6935 O   0  0  0  0  0  0  0  0  0  0  0  0
    5.4251  -11.2193   26.4599 C   0  0  0  0  0  0  0  0  0  0  0  0
    6.4350  -11.8696   25.5922 C   0  0  0  0  0  0  0  0  0  0  0  0
    7.2365  -12.9855   26.1802 C   0  0  2  0  0  0  0  0  0  0  0  0
    8.2458  -12.2943   27.1201 C   0  0  0  0  0  0  0  0  0  0  0  0
    8.0691  -13.7632   25.1736 C   0  0  2  0  0  0  0  0  0  0  0  0
    7.1962  -14.5890   24.3447 N   0  0  0  0  0  0  0  0  0  0  0  0
    8.9323  -14.6928   25.9468 C   0  0  0  0  0  0  0  0  0  0  0  0
    9.8506  -14.1343   26.6567 O   0  0  0  0  0  0  0  0  0  0  0  0
    8.8273  -16.0894   25.9691 N   0  0  0  0  0  0  0  0  0  0  0  0
    9.7506  -16.8232   26.8565 C   0  0  0  0  0  0  0  0  0  0  0  0
    9.5200  -18.2667   26.7810 C   0  0  0  0  0  0  0  0  0  0  0  0
    8.6823  -18.7115   25.9627 O   0  0  0  0  0  0  0  0  0  0  0  0
   10.2211  -19.1068   27.6030 O   0  0  0  0  0  0  0  0  0  0  0  0
  2  1  1  6
  3  2  1  0
  4  3  1  0
  5  4  1  0
  6  5  1  0
  7  6  1  0
  8  2  1  0
  8  9  2  0
 11 10  1  0
 12 11  1  0
 12 13  1  1
 14 15  1  6
 14 12  1  0
 15  8  1  0
 16 14  1  0
 17 16  2  0
 18 16  1  0
 19 18  1  0
 20 19  1  0
 20 22  1  0
 21 20  2  0
M  END
$$$$
