KIG.pdb
     RDKit          3D

 22 21  0  0  1  0  0  0  0  0999 V2000
    8.1087  -14.8414   19.7709 N   0  0  0  0  0  0  0  0  0  0  0  0
    7.3101  -15.1971   20.8953 C   0  0  1  0  0  0  0  0  0  0  0  0
    6.8325  -16.6047   20.9324 C   0  0  0  0  0  0  0  0  0  0  0  0
    6.7174  -17.2460   19.5955 C   0  0  0  0  0  0  0  0  0  0  0  0
    6.0904  -18.5984   19.5775 C   0  0  0  0  0  0  0  0  0  0  0  0
    6.0935  -19.1168   18.1283 C   0  0  0  0  0  0  0  0  0  0  0  0
    5.5519  -20.4567   18.0881 N   0  0  0  0  0  0  0  0  0  0  0  0
    8.0167  -14.8015   22.1443 C   0  0  0  0  0  0  0  0  0  0  0  0
    9.2884  -14.9336   22.1382 O   0  0  0  0  0  0  0  0  0  0  0  0
    7.0600  -11.3753   27.2779 C   0  0  0  0  0  0  0  0  0  0  0  0
    7.8255  -12.3574   26.4746 C   0  0  0  0  0  0  0  0  0  0  0  0
    7.1957  -12.8633   25.2172 C   0  0  2  0  0  0  0  0  0  0  0  0
    5.9286  -13.6100   25.6828 C   0  0  0  0  0  0  0  0  0  0  0  0
    8.0286  -13.8862   24.4615 C   0  0  2  0  0  0  0  0  0  0  0  0
    7.3162  -14.3120   23.2606 N   0  0  0  0  0  0  0  0  0  0  0  0
    8.1499  -15.0815   25.3353 C   0  0  0  0  0  0  0  0  0  0  0  0
    7.0498  -15.7082   25.5718 O   0  0  0  0  0  0  0  0  0  0  0  0
    9.3331  -15.5711   25.9030 N   0  0  0  0  0  0  0  0  0  0  0  0
    9.2456  -16.8291   26.6699 C   0  0  0  0  0  0  0  0  0  0  0  0
   10.5284  -17.1578   27.2935 C   0  0  0  0  0  0  0  0  0  0  0  0
   11.5581  -16.5381   26.9402 O   0  0  0  0  0  0  0  0  0  0  0  0
   10.5838  -18.1344   28.2507 O   0  0  0  0  0  0  0  0  0  0  0  0
  2  1  1  6
  3  2  1  0
  4  3  1  0
  5  4  1  0
  6  5  1  0
  7  6  1  0
  8  2  1  0
  8  9  2  0
 11 10  1  0
 12 11  1  0
 12 13  1  1
 14 15  1  6
 14 12  1  0
 15  8  1  0
 16 14  1  0
 17 16  2  0
 18 16  1  0
 19 18  1  0
 20 19  1  0
 20 22  1  0
 21 20  2  0
M  END
$$$$
