KIG.pdb
     RDKit          3D

 22 21  0  0  1  0  0  0  0  0999 V2000
    7.8874  -15.0639   20.3396 N   0  0  0  0  0  0  0  0  0  0  0  0
    7.3009  -15.6914   21.4758 C   0  0  1  0  0  0  0  0  0  0  0  0
    7.1308  -17.1658   21.3866 C   0  0  0  0  0  0  0  0  0  0  0  0
    6.1933  -17.6091   20.3206 C   0  0  0  0  0  0  0  0  0  0  0  0
    5.9439  -19.0770   20.2465 C   0  0  0  0  0  0  0  0  0  0  0  0
    4.9809  -19.3484   19.0770 C   0  0  0  0  0  0  0  0  0  0  0  0
    4.6310  -20.7510   19.0482 N   0  0  0  0  0  0  0  0  0  0  0  0
    8.0366  -15.2751   22.7010 C   0  0  0  0  0  0  0  0  0  0  0  0
    9.3087  -15.2015   22.5966 O   0  0  0  0  0  0  0  0  0  0  0  0
    5.7833  -11.5825   25.9877 C   0  0  0  0  0  0  0  0  0  0  0  0
    6.7831  -12.4186   25.2828 C   0  0  0  0  0  0  0  0  0  0  0  0
    7.2280  -13.6778   25.9537 C   0  0  2  0  0  0  0  0  0  0  0  0
    8.1254  -13.2093   27.1178 C   0  0  0  0  0  0  0  0  0  0  0  0
    8.0988  -14.5781   25.0921 C   0  0  2  0  0  0  0  0  0  0  0  0
    7.3614  -14.9822   23.8989 N   0  0  0  0  0  0  0  0  0  0  0  0
    8.3581  -15.8136   25.8755 C   0  0  0  0  0  0  0  0  0  0  0  0
    7.3104  -16.4219   26.3128 O   0  0  0  0  0  0  0  0  0  0  0  0
    9.6161  -16.3578   26.1643 N   0  0  0  0  0  0  0  0  0  0  0  0
    9.6468  -17.6506   26.8758 C   0  0  0  0  0  0  0  0  0  0  0  0
   10.1957  -17.4983   28.2242 C   0  0  0  0  0  0  0  0  0  0  0  0
   10.6118  -16.3759   28.5932 O   0  0  0  0  0  0  0  0  0  0  0  0
   10.2461  -18.5814   29.0593 O   0  0  0  0  0  0  0  0  0  0  0  0
  2  1  1  6
  3  2  1  0
  4  3  1  0
  5  4  1  0
  6  5  1  0
  7  6  1  0
  8  2  1  0
  8  9  2  0
 11 10  1  0
 12 11  1  0
 12 13  1  1
 14 15  1  6
 14 12  1  0
 15  8  1  0
 16 14  1  0
 17 16  2  0
 18 16  1  0
 19 18  1  0
 20 19  1  0
 20 22  1  0
 21 20  2  0
M  END
$$$$
