KIG.pdb
     RDKit          3D

 22 21  0  0  1  0  0  0  0  0999 V2000
    5.2692  -18.9785   23.8483 N   0  0  0  0  0  0  0  0  0  0  0  0
    6.0547  -18.4309   24.9027 C   0  0  1  0  0  0  0  0  0  0  0  0
    7.1057  -19.3233   25.4592 C   0  0  0  0  0  0  0  0  0  0  0  0
    6.6137  -20.6664   25.8664 C   0  0  0  0  0  0  0  0  0  0  0  0
    6.8744  -21.7720   24.9010 C   0  0  0  0  0  0  0  0  0  0  0  0
    6.4291  -23.0965   25.5462 C   0  0  0  0  0  0  0  0  0  0  0  0
    4.9970  -23.2459   25.4154 N   0  0  0  0  0  0  0  0  0  0  0  0
    6.5941  -17.1101   24.4782 C   0  0  0  0  0  0  0  0  0  0  0  0
    6.7406  -16.9394   23.2196 O   0  0  0  0  0  0  0  0  0  0  0  0
    5.4255  -12.3723   27.1110 C   0  0  0  0  0  0  0  0  0  0  0  0
    5.8238  -13.3085   26.0337 C   0  0  0  0  0  0  0  0  0  0  0  0
    7.2440  -13.7732   26.0113 C   0  0  2  0  0  0  0  0  0  0  0  0
    8.0556  -12.5411   25.5606 C   0  0  0  0  0  0  0  0  0  0  0  0
    7.5360  -14.8612   24.9904 C   0  0  2  0  0  0  0  0  0  0  0  0
    6.9205  -16.1146   25.4157 N   0  0  0  0  0  0  0  0  0  0  0  0
    9.0053  -15.0810   24.9953 C   0  0  0  0  0  0  0  0  0  0  0  0
    9.5455  -15.1854   26.1599 O   0  0  0  0  0  0  0  0  0  0  0  0
    9.8270  -15.1862   23.8657 N   0  0  0  0  0  0  0  0  0  0  0  0
   11.2836  -15.0748   24.0759 C   0  0  0  0  0  0  0  0  0  0  0  0
   11.9541  -16.3491   23.8129 C   0  0  0  0  0  0  0  0  0  0  0  0
   11.4397  -17.4106   24.2345 O   0  0  0  0  0  0  0  0  0  0  0  0
   13.1296  -16.3620   23.1122 O   0  0  0  0  0  0  0  0  0  0  0  0
  2  1  1  6
  3  2  1  0
  4  3  1  0
  5  4  1  0
  6  5  1  0
  7  6  1  0
  8  2  1  0
  8  9  2  0
 11 10  1  0
 12 11  1  0
 12 13  1  6
 14 15  1  1
 14 12  1  0
 15  8  1  0
 16 14  1  0
 17 16  2  0
 18 16  1  0
 19 18  1  0
 20 19  1  0
 20 22  1  0
 21 20  2  0
M  END
$$$$
