KIG.pdb
     RDKit          3D

 22 21  0  0  1  0  0  0  0  0999 V2000
    8.4188  -15.1386   19.9617 N   0  0  0  0  0  0  0  0  0  0  0  0
    7.5960  -15.5165   21.0611 C   0  0  1  0  0  0  0  0  0  0  0  0
    7.2098  -16.9512   21.1191 C   0  0  0  0  0  0  0  0  0  0  0  0
    6.6115  -17.4740   19.8619 C   0  0  0  0  0  0  0  0  0  0  0  0
    6.2194  -18.9121   19.8802 C   0  0  0  0  0  0  0  0  0  0  0  0
    5.5469  -19.2501   18.5376 C   0  0  0  0  0  0  0  0  0  0  0  0
    5.1782  -20.6479   18.5146 N   0  0  0  0  0  0  0  0  0  0  0  0
    8.2192  -15.0420   22.3269 C   0  0  0  0  0  0  0  0  0  0  0  0
    9.4903  -15.1551   22.4060 O   0  0  0  0  0  0  0  0  0  0  0  0
    6.9068  -11.3648   27.2018 C   0  0  0  0  0  0  0  0  0  0  0  0
    7.6931  -12.4334   26.5419 C   0  0  0  0  0  0  0  0  0  0  0  0
    7.1610  -12.9941   25.2629 C   0  0  2  0  0  0  0  0  0  0  0  0
    5.8971  -13.7788   25.6712 C   0  0  0  0  0  0  0  0  0  0  0  0
    8.0768  -14.0014   24.5861 C   0  0  2  0  0  0  0  0  0  0  0  0
    7.4452  -14.5022   23.3690 N   0  0  0  0  0  0  0  0  0  0  0  0
    8.2097  -15.1587   25.5082 C   0  0  0  0  0  0  0  0  0  0  0  0
    7.1312  -15.8338   25.7082 O   0  0  0  0  0  0  0  0  0  0  0  0
    9.3829  -15.5664   26.1559 N   0  0  0  0  0  0  0  0  0  0  0  0
    9.2968  -16.7544   27.0272 C   0  0  0  0  0  0  0  0  0  0  0  0
   10.5900  -17.0503   27.6459 C   0  0  0  0  0  0  0  0  0  0  0  0
   11.5945  -16.3778   27.3176 O   0  0  0  0  0  0  0  0  0  0  0  0
   10.6823  -18.0544   28.5712 O   0  0  0  0  0  0  0  0  0  0  0  0
  2  1  1  6
  3  2  1  0
  4  3  1  0
  5  4  1  0
  6  5  1  0
  7  6  1  0
  8  2  1  0
  8  9  2  0
 11 10  1  0
 12 11  1  0
 12 13  1  1
 14 15  1  6
 14 12  1  0
 15  8  1  0
 16 14  1  0
 17 16  2  0
 18 16  1  0
 19 18  1  0
 20 19  1  0
 20 22  1  0
 21 20  2  0
M  END
$$$$
