KIG.pdb
     RDKit          3D

 22 21  0  0  1  0  0  0  0  0999 V2000
    5.4737  -17.3075   21.8960 N   0  0  0  0  0  0  0  0  0  0  0  0
    5.7490  -17.3035   23.2935 C   0  0  1  0  0  0  0  0  0  0  0  0
    6.0607  -18.6262   23.8969 C   0  0  0  0  0  0  0  0  0  0  0  0
    5.1172  -19.7100   23.5134 C   0  0  0  0  0  0  0  0  0  0  0  0
    5.4149  -21.0576   24.0771 C   0  0  0  0  0  0  0  0  0  0  0  0
    4.4091  -22.0636   23.4896 C   0  0  0  0  0  0  0  0  0  0  0  0
    4.7018  -23.3909   23.9825 N   0  0  0  0  0  0  0  0  0  0  0  0
    6.7929  -16.2832   23.5854 C   0  0  0  0  0  0  0  0  0  0  0  0
    7.6836  -16.1145   22.6838 O   0  0  0  0  0  0  0  0  0  0  0  0
    5.5983  -11.9076   26.8845 C   0  0  0  0  0  0  0  0  0  0  0  0
    6.1964  -12.7268   25.8043 C   0  0  0  0  0  0  0  0  0  0  0  0
    7.3396  -13.6192   26.1653 C   0  0  2  0  0  0  0  0  0  0  0  0
    8.5160  -12.6610   26.4440 C   0  0  0  0  0  0  0  0  0  0  0  0
    7.8040  -14.5347   25.0440 C   0  0  2  0  0  0  0  0  0  0  0  0
    6.7901  -15.5529   24.7867 N   0  0  0  0  0  0  0  0  0  0  0  0
    9.0125  -15.2465   25.5342 C   0  0  0  0  0  0  0  0  0  0  0  0
    8.8955  -15.8054   26.6887 O   0  0  0  0  0  0  0  0  0  0  0  0
   10.2338  -15.3596   24.8577 N   0  0  0  0  0  0  0  0  0  0  0  0
   11.3135  -16.1074   25.5311 C   0  0  0  0  0  0  0  0  0  0  0  0
   12.5300  -16.1260   24.7173 C   0  0  0  0  0  0  0  0  0  0  0  0
   12.5075  -15.6239   23.5700 O   0  0  0  0  0  0  0  0  0  0  0  0
   13.6708  -16.6902   25.2205 O   0  0  0  0  0  0  0  0  0  0  0  0
  2  1  1  6
  3  2  1  0
  4  3  1  0
  5  4  1  0
  6  5  1  0
  7  6  1  0
  8  2  1  0
  8  9  2  0
 11 10  1  0
 12 11  1  0
 12 13  1  6
 14 15  1  1
 14 12  1  0
 15  8  1  0
 16 14  1  0
 17 16  2  0
 18 16  1  0
 19 18  1  0
 20 19  1  0
 20 22  1  0
 21 20  2  0
M  END
$$$$
