WVP.pdb
     RDKit          3D

 29 31  0  0  1  0  0  0  0  0999 V2000
    5.7428  -17.9382   24.1634 N   0  0  0  0  0  0  0  0  0  0  0  0
    6.4435  -16.7250   23.9301 C   0  0  1  0  0  0  0  0  0  0  0  0
    7.3334  -16.2995   25.0583 C   0  0  0  0  0  0  0  0  0  0  0  0
    6.7303  -15.2030   25.8444 C   0  0  0  0  0  0  0  0  0  0  0  0
    5.4689  -15.2085   26.4016 C   0  0  0  0  0  0  0  0  0  0  0  0
    5.2403  -14.0565   27.0203 N   0  0  0  0  0  0  0  0  0  0  0  0
    6.3317  -13.2677   26.8908 C   0  0  0  0  0  0  0  0  0  0  0  0
    6.6042  -12.0020   27.3446 C   0  0  0  0  0  0  0  0  0  0  0  0
    7.8033  -11.4087   27.0867 C   0  0  0  0  0  0  0  0  0  0  0  0
    8.7336  -12.0981   26.3661 C   0  0  0  0  0  0  0  0  0  0  0  0
    8.4953  -13.3665   25.8959 C   0  0  0  0  0  0  0  0  0  0  0  0
    7.2734  -13.9735   26.1565 C   0  0  0  0  0  0  0  0  0  0  0  0
    7.1657  -16.7481   22.6255 C   0  0  0  0  0  0  0  0  0  0  0  0
    7.5304  -17.8667   22.1815 O   0  0  0  0  0  0  0  0  0  0  0  0
    8.9469  -13.3193   20.8828 C   0  0  0  0  0  0  0  0  0  0  0  0
    8.1336  -14.2557   20.0484 C   0  0  2  0  0  0  0  0  0  0  0  0
    6.7293  -13.7375   19.8046 C   0  0  0  0  0  0  0  0  0  0  0  0
    8.1154  -15.6993   20.5292 C   0  0  2  0  0  0  0  0  0  0  0  0
    7.4579  -15.6107   21.8731 N   0  0  0  0  0  0  0  0  0  0  0  0
    9.4308  -16.2955   20.7105 C   0  0  0  0  0  0  0  0  0  0  0  0
   10.1717  -15.8020   21.6366 O   0  0  0  0  0  0  0  0  0  0  0  0
    9.9908  -17.3725   19.9769 N   0  0  0  0  0  0  0  0  0  0  0  0
    9.3189  -18.3653   19.1663 C   0  0  0  0  0  0  0  0  0  0  0  0
   10.2903  -18.5111   17.9970 C   0  0  0  0  0  0  0  0  0  0  0  0
   11.5716  -18.7405   18.8216 C   0  0  0  0  0  0  0  0  0  0  0  0
   11.3936  -17.7373   19.9746 C   0  0  1  0  0  0  0  0  0  0  0  0
   12.3029  -16.5859   19.7715 C   0  0  0  0  0  0  0  0  0  0  0  0
   13.6332  -16.7085   20.1196 O   0  0  0  0  0  0  0  0  0  0  0  0
   11.9036  -15.5077   19.2952 O   0  0  0  0  0  0  0  0  0  0  0  0
  2  1  1  1
  2  3  1  0
  2 13  1  0
  4 12  1  0
  4  3  1  0
  5  4  2  0
  6  5  1  0
  6  7  1  0
  7  8  1  0
  7 12  2  0
  8  9  2  0
  9 10  1  0
 11 10  2  0
 12 11  1  0
 13 14  2  0
 16 18  1  0
 16 15  1  1
 17 16  1  0
 19 13  1  0
 18 19  1  1
 20 18  1  0
 20 21  2  0
 22 26  1  0
 22 20  1  0
 23 22  1  0
 24 23  1  0
 24 25  1  0
 25 26  1  0
 26 27  1  6
 27 29  2  0
 27 28  1  0
M  END
$$$$
