WVP.pdb
     RDKit          3D

 29 31  0  0  1  0  0  0  0  0999 V2000
    9.4763  -16.0564   25.4881 N   0  0  0  0  0  0  0  0  0  0  0  0
    8.7892  -16.0249   24.2455 C   0  0  1  0  0  0  0  0  0  0  0  0
    7.8353  -14.8787   24.0965 C   0  0  0  0  0  0  0  0  0  0  0  0
    7.1335  -14.5856   25.3636 C   0  0  0  0  0  0  0  0  0  0  0  0
    6.3279  -15.4608   26.0612 C   0  0  0  0  0  0  0  0  0  0  0  0
    5.8396  -14.8655   27.1425 N   0  0  0  0  0  0  0  0  0  0  0  0
    6.3042  -13.5958   27.1888 C   0  0  0  0  0  0  0  0  0  0  0  0
    6.1052  -12.5816   28.0912 C   0  0  0  0  0  0  0  0  0  0  0  0
    6.6993  -11.3673   27.9220 C   0  0  0  0  0  0  0  0  0  0  0  0
    7.5000  -11.1757   26.8347 C   0  0  0  0  0  0  0  0  0  0  0  0
    7.7216  -12.1679   25.9112 C   0  0  0  0  0  0  0  0  0  0  0  0
    7.1165  -13.4067   26.0805 C   0  0  0  0  0  0  0  0  0  0  0  0
    9.7304  -16.1234   23.0928 C   0  0  0  0  0  0  0  0  0  0  0  0
   10.9601  -16.1848   23.3489 O   0  0  0  0  0  0  0  0  0  0  0  0
   12.0973  -17.0362   21.9652 C   0  0  0  0  0  0  0  0  0  0  0  0
   11.2906  -16.9779   20.7081 C   0  0  2  0  0  0  0  0  0  0  0  0
   12.1582  -17.0199   19.4649 C   0  0  0  0  0  0  0  0  0  0  0  0
   10.2812  -15.8412   20.6406 C   0  0  2  0  0  0  0  0  0  0  0  0
    9.3308  -16.1525   21.7570 N   0  0  0  0  0  0  0  0  0  0  0  0
    9.5170  -15.7805   19.4033 C   0  0  0  0  0  0  0  0  0  0  0  0
    9.4142  -16.8682   18.7277 O   0  0  0  0  0  0  0  0  0  0  0  0
    8.8631  -14.6470   18.8560 N   0  0  0  0  0  0  0  0  0  0  0  0
    8.7392  -13.3155   19.4090 C   0  0  0  0  0  0  0  0  0  0  0  0
    8.8983  -12.4515   18.1598 C   0  0  0  0  0  0  0  0  0  0  0  0
    7.8495  -13.1627   17.2831 C   0  0  0  0  0  0  0  0  0  0  0  0
    8.0962  -14.6421   17.6261 C   0  0  1  0  0  0  0  0  0  0  0  0
    8.7892  -15.3016   16.4953 C   0  0  0  0  0  0  0  0  0  0  0  0
    8.0467  -15.7624   15.4265 O   0  0  0  0  0  0  0  0  0  0  0  0
   10.0243  -15.4540   16.4787 O   0  0  0  0  0  0  0  0  0  0  0  0
  2  1  1  1
  2  3  1  0
  2 13  1  0
  4 12  1  0
  4  3  1  0
  5  4  2  0
  6  5  1  0
  6  7  1  0
  7  8  1  0
  7 12  2  0
  8  9  2  0
  9 10  1  0
 11 10  2  0
 12 11  1  0
 13 14  2  0
 16 18  1  0
 16 15  1  1
 17 16  1  0
 19 13  1  0
 18 19  1  1
 20 18  1  0
 20 21  2  0
 22 26  1  0
 22 20  1  0
 23 22  1  0
 24 23  1  0
 24 25  1  0
 25 26  1  0
 26 27  1  6
 27 29  2  0
 27 28  1  0
M  END
$$$$
