WVP.pdb
     RDKit          3D

 29 31  0  0  1  0  0  0  0  0999 V2000
    6.1683  -18.7128   25.3076 N   0  0  0  0  0  0  0  0  0  0  0  0
    6.6024  -17.4039   24.9673 C   0  0  1  0  0  0  0  0  0  0  0  0
    7.4198  -16.7298   26.0271 C   0  0  0  0  0  0  0  0  0  0  0  0
    6.7935  -15.4700   26.4794 C   0  0  0  0  0  0  0  0  0  0  0  0
    5.4718  -15.3093   26.8386 C   0  0  0  0  0  0  0  0  0  0  0  0
    5.2419  -14.0450   27.1715 N   0  0  0  0  0  0  0  0  0  0  0  0
    6.3918  -13.3440   27.0433 C   0  0  0  0  0  0  0  0  0  0  0  0
    6.6869  -12.0228   27.2656 C   0  0  0  0  0  0  0  0  0  0  0  0
    7.9471  -11.5440   27.0683 C   0  0  0  0  0  0  0  0  0  0  0  0
    8.9159  -12.4051   26.6440 C   0  0  0  0  0  0  0  0  0  0  0  0
    8.6566  -13.7336   26.4113 C   0  0  0  0  0  0  0  0  0  0  0  0
    7.3726  -14.2245   26.6108 C   0  0  0  0  0  0  0  0  0  0  0  0
    7.2768  -17.3756   23.6374 C   0  0  0  0  0  0  0  0  0  0  0  0
    7.6834  -18.4688   23.1673 O   0  0  0  0  0  0  0  0  0  0  0  0
    8.5053  -13.7222   21.7738 C   0  0  0  0  0  0  0  0  0  0  0  0
    7.9284  -14.8607   20.9957 C   0  0  2  0  0  0  0  0  0  0  0  0
    6.4535  -14.6669   20.7001 C   0  0  0  0  0  0  0  0  0  0  0  0
    8.2003  -16.2417   21.5740 C   0  0  2  0  0  0  0  0  0  0  0  0
    7.4810  -16.2168   22.8886 N   0  0  0  0  0  0  0  0  0  0  0  0
    9.6041  -16.5251   21.8347 C   0  0  0  0  0  0  0  0  0  0  0  0
   10.2129  -15.7473   22.6560 O   0  0  0  0  0  0  0  0  0  0  0  0
   10.3820  -17.5750   21.2832 N   0  0  0  0  0  0  0  0  0  0  0  0
    9.9524  -18.6928   20.4705 C   0  0  0  0  0  0  0  0  0  0  0  0
   11.1015  -18.8007   19.4704 C   0  0  0  0  0  0  0  0  0  0  0  0
   12.2584  -18.8206   20.4880 C   0  0  0  0  0  0  0  0  0  0  0  0
   11.7995  -17.7703   21.5144 C   0  0  1  0  0  0  0  0  0  0  0  0
   12.6005  -16.5355   21.3485 C   0  0  0  0  0  0  0  0  0  0  0  0
   13.8947  -16.5025   21.8281 O   0  0  0  0  0  0  0  0  0  0  0  0
   12.1416  -15.5233   20.7883 O   0  0  0  0  0  0  0  0  0  0  0  0
  2  1  1  1
  2  3  1  0
  2 13  1  0
  4 12  1  0
  4  3  1  0
  5  4  2  0
  6  5  1  0
  6  7  1  0
  7  8  1  0
  7 12  2  0
  8  9  2  0
  9 10  1  0
 11 10  2  0
 12 11  1  0
 13 14  2  0
 16 18  1  0
 16 15  1  1
 17 16  1  0
 19 13  1  0
 18 19  1  1
 20 18  1  0
 20 21  2  0
 22 26  1  0
 22 20  1  0
 23 22  1  0
 24 23  1  0
 24 25  1  0
 25 26  1  0
 26 27  1  6
 27 29  2  0
 27 28  1  0
M  END
$$$$
