WVP.pdb
     RDKit          3D

 29 31  0  0  1  0  0  0  0  0999 V2000
    5.8895  -17.1035   25.1525 N   0  0  0  0  0  0  0  0  0  0  0  0
    6.8487  -16.1401   24.7412 C   0  0  1  0  0  0  0  0  0  0  0  0
    8.1267  -16.1688   25.5233 C   0  0  0  0  0  0  0  0  0  0  0  0
    8.1636  -15.1030   26.5463 C   0  0  0  0  0  0  0  0  0  0  0  0
    8.8012  -15.1775   27.7668 C   0  0  0  0  0  0  0  0  0  0  0  0
    8.6145  -14.0527   28.4465 N   0  0  0  0  0  0  0  0  0  0  0  0
    7.8577  -13.2138   27.7024 C   0  0  0  0  0  0  0  0  0  0  0  0
    7.3934  -11.9453   27.9423 C   0  0  0  0  0  0  0  0  0  0  0  0
    6.6392  -11.2890   27.0167 C   0  0  0  0  0  0  0  0  0  0  0  0
    6.3521  -11.9176   25.8409 C   0  0  0  0  0  0  0  0  0  0  0  0
    6.7998  -13.1868   25.5669 C   0  0  0  0  0  0  0  0  0  0  0  0
    7.5682  -13.8587   26.5090 C   0  0  0  0  0  0  0  0  0  0  0  0
    7.0908  -16.1967   23.2707 C   0  0  0  0  0  0  0  0  0  0  0  0
    6.8597  -17.2848   22.6841 O   0  0  0  0  0  0  0  0  0  0  0  0
    6.8302  -12.9322   20.8612 C   0  0  0  0  0  0  0  0  0  0  0  0
    8.0043  -13.8152   20.5856 C   0  0  2  0  0  0  0  0  0  0  0  0
    8.4492  -13.7461   19.1374 C   0  0  0  0  0  0  0  0  0  0  0  0
    7.8516  -15.2564   21.0496 C   0  0  2  0  0  0  0  0  0  0  0  0
    7.5540  -15.1218   22.5123 N   0  0  0  0  0  0  0  0  0  0  0  0
    9.0500  -16.0703   20.9075 C   0  0  0  0  0  0  0  0  0  0  0  0
   10.1022  -15.6714   21.5270 O   0  0  0  0  0  0  0  0  0  0  0  0
    9.1878  -17.2673   20.1593 N   0  0  0  0  0  0  0  0  0  0  0  0
    8.1552  -18.1031   19.5853 C   0  0  0  0  0  0  0  0  0  0  0  0
    8.7906  -18.5004   18.2546 C   0  0  0  0  0  0  0  0  0  0  0  0
   10.1407  -18.9928   18.8104 C   0  0  0  0  0  0  0  0  0  0  0  0
   10.4424  -17.9429   19.8939 C   0  0  1  0  0  0  0  0  0  0  0  0
   11.5123  -17.0360   19.4178 C   0  0  0  0  0  0  0  0  0  0  0  0
   12.8297  -17.4364   19.5196 O   0  0  0  0  0  0  0  0  0  0  0  0
   11.2599  -15.9205   18.9272 O   0  0  0  0  0  0  0  0  0  0  0  0
  2  1  1  1
  2  3  1  0
  2 13  1  0
  4 12  1  0
  4  3  1  0
  5  4  2  0
  6  5  1  0
  6  7  1  0
  7  8  1  0
  7 12  2  0
  8  9  2  0
  9 10  1  0
 11 10  2  0
 12 11  1  0
 13 14  2  0
 16 18  1  0
 16 15  1  6
 17 16  1  0
 19 13  1  0
 18 19  1  1
 20 18  1  0
 20 21  2  0
 22 26  1  0
 22 20  1  0
 23 22  1  0
 24 23  1  0
 24 25  1  0
 25 26  1  0
 26 27  1  6
 27 29  2  0
 27 28  1  0
M  END
$$$$
