YEK.pdb
     RDKit          3D

 31 31  0  0  1  0  0  0  0  0999 V2000
   28.8570  -19.6437   -5.5049 O   0  0  0  0  0  0  0  0  0  0  0  0
   28.3176  -19.7091   -6.7844 C   0  0  0  0  0  0  0  0  0  0  0  0
   29.1013  -20.0097   -7.8893 C   0  0  0  0  0  0  0  0  0  0  0  0
   28.5552  -20.0722   -9.1565 C   0  0  0  0  0  0  0  0  0  0  0  0
   27.2133  -19.8398   -9.3788 C   0  0  0  0  0  0  0  0  0  0  0  0
   26.6075  -19.9022  -10.7384 C   0  0  0  0  0  0  0  0  0  0  0  0
   26.1229  -21.3017  -11.0061 C   0  0  2  0  0  0  0  0  0  0  0  0
   27.1966  -22.1910  -11.3777 N   0  0  0  0  0  0  0  0  0  0  0  0
   25.0988  -21.2255  -12.1250 C   0  0  0  0  0  0  0  0  0  0  0  0
   25.4725  -21.2605  -13.3172 O   0  0  0  0  0  0  0  0  0  0  0  0
   26.4333  -19.5401   -8.2743 C   0  0  0  0  0  0  0  0  0  0  0  0
   26.9778  -19.4771   -7.0064 C   0  0  0  0  0  0  0  0  0  0  0  0
   23.7268  -21.1157  -11.8152 N   0  0  0  0  0  0  0  0  0  0  0  0
   22.6637  -21.1138  -12.7559 C   0  0  1  0  0  0  0  0  0  0  0  0
   21.4804  -21.9950  -12.4330 C   0  0  0  0  0  0  0  0  0  0  0  0
   20.4074  -22.0118  -13.4647 C   0  0  0  0  0  0  0  0  0  0  0  0
   19.2125  -22.8033  -13.0316 C   0  0  0  0  0  0  0  0  0  0  0  0
   18.1257  -22.2585  -12.7358 O   0  0  0  0  0  0  0  0  0  0  0  0
   22.3151  -19.7848  -13.2837 C   0  0  0  0  0  0  0  0  0  0  0  0
   21.9747  -18.8245  -12.5239 O   0  0  0  0  0  0  0  0  0  0  0  0
   19.2774  -24.1820  -12.9450 O   0  0  0  0  0  0  0  0  0  0  0  0
   22.3295  -19.4651  -14.6671 N   0  0  0  0  0  0  0  0  0  0  0  0
   22.0468  -18.1188  -15.1529 C   0  0  1  0  0  0  0  0  0  0  0  0
   22.8568  -17.9265  -16.4068 C   0  0  0  0  0  0  0  0  0  0  0  0
   22.7601  -16.5852  -17.0385 C   0  0  0  0  0  0  0  0  0  0  0  0
   23.5569  -16.5442  -18.3551 C   0  0  0  0  0  0  0  0  0  0  0  0
   23.4161  -15.1457  -18.9012 C   0  0  0  0  0  0  0  0  0  0  0  0
   24.1875  -15.0998  -20.1492 N   0  0  0  0  0  0  0  0  0  0  0  0
   20.6171  -17.9947  -15.4706 C   0  0  0  0  0  0  0  0  0  0  0  0
   20.0554  -16.8713  -15.4089 O   0  0  0  0  0  0  0  0  0  0  0  0
   19.9161  -19.1418  -15.8360 O   0  0  0  0  0  0  0  0  0  0  0  0
  2  1  1  0
  3  2  2  0
  4  3  1  0
  5 11  1  0
  5  4  2  0
  6  5  1  0
  7  6  1  0
  7  8  1  6
  9  7  1  0
  9 10  2  0
 11 12  2  0
 12  2  1  0
 13  9  1  0
 14 13  1  0
 14 15  1  1
 15 16  1  0
 17 21  1  0
 17 16  1  0
 18 17  2  0
 19 14  1  0
 20 19  2  0
 22 19  1  0
 23 22  1  0
 23 24  1  6
 25 24  1  0
 26 27  1  0
 26 25  1  0
 28 27  1  0
 29 23  1  0
 29 31  1  0
 30 29  2  0
M  END
$$$$
