YEK.pdb
     RDKit          3D

 31 31  0  0  1  0  0  0  0  0999 V2000
   19.5231  -17.0741  -16.7592 O   0  0  0  0  0  0  0  0  0  0  0  0
   19.4190  -15.6882  -16.7853 C   0  0  0  0  0  0  0  0  0  0  0  0
   19.6877  -14.9177  -15.6630 C   0  0  0  0  0  0  0  0  0  0  0  0
   19.5813  -13.5410  -15.6998 C   0  0  0  0  0  0  0  0  0  0  0  0
   19.2051  -12.8743  -16.8479 C   0  0  0  0  0  0  0  0  0  0  0  0
   19.0844  -11.3906  -16.9055 C   0  0  0  0  0  0  0  0  0  0  0  0
   17.8288  -10.9632  -16.1944 C   0  0  2  0  0  0  0  0  0  0  0  0
   16.6407  -11.5059  -16.8075 N   0  0  0  0  0  0  0  0  0  0  0  0
   17.7817   -9.4453  -16.2207 C   0  0  0  0  0  0  0  0  0  0  0  0
   17.4816   -8.8481  -17.2768 O   0  0  0  0  0  0  0  0  0  0  0  0
   18.9376  -13.6457  -17.9666 C   0  0  0  0  0  0  0  0  0  0  0  0
   19.0435  -15.0225  -17.9316 C   0  0  0  0  0  0  0  0  0  0  0  0
   18.0766   -8.7131  -15.0514 N   0  0  0  0  0  0  0  0  0  0  0  0
   18.1317   -7.2980  -14.9533 C   0  0  1  0  0  0  0  0  0  0  0  0
   17.1575   -6.6533  -13.9961 C   0  0  0  0  0  0  0  0  0  0  0  0
   15.7219   -6.8131  -14.3557 C   0  0  0  0  0  0  0  0  0  0  0  0
   14.9521   -5.5372  -14.2095 C   0  0  0  0  0  0  0  0  0  0  0  0
   14.5785   -4.8691  -15.1992 O   0  0  0  0  0  0  0  0  0  0  0  0
   19.4929   -6.7391  -14.9149 C   0  0  0  0  0  0  0  0  0  0  0  0
   20.3510   -7.1098  -14.0537 O   0  0  0  0  0  0  0  0  0  0  0  0
   14.6271   -5.0531  -12.9556 O   0  0  0  0  0  0  0  0  0  0  0  0
   19.9584   -5.7527  -15.8239 N   0  0  0  0  0  0  0  0  0  0  0  0
   21.2965   -5.1799  -15.7254 C   0  0  1  0  0  0  0  0  0  0  0  0
   21.4808   -4.2885  -16.9241 C   0  0  0  0  0  0  0  0  0  0  0  0
   22.8195   -3.6586  -17.0605 C   0  0  0  0  0  0  0  0  0  0  0  0
   22.9360   -2.9114  -18.4014 C   0  0  0  0  0  0  0  0  0  0  0  0
   24.3377   -2.3592  -18.4672 C   0  0  0  0  0  0  0  0  0  0  0  0
   24.5080   -1.7978  -19.8128 N   0  0  0  0  0  0  0  0  0  0  0  0
   21.4051   -4.3778  -14.4985 C   0  0  0  0  0  0  0  0  0  0  0  0
   22.5222   -4.2336  -13.9395 O   0  0  0  0  0  0  0  0  0  0  0  0
   20.2505   -3.7925  -13.9835 O   0  0  0  0  0  0  0  0  0  0  0  0
  2  1  1  0
  3  2  2  0
  4  3  1  0
  5 11  1  0
  5  4  2  0
  6  5  1  0
  7  6  1  0
  7  8  1  6
  9  7  1  0
  9 10  2  0
 11 12  2  0
 12  2  1  0
 13  9  1  0
 14 13  1  0
 14 15  1  1
 15 16  1  0
 17 21  1  0
 17 16  1  0
 18 17  2  0
 19 14  1  0
 20 19  2  0
 22 19  1  0
 23 22  1  0
 23 24  1  6
 25 24  1  0
 26 27  1  0
 26 25  1  0
 28 27  1  0
 29 23  1  0
 29 31  1  0
 30 29  2  0
M  END
$$$$
