YEK.pdb
     RDKit          3D

 31 31  0  0  1  0  0  0  0  0999 V2000
   30.4032  -13.0682  -17.2312 O   0  0  0  0  0  0  0  0  0  0  0  0
   29.2326  -12.3261  -17.1243 C   0  0  0  0  0  0  0  0  0  0  0  0
   28.3617  -12.1838  -18.1950 C   0  0  0  0  0  0  0  0  0  0  0  0
   27.2010  -11.4442  -18.0780 C   0  0  0  0  0  0  0  0  0  0  0  0
   26.8577  -10.8175  -16.8975 C   0  0  0  0  0  0  0  0  0  0  0  0
   25.6106  -10.0154  -16.7535 C   0  0  0  0  0  0  0  0  0  0  0  0
   24.5634  -10.8404  -16.0550 C   0  0  2  0  0  0  0  0  0  0  0  0
   24.3700  -12.1251  -16.6828 N   0  0  0  0  0  0  0  0  0  0  0  0
   23.2671  -10.0493  -16.0775 C   0  0  0  0  0  0  0  0  0  0  0  0
   22.2885  -10.4723  -16.7298 O   0  0  0  0  0  0  0  0  0  0  0  0
   27.7286  -10.9613  -15.8303 C   0  0  0  0  0  0  0  0  0  0  0  0
   28.8899  -11.7005  -15.9455 C   0  0  0  0  0  0  0  0  0  0  0  0
   23.1711   -8.8380  -15.3606 N   0  0  0  0  0  0  0  0  0  0  0  0
   22.0157   -8.0179  -15.2728 C   0  0  1  0  0  0  0  0  0  0  0  0
   20.9765   -8.4292  -14.2570 C   0  0  0  0  0  0  0  0  0  0  0  0
   19.7114   -7.6457  -14.2975 C   0  0  0  0  0  0  0  0  0  0  0  0
   18.5030   -8.5203  -14.4266 C   0  0  0  0  0  0  0  0  0  0  0  0
   18.5416   -9.6255  -15.0120 O   0  0  0  0  0  0  0  0  0  0  0  0
   22.2853   -6.5719  -15.3261 C   0  0  0  0  0  0  0  0  0  0  0  0
   23.1129   -6.0100  -14.5420 O   0  0  0  0  0  0  0  0  0  0  0  0
   17.2898   -8.1247  -13.8937 O   0  0  0  0  0  0  0  0  0  0  0  0
   21.6540   -5.6927  -16.2451 N   0  0  0  0  0  0  0  0  0  0  0  0
   21.9149   -4.2574  -16.2464 C   0  0  1  0  0  0  0  0  0  0  0  0
   21.1571   -3.6754  -17.4094 C   0  0  0  0  0  0  0  0  0  0  0  0
   21.2837   -2.2063  -17.5923 C   0  0  0  0  0  0  0  0  0  0  0  0
   20.4919   -1.7408  -18.8277 C   0  0  0  0  0  0  0  0  0  0  0  0
   20.7132   -0.2539  -18.9468 C   0  0  0  0  0  0  0  0  0  0  0  0
   20.0769    0.1689  -20.2003 N   0  0  0  0  0  0  0  0  0  0  0  0
   21.4239   -3.6615  -14.9956 C   0  0  0  0  0  0  0  0  0  0  0  0
   20.3982   -4.1285  -14.4379 O   0  0  0  0  0  0  0  0  0  0  0  0
   22.1195   -2.5812  -14.4570 O   0  0  0  0  0  0  0  0  0  0  0  0
  2  1  1  0
  3  2  2  0
  4  3  1  0
  5 11  1  0
  5  4  2  0
  6  5  1  0
  7  6  1  0
  7  8  1  6
  9  7  1  0
  9 10  2  0
 11 12  2  0
 12  2  1  0
 13  9  1  0
 14 13  1  0
 14 15  1  1
 15 16  1  0
 17 21  1  0
 17 16  1  0
 18 17  2  0
 19 14  1  0
 20 19  2  0
 22 19  1  0
 23 22  1  0
 23 24  1  6
 25 24  1  0
 26 27  1  0
 26 25  1  0
 28 27  1  0
 29 23  1  0
 29 31  1  0
 30 29  2  0
M  END
$$$$
