YEK.pdb
     RDKit          3D

 31 31  0  0  1  0  0  0  0  0999 V2000
   22.6181  -21.7171   -6.1269 O   0  0  0  0  0  0  0  0  0  0  0  0
   23.2589  -21.2624   -7.2737 C   0  0  0  0  0  0  0  0  0  0  0  0
   24.5529  -20.7630   -7.2339 C   0  0  0  0  0  0  0  0  0  0  0  0
   25.1805  -20.3139   -8.3795 C   0  0  0  0  0  0  0  0  0  0  0  0
   24.5521  -20.3417   -9.6077 C   0  0  0  0  0  0  0  0  0  0  0  0
   25.2133  -19.8608  -10.8530 C   0  0  0  0  0  0  0  0  0  0  0  0
   25.7807  -21.0355  -11.6035 C   0  0  2  0  0  0  0  0  0  0  0  0
   26.9224  -21.6120  -10.9357 N   0  0  0  0  0  0  0  0  0  0  0  0
   26.1775  -20.5473  -12.9859 C   0  0  0  0  0  0  0  0  0  0  0  0
   27.2208  -19.8755  -13.1353 O   0  0  0  0  0  0  0  0  0  0  0  0
   23.2607  -20.8406   -9.6446 C   0  0  0  0  0  0  0  0  0  0  0  0
   22.6315  -21.2902   -8.5000 C   0  0  0  0  0  0  0  0  0  0  0  0
   25.3665  -20.8544  -14.0988 N   0  0  0  0  0  0  0  0  0  0  0  0
   25.6238  -20.4704  -15.4410 C   0  0  1  0  0  0  0  0  0  0  0  0
   26.5180  -21.3872  -16.2415 C   0  0  0  0  0  0  0  0  0  0  0  0
   26.8290  -20.9182  -17.6196 C   0  0  0  0  0  0  0  0  0  0  0  0
   27.7502  -21.8498  -18.3446 C   0  0  0  0  0  0  0  0  0  0  0  0
   27.3472  -22.6102  -19.2527 O   0  0  0  0  0  0  0  0  0  0  0  0
   24.4485  -19.9668  -16.1701 C   0  0  0  0  0  0  0  0  0  0  0  0
   23.3421  -20.5922  -16.1818 O   0  0  0  0  0  0  0  0  0  0  0  0
   29.0950  -21.8966  -18.0255 O   0  0  0  0  0  0  0  0  0  0  0  0
   24.4489  -18.7561  -16.9119 N   0  0  0  0  0  0  0  0  0  0  0  0
   23.2577  -18.2696  -17.5992 C   0  0  1  0  0  0  0  0  0  0  0  0
   23.5936  -16.9089  -18.1481 C   0  0  0  0  0  0  0  0  0  0  0  0
   22.4742  -16.1816  -18.8004 C   0  0  0  0  0  0  0  0  0  0  0  0
   22.9212  -14.7760  -19.2413 C   0  0  0  0  0  0  0  0  0  0  0  0
   21.6818  -14.0566  -19.7110 C   0  0  0  0  0  0  0  0  0  0  0  0
   22.0879  -12.6841  -20.0367 N   0  0  0  0  0  0  0  0  0  0  0  0
   22.9187  -19.1737  -18.7074 C   0  0  0  0  0  0  0  0  0  0  0  0
   21.7154  -19.3545  -19.0247 O   0  0  0  0  0  0  0  0  0  0  0  0
   23.9555  -19.8129  -19.3836 O   0  0  0  0  0  0  0  0  0  0  0  0
  2  1  1  0
  3  2  2  0
  4  3  1  0
  5 11  1  0
  5  4  2  0
  6  5  1  0
  7  6  1  0
  7  8  1  1
  9  7  1  0
  9 10  2  0
 11 12  2  0
 12  2  1  0
 13  9  1  0
 14 13  1  0
 14 15  1  6
 15 16  1  0
 17 21  1  0
 17 16  1  0
 18 17  2  0
 19 14  1  0
 20 19  2  0
 22 19  1  0
 23 22  1  0
 23 24  1  6
 25 24  1  0
 26 27  1  0
 26 25  1  0
 28 27  1  0
 29 23  1  0
 29 31  1  0
 30 29  2  0
M  END
$$$$
