YEK.pdb
     RDKit          3D

 31 31  0  0  1  0  0  0  0  0999 V2000
   10.3766  -13.2890   -9.9447 O   0  0  0  0  0  0  0  0  0  0  0  0
   11.2781  -12.2340  -10.0269 C   0  0  0  0  0  0  0  0  0  0  0  0
   11.9587  -11.7707   -8.9100 C   0  0  0  0  0  0  0  0  0  0  0  0
   12.8525  -10.7217   -9.0027 C   0  0  0  0  0  0  0  0  0  0  0  0
   13.1070  -10.0913  -10.2035 C   0  0  0  0  0  0  0  0  0  0  0  0
   14.0670   -8.9582  -10.3218 C   0  0  0  0  0  0  0  0  0  0  0  0
   15.3220   -9.4351  -11.0019 C   0  0  2  0  0  0  0  0  0  0  0  0
   16.0588  -10.3763  -10.1937 N   0  0  0  0  0  0  0  0  0  0  0  0
   16.1783   -8.2145  -11.2910 C   0  0  0  0  0  0  0  0  0  0  0  0
   17.0425   -7.8482  -10.4658 O   0  0  0  0  0  0  0  0  0  0  0  0
   12.4265  -10.5558  -11.3167 C   0  0  0  0  0  0  0  0  0  0  0  0
   11.5323  -11.6047  -11.2259 C   0  0  0  0  0  0  0  0  0  0  0  0
   15.9957   -7.4970  -12.4920 N   0  0  0  0  0  0  0  0  0  0  0  0
   16.5950   -6.2500  -12.8100 C   0  0  1  0  0  0  0  0  0  0  0  0
   17.3082   -6.1677  -14.1387 C   0  0  0  0  0  0  0  0  0  0  0  0
   17.9575   -4.8592  -14.4251 C   0  0  0  0  0  0  0  0  0  0  0  0
   18.7056   -4.8657  -15.7221 C   0  0  0  0  0  0  0  0  0  0  0  0
   18.1266   -4.7417  -16.8242 O   0  0  0  0  0  0  0  0  0  0  0  0
   15.7747   -5.0738  -12.4782 C   0  0  0  0  0  0  0  0  0  0  0  0
   14.6181   -4.8956  -12.9742 O   0  0  0  0  0  0  0  0  0  0  0  0
   20.0807   -5.0113  -15.7386 O   0  0  0  0  0  0  0  0  0  0  0  0
   16.1980   -4.0520  -11.5879 N   0  0  0  0  0  0  0  0  0  0  0  0
   15.3302   -2.9387  -11.2194 C   0  0  1  0  0  0  0  0  0  0  0  0
   15.3944   -2.8105   -9.7211 C   0  0  0  0  0  0  0  0  0  0  0  0
   14.6559   -1.6599   -9.1394 C   0  0  0  0  0  0  0  0  0  0  0  0
   14.7474   -1.6745   -7.6027 C   0  0  0  0  0  0  0  0  0  0  0  0
   13.9098   -0.5215   -7.1097 C   0  0  0  0  0  0  0  0  0  0  0  0
   13.9378   -0.5756   -5.6430 N   0  0  0  0  0  0  0  0  0  0  0  0
   15.8218   -1.6991  -11.8376 C   0  0  0  0  0  0  0  0  0  0  0  0
   17.0388   -1.5845  -12.1329 O   0  0  0  0  0  0  0  0  0  0  0  0
   14.9120   -0.6727  -12.0817 O   0  0  0  0  0  0  0  0  0  0  0  0
  2  1  1  0
  3  2  2  0
  4  3  1  0
  5 11  1  0
  5  4  2  0
  6  5  1  0
  7  6  1  0
  7  8  1  1
  9  7  1  0
  9 10  2  0
 11 12  2  0
 12  2  1  0
 13  9  1  0
 14 13  1  0
 14 15  1  6
 15 16  1  0
 17 21  1  0
 17 16  1  0
 18 17  2  0
 19 14  1  0
 20 19  2  0
 22 19  1  0
 23 22  1  0
 23 24  1  1
 25 24  1  0
 26 27  1  0
 26 25  1  0
 28 27  1  0
 29 23  1  0
 29 31  1  0
 30 29  2  0
M  END
$$$$
