YEK.pdb
     RDKit          3D

 31 31  0  0  1  0  0  0  0  0999 V2000
   34.9516  -11.6681  -17.8101 O   0  0  0  0  0  0  0  0  0  0  0  0
   33.6178  -11.6017  -18.1964 C   0  0  0  0  0  0  0  0  0  0  0  0
   33.1880  -10.7186  -19.1765 C   0  0  0  0  0  0  0  0  0  0  0  0
   31.8603  -10.6607  -19.5530 C   0  0  0  0  0  0  0  0  0  0  0  0
   30.9075  -11.4742  -18.9744 C   0  0  0  0  0  0  0  0  0  0  0  0
   29.4714  -11.4248  -19.3674 C   0  0  0  0  0  0  0  0  0  0  0  0
   29.0610  -12.7587  -19.9308 C   0  0  2  0  0  0  0  0  0  0  0  0
   29.8706  -13.1485  -21.0597 N   0  0  0  0  0  0  0  0  0  0  0  0
   27.6043  -12.6515  -20.3467 C   0  0  0  0  0  0  0  0  0  0  0  0
   27.3104  -12.4325  -21.5416 O   0  0  0  0  0  0  0  0  0  0  0  0
   31.3393  -12.3548  -17.9965 C   0  0  0  0  0  0  0  0  0  0  0  0
   32.6666  -12.4139  -17.6188 C   0  0  0  0  0  0  0  0  0  0  0  0
   26.5856  -12.8002  -19.3819 N   0  0  0  0  0  0  0  0  0  0  0  0
   25.1902  -12.7450  -19.6369 C   0  0  1  0  0  0  0  0  0  0  0  0
   24.4057  -14.0036  -19.3515 C   0  0  0  0  0  0  0  0  0  0  0  0
   25.1739  -15.2707  -19.4942 C   0  0  0  0  0  0  0  0  0  0  0  0
   24.3151  -16.4825  -19.3047 C   0  0  0  0  0  0  0  0  0  0  0  0
   23.1006  -16.3981  -19.0157 O   0  0  0  0  0  0  0  0  0  0  0  0
   24.5365  -11.5005  -19.2007 C   0  0  0  0  0  0  0  0  0  0  0  0
   24.8652  -10.9057  -18.1267 O   0  0  0  0  0  0  0  0  0  0  0  0
   24.8489  -17.7503  -19.4460 O   0  0  0  0  0  0  0  0  0  0  0  0
   23.4979  -10.8657  -19.9318 N   0  0  0  0  0  0  0  0  0  0  0  0
   22.9120   -9.6003  -19.5032 C   0  0  1  0  0  0  0  0  0  0  0  0
   21.9680   -9.1638  -20.5912 C   0  0  0  0  0  0  0  0  0  0  0  0
   21.3322   -7.8347  -20.3994 C   0  0  0  0  0  0  0  0  0  0  0  0
   20.3512   -7.5295  -21.5459 C   0  0  0  0  0  0  0  0  0  0  0  0
   19.7985   -6.1509  -21.2851 C   0  0  0  0  0  0  0  0  0  0  0  0
   19.0492   -5.7620  -22.4860 N   0  0  0  0  0  0  0  0  0  0  0  0
   22.1616   -9.7973  -18.2548 C   0  0  0  0  0  0  0  0  0  0  0  0
   22.0177   -8.8408  -17.4511 O   0  0  0  0  0  0  0  0  0  0  0  0
   21.6239  -11.0559  -17.9947 O   0  0  0  0  0  0  0  0  0  0  0  0
  2  1  1  0
  3  2  2  0
  4  3  1  0
  5 11  1  0
  5  4  2  0
  6  5  1  0
  7  6  1  0
  7  8  1  6
  9  7  1  0
  9 10  2  0
 11 12  2  0
 12  2  1  0
 13  9  1  0
 14 13  1  0
 14 15  1  1
 15 16  1  0
 17 21  1  0
 17 16  1  0
 18 17  2  0
 19 14  1  0
 20 19  2  0
 22 19  1  0
 23 22  1  0
 23 24  1  6
 25 24  1  0
 26 27  1  0
 26 25  1  0
 28 27  1  0
 29 23  1  0
 29 31  1  0
 30 29  2  0
M  END
$$$$
