YEK.pdb
     RDKit          3D

 31 31  0  0  1  0  0  0  0  0999 V2000
   31.4201  -21.8817   -9.8911 O   0  0  0  0  0  0  0  0  0  0  0  0
   30.1482  -21.4243  -10.2161 C   0  0  0  0  0  0  0  0  0  0  0  0
   29.8332  -21.0031  -11.5001 C   0  0  0  0  0  0  0  0  0  0  0  0
   28.5662  -20.5505  -11.8124 C   0  0  0  0  0  0  0  0  0  0  0  0
   27.5628  -20.4974  -10.8666 C   0  0  0  0  0  0  0  0  0  0  0  0
   26.1911  -20.0114  -11.1854 C   0  0  0  0  0  0  0  0  0  0  0  0
   25.3064  -21.1860  -11.5061 C   0  0  2  0  0  0  0  0  0  0  0  0
   25.8078  -21.9624  -12.6141 N   0  0  0  0  0  0  0  0  0  0  0  0
   23.9258  -20.6438  -11.8324 C   0  0  0  0  0  0  0  0  0  0  0  0
   23.3241  -19.9277  -11.0034 O   0  0  0  0  0  0  0  0  0  0  0  0
   27.8798  -20.9184   -9.5859 C   0  0  0  0  0  0  0  0  0  0  0  0
   29.1464  -21.3714   -9.2718 C   0  0  0  0  0  0  0  0  0  0  0  0
   23.3259  -20.9501  -13.0721 N   0  0  0  0  0  0  0  0  0  0  0  0
   22.0266  -20.5526  -13.4831 C   0  0  1  0  0  0  0  0  0  0  0  0
   21.9329  -19.8305  -14.8062 C   0  0  0  0  0  0  0  0  0  0  0  0
   20.5900  -19.2736  -15.1262 C   0  0  0  0  0  0  0  0  0  0  0  0
   20.2228  -19.4621  -16.5655 C   0  0  0  0  0  0  0  0  0  0  0  0
   21.0837  -19.6662  -17.4501 O   0  0  0  0  0  0  0  0  0  0  0  0
   20.9775  -21.5598  -13.2564 C   0  0  0  0  0  0  0  0  0  0  0  0
   21.0615  -22.7392  -13.7228 O   0  0  0  0  0  0  0  0  0  0  0  0
   18.8995  -19.4151  -16.9643 O   0  0  0  0  0  0  0  0  0  0  0  0
   19.7984  -21.3050  -12.5073 N   0  0  0  0  0  0  0  0  0  0  0  0
   18.8336  -22.3558  -12.2022 C   0  0  1  0  0  0  0  0  0  0  0  0
   18.8629  -22.5579  -10.7110 C   0  0  0  0  0  0  0  0  0  0  0  0
   18.4927  -23.9162  -10.2362 C   0  0  0  0  0  0  0  0  0  0  0  0
   18.6537  -24.0222   -8.7088 C   0  0  0  0  0  0  0  0  0  0  0  0
   18.2885  -25.4364   -8.3336 C   0  0  0  0  0  0  0  0  0  0  0  0
   18.6775  -25.6148   -6.9294 N   0  0  0  0  0  0  0  0  0  0  0  0
   17.4878  -21.9294  -12.6114 C   0  0  0  0  0  0  0  0  0  0  0  0
   17.2733  -20.7263  -12.9078 O   0  0  0  0  0  0  0  0  0  0  0  0
   16.4747  -22.8846  -12.6596 O   0  0  0  0  0  0  0  0  0  0  0  0
  2  1  1  0
  3  2  2  0
  4  3  1  0
  5 11  1  0
  5  4  2  0
  6  5  1  0
  7  6  1  0
  7  8  1  6
  9  7  1  0
  9 10  2  0
 11 12  2  0
 12  2  1  0
 13  9  1  0
 14 13  1  0
 14 15  1  6
 15 16  1  0
 17 21  1  0
 17 16  1  0
 18 17  2  0
 19 14  1  0
 20 19  2  0
 22 19  1  0
 23 22  1  0
 23 24  1  1
 25 24  1  0
 26 27  1  0
 26 25  1  0
 28 27  1  0
 29 23  1  0
 29 31  1  0
 30 29  2  0
M  END
$$$$
