YEK.pdb
     RDKit          3D

 31 31  0  0  1  0  0  0  0  0999 V2000
   25.6120  -16.6428  -24.5446 O   0  0  0  0  0  0  0  0  0  0  0  0
   25.1658  -17.4533  -23.5071 C   0  0  0  0  0  0  0  0  0  0  0  0
   23.8994  -18.0201  -23.5204 C   0  0  0  0  0  0  0  0  0  0  0  0
   23.4660  -18.8241  -22.4843 C   0  0  0  0  0  0  0  0  0  0  0  0
   24.2687  -19.0979  -21.3958 C   0  0  0  0  0  0  0  0  0  0  0  0
   23.8175  -19.9620  -20.2692 C   0  0  0  0  0  0  0  0  0  0  0  0
   22.7379  -19.2529  -19.4966 C   0  0  2  0  0  0  0  0  0  0  0  0
   23.2183  -18.0478  -18.8651 N   0  0  0  0  0  0  0  0  0  0  0  0
   22.2164  -20.2187  -18.4469 C   0  0  0  0  0  0  0  0  0  0  0  0
   21.8768  -21.3755  -18.7764 O   0  0  0  0  0  0  0  0  0  0  0  0
   25.5323  -18.5310  -21.3850 C   0  0  0  0  0  0  0  0  0  0  0  0
   25.9674  -17.7267  -22.4203 C   0  0  0  0  0  0  0  0  0  0  0  0
   22.1171  -19.8069  -17.1012 N   0  0  0  0  0  0  0  0  0  0  0  0
   21.7437  -20.6328  -16.0086 C   0  0  1  0  0  0  0  0  0  0  0  0
   22.5659  -20.4924  -14.7496 C   0  0  0  0  0  0  0  0  0  0  0  0
   22.2074  -21.4351  -13.6548 C   0  0  0  0  0  0  0  0  0  0  0  0
   21.3515  -20.7934  -12.6071 C   0  0  0  0  0  0  0  0  0  0  0  0
   21.5743  -19.6376  -12.1830 O   0  0  0  0  0  0  0  0  0  0  0  0
   20.2923  -20.7366  -15.7871 C   0  0  0  0  0  0  0  0  0  0  0  0
   19.5675  -19.7152  -15.5710 O   0  0  0  0  0  0  0  0  0  0  0  0
   20.2727  -21.4714  -12.0698 O   0  0  0  0  0  0  0  0  0  0  0  0
   19.5866  -21.9687  -15.7965 N   0  0  0  0  0  0  0  0  0  0  0  0
   18.1628  -22.0470  -15.4882 C   0  0  1  0  0  0  0  0  0  0  0  0
   17.7207  -23.4486  -15.8132 C   0  0  0  0  0  0  0  0  0  0  0  0
   16.2733  -23.7284  -15.6274 C   0  0  0  0  0  0  0  0  0  0  0  0
   15.9555  -25.1977  -15.9590 C   0  0  0  0  0  0  0  0  0  0  0  0
   14.4582  -25.3479  -15.8608 C   0  0  0  0  0  0  0  0  0  0  0  0
   14.1636  -26.7739  -16.0472 N   0  0  0  0  0  0  0  0  0  0  0  0
   17.9486  -21.7863  -14.0576 C   0  0  0  0  0  0  0  0  0  0  0  0
   18.6647  -22.3634  -13.2000 O   0  0  0  0  0  0  0  0  0  0  0  0
   16.9439  -20.8945  -13.6884 O   0  0  0  0  0  0  0  0  0  0  0  0
  2  1  1  0
  3  2  2  0
  4  3  1  0
  5 11  1  0
  5  4  2  0
  6  5  1  0
  7  6  1  0
  7  8  1  1
  9  7  1  0
  9 10  2  0
 11 12  2  0
 12  2  1  0
 13  9  1  0
 14 13  1  0
 14 15  1  1
 15 16  1  0
 17 21  1  0
 17 16  1  0
 18 17  2  0
 19 14  1  0
 20 19  2  0
 22 19  1  0
 23 22  1  0
 23 24  1  1
 25 24  1  0
 26 27  1  0
 26 25  1  0
 28 27  1  0
 29 23  1  0
 29 31  1  0
 30 29  2  0
M  END
$$$$
