LFK.pdb
     RDKit          3D

 29 29  0  0  1  0  0  0  0  0999 V2000
   21.6349  -13.7150  -20.1880 C   0  0  0  0  0  0  0  0  0  0  0  0
   22.9342  -13.7849  -19.4772 C   0  0  2  0  0  0  0  0  0  0  0  0
   23.1209  -15.1224  -18.7603 C   0  0  0  0  0  0  0  0  0  0  0  0
   23.1175  -12.7180  -18.4585 C   0  0  0  0  0  0  0  0  0  0  0  0
   22.7744  -11.3704  -18.9671 C   0  0  2  0  0  0  0  0  0  0  0  0
   23.5654  -10.8332  -20.0152 N   0  0  0  0  0  0  0  0  0  0  0  0
   22.5571  -10.3791  -17.8578 C   0  0  0  0  0  0  0  0  0  0  0  0
   21.8390  -10.7041  -16.8589 O   0  0  0  0  0  0  0  0  0  0  0  0
   23.1071   -9.0857  -17.8516 N   0  0  0  0  0  0  0  0  0  0  0  0
   22.9450   -8.1298  -16.7637 C   0  0  1  0  0  0  0  0  0  0  0  0
   24.3128   -7.5962  -16.4779 C   0  0  0  0  0  0  0  0  0  0  0  0
   25.2995   -8.5924  -16.0376 C   0  0  0  0  0  0  0  0  0  0  0  0
   26.5028   -8.7605  -16.7074 C   0  0  0  0  0  0  0  0  0  0  0  0
   27.4337   -9.6907  -16.2875 C   0  0  0  0  0  0  0  0  0  0  0  0
   27.2048  -10.4886  -15.1870 C   0  0  0  0  0  0  0  0  0  0  0  0
   26.0244  -10.3377  -14.5132 C   0  0  0  0  0  0  0  0  0  0  0  0
   25.0970   -9.4027  -14.9412 C   0  0  0  0  0  0  0  0  0  0  0  0
   22.0628   -7.0192  -17.2047 C   0  0  0  0  0  0  0  0  0  0  0  0
   22.2931   -6.3977  -18.3013 O   0  0  0  0  0  0  0  0  0  0  0  0
   20.9710   -6.6555  -16.4063 N   0  0  0  0  0  0  0  0  0  0  0  0
   20.0864   -5.4699  -16.7727 C   0  0  1  0  0  0  0  0  0  0  0  0
   18.7470   -6.0987  -16.7928 C   0  0  0  0  0  0  0  0  0  0  0  0
   17.5274   -5.3037  -16.9255 C   0  0  0  0  0  0  0  0  0  0  0  0
   16.2462   -6.0379  -16.9770 C   0  0  0  0  0  0  0  0  0  0  0  0
   15.0980   -5.0761  -17.1587 C   0  0  0  0  0  0  0  0  0  0  0  0
   13.8811   -5.8613  -17.3192 N   0  0  0  0  0  0  0  0  0  0  0  0
   20.3858   -4.4306  -15.8079 C   0  0  0  0  0  0  0  0  0  0  0  0
   20.8915   -4.6150  -14.5534 O   0  0  0  0  0  0  0  0  0  0  0  0
   20.1578   -3.2027  -16.1260 O   0  0  0  0  0  0  0  0  0  0  0  0
  2  3  1  1
  2  1  1  0
  4  2  1  0
  5  4  1  0
  5  6  1  6
  7  5  1  0
  7  8  2  0
  9  7  1  0
 10  9  1  0
 10 11  1  6
 11 12  1  0
 12 17  2  0
 12 13  1  0
 13 14  2  0
 15 14  1  0
 16 15  2  0
 17 16  1  0
 18 10  1  0
 19 18  2  0
 20 18  1  0
 21 22  1  1
 21 20  1  0
 22 23  1  0
 23 24  1  0
 24 25  1  0
 26 25  1  0
 27 28  1  0
 27 21  1  0
 29 27  2  0
M  END
$$$$
