LFK.pdb
     RDKit          3D

 29 29  0  0  1  0  0  0  0  0999 V2000
   29.3779  -17.8061  -16.9603 C   0  0  0  0  0  0  0  0  0  0  0  0
   28.0174  -18.0260  -17.5073 C   0  0  2  0  0  0  0  0  0  0  0  0
   27.3111  -16.7079  -17.8259 C   0  0  0  0  0  0  0  0  0  0  0  0
   27.1224  -18.7885  -16.5979 C   0  0  0  0  0  0  0  0  0  0  0  0
   27.7127  -20.0703  -16.1496 C   0  0  2  0  0  0  0  0  0  0  0  0
   28.0820  -21.0158  -17.1409 N   0  0  0  0  0  0  0  0  0  0  0  0
   26.9294  -20.7002  -15.0315 C   0  0  0  0  0  0  0  0  0  0  0  0
   25.9112  -21.4131  -15.3040 O   0  0  0  0  0  0  0  0  0  0  0  0
   27.2547  -20.5492  -13.6726 N   0  0  0  0  0  0  0  0  0  0  0  0
   26.3975  -20.9692  -12.5715 C   0  0  1  0  0  0  0  0  0  0  0  0
   27.1695  -20.6925  -11.3207 C   0  0  0  0  0  0  0  0  0  0  0  0
   26.3977  -20.7711  -10.0724 C   0  0  0  0  0  0  0  0  0  0  0  0
   25.0704  -21.1749  -10.0694 C   0  0  0  0  0  0  0  0  0  0  0  0
   24.3483  -21.2575   -8.8947 C   0  0  0  0  0  0  0  0  0  0  0  0
   24.9170  -20.9422   -7.6792 C   0  0  0  0  0  0  0  0  0  0  0  0
   26.2246  -20.5422   -7.6614 C   0  0  0  0  0  0  0  0  0  0  0  0
   26.9408  -20.4625   -8.8438 C   0  0  0  0  0  0  0  0  0  0  0  0
   25.1523  -20.1594  -12.5737 C   0  0  0  0  0  0  0  0  0  0  0  0
   25.2053  -18.8792  -12.5726 O   0  0  0  0  0  0  0  0  0  0  0  0
   23.9129  -20.8118  -12.5769 N   0  0  0  0  0  0  0  0  0  0  0  0
   22.6106  -20.0300  -12.7008 C   0  0  1  0  0  0  0  0  0  0  0  0
   22.5077  -19.8625  -14.1675 C   0  0  0  0  0  0  0  0  0  0  0  0
   21.3718  -19.1797  -14.7846 C   0  0  0  0  0  0  0  0  0  0  0  0
   21.3677  -19.0749  -16.2584 C   0  0  0  0  0  0  0  0  0  0  0  0
   20.0964  -18.4157  -16.7333 C   0  0  0  0  0  0  0  0  0  0  0  0
   20.1679  -18.3050  -18.1844 N   0  0  0  0  0  0  0  0  0  0  0  0
   21.6104  -20.7978  -11.9861 C   0  0  0  0  0  0  0  0  0  0  0  0
   20.5654  -20.2920  -11.2681 O   0  0  0  0  0  0  0  0  0  0  0  0
   21.6871  -22.0842  -12.0000 O   0  0  0  0  0  0  0  0  0  0  0  0
  2  3  1  1
  2  1  1  0
  4  2  1  0
  5  4  1  0
  5  6  1  6
  7  5  1  0
  7  8  2  0
  9  7  1  0
 10  9  1  0
 10 11  1  1
 11 12  1  0
 12 17  2  0
 12 13  1  0
 13 14  2  0
 15 14  1  0
 16 15  2  0
 17 16  1  0
 18 10  1  0
 19 18  2  0
 20 18  1  0
 21 22  1  6
 21 20  1  0
 22 23  1  0
 23 24  1  0
 24 25  1  0
 26 25  1  0
 27 28  1  0
 27 21  1  0
 29 27  2  0
M  END
$$$$
