LFK.pdb
     RDKit          3D

 29 29  0  0  1  0  0  0  0  0999 V2000
   29.4342  -17.9428  -14.8517 C   0  0  0  0  0  0  0  0  0  0  0  0
   28.5434  -18.8426  -15.6232 C   0  0  2  0  0  0  0  0  0  0  0  0
   27.7994  -18.0960  -16.7307 C   0  0  0  0  0  0  0  0  0  0  0  0
   27.5152  -19.5232  -14.7930 C   0  0  0  0  0  0  0  0  0  0  0  0
   28.0940  -20.2507  -13.6405 C   0  0  2  0  0  0  0  0  0  0  0  0
   29.1185  -21.1978  -13.8977 N   0  0  0  0  0  0  0  0  0  0  0  0
   27.0377  -20.7963  -12.7202 C   0  0  0  0  0  0  0  0  0  0  0  0
   26.7434  -22.0333  -12.7679 O   0  0  0  0  0  0  0  0  0  0  0  0
   26.3364  -20.0112  -11.7890 N   0  0  0  0  0  0  0  0  0  0  0  0
   25.1714  -20.4678  -11.0421 C   0  0  1  0  0  0  0  0  0  0  0  0
   25.0603  -19.5605   -9.8583 C   0  0  0  0  0  0  0  0  0  0  0  0
   26.0353  -19.8010   -8.7851 C   0  0  0  0  0  0  0  0  0  0  0  0
   26.9787  -18.8440   -8.4402 C   0  0  0  0  0  0  0  0  0  0  0  0
   27.8888  -19.0671   -7.4252 C   0  0  0  0  0  0  0  0  0  0  0  0
   27.8963  -20.2485   -6.7150 C   0  0  0  0  0  0  0  0  0  0  0  0
   26.9738  -21.2043   -7.0401 C   0  0  0  0  0  0  0  0  0  0  0  0
   26.0652  -20.9720   -8.0588 C   0  0  0  0  0  0  0  0  0  0  0  0
   23.9559  -20.3327  -11.8849 C   0  0  0  0  0  0  0  0  0  0  0  0
   23.8066  -19.3228  -12.6594 O   0  0  0  0  0  0  0  0  0  0  0  0
   22.9688  -21.3245  -11.8247 N   0  0  0  0  0  0  0  0  0  0  0  0
   21.7182  -21.2461  -12.6920 C   0  0  1  0  0  0  0  0  0  0  0  0
   21.4088  -22.6795  -12.8905 C   0  0  0  0  0  0  0  0  0  0  0  0
   20.1815  -23.1153  -13.5546 C   0  0  0  0  0  0  0  0  0  0  0  0
   19.9662  -24.5713  -13.6855 C   0  0  0  0  0  0  0  0  0  0  0  0
   18.6350  -24.8474  -14.3395 C   0  0  0  0  0  0  0  0  0  0  0  0
   18.4914  -26.2921  -14.4636 N   0  0  0  0  0  0  0  0  0  0  0  0
   20.7866  -20.3945  -11.9794 C   0  0  0  0  0  0  0  0  0  0  0  0
   20.7311  -20.2122  -10.6278 O   0  0  0  0  0  0  0  0  0  0  0  0
   19.9058  -19.7370  -12.6523 O   0  0  0  0  0  0  0  0  0  0  0  0
  2  3  1  6
  2  1  1  0
  4  2  1  0
  5  4  1  0
  5  6  1  6
  7  5  1  0
  7  8  2  0
  9  7  1  0
 10  9  1  0
 10 11  1  1
 11 12  1  0
 12 17  2  0
 12 13  1  0
 13 14  2  0
 15 14  1  0
 16 15  2  0
 17 16  1  0
 18 10  1  0
 19 18  2  0
 20 18  1  0
 21 22  1  1
 21 20  1  0
 22 23  1  0
 23 24  1  0
 24 25  1  0
 26 25  1  0
 27 28  1  0
 27 21  1  0
 29 27  2  0
M  END
$$$$
