LFK.pdb
     RDKit          3D

 29 29  0  0  1  0  0  0  0  0999 V2000
   29.9628  -18.5687  -13.5312 C   0  0  0  0  0  0  0  0  0  0  0  0
   29.6486  -19.9241  -14.0436 C   0  0  2  0  0  0  0  0  0  0  0  0
   28.9858  -19.8736  -15.4205 C   0  0  0  0  0  0  0  0  0  0  0  0
   28.7469  -20.7052  -13.1569 C   0  0  0  0  0  0  0  0  0  0  0  0
   29.2458  -20.7991  -11.7659 C   0  0  2  0  0  0  0  0  0  0  0  0
   30.4084  -21.5764  -11.5268 N   0  0  0  0  0  0  0  0  0  0  0  0
   28.1488  -21.1061  -10.7847 C   0  0  0  0  0  0  0  0  0  0  0  0
   27.6843  -22.2887  -10.7141 O   0  0  0  0  0  0  0  0  0  0  0  0
   27.5884  -20.1501   -9.9202 N   0  0  0  0  0  0  0  0  0  0  0  0
   26.3173  -20.3150   -9.2271 C   0  0  1  0  0  0  0  0  0  0  0  0
   26.3046  -19.2865   -8.1411 C   0  0  0  0  0  0  0  0  0  0  0  0
   27.0999  -19.6165   -6.9501 C   0  0  0  0  0  0  0  0  0  0  0  0
   27.8791  -18.6599   -6.3156 C   0  0  0  0  0  0  0  0  0  0  0  0
   28.6191  -18.9684   -5.1907 C   0  0  0  0  0  0  0  0  0  0  0  0
   28.6133  -20.2380   -4.6539 C   0  0  0  0  0  0  0  0  0  0  0  0
   27.8512  -21.1950   -5.2651 C   0  0  0  0  0  0  0  0  0  0  0  0
   27.1124  -20.8768   -6.3922 C   0  0  0  0  0  0  0  0  0  0  0  0
   25.1992  -20.0536  -10.1692 C   0  0  0  0  0  0  0  0  0  0  0  0
   25.1894  -18.9974  -10.8948 O   0  0  0  0  0  0  0  0  0  0  0  0
   24.1499  -20.9770  -10.2577 N   0  0  0  0  0  0  0  0  0  0  0  0
   23.0223  -20.7952  -11.2666 C   0  0  1  0  0  0  0  0  0  0  0  0
   23.1240  -22.0474  -12.0486 C   0  0  0  0  0  0  0  0  0  0  0  0
   22.1797  -22.3630  -13.1191 C   0  0  0  0  0  0  0  0  0  0  0  0
   22.3321  -23.6713  -13.7886 C   0  0  0  0  0  0  0  0  0  0  0  0
   21.1849  -23.9105  -14.7389 C   0  0  0  0  0  0  0  0  0  0  0  0
   21.3682  -25.2273  -15.3352 N   0  0  0  0  0  0  0  0  0  0  0  0
   21.8291  -20.5185  -10.4917 C   0  0  0  0  0  0  0  0  0  0  0  0
   20.6611  -19.9959  -10.9670 O   0  0  0  0  0  0  0  0  0  0  0  0
   21.8369  -20.7690   -9.2276 O   0  0  0  0  0  0  0  0  0  0  0  0
  2  3  1  6
  2  1  1  0
  4  2  1  0
  5  4  1  0
  5  6  1  6
  7  5  1  0
  7  8  2  0
  9  7  1  0
 10  9  1  0
 10 11  1  1
 11 12  1  0
 12 17  2  0
 12 13  1  0
 13 14  2  0
 15 14  1  0
 16 15  2  0
 17 16  1  0
 18 10  1  0
 19 18  2  0
 20 18  1  0
 21 22  1  1
 21 20  1  0
 22 23  1  0
 23 24  1  0
 24 25  1  0
 26 25  1  0
 27 28  1  0
 27 21  1  0
 29 27  2  0
M  END
$$$$
