LFK.pdb
     RDKit          3D

 29 29  0  0  1  0  0  0  0  0999 V2000
   26.7403  -27.8170  -17.2456 C   0  0  0  0  0  0  0  0  0  0  0  0
   27.5396  -26.5697  -17.1853 C   0  0  2  0  0  0  0  0  0  0  0  0
   28.9588  -26.8258  -16.6773 C   0  0  0  0  0  0  0  0  0  0  0  0
   26.9492  -25.5218  -16.3118 C   0  0  0  0  0  0  0  0  0  0  0  0
   25.5330  -25.2334  -16.6341 C   0  0  2  0  0  0  0  0  0  0  0  0
   25.2133  -24.8797  -17.9703 N   0  0  0  0  0  0  0  0  0  0  0  0
   24.8973  -24.3058  -15.6362 C   0  0  0  0  0  0  0  0  0  0  0  0
   25.0438  -24.5284  -14.3920 O   0  0  0  0  0  0  0  0  0  0  0  0
   24.1327  -23.1826  -15.9955 N   0  0  0  0  0  0  0  0  0  0  0  0
   23.5624  -22.2387  -15.0430 C   0  0  1  0  0  0  0  0  0  0  0  0
   23.7077  -20.8869  -15.6664 C   0  0  0  0  0  0  0  0  0  0  0  0
   25.0856  -20.3879  -15.7773 C   0  0  0  0  0  0  0  0  0  0  0  0
   25.7401  -19.8293  -14.6890 C   0  0  0  0  0  0  0  0  0  0  0  0
   27.0384  -19.3690  -14.7916 C   0  0  0  0  0  0  0  0  0  0  0  0
   27.7354  -19.4460  -15.9783 C   0  0  0  0  0  0  0  0  0  0  0  0
   27.1074  -19.9936  -17.0627 C   0  0  0  0  0  0  0  0  0  0  0  0
   25.8058  -20.4527  -16.9507 C   0  0  0  0  0  0  0  0  0  0  0  0
   22.1215  -22.5403  -14.8457 C   0  0  0  0  0  0  0  0  0  0  0  0
   21.3879  -22.8999  -15.8329 O   0  0  0  0  0  0  0  0  0  0  0  0
   21.5688  -22.4272  -13.5637 N   0  0  0  0  0  0  0  0  0  0  0  0
   20.1415  -22.8781  -13.2777 C   0  0  1  0  0  0  0  0  0  0  0  0
   20.2514  -23.3243  -11.8710 C   0  0  0  0  0  0  0  0  0  0  0  0
   19.1061  -23.8752  -11.1485 C   0  0  0  0  0  0  0  0  0  0  0  0
   19.2940  -24.1731   -9.7136 C   0  0  0  0  0  0  0  0  0  0  0  0
   18.0766  -24.8710   -9.1594 C   0  0  0  0  0  0  0  0  0  0  0  0
   18.3153  -25.1259   -7.7448 N   0  0  0  0  0  0  0  0  0  0  0  0
   19.2888  -21.7568  -13.6188 C   0  0  0  0  0  0  0  0  0  0  0  0
   18.0231  -21.8297  -14.1247 O   0  0  0  0  0  0  0  0  0  0  0  0
   19.7376  -20.5606  -13.4498 O   0  0  0  0  0  0  0  0  0  0  0  0
  2  3  1  1
  2  1  1  0
  4  2  1  0
  5  4  1  0
  5  6  1  6
  7  5  1  0
  7  8  2  0
  9  7  1  0
 10  9  1  0
 10 11  1  6
 11 12  1  0
 12 17  2  0
 12 13  1  0
 13 14  2  0
 15 14  1  0
 16 15  2  0
 17 16  1  0
 18 10  1  0
 19 18  2  0
 20 18  1  0
 21 22  1  1
 21 20  1  0
 22 23  1  0
 23 24  1  0
 24 25  1  0
 26 25  1  0
 27 28  1  0
 27 21  1  0
 29 27  2  0
M  END
$$$$
