LFK.pdb
     RDKit          3D

 29 29  0  0  1  0  0  0  0  0999 V2000
   26.6963  -16.2093  -16.5889 C   0  0  0  0  0  0  0  0  0  0  0  0
   27.7368  -16.5303  -15.5825 C   0  0  2  0  0  0  0  0  0  0  0  0
   29.1296  -16.1031  -16.0463 C   0  0  0  0  0  0  0  0  0  0  0  0
   27.8170  -17.9755  -15.2443 C   0  0  0  0  0  0  0  0  0  0  0  0
   26.5715  -18.4948  -14.6345 C   0  0  2  0  0  0  0  0  0  0  0  0
   25.5983  -17.5555  -14.2063 N   0  0  0  0  0  0  0  0  0  0  0  0
   26.8399  -19.5454  -13.5931 C   0  0  0  0  0  0  0  0  0  0  0  0
   27.5872  -20.5348  -13.8793 O   0  0  0  0  0  0  0  0  0  0  0  0
   26.3065  -19.5065  -12.2934 N   0  0  0  0  0  0  0  0  0  0  0  0
   26.3990  -20.6001  -11.3348 C   0  0  1  0  0  0  0  0  0  0  0  0
   26.1226  -19.9966   -9.9945 C   0  0  0  0  0  0  0  0  0  0  0  0
   27.1459  -20.2423   -8.9686 C   0  0  0  0  0  0  0  0  0  0  0  0
   28.1716  -21.1531   -9.1769 C   0  0  0  0  0  0  0  0  0  0  0  0
   29.1384  -21.3769   -8.2159 C   0  0  0  0  0  0  0  0  0  0  0  0
   29.1230  -20.7049   -7.0125 C   0  0  0  0  0  0  0  0  0  0  0  0
   28.1199  -19.8027   -6.7884 C   0  0  0  0  0  0  0  0  0  0  0  0
   27.1551  -19.5847   -7.7574 C   0  0  0  0  0  0  0  0  0  0  0  0
   25.3631  -21.6194  -11.6415 C   0  0  0  0  0  0  0  0  0  0  0  0
   25.3891  -22.7685  -11.0751 O   0  0  0  0  0  0  0  0  0  0  0  0
   24.3522  -21.3114  -12.5607 N   0  0  0  0  0  0  0  0  0  0  0  0
   23.3353  -22.3599  -12.9952 C   0  0  1  0  0  0  0  0  0  0  0  0
   22.0685  -21.7469  -12.5377 C   0  0  0  0  0  0  0  0  0  0  0  0
   20.7745  -22.3784  -12.7907 C   0  0  0  0  0  0  0  0  0  0  0  0
   19.5666  -21.6130  -12.4190 C   0  0  0  0  0  0  0  0  0  0  0  0
   18.3243  -22.4090  -12.7340 C   0  0  0  0  0  0  0  0  0  0  0  0
   17.1868  -21.7064  -12.1547 N   0  0  0  0  0  0  0  0  0  0  0  0
   23.5648  -22.5821  -14.4090 C   0  0  0  0  0  0  0  0  0  0  0  0
   23.6975  -21.6183  -15.3665 O   0  0  0  0  0  0  0  0  0  0  0  0
   23.6490  -23.7929  -14.8424 O   0  0  0  0  0  0  0  0  0  0  0  0
  2  3  1  6
  2  1  1  0
  4  2  1  0
  5  4  1  0
  5  6  1  1
  7  5  1  0
  7  8  2  0
  9  7  1  0
 10  9  1  0
 10 11  1  1
 11 12  1  0
 12 17  2  0
 12 13  1  0
 13 14  2  0
 15 14  1  0
 16 15  2  0
 17 16  1  0
 18 10  1  0
 19 18  2  0
 20 18  1  0
 21 22  1  6
 21 20  1  0
 22 23  1  0
 23 24  1  0
 24 25  1  0
 26 25  1  0
 27 28  1  0
 27 21  1  0
 29 27  2  0
M  END
$$$$
