LFK.pdb
     RDKit          3D

 29 29  0  0  1  0  0  0  0  0999 V2000
   22.2982  -13.0630  -21.1721 C   0  0  0  0  0  0  0  0  0  0  0  0
   23.5223  -13.1897  -20.3451 C   0  0  2  0  0  0  0  0  0  0  0  0
   23.7622  -14.6323  -19.8988 C   0  0  0  0  0  0  0  0  0  0  0  0
   23.5039  -12.3533  -19.1163 C   0  0  0  0  0  0  0  0  0  0  0  0
   23.1892  -10.9327  -19.3907 C   0  0  2  0  0  0  0  0  0  0  0  0
   24.0555  -10.2138  -20.2542 N   0  0  0  0  0  0  0  0  0  0  0  0
   22.8753  -10.1644  -18.1370 C   0  0  0  0  0  0  0  0  0  0  0  0
   22.0995  -10.6748  -17.2671 O   0  0  0  0  0  0  0  0  0  0  0  0
   23.3940   -8.8887  -17.8562 N   0  0  0  0  0  0  0  0  0  0  0  0
   23.0977   -8.1297  -16.6481 C   0  0  1  0  0  0  0  0  0  0  0  0
   24.4061   -7.5785  -16.1774 C   0  0  0  0  0  0  0  0  0  0  0  0
   25.4290   -8.5796  -15.8434 C   0  0  0  0  0  0  0  0  0  0  0  0
   26.5953   -8.6943  -16.5859 C   0  0  0  0  0  0  0  0  0  0  0  0
   27.5605   -9.6292  -16.2658 C   0  0  0  0  0  0  0  0  0  0  0  0
   27.4038  -10.4851  -15.1967 C   0  0  0  0  0  0  0  0  0  0  0  0
   26.2608  -10.3875  -14.4523 C   0  0  0  0  0  0  0  0  0  0  0  0
   25.2986   -9.4472  -14.7804 C   0  0  0  0  0  0  0  0  0  0  0  0
   22.1788   -7.0100  -16.9768 C   0  0  0  0  0  0  0  0  0  0  0  0
   22.4238   -6.2321  -17.9651 O   0  0  0  0  0  0  0  0  0  0  0  0
   21.0357   -6.8112  -16.1922 N   0  0  0  0  0  0  0  0  0  0  0  0
   20.0794   -5.6577  -16.4700 C   0  0  1  0  0  0  0  0  0  0  0  0
   18.8394   -6.3837  -16.8241 C   0  0  0  0  0  0  0  0  0  0  0  0
   17.5628   -5.6899  -16.9852 C   0  0  0  0  0  0  0  0  0  0  0  0
   16.4106   -6.4950  -17.4407 C   0  0  0  0  0  0  0  0  0  0  0  0
   15.1722   -5.6374  -17.5242 C   0  0  0  0  0  0  0  0  0  0  0  0
   14.0917   -6.4655  -18.0435 N   0  0  0  0  0  0  0  0  0  0  0  0
   20.1146   -4.8128  -15.2929 C   0  0  0  0  0  0  0  0  0  0  0  0
   20.5397   -5.1793  -14.0485 O   0  0  0  0  0  0  0  0  0  0  0  0
   19.7052   -3.5946  -15.3895 O   0  0  0  0  0  0  0  0  0  0  0  0
  2  3  1  1
  2  1  1  0
  4  2  1  0
  5  4  1  0
  5  6  1  1
  7  5  1  0
  7  8  2  0
  9  7  1  0
 10  9  1  0
 10 11  1  6
 11 12  1  0
 12 17  2  0
 12 13  1  0
 13 14  2  0
 15 14  1  0
 16 15  2  0
 17 16  1  0
 18 10  1  0
 19 18  2  0
 20 18  1  0
 21 22  1  1
 21 20  1  0
 22 23  1  0
 23 24  1  0
 24 25  1  0
 26 25  1  0
 27 28  1  0
 27 21  1  0
 29 27  2  0
M  END
$$$$
