LFK.pdb
     RDKit          3D

 29 29  0  0  1  0  0  0  0  0999 V2000
   28.3928  -17.6883  -16.0935 C   0  0  0  0  0  0  0  0  0  0  0  0
   27.8576  -18.7651  -16.9609 C   0  0  2  0  0  0  0  0  0  0  0  0
   27.0644  -18.2048  -18.1418 C   0  0  0  0  0  0  0  0  0  0  0  0
   26.9635  -19.7170  -16.2509 C   0  0  0  0  0  0  0  0  0  0  0  0
   27.5761  -20.2783  -15.0253 C   0  0  2  0  0  0  0  0  0  0  0  0
   28.7144  -21.1122  -15.1721 N   0  0  0  0  0  0  0  0  0  0  0  0
   26.5544  -20.8745  -14.0973 C   0  0  0  0  0  0  0  0  0  0  0  0
   26.4851  -22.1388  -13.9708 O   0  0  0  0  0  0  0  0  0  0  0  0
   25.6484  -20.1093  -13.3430 N   0  0  0  0  0  0  0  0  0  0  0  0
   24.6332  -20.6719  -12.4619 C   0  0  1  0  0  0  0  0  0  0  0  0
   24.5856  -19.7763  -11.2648 C   0  0  0  0  0  0  0  0  0  0  0  0
   25.3957  -20.2117  -10.1184 C   0  0  0  0  0  0  0  0  0  0  0  0
   26.7656  -20.3993  -10.2332 C   0  0  0  0  0  0  0  0  0  0  0  0
   27.5278  -20.7996   -9.1529 C   0  0  0  0  0  0  0  0  0  0  0  0
   26.9586  -21.0287   -7.9186 C   0  0  0  0  0  0  0  0  0  0  0  0
   25.6094  -20.8490   -7.7853 C   0  0  0  0  0  0  0  0  0  0  0  0
   24.8532  -20.4474   -8.8735 C   0  0  0  0  0  0  0  0  0  0  0  0
   23.3151  -20.6535  -13.1462 C   0  0  0  0  0  0  0  0  0  0  0  0
   22.8927  -19.5898  -13.7224 O   0  0  0  0  0  0  0  0  0  0  0  0
   22.5337  -21.8158  -13.1557 N   0  0  0  0  0  0  0  0  0  0  0  0
   21.1788  -21.8495  -13.8524 C   0  0  1  0  0  0  0  0  0  0  0  0
   21.0459  -23.2898  -14.1654 C   0  0  0  0  0  0  0  0  0  0  0  0
   19.8336  -23.8345  -14.7744 C   0  0  0  0  0  0  0  0  0  0  0  0
   19.8567  -25.2596  -15.1641 C   0  0  0  0  0  0  0  0  0  0  0  0
   18.5934  -25.6206  -15.9057 C   0  0  0  0  0  0  0  0  0  0  0  0
   18.6292  -27.0522  -16.1749 N   0  0  0  0  0  0  0  0  0  0  0  0
   20.2435  -21.2148  -12.9452 C   0  0  0  0  0  0  0  0  0  0  0  0
   20.3685  -21.1258  -11.5888 O   0  0  0  0  0  0  0  0  0  0  0  0
   19.1753  -20.6793  -13.4280 O   0  0  0  0  0  0  0  0  0  0  0  0
  2  3  1  6
  2  1  1  0
  4  2  1  0
  5  4  1  0
  5  6  1  6
  7  5  1  0
  7  8  2  0
  9  7  1  0
 10  9  1  0
 10 11  1  1
 11 12  1  0
 12 17  2  0
 12 13  1  0
 13 14  2  0
 15 14  1  0
 16 15  2  0
 17 16  1  0
 18 10  1  0
 19 18  2  0
 20 18  1  0
 21 22  1  1
 21 20  1  0
 22 23  1  0
 23 24  1  0
 24 25  1  0
 26 25  1  0
 27 28  1  0
 27 21  1  0
 29 27  2  0
M  END
$$$$
