LFK.pdb
     RDKit          3D

 29 29  0  0  1  0  0  0  0  0999 V2000
   28.8737  -20.9634  -19.9662 C   0  0  0  0  0  0  0  0  0  0  0  0
   29.1709  -21.9882  -18.9366 C   0  0  2  0  0  0  0  0  0  0  0  0
   29.6480  -23.3005  -19.5594 C   0  0  0  0  0  0  0  0  0  0  0  0
   28.0108  -22.3175  -18.0674 C   0  0  0  0  0  0  0  0  0  0  0  0
   27.5016  -21.1466  -17.3176 C   0  0  2  0  0  0  0  0  0  0  0  0
   28.3528  -20.0192  -17.1858 N   0  0  0  0  0  0  0  0  0  0  0  0
   26.8720  -21.5357  -16.0090 C   0  0  0  0  0  0  0  0  0  0  0  0
   26.1384  -22.5738  -15.9508 O   0  0  0  0  0  0  0  0  0  0  0  0
   27.0434  -20.8106  -14.8173 N   0  0  0  0  0  0  0  0  0  0  0  0
   26.3075  -21.0685  -13.5862 C   0  0  1  0  0  0  0  0  0  0  0  0
   27.0819  -20.3983  -12.4961 C   0  0  0  0  0  0  0  0  0  0  0  0
   26.4576  -20.4318  -11.1661 C   0  0  0  0  0  0  0  0  0  0  0  0
   26.6155  -21.5221  -10.3227 C   0  0  0  0  0  0  0  0  0  0  0  0
   26.0361  -21.5491   -9.0690 C   0  0  0  0  0  0  0  0  0  0  0  0
   25.2783  -20.4948   -8.6059 C   0  0  0  0  0  0  0  0  0  0  0  0
   25.1112  -19.4107   -9.4226 C   0  0  0  0  0  0  0  0  0  0  0  0
   25.6958  -19.3922  -10.6777 C   0  0  0  0  0  0  0  0  0  0  0  0
   24.9554  -20.4606  -13.6782 C   0  0  0  0  0  0  0  0  0  0  0  0
   24.7995  -19.2836  -14.1603 O   0  0  0  0  0  0  0  0  0  0  0  0
   23.8465  -21.1895  -13.2306 N   0  0  0  0  0  0  0  0  0  0  0  0
   22.4460  -20.5891  -13.2548 C   0  0  1  0  0  0  0  0  0  0  0  0
   21.9116  -21.1424  -14.5190 C   0  0  0  0  0  0  0  0  0  0  0  0
   20.5632  -20.8257  -14.9864 C   0  0  0  0  0  0  0  0  0  0  0  0
   20.1433  -21.4075  -16.2781 C   0  0  0  0  0  0  0  0  0  0  0  0
   18.7791  -20.8930  -16.6659 C   0  0  0  0  0  0  0  0  0  0  0  0
   18.4219  -21.4978  -17.9425 N   0  0  0  0  0  0  0  0  0  0  0  0
   21.8332  -20.9451  -11.9905 C   0  0  0  0  0  0  0  0  0  0  0  0
   22.0774  -22.0753  -11.2649 O   0  0  0  0  0  0  0  0  0  0  0  0
   20.9629  -20.1466  -11.4748 O   0  0  0  0  0  0  0  0  0  0  0  0
  2  3  1  6
  2  1  1  0
  4  2  1  0
  5  4  1  0
  5  6  1  1
  7  5  1  0
  7  8  2  0
  9  7  1  0
 10  9  1  0
 10 11  1  1
 11 12  1  0
 12 17  2  0
 12 13  1  0
 13 14  2  0
 15 14  1  0
 16 15  2  0
 17 16  1  0
 18 10  1  0
 19 18  2  0
 20 18  1  0
 21 22  1  6
 21 20  1  0
 22 23  1  0
 23 24  1  0
 24 25  1  0
 26 25  1  0
 27 28  1  0
 27 21  1  0
 29 27  2  0
M  END
$$$$
