CNK.pdb
     RDKit          3D

 24 23  0  0  1  0  0  0  0  0999 V2000
    1.4189  -20.8566   20.6530 N   0  0  0  0  0  0  0  0  0  0  0  0
    1.7642  -19.5607   21.1313 C   0  0  1  0  0  0  0  0  0  0  0  0
    0.9149  -19.1033   22.2929 C   0  0  0  0  0  0  0  0  0  0  0  0
    1.0056  -20.2612   23.6814 S   0  0  0  0  0  0  0  0  0  0  0  0
    3.2098  -19.4881   21.4343 C   0  0  0  0  0  0  0  0  0  0  0  0
    3.8278  -20.5400   21.6902 O   0  0  0  0  0  0  0  0  0  0  0  0
    8.1099  -17.9372   21.6443 N   0  0  0  0  0  0  0  0  0  0  0  0
    7.3899  -16.8431   21.1243 C   0  0  0  0  0  0  0  0  0  0  0  0
    8.0122  -15.8789   20.6401 O   0  0  0  0  0  0  0  0  0  0  0  0
    5.9090  -16.8681   21.1671 C   0  0  0  0  0  0  0  0  0  0  0  0
    5.3601  -18.1660   21.6871 C   0  0  2  0  0  0  0  0  0  0  0  0
    3.9347  -18.2604   21.4474 N   0  0  0  0  0  0  0  0  0  0  0  0
    5.6803  -18.3631   23.1289 C   0  0  0  0  0  0  0  0  0  0  0  0
    5.0176  -17.7117   23.9990 O   0  0  0  0  0  0  0  0  0  0  0  0
    6.6785  -19.2329   23.5816 N   0  0  0  0  0  0  0  0  0  0  0  0
    6.8501  -19.4518   25.0841 C   0  0  1  0  0  0  0  0  0  0  0  0
    6.6529  -20.9037   25.2919 C   0  0  0  0  0  0  0  0  0  0  0  0
    6.7586  -21.5373   26.5937 C   0  0  0  0  0  0  0  0  0  0  0  0
    6.5766  -22.9963   26.7737 C   0  0  0  0  0  0  0  0  0  0  0  0
    6.8779  -23.3116   28.2800 C   0  0  0  0  0  0  0  0  0  0  0  0
    6.7579  -24.7252   28.4789 N   0  0  0  0  0  0  0  0  0  0  0  0
    8.1980  -18.9065   25.3231 C   0  0  0  0  0  0  0  0  0  0  0  0
    8.5196  -18.6216   26.5382 O   0  0  0  0  0  0  0  0  0  0  0  0
    9.1242  -18.6894   24.3577 O   0  0  0  0  0  0  0  0  0  0  0  0
  2  1  1  1
  3  2  1  0
  3  4  1  0
  5  2  1  0
  5  6  2  0
  7  8  1  0
  8 10  1  0
  8  9  2  0
 11 10  1  1
 11 13  1  0
 11 12  1  0
 12  5  1  0
 13 15  1  0
 14 13  2  0
 15 16  1  0
 16 22  1  0
 17 18  1  0
 16 17  1  6
 19 18  1  0
 19 20  1  0
 21 20  1  0
 22 23  2  0
 22 24  1  0
M  END
$$$$
