CNK.pdb
     RDKit          3D

 24 23  0  0  1  0  0  0  0  0999 V2000
    7.2523  -15.9323   19.6799 N   0  0  0  0  0  0  0  0  0  0  0  0
    8.1120  -15.0702   20.4180 C   0  0  1  0  0  0  0  0  0  0  0  0
    7.4102  -14.3345   21.5344 C   0  0  0  0  0  0  0  0  0  0  0  0
    6.6488  -15.4795   22.7117 S   0  0  0  0  0  0  0  0  0  0  0  0
    9.3002  -15.8088   20.8970 C   0  0  0  0  0  0  0  0  0  0  0  0
    9.2650  -17.0543   20.9313 O   0  0  0  0  0  0  0  0  0  0  0  0
   15.1172  -15.0978   22.7308 N   0  0  0  0  0  0  0  0  0  0  0  0
   14.1715  -15.6952   21.8737 C   0  0  0  0  0  0  0  0  0  0  0  0
   14.4191  -16.8095   21.3753 O   0  0  0  0  0  0  0  0  0  0  0  0
   12.9051  -14.9812   21.5873 C   0  0  0  0  0  0  0  0  0  0  0  0
   11.6930  -15.8552   21.7386 C   0  0  2  0  0  0  0  0  0  0  0  0
   10.4936  -15.1563   21.3248 N   0  0  0  0  0  0  0  0  0  0  0  0
   11.5609  -16.3812   23.1264 C   0  0  0  0  0  0  0  0  0  0  0  0
   11.1384  -15.6020   24.0400 O   0  0  0  0  0  0  0  0  0  0  0  0
   11.8788  -17.6966   23.4823 N   0  0  0  0  0  0  0  0  0  0  0  0
   11.7983  -18.1107   24.9509 C   0  0  1  0  0  0  0  0  0  0  0  0
   11.6182  -19.5796   24.9328 C   0  0  0  0  0  0  0  0  0  0  0  0
   11.1025  -20.3266   26.0656 C   0  0  0  0  0  0  0  0  0  0  0  0
   10.9265  -21.7967   26.0218 C   0  0  0  0  0  0  0  0  0  0  0  0
   10.3238  -22.2258   27.4045 C   0  0  0  0  0  0  0  0  0  0  0  0
   10.1328  -23.6455   27.3937 N   0  0  0  0  0  0  0  0  0  0  0  0
   13.0661  -17.5867   25.4890 C   0  0  0  0  0  0  0  0  0  0  0  0
   14.0878  -17.5741   24.7035 O   0  0  0  0  0  0  0  0  0  0  0  0
   13.2318  -17.1123   26.7477 O   0  0  0  0  0  0  0  0  0  0  0  0
  2  1  1  1
  3  2  1  0
  3  4  1  0
  5  2  1  0
  5  6  2  0
  7  8  1  0
  8 10  1  0
  8  9  2  0
 11 10  1  1
 11 13  1  0
 11 12  1  0
 12  5  1  0
 13 15  1  0
 14 13  2  0
 15 16  1  0
 16 22  1  0
 17 18  1  0
 16 17  1  6
 19 18  1  0
 19 20  1  0
 21 20  1  0
 22 23  2  0
 22 24  1  0
M  END
$$$$
