CNK.pdb
     RDKit          3D

 24 23  0  0  1  0  0  0  0  0999 V2000
    8.2875  -14.1931   17.9032 N   0  0  0  0  0  0  0  0  0  0  0  0
    9.4178  -13.5836   18.5182 C   0  0  1  0  0  0  0  0  0  0  0  0
    9.0567  -12.6606   19.6573 C   0  0  0  0  0  0  0  0  0  0  0  0
    7.3856  -11.9909   19.4683 S   0  0  0  0  0  0  0  0  0  0  0  0
   10.4041  -14.6087   18.9219 C   0  0  0  0  0  0  0  0  0  0  0  0
    9.9960  -15.7171   19.3203 O   0  0  0  0  0  0  0  0  0  0  0  0
   13.8248  -15.1035   15.8259 N   0  0  0  0  0  0  0  0  0  0  0  0
   13.7251  -15.9126   16.9753 C   0  0  0  0  0  0  0  0  0  0  0  0
   13.4198  -17.1136   16.8505 O   0  0  0  0  0  0  0  0  0  0  0  0
   13.9863  -15.3126   18.3047 C   0  0  0  0  0  0  0  0  0  0  0  0
   12.8002  -15.3856   19.2234 C   0  0  2  0  0  0  0  0  0  0  0  0
   11.8116  -14.3855   18.8761 N   0  0  0  0  0  0  0  0  0  0  0  0
   13.2019  -15.2749   20.6540 C   0  0  0  0  0  0  0  0  0  0  0  0
   13.6835  -14.1733   21.0723 O   0  0  0  0  0  0  0  0  0  0  0  0
   13.0771  -16.3255   21.5698 N   0  0  0  0  0  0  0  0  0  0  0  0
   13.4382  -16.0830   23.0347 C   0  0  1  0  0  0  0  0  0  0  0  0
   12.7878  -17.1812   23.7837 C   0  0  0  0  0  0  0  0  0  0  0  0
   12.9470  -17.3644   25.2149 C   0  0  0  0  0  0  0  0  0  0  0  0
   12.2844  -18.4711   25.9431 C   0  0  0  0  0  0  0  0  0  0  0  0
   12.8086  -18.4240   27.4204 C   0  0  0  0  0  0  0  0  0  0  0  0
   12.2756  -19.5513   28.1256 N   0  0  0  0  0  0  0  0  0  0  0  0
   14.9110  -16.0675   22.9908 C   0  0  0  0  0  0  0  0  0  0  0  0
   15.5240  -15.2814   23.8075 O   0  0  0  0  0  0  0  0  0  0  0  0
   15.6654  -16.8249   22.1576 O   0  0  0  0  0  0  0  0  0  0  0  0
  2  1  1  1
  3  2  1  0
  3  4  1  0
  5  2  1  0
  5  6  2  0
  7  8  1  0
  8 10  1  0
  8  9  2  0
 11 10  1  6
 11 13  1  0
 11 12  1  0
 12  5  1  0
 13 15  1  0
 14 13  2  0
 15 16  1  0
 16 22  1  0
 17 18  1  0
 16 17  1  1
 19 18  1  0
 19 20  1  0
 21 20  1  0
 22 23  2  0
 22 24  1  0
M  END
$$$$
