CNK.pdb
     RDKit          3D

 24 23  0  0  1  0  0  0  0  0999 V2000
    8.2979  -13.3429   19.5899 N   0  0  0  0  0  0  0  0  0  0  0  0
    7.4425  -13.3019   20.7274 C   0  0  1  0  0  0  0  0  0  0  0  0
    6.2263  -14.1871   20.5964 C   0  0  0  0  0  0  0  0  0  0  0  0
    6.6630  -15.9403   20.7071 S   0  0  0  0  0  0  0  0  0  0  0  0
    8.2071  -13.5833   21.9615 C   0  0  0  0  0  0  0  0  0  0  0  0
    9.3496  -14.0727   21.8669 O   0  0  0  0  0  0  0  0  0  0  0  0
    6.0817  -12.9721   27.3177 N   0  0  0  0  0  0  0  0  0  0  0  0
    6.4884  -13.0559   25.9711 C   0  0  0  0  0  0  0  0  0  0  0  0
    5.6546  -13.3709   25.1011 O   0  0  0  0  0  0  0  0  0  0  0  0
    7.8997  -12.7667   25.6245 C   0  0  0  0  0  0  0  0  0  0  0  0
    8.4087  -13.6096   24.4902 C   0  0  2  0  0  0  0  0  0  0  0  0
    7.6932  -13.3186   23.2648 N   0  0  0  0  0  0  0  0  0  0  0  0
    8.3561  -15.0628   24.8150 C   0  0  0  0  0  0  0  0  0  0  0  0
    7.5399  -15.8043   24.1791 O   0  0  0  0  0  0  0  0  0  0  0  0
    9.1624  -15.6612   25.7896 N   0  0  0  0  0  0  0  0  0  0  0  0
    9.6642  -17.0874   25.5677 C   0  0  1  0  0  0  0  0  0  0  0  0
   10.6040  -16.9975   24.4280 C   0  0  0  0  0  0  0  0  0  0  0  0
   11.4644  -18.0948   24.0247 C   0  0  0  0  0  0  0  0  0  0  0  0
   12.0420  -18.1798   22.6633 C   0  0  0  0  0  0  0  0  0  0  0  0
   12.9725  -19.4420   22.6401 C   0  0  0  0  0  0  0  0  0  0  0  0
   13.5193  -19.5767   21.3229 N   0  0  0  0  0  0  0  0  0  0  0  0
   10.2251  -17.4258   26.8877 C   0  0  0  0  0  0  0  0  0  0  0  0
   10.8371  -16.4930   27.5329 O   0  0  0  0  0  0  0  0  0  0  0  0
   10.1375  -18.6451   27.4729 O   0  0  0  0  0  0  0  0  0  0  0  0
  2  1  1  6
  3  2  1  0
  3  4  1  0
  5  2  1  0
  5  6  2  0
  7  8  1  0
  8 10  1  0
  8  9  2  0
 11 10  1  1
 11 13  1  0
 11 12  1  0
 12  5  1  0
 13 15  1  0
 14 13  2  0
 15 16  1  0
 16 22  1  0
 17 18  1  0
 16 17  1  6
 19 18  1  0
 19 20  1  0
 21 20  1  0
 22 23  2  0
 22 24  1  0
M  END
$$$$
