CNK.pdb
     RDKit          3D

 24 23  0  0  1  0  0  0  0  0999 V2000
    7.7643  -15.0152   17.4513 N   0  0  0  0  0  0  0  0  0  0  0  0
    8.8871  -14.4492   18.1192 C   0  0  1  0  0  0  0  0  0  0  0  0
    8.5167  -13.3662   19.1040 C   0  0  0  0  0  0  0  0  0  0  0  0
    7.6027  -12.0232   18.3053 S   0  0  0  0  0  0  0  0  0  0  0  0
    9.7103  -15.5096   18.7395 C   0  0  0  0  0  0  0  0  0  0  0  0
    9.1447  -16.5112   19.2199 O   0  0  0  0  0  0  0  0  0  0  0  0
   13.2036  -16.9819   16.0454 N   0  0  0  0  0  0  0  0  0  0  0  0
   12.8282  -17.5052   17.2988 C   0  0  0  0  0  0  0  0  0  0  0  0
   12.2240  -18.5932   17.3487 O   0  0  0  0  0  0  0  0  0  0  0  0
   13.1624  -16.7464   18.5268 C   0  0  0  0  0  0  0  0  0  0  0  0
   11.9645  -16.4738   19.3910 C   0  0  2  0  0  0  0  0  0  0  0  0
   11.1323  -15.4381   18.8138 N   0  0  0  0  0  0  0  0  0  0  0  0
   12.3566  -16.1363   20.7883 C   0  0  0  0  0  0  0  0  0  0  0  0
   12.8361  -14.9819   21.0289 O   0  0  0  0  0  0  0  0  0  0  0  0
   12.2251  -17.0275   21.8590 N   0  0  0  0  0  0  0  0  0  0  0  0
   12.6683  -16.5867   23.2534 C   0  0  1  0  0  0  0  0  0  0  0  0
   11.9716  -17.4964   24.1900 C   0  0  0  0  0  0  0  0  0  0  0  0
   12.2152  -17.4954   25.6210 C   0  0  0  0  0  0  0  0  0  0  0  0
   11.6355  -18.5229   26.5167 C   0  0  0  0  0  0  0  0  0  0  0  0
   12.2214  -18.2639   27.9481 C   0  0  0  0  0  0  0  0  0  0  0  0
   11.7394  -19.2880   28.8262 N   0  0  0  0  0  0  0  0  0  0  0  0
   14.1347  -16.6977   23.1603 C   0  0  0  0  0  0  0  0  0  0  0  0
   14.6161  -17.6204   22.4002 O   0  0  0  0  0  0  0  0  0  0  0  0
   15.0114  -15.8953   23.8117 O   0  0  0  0  0  0  0  0  0  0  0  0
  2  1  1  1
  3  2  1  0
  3  4  1  0
  5  2  1  0
  5  6  2  0
  7  8  1  0
  8 10  1  0
  8  9  2  0
 11 10  1  6
 11 13  1  0
 11 12  1  0
 12  5  1  0
 13 15  1  0
 14 13  2  0
 15 16  1  0
 16 22  1  0
 17 18  1  0
 16 17  1  1
 19 18  1  0
 19 20  1  0
 21 20  1  0
 22 23  2  0
 22 24  1  0
M  END
$$$$
