CNK.pdb
     RDKit          3D

 24 23  0  0  1  0  0  0  0  0999 V2000
    6.2392  -14.7740   19.6597 N   0  0  0  0  0  0  0  0  0  0  0  0
    7.6402  -14.8410   19.9045 C   0  0  1  0  0  0  0  0  0  0  0  0
    8.1601  -13.6929   20.7360 C   0  0  0  0  0  0  0  0  0  0  0  0
    8.6955  -12.3084   19.6999 S   0  0  0  0  0  0  0  0  0  0  0  0
    8.0043  -16.1547   20.4776 C   0  0  0  0  0  0  0  0  0  0  0  0
    7.3737  -16.5794   21.4654 O   0  0  0  0  0  0  0  0  0  0  0  0
   11.6114  -21.0782   19.5435 N   0  0  0  0  0  0  0  0  0  0  0  0
   10.4009  -20.4717   19.9343 C   0  0  0  0  0  0  0  0  0  0  0  0
    9.6199  -21.0943   20.6784 O   0  0  0  0  0  0  0  0  0  0  0  0
   10.0883  -19.1070   19.4493 C   0  0  0  0  0  0  0  0  0  0  0  0
    9.4361  -18.2488   20.4954 C   0  0  2  0  0  0  0  0  0  0  0  0
    9.0518  -16.9640   19.9479 N   0  0  0  0  0  0  0  0  0  0  0  0
   10.3030  -18.0874   21.6965 C   0  0  0  0  0  0  0  0  0  0  0  0
   10.6745  -19.1277   22.3291 O   0  0  0  0  0  0  0  0  0  0  0  0
   10.7341  -16.8434   22.1704 N   0  0  0  0  0  0  0  0  0  0  0  0
   11.7104  -16.7917   23.3448 C   0  0  1  0  0  0  0  0  0  0  0  0
   12.5915  -15.6351   23.0690 C   0  0  0  0  0  0  0  0  0  0  0  0
   13.4406  -15.5507   21.8946 C   0  0  0  0  0  0  0  0  0  0  0  0
   14.8574  -15.1267   21.9792 C   0  0  0  0  0  0  0  0  0  0  0  0
   15.3743  -14.9656   20.5074 C   0  0  0  0  0  0  0  0  0  0  0  0
   16.6813  -14.3805   20.5487 N   0  0  0  0  0  0  0  0  0  0  0  0
   10.7994  -16.6939   24.4989 C   0  0  0  0  0  0  0  0  0  0  0  0
   11.2749  -16.9857   25.6607 O   0  0  0  0  0  0  0  0  0  0  0  0
    9.5007  -16.3135   24.4258 O   0  0  0  0  0  0  0  0  0  0  0  0
  2  1  1  1
  3  2  1  0
  3  4  1  0
  5  2  1  0
  5  6  2  0
  7  8  1  0
  8 10  1  0
  8  9  2  0
 11 10  1  6
 11 13  1  0
 11 12  1  0
 12  5  1  0
 13 15  1  0
 14 13  2  0
 15 16  1  0
 16 22  1  0
 17 18  1  0
 16 17  1  6
 19 18  1  0
 19 20  1  0
 21 20  1  0
 22 23  2  0
 22 24  1  0
M  END
$$$$
