CNK.pdb
     RDKit          3D

 24 23  0  0  1  0  0  0  0  0999 V2000
   11.1274  -16.8494   15.2043 N   0  0  0  0  0  0  0  0  0  0  0  0
    9.9918  -16.8948   16.0619 C   0  0  1  0  0  0  0  0  0  0  0  0
    9.4796  -18.2941   16.3064 C   0  0  0  0  0  0  0  0  0  0  0  0
   10.6190  -19.2501   17.3382 S   0  0  0  0  0  0  0  0  0  0  0  0
   10.2650  -16.1724   17.3229 C   0  0  0  0  0  0  0  0  0  0  0  0
   11.4241  -15.7764   17.5542 O   0  0  0  0  0  0  0  0  0  0  0  0
    7.9487  -12.3498   19.1666 N   0  0  0  0  0  0  0  0  0  0  0  0
    7.4889  -13.6812   19.2085 C   0  0  0  0  0  0  0  0  0  0  0  0
    6.5112  -14.0105   18.5107 O   0  0  0  0  0  0  0  0  0  0  0  0
    8.1816  -14.6565   20.0829 C   0  0  0  0  0  0  0  0  0  0  0  0
    9.4797  -15.1428   19.5044 C   0  0  2  0  0  0  0  0  0  0  0  0
    9.2555  -15.9062   18.2940 N   0  0  0  0  0  0  0  0  0  0  0  0
   10.2690  -15.9238   20.4980 C   0  0  0  0  0  0  0  0  0  0  0  0
   10.0235  -17.1651   20.6371 O   0  0  0  0  0  0  0  0  0  0  0  0
   11.2740  -15.3615   21.2929 N   0  0  0  0  0  0  0  0  0  0  0  0
   12.1389  -16.2772   22.1579 C   0  0  1  0  0  0  0  0  0  0  0  0
   13.5046  -15.7125   22.0795 C   0  0  0  0  0  0  0  0  0  0  0  0
   14.6366  -16.2804   22.7889 C   0  0  0  0  0  0  0  0  0  0  0  0
   15.9823  -15.6631   22.7417 C   0  0  0  0  0  0  0  0  0  0  0  0
   16.9073  -16.5124   23.6811 C   0  0  0  0  0  0  0  0  0  0  0  0
   18.2457  -16.0142   23.5686 N   0  0  0  0  0  0  0  0  0  0  0  0
   11.4495  -16.2140   23.4587 C   0  0  0  0  0  0  0  0  0  0  0  0
   11.8710  -16.9920   24.3958 O   0  0  0  0  0  0  0  0  0  0  0  0
   10.4091  -15.3925   23.7407 O   0  0  0  0  0  0  0  0  0  0  0  0
  2  1  1  6
  3  2  1  0
  3  4  1  0
  5  2  1  0
  5  6  2  0
  7  8  1  0
  8 10  1  0
  8  9  2  0
 11 10  1  1
 11 13  1  0
 11 12  1  0
 12  5  1  0
 13 15  1  0
 14 13  2  0
 15 16  1  0
 16 22  1  0
 17 18  1  0
 16 17  1  1
 19 18  1  0
 19 20  1  0
 21 20  1  0
 22 23  2  0
 22 24  1  0
M  END
$$$$
