CNK.pdb
     RDKit          3D

 24 23  0  0  1  0  0  0  0  0999 V2000
    6.4119  -16.6618   19.3103 N   0  0  0  0  0  0  0  0  0  0  0  0
    7.5775  -15.8725   19.5238 C   0  0  1  0  0  0  0  0  0  0  0  0
    7.3297  -14.6556   20.3828 C   0  0  0  0  0  0  0  0  0  0  0  0
    6.6935  -15.1106   22.0153 S   0  0  0  0  0  0  0  0  0  0  0  0
    8.6811  -16.7077   20.0445 C   0  0  0  0  0  0  0  0  0  0  0  0
    8.4099  -17.6864   20.7674 O   0  0  0  0  0  0  0  0  0  0  0  0
   12.1681  -19.7462   18.5260 N   0  0  0  0  0  0  0  0  0  0  0  0
   11.9242  -18.3846   18.2569 C   0  0  0  0  0  0  0  0  0  0  0  0
   11.4407  -18.0580   17.1566 O   0  0  0  0  0  0  0  0  0  0  0  0
   12.2498  -17.3752   19.2917 C   0  0  0  0  0  0  0  0  0  0  0  0
   11.1555  -17.2025   20.3060 C   0  0  2  0  0  0  0  0  0  0  0  0
   10.0519  -16.4427   19.7554 N   0  0  0  0  0  0  0  0  0  0  0  0
   11.6614  -16.5864   21.5649 C   0  0  0  0  0  0  0  0  0  0  0  0
   11.9036  -15.3368   21.5820 O   0  0  0  0  0  0  0  0  0  0  0  0
   11.8863  -17.3137   22.7389 N   0  0  0  0  0  0  0  0  0  0  0  0
   12.3185  -16.5719   24.0030 C   0  0  1  0  0  0  0  0  0  0  0  0
   11.9754  -17.4766   25.1228 C   0  0  0  0  0  0  0  0  0  0  0  0
   12.3768  -17.2235   26.4947 C   0  0  0  0  0  0  0  0  0  0  0  0
   12.1599  -18.2168   27.5720 C   0  0  0  0  0  0  0  0  0  0  0  0
   12.8406  -17.6452   28.8639 C   0  0  0  0  0  0  0  0  0  0  0  0
   12.5198  -18.5063   29.9629 N   0  0  0  0  0  0  0  0  0  0  0  0
   13.7473  -16.3235   23.7414 C   0  0  0  0  0  0  0  0  0  0  0  0
   14.2970  -15.3206   24.3354 O   0  0  0  0  0  0  0  0  0  0  0  0
   14.5242  -17.0777   22.9264 O   0  0  0  0  0  0  0  0  0  0  0  0
  2  1  1  1
  3  2  1  0
  3  4  1  0
  5  2  1  0
  5  6  2  0
  7  8  1  0
  8 10  1  0
  8  9  2  0
 11 10  1  6
 11 13  1  0
 11 12  1  0
 12  5  1  0
 13 15  1  0
 14 13  2  0
 15 16  1  0
 16 22  1  0
 17 18  1  0
 16 17  1  1
 19 18  1  0
 19 20  1  0
 21 20  1  0
 22 23  2  0
 22 24  1  0
M  END
$$$$
