CGY.pdb
     RDKit          3D

 23 23  0  0  1  0  0  0  0  0999 V2000
    7.2718  -18.2445   20.5581 N   0  0  0  0  0  0  0  0  0  0  0  0
    8.3499  -17.5608   19.8770 C   0  0  1  0  0  0  0  0  0  0  0  0
    8.0824  -17.4754   18.3775 C   0  0  0  0  0  0  0  0  0  0  0  0
    9.6050  -16.9933   17.5457 S   0  0  0  0  0  0  0  0  0  0  0  0
    8.4287  -16.1743   20.3800 C   0  0  0  0  0  0  0  0  0  0  0  0
    9.4748  -15.5244   20.2660 O   0  0  0  0  0  0  0  0  0  0  0  0
    7.3108  -15.5462   21.0078 N   0  0  0  0  0  0  0  0  0  0  0  0
    7.3449  -14.2218   21.5482 C   0  0  0  0  0  0  0  0  0  0  0  0
    7.5570  -14.1869   22.9999 C   0  0  0  0  0  0  0  0  0  0  0  0
    6.8273  -13.4572   23.7074 O   0  0  0  0  0  0  0  0  0  0  0  0
    6.1225  -20.6664   23.2408 O   0  0  0  0  0  0  0  0  0  0  0  0
    6.4177  -19.4313   23.8060 C   0  0  0  0  0  0  0  0  0  0  0  0
    5.6396  -18.3266   23.5308 C   0  0  0  0  0  0  0  0  0  0  0  0
    5.9452  -17.1085   24.0990 C   0  0  0  0  0  0  0  0  0  0  0  0
    7.0316  -16.9816   24.9482 C   0  0  0  0  0  0  0  0  0  0  0  0
    7.3614  -15.6934   25.5536 C   0  0  0  0  0  0  0  0  0  0  0  0
    8.6630  -15.1012   25.0767 C   0  0  2  0  0  0  0  0  0  0  0  0
    8.5615  -14.9512   23.6382 N   0  0  0  0  0  0  0  0  0  0  0  0
    9.8467  -15.8620   25.4671 C   0  0  0  0  0  0  0  0  0  0  0  0
   10.7064  -16.5021   24.6209 O   0  0  0  0  0  0  0  0  0  0  0  0
    7.8007  -18.1014   25.2126 C   0  0  0  0  0  0  0  0  0  0  0  0
    7.5056  -19.3299   24.6493 C   0  0  0  0  0  0  0  0  0  0  0  0
   10.1096  -15.9414   26.7110 O   0  0  0  0  0  0  0  0  0  0  0  0
  2  5  1  0
  2  1  1  1
  3  2  1  0
  4  3  1  0
  5  6  2  0
  7  8  1  0
  7  5  1  0
  9 10  2  0
  9  8  1  0
 11 12  1  0
 12 22  2  0
 13 14  2  0
 13 12  1  0
 14 15  1  0
 15 16  1  0
 15 21  2  0
 17 18  1  0
 17 16  1  6
 18  9  1  0
 19 17  1  0
 20 19  1  0
 22 21  1  0
 23 19  2  0
M  END
$$$$
