CGY.pdb
     RDKit          3D

 23 23  0  0  1  0  0  0  0  0999 V2000
    4.9669  -19.3196   23.1432 N   0  0  0  0  0  0  0  0  0  0  0  0
    4.9137  -18.5555   21.9156 C   0  0  1  0  0  0  0  0  0  0  0  0
    3.4711  -18.2532   21.5216 C   0  0  0  0  0  0  0  0  0  0  0  0
    2.7029  -19.7716   20.9326 S   0  0  0  0  0  0  0  0  0  0  0  0
    5.5819  -17.2564   22.1329 C   0  0  0  0  0  0  0  0  0  0  0  0
    5.2341  -16.5203   23.0640 O   0  0  0  0  0  0  0  0  0  0  0  0
    6.6403  -16.8132   21.2834 N   0  0  0  0  0  0  0  0  0  0  0  0
    7.2661  -15.5316   21.3980 C   0  0  0  0  0  0  0  0  0  0  0  0
    8.1557  -15.4159   22.5595 C   0  0  0  0  0  0  0  0  0  0  0  0
    9.0193  -14.5107   22.5809 O   0  0  0  0  0  0  0  0  0  0  0  0
    6.3141  -10.8245   26.8592 O   0  0  0  0  0  0  0  0  0  0  0  0
    6.7821  -12.1177   26.6577 C   0  0  0  0  0  0  0  0  0  0  0  0
    8.1255  -12.4067   26.7734 C   0  0  0  0  0  0  0  0  0  0  0  0
    8.5743  -13.6942   26.5706 C   0  0  0  0  0  0  0  0  0  0  0  0
    7.6853  -14.7063   26.2500 C   0  0  0  0  0  0  0  0  0  0  0  0
    8.1542  -16.0730   26.0333 C   0  0  0  0  0  0  0  0  0  0  0  0
    8.9896  -16.2504   24.7912 C   0  0  2  0  0  0  0  0  0  0  0  0
    8.0765  -16.2936   23.6658 N   0  0  0  0  0  0  0  0  0  0  0  0
    9.8749  -17.4111   24.8245 C   0  0  0  0  0  0  0  0  0  0  0  0
    9.7860  -18.5136   24.0235 O   0  0  0  0  0  0  0  0  0  0  0  0
    6.3409  -14.3971   26.1383 C   0  0  0  0  0  0  0  0  0  0  0  0
    5.8767  -13.1095   26.3391 C   0  0  0  0  0  0  0  0  0  0  0  0
   10.8214  -17.4034   25.6772 O   0  0  0  0  0  0  0  0  0  0  0  0
  2  5  1  0
  2  1  1  1
  3  2  1  0
  4  3  1  0
  5  6  2  0
  7  8  1  0
  7  5  1  0
  9 10  2  0
  9  8  1  0
 11 12  1  0
 12 22  2  0
 13 14  2  0
 13 12  1  0
 14 15  1  0
 15 16  1  0
 15 21  2  0
 17 18  1  0
 17 16  1  1
 18  9  1  0
 19 17  1  0
 20 19  1  0
 22 21  1  0
 23 19  2  0
M  END
$$$$
