CGY.pdb
     RDKit          3D

 23 23  0  0  1  0  0  0  0  0999 V2000
    6.9305  -13.2277   19.5667 N   0  0  0  0  0  0  0  0  0  0  0  0
    7.7838  -14.1826   18.8932 C   0  0  1  0  0  0  0  0  0  0  0  0
    9.1309  -13.5591   18.5408 C   0  0  0  0  0  0  0  0  0  0  0  0
    8.8425  -12.0775   17.5590 S   0  0  0  0  0  0  0  0  0  0  0  0
    8.0569  -15.3081   19.8098 C   0  0  0  0  0  0  0  0  0  0  0  0
    8.7870  -16.2417   19.4564 O   0  0  0  0  0  0  0  0  0  0  0  0
    7.4923  -15.3537   21.1203 N   0  0  0  0  0  0  0  0  0  0  0  0
    7.6700  -16.4492   22.0234 C   0  0  0  0  0  0  0  0  0  0  0  0
    8.6218  -16.1684   23.1046 C   0  0  0  0  0  0  0  0  0  0  0  0
    9.6839  -15.5611   22.8424 O   0  0  0  0  0  0  0  0  0  0  0  0
    5.7444  -10.9914   26.0603 O   0  0  0  0  0  0  0  0  0  0  0  0
    6.4036  -12.2047   26.2196 C   0  0  0  0  0  0  0  0  0  0  0  0
    5.7483  -13.3971   25.9956 C   0  0  0  0  0  0  0  0  0  0  0  0
    6.4156  -14.5923   26.1578 C   0  0  0  0  0  0  0  0  0  0  0  0
    7.7449  -14.6083   26.5454 C   0  0  0  0  0  0  0  0  0  0  0  0
    8.4582  -15.8715   26.7195 C   0  0  0  0  0  0  0  0  0  0  0  0
    9.2975  -16.2761   25.5345 C   0  0  2  0  0  0  0  0  0  0  0  0
    8.3858  -16.5595   24.4432 N   0  0  0  0  0  0  0  0  0  0  0  0
   10.2053  -17.3897   25.7947 C   0  0  0  0  0  0  0  0  0  0  0  0
   11.3582  -17.3337   26.5244 O   0  0  0  0  0  0  0  0  0  0  0  0
    8.3858  -13.4016   26.7655 C   0  0  0  0  0  0  0  0  0  0  0  0
    7.7284  -12.1949   26.6066 C   0  0  0  0  0  0  0  0  0  0  0  0
    9.9015  -18.5231   25.2987 O   0  0  0  0  0  0  0  0  0  0  0  0
  2  5  1  0
  2  1  1  1
  3  2  1  0
  4  3  1  0
  5  6  2  0
  7  8  1  0
  7  5  1  0
  9 10  2  0
  9  8  1  0
 11 12  1  0
 12 22  2  0
 13 14  2  0
 13 12  1  0
 14 15  1  0
 15 16  1  0
 15 21  2  0
 17 18  1  0
 17 16  1  1
 18  9  1  0
 19 17  1  0
 20 19  1  0
 22 21  1  0
 23 19  2  0
M  END
$$$$
