CGY.pdb
     RDKit          3D

 23 23  0  0  1  0  0  0  0  0999 V2000
    5.1805  -19.2057   19.4314 N   0  0  0  0  0  0  0  0  0  0  0  0
    4.2466  -18.4997   20.2818 C   0  0  1  0  0  0  0  0  0  0  0  0
    2.8596  -19.1317   20.2139 C   0  0  0  0  0  0  0  0  0  0  0  0
    1.7589  -18.2289   21.3164 S   0  0  0  0  0  0  0  0  0  0  0  0
    4.7011  -18.6083   21.6829 C   0  0  0  0  0  0  0  0  0  0  0  0
    4.8445  -19.7172   22.2115 O   0  0  0  0  0  0  0  0  0  0  0  0
    4.9865  -17.4480   22.4642 N   0  0  0  0  0  0  0  0  0  0  0  0
    5.3961  -17.4948   23.8343 C   0  0  0  0  0  0  0  0  0  0  0  0
    6.7860  -17.0732   24.0449 C   0  0  0  0  0  0  0  0  0  0  0  0
    7.4897  -16.7698   23.0559 O   0  0  0  0  0  0  0  0  0  0  0  0
    5.7172  -10.7774   25.7564 O   0  0  0  0  0  0  0  0  0  0  0  0
    6.4259  -11.9490   25.9952 C   0  0  0  0  0  0  0  0  0  0  0  0
    7.3297  -12.4267   25.0697 C   0  0  0  0  0  0  0  0  0  0  0  0
    8.0250  -13.5901   25.3210 C   0  0  0  0  0  0  0  0  0  0  0  0
    7.8243  -14.2884   26.4998 C   0  0  0  0  0  0  0  0  0  0  0  0
    8.5576  -15.5224   26.7725 C   0  0  0  0  0  0  0  0  0  0  0  0
    8.6841  -16.4417   25.5845 C   0  0  2  0  0  0  0  0  0  0  0  0
    7.3681  -16.9951   25.3316 N   0  0  0  0  0  0  0  0  0  0  0  0
    9.6972  -17.4822   25.7366 C   0  0  0  0  0  0  0  0  0  0  0  0
   11.0390  -17.3344   25.5299 O   0  0  0  0  0  0  0  0  0  0  0  0
    6.9133  -13.7935   27.4166 C   0  0  0  0  0  0  0  0  0  0  0  0
    6.2087  -12.6273   27.1774 C   0  0  0  0  0  0  0  0  0  0  0  0
    9.3017  -18.6388   26.0952 O   0  0  0  0  0  0  0  0  0  0  0  0
  2  5  1  0
  2  1  1  6
  3  2  1  0
  4  3  1  0
  5  6  2  0
  7  8  1  0
  7  5  1  0
  9 10  2  0
  9  8  1  0
 11 12  1  0
 12 22  2  0
 13 14  2  0
 13 12  1  0
 14 15  1  0
 15 16  1  0
 15 21  2  0
 17 18  1  0
 17 16  1  1
 18  9  1  0
 19 17  1  0
 20 19  1  0
 22 21  1  0
 23 19  2  0
M  END
$$$$
