CGY.pdb
     RDKit          3D

 23 23  0  0  1  0  0  0  0  0999 V2000
   10.2775  -14.3905   19.0572 N   0  0  0  0  0  0  0  0  0  0  0  0
    9.2039  -13.7182   19.7566 C   0  0  1  0  0  0  0  0  0  0  0  0
    7.9905  -13.5357   18.8501 C   0  0  0  0  0  0  0  0  0  0  0  0
    6.7847  -12.5032   19.6999 S   0  0  0  0  0  0  0  0  0  0  0  0
    8.7717  -14.5608   20.8901 C   0  0  0  0  0  0  0  0  0  0  0  0
    7.9985  -14.1130   21.7452 O   0  0  0  0  0  0  0  0  0  0  0  0
    9.2282  -15.9059   21.0334 N   0  0  0  0  0  0  0  0  0  0  0  0
    8.8289  -16.7700   22.1017 C   0  0  0  0  0  0  0  0  0  0  0  0
    9.4458  -16.4323   23.3898 C   0  0  0  0  0  0  0  0  0  0  0  0
   10.6103  -15.9750   23.4092 O   0  0  0  0  0  0  0  0  0  0  0  0
    5.9316  -11.0208   25.9694 O   0  0  0  0  0  0  0  0  0  0  0  0
    6.5047  -12.2679   26.1890 C   0  0  0  0  0  0  0  0  0  0  0  0
    5.8638  -13.4192   25.7826 C   0  0  0  0  0  0  0  0  0  0  0  0
    6.4451  -14.6487   26.0075 C   0  0  0  0  0  0  0  0  0  0  0  0
    7.6730  -14.7405   26.6410 C   0  0  0  0  0  0  0  0  0  0  0  0
    8.2946  -16.0404   26.8829 C   0  0  0  0  0  0  0  0  0  0  0  0
    9.3946  -16.3898   25.9132 C   0  0  2  0  0  0  0  0  0  0  0  0
    8.7720  -16.6041   24.6215 N   0  0  0  0  0  0  0  0  0  0  0  0
   10.2160  -17.5257   26.3220 C   0  0  0  0  0  0  0  0  0  0  0  0
   10.3470  -18.7068   25.6490 O   0  0  0  0  0  0  0  0  0  0  0  0
    8.3011  -13.5742   27.0417 C   0  0  0  0  0  0  0  0  0  0  0  0
    7.7293  -12.3338   26.8224 C   0  0  0  0  0  0  0  0  0  0  0  0
   10.8754  -17.4136   27.4062 O   0  0  0  0  0  0  0  0  0  0  0  0
  2  5  1  0
  2  1  1  6
  3  2  1  0
  4  3  1  0
  5  6  2  0
  7  8  1  0
  7  5  1  0
  9 10  2  0
  9  8  1  0
 11 12  1  0
 12 22  2  0
 13 14  2  0
 13 12  1  0
 14 15  1  0
 15 16  1  0
 15 21  2  0
 17 18  1  0
 17 16  1  1
 18  9  1  0
 19 17  1  0
 20 19  1  0
 22 21  1  0
 23 19  2  0
M  END
$$$$
