CGY.pdb
     RDKit          3D

 23 23  0  0  1  0  0  0  0  0999 V2000
    8.5258  -15.1833   17.5599 N   0  0  0  0  0  0  0  0  0  0  0  0
    8.3763  -14.2123   18.6223 C   0  0  1  0  0  0  0  0  0  0  0  0
    7.0674  -13.4418   18.4788 C   0  0  0  0  0  0  0  0  0  0  0  0
    7.1655  -12.4050   17.0098 S   0  0  0  0  0  0  0  0  0  0  0  0
    8.3171  -14.9246   19.9148 C   0  0  0  0  0  0  0  0  0  0  0  0
    8.2409  -14.2934   20.9757 O   0  0  0  0  0  0  0  0  0  0  0  0
    8.3457  -16.3505   19.9802 N   0  0  0  0  0  0  0  0  0  0  0  0
    8.2337  -17.0914   21.1991 C   0  0  0  0  0  0  0  0  0  0  0  0
    9.0685  -16.5633   22.2844 C   0  0  0  0  0  0  0  0  0  0  0  0
   10.2755  -16.3181   22.0639 O   0  0  0  0  0  0  0  0  0  0  0  0
   11.0177  -14.2358   30.6481 O   0  0  0  0  0  0  0  0  0  0  0  0
   10.3804  -14.5353   29.4497 C   0  0  0  0  0  0  0  0  0  0  0  0
   10.0112  -13.5325   28.5782 C   0  0  0  0  0  0  0  0  0  0  0  0
    9.3799  -13.8455   27.3935 C   0  0  0  0  0  0  0  0  0  0  0  0
    9.1110  -15.1641   27.0672 C   0  0  0  0  0  0  0  0  0  0  0  0
    8.4418  -15.5029   25.8134 C   0  0  0  0  0  0  0  0  0  0  0  0
    9.3792  -15.8780   24.6940 C   0  0  2  0  0  0  0  0  0  0  0  0
    8.5603  -16.3176   23.5813 N   0  0  0  0  0  0  0  0  0  0  0  0
   10.3850  -16.8708   25.0613 C   0  0  0  0  0  0  0  0  0  0  0  0
   10.1886  -18.2193   25.1510 O   0  0  0  0  0  0  0  0  0  0  0  0
    9.4889  -16.1569   27.9543 C   0  0  0  0  0  0  0  0  0  0  0  0
   10.1231  -15.8571   29.1466 C   0  0  0  0  0  0  0  0  0  0  0  0
   11.5579  -16.4489   25.3243 O   0  0  0  0  0  0  0  0  0  0  0  0
  2  5  1  0
  2  1  1  6
  3  2  1  0
  4  3  1  0
  5  6  2  0
  7  8  1  0
  7  5  1  0
  9 10  2  0
  9  8  1  0
 11 12  1  0
 12 22  2  0
 13 14  2  0
 13 12  1  0
 14 15  1  0
 15 16  1  0
 15 21  2  0
 17 18  1  0
 17 16  1  1
 18  9  1  0
 19 17  1  0
 20 19  1  0
 22 21  1  0
 23 19  2  0
M  END
$$$$
