CGY.pdb
     RDKit          3D

 23 23  0  0  1  0  0  0  0  0999 V2000
    4.9462  -17.7837   22.8677 N   0  0  0  0  0  0  0  0  0  0  0  0
    5.0418  -17.9227   21.4306 C   0  0  1  0  0  0  0  0  0  0  0  0
    3.7412  -17.5028   20.7527 C   0  0  0  0  0  0  0  0  0  0  0  0
    2.3952  -18.4950   21.4207 S   0  0  0  0  0  0  0  0  0  0  0  0
    6.0982  -17.0182   20.9331 C   0  0  0  0  0  0  0  0  0  0  0  0
    6.6096  -17.2026   19.8222 O   0  0  0  0  0  0  0  0  0  0  0  0
    6.5582  -15.9130   21.7110 N   0  0  0  0  0  0  0  0  0  0  0  0
    7.8336  -15.2906   21.5291 C   0  0  0  0  0  0  0  0  0  0  0  0
    8.7555  -15.5055   22.6506 C   0  0  0  0  0  0  0  0  0  0  0  0
    9.9685  -15.2346   22.5059 O   0  0  0  0  0  0  0  0  0  0  0  0
    5.4964  -11.0589   26.3785 O   0  0  0  0  0  0  0  0  0  0  0  0
    6.1796  -12.2690   26.3490 C   0  0  0  0  0  0  0  0  0  0  0  0
    5.5400  -13.4301   25.9692 C   0  0  0  0  0  0  0  0  0  0  0  0
    6.2312  -14.6225   25.9450 C   0  0  0  0  0  0  0  0  0  0  0  0
    7.5689  -14.6670   26.3002 C   0  0  0  0  0  0  0  0  0  0  0  0
    8.3074  -15.9275   26.2772 C   0  0  0  0  0  0  0  0  0  0  0  0
    9.1837  -16.1086   25.0641 C   0  0  2  0  0  0  0  0  0  0  0  0
    8.3254  -16.0107   23.8997 N   0  0  0  0  0  0  0  0  0  0  0  0
    9.9655  -17.3418   25.0677 C   0  0  0  0  0  0  0  0  0  0  0  0
    9.9007  -18.3378   24.1356 O   0  0  0  0  0  0  0  0  0  0  0  0
    8.1938  -13.4916   26.6786 C   0  0  0  0  0  0  0  0  0  0  0  0
    7.5124  -12.2880   26.7074 C   0  0  0  0  0  0  0  0  0  0  0  0
   10.7873  -17.5132   26.0260 O   0  0  0  0  0  0  0  0  0  0  0  0
  2  5  1  0
  2  1  1  1
  3  2  1  0
  4  3  1  0
  5  6  2  0
  7  8  1  0
  7  5  1  0
  9 10  2  0
  9  8  1  0
 11 12  1  0
 12 22  2  0
 13 14  2  0
 13 12  1  0
 14 15  1  0
 15 16  1  0
 15 21  2  0
 17 18  1  0
 17 16  1  1
 18  9  1  0
 19 17  1  0
 20 19  1  0
 22 21  1  0
 23 19  2  0
M  END
$$$$
