CGY.pdb
     RDKit          3D

 23 23  0  0  1  0  0  0  0  0999 V2000
    7.9771  -14.8841   17.4228 N   0  0  0  0  0  0  0  0  0  0  0  0
    8.3631  -14.3901   18.7269 C   0  0  1  0  0  0  0  0  0  0  0  0
    7.8041  -12.9914   18.9694 C   0  0  0  0  0  0  0  0  0  0  0  0
    8.7855  -11.8069   18.0334 S   0  0  0  0  0  0  0  0  0  0  0  0
    7.7834  -15.2707   19.7614 C   0  0  0  0  0  0  0  0  0  0  0  0
    6.7528  -15.9144   19.5312 O   0  0  0  0  0  0  0  0  0  0  0  0
    8.3886  -15.4057   21.0474 N   0  0  0  0  0  0  0  0  0  0  0  0
    7.8566  -16.2251   22.0928 C   0  0  0  0  0  0  0  0  0  0  0  0
    8.6486  -16.1866   23.3277 C   0  0  0  0  0  0  0  0  0  0  0  0
    9.8155  -15.7364   23.2923 O   0  0  0  0  0  0  0  0  0  0  0  0
    6.0564  -10.8398   26.3705 O   0  0  0  0  0  0  0  0  0  0  0  0
    6.5236  -12.1427   26.4980 C   0  0  0  0  0  0  0  0  0  0  0  0
    7.8581  -12.3921   26.7397 C   0  0  0  0  0  0  0  0  0  0  0  0
    8.3062  -13.6898   26.8637 C   0  0  0  0  0  0  0  0  0  0  0  0
    7.4253  -14.7519   26.7475 C   0  0  0  0  0  0  0  0  0  0  0  0
    7.8935  -16.1298   26.8775 C   0  0  0  0  0  0  0  0  0  0  0  0
    8.8761  -16.5517   25.8151 C   0  0  2  0  0  0  0  0  0  0  0  0
    8.1427  -16.6417   24.5676 N   0  0  0  0  0  0  0  0  0  0  0  0
    9.5953  -17.7856   26.1193 C   0  0  0  0  0  0  0  0  0  0  0  0
    9.4906  -18.9657   25.4401 O   0  0  0  0  0  0  0  0  0  0  0  0
    6.0897  -14.4819   26.5050 C   0  0  0  0  0  0  0  0  0  0  0  0
    5.6264  -13.1847   26.3783 C   0  0  0  0  0  0  0  0  0  0  0  0
   10.3973  -17.7689   27.1089 O   0  0  0  0  0  0  0  0  0  0  0  0
  2  5  1  0
  2  1  1  6
  3  2  1  0
  4  3  1  0
  5  6  2  0
  7  8  1  0
  7  5  1  0
  9 10  2  0
  9  8  1  0
 11 12  1  0
 12 22  2  0
 13 14  2  0
 13 12  1  0
 14 15  1  0
 15 16  1  0
 15 21  2  0
 17 18  1  0
 17 16  1  1
 18  9  1  0
 19 17  1  0
 20 19  1  0
 22 21  1  0
 23 19  2  0
M  END
$$$$
