WQM.pdb
     RDKit          3D

 32 33  0  0  1  0  0  0  0  0999 V2000
   19.2534  -22.2653  -13.8561 N   0  0  0  0  0  0  0  0  0  0  0  0
   20.1596  -23.0596  -13.0639 C   0  0  1  0  0  0  0  0  0  0  0  0
   21.1094  -22.1180  -12.3638 C   0  0  0  0  0  0  0  0  0  0  0  0
   22.1600  -21.6087  -13.3026 C   0  0  0  0  0  0  0  0  0  0  0  0
   22.2905  -20.3196  -13.7760 C   0  0  0  0  0  0  0  0  0  0  0  0
   23.3535  -20.2606  -14.5952 N   0  0  0  0  0  0  0  0  0  0  0  0
   23.9440  -21.4723  -14.6881 C   0  0  0  0  0  0  0  0  0  0  0  0
   25.0425  -21.9246  -15.3848 C   0  0  0  0  0  0  0  0  0  0  0  0
   25.4071  -23.2476  -15.2746 C   0  0  0  0  0  0  0  0  0  0  0  0
   24.6496  -24.0871  -14.4589 C   0  0  0  0  0  0  0  0  0  0  0  0
   23.5491  -23.6413  -13.7587 C   0  0  0  0  0  0  0  0  0  0  0  0
   23.1945  -22.3213  -13.8757 C   0  0  0  0  0  0  0  0  0  0  0  0
   19.4043  -23.8210  -12.0478 C   0  0  0  0  0  0  0  0  0  0  0  0
   18.3229  -23.3554  -11.5879 O   0  0  0  0  0  0  0  0  0  0  0  0
   20.2179  -29.9731  -10.4583 N   0  0  0  0  0  0  0  0  0  0  0  0
   19.1642  -29.4803   -9.6592 C   0  0  0  0  0  0  0  0  0  0  0  0
   18.5143  -30.2969   -8.9369 O   0  0  0  0  0  0  0  0  0  0  0  0
   18.7887  -28.0453   -9.6324 C   0  0  0  0  0  0  0  0  0  0  0  0
   19.6428  -27.2916  -10.6078 C   0  0  0  0  0  0  0  0  0  0  0  0
   19.2002  -25.8582  -10.6400 C   0  0  2  0  0  0  0  0  0  0  0  0
   19.9138  -25.0705  -11.6052 N   0  0  0  0  0  0  0  0  0  0  0  0
   19.2690  -25.2320   -9.2816 C   0  0  0  0  0  0  0  0  0  0  0  0
   20.3895  -24.9467   -8.7391 O   0  0  0  0  0  0  0  0  0  0  0  0
   14.3717  -22.4568   -6.2772 C   0  0  0  0  0  0  0  0  0  0  0  0
   14.3975  -24.2094   -5.7544 S   0  0  0  0  0  0  0  0  0  0  0  0
   16.0288  -24.8647   -6.2355 C   0  0  0  0  0  0  0  0  0  0  0  0
   16.8982  -23.7675   -6.7876 C   0  0  0  0  0  0  0  0  0  0  0  0
   18.2294  -24.3485   -7.1919 C   0  0  2  0  0  0  0  0  0  0  0  0
   18.1206  -24.9149   -8.5110 N   0  0  0  0  0  0  0  0  0  0  0  0
   18.6267  -25.4352   -6.2551 C   0  0  0  0  0  0  0  0  0  0  0  0
   18.4179  -26.6528   -6.5188 O   0  0  0  0  0  0  0  0  0  0  0  0
   19.2470  -25.1601   -5.0453 O   0  0  0  0  0  0  0  0  0  0  0  0
  2  1  1  1
  2 13  1  0
  2  3  1  0
  3  4  1  0
  4  5  2  0
  6  5  1  0
  7  6  1  0
  8  7  2  0
  9  8  1  0
 10  9  2  0
 10 11  1  0
 11 12  2  0
 12  7  1  0
 12  4  1  0
 13 21  1  0
 14 13  2  0
 16 15  1  0
 16 18  1  0
 17 16  2  0
 19 18  1  0
 20 19  1  1
 21 20  1  0
 22 20  1  0
 23 22  2  0
 25 26  1  0
 25 24  1  0
 26 27  1  0
 28 27  1  1
 28 30  1  0
 28 29  1  0
 29 22  1  0
 30 32  1  0
 31 30  2  0
M  END
$$$$
