WQM.pdb
     RDKit          3D

 32 33  0  0  1  0  0  0  0  0999 V2000
   20.4573  -23.8656  -15.4058 N   0  0  0  0  0  0  0  0  0  0  0  0
   21.2211  -24.4085  -14.3096 C   0  0  1  0  0  0  0  0  0  0  0  0
   21.6606  -23.2577  -13.4372 C   0  0  0  0  0  0  0  0  0  0  0  0
   22.7415  -22.4574  -14.0973 C   0  0  0  0  0  0  0  0  0  0  0  0
   22.6963  -21.1175  -14.4225 C   0  0  0  0  0  0  0  0  0  0  0  0
   23.8571  -20.7692  -15.0020 N   0  0  0  0  0  0  0  0  0  0  0  0
   24.6841  -21.8351  -15.0771 C   0  0  0  0  0  0  0  0  0  0  0  0
   25.9587  -21.9946  -15.5737 C   0  0  0  0  0  0  0  0  0  0  0  0
   26.5534  -23.2344  -15.5059 C   0  0  0  0  0  0  0  0  0  0  0  0
   25.8431  -24.2895  -14.9349 C   0  0  0  0  0  0  0  0  0  0  0  0
   24.5671  -24.1371  -14.4358 C   0  0  0  0  0  0  0  0  0  0  0  0
   23.9839  -22.8976  -14.5086 C   0  0  0  0  0  0  0  0  0  0  0  0
   20.3763  -25.3198  -13.5106 C   0  0  0  0  0  0  0  0  0  0  0  0
   19.1172  -25.2459  -13.5942 O   0  0  0  0  0  0  0  0  0  0  0  0
   22.3696  -30.0862   -9.6532 N   0  0  0  0  0  0  0  0  0  0  0  0
   20.9618  -30.1568   -9.7230 C   0  0  0  0  0  0  0  0  0  0  0  0
   20.3741  -31.1441   -9.1839 O   0  0  0  0  0  0  0  0  0  0  0  0
   20.1449  -29.1214  -10.4023 C   0  0  0  0  0  0  0  0  0  0  0  0
   21.0537  -28.1351  -11.0734 C   0  0  0  0  0  0  0  0  0  0  0  0
   20.2224  -27.1309  -11.8166 C   0  0  2  0  0  0  0  0  0  0  0  0
   21.0020  -26.2673  -12.6578 N   0  0  0  0  0  0  0  0  0  0  0  0
   19.3601  -26.3359  -10.8858 C   0  0  0  0  0  0  0  0  0  0  0  0
   19.8118  -25.3056  -10.2809 O   0  0  0  0  0  0  0  0  0  0  0  0
   12.2638  -23.6015   -9.3752 C   0  0  0  0  0  0  0  0  0  0  0  0
   13.2468  -24.7116  -10.4460 S   0  0  0  0  0  0  0  0  0  0  0  0
   14.8926  -24.8449   -9.6741 C   0  0  0  0  0  0  0  0  0  0  0  0
   15.7877  -25.7403  -10.4874 C   0  0  0  0  0  0  0  0  0  0  0  0
   17.1568  -25.7743   -9.8570 C   0  0  2  0  0  0  0  0  0  0  0  0
   18.0061  -26.6591  -10.6110 N   0  0  0  0  0  0  0  0  0  0  0  0
   17.0732  -26.2922   -8.4637 C   0  0  0  0  0  0  0  0  0  0  0  0
   17.2156  -27.5190   -8.1983 O   0  0  0  0  0  0  0  0  0  0  0  0
   16.8345  -25.4487   -7.3887 O   0  0  0  0  0  0  0  0  0  0  0  0
  2  1  1  6
  2 13  1  0
  2  3  1  0
  3  4  1  0
  4  5  2  0
  6  5  1  0
  7  6  1  0
  8  7  2  0
  9  8  1  0
 10  9  2  0
 10 11  1  0
 11 12  2  0
 12  7  1  0
 12  4  1  0
 13 21  1  0
 14 13  2  0
 16 15  1  0
 16 18  1  0
 17 16  2  0
 19 18  1  0
 20 19  1  1
 21 20  1  0
 22 20  1  0
 23 22  2  0
 25 26  1  0
 25 24  1  0
 26 27  1  0
 28 27  1  6
 28 30  1  0
 28 29  1  0
 29 22  1  0
 30 32  1  0
 31 30  2  0
M  END
$$$$
