THT.pdb
     RDKit          3D

 25 25  0  0  1  0  0  0  0  0999 V2000
   16.1525   -2.7305  -11.9028 C   0  0  0  0  0  0  0  0  0  0  0  0
   15.5068   -3.4929  -13.0211 C   0  0  1  0  0  0  0  0  0  0  0  0
   14.5874   -2.7054  -13.7080 O   0  0  0  0  0  0  0  0  0  0  0  0
   16.4974   -4.0439  -14.0052 C   0  0  2  0  0  0  0  0  0  0  0  0
   15.9115   -4.5560  -15.2031 N   0  0  0  0  0  0  0  0  0  0  0  0
   17.3452   -5.0637  -13.3146 C   0  0  0  0  0  0  0  0  0  0  0  0
   17.9949   -4.8148  -12.2683 O   0  0  0  0  0  0  0  0  0  0  0  0
   17.4346   -6.3613  -13.8390 N   0  0  0  0  0  0  0  0  0  0  0  0
   18.1896   -7.4073  -13.0997 C   0  0  1  0  0  0  0  0  0  0  0  0
   17.2051   -8.2862  -12.4225 C   0  0  0  0  0  0  0  0  0  0  0  0
   16.6965   -7.9183  -11.1141 C   0  0  0  0  0  0  0  0  0  0  0  0
   17.1214   -6.8226  -10.3358 C   0  0  0  0  0  0  0  0  0  0  0  0
   16.4334   -6.7943   -9.1932 N   0  0  0  0  0  0  0  0  0  0  0  0
   15.5869   -7.8331   -9.2187 C   0  0  0  0  0  0  0  0  0  0  0  0
   15.7619   -8.4880  -10.3728 N   0  0  0  0  0  0  0  0  0  0  0  0
   18.8646   -8.1581  -14.1930 C   0  0  0  0  0  0  0  0  0  0  0  0
   18.1849   -8.2941  -15.2890 O   0  0  0  0  0  0  0  0  0  0  0  0
   22.6262   -7.9026  -15.4291 C   0  0  0  0  0  0  0  0  0  0  0  0
   22.1830   -9.3199  -15.2354 C   0  0  1  0  0  0  0  0  0  0  0  0
   22.5578   -9.7059  -13.9284 O   0  0  0  0  0  0  0  0  0  0  0  0
   20.6696   -9.4069  -15.3489 C   0  0  2  0  0  0  0  0  0  0  0  0
   20.1405   -8.7186  -14.1624 N   0  0  0  0  0  0  0  0  0  0  0  0
   20.2009  -10.8039  -15.3816 C   0  0  0  0  0  0  0  0  0  0  0  0
   20.4857  -11.6248  -16.4379 O   0  0  0  0  0  0  0  0  0  0  0  0
   19.5251  -11.2557  -14.4218 O   0  0  0  0  0  0  0  0  0  0  0  0
  2  1  1  1
  3  2  1  0
  4  2  1  0
  4  5  1  6
  4  6  1  0
  6  7  2  0
  8  6  1  0
  8  9  1  0
  9 16  1  0
 10 11  1  0
  9 10  1  6
 11 15  1  0
 12 11  2  0
 12 13  1  0
 13 14  1  0
 15 14  2  0
 16 17  2  0
 19 18  1  1
 19 21  1  0
 20 19  1  0
 21 23  1  0
 22 16  1  0
 21 22  1  1
 23 25  2  0
 23 24  1  0
M  END
$$$$
