THT.pdb
     RDKit          3D

 25 25  0  0  1  0  0  0  0  0999 V2000
   24.2459  -11.6400  -19.3882 C   0  0  0  0  0  0  0  0  0  0  0  0
   23.2386  -10.6918  -18.8093 C   0  0  1  0  0  0  0  0  0  0  0  0
   22.9999   -9.6201  -19.6649 O   0  0  0  0  0  0  0  0  0  0  0  0
   21.9288  -11.3505  -18.4874 C   0  0  2  0  0  0  0  0  0  0  0  0
   21.2605  -11.9113  -19.6186 N   0  0  0  0  0  0  0  0  0  0  0  0
   21.0666  -10.3738  -17.7535 C   0  0  0  0  0  0  0  0  0  0  0  0
   20.0887   -9.7924  -18.2869 O   0  0  0  0  0  0  0  0  0  0  0  0
   21.3422  -10.0779  -16.4107 N   0  0  0  0  0  0  0  0  0  0  0  0
   20.4507   -9.1557  -15.6588 C   0  0  1  0  0  0  0  0  0  0  0  0
   19.8628   -9.9131  -14.5270 C   0  0  0  0  0  0  0  0  0  0  0  0
   18.6241  -10.6441  -14.7200 C   0  0  0  0  0  0  0  0  0  0  0  0
   17.8678  -10.6975  -15.9083 C   0  0  0  0  0  0  0  0  0  0  0  0
   16.7926  -11.4641  -15.7179 N   0  0  0  0  0  0  0  0  0  0  0  0
   16.8398  -11.8989  -14.4511 C   0  0  0  0  0  0  0  0  0  0  0  0
   17.9396  -11.3974  -13.8765 N   0  0  0  0  0  0  0  0  0  0  0  0
   21.3999   -8.1336  -15.1400 C   0  0  0  0  0  0  0  0  0  0  0  0
   22.4506   -8.5931  -14.5346 O   0  0  0  0  0  0  0  0  0  0  0  0
   23.4031   -5.5893  -16.8656 C   0  0  0  0  0  0  0  0  0  0  0  0
   22.6735   -4.8856  -15.7632 C   0  0  1  0  0  0  0  0  0  0  0  0
   21.4771   -4.3684  -16.3099 O   0  0  0  0  0  0  0  0  0  0  0  0
   22.3147   -5.8766  -14.6678 C   0  0  2  0  0  0  0  0  0  0  0  0
   21.2797   -6.7485  -15.2422 N   0  0  0  0  0  0  0  0  0  0  0  0
   21.8030   -5.2008  -13.4621 C   0  0  0  0  0  0  0  0  0  0  0  0
   22.6136   -4.4158  -12.6890 O   0  0  0  0  0  0  0  0  0  0  0  0
   20.5977   -5.3450  -13.1325 O   0  0  0  0  0  0  0  0  0  0  0  0
  2  1  1  6
  3  2  1  0
  4  2  1  0
  4  5  1  6
  4  6  1  0
  6  7  2  0
  8  6  1  0
  8  9  1  0
  9 16  1  0
 10 11  1  0
  9 10  1  1
 11 15  1  0
 12 11  2  0
 12 13  1  0
 13 14  1  0
 15 14  2  0
 16 17  2  0
 19 18  1  6
 19 21  1  0
 20 19  1  0
 21 23  1  0
 22 16  1  0
 21 22  1  6
 23 25  2  0
 23 24  1  0
M  END
$$$$
