THT.pdb
     RDKit          3D

 25 25  0  0  1  0  0  0  0  0999 V2000
   21.7400   -5.0743  -14.7137 C   0  0  0  0  0  0  0  0  0  0  0  0
   22.0053   -5.7498  -16.0261 C   0  0  1  0  0  0  0  0  0  0  0  0
   23.2971   -5.4939  -16.4769 O   0  0  0  0  0  0  0  0  0  0  0  0
   21.8005   -7.2360  -15.9738 C   0  0  2  0  0  0  0  0  0  0  0  0
   22.0722   -7.9093  -17.2040 N   0  0  0  0  0  0  0  0  0  0  0  0
   20.4184   -7.5138  -15.4753 C   0  0  0  0  0  0  0  0  0  0  0  0
   19.3988   -7.4179  -16.2034 O   0  0  0  0  0  0  0  0  0  0  0  0
   20.2270   -7.8998  -14.1407 N   0  0  0  0  0  0  0  0  0  0  0  0
   18.8644   -8.2514  -13.6608 C   0  0  1  0  0  0  0  0  0  0  0  0
   18.8561   -9.6985  -13.3348 C   0  0  0  0  0  0  0  0  0  0  0  0
   18.7906  -10.6744  -14.4069 C   0  0  0  0  0  0  0  0  0  0  0  0
   19.8885  -11.3200  -15.0107 C   0  0  0  0  0  0  0  0  0  0  0  0
   19.4508  -12.1511  -15.9580 N   0  0  0  0  0  0  0  0  0  0  0  0
   18.1141  -12.0559  -15.9768 C   0  0  0  0  0  0  0  0  0  0  0  0
   17.7438  -11.1702  -15.0442 N   0  0  0  0  0  0  0  0  0  0  0  0
   18.7421   -7.4542  -12.4102 C   0  0  0  0  0  0  0  0  0  0  0  0
   19.7527   -7.5146  -11.5998 O   0  0  0  0  0  0  0  0  0  0  0  0
   17.9499   -3.8113  -12.2341 C   0  0  0  0  0  0  0  0  0  0  0  0
   17.1313   -4.4902  -11.1797 C   0  0  1  0  0  0  0  0  0  0  0  0
   15.8517   -4.7335  -11.7285 O   0  0  0  0  0  0  0  0  0  0  0  0
   17.7624   -5.8247  -10.8168 C   0  0  2  0  0  0  0  0  0  0  0  0
   17.6672   -6.6532  -12.0275 N   0  0  0  0  0  0  0  0  0  0  0  0
   17.0628   -6.4759   -9.6948 C   0  0  0  0  0  0  0  0  0  0  0  0
   16.2797   -7.5801   -9.8902 O   0  0  0  0  0  0  0  0  0  0  0  0
   17.1846   -6.0114   -8.5323 O   0  0  0  0  0  0  0  0  0  0  0  0
  2  1  1  1
  3  2  1  0
  4  2  1  0
  4  5  1  6
  4  6  1  0
  6  7  2  0
  8  6  1  0
  8  9  1  0
  9 16  1  0
 10 11  1  0
  9 10  1  1
 11 15  1  0
 12 11  2  0
 12 13  1  0
 13 14  1  0
 15 14  2  0
 16 17  2  0
 19 18  1  6
 19 21  1  0
 20 19  1  0
 21 23  1  0
 22 16  1  0
 21 22  1  6
 23 25  2  0
 23 24  1  0
M  END
$$$$
