THT.pdb
     RDKit          3D

 25 25  0  0  1  0  0  0  0  0999 V2000
   21.1331  -11.5101  -15.7753 C   0  0  0  0  0  0  0  0  0  0  0  0
   20.0607  -12.1611  -16.5969 C   0  0  1  0  0  0  0  0  0  0  0  0
   20.1573  -13.5489  -16.5502 O   0  0  0  0  0  0  0  0  0  0  0  0
   18.6757  -11.7617  -16.1778 C   0  0  2  0  0  0  0  0  0  0  0  0
   17.6329  -12.4861  -16.8322 N   0  0  0  0  0  0  0  0  0  0  0  0
   18.5276  -10.2840  -16.3526 C   0  0  0  0  0  0  0  0  0  0  0  0
   18.3491   -9.7444  -17.4732 O   0  0  0  0  0  0  0  0  0  0  0  0
   18.5871   -9.4437  -15.2313 N   0  0  0  0  0  0  0  0  0  0  0  0
   18.4563   -7.9725  -15.4022 C   0  0  1  0  0  0  0  0  0  0  0  0
   17.2306   -7.5387  -14.6883 C   0  0  0  0  0  0  0  0  0  0  0  0
   15.9442   -7.6262  -15.3544 C   0  0  0  0  0  0  0  0  0  0  0  0
   15.7242   -8.0338  -16.6857 C   0  0  0  0  0  0  0  0  0  0  0  0
   14.4182   -7.9918  -16.9544 N   0  0  0  0  0  0  0  0  0  0  0  0
   13.8015   -7.5719  -15.8410 C   0  0  0  0  0  0  0  0  0  0  0  0
   14.7310   -7.3605  -14.9014 N   0  0  0  0  0  0  0  0  0  0  0  0
   19.6590   -7.4530  -14.6963 C   0  0  0  0  0  0  0  0  0  0  0  0
   19.9104   -7.9849  -13.5407 O   0  0  0  0  0  0  0  0  0  0  0  0
   22.8177   -5.5763  -16.4998 C   0  0  0  0  0  0  0  0  0  0  0  0
   22.9177   -6.4023  -15.2546 C   0  0  1  0  0  0  0  0  0  0  0  0
   24.0936   -6.0070  -14.5775 O   0  0  0  0  0  0  0  0  0  0  0  0
   21.7253   -6.1235  -14.3539 C   0  0  2  0  0  0  0  0  0  0  0  0
   20.5368   -6.4685  -15.1476 N   0  0  0  0  0  0  0  0  0  0  0  0
   21.6701   -4.7107  -13.9376 C   0  0  0  0  0  0  0  0  0  0  0  0
   22.6228   -4.1741  -13.1159 O   0  0  0  0  0  0  0  0  0  0  0  0
   20.7306   -3.9792  -14.3428 O   0  0  0  0  0  0  0  0  0  0  0  0
  2  1  1  1
  3  2  1  0
  4  2  1  0
  4  5  1  6
  4  6  1  0
  6  7  2  0
  8  6  1  0
  8  9  1  0
  9 16  1  0
 10 11  1  0
  9 10  1  1
 11 15  1  0
 12 11  2  0
 12 13  1  0
 13 14  1  0
 15 14  2  0
 16 17  2  0
 19 18  1  6
 19 21  1  0
 20 19  1  0
 21 23  1  0
 22 16  1  0
 21 22  1  6
 23 25  2  0
 23 24  1  0
M  END
$$$$
