THT.pdb
     RDKit          3D

 25 25  0  0  1  0  0  0  0  0999 V2000
   28.8032  -21.3836  -18.1790 C   0  0  0  0  0  0  0  0  0  0  0  0
   27.7366  -21.0075  -17.1941 C   0  0  1  0  0  0  0  0  0  0  0  0
   28.2681  -20.3153  -16.1098 O   0  0  0  0  0  0  0  0  0  0  0  0
   26.6411  -20.1805  -17.8017 C   0  0  2  0  0  0  0  0  0  0  0  0
   27.1031  -19.0737  -18.5777 N   0  0  0  0  0  0  0  0  0  0  0  0
   25.7033  -19.7537  -16.7181 C   0  0  0  0  0  0  0  0  0  0  0  0
   25.6412  -18.5717  -16.2965 O   0  0  0  0  0  0  0  0  0  0  0  0
   24.8460  -20.6962  -16.1319 N   0  0  0  0  0  0  0  0  0  0  0  0
   23.8978  -20.2722  -15.0681 C   0  0  1  0  0  0  0  0  0  0  0  0
   22.5708  -20.8558  -15.3824 C   0  0  0  0  0  0  0  0  0  0  0  0
   21.6781  -20.1591  -16.2901 C   0  0  0  0  0  0  0  0  0  0  0  0
   21.8563  -18.8539  -16.7915 C   0  0  0  0  0  0  0  0  0  0  0  0
   20.8395  -18.5436  -17.5976 N   0  0  0  0  0  0  0  0  0  0  0  0
   20.0224  -19.6056  -17.6255 C   0  0  0  0  0  0  0  0  0  0  0  0
   20.5427  -20.5555  -16.8390 N   0  0  0  0  0  0  0  0  0  0  0  0
   24.4574  -20.9231  -13.8524 C   0  0  0  0  0  0  0  0  0  0  0  0
   24.4665  -22.2198  -13.8585 O   0  0  0  0  0  0  0  0  0  0  0  0
   27.7515  -20.2777  -12.1426 C   0  0  0  0  0  0  0  0  0  0  0  0
   26.6989  -20.3390  -11.0792 C   0  0  1  0  0  0  0  0  0  0  0  0
   26.3155  -19.0106  -10.7858 O   0  0  0  0  0  0  0  0  0  0  0  0
   25.4831  -21.0884  -11.5998 C   0  0  2  0  0  0  0  0  0  0  0  0
   24.9727  -20.2889  -12.7230 N   0  0  0  0  0  0  0  0  0  0  0  0
   24.4449  -21.2372  -10.5642 C   0  0  0  0  0  0  0  0  0  0  0  0
   24.6643  -21.9846   -9.4399 O   0  0  0  0  0  0  0  0  0  0  0  0
   23.3331  -20.6679  -10.7119 O   0  0  0  0  0  0  0  0  0  0  0  0
  2  1  1  6
  3  2  1  0
  4  2  1  0
  4  5  1  1
  4  6  1  0
  6  7  2  0
  8  6  1  0
  8  9  1  0
  9 16  1  0
 10 11  1  0
  9 10  1  6
 11 15  1  0
 12 11  2  0
 12 13  1  0
 13 14  1  0
 15 14  2  0
 16 17  2  0
 19 18  1  6
 19 21  1  0
 20 19  1  0
 21 23  1  0
 22 16  1  0
 21 22  1  6
 23 25  2  0
 23 24  1  0
M  END
$$$$
