THT.pdb
     RDKit          3D

 25 25  0  0  1  0  0  0  0  0999 V2000
   27.3174   -9.0325  -21.6717 C   0  0  0  0  0  0  0  0  0  0  0  0
   25.9295   -8.8292  -21.1413 C   0  0  1  0  0  0  0  0  0  0  0  0
   24.9731   -9.3484  -22.0093 O   0  0  0  0  0  0  0  0  0  0  0  0
   25.7249   -9.4351  -19.7832 C   0  0  2  0  0  0  0  0  0  0  0  0
   25.8366  -10.8589  -19.7531 N   0  0  0  0  0  0  0  0  0  0  0  0
   24.4149   -8.9632  -19.2384 C   0  0  0  0  0  0  0  0  0  0  0  0
   23.5598   -8.3665  -19.9397 O   0  0  0  0  0  0  0  0  0  0  0  0
   24.1048   -9.1848  -17.8887 N   0  0  0  0  0  0  0  0  0  0  0  0
   22.7487   -8.8529  -17.3775 C   0  0  1  0  0  0  0  0  0  0  0  0
   22.2303  -10.0416  -16.6573 C   0  0  0  0  0  0  0  0  0  0  0  0
   20.9670   -9.9556  -15.9483 C   0  0  0  0  0  0  0  0  0  0  0  0
   20.1870   -8.7938  -15.7787 C   0  0  0  0  0  0  0  0  0  0  0  0
   19.0929   -9.0905  -15.0755 N   0  0  0  0  0  0  0  0  0  0  0  0
   19.1508  -10.3993  -14.7928 C   0  0  0  0  0  0  0  0  0  0  0  0
   20.2760  -10.8933  -15.3230 N   0  0  0  0  0  0  0  0  0  0  0  0
   23.0236   -7.7584  -16.4073 C   0  0  0  0  0  0  0  0  0  0  0  0
   24.0573   -7.9268  -15.6426 O   0  0  0  0  0  0  0  0  0  0  0  0
   21.5817   -3.8877  -16.6111 C   0  0  0  0  0  0  0  0  0  0  0  0
   22.8797   -4.2845  -15.9782 C   0  0  1  0  0  0  0  0  0  0  0  0
   23.2212   -3.2786  -15.0460 O   0  0  0  0  0  0  0  0  0  0  0  0
   22.7087   -5.5972  -15.2309 C   0  0  2  0  0  0  0  0  0  0  0  0
   22.2957   -6.5810  -16.2423 N   0  0  0  0  0  0  0  0  0  0  0  0
   21.6909   -5.4962  -14.1696 C   0  0  0  0  0  0  0  0  0  0  0  0
   21.9096   -4.7514  -13.0435 O   0  0  0  0  0  0  0  0  0  0  0  0
   20.5976   -6.1050  -14.2966 O   0  0  0  0  0  0  0  0  0  0  0  0
  2  1  1  6
  3  2  1  0
  4  2  1  0
  4  5  1  6
  4  6  1  0
  6  7  2  0
  8  6  1  0
  8  9  1  0
  9 16  1  0
 10 11  1  0
  9 10  1  1
 11 15  1  0
 12 11  2  0
 12 13  1  0
 13 14  1  0
 15 14  2  0
 16 17  2  0
 19 18  1  1
 19 21  1  0
 20 19  1  0
 21 23  1  0
 22 16  1  0
 21 22  1  6
 23 25  2  0
 23 24  1  0
M  END
$$$$
