THT.pdb
     RDKit          3D

 25 25  0  0  1  0  0  0  0  0999 V2000
   16.5177  -10.0398  -19.0413 C   0  0  0  0  0  0  0  0  0  0  0  0
   17.1706   -9.0685  -18.1037 C   0  0  1  0  0  0  0  0  0  0  0  0
   16.2483   -8.5213  -17.2163 O   0  0  0  0  0  0  0  0  0  0  0  0
   18.2932   -9.6774  -17.3149 C   0  0  2  0  0  0  0  0  0  0  0  0
   17.9019  -10.7749  -16.4886 N   0  0  0  0  0  0  0  0  0  0  0  0
   18.9710   -8.5989  -16.5316 C   0  0  0  0  0  0  0  0  0  0  0  0
   18.8187   -8.4579  -15.2924 O   0  0  0  0  0  0  0  0  0  0  0  0
   19.8182   -7.6937  -17.1871 N   0  0  0  0  0  0  0  0  0  0  0  0
   20.5768   -6.6872  -16.3985 C   0  0  1  0  0  0  0  0  0  0  0  0
   21.9891   -7.1350  -16.3275 C   0  0  0  0  0  0  0  0  0  0  0  0
   22.3668   -8.1683  -15.3810 C   0  0  0  0  0  0  0  0  0  0  0  0
   21.5770   -8.6492  -14.3172 C   0  0  0  0  0  0  0  0  0  0  0  0
   22.2461   -9.5968  -13.6585 N   0  0  0  0  0  0  0  0  0  0  0  0
   23.4325   -9.7344  -14.2665 C   0  0  0  0  0  0  0  0  0  0  0  0
   23.4815   -8.8731  -15.2897 N   0  0  0  0  0  0  0  0  0  0  0  0
   20.4788   -5.4670  -17.2447 C   0  0  0  0  0  0  0  0  0  0  0  0
   20.7961   -5.6174  -18.4931 O   0  0  0  0  0  0  0  0  0  0  0  0
   17.5850   -3.5214  -18.1826 C   0  0  0  0  0  0  0  0  0  0  0  0
   18.5903   -2.5325  -17.6786 C   0  0  1  0  0  0  0  0  0  0  0  0
   18.3281   -2.3245  -16.3054 O   0  0  0  0  0  0  0  0  0  0  0  0
   19.9918   -3.1038  -17.8211 C   0  0  2  0  0  0  0  0  0  0  0  0
   20.0795   -4.1944  -16.8391 N   0  0  0  0  0  0  0  0  0  0  0  0
   21.0278   -2.0900  -17.5538 C   0  0  0  0  0  0  0  0  0  0  0  0
   21.2562   -1.0604  -18.4246 O   0  0  0  0  0  0  0  0  0  0  0  0
   21.7187   -2.1682  -16.5056 O   0  0  0  0  0  0  0  0  0  0  0  0
  2  1  1  1
  3  2  1  0
  4  2  1  0
  4  5  1  1
  4  6  1  0
  6  7  2  0
  8  6  1  0
  8  9  1  0
  9 16  1  0
 10 11  1  0
  9 10  1  6
 11 15  1  0
 12 11  2  0
 12 13  1  0
 13 14  1  0
 15 14  2  0
 16 17  2  0
 19 18  1  1
 19 21  1  0
 20 19  1  0
 21 23  1  0
 22 16  1  0
 21 22  1  1
 23 25  2  0
 23 24  1  0
M  END
$$$$
