THT.pdb
     RDKit          3D

 25 25  0  0  1  0  0  0  0  0999 V2000
   36.4676  -34.4871  -20.6310 C   0  0  0  0  0  0  0  0  0  0  0  0
   36.1037  -34.1867  -19.2075 C   0  0  1  0  0  0  0  0  0  0  0  0
   37.1662  -33.6019  -18.5244 O   0  0  0  0  0  0  0  0  0  0  0  0
   34.9034  -33.2938  -19.0837 C   0  0  2  0  0  0  0  0  0  0  0  0
   35.0255  -32.0481  -19.7720 N   0  0  0  0  0  0  0  0  0  0  0  0
   34.5913  -33.1056  -17.6336 C   0  0  0  0  0  0  0  0  0  0  0  0
   34.5257  -31.9739  -17.0915 O   0  0  0  0  0  0  0  0  0  0  0  0
   34.3580  -34.2263  -16.8233 N   0  0  0  0  0  0  0  0  0  0  0  0
   33.8783  -34.0428  -15.4279 C   0  0  1  0  0  0  0  0  0  0  0  0
   32.4165  -34.2941  -15.4125 C   0  0  0  0  0  0  0  0  0  0  0  0
   31.5066  -33.2612  -15.8720 C   0  0  0  0  0  0  0  0  0  0  0  0
   31.8574  -31.9427  -16.2262 C   0  0  0  0  0  0  0  0  0  0  0  0
   30.7643  -31.2763  -16.6010 N   0  0  0  0  0  0  0  0  0  0  0  0
   29.7322  -32.1249  -16.4974 C   0  0  0  0  0  0  0  0  0  0  0  0
   30.1988  -33.3011  -16.0613 N   0  0  0  0  0  0  0  0  0  0  0  0
   34.5825  -35.1293  -14.6943 C   0  0  0  0  0  0  0  0  0  0  0  0
   34.7702  -36.2289  -15.3557 O   0  0  0  0  0  0  0  0  0  0  0  0
   36.4871  -34.8143  -10.9475 C   0  0  0  0  0  0  0  0  0  0  0  0
   36.9497  -35.6969  -12.0655 C   0  0  1  0  0  0  0  0  0  0  0  0
   37.6565  -36.7762  -11.4882 O   0  0  0  0  0  0  0  0  0  0  0  0
   35.7491  -36.2518  -12.8147 C   0  0  2  0  0  0  0  0  0  0  0  0
   35.0612  -35.0848  -13.3858 N   0  0  0  0  0  0  0  0  0  0  0  0
   34.8411  -36.9953  -11.9230 C   0  0  0  0  0  0  0  0  0  0  0  0
   35.1263  -38.2713  -11.5215 O   0  0  0  0  0  0  0  0  0  0  0  0
   33.7814  -36.4505  -11.5200 O   0  0  0  0  0  0  0  0  0  0  0  0
  2  1  1  6
  3  2  1  0
  4  2  1  0
  4  5  1  1
  4  6  1  0
  6  7  2  0
  8  6  1  0
  8  9  1  0
  9 16  1  0
 10 11  1  0
  9 10  1  6
 11 15  1  0
 12 11  2  0
 12 13  1  0
 13 14  1  0
 15 14  2  0
 16 17  2  0
 19 18  1  1
 19 21  1  0
 20 19  1  0
 21 23  1  0
 22 16  1  0
 21 22  1  1
 23 25  2  0
 23 24  1  0
M  END
$$$$
