THT.pdb
     RDKit          3D

 25 25  0  0  1  0  0  0  0  0999 V2000
   14.5302  -11.8227  -17.4482 C   0  0  0  0  0  0  0  0  0  0  0  0
   14.6488  -13.1911  -16.8462 C   0  0  1  0  0  0  0  0  0  0  0  0
   13.8659  -14.1164  -17.5306 O   0  0  0  0  0  0  0  0  0  0  0  0
   16.0623  -13.6946  -16.8056 C   0  0  2  0  0  0  0  0  0  0  0  0
   16.1883  -15.0571  -16.3954 N   0  0  0  0  0  0  0  0  0  0  0  0
   16.8764  -12.7743  -15.9534 C   0  0  0  0  0  0  0  0  0  0  0  0
   16.9035  -12.8515  -14.6995 O   0  0  0  0  0  0  0  0  0  0  0  0
   17.6515  -11.7737  -16.5574 N   0  0  0  0  0  0  0  0  0  0  0  0
   18.4081  -10.8130  -15.7118 C   0  0  1  0  0  0  0  0  0  0  0  0
   19.8525  -11.1180  -15.8574 C   0  0  0  0  0  0  0  0  0  0  0  0
   20.8377  -10.1812  -15.3498 C   0  0  0  0  0  0  0  0  0  0  0  0
   20.9069   -9.6802  -14.0341 C   0  0  0  0  0  0  0  0  0  0  0  0
   21.9408   -8.8436  -13.9298 N   0  0  0  0  0  0  0  0  0  0  0  0
   22.5302   -8.7958  -15.1326 C   0  0  0  0  0  0  0  0  0  0  0  0
   21.8555   -9.6008  -15.9621 N   0  0  0  0  0  0  0  0  0  0  0  0
   18.1043   -9.5042  -16.3516 C   0  0  0  0  0  0  0  0  0  0  0  0
   18.2010   -9.4706  -17.6443 O   0  0  0  0  0  0  0  0  0  0  0  0
   15.1248   -7.2576  -16.5033 C   0  0  0  0  0  0  0  0  0  0  0  0
   16.2869   -6.4481  -16.0165 C   0  0  1  0  0  0  0  0  0  0  0  0
   16.2575   -6.4721  -14.6036 O   0  0  0  0  0  0  0  0  0  0  0  0
   17.5877   -7.0814  -16.4830 C   0  0  2  0  0  0  0  0  0  0  0  0
   17.7247   -8.3254  -15.7115 N   0  0  0  0  0  0  0  0  0  0  0  0
   18.7445   -6.2002  -16.2426 C   0  0  0  0  0  0  0  0  0  0  0  0
   18.9010   -5.0287  -16.9309 O   0  0  0  0  0  0  0  0  0  0  0  0
   19.6083   -6.5269  -15.3886 O   0  0  0  0  0  0  0  0  0  0  0  0
  2  1  1  6
  3  2  1  0
  4  2  1  0
  4  5  1  1
  4  6  1  0
  6  7  2  0
  8  6  1  0
  8  9  1  0
  9 16  1  0
 10 11  1  0
  9 10  1  6
 11 15  1  0
 12 11  2  0
 12 13  1  0
 13 14  1  0
 15 14  2  0
 16 17  2  0
 19 18  1  6
 19 21  1  0
 20 19  1  0
 21 23  1  0
 22 16  1  0
 21 22  1  1
 23 25  2  0
 23 24  1  0
M  END
$$$$
