THT.pdb
     RDKit          3D

 25 25  0  0  1  0  0  0  0  0999 V2000
   23.7794   -9.6868  -18.7924 C   0  0  0  0  0  0  0  0  0  0  0  0
   22.8680  -10.7301  -19.3667 C   0  0  1  0  0  0  0  0  0  0  0  0
   23.5820  -11.6990  -20.0658 O   0  0  0  0  0  0  0  0  0  0  0  0
   22.0256  -11.4108  -18.3273 C   0  0  2  0  0  0  0  0  0  0  0  0
   21.2621  -12.5128  -18.8204 N   0  0  0  0  0  0  0  0  0  0  0  0
   21.1655  -10.3865  -17.6588 C   0  0  0  0  0  0  0  0  0  0  0  0
   20.1743   -9.8568  -18.2206 O   0  0  0  0  0  0  0  0  0  0  0  0
   21.4585   -9.9837  -16.3477 N   0  0  0  0  0  0  0  0  0  0  0  0
   20.5561   -9.0319  -15.6476 C   0  0  1  0  0  0  0  0  0  0  0  0
   19.9324   -9.7498  -14.5092 C   0  0  0  0  0  0  0  0  0  0  0  0
   18.7484  -10.5584  -14.7338 C   0  0  0  0  0  0  0  0  0  0  0  0
   18.0746  -10.7217  -15.9611 C   0  0  0  0  0  0  0  0  0  0  0  0
   17.0306  -11.5347  -15.7914 N   0  0  0  0  0  0  0  0  0  0  0  0
   17.0178  -11.8930  -14.5000 C   0  0  0  0  0  0  0  0  0  0  0  0
   18.0506  -11.2991  -13.8900 N   0  0  0  0  0  0  0  0  0  0  0  0
   21.5006   -8.0023  -15.1351 C   0  0  0  0  0  0  0  0  0  0  0  0
   22.5958   -8.4525  -14.6065 O   0  0  0  0  0  0  0  0  0  0  0  0
   23.2500   -5.5039  -17.0279 C   0  0  0  0  0  0  0  0  0  0  0  0
   22.6691   -4.7682  -15.8600 C   0  0  1  0  0  0  0  0  0  0  0  0
   21.4295   -4.2293  -16.2731 O   0  0  0  0  0  0  0  0  0  0  0  0
   22.4171   -5.7357  -14.7149 C   0  0  2  0  0  0  0  0  0  0  0  0
   21.3334   -6.6188  -15.1701 N   0  0  0  0  0  0  0  0  0  0  0  0
   22.0211   -5.0343  -13.4805 C   0  0  0  0  0  0  0  0  0  0  0  0
   22.8970   -4.2250  -12.8106 O   0  0  0  0  0  0  0  0  0  0  0  0
   20.8560   -5.1789  -13.0295 O   0  0  0  0  0  0  0  0  0  0  0  0
  2  1  1  1
  3  2  1  0
  4  2  1  0
  4  5  1  6
  4  6  1  0
  6  7  2  0
  8  6  1  0
  8  9  1  0
  9 16  1  0
 10 11  1  0
  9 10  1  1
 11 15  1  0
 12 11  2  0
 12 13  1  0
 13 14  1  0
 15 14  2  0
 16 17  2  0
 19 18  1  6
 19 21  1  0
 20 19  1  0
 21 23  1  0
 22 16  1  0
 21 22  1  6
 23 25  2  0
 23 24  1  0
M  END
$$$$
