THT.pdb
     RDKit          3D

 25 25  0  0  1  0  0  0  0  0999 V2000
   24.9214  -12.8755  -15.4276 C   0  0  0  0  0  0  0  0  0  0  0  0
   24.0140  -11.7502  -15.8266 C   0  0  1  0  0  0  0  0  0  0  0  0
   24.4563  -11.1299  -16.9915 O   0  0  0  0  0  0  0  0  0  0  0  0
   22.5909  -12.1849  -16.0244 C   0  0  2  0  0  0  0  0  0  0  0  0
   22.4034  -13.1084  -17.0980 N   0  0  0  0  0  0  0  0  0  0  0  0
   21.7329  -10.9694  -16.1735 C   0  0  0  0  0  0  0  0  0  0  0  0
   21.2090  -10.6343  -17.2653 O   0  0  0  0  0  0  0  0  0  0  0  0
   21.4882  -10.1525  -15.0601 N   0  0  0  0  0  0  0  0  0  0  0  0
   20.5530   -9.0026  -15.1780 C   0  0  1  0  0  0  0  0  0  0  0  0
   19.3894   -9.2704  -14.2978 C   0  0  0  0  0  0  0  0  0  0  0  0
   18.2926  -10.0848  -14.7875 C   0  0  0  0  0  0  0  0  0  0  0  0
   18.1886  -10.6513  -16.0740 C   0  0  0  0  0  0  0  0  0  0  0  0
   17.0473  -11.3356  -16.1685 N   0  0  0  0  0  0  0  0  0  0  0  0
   16.4233  -11.2234  -14.9877 C   0  0  0  0  0  0  0  0  0  0  0  0
   17.1841  -10.4738  -14.1812 N   0  0  0  0  0  0  0  0  0  0  0  0
   21.3509   -7.8741  -14.6263 C   0  0  0  0  0  0  0  0  0  0  0  0
   22.1546   -8.1722  -13.6532 O   0  0  0  0  0  0  0  0  0  0  0  0
   24.0533   -6.0068  -16.0644 C   0  0  0  0  0  0  0  0  0  0  0  0
   23.0541   -4.9949  -15.5950 C   0  0  1  0  0  0  0  0  0  0  0  0
   22.1786   -4.7325  -16.6731 O   0  0  0  0  0  0  0  0  0  0  0  0
   22.2434   -5.5667  -14.4432 C   0  0  2  0  0  0  0  0  0  0  0  0
   21.3277   -6.5454  -15.0474 N   0  0  0  0  0  0  0  0  0  0  0  0
   21.4816   -4.5218  -13.7360 C   0  0  0  0  0  0  0  0  0  0  0  0
   22.1112   -3.5715  -12.9802 O   0  0  0  0  0  0  0  0  0  0  0  0
   20.2272   -4.4986  -13.8256 O   0  0  0  0  0  0  0  0  0  0  0  0
  2  1  1  6
  3  2  1  0
  4  2  1  0
  4  5  1  6
  4  6  1  0
  6  7  2  0
  8  6  1  0
  8  9  1  0
  9 16  1  0
 10 11  1  0
  9 10  1  1
 11 15  1  0
 12 11  2  0
 12 13  1  0
 13 14  1  0
 15 14  2  0
 16 17  2  0
 19 18  1  6
 19 21  1  0
 20 19  1  0
 21 23  1  0
 22 16  1  0
 21 22  1  6
 23 25  2  0
 23 24  1  0
M  END
$$$$
