MGP.pdb
     RDKit          3D

 20 20  0  0  1  0  0  0  0  0999 V2000
   16.4018  -15.2475  -16.1008 C   0  0  0  0  0  0  0  0  0  0  0  0
   16.9781  -13.5359  -15.8862 S   0  0  0  0  0  0  0  0  0  0  0  0
   17.7124  -12.9595  -17.4345 C   0  0  0  0  0  0  0  0  0  0  0  0
   18.2938  -11.5872  -17.2963 C   0  0  0  0  0  0  0  0  0  0  0  0
   19.8028  -11.6275  -17.4778 C   0  0  2  0  0  0  0  0  0  0  0  0
   20.3422  -12.5589  -16.5354 N   0  0  0  0  0  0  0  0  0  0  0  0
   20.3582  -10.2562  -17.3091 C   0  0  0  0  0  0  0  0  0  0  0  0
   20.0129   -9.3244  -18.0791 O   0  0  0  0  0  0  0  0  0  0  0  0
   21.2889   -9.9311  -16.2917 N   0  0  0  0  0  0  0  0  0  0  0  0
   21.8984   -8.5850  -16.2210 C   0  0  0  0  0  0  0  0  0  0  0  0
   21.0359   -7.7265  -15.3955 C   0  0  0  0  0  0  0  0  0  0  0  0
   19.7617   -7.9692  -15.3751 O   0  0  0  0  0  0  0  0  0  0  0  0
   21.4881   -6.6464  -14.6192 N   0  0  0  0  0  0  0  0  0  0  0  0
   22.8926   -6.3747  -14.3923 C   0  0  0  0  0  0  0  0  0  0  0  0
   22.9576   -4.8865  -14.2723 C   0  0  0  0  0  0  0  0  0  0  0  0
   21.5474   -4.3883  -14.1830 C   0  0  0  0  0  0  0  0  0  0  0  0
   20.7427   -5.6785  -13.9181 C   0  0  1  0  0  0  0  0  0  0  0  0
   19.3441   -5.4500  -14.3706 C   0  0  0  0  0  0  0  0  0  0  0  0
   19.0189   -5.3979  -15.5856 O   0  0  0  0  0  0  0  0  0  0  0  0
   18.3515   -5.2860  -13.4243 O   0  0  0  0  0  0  0  0  0  0  0  0
  2  1  1  0
  3  2  1  0
  4  5  1  0
  4  3  1  0
  5  6  1  1
  7  8  2  0
  7  5  1  0
  9  7  1  0
 10  9  1  0
 10 11  1  0
 11 13  1  0
 12 11  2  0
 13 14  1  0
 13 17  1  0
 14 15  1  0
 15 16  1  0
 17 18  1  6
 17 16  1  0
 18 20  1  0
 19 18  2  0
M  END
$$$$
