MGP.pdb
     RDKit          3D

 20 20  0  0  1  0  0  0  0  0999 V2000
   32.8168  -22.2356   -8.4639 C   0  0  0  0  0  0  0  0  0  0  0  0
   32.2766  -21.7581  -10.1335 S   0  0  0  0  0  0  0  0  0  0  0  0
   30.5163  -21.3479  -10.0919 C   0  0  0  0  0  0  0  0  0  0  0  0
   30.0337  -20.8373  -11.4136 C   0  0  0  0  0  0  0  0  0  0  0  0
   28.5449  -20.5343  -11.3560 C   0  0  2  0  0  0  0  0  0  0  0  0
   27.8766  -21.6765  -10.8125 N   0  0  0  0  0  0  0  0  0  0  0  0
   28.0588  -20.1813  -12.7185 C   0  0  0  0  0  0  0  0  0  0  0  0
   28.6727  -19.3387  -13.4210 O   0  0  0  0  0  0  0  0  0  0  0  0
   26.8997  -20.7633  -13.2882 N   0  0  0  0  0  0  0  0  0  0  0  0
   26.0947  -21.7489  -12.5337 C   0  0  0  0  0  0  0  0  0  0  0  0
   24.6736  -21.5115  -12.8274 C   0  0  0  0  0  0  0  0  0  0  0  0
   24.3002  -21.4595  -14.0687 O   0  0  0  0  0  0  0  0  0  0  0  0
   23.6744  -21.3298  -11.8566 N   0  0  0  0  0  0  0  0  0  0  0  0
   23.9423  -21.3776  -10.4340 C   0  0  0  0  0  0  0  0  0  0  0  0
   22.9537  -20.4221   -9.8482 C   0  0  0  0  0  0  0  0  0  0  0  0
   21.9916  -20.0583  -10.9378 C   0  0  0  0  0  0  0  0  0  0  0  0
   22.2941  -21.1075  -12.0286 C   0  0  1  0  0  0  0  0  0  0  0  0
   21.8614  -20.5488  -13.3376 C   0  0  0  0  0  0  0  0  0  0  0  0
   22.6191  -19.8610  -14.0710 O   0  0  0  0  0  0  0  0  0  0  0  0
   20.5741  -20.7886  -13.7765 O   0  0  0  0  0  0  0  0  0  0  0  0
  2  1  1  0
  3  2  1  0
  4  5  1  0
  4  3  1  0
  5  6  1  6
  7  8  2  0
  7  5  1  0
  9  7  1  0
 10  9  1  0
 10 11  1  0
 11 13  1  0
 12 11  2  0
 13 14  1  0
 13 17  1  0
 14 15  1  0
 15 16  1  0
 17 18  1  6
 17 16  1  0
 18 20  1  0
 19 18  2  0
M  END
$$$$
