MGP.pdb
     RDKit          3D

 20 20  0  0  1  0  0  0  0  0999 V2000
   10.1782  -12.7885  -12.1515 C   0  0  0  0  0  0  0  0  0  0  0  0
   11.8690  -13.4241  -11.9401 S   0  0  0  0  0  0  0  0  0  0  0  0
   13.0347  -12.2718  -12.7029 C   0  0  0  0  0  0  0  0  0  0  0  0
   14.4304  -12.8126  -12.7030 C   0  0  0  0  0  0  0  0  0  0  0  0
   15.3611  -11.8846  -13.4673 C   0  0  2  0  0  0  0  0  0  0  0  0
   16.2935  -12.6875  -14.1970 N   0  0  0  0  0  0  0  0  0  0  0  0
   16.0287  -10.9572  -12.5126 C   0  0  0  0  0  0  0  0  0  0  0  0
   17.1647  -11.2250  -12.0455 O   0  0  0  0  0  0  0  0  0  0  0  0
   15.4328   -9.7452  -12.0850 N   0  0  0  0  0  0  0  0  0  0  0  0
   16.0559   -8.9250  -11.0232 C   0  0  0  0  0  0  0  0  0  0  0  0
   15.2727   -7.6900  -10.8693 C   0  0  0  0  0  0  0  0  0  0  0  0
   15.0442   -6.9688  -11.9231 O   0  0  0  0  0  0  0  0  0  0  0  0
   14.7482   -7.2203   -9.6536 N   0  0  0  0  0  0  0  0  0  0  0  0
   14.6688   -8.0403   -8.4623 C   0  0  0  0  0  0  0  0  0  0  0  0
   14.8400   -7.0665   -7.3417 C   0  0  0  0  0  0  0  0  0  0  0  0
   14.7565   -5.6925   -7.9335 C   0  0  0  0  0  0  0  0  0  0  0  0
   14.1984   -5.9601   -9.3474 C   0  0  1  0  0  0  0  0  0  0  0  0
   14.5947   -4.8237  -10.2217 C   0  0  0  0  0  0  0  0  0  0  0  0
   13.7747   -3.9644  -10.6390 O   0  0  0  0  0  0  0  0  0  0  0  0
   15.9173   -4.6969  -10.5985 O   0  0  0  0  0  0  0  0  0  0  0  0
  2  1  1  0
  3  2  1  0
  4  5  1  0
  4  3  1  0
  5  6  1  1
  7  8  2  0
  7  5  1  0
  9  7  1  0
 10  9  1  0
 10 11  1  0
 11 13  1  0
 12 11  2  0
 13 14  1  0
 13 17  1  0
 14 15  1  0
 15 16  1  0
 17 18  1  6
 17 16  1  0
 18 20  1  0
 19 18  2  0
M  END
$$$$
