MGP.pdb
     RDKit          3D

 20 20  0  0  1  0  0  0  0  0999 V2000
   21.9794  -19.5925  -11.0933 C   0  0  0  0  0  0  0  0  0  0  0  0
   22.0518  -21.3093  -11.6889 S   0  0  0  0  0  0  0  0  0  0  0  0
   23.7751  -21.7539  -12.0070 C   0  0  0  0  0  0  0  0  0  0  0  0
   24.6738  -20.5575  -11.9661 C   0  0  0  0  0  0  0  0  0  0  0  0
   26.1240  -20.9744  -12.1521 C   0  0  2  0  0  0  0  0  0  0  0  0
   26.1779  -22.4036  -12.1870 N   0  0  0  0  0  0  0  0  0  0  0  0
   26.9494  -20.3971  -11.0554 C   0  0  0  0  0  0  0  0  0  0  0  0
   26.8738  -19.1752  -10.7699 O   0  0  0  0  0  0  0  0  0  0  0  0
   27.8488  -21.1771  -10.2875 N   0  0  0  0  0  0  0  0  0  0  0  0
   28.6636  -20.5632   -9.2162 C   0  0  0  0  0  0  0  0  0  0  0  0
   27.9092  -20.6393   -7.9563 C   0  0  0  0  0  0  0  0  0  0  0  0
   26.6399  -20.9010   -8.0119 O   0  0  0  0  0  0  0  0  0  0  0  0
   28.4610  -20.4442   -6.6791 N   0  0  0  0  0  0  0  0  0  0  0  0
   29.8883  -20.3872   -6.4395 C   0  0  0  0  0  0  0  0  0  0  0  0
   30.0236  -19.4451   -5.2873 C   0  0  0  0  0  0  0  0  0  0  0  0
   28.6454  -19.1994   -4.7532 C   0  0  0  0  0  0  0  0  0  0  0  0
   27.8092  -20.3007   -5.4386 C   0  0  1  0  0  0  0  0  0  0  0  0
   26.3922  -19.8493   -5.4724 C   0  0  0  0  0  0  0  0  0  0  0  0
   25.4973  -20.3520   -4.7434 O   0  0  0  0  0  0  0  0  0  0  0  0
   26.0318  -18.8354   -6.3382 O   0  0  0  0  0  0  0  0  0  0  0  0
  2  1  1  0
  3  2  1  0
  4  5  1  0
  4  3  1  0
  5  6  1  1
  7  8  2  0
  7  5  1  0
  9  7  1  0
 10  9  1  0
 10 11  1  0
 11 13  1  0
 12 11  2  0
 13 14  1  0
 13 17  1  0
 14 15  1  0
 15 16  1  0
 17 18  1  6
 17 16  1  0
 18 20  1  0
 19 18  2  0
M  END
$$$$
