MGP.pdb
     RDKit          3D

 20 20  0  0  1  0  0  0  0  0999 V2000
   12.3578  -12.2397  -15.4475 C   0  0  0  0  0  0  0  0  0  0  0  0
   13.7602  -13.2281  -16.0507 S   0  0  0  0  0  0  0  0  0  0  0  0
   15.2587  -12.2176  -16.0086 C   0  0  0  0  0  0  0  0  0  0  0  0
   15.6458  -11.8565  -14.6085 C   0  0  0  0  0  0  0  0  0  0  0  0
   16.9404  -11.0591  -14.6028 C   0  0  2  0  0  0  0  0  0  0  0  0
   17.9964  -11.9173  -15.0442 N   0  0  0  0  0  0  0  0  0  0  0  0
   17.1791  -10.5131  -13.2382 C   0  0  0  0  0  0  0  0  0  0  0  0
   18.2995  -10.6408  -12.6824 O   0  0  0  0  0  0  0  0  0  0  0  0
   16.1767   -9.8327  -12.5039 N   0  0  0  0  0  0  0  0  0  0  0  0
   16.4625   -9.2758  -11.1635 C   0  0  0  0  0  0  0  0  0  0  0  0
   15.9583   -7.8953  -11.1159 C   0  0  0  0  0  0  0  0  0  0  0  0
   16.1042   -7.1485  -12.1665 O   0  0  0  0  0  0  0  0  0  0  0  0
   15.3255   -7.3114  -10.0058 N   0  0  0  0  0  0  0  0  0  0  0  0
   14.8168   -8.0864   -8.8929 C   0  0  0  0  0  0  0  0  0  0  0  0
   14.9835   -7.1805   -7.7161 C   0  0  0  0  0  0  0  0  0  0  0  0
   15.3472   -5.8277   -8.2477 C   0  0  0  0  0  0  0  0  0  0  0  0
   15.0382   -5.9555   -9.7545 C   0  0  1  0  0  0  0  0  0  0  0  0
   15.8589   -4.9490  -10.4800 C   0  0  0  0  0  0  0  0  0  0  0  0
   17.1174   -4.9779  -10.4973 O   0  0  0  0  0  0  0  0  0  0  0  0
   15.2224   -3.9340  -11.1670 O   0  0  0  0  0  0  0  0  0  0  0  0
  2  1  1  0
  3  2  1  0
  4  5  1  0
  4  3  1  0
  5  6  1  1
  7  8  2  0
  7  5  1  0
  9  7  1  0
 10  9  1  0
 10 11  1  0
 11 13  1  0
 12 11  2  0
 13 14  1  0
 13 17  1  0
 14 15  1  0
 15 16  1  0
 17 18  1  6
 17 16  1  0
 18 20  1  0
 19 18  2  0
M  END
$$$$
