MGP.pdb
     RDKit          3D

 20 20  0  0  1  0  0  0  0  0999 V2000
   27.4569  -19.1032  -15.3846 C   0  0  0  0  0  0  0  0  0  0  0  0
   25.6664  -19.2560  -15.1049 S   0  0  0  0  0  0  0  0  0  0  0  0
   25.3789  -20.3342  -13.6825 C   0  0  0  0  0  0  0  0  0  0  0  0
   26.2137  -19.9356  -12.5058 C   0  0  0  0  0  0  0  0  0  0  0  0
   25.9179  -20.8328  -11.3145 C   0  0  2  0  0  0  0  0  0  0  0  0
   24.5007  -20.8683  -11.1222 N   0  0  0  0  0  0  0  0  0  0  0  0
   26.6451  -20.3238  -10.1191 C   0  0  0  0  0  0  0  0  0  0  0  0
   26.1955  -19.3529   -9.4591 O   0  0  0  0  0  0  0  0  0  0  0  0
   27.8609  -20.8936   -9.6673 N   0  0  0  0  0  0  0  0  0  0  0  0
   28.6756  -20.2230   -8.6304 C   0  0  0  0  0  0  0  0  0  0  0  0
   28.1170  -20.5567   -7.3118 C   0  0  0  0  0  0  0  0  0  0  0  0
   26.9214  -21.0571   -7.2567 O   0  0  0  0  0  0  0  0  0  0  0  0
   28.7832  -20.3702   -6.0890 N   0  0  0  0  0  0  0  0  0  0  0  0
   30.2082  -20.1272   -5.9990 C   0  0  0  0  0  0  0  0  0  0  0  0
   30.3501  -19.2538   -4.7947 C   0  0  0  0  0  0  0  0  0  0  0  0
   29.0234  -19.2421   -4.0984 C   0  0  0  0  0  0  0  0  0  0  0  0
   28.2675  -20.4032   -4.7786 C   0  0  1  0  0  0  0  0  0  0  0  0
   26.8087  -20.1563   -4.6242 C   0  0  0  0  0  0  0  0  0  0  0  0
   26.1603  -19.3935   -5.3874 O   0  0  0  0  0  0  0  0  0  0  0  0
   26.1266  -20.7858   -3.6015 O   0  0  0  0  0  0  0  0  0  0  0  0
  2  1  1  0
  3  2  1  0
  4  5  1  0
  4  3  1  0
  5  6  1  1
  7  8  2  0
  7  5  1  0
  9  7  1  0
 10  9  1  0
 10 11  1  0
 11 13  1  0
 12 11  2  0
 13 14  1  0
 13 17  1  0
 14 15  1  0
 15 16  1  0
 17 18  1  6
 17 16  1  0
 18 20  1  0
 19 18  2  0
M  END
$$$$
