MGP.pdb
     RDKit          3D

 20 20  0  0  1  0  0  0  0  0999 V2000
   22.1788  -19.7725  -14.4302 C   0  0  0  0  0  0  0  0  0  0  0  0
   22.9096  -19.8570  -16.0935 S   0  0  0  0  0  0  0  0  0  0  0  0
   24.5697  -20.5629  -15.9760 C   0  0  0  0  0  0  0  0  0  0  0  0
   25.3048  -20.0564  -14.7745 C   0  0  0  0  0  0  0  0  0  0  0  0
   26.6985  -20.6606  -14.7090 C   0  0  2  0  0  0  0  0  0  0  0  0
   26.5712  -22.0848  -14.7527 N   0  0  0  0  0  0  0  0  0  0  0  0
   27.3866  -20.1850  -13.4771 C   0  0  0  0  0  0  0  0  0  0  0  0
   27.4861  -18.9562  -13.2310 O   0  0  0  0  0  0  0  0  0  0  0  0
   27.9568  -21.0730  -12.5320 N   0  0  0  0  0  0  0  0  0  0  0  0
   28.4854  -20.5746  -11.2433 C   0  0  0  0  0  0  0  0  0  0  0  0
   27.4897  -20.8460  -10.1958 C   0  0  0  0  0  0  0  0  0  0  0  0
   26.2716  -21.1097  -10.5556 O   0  0  0  0  0  0  0  0  0  0  0  0
   27.7558  -20.8384   -8.8163 N   0  0  0  0  0  0  0  0  0  0  0  0
   29.0990  -20.8507   -8.2745 C   0  0  0  0  0  0  0  0  0  0  0  0
   28.9821  -20.0756   -7.0022 C   0  0  0  0  0  0  0  0  0  0  0  0
   27.5209  -19.8686   -6.7434 C   0  0  0  0  0  0  0  0  0  0  0  0
   26.8540  -20.8461   -7.7343 C   0  0  1  0  0  0  0  0  0  0  0  0
   25.4751  -20.3580   -8.0053 C   0  0  0  0  0  0  0  0  0  0  0  0
   25.2356  -19.3465   -8.7156 O   0  0  0  0  0  0  0  0  0  0  0  0
   24.4039  -21.0364   -7.4580 O   0  0  0  0  0  0  0  0  0  0  0  0
  2  1  1  0
  3  2  1  0
  4  5  1  0
  4  3  1  0
  5  6  1  1
  7  8  2  0
  7  5  1  0
  9  7  1  0
 10  9  1  0
 10 11  1  0
 11 13  1  0
 12 11  2  0
 13 14  1  0
 13 17  1  0
 14 15  1  0
 15 16  1  0
 17 18  1  6
 17 16  1  0
 18 20  1  0
 19 18  2  0
M  END
$$$$
