MGP.pdb
     RDKit          3D

 20 20  0  0  1  0  0  0  0  0999 V2000
   28.5976  -20.2064   -3.5414 C   0  0  0  0  0  0  0  0  0  0  0  0
   27.4369  -20.4765   -4.9153 S   0  0  0  0  0  0  0  0  0  0  0  0
   27.8029  -19.3015   -6.2396 C   0  0  0  0  0  0  0  0  0  0  0  0
   27.9208  -19.9811   -7.5681 C   0  0  0  0  0  0  0  0  0  0  0  0
   26.5643  -20.0547   -8.2509 C   0  0  2  0  0  0  0  0  0  0  0  0
   25.7595  -21.0045   -7.5462 N   0  0  0  0  0  0  0  0  0  0  0  0
   26.7505  -20.4136   -9.6839 C   0  0  0  0  0  0  0  0  0  0  0  0
   27.4793  -19.7136  -10.4318 O   0  0  0  0  0  0  0  0  0  0  0  0
   26.1289  -21.5418  -10.2736 N   0  0  0  0  0  0  0  0  0  0  0  0
   26.3390  -21.8655  -11.7018 C   0  0  0  0  0  0  0  0  0  0  0  0
   25.6311  -20.8654  -12.5147 C   0  0  0  0  0  0  0  0  0  0  0  0
   24.3514  -20.7305  -12.3506 O   0  0  0  0  0  0  0  0  0  0  0  0
   26.2386  -20.0353  -13.4715 N   0  0  0  0  0  0  0  0  0  0  0  0
   27.6583  -19.7486  -13.4759 C   0  0  0  0  0  0  0  0  0  0  0  0
   27.9867  -19.5732  -14.9232 C   0  0  0  0  0  0  0  0  0  0  0  0
   26.6875  -19.5168  -15.6675 C   0  0  0  0  0  0  0  0  0  0  0  0
   25.6521  -19.3273  -14.5387 C   0  0  1  0  0  0  0  0  0  0  0  0
   24.3382  -19.8212  -15.0312 C   0  0  0  0  0  0  0  0  0  0  0  0
   23.3597  -19.0594  -15.2485 O   0  0  0  0  0  0  0  0  0  0  0  0
   24.1738  -21.1728  -15.2627 O   0  0  0  0  0  0  0  0  0  0  0  0
  2  1  1  0
  3  2  1  0
  4  5  1  0
  4  3  1  0
  5  6  1  1
  7  8  2  0
  7  5  1  0
  9  7  1  0
 10  9  1  0
 10 11  1  0
 11 13  1  0
 12 11  2  0
 13 14  1  0
 13 17  1  0
 14 15  1  0
 15 16  1  0
 17 18  1  6
 17 16  1  0
 18 20  1  0
 19 18  2  0
M  END
$$$$
