MGP.pdb
     RDKit          3D

 20 20  0  0  1  0  0  0  0  0999 V2000
   22.5990  -18.7711  -13.9247 C   0  0  0  0  0  0  0  0  0  0  0  0
   23.5118  -19.9689  -14.9443 S   0  0  0  0  0  0  0  0  0  0  0  0
   24.9163  -20.6028  -13.9989 C   0  0  0  0  0  0  0  0  0  0  0  0
   24.9417  -20.0539  -12.6066 C   0  0  0  0  0  0  0  0  0  0  0  0
   25.6976  -20.9912  -11.6784 C   0  0  2  0  0  0  0  0  0  0  0  0
   25.0584  -22.2704  -11.7166 N   0  0  0  0  0  0  0  0  0  0  0  0
   25.7320  -20.4092  -10.3082 C   0  0  0  0  0  0  0  0  0  0  0  0
   24.7669  -20.5686   -9.5185 O   0  0  0  0  0  0  0  0  0  0  0  0
   26.8323  -19.6577   -9.8272 N   0  0  0  0  0  0  0  0  0  0  0  0
   26.8249  -19.0880   -8.4619 C   0  0  0  0  0  0  0  0  0  0  0  0
   27.3709  -20.0913   -7.5360 C   0  0  0  0  0  0  0  0  0  0  0  0
   27.0429  -21.3343   -7.7094 O   0  0  0  0  0  0  0  0  0  0  0  0
   28.2288  -19.8061   -6.4606 N   0  0  0  0  0  0  0  0  0  0  0  0
   29.3296  -18.8700   -6.5598 C   0  0  0  0  0  0  0  0  0  0  0  0
   29.4323  -18.2868   -5.1877 C   0  0  0  0  0  0  0  0  0  0  0  0
   28.5475  -19.1013   -4.2940 C   0  0  0  0  0  0  0  0  0  0  0  0
   28.2336  -20.3413   -5.1577 C   0  0  1  0  0  0  0  0  0  0  0  0
   26.9587  -20.9321   -4.6693 C   0  0  0  0  0  0  0  0  0  0  0  0
   25.8304  -20.4485   -4.9485 O   0  0  0  0  0  0  0  0  0  0  0  0
   27.0038  -22.0600   -3.8735 O   0  0  0  0  0  0  0  0  0  0  0  0
  2  1  1  0
  3  2  1  0
  4  5  1  0
  4  3  1  0
  5  6  1  1
  7  8  2  0
  7  5  1  0
  9  7  1  0
 10  9  1  0
 10 11  1  0
 11 13  1  0
 12 11  2  0
 13 14  1  0
 13 17  1  0
 14 15  1  0
 15 16  1  0
 17 18  1  1
 17 16  1  0
 18 20  1  0
 19 18  2  0
M  END
$$$$
