KKR.pdb
     RDKit          3D

 30 29  0  0  1  0  0  0  0  0999 V2000
    8.2670  -12.5787   17.7578 N   0  0  0  0  0  0  0  0  0  0  0  0
    7.8665  -13.7388   18.4790 C   0  0  1  0  0  0  0  0  0  0  0  0
    7.8478  -14.9093   17.5197 C   0  0  0  0  0  0  0  0  0  0  0  0
    9.0814  -14.7446   16.6391 C   0  0  0  0  0  0  0  0  0  0  0  0
    9.1699  -15.7684   15.5498 C   0  0  0  0  0  0  0  0  0  0  0  0
   10.3075  -15.4741   14.6114 C   0  0  0  0  0  0  0  0  0  0  0  0
   10.2620  -16.4165   13.5048 N   0  0  0  0  0  0  0  0  0  0  0  0
    8.8180  -13.9793   19.6033 C   0  0  0  0  0  0  0  0  0  0  0  0
   10.0513  -13.7732   19.4619 O   0  0  0  0  0  0  0  0  0  0  0  0
    8.3331  -14.4400   20.8320 N   0  0  0  0  0  0  0  0  0  0  0  0
    9.0729  -14.8253   22.0033 C   0  0  1  0  0  0  0  0  0  0  0  0
    8.2380  -15.1624   23.2222 C   0  0  0  0  0  0  0  0  0  0  0  0
    9.0769  -15.7058   24.3499 C   0  0  0  0  0  0  0  0  0  0  0  0
    8.2392  -16.2822   25.4608 C   0  0  0  0  0  0  0  0  0  0  0  0
    9.0534  -16.9162   26.5386 C   0  0  0  0  0  0  0  0  0  0  0  0
    8.1608  -17.5711   27.5028 N   0  0  0  0  0  0  0  0  0  0  0  0
   10.1753  -15.7406   21.7409 C   0  0  0  0  0  0  0  0  0  0  0  0
   10.0145  -16.8082   21.0583 O   0  0  0  0  0  0  0  0  0  0  0  0
   15.0980  -15.2558   15.5865 N   0  0  0  0  0  0  0  0  0  0  0  0
   15.7792  -14.5586   16.6047 C   0  0  0  0  0  0  0  0  0  0  0  0
   16.4285  -13.4943   16.2944 N   0  0  0  0  0  0  0  0  0  0  0  0
   15.7278  -15.0542   17.9434 N   0  0  0  0  0  0  0  0  0  0  0  0
   14.6144  -14.5997   18.7470 C   0  0  0  0  0  0  0  0  0  0  0  0
   14.5884  -15.2813   20.1162 C   0  0  0  0  0  0  0  0  0  0  0  0
   13.3523  -14.8184   20.8307 C   0  0  0  0  0  0  0  0  0  0  0  0
   12.6878  -15.9524   21.5289 C   0  0  2  0  0  0  0  0  0  0  0  0
   11.4710  -15.5096   22.2168 N   0  0  0  0  0  0  0  0  0  0  0  0
   13.5690  -16.5021   22.5802 C   0  0  0  0  0  0  0  0  0  0  0  0
   13.4701  -16.2338   23.8050 O   0  0  0  0  0  0  0  0  0  0  0  0
   14.6187  -17.3984   22.2640 O   0  0  0  0  0  0  0  0  0  0  0  0
  2  1  1  6
  2  3  1  0
  3  4  1  0
  4  5  1  0
  5  6  1  0
  6  7  1  0
  8  9  2  0
  8  2  1  0
 10  8  1  0
 11 10  1  0
 11 17  1  0
 11 12  1  1
 13 14  1  0
 13 12  1  0
 15 16  1  0
 15 14  1  0
 17 18  2  0
 19 20  1  0
 20 21  2  0
 20 22  1  0
 22 23  1  0
 24 23  1  0
 24 25  1  0
 26 25  1  1
 27 17  1  0
 27 26  1  0
 28 30  1  0
 28 26  1  0
 29 28  2  0
M  END
$$$$
