KKR.pdb
     RDKit          3D

 30 29  0  0  1  0  0  0  0  0999 V2000
    5.9436  -14.2009   19.7390 N   0  0  0  0  0  0  0  0  0  0  0  0
    7.2674  -14.4976   19.3078 C   0  0  1  0  0  0  0  0  0  0  0  0
    8.0462  -13.2013   19.2450 C   0  0  0  0  0  0  0  0  0  0  0  0
    7.8081  -12.6408   17.8474 C   0  0  0  0  0  0  0  0  0  0  0  0
    8.3565  -13.5128   16.7605 C   0  0  0  0  0  0  0  0  0  0  0  0
    8.1384  -12.9014   15.4040 C   0  0  0  0  0  0  0  0  0  0  0  0
    8.6075  -13.8292   14.3874 N   0  0  0  0  0  0  0  0  0  0  0  0
    7.8975  -15.4587   20.2599 C   0  0  0  0  0  0  0  0  0  0  0  0
    7.4937  -15.5502   21.4482 O   0  0  0  0  0  0  0  0  0  0  0  0
    8.9515  -16.2697   19.8263 N   0  0  0  0  0  0  0  0  0  0  0  0
    9.6934  -17.2533   20.5681 C   0  0  1  0  0  0  0  0  0  0  0  0
   10.4300  -18.2822   19.7343 C   0  0  0  0  0  0  0  0  0  0  0  0
   11.1445  -19.2967   20.5893 C   0  0  0  0  0  0  0  0  0  0  0  0
   11.8130  -20.3682   19.7688 C   0  0  0  0  0  0  0  0  0  0  0  0
   12.4399  -21.4363   20.6011 C   0  0  0  0  0  0  0  0  0  0  0  0
   13.8915  -21.2239   20.6545 N   0  0  0  0  0  0  0  0  0  0  0  0
   10.4516  -16.7122   21.6879 C   0  0  0  0  0  0  0  0  0  0  0  0
   11.5840  -16.1450   21.5212 O   0  0  0  0  0  0  0  0  0  0  0  0
   10.7562  -16.8351   29.6142 N   0  0  0  0  0  0  0  0  0  0  0  0
   10.6800  -15.4372   29.7789 C   0  0  0  0  0  0  0  0  0  0  0  0
   11.2065  -14.9106   30.8258 N   0  0  0  0  0  0  0  0  0  0  0  0
   10.0227  -14.6528   28.7824 N   0  0  0  0  0  0  0  0  0  0  0  0
    9.4786  -15.3809   27.6573 C   0  0  0  0  0  0  0  0  0  0  0  0
   10.4820  -15.4780   26.5067 C   0  0  0  0  0  0  0  0  0  0  0  0
    9.7625  -16.0589   25.3244 C   0  0  0  0  0  0  0  0  0  0  0  0
   10.6656  -16.1452   24.1445 C   0  0  2  0  0  0  0  0  0  0  0  0
    9.9908  -16.7792   23.0076 N   0  0  0  0  0  0  0  0  0  0  0  0
   11.8343  -16.9975   24.4471 C   0  0  0  0  0  0  0  0  0  0  0  0
   11.8383  -18.2531   24.3748 O   0  0  0  0  0  0  0  0  0  0  0  0
   13.0687  -16.4342   24.8524 O   0  0  0  0  0  0  0  0  0  0  0  0
  2  1  1  1
  2  3  1  0
  3  4  1  0
  4  5  1  0
  5  6  1  0
  6  7  1  0
  8  9  2  0
  8  2  1  0
 10  8  1  0
 11 10  1  0
 11 17  1  0
 11 12  1  6
 13 14  1  0
 13 12  1  0
 15 16  1  0
 15 14  1  0
 17 18  2  0
 19 20  1  0
 20 21  2  0
 20 22  1  0
 22 23  1  0
 24 23  1  0
 24 25  1  0
 26 25  1  1
 27 17  1  0
 27 26  1  0
 28 30  1  0
 28 26  1  0
 29 28  2  0
M  END
$$$$
