KKR.pdb
     RDKit          3D

 30 29  0  0  1  0  0  0  0  0999 V2000
   10.1021  -13.4653   18.0340 N   0  0  0  0  0  0  0  0  0  0  0  0
    8.8740  -13.2858   18.7309 C   0  0  1  0  0  0  0  0  0  0  0  0
    7.7854  -13.0256   17.7121 C   0  0  0  0  0  0  0  0  0  0  0  0
    8.0162  -14.0326   16.5910 C   0  0  0  0  0  0  0  0  0  0  0  0
    7.0868  -13.8482   15.4314 C   0  0  0  0  0  0  0  0  0  0  0  0
    7.4291  -14.7784   14.3005 C   0  0  0  0  0  0  0  0  0  0  0  0
    6.9992  -14.1770   13.0483 N   0  0  0  0  0  0  0  0  0  0  0  0
    8.5763  -14.5058   19.5373 C   0  0  0  0  0  0  0  0  0  0  0  0
    7.5135  -14.5961   20.2050 O   0  0  0  0  0  0  0  0  0  0  0  0
    9.4907  -15.5644   19.5516 N   0  0  0  0  0  0  0  0  0  0  0  0
    9.4754  -16.7551   20.3578 C   0  0  1  0  0  0  0  0  0  0  0  0
    9.4109  -18.0616   19.5928 C   0  0  0  0  0  0  0  0  0  0  0  0
   10.7762  -18.5343   19.1645 C   0  0  0  0  0  0  0  0  0  0  0  0
   10.7124  -19.7816   18.3227 C   0  0  0  0  0  0  0  0  0  0  0  0
   12.0593  -20.3160   17.9665 C   0  0  0  0  0  0  0  0  0  0  0  0
   11.9046  -21.4800   17.0854 N   0  0  0  0  0  0  0  0  0  0  0  0
   10.4183  -16.7384   21.4680 C   0  0  0  0  0  0  0  0  0  0  0  0
   11.6797  -16.6737   21.2776 O   0  0  0  0  0  0  0  0  0  0  0  0
   10.2269  -15.4904   30.6789 N   0  0  0  0  0  0  0  0  0  0  0  0
   10.1370  -14.6803   29.5288 C   0  0  0  0  0  0  0  0  0  0  0  0
    9.4311  -13.6082   29.5842 N   0  0  0  0  0  0  0  0  0  0  0  0
   10.8290  -15.0741   28.3430 N   0  0  0  0  0  0  0  0  0  0  0  0
   10.2882  -16.2177   27.6416 C   0  0  0  0  0  0  0  0  0  0  0  0
   11.1063  -16.5560   26.3941 C   0  0  0  0  0  0  0  0  0  0  0  0
   10.1944  -16.4392   25.2076 C   0  0  0  0  0  0  0  0  0  0  0  0
   10.9210  -16.7556   23.9478 C   0  0  2  0  0  0  0  0  0  0  0  0
   10.0045  -16.7921   22.8039 N   0  0  0  0  0  0  0  0  0  0  0  0
   11.5275  -18.1011   24.0227 C   0  0  0  0  0  0  0  0  0  0  0  0
   10.9010  -19.1763   23.8402 O   0  0  0  0  0  0  0  0  0  0  0  0
   12.9025  -18.2716   24.3153 O   0  0  0  0  0  0  0  0  0  0  0  0
  2  1  1  6
  2  3  1  0
  3  4  1  0
  4  5  1  0
  5  6  1  0
  6  7  1  0
  8  9  2  0
  8  2  1  0
 10  8  1  0
 11 10  1  0
 11 17  1  0
 11 12  1  6
 13 14  1  0
 13 12  1  0
 15 16  1  0
 15 14  1  0
 17 18  2  0
 19 20  1  0
 20 21  2  0
 20 22  1  0
 22 23  1  0
 24 23  1  0
 24 25  1  0
 26 25  1  1
 27 17  1  0
 27 26  1  0
 28 30  1  0
 28 26  1  0
 29 28  2  0
M  END
$$$$
