KKR.pdb
     RDKit          3D

 30 29  0  0  1  0  0  0  0  0999 V2000
    7.5938  -17.0938   17.0401 N   0  0  0  0  0  0  0  0  0  0  0  0
    8.5780  -16.7318   18.0028 C   0  0  1  0  0  0  0  0  0  0  0  0
    8.0850  -15.5096   18.7469 C   0  0  0  0  0  0  0  0  0  0  0  0
    8.7665  -14.3172   18.0852 C   0  0  0  0  0  0  0  0  0  0  0  0
    8.4719  -13.0164   18.7661 C   0  0  0  0  0  0  0  0  0  0  0  0
    9.0910  -11.8598   18.0310 C   0  0  0  0  0  0  0  0  0  0  0  0
    8.6732  -10.6197   18.6652 N   0  0  0  0  0  0  0  0  0  0  0  0
    8.8061  -17.8744   18.9354 C   0  0  0  0  0  0  0  0  0  0  0  0
    7.8465  -18.5820   19.3378 O   0  0  0  0  0  0  0  0  0  0  0  0
   10.1043  -18.1638   19.3687 N   0  0  0  0  0  0  0  0  0  0  0  0
   10.5231  -18.8286   20.5731 C   0  0  1  0  0  0  0  0  0  0  0  0
   11.5353  -19.9410   20.3874 C   0  0  0  0  0  0  0  0  0  0  0  0
   11.8605  -20.6324   21.6863 C   0  0  0  0  0  0  0  0  0  0  0  0
   12.8190  -21.7792   21.5004 C   0  0  0  0  0  0  0  0  0  0  0  0
   13.0133  -22.5858   22.7406 C   0  0  0  0  0  0  0  0  0  0  0  0
   14.0693  -23.5802   22.5151 N   0  0  0  0  0  0  0  0  0  0  0  0
   10.7925  -17.9321   21.6891 C   0  0  0  0  0  0  0  0  0  0  0  0
   11.9257  -17.3604   21.8335 O   0  0  0  0  0  0  0  0  0  0  0  0
    5.0753  -13.3939   26.4864 N   0  0  0  0  0  0  0  0  0  0  0  0
    6.2909  -12.7310   26.7509 C   0  0  0  0  0  0  0  0  0  0  0  0
    6.2515  -11.5451   27.2435 N   0  0  0  0  0  0  0  0  0  0  0  0
    7.5231  -13.3942   26.4642 N   0  0  0  0  0  0  0  0  0  0  0  0
    7.4563  -14.4702   25.4999 C   0  0  0  0  0  0  0  0  0  0  0  0
    8.8304  -15.0955   25.2527 C   0  0  0  0  0  0  0  0  0  0  0  0
    8.6649  -16.1550   24.2025 C   0  0  0  0  0  0  0  0  0  0  0  0
    9.9875  -16.5948   23.6805 C   0  0  2  0  0  0  0  0  0  0  0  0
    9.8337  -17.6427   22.6666 N   0  0  0  0  0  0  0  0  0  0  0  0
   10.7984  -17.1938   24.7610 C   0  0  0  0  0  0  0  0  0  0  0  0
   10.6852  -18.3802   25.1628 O   0  0  0  0  0  0  0  0  0  0  0  0
   11.7905  -16.4428   25.4371 O   0  0  0  0  0  0  0  0  0  0  0  0
  2  1  1  6
  2  3  1  0
  3  4  1  0
  4  5  1  0
  5  6  1  0
  6  7  1  0
  8  9  2  0
  8  2  1  0
 10  8  1  0
 11 10  1  0
 11 17  1  0
 11 12  1  6
 13 14  1  0
 13 12  1  0
 15 16  1  0
 15 14  1  0
 17 18  2  0
 19 20  1  0
 20 21  2  0
 20 22  1  0
 22 23  1  0
 24 23  1  0
 24 25  1  0
 26 25  1  1
 27 17  1  0
 27 26  1  0
 28 30  1  0
 28 26  1  0
 29 28  2  0
M  END
$$$$
