KKR.pdb
     RDKit          3D

 30 29  0  0  1  0  0  0  0  0999 V2000
    8.3544  -12.5839   18.4583 N   0  0  0  0  0  0  0  0  0  0  0  0
    7.7837  -13.7004   19.1323 C   0  0  1  0  0  0  0  0  0  0  0  0
    8.1697  -14.9553   18.3794 C   0  0  0  0  0  0  0  0  0  0  0  0
    7.8593  -14.6727   16.9138 C   0  0  0  0  0  0  0  0  0  0  0  0
    7.9920  -15.8808   16.0388 C   0  0  0  0  0  0  0  0  0  0  0  0
    7.6126  -15.5726   14.6167 C   0  0  0  0  0  0  0  0  0  0  0  0
    7.7329  -16.7850   13.8230 N   0  0  0  0  0  0  0  0  0  0  0  0
    8.2823  -13.7412   20.5383 C   0  0  0  0  0  0  0  0  0  0  0  0
    9.5142  -13.8095   20.7858 O   0  0  0  0  0  0  0  0  0  0  0  0
    7.3683  -13.7028   21.5966 N   0  0  0  0  0  0  0  0  0  0  0  0
    7.6247  -13.7797   23.0095 C   0  0  1  0  0  0  0  0  0  0  0  0
    6.5567  -13.1792   23.9013 C   0  0  0  0  0  0  0  0  0  0  0  0
    6.9272  -13.2587   25.3598 C   0  0  0  0  0  0  0  0  0  0  0  0
    5.8835  -12.6377   26.2505 C   0  0  0  0  0  0  0  0  0  0  0  0
    6.2464  -12.6847   27.6971 C   0  0  0  0  0  0  0  0  0  0  0  0
    5.1862  -12.0464   28.4868 N   0  0  0  0  0  0  0  0  0  0  0  0
    8.1458  -15.0652   23.4543 C   0  0  0  0  0  0  0  0  0  0  0  0
    7.4566  -16.1370   23.3651 O   0  0  0  0  0  0  0  0  0  0  0  0
   13.3760  -19.7204   22.1539 N   0  0  0  0  0  0  0  0  0  0  0  0
   14.1446  -19.9796   23.3068 C   0  0  0  0  0  0  0  0  0  0  0  0
   14.6730  -21.1423   23.4464 N   0  0  0  0  0  0  0  0  0  0  0  0
   14.3113  -18.9473   24.2799 N   0  0  0  0  0  0  0  0  0  0  0  0
   13.6190  -17.7054   24.0139 C   0  0  0  0  0  0  0  0  0  0  0  0
   12.1286  -17.8059   24.3434 C   0  0  0  0  0  0  0  0  0  0  0  0
   11.5063  -16.4735   24.0428 C   0  0  0  0  0  0  0  0  0  0  0  0
   10.0440  -16.4973   24.3193 C   0  0  2  0  0  0  0  0  0  0  0  0
    9.4253  -15.2060   24.0035 N   0  0  0  0  0  0  0  0  0  0  0  0
    9.7917  -16.7252   25.7574 C   0  0  0  0  0  0  0  0  0  0  0  0
    9.4264  -15.8345   26.5667 O   0  0  0  0  0  0  0  0  0  0  0  0
    9.9510  -18.0076   26.3367 O   0  0  0  0  0  0  0  0  0  0  0  0
  2  1  1  6
  2  3  1  0
  3  4  1  0
  4  5  1  0
  5  6  1  0
  6  7  1  0
  8  9  2  0
  8  2  1  0
 10  8  1  0
 11 10  1  0
 11 17  1  0
 11 12  1  1
 13 14  1  0
 13 12  1  0
 15 16  1  0
 15 14  1  0
 17 18  2  0
 19 20  1  0
 20 21  2  0
 20 22  1  0
 22 23  1  0
 24 23  1  0
 24 25  1  0
 26 25  1  1
 27 17  1  0
 27 26  1  0
 28 30  1  0
 28 26  1  0
 29 28  2  0
M  END
$$$$
