KKR.pdb
     RDKit          3D

 30 29  0  0  1  0  0  0  0  0999 V2000
    9.8561  -21.1409   18.2705 N   0  0  0  0  0  0  0  0  0  0  0  0
    8.8079  -20.6269   19.0850 C   0  0  1  0  0  0  0  0  0  0  0  0
    8.3787  -21.7147   20.0459 C   0  0  0  0  0  0  0  0  0  0  0  0
    7.7858  -22.8220   19.1821 C   0  0  0  0  0  0  0  0  0  0  0  0
    6.6561  -23.5472   19.8456 C   0  0  0  0  0  0  0  0  0  0  0  0
    6.0726  -24.5982   18.9420 C   0  0  0  0  0  0  0  0  0  0  0  0
    5.0064  -25.2893   19.6491 N   0  0  0  0  0  0  0  0  0  0  0  0
    9.2931  -19.4212   19.8186 C   0  0  0  0  0  0  0  0  0  0  0  0
   10.3681  -19.4509   20.4720 O   0  0  0  0  0  0  0  0  0  0  0  0
    8.5432  -18.2409   19.7797 N   0  0  0  0  0  0  0  0  0  0  0  0
    8.7681  -17.0088   20.4864 C   0  0  1  0  0  0  0  0  0  0  0  0
    8.0495  -15.7959   19.9306 C   0  0  0  0  0  0  0  0  0  0  0  0
    8.4115  -14.5350   20.6721 C   0  0  0  0  0  0  0  0  0  0  0  0
    7.7468  -13.3162   20.0880 C   0  0  0  0  0  0  0  0  0  0  0  0
    8.1951  -12.0437   20.7254 C   0  0  0  0  0  0  0  0  0  0  0  0
    7.4194  -10.9242   20.1775 N   0  0  0  0  0  0  0  0  0  0  0  0
    8.7297  -17.1351   21.9370 C   0  0  0  0  0  0  0  0  0  0  0  0
    7.6813  -17.5321   22.5495 O   0  0  0  0  0  0  0  0  0  0  0  0
   14.3272  -20.7407   27.6491 N   0  0  0  0  0  0  0  0  0  0  0  0
   13.2452  -21.2857   26.9287 C   0  0  0  0  0  0  0  0  0  0  0  0
   13.2918  -22.5242   26.5902 N   0  0  0  0  0  0  0  0  0  0  0  0
   12.1358  -20.4488   26.5980 N   0  0  0  0  0  0  0  0  0  0  0  0
   12.4583  -19.1032   26.1766 C   0  0  0  0  0  0  0  0  0  0  0  0
   11.1997  -18.2643   25.9481 C   0  0  0  0  0  0  0  0  0  0  0  0
   11.1102  -17.9707   24.4789 C   0  0  0  0  0  0  0  0  0  0  0  0
    9.9091  -17.1457   24.1755 C   0  0  2  0  0  0  0  0  0  0  0  0
    9.8309  -16.8316   22.7455 N   0  0  0  0  0  0  0  0  0  0  0  0
    9.9846  -15.8442   24.8715 C   0  0  0  0  0  0  0  0  0  0  0  0
    9.9664  -15.7023   26.1211 O   0  0  0  0  0  0  0  0  0  0  0  0
   10.0860  -14.6302   24.1496 O   0  0  0  0  0  0  0  0  0  0  0  0
  2  1  1  6
  2  3  1  0
  3  4  1  0
  4  5  1  0
  5  6  1  0
  6  7  1  0
  8  9  2  0
  8  2  1  0
 10  8  1  0
 11 10  1  0
 11 17  1  0
 11 12  1  6
 13 14  1  0
 13 12  1  0
 15 16  1  0
 15 14  1  0
 17 18  2  0
 19 20  1  0
 20 21  2  0
 20 22  1  0
 22 23  1  0
 24 23  1  0
 24 25  1  0
 26 25  1  6
 27 17  1  0
 27 26  1  0
 28 30  1  0
 28 26  1  0
 29 28  2  0
M  END
$$$$
