KKR.pdb
     RDKit          3D

 30 29  0  0  1  0  0  0  0  0999 V2000
    8.4720  -18.0648   18.9872 N   0  0  0  0  0  0  0  0  0  0  0  0
    9.6036  -18.3129   19.8145 C   0  0  1  0  0  0  0  0  0  0  0  0
   10.7058  -18.8850   18.9493 C   0  0  0  0  0  0  0  0  0  0  0  0
   10.0969  -20.0922   18.2450 C   0  0  0  0  0  0  0  0  0  0  0  0
   11.0639  -20.8023   17.3487 C   0  0  0  0  0  0  0  0  0  0  0  0
   10.4352  -22.0101   16.7105 C   0  0  0  0  0  0  0  0  0  0  0  0
   11.3990  -22.6241   15.8112 N   0  0  0  0  0  0  0  0  0  0  0  0
   10.0344  -17.0399   20.4635 C   0  0  0  0  0  0  0  0  0  0  0  0
   11.2340  -16.6629   20.4146 O   0  0  0  0  0  0  0  0  0  0  0  0
    9.0923  -16.2540   21.1355 N   0  0  0  0  0  0  0  0  0  0  0  0
    9.3077  -15.0760   21.9317 C   0  0  1  0  0  0  0  0  0  0  0  0
    8.1646  -14.0812   21.9496 C   0  0  0  0  0  0  0  0  0  0  0  0
    8.2039  -13.1532   20.7629 C   0  0  0  0  0  0  0  0  0  0  0  0
    7.3433  -13.6396   19.6267 C   0  0  0  0  0  0  0  0  0  0  0  0
    7.4328  -12.7751   18.4138 C   0  0  0  0  0  0  0  0  0  0  0  0
    6.5404  -13.3008   17.3733 N   0  0  0  0  0  0  0  0  0  0  0  0
    9.9191  -15.3334   23.2285 C   0  0  0  0  0  0  0  0  0  0  0  0
   10.3598  -14.3863   23.9636 O   0  0  0  0  0  0  0  0  0  0  0  0
    9.7806  -21.8082   29.1245 N   0  0  0  0  0  0  0  0  0  0  0  0
   10.6267  -20.8062   29.6415 C   0  0  0  0  0  0  0  0  0  0  0  0
   10.7774  -20.7237   30.9147 N   0  0  0  0  0  0  0  0  0  0  0  0
   11.2868  -19.9174   28.7389 N   0  0  0  0  0  0  0  0  0  0  0  0
   10.5387  -19.5366   27.5610 C   0  0  0  0  0  0  0  0  0  0  0  0
   11.3797  -18.6882   26.6055 C   0  0  0  0  0  0  0  0  0  0  0  0
   10.5100  -18.3215   25.4385 C   0  0  0  0  0  0  0  0  0  0  0  0
   10.8066  -16.9403   24.9699 C   0  0  2  0  0  0  0  0  0  0  0  0
   10.0614  -16.6255   23.7471 N   0  0  0  0  0  0  0  0  0  0  0  0
   12.2357  -16.8078   24.6177 C   0  0  0  0  0  0  0  0  0  0  0  0
   12.7992  -17.4294   23.6808 O   0  0  0  0  0  0  0  0  0  0  0  0
   13.0924  -15.9410   25.3388 O   0  0  0  0  0  0  0  0  0  0  0  0
  2  1  1  6
  2  3  1  0
  3  4  1  0
  4  5  1  0
  5  6  1  0
  6  7  1  0
  8  9  2  0
  8  2  1  0
 10  8  1  0
 11 10  1  0
 11 17  1  0
 11 12  1  1
 13 14  1  0
 13 12  1  0
 15 16  1  0
 15 14  1  0
 17 18  2  0
 19 20  1  0
 20 21  2  0
 20 22  1  0
 22 23  1  0
 24 23  1  0
 24 25  1  0
 26 25  1  6
 27 17  1  0
 27 26  1  0
 28 30  1  0
 28 26  1  0
 29 28  2  0
M  END
$$$$
