KKR.pdb
     RDKit          3D

 30 29  0  0  1  0  0  0  0  0999 V2000
    7.7253  -20.1768   19.1858 N   0  0  0  0  0  0  0  0  0  0  0  0
    7.4956  -19.5771   20.4562 C   0  0  1  0  0  0  0  0  0  0  0  0
    8.1280  -20.4547   21.5149 C   0  0  0  0  0  0  0  0  0  0  0  0
    9.5213  -20.7927   20.9965 C   0  0  0  0  0  0  0  0  0  0  0  0
   10.2896  -21.6935   21.9134 C   0  0  0  0  0  0  0  0  0  0  0  0
   11.6267  -22.0588   21.3302 C   0  0  0  0  0  0  0  0  0  0  0  0
   12.3313  -22.9188   22.2675 N   0  0  0  0  0  0  0  0  0  0  0  0
    8.0830  -18.2053   20.4727 C   0  0  0  0  0  0  0  0  0  0  0  0
    9.2475  -17.9953   20.0446 O   0  0  0  0  0  0  0  0  0  0  0  0
    7.3293  -17.1372   20.9708 N   0  0  0  0  0  0  0  0  0  0  0  0
    7.6872  -15.7471   21.0571 C   0  0  1  0  0  0  0  0  0  0  0  0
    6.5309  -14.7845   21.2382 C   0  0  0  0  0  0  0  0  0  0  0  0
    6.9758  -13.3464   21.1683 C   0  0  0  0  0  0  0  0  0  0  0  0
    7.2547  -12.9010   19.7569 C   0  0  0  0  0  0  0  0  0  0  0  0
    8.2047  -11.7528   19.6830 C   0  0  0  0  0  0  0  0  0  0  0  0
    8.4254  -11.3922   18.2771 N   0  0  0  0  0  0  0  0  0  0  0  0
    8.8479  -15.4786   21.8952 C   0  0  0  0  0  0  0  0  0  0  0  0
    9.1962  -14.2879   22.1994 O   0  0  0  0  0  0  0  0  0  0  0  0
    7.2841  -20.9997   26.8035 N   0  0  0  0  0  0  0  0  0  0  0  0
    7.4884  -20.1922   27.9407 C   0  0  0  0  0  0  0  0  0  0  0  0
    7.5039  -20.7503   29.0978 N   0  0  0  0  0  0  0  0  0  0  0  0
    7.6704  -18.7854   27.7731 N   0  0  0  0  0  0  0  0  0  0  0  0
    7.5192  -18.2812   26.4258 C   0  0  0  0  0  0  0  0  0  0  0  0
    8.8418  -17.7538   25.8666 C   0  0  0  0  0  0  0  0  0  0  0  0
    8.5850  -17.2765   24.4670 C   0  0  0  0  0  0  0  0  0  0  0  0
    9.8322  -16.7486   23.8498 C   0  0  2  0  0  0  0  0  0  0  0  0
    9.6490  -16.5010   22.4163 N   0  0  0  0  0  0  0  0  0  0  0  0
   10.9221  -17.7414   23.9524 C   0  0  0  0  0  0  0  0  0  0  0  0
   11.1125  -18.6774   23.1342 O   0  0  0  0  0  0  0  0  0  0  0  0
   11.8551  -17.7003   25.0168 O   0  0  0  0  0  0  0  0  0  0  0  0
  2  1  1  6
  2  3  1  0
  3  4  1  0
  4  5  1  0
  5  6  1  0
  6  7  1  0
  8  9  2  0
  8  2  1  0
 10  8  1  0
 11 10  1  0
 11 17  1  0
 11 12  1  1
 13 14  1  0
 13 12  1  0
 15 16  1  0
 15 14  1  0
 17 18  2  0
 19 20  1  0
 20 21  2  0
 20 22  1  0
 22 23  1  0
 24 23  1  0
 24 25  1  0
 26 25  1  6
 27 17  1  0
 27 26  1  0
 28 30  1  0
 28 26  1  0
 29 28  2  0
M  END
$$$$
