KKR.pdb
     RDKit          3D

 30 29  0  0  1  0  0  0  0  0999 V2000
    6.2118  -15.3467   20.4800 N   0  0  0  0  0  0  0  0  0  0  0  0
    7.5382  -15.2366   19.9749 C   0  0  1  0  0  0  0  0  0  0  0  0
    7.9535  -13.7830   20.0490 C   0  0  0  0  0  0  0  0  0  0  0  0
    7.3363  -13.1117   18.8273 C   0  0  0  0  0  0  0  0  0  0  0  0
    7.8707  -13.6385   17.5314 C   0  0  0  0  0  0  0  0  0  0  0  0
    7.2380  -12.9471   16.3553 C   0  0  0  0  0  0  0  0  0  0  0  0
    7.7869  -13.5041   15.1294 N   0  0  0  0  0  0  0  0  0  0  0  0
    8.4510  -16.0992   20.7810 C   0  0  0  0  0  0  0  0  0  0  0  0
    8.1879  -16.3758   21.9801 O   0  0  0  0  0  0  0  0  0  0  0  0
    9.6157  -16.6079   20.1965 N   0  0  0  0  0  0  0  0  0  0  0  0
   10.6186  -17.4566   20.7811 C   0  0  1  0  0  0  0  0  0  0  0  0
   11.5764  -18.1062   19.8028 C   0  0  0  0  0  0  0  0  0  0  0  0
   10.8662  -19.0214   18.8390 C   0  0  0  0  0  0  0  0  0  0  0  0
   11.8039  -19.6278   17.8284 C   0  0  0  0  0  0  0  0  0  0  0  0
   11.1056  -20.4731   16.8163 C   0  0  0  0  0  0  0  0  0  0  0  0
   12.0850  -20.9881   15.8516 N   0  0  0  0  0  0  0  0  0  0  0  0
   11.2404  -16.9105   21.9798 C   0  0  0  0  0  0  0  0  0  0  0  0
   11.8463  -15.7860   21.9699 O   0  0  0  0  0  0  0  0  0  0  0  0
    9.2508  -14.1141   28.4388 N   0  0  0  0  0  0  0  0  0  0  0  0
   10.0752  -14.8984   29.2708 C   0  0  0  0  0  0  0  0  0  0  0  0
   10.8180  -14.3068   30.1362 N   0  0  0  0  0  0  0  0  0  0  0  0
   10.0603  -16.3194   29.1268 N   0  0  0  0  0  0  0  0  0  0  0  0
    9.7525  -16.8211   27.8055 C   0  0  0  0  0  0  0  0  0  0  0  0
   10.8925  -16.5582   26.8199 C   0  0  0  0  0  0  0  0  0  0  0  0
   10.5016  -17.1608   25.5021 C   0  0  0  0  0  0  0  0  0  0  0  0
   11.5716  -16.9568   24.4879 C   0  0  2  0  0  0  0  0  0  0  0  0
   11.2135  -17.5786   23.2092 N   0  0  0  0  0  0  0  0  0  0  0  0
   12.8253  -17.6104   24.9179 C   0  0  0  0  0  0  0  0  0  0  0  0
   13.4134  -17.3781   26.0051 O   0  0  0  0  0  0  0  0  0  0  0  0
   13.4673  -18.5750   24.1038 O   0  0  0  0  0  0  0  0  0  0  0  0
  2  1  1  1
  2  3  1  0
  3  4  1  0
  4  5  1  0
  5  6  1  0
  6  7  1  0
  8  9  2  0
  8  2  1  0
 10  8  1  0
 11 10  1  0
 11 17  1  0
 11 12  1  6
 13 14  1  0
 13 12  1  0
 15 16  1  0
 15 14  1  0
 17 18  2  0
 19 20  1  0
 20 21  2  0
 20 22  1  0
 22 23  1  0
 24 23  1  0
 24 25  1  0
 26 25  1  1
 27 17  1  0
 27 26  1  0
 28 30  1  0
 28 26  1  0
 29 28  2  0
M  END
$$$$
