CIW.pdb
     RDKit          3D

 29 30  0  0  1  0  0  0  0  0999 V2000
   28.4262  -20.9556  -14.9685 N   0  0  0  0  0  0  0  0  0  0  0  0
   27.8748  -20.0054  -14.0221 C   0  0  1  0  0  0  0  0  0  0  0  0
   27.2146  -18.8784  -14.7876 C   0  0  0  0  0  0  0  0  0  0  0  0
   28.4835  -17.8527  -15.5784 S   0  0  0  0  0  0  0  0  0  0  0  0
   26.8973  -20.7342  -13.1741 C   0  0  0  0  0  0  0  0  0  0  0  0
   26.2440  -21.7119  -13.6176 O   0  0  0  0  0  0  0  0  0  0  0  0
   27.6355  -20.1828   -7.8835 C   0  0  0  0  0  0  0  0  0  0  0  0
   27.1949  -20.7964   -9.1887 C   0  0  0  0  0  0  0  0  0  0  0  0
   25.7923  -20.4010   -9.5811 C   0  0  2  0  0  0  0  0  0  0  0  0
   24.7640  -20.8999   -8.6218 C   0  0  0  0  0  0  0  0  0  0  0  0
   25.5658  -20.8207  -11.0137 C   0  0  2  0  0  0  0  0  0  0  0  0
   26.6727  -20.3343  -11.8108 N   0  0  0  0  0  0  0  0  0  0  0  0
   24.2616  -20.3226  -11.5303 C   0  0  0  0  0  0  0  0  0  0  0  0
   24.0516  -19.0878  -11.5633 O   0  0  0  0  0  0  0  0  0  0  0  0
   23.2222  -21.1694  -11.9961 N   0  0  0  0  0  0  0  0  0  0  0  0
   22.4301  -20.8188  -13.1580 C   0  0  1  0  0  0  0  0  0  0  0  0
   23.2536  -20.8261  -14.4298 C   0  0  0  0  0  0  0  0  0  0  0  0
   22.4682  -20.3713  -15.5959 C   0  0  0  0  0  0  0  0  0  0  0  0
   21.9454  -19.1137  -15.7930 C   0  0  0  0  0  0  0  0  0  0  0  0
   21.2881  -19.0920  -16.9904 N   0  0  0  0  0  0  0  0  0  0  0  0
   21.3696  -20.2926  -17.5711 C   0  0  0  0  0  0  0  0  0  0  0  0
   20.8751  -20.7661  -18.7701 C   0  0  0  0  0  0  0  0  0  0  0  0
   21.1007  -22.0670  -19.1465 C   0  0  0  0  0  0  0  0  0  0  0  0
   21.8271  -22.8792  -18.3030 C   0  0  0  0  0  0  0  0  0  0  0  0
   22.3246  -22.3959  -17.0925 C   0  0  0  0  0  0  0  0  0  0  0  0
   22.1094  -21.1047  -16.7031 C   0  0  0  0  0  0  0  0  0  0  0  0
   21.2418  -21.7019  -13.2952 C   0  0  0  0  0  0  0  0  0  0  0  0
   21.3246  -23.0648  -13.4519 O   0  0  0  0  0  0  0  0  0  0  0  0
   20.1209  -21.1612  -13.2642 O   0  0  0  0  0  0  0  0  0  0  0  0
  2  3  1  0
  2  1  1  6
  3  4  1  0
  5  6  2  0
  5  2  1  0
  8  7  1  0
  9 10  1  1
  9  8  1  0
 11 12  1  6
 11  9  1  0
 12  5  1  0
 13 11  1  0
 14 13  2  0
 15 13  1  0
 16 15  1  0
 16 17  1  6
 17 18  1  0
 18 26  1  0
 18 19  2  0
 19 20  1  0
 21 20  1  0
 21 22  2  0
 23 22  1  0
 24 23  2  0
 25 26  2  0
 25 24  1  0
 26 21  1  0
 27 16  1  0
 28 27  1  0
 29 27  2  0
M  END
$$$$
