CIW.pdb
     RDKit          3D

 29 30  0  0  1  0  0  0  0  0999 V2000
   21.9645  -20.1908  -14.2382 N   0  0  0  0  0  0  0  0  0  0  0  0
   22.7102  -19.6237  -13.1314 C   0  0  1  0  0  0  0  0  0  0  0  0
   21.7738  -19.4297  -11.9579 C   0  0  0  0  0  0  0  0  0  0  0  0
   20.5973  -18.1010  -12.3292 S   0  0  0  0  0  0  0  0  0  0  0  0
   23.8090  -20.5671  -12.8019 C   0  0  0  0  0  0  0  0  0  0  0  0
   23.6001  -21.7999  -12.6764 O   0  0  0  0  0  0  0  0  0  0  0  0
   28.4322  -20.1732  -15.0865 C   0  0  0  0  0  0  0  0  0  0  0  0
   27.2214  -20.5396  -14.2656 C   0  0  0  0  0  0  0  0  0  0  0  0
   27.4986  -20.5543  -12.7822 C   0  0  2  0  0  0  0  0  0  0  0  0
   28.6599  -21.4195  -12.4222 C   0  0  0  0  0  0  0  0  0  0  0  0
   26.2159  -20.9003  -12.0648 C   0  0  2  0  0  0  0  0  0  0  0  0
   25.1522  -20.0871  -12.6166 N   0  0  0  0  0  0  0  0  0  0  0  0
   26.3423  -20.7079  -10.5940 C   0  0  0  0  0  0  0  0  0  0  0  0
   27.4366  -20.3201  -10.1228 O   0  0  0  0  0  0  0  0  0  0  0  0
   25.2862  -20.9389   -9.6745 N   0  0  0  0  0  0  0  0  0  0  0  0
   25.5213  -20.9426   -8.2444 C   0  0  1  0  0  0  0  0  0  0  0  0
   25.5885  -19.5395   -7.6765 C   0  0  0  0  0  0  0  0  0  0  0  0
   26.9210  -19.2374   -7.1137 C   0  0  0  0  0  0  0  0  0  0  0  0
   27.9059  -18.4759   -7.7002 C   0  0  0  0  0  0  0  0  0  0  0  0
   28.9859  -18.4324   -6.8649 N   0  0  0  0  0  0  0  0  0  0  0  0
   28.7303  -19.1400   -5.7605 C   0  0  0  0  0  0  0  0  0  0  0  0
   29.4932  -19.3943   -4.6382 C   0  0  0  0  0  0  0  0  0  0  0  0
   28.9911  -20.1672   -3.6206 C   0  0  0  0  0  0  0  0  0  0  0  0
   27.7174  -20.6772   -3.7491 C   0  0  0  0  0  0  0  0  0  0  0  0
   26.9507  -20.4173   -4.8852 C   0  0  0  0  0  0  0  0  0  0  0  0
   27.4349  -19.6504   -5.9064 C   0  0  0  0  0  0  0  0  0  0  0  0
   24.5029  -21.7532   -7.5259 C   0  0  0  0  0  0  0  0  0  0  0  0
   24.6713  -22.2179   -6.2434 O   0  0  0  0  0  0  0  0  0  0  0  0
   23.4482  -22.0154   -8.1331 O   0  0  0  0  0  0  0  0  0  0  0  0
  2  3  1  0
  2  1  1  6
  3  4  1  0
  5  6  2  0
  5  2  1  0
  8  7  1  0
  9 10  1  6
  9  8  1  0
 11 12  1  6
 11  9  1  0
 12  5  1  0
 13 11  1  0
 14 13  2  0
 15 13  1  0
 16 15  1  0
 16 17  1  1
 17 18  1  0
 18 26  1  0
 18 19  2  0
 19 20  1  0
 21 20  1  0
 21 22  2  0
 23 22  1  0
 24 23  2  0
 25 26  2  0
 25 24  1  0
 26 21  1  0
 27 16  1  0
 28 27  1  0
 29 27  2  0
M  END
$$$$
