CIW.pdb
     RDKit          3D

 29 30  0  0  1  0  0  0  0  0999 V2000
   21.6174  -12.4501  -18.5494 N   0  0  0  0  0  0  0  0  0  0  0  0
   20.6692  -11.7270  -17.7244 C   0  0  1  0  0  0  0  0  0  0  0  0
   20.9572  -12.0275  -16.2688 C   0  0  0  0  0  0  0  0  0  0  0  0
   20.6388  -13.7807  -15.9333 S   0  0  0  0  0  0  0  0  0  0  0  0
   20.8268  -10.2808  -18.0239 C   0  0  0  0  0  0  0  0  0  0  0  0
   21.9536   -9.7794  -18.2650 O   0  0  0  0  0  0  0  0  0  0  0  0
   16.9821   -7.9737  -20.8739 C   0  0  0  0  0  0  0  0  0  0  0  0
   18.2951   -8.2806  -20.1987 C   0  0  0  0  0  0  0  0  0  0  0  0
   18.4857   -7.5201  -18.9092 C   0  0  2  0  0  0  0  0  0  0  0  0
   18.3842   -6.0426  -19.0920 C   0  0  0  0  0  0  0  0  0  0  0  0
   19.7740   -7.9836  -18.2727 C   0  0  2  0  0  0  0  0  0  0  0  0
   19.6816   -9.4109  -18.0454 N   0  0  0  0  0  0  0  0  0  0  0  0
   20.0564   -7.2476  -17.0099 C   0  0  0  0  0  0  0  0  0  0  0  0
   19.2114   -7.2788  -16.0853 O   0  0  0  0  0  0  0  0  0  0  0  0
   21.2407   -6.4998  -16.7806 N   0  0  0  0  0  0  0  0  0  0  0  0
   21.4179   -5.7244  -15.5691 C   0  0  1  0  0  0  0  0  0  0  0  0
   22.7457   -6.0136  -14.8989 C   0  0  0  0  0  0  0  0  0  0  0  0
   22.8218   -7.4051  -14.4073 C   0  0  0  0  0  0  0  0  0  0  0  0
   21.8971   -8.0474  -13.6159 C   0  0  0  0  0  0  0  0  0  0  0  0
   22.3280   -9.3221  -13.3801 N   0  0  0  0  0  0  0  0  0  0  0  0
   23.4986   -9.5226  -13.9923 C   0  0  0  0  0  0  0  0  0  0  0  0
   24.3233  -10.6283  -14.0532 C   0  0  0  0  0  0  0  0  0  0  0  0
   25.4970  -10.5781  -14.7637 C   0  0  0  0  0  0  0  0  0  0  0  0
   25.8262   -9.4053  -15.4080 C   0  0  0  0  0  0  0  0  0  0  0  0
   24.9894   -8.2909  -15.3433 C   0  0  0  0  0  0  0  0  0  0  0  0
   23.8185   -8.3240  -14.6411 C   0  0  0  0  0  0  0  0  0  0  0  0
   21.2639   -4.2680  -15.8258 C   0  0  0  0  0  0  0  0  0  0  0  0
   20.9717   -3.7432  -17.0620 O   0  0  0  0  0  0  0  0  0  0  0  0
   21.4108   -3.4981  -14.8586 O   0  0  0  0  0  0  0  0  0  0  0  0
  2  3  1  0
  2  1  1  6
  3  4  1  0
  5  6  2  0
  5  2  1  0
  8  7  1  0
  9 10  1  6
  9  8  1  0
 11 12  1  1
 11  9  1  0
 12  5  1  0
 13 11  1  0
 14 13  2  0
 15 13  1  0
 16 15  1  0
 16 17  1  6
 17 18  1  0
 18 26  1  0
 18 19  2  0
 19 20  1  0
 21 20  1  0
 21 22  2  0
 23 22  1  0
 24 23  2  0
 25 26  2  0
 25 24  1  0
 26 21  1  0
 27 16  1  0
 28 27  1  0
 29 27  2  0
M  END
$$$$
