CIW.pdb
     RDKit          3D

 29 30  0  0  1  0  0  0  0  0999 V2000
   27.9741  -21.5031  -17.7334 N   0  0  0  0  0  0  0  0  0  0  0  0
   27.2919  -22.2418  -16.6886 C   0  0  1  0  0  0  0  0  0  0  0  0
   28.2549  -23.2441  -16.0886 C   0  0  0  0  0  0  0  0  0  0  0  0
   29.6441  -22.3699  -15.3183 S   0  0  0  0  0  0  0  0  0  0  0  0
   26.8269  -21.2593  -15.6764 C   0  0  0  0  0  0  0  0  0  0  0  0
   27.0376  -20.0279  -15.8116 O   0  0  0  0  0  0  0  0  0  0  0  0
   21.7678  -19.5577  -13.7287 C   0  0  0  0  0  0  0  0  0  0  0  0
   23.2077  -19.7184  -13.3101 C   0  0  0  0  0  0  0  0  0  0  0  0
   23.9486  -20.7444  -14.1322 C   0  0  2  0  0  0  0  0  0  0  0  0
   23.2549  -22.0651  -14.1657 C   0  0  0  0  0  0  0  0  0  0  0  0
   25.3761  -20.8009  -13.6435 C   0  0  2  0  0  0  0  0  0  0  0  0
   26.1169  -21.6987  -14.5052 N   0  0  0  0  0  0  0  0  0  0  0  0
   25.4505  -21.2270  -12.2191 C   0  0  0  0  0  0  0  0  0  0  0  0
   25.6143  -22.4407  -11.9547 O   0  0  0  0  0  0  0  0  0  0  0  0
   25.3462  -20.3330  -11.1217 N   0  0  0  0  0  0  0  0  0  0  0  0
   25.5021  -20.7956   -9.7572 C   0  0  1  0  0  0  0  0  0  0  0  0
   26.7387  -20.2177   -9.0994 C   0  0  0  0  0  0  0  0  0  0  0  0
   26.7877  -20.5253   -7.6549 C   0  0  0  0  0  0  0  0  0  0  0  0
   26.0724  -21.5010   -6.9990 C   0  0  0  0  0  0  0  0  0  0  0  0
   26.3969  -21.4692   -5.6725 N   0  0  0  0  0  0  0  0  0  0  0  0
   27.2967  -20.5063   -5.4515 C   0  0  0  0  0  0  0  0  0  0  0  0
   27.9251  -20.0872   -4.2958 C   0  0  0  0  0  0  0  0  0  0  0  0
   28.8288  -19.0543   -4.3350 C   0  0  0  0  0  0  0  0  0  0  0  0
   29.0886  -18.4533   -5.5475 C   0  0  0  0  0  0  0  0  0  0  0  0
   28.4508  -18.8806   -6.7123 C   0  0  0  0  0  0  0  0  0  0  0  0
   27.5495  -19.9065   -6.6910 C   0  0  0  0  0  0  0  0  0  0  0  0
   24.2911  -20.5115   -8.9428 C   0  0  0  0  0  0  0  0  0  0  0  0
   23.8438  -21.3348   -7.9372 O   0  0  0  0  0  0  0  0  0  0  0  0
   23.6612  -19.4687   -9.1990 O   0  0  0  0  0  0  0  0  0  0  0  0
  2  3  1  0
  2  1  1  6
  3  4  1  0
  5  6  2  0
  5  2  1  0
  8  7  1  0
  9 10  1  1
  9  8  1  0
 11 12  1  6
 11  9  1  0
 12  5  1  0
 13 11  1  0
 14 13  2  0
 15 13  1  0
 16 15  1  0
 16 17  1  1
 17 18  1  0
 18 26  1  0
 18 19  2  0
 19 20  1  0
 21 20  1  0
 21 22  2  0
 23 22  1  0
 24 23  2  0
 25 26  2  0
 25 24  1  0
 26 21  1  0
 27 16  1  0
 28 27  1  0
 29 27  2  0
M  END
$$$$
