CIW.pdb
     RDKit          3D

 29 30  0  0  1  0  0  0  0  0999 V2000
   23.6456  -19.2895  -16.8292 N   0  0  0  0  0  0  0  0  0  0  0  0
   23.7998  -19.1546  -15.3937 C   0  0  1  0  0  0  0  0  0  0  0  0
   22.4802  -19.4791  -14.7265 C   0  0  0  0  0  0  0  0  0  0  0  0
   22.2942  -18.4807  -13.2245 S   0  0  0  0  0  0  0  0  0  0  0  0
   24.8706  -20.0919  -14.9685 C   0  0  0  0  0  0  0  0  0  0  0  0
   24.9083  -21.2773  -15.3838 O   0  0  0  0  0  0  0  0  0  0  0  0
   29.4672  -17.6260  -14.0201 C   0  0  0  0  0  0  0  0  0  0  0  0
   28.3659  -18.6061  -14.3375 C   0  0  0  0  0  0  0  0  0  0  0  0
   28.1562  -19.6290  -13.2480 C   0  0  2  0  0  0  0  0  0  0  0  0
   29.4056  -20.3697  -12.9058 C   0  0  0  0  0  0  0  0  0  0  0  0
   26.9960  -20.5105  -13.6437 C   0  0  2  0  0  0  0  0  0  0  0  0
   25.9006  -19.6605  -14.0619 N   0  0  0  0  0  0  0  0  0  0  0  0
   26.5912  -21.4142  -12.5322 C   0  0  0  0  0  0  0  0  0  0  0  0
   27.3432  -22.3655  -12.2168 O   0  0  0  0  0  0  0  0  0  0  0  0
   25.3884  -21.2664  -11.7934 N   0  0  0  0  0  0  0  0  0  0  0  0
   25.3794  -21.3492  -10.3466 C   0  0  1  0  0  0  0  0  0  0  0  0
   26.3575  -20.3788   -9.7162 C   0  0  0  0  0  0  0  0  0  0  0  0
   26.2958  -20.4171   -8.2403 C   0  0  0  0  0  0  0  0  0  0  0  0
   25.2222  -20.8092   -7.4738 C   0  0  0  0  0  0  0  0  0  0  0  0
   25.5606  -20.7046   -6.1545 N   0  0  0  0  0  0  0  0  0  0  0  0
   26.8154  -20.2585   -6.0450 C   0  0  0  0  0  0  0  0  0  0  0  0
   27.6002  -19.9921   -4.9407 C   0  0  0  0  0  0  0  0  0  0  0  0
   28.8842  -19.5324   -5.0986 C   0  0  0  0  0  0  0  0  0  0  0  0
   29.3633  -19.3459   -6.3771 C   0  0  0  0  0  0  0  0  0  0  0  0
   28.5663  -19.6165   -7.4896 C   0  0  0  0  0  0  0  0  0  0  0  0
   27.2872  -20.0743   -7.3502 C   0  0  0  0  0  0  0  0  0  0  0  0
   24.0123  -21.1503   -9.7970 C   0  0  0  0  0  0  0  0  0  0  0  0
   23.1221  -20.2289  -10.2949 O   0  0  0  0  0  0  0  0  0  0  0  0
   23.6729  -21.8644   -8.8354 O   0  0  0  0  0  0  0  0  0  0  0  0
  2  3  1  0
  2  1  1  6
  3  4  1  0
  5  6  2  0
  5  2  1  0
  8  7  1  0
  9 10  1  6
  9  8  1  0
 11 12  1  1
 11  9  1  0
 12  5  1  0
 13 11  1  0
 14 13  2  0
 15 13  1  0
 16 15  1  0
 16 17  1  1
 17 18  1  0
 18 26  1  0
 18 19  2  0
 19 20  1  0
 21 20  1  0
 21 22  2  0
 23 22  1  0
 24 23  2  0
 25 26  2  0
 25 24  1  0
 26 21  1  0
 27 16  1  0
 28 27  1  0
 29 27  2  0
M  END
$$$$
