HYA.pdb
     RDKit          3D

 28 29  0  0  1  0  0  0  0  0999 V2000
    9.2711  -18.4892   19.5179 N   0  0  0  0  0  0  0  0  0  0  0  0
    8.3740  -18.1144   20.5731 C   0  0  1  0  0  0  0  0  0  0  0  0
    7.9756  -19.3391   21.3705 C   0  0  0  0  0  0  0  0  0  0  0  0
    7.0940  -20.2186   20.5419 C   0  0  0  0  0  0  0  0  0  0  0  0
    6.1512  -19.7748   19.6403 C   0  0  0  0  0  0  0  0  0  0  0  0
    5.5558  -20.8443   19.0859 N   0  0  0  0  0  0  0  0  0  0  0  0
    6.1112  -21.9208   19.6260 C   0  0  0  0  0  0  0  0  0  0  0  0
    7.0480  -21.5563   20.5128 N   0  0  0  0  0  0  0  0  0  0  0  0
    8.9859  -17.0767   21.4356 C   0  0  0  0  0  0  0  0  0  0  0  0
   10.2512  -17.0205   21.5471 O   0  0  0  0  0  0  0  0  0  0  0  0
    8.2008  -12.2432   17.4551 O   0  0  0  0  0  0  0  0  0  0  0  0
    8.2108  -12.6347   18.7827 C   0  0  0  0  0  0  0  0  0  0  0  0
    9.3354  -12.6065   19.5779 C   0  0  0  0  0  0  0  0  0  0  0  0
    9.2770  -13.0108   20.8945 C   0  0  0  0  0  0  0  0  0  0  0  0
    8.0907  -13.4526   21.4446 C   0  0  0  0  0  0  0  0  0  0  0  0
    8.0535  -13.8830   22.8661 C   0  0  0  0  0  0  0  0  0  0  0  0
    8.6985  -15.2024   23.0935 C   0  0  2  0  0  0  0  0  0  0  0  0
    8.1584  -16.1474   22.1357 N   0  0  0  0  0  0  0  0  0  0  0  0
    8.6215  -15.7310   24.4439 C   0  0  0  0  0  0  0  0  0  0  0  0
    9.0763  -15.0424   25.3909 O   0  0  0  0  0  0  0  0  0  0  0  0
    6.9752  -13.4827   20.6625 C   0  0  0  0  0  0  0  0  0  0  0  0
    7.0355  -13.0777   19.3453 C   0  0  0  0  0  0  0  0  0  0  0  0
    6.8144  -18.5218   26.1960 C   0  0  0  0  0  0  0  0  0  0  0  0
    8.0010  -17.5999   26.0241 C   0  0  2  0  0  0  0  0  0  0  0  0
    8.0567  -16.9877   24.7388 N   0  0  0  0  0  0  0  0  0  0  0  0
    9.2219  -18.4118   26.2363 C   0  0  0  0  0  0  0  0  0  0  0  0
   10.0624  -18.5346   25.3131 O   0  0  0  0  0  0  0  0  0  0  0  0
    9.4826  -19.0561   27.4359 O   0  0  0  0  0  0  0  0  0  0  0  0
  2  1  1  6
  3  2  1  0
  4  3  1  0
  5  4  2  0
  6  5  1  0
  7  6  1  0
  7  8  2  0
  8  4  1  0
  9 18  1  0
  9  2  1  0
 10  9  2  0
 12 11  1  0
 13 12  2  0
 14 13  1  0
 15 21  1  0
 15 14  2  0
 17 16  1  1
 16 15  1  0
 17 18  1  0
 19 25  1  0
 19 17  1  0
 20 19  2  0
 21 22  2  0
 22 12  1  0
 24 23  1  6
 24 26  1  0
 24 25  1  0
 26 28  1  0
 27 26  2  0
M  END
$$$$
