HYA.pdb
     RDKit          3D

 28 29  0  0  1  0  0  0  0  0999 V2000
   10.7023  -17.0579   19.5364 N   0  0  0  0  0  0  0  0  0  0  0  0
    9.6708  -17.0339   20.5335 C   0  0  1  0  0  0  0  0  0  0  0  0
    8.8589  -18.3109   20.4663 C   0  0  0  0  0  0  0  0  0  0  0  0
    7.9597  -18.2774   19.2714 C   0  0  0  0  0  0  0  0  0  0  0  0
    7.9080  -17.2589   18.3448 C   0  0  0  0  0  0  0  0  0  0  0  0
    6.9882  -17.5737   17.4171 N   0  0  0  0  0  0  0  0  0  0  0  0
    6.4829  -18.7521   17.7562 C   0  0  0  0  0  0  0  0  0  0  0  0
    7.0636  -19.1924   18.8813 N   0  0  0  0  0  0  0  0  0  0  0  0
   10.2510  -16.8262   21.8810 C   0  0  0  0  0  0  0  0  0  0  0  0
   11.4002  -17.2999   22.1485 O   0  0  0  0  0  0  0  0  0  0  0  0
   10.2853  -14.5302   30.4524 O   0  0  0  0  0  0  0  0  0  0  0  0
    9.9801  -14.6615   29.1087 C   0  0  0  0  0  0  0  0  0  0  0  0
    8.9933  -15.4941   28.6284 C   0  0  0  0  0  0  0  0  0  0  0  0
    8.7397  -15.5783   27.2760 C   0  0  0  0  0  0  0  0  0  0  0  0
    9.4689  -14.8303   26.3739 C   0  0  0  0  0  0  0  0  0  0  0  0
    9.1765  -14.9385   24.9212 C   0  0  0  0  0  0  0  0  0  0  0  0
    9.9874  -15.9802   24.2387 C   0  0  2  0  0  0  0  0  0  0  0  0
    9.5228  -16.0989   22.8704 N   0  0  0  0  0  0  0  0  0  0  0  0
   10.0381  -17.2803   24.8840 C   0  0  0  0  0  0  0  0  0  0  0  0
    8.9707  -17.9261   25.0302 O   0  0  0  0  0  0  0  0  0  0  0  0
   10.4463  -14.0049   26.8434 C   0  0  0  0  0  0  0  0  0  0  0  0
   10.6987  -13.9220   28.1970 C   0  0  0  0  0  0  0  0  0  0  0  0
   12.6910  -19.8203   25.5198 C   0  0  0  0  0  0  0  0  0  0  0  0
   11.3852  -19.1586   25.8998 C   0  0  2  0  0  0  0  0  0  0  0  0
   11.2374  -17.8505   25.3548 N   0  0  0  0  0  0  0  0  0  0  0  0
   11.3452  -19.0835   27.3789 C   0  0  0  0  0  0  0  0  0  0  0  0
   11.1893  -20.1278   28.0563 O   0  0  0  0  0  0  0  0  0  0  0  0
   11.4754  -17.8844   28.0625 O   0  0  0  0  0  0  0  0  0  0  0  0
  2  1  1  6
  3  2  1  0
  4  3  1  0
  5  4  2  0
  6  5  1  0
  7  6  1  0
  7  8  2  0
  8  4  1  0
  9 18  1  0
  9  2  1  0
 10  9  2  0
 12 11  1  0
 13 12  2  0
 14 13  1  0
 15 21  1  0
 15 14  2  0
 17 16  1  1
 16 15  1  0
 17 18  1  0
 19 25  1  0
 19 17  1  0
 20 19  2  0
 21 22  2  0
 22 12  1  0
 24 23  1  1
 24 26  1  0
 24 25  1  0
 26 28  1  0
 27 26  2  0
M  END
$$$$
