HYA.pdb
     RDKit          3D

 28 29  0  0  1  0  0  0  0  0999 V2000
    8.7930  -17.9095   19.6435 N   0  0  0  0  0  0  0  0  0  0  0  0
   10.0177  -17.1697   19.7511 C   0  0  1  0  0  0  0  0  0  0  0  0
   10.2693  -16.3998   18.4712 C   0  0  0  0  0  0  0  0  0  0  0  0
   10.2130  -17.3298   17.3010 C   0  0  0  0  0  0  0  0  0  0  0  0
   11.2951  -17.9841   16.7538 C   0  0  0  0  0  0  0  0  0  0  0  0
   10.8647  -18.7291   15.7215 N   0  0  0  0  0  0  0  0  0  0  0  0
    9.5547  -18.5440   15.6293 C   0  0  0  0  0  0  0  0  0  0  0  0
    9.1441  -17.6959   16.5827 N   0  0  0  0  0  0  0  0  0  0  0  0
    9.9850  -16.2729   20.9301 C   0  0  0  0  0  0  0  0  0  0  0  0
   11.0276  -15.6192   21.2496 O   0  0  0  0  0  0  0  0  0  0  0  0
    6.9280  -11.6710   27.7932 O   0  0  0  0  0  0  0  0  0  0  0  0
    7.0827  -12.3726   26.6101 C   0  0  0  0  0  0  0  0  0  0  0  0
    7.7281  -11.8677   25.5027 C   0  0  0  0  0  0  0  0  0  0  0  0
    7.8478  -12.6200   24.3537 C   0  0  0  0  0  0  0  0  0  0  0  0
    7.3237  -13.8952   24.2879 C   0  0  0  0  0  0  0  0  0  0  0  0
    7.4658  -14.6860   23.0382 C   0  0  0  0  0  0  0  0  0  0  0  0
    8.7546  -15.4214   22.9562 C   0  0  2  0  0  0  0  0  0  0  0  0
    8.7897  -16.1454   21.7006 N   0  0  0  0  0  0  0  0  0  0  0  0
    9.0653  -16.2997   24.0704 C   0  0  0  0  0  0  0  0  0  0  0  0
    8.2880  -17.2529   24.3255 O   0  0  0  0  0  0  0  0  0  0  0  0
    6.6843  -14.3996   25.3805 C   0  0  0  0  0  0  0  0  0  0  0  0
    6.5655  -13.6454   26.5293 C   0  0  0  0  0  0  0  0  0  0  0  0
   12.1838  -17.0689   25.9850 C   0  0  0  0  0  0  0  0  0  0  0  0
   10.6762  -17.0412   25.8675 C   0  0  2  0  0  0  0  0  0  0  0  0
   10.2051  -16.1280   24.8805 N   0  0  0  0  0  0  0  0  0  0  0  0
   10.1397  -16.6539   27.1930 C   0  0  0  0  0  0  0  0  0  0  0  0
   10.3708  -17.3695   28.1971 O   0  0  0  0  0  0  0  0  0  0  0  0
    9.3769  -15.5109   27.3771 O   0  0  0  0  0  0  0  0  0  0  0  0
  2  1  1  6
  3  2  1  0
  4  3  1  0
  5  4  2  0
  6  5  1  0
  7  6  1  0
  7  8  2  0
  8  4  1  0
  9 18  1  0
  9  2  1  0
 10  9  2  0
 12 11  1  0
 13 12  2  0
 14 13  1  0
 15 21  1  0
 15 14  2  0
 17 16  1  1
 16 15  1  0
 17 18  1  0
 19 25  1  0
 19 17  1  0
 20 19  2  0
 21 22  2  0
 22 12  1  0
 24 23  1  1
 24 26  1  0
 24 25  1  0
 26 28  1  0
 27 26  2  0
M  END
$$$$
