HYA.pdb
     RDKit          3D

 28 29  0  0  1  0  0  0  0  0999 V2000
   11.0416  -14.7752   19.1905 N   0  0  0  0  0  0  0  0  0  0  0  0
    9.6704  -14.6825   19.6028 C   0  0  1  0  0  0  0  0  0  0  0  0
    8.8474  -15.7412   18.8983 C   0  0  0  0  0  0  0  0  0  0  0  0
    8.4058  -15.2340   17.5623 C   0  0  0  0  0  0  0  0  0  0  0  0
    8.6393  -13.9654   17.0777 C   0  0  0  0  0  0  0  0  0  0  0  0
    8.0987  -13.8721   15.8510 N   0  0  0  0  0  0  0  0  0  0  0  0
    7.5456  -15.0468   15.5806 C   0  0  0  0  0  0  0  0  0  0  0  0
    7.7242  -15.8849   16.6114 N   0  0  0  0  0  0  0  0  0  0  0  0
    9.5587  -14.7949   21.0760 C   0  0  0  0  0  0  0  0  0  0  0  0
   10.4357  -15.4498   21.7229 O   0  0  0  0  0  0  0  0  0  0  0  0
    6.9033  -12.4645   29.1916 O   0  0  0  0  0  0  0  0  0  0  0  0
    7.0418  -12.6080   27.8219 C   0  0  0  0  0  0  0  0  0  0  0  0
    7.9794  -11.9293   27.0748 C   0  0  0  0  0  0  0  0  0  0  0  0
    8.0647  -12.1183   25.7119 C   0  0  0  0  0  0  0  0  0  0  0  0
    7.2126  -12.9915   25.0664 C   0  0  0  0  0  0  0  0  0  0  0  0
    7.3244  -13.1779   23.5967 C   0  0  0  0  0  0  0  0  0  0  0  0
    8.3943  -14.1338   23.2093 C   0  0  2  0  0  0  0  0  0  0  0  0
    8.4730  -14.1713   21.7621 N   0  0  0  0  0  0  0  0  0  0  0  0
    8.2880  -15.4742   23.7580 C   0  0  0  0  0  0  0  0  0  0  0  0
    7.3166  -16.1935   23.4162 O   0  0  0  0  0  0  0  0  0  0  0  0
    6.2832  -13.6655   25.8005 C   0  0  0  0  0  0  0  0  0  0  0  0
    6.1994  -13.4751   27.1642 C   0  0  0  0  0  0  0  0  0  0  0  0
   10.5086  -18.0306   25.1930 C   0  0  0  0  0  0  0  0  0  0  0  0
    9.1861  -17.2993   25.2538 C   0  0  2  0  0  0  0  0  0  0  0  0
    9.2309  -16.0046   24.6606 N   0  0  0  0  0  0  0  0  0  0  0  0
    8.8192  -17.1737   26.6836 C   0  0  0  0  0  0  0  0  0  0  0  0
    8.6967  -16.0383   27.2028 O   0  0  0  0  0  0  0  0  0  0  0  0
    8.6005  -18.2793   27.4910 O   0  0  0  0  0  0  0  0  0  0  0  0
  2  1  1  1
  3  2  1  0
  4  3  1  0
  5  4  2  0
  6  5  1  0
  7  6  1  0
  7  8  2  0
  8  4  1  0
  9 18  1  0
  9  2  1  0
 10  9  2  0
 12 11  1  0
 13 12  2  0
 14 13  1  0
 15 21  1  0
 15 14  2  0
 17 16  1  6
 16 15  1  0
 17 18  1  0
 19 25  1  0
 19 17  1  0
 20 19  2  0
 21 22  2  0
 22 12  1  0
 24 23  1  1
 24 26  1  0
 24 25  1  0
 26 28  1  0
 27 26  2  0
M  END
$$$$
