HYA.pdb
     RDKit          3D

 28 29  0  0  1  0  0  0  0  0999 V2000
   11.3647  -13.9160   19.2438 N   0  0  0  0  0  0  0  0  0  0  0  0
   10.0117  -14.0673   19.6967 C   0  0  1  0  0  0  0  0  0  0  0  0
    9.3358  -15.1896   18.9364 C   0  0  0  0  0  0  0  0  0  0  0  0
    9.0889  -14.7672   17.5229 C   0  0  0  0  0  0  0  0  0  0  0  0
    8.8378  -13.4762   17.1122 C   0  0  0  0  0  0  0  0  0  0  0  0
    8.6665  -13.4791   15.7794 N   0  0  0  0  0  0  0  0  0  0  0  0
    8.8067  -14.7338   15.3731 C   0  0  0  0  0  0  0  0  0  0  0  0
    9.0638  -15.5283   16.4217 N   0  0  0  0  0  0  0  0  0  0  0  0
    9.9728  -14.2983   21.1597 C   0  0  0  0  0  0  0  0  0  0  0  0
   11.0496  -14.5644   21.7812 O   0  0  0  0  0  0  0  0  0  0  0  0
    6.8029  -12.6827   29.2472 O   0  0  0  0  0  0  0  0  0  0  0  0
    6.9697  -12.8909   27.8890 C   0  0  0  0  0  0  0  0  0  0  0  0
    7.2843  -14.1136   27.3377 C   0  0  0  0  0  0  0  0  0  0  0  0
    7.4366  -14.2532   25.9748 C   0  0  0  0  0  0  0  0  0  0  0  0
    7.2772  -13.1710   25.1329 C   0  0  0  0  0  0  0  0  0  0  0  0
    7.4466  -13.3470   23.6674 C   0  0  0  0  0  0  0  0  0  0  0  0
    8.6730  -14.1058   23.3086 C   0  0  2  0  0  0  0  0  0  0  0  0
    8.7336  -14.2221   21.8647 N   0  0  0  0  0  0  0  0  0  0  0  0
    8.8339  -15.4033   23.9408 C   0  0  0  0  0  0  0  0  0  0  0  0
    8.6910  -15.4925   25.1856 O   0  0  0  0  0  0  0  0  0  0  0  0
    6.9660  -11.9592   25.6728 C   0  0  0  0  0  0  0  0  0  0  0  0
    6.8140  -11.8214   27.0369 C   0  0  0  0  0  0  0  0  0  0  0  0
    9.7101  -18.9080   22.7291 C   0  0  0  0  0  0  0  0  0  0  0  0
    9.4861  -17.8365   23.7728 C   0  0  2  0  0  0  0  0  0  0  0  0
    9.1446  -16.5705   23.2156 N   0  0  0  0  0  0  0  0  0  0  0  0
   10.7416  -17.7106   24.5491 C   0  0  0  0  0  0  0  0  0  0  0  0
   11.4420  -16.6749   24.4462 O   0  0  0  0  0  0  0  0  0  0  0  0
   11.1868  -18.7082   25.4027 O   0  0  0  0  0  0  0  0  0  0  0  0
  2  1  1  6
  3  2  1  0
  4  3  1  0
  5  4  2  0
  6  5  1  0
  7  6  1  0
  7  8  2  0
  8  4  1  0
  9 18  1  0
  9  2  1  0
 10  9  2  0
 12 11  1  0
 13 12  2  0
 14 13  1  0
 15 21  1  0
 15 14  2  0
 17 16  1  6
 16 15  1  0
 17 18  1  0
 19 25  1  0
 19 17  1  0
 20 19  2  0
 21 22  2  0
 22 12  1  0
 24 23  1  6
 24 26  1  0
 24 25  1  0
 26 28  1  0
 27 26  2  0
M  END
$$$$
