HYA.pdb
     RDKit          3D

 28 29  0  0  1  0  0  0  0  0999 V2000
   11.3854  -19.3200   15.5907 N   0  0  0  0  0  0  0  0  0  0  0  0
   10.2999  -19.2452   16.5261 C   0  0  1  0  0  0  0  0  0  0  0  0
   10.2698  -20.4946   17.3820 C   0  0  0  0  0  0  0  0  0  0  0  0
    9.6279  -21.6129   16.6240 C   0  0  0  0  0  0  0  0  0  0  0  0
    9.0929  -21.5101   15.3584 C   0  0  0  0  0  0  0  0  0  0  0  0
    8.6073  -22.7115   15.0025 N   0  0  0  0  0  0  0  0  0  0  0  0
    8.8334  -23.5367   16.0158 C   0  0  0  0  0  0  0  0  0  0  0  0
    9.4531  -22.8833   17.0087 N   0  0  0  0  0  0  0  0  0  0  0  0
   10.4052  -18.0199   17.3523 C   0  0  0  0  0  0  0  0  0  0  0  0
   11.5321  -17.4453   17.4806 O   0  0  0  0  0  0  0  0  0  0  0  0
    7.5593  -10.8124   21.6277 O   0  0  0  0  0  0  0  0  0  0  0  0
    7.6258  -12.0177   20.9504 C   0  0  0  0  0  0  0  0  0  0  0  0
    7.1336  -13.2027   21.4519 C   0  0  0  0  0  0  0  0  0  0  0  0
    7.2321  -14.3697   20.7248 C   0  0  0  0  0  0  0  0  0  0  0  0
    7.8258  -14.3764   19.4788 C   0  0  0  0  0  0  0  0  0  0  0  0
    7.9198  -15.6472   18.7148 C   0  0  0  0  0  0  0  0  0  0  0  0
    9.2805  -16.2442   18.7401 C   0  0  2  0  0  0  0  0  0  0  0  0
    9.2479  -17.4899   17.9991 N   0  0  0  0  0  0  0  0  0  0  0  0
    9.8737  -16.4360   20.0517 C   0  0  0  0  0  0  0  0  0  0  0  0
   10.1204  -15.4273   20.7585 O   0  0  0  0  0  0  0  0  0  0  0  0
    8.3144  -13.2071   18.9779 C   0  0  0  0  0  0  0  0  0  0  0  0
    8.2150  -12.0403   19.7068 C   0  0  0  0  0  0  0  0  0  0  0  0
   10.6300  -19.4081   22.2815 C   0  0  0  0  0  0  0  0  0  0  0  0
   10.7994  -17.9760   21.8254 C   0  0  2  0  0  0  0  0  0  0  0  0
   10.1856  -17.7094   20.5676 N   0  0  0  0  0  0  0  0  0  0  0  0
   12.2545  -17.7154   21.7287 C   0  0  0  0  0  0  0  0  0  0  0  0
   12.7577  -17.3630   20.6349 O   0  0  0  0  0  0  0  0  0  0  0  0
   13.1035  -17.8464   22.8169 O   0  0  0  0  0  0  0  0  0  0  0  0
  2  1  1  6
  3  2  1  0
  4  3  1  0
  5  4  2  0
  6  5  1  0
  7  6  1  0
  7  8  2  0
  8  4  1  0
  9 18  1  0
  9  2  1  0
 10  9  2  0
 12 11  1  0
 13 12  2  0
 14 13  1  0
 15 21  1  0
 15 14  2  0
 17 16  1  1
 16 15  1  0
 17 18  1  0
 19 25  1  0
 19 17  1  0
 20 19  2  0
 21 22  2  0
 22 12  1  0
 24 23  1  6
 24 26  1  0
 24 25  1  0
 26 28  1  0
 27 26  2  0
M  END
$$$$
