HYA.pdb
     RDKit          3D

 28 29  0  0  1  0  0  0  0  0999 V2000
   10.8414  -14.6485   19.9536 N   0  0  0  0  0  0  0  0  0  0  0  0
    9.7282  -14.6155   20.8582 C   0  0  1  0  0  0  0  0  0  0  0  0
    8.5616  -15.3808   20.2684 C   0  0  0  0  0  0  0  0  0  0  0  0
    7.9347  -14.5818   19.1702 C   0  0  0  0  0  0  0  0  0  0  0  0
    8.3635  -13.3434   18.7448 C   0  0  0  0  0  0  0  0  0  0  0  0
    7.5626  -12.9356   17.7458 N   0  0  0  0  0  0  0  0  0  0  0  0
    6.6629  -13.8912   17.5553 C   0  0  0  0  0  0  0  0  0  0  0  0
    6.8763  -14.8983   18.4138 N   0  0  0  0  0  0  0  0  0  0  0  0
   10.1164  -15.1493   22.1848 C   0  0  0  0  0  0  0  0  0  0  0  0
   10.9834  -16.0764   22.2580 O   0  0  0  0  0  0  0  0  0  0  0  0
   10.4289  -15.7024   31.0273 O   0  0  0  0  0  0  0  0  0  0  0  0
   10.1043  -15.3720   29.7230 C   0  0  0  0  0  0  0  0  0  0  0  0
    9.1097  -15.9965   29.0028 C   0  0  0  0  0  0  0  0  0  0  0  0
    8.8367  -15.6186   27.7055 C   0  0  0  0  0  0  0  0  0  0  0  0
    9.5537  -14.6065   27.1000 C   0  0  0  0  0  0  0  0  0  0  0  0
    9.2404  -14.2174   25.7008 C   0  0  0  0  0  0  0  0  0  0  0  0
    9.8808  -15.1010   24.6920 C   0  0  2  0  0  0  0  0  0  0  0  0
    9.5198  -14.6248   23.3710 N   0  0  0  0  0  0  0  0  0  0  0  0
    9.6147  -16.5227   24.8217 C   0  0  0  0  0  0  0  0  0  0  0  0
    8.4426  -16.9383   24.6446 O   0  0  0  0  0  0  0  0  0  0  0  0
   10.5387  -13.9852   27.8078 C   0  0  0  0  0  0  0  0  0  0  0  0
   10.8105  -14.3647   29.1058 C   0  0  0  0  0  0  0  0  0  0  0  0
   11.2330  -19.7294   24.4386 C   0  0  0  0  0  0  0  0  0  0  0  0
   10.4219  -18.8522   25.3661 C   0  0  2  0  0  0  0  0  0  0  0  0
   10.6182  -17.4595   25.1387 N   0  0  0  0  0  0  0  0  0  0  0  0
   10.8257  -19.1870   26.7516 C   0  0  0  0  0  0  0  0  0  0  0  0
   10.5534  -20.3144   27.2296 O   0  0  0  0  0  0  0  0  0  0  0  0
   11.5058  -18.2901   27.5610 O   0  0  0  0  0  0  0  0  0  0  0  0
  2  1  1  6
  3  2  1  0
  4  3  1  0
  5  4  2  0
  6  5  1  0
  7  6  1  0
  7  8  2  0
  8  4  1  0
  9 18  1  0
  9  2  1  0
 10  9  2  0
 12 11  1  0
 13 12  2  0
 14 13  1  0
 15 21  1  0
 15 14  2  0
 17 16  1  1
 16 15  1  0
 17 18  1  0
 19 25  1  0
 19 17  1  0
 20 19  2  0
 21 22  2  0
 22 12  1  0
 24 23  1  6
 24 26  1  0
 24 25  1  0
 26 28  1  0
 27 26  2  0
M  END
$$$$
