HYA.pdb
     RDKit          3D

 28 29  0  0  1  0  0  0  0  0999 V2000
    6.0171  -19.2313   20.4715 N   0  0  0  0  0  0  0  0  0  0  0  0
    5.5923  -18.2117   21.3873 C   0  0  1  0  0  0  0  0  0  0  0  0
    4.4831  -18.7425   22.2718 C   0  0  0  0  0  0  0  0  0  0  0  0
    3.2802  -19.0591   21.4411 C   0  0  0  0  0  0  0  0  0  0  0  0
    3.2057  -18.9332   20.0710 C   0  0  0  0  0  0  0  0  0  0  0  0
    1.9770  -19.3065   19.6753 N   0  0  0  0  0  0  0  0  0  0  0  0
    1.3073  -19.6541   20.7660 C   0  0  0  0  0  0  0  0  0  0  0  0
    2.0864  -19.5090   21.8471 N   0  0  0  0  0  0  0  0  0  0  0  0
    6.7377  -17.7163   22.1861 C   0  0  0  0  0  0  0  0  0  0  0  0
    7.6981  -18.5033   22.4598 O   0  0  0  0  0  0  0  0  0  0  0  0
    8.5789  -12.6381   17.9628 O   0  0  0  0  0  0  0  0  0  0  0  0
    8.3578  -13.0498   19.2657 C   0  0  0  0  0  0  0  0  0  0  0  0
    7.1190  -13.0418   19.8684 C   0  0  0  0  0  0  0  0  0  0  0  0
    6.9672  -13.4657   21.1713 C   0  0  0  0  0  0  0  0  0  0  0  0
    8.0529  -13.9072   21.9003 C   0  0  0  0  0  0  0  0  0  0  0  0
    7.8635  -14.3589   23.3030 C   0  0  0  0  0  0  0  0  0  0  0  0
    7.8503  -15.8384   23.4429 C   0  0  2  0  0  0  0  0  0  0  0  0
    6.7605  -16.3643   22.6443 N   0  0  0  0  0  0  0  0  0  0  0  0
    7.7962  -16.3551   24.7990 C   0  0  0  0  0  0  0  0  0  0  0  0
    6.8292  -16.0314   25.5326 O   0  0  0  0  0  0  0  0  0  0  0  0
    9.2807  -13.9172   21.3092 C   0  0  0  0  0  0  0  0  0  0  0  0
    9.4307  -13.4927   20.0053 C   0  0  0  0  0  0  0  0  0  0  0  0
    8.7395  -19.2502   26.6873 C   0  0  0  0  0  0  0  0  0  0  0  0
    8.8106  -17.7399   26.6506 C   0  0  2  0  0  0  0  0  0  0  0  0
    8.7851  -17.2070   25.3294 N   0  0  0  0  0  0  0  0  0  0  0  0
   10.0727  -17.3435   27.3174 C   0  0  0  0  0  0  0  0  0  0  0  0
   10.9617  -16.7396   26.6703 O   0  0  0  0  0  0  0  0  0  0  0  0
   10.3205  -17.6163   28.6539 O   0  0  0  0  0  0  0  0  0  0  0  0
  2  1  1  6
  3  2  1  0
  4  3  1  0
  5  4  2  0
  6  5  1  0
  7  6  1  0
  7  8  2  0
  8  4  1  0
  9 18  1  0
  9  2  1  0
 10  9  2  0
 12 11  1  0
 13 12  2  0
 14 13  1  0
 15 21  1  0
 15 14  2  0
 17 16  1  1
 16 15  1  0
 17 18  1  0
 19 25  1  0
 19 17  1  0
 20 19  2  0
 21 22  2  0
 22 12  1  0
 24 23  1  6
 24 26  1  0
 24 25  1  0
 26 28  1  0
 27 26  2  0
M  END
$$$$
