CCT.pdb
     RDKit          3D

 20 19  0  0  1  0  0  0  0  0999 V2000
    8.5628  -16.6714   18.0130 N   0  0  0  0  0  0  0  0  0  0  0  0
    7.8439  -16.5558   19.2663 C   0  0  1  0  0  0  0  0  0  0  0  0
    7.0636  -17.8240   19.5506 C   0  0  0  0  0  0  0  0  0  0  0  0
    8.2863  -19.1839   19.5761 S   0  0  0  0  0  0  0  0  0  0  0  0
    8.7558  -16.2026   20.3863 C   0  0  0  0  0  0  0  0  0  0  0  0
   10.0005  -16.2285   20.2139 O   0  0  0  0  0  0  0  0  0  0  0  0
    8.2806  -15.8256   21.6810 N   0  0  0  0  0  0  0  0  0  0  0  0
    9.2170  -15.5422   22.7511 C   0  0  1  0  0  0  0  0  0  0  0  0
    8.5512  -14.6720   23.8160 C   0  0  0  0  0  0  0  0  0  0  0  0
    7.0519  -15.4600   24.4625 S   0  0  0  0  0  0  0  0  0  0  0  0
    9.6730  -16.7843   23.4213 C   0  0  0  0  0  0  0  0  0  0  0  0
    9.0305  -17.8467   23.2305 O   0  0  0  0  0  0  0  0  0  0  0  0
   13.3141  -16.8529   22.5540 C   0  0  0  0  0  0  0  0  0  0  0  0
   12.4480  -18.0202   22.8766 C   0  0  1  0  0  0  0  0  0  0  0  0
   13.2326  -19.1888   22.9167 O   0  0  0  0  0  0  0  0  0  0  0  0
   11.7487  -17.9252   24.2033 C   0  0  2  0  0  0  0  0  0  0  0  0
   10.8032  -16.8438   24.2736 N   0  0  0  0  0  0  0  0  0  0  0  0
   12.6984  -17.8314   25.3347 C   0  0  0  0  0  0  0  0  0  0  0  0
   12.8473  -16.7519   25.9637 O   0  0  0  0  0  0  0  0  0  0  0  0
   13.4590  -18.9166   25.7485 O   0  0  0  0  0  0  0  0  0  0  0  0
  2  3  1  0
  2  1  1  6
  4  3  1  0
  5  6  2  0
  5  2  1  0
  7  5  1  0
  8  7  1  0
  9 10  1  0
  8  9  1  1
 11  8  1  0
 11 12  2  0
 14 13  1  1
 14 15  1  0
 16 17  1  6
 16 14  1  0
 17 11  1  0
 18 16  1  0
 19 18  2  0
 20 18  1  0
M  END
$$$$
