CCT.pdb
     RDKit          3D

 20 19  0  0  1  0  0  0  0  0999 V2000
    8.2933  -15.1736   18.2977 N   0  0  0  0  0  0  0  0  0  0  0  0
    8.9229  -14.7202   19.5221 C   0  0  1  0  0  0  0  0  0  0  0  0
    9.2876  -13.2524   19.4204 C   0  0  0  0  0  0  0  0  0  0  0  0
   11.0193  -13.1933   18.8352 S   0  0  0  0  0  0  0  0  0  0  0  0
    8.0707  -14.9994   20.7080 C   0  0  0  0  0  0  0  0  0  0  0  0
    6.8331  -14.7865   20.6554 O   0  0  0  0  0  0  0  0  0  0  0  0
    8.5969  -15.5098   21.9355 N   0  0  0  0  0  0  0  0  0  0  0  0
    7.7225  -15.7343   23.0702 C   0  0  1  0  0  0  0  0  0  0  0  0
    7.5928  -17.2315   23.3461 C   0  0  0  0  0  0  0  0  0  0  0  0
    5.9734  -17.8562   22.8229 S   0  0  0  0  0  0  0  0  0  0  0  0
    8.2550  -15.1051   24.3032 C   0  0  0  0  0  0  0  0  0  0  0  0
    9.4958  -15.1098   24.4986 O   0  0  0  0  0  0  0  0  0  0  0  0
    7.2055  -11.5476   26.2144 C   0  0  0  0  0  0  0  0  0  0  0  0
    7.1727  -12.7887   27.0364 C   0  0  1  0  0  0  0  0  0  0  0  0
    5.8473  -13.2556   27.1270 O   0  0  0  0  0  0  0  0  0  0  0  0
    7.9912  -13.9207   26.4825 C   0  0  2  0  0  0  0  0  0  0  0  0
    7.4374  -14.4922   25.2846 N   0  0  0  0  0  0  0  0  0  0  0  0
    8.2254  -14.9873   27.4817 C   0  0  0  0  0  0  0  0  0  0  0  0
    7.7669  -16.1460   27.3073 O   0  0  0  0  0  0  0  0  0  0  0  0
    8.9526  -14.7611   28.6424 O   0  0  0  0  0  0  0  0  0  0  0  0
  2  3  1  0
  2  1  1  6
  4  3  1  0
  5  6  2  0
  5  2  1  0
  7  5  1  0
  8  7  1  0
  9 10  1  0
  8  9  1  1
 11  8  1  0
 11 12  2  0
 14 13  1  6
 14 15  1  0
 16 17  1  6
 16 14  1  0
 17 11  1  0
 18 16  1  0
 19 18  2  0
 20 18  1  0
M  END
$$$$
