CCT.pdb
     RDKit          3D

 20 19  0  0  1  0  0  0  0  0999 V2000
    8.4753  -17.2041   17.2434 N   0  0  0  0  0  0  0  0  0  0  0  0
    7.6853  -17.3489   18.4500 C   0  0  1  0  0  0  0  0  0  0  0  0
    7.3747  -18.8096   18.7101 C   0  0  0  0  0  0  0  0  0  0  0  0
    6.0195  -19.2575   17.5665 S   0  0  0  0  0  0  0  0  0  0  0  0
    8.3489  -16.7066   19.6153 C   0  0  0  0  0  0  0  0  0  0  0  0
    9.5957  -16.5484   19.6186 O   0  0  0  0  0  0  0  0  0  0  0  0
    7.6265  -16.2481   20.7607 N   0  0  0  0  0  0  0  0  0  0  0  0
    8.3231  -15.6008   21.8554 C   0  0  1  0  0  0  0  0  0  0  0  0
    7.3349  -14.8167   22.7174 C   0  0  0  0  0  0  0  0  0  0  0  0
    8.1343  -14.1776   24.2137 S   0  0  0  0  0  0  0  0  0  0  0  0
    8.9892  -16.5883   22.7391 C   0  0  0  0  0  0  0  0  0  0  0  0
    8.3419  -17.5957   23.1182 O   0  0  0  0  0  0  0  0  0  0  0  0
   13.1283  -18.5720   24.6292 C   0  0  0  0  0  0  0  0  0  0  0  0
   12.4542  -17.5086   23.8345 C   0  0  1  0  0  0  0  0  0  0  0  0
   12.7176  -17.7086   22.4657 O   0  0  0  0  0  0  0  0  0  0  0  0
   10.9594  -17.4758   23.9851 C   0  0  2  0  0  0  0  0  0  0  0  0
   10.3277  -16.4608   23.1858 N   0  0  0  0  0  0  0  0  0  0  0  0
   10.5390  -17.3320   25.3970 C   0  0  0  0  0  0  0  0  0  0  0  0
   10.2777  -16.1999   25.8798 O   0  0  0  0  0  0  0  0  0  0  0  0
   10.4151  -18.4260   26.2426 O   0  0  0  0  0  0  0  0  0  0  0  0
  2  3  1  0
  2  1  1  6
  4  3  1  0
  5  6  2  0
  5  2  1  0
  7  5  1  0
  8  7  1  0
  9 10  1  0
  8  9  1  1
 11  8  1  0
 11 12  2  0
 14 13  1  1
 14 15  1  0
 16 17  1  6
 16 14  1  0
 17 11  1  0
 18 16  1  0
 19 18  2  0
 20 18  1  0
M  END
$$$$
