KYS.pdb
     RDKit          3D

 28 28  0  0  1  0  0  0  0  0999 V2000
    8.9087  -18.1366   20.9640 N   0  0  0  0  0  0  0  0  0  0  0  0
   10.1305  -17.4398   21.0882 C   0  0  1  0  0  0  0  0  0  0  0  0
   10.8022  -16.9876   19.8499 C   0  0  0  0  0  0  0  0  0  0  0  0
   10.9407  -17.9110   18.7214 C   0  0  0  0  0  0  0  0  0  0  0  0
   12.2935  -18.3057   18.2716 C   0  0  0  0  0  0  0  0  0  0  0  0
   12.3062  -19.1993   17.0530 C   0  0  0  0  0  0  0  0  0  0  0  0
   13.6985  -19.4796   16.7334 N   0  0  0  0  0  0  0  0  0  0  0  0
   10.0408  -16.4045   22.1364 C   0  0  0  0  0  0  0  0  0  0  0  0
   11.0089  -15.6491   22.4357 O   0  0  0  0  0  0  0  0  0  0  0  0
    5.5229  -11.0781   27.5370 O   0  0  0  0  0  0  0  0  0  0  0  0
    5.9198  -12.0155   26.5841 C   0  0  0  0  0  0  0  0  0  0  0  0
    5.5151  -13.3261   26.6444 C   0  0  0  0  0  0  0  0  0  0  0  0
    5.9610  -14.1754   25.6560 C   0  0  0  0  0  0  0  0  0  0  0  0
    6.7780  -13.7262   24.6516 C   0  0  0  0  0  0  0  0  0  0  0  0
    7.2232  -14.7005   23.6262 C   0  0  0  0  0  0  0  0  0  0  0  0
    8.6400  -15.1874   23.8375 C   0  0  2  0  0  0  0  0  0  0  0  0
    8.8504  -16.2297   22.8443 N   0  0  0  0  0  0  0  0  0  0  0  0
    8.8376  -15.7302   25.2000 C   0  0  0  0  0  0  0  0  0  0  0  0
    8.7826  -15.0205   26.2355 O   0  0  0  0  0  0  0  0  0  0  0  0
    7.1734  -12.4264   24.6004 C   0  0  0  0  0  0  0  0  0  0  0  0
    6.7458  -11.5536   25.5714 C   0  0  0  0  0  0  0  0  0  0  0  0
    8.1640  -19.6066   25.9747 O   0  0  0  0  0  0  0  0  0  0  0  0
    8.1839  -18.7201   27.0463 C   0  0  0  0  0  0  0  0  0  0  0  0
    9.2392  -17.6770   26.7652 C   0  0  2  0  0  0  0  0  0  0  0  0
    9.1087  -17.1235   25.4320 N   0  0  0  0  0  0  0  0  0  0  0  0
   10.5758  -18.2094   27.0348 C   0  0  0  0  0  0  0  0  0  0  0  0
   11.4798  -18.2410   26.1702 O   0  0  0  0  0  0  0  0  0  0  0  0
   10.8690  -18.7040   28.2978 O   0  0  0  0  0  0  0  0  0  0  0  0
  2  1  1  6
  2  3  1  0
  3  4  1  0
  4  5  1  0
  5  6  1  0
  6  7  1  0
  8  2  1  0
  9  8  2  0
 10 11  1  0
 11 21  2  0
 11 12  1  0
 12 13  2  0
 13 14  1  0
 14 15  1  0
 16 15  1  1
 16 17  1  0
 17  8  1  0
 18 16  1  0
 18 19  2  0
 20 14  2  0
 21 20  1  0
 22 23  1  0
 24 23  1  6
 24 25  1  0
 25 18  1  0
 26 24  1  0
 27 26  2  0
 28 26  1  0
M  END
$$$$
