KYS.pdb
     RDKit          3D

 28 28  0  0  1  0  0  0  0  0999 V2000
    9.7632  -18.1580   23.8640 N   0  0  0  0  0  0  0  0  0  0  0  0
    8.4940  -18.4365   24.4162 C   0  0  1  0  0  0  0  0  0  0  0  0
    8.4305  -19.3137   25.6061 C   0  0  0  0  0  0  0  0  0  0  0  0
    8.4764  -20.7680   25.4382 C   0  0  0  0  0  0  0  0  0  0  0  0
    9.4510  -21.5563   26.2235 C   0  0  0  0  0  0  0  0  0  0  0  0
    9.3824  -23.0464   25.9819 C   0  0  0  0  0  0  0  0  0  0  0  0
   10.3638  -23.6745   26.8545 N   0  0  0  0  0  0  0  0  0  0  0  0
    7.6900  -17.2043   24.5337 C   0  0  0  0  0  0  0  0  0  0  0  0
    6.5209  -17.1940   25.0138 O   0  0  0  0  0  0  0  0  0  0  0  0
    9.8624  -14.5941   29.9724 O   0  0  0  0  0  0  0  0  0  0  0  0
    9.4676  -14.3385   28.6598 C   0  0  0  0  0  0  0  0  0  0  0  0
    8.4019  -13.5231   28.3692 C   0  0  0  0  0  0  0  0  0  0  0  0
    8.0903  -13.3328   27.0411 C   0  0  0  0  0  0  0  0  0  0  0  0
    8.8184  -13.9364   26.0493 C   0  0  0  0  0  0  0  0  0  0  0  0
    8.4193  -13.6899   24.6425 C   0  0  0  0  0  0  0  0  0  0  0  0
    7.4709  -14.7348   24.0969 C   0  0  2  0  0  0  0  0  0  0  0  0
    8.2157  -15.9847   24.1038 N   0  0  0  0  0  0  0  0  0  0  0  0
    7.0266  -14.4105   22.7230 C   0  0  0  0  0  0  0  0  0  0  0  0
    6.0742  -13.6285   22.4770 O   0  0  0  0  0  0  0  0  0  0  0  0
    9.8721  -14.7422   26.3470 C   0  0  0  0  0  0  0  0  0  0  0  0
   10.2088  -14.9523   27.6623 C   0  0  0  0  0  0  0  0  0  0  0  0
    8.9426  -13.0384   19.6360 O   0  0  0  0  0  0  0  0  0  0  0  0
    7.5880  -13.1478   19.9320 C   0  0  0  0  0  0  0  0  0  0  0  0
    7.2913  -14.6015   20.2141 C   0  0  2  0  0  0  0  0  0  0  0  0
    7.6636  -14.9757   21.5640 N   0  0  0  0  0  0  0  0  0  0  0  0
    7.8982  -15.4592   19.1951 C   0  0  0  0  0  0  0  0  0  0  0  0
    7.6801  -15.3160   17.9712 O   0  0  0  0  0  0  0  0  0  0  0  0
    8.7540  -16.4792   19.5861 O   0  0  0  0  0  0  0  0  0  0  0  0
  2  1  1  1
  2  3  1  0
  3  4  1  0
  4  5  1  0
  5  6  1  0
  6  7  1  0
  8  2  1  0
  9  8  2  0
 10 11  1  0
 11 21  2  0
 11 12  1  0
 12 13  2  0
 13 14  1  0
 14 15  1  0
 16 15  1  6
 16 17  1  0
 17  8  1  0
 18 16  1  0
 18 19  2  0
 20 14  2  0
 21 20  1  0
 22 23  1  0
 24 23  1  6
 24 25  1  0
 25 18  1  0
 26 24  1  0
 27 26  2  0
 28 26  1  0
M  END
$$$$
