KYS.pdb
     RDKit          3D

 28 28  0  0  1  0  0  0  0  0999 V2000
    7.9328  -16.8466   23.1886 N   0  0  0  0  0  0  0  0  0  0  0  0
    9.1826  -17.4669   22.9719 C   0  0  1  0  0  0  0  0  0  0  0  0
    9.4173  -18.1204   21.6653 C   0  0  0  0  0  0  0  0  0  0  0  0
    8.4553  -19.1042   21.1633 C   0  0  0  0  0  0  0  0  0  0  0  0
    8.9382  -20.4358   20.7372 C   0  0  0  0  0  0  0  0  0  0  0  0
    7.8521  -21.3580   20.2336 C   0  0  0  0  0  0  0  0  0  0  0  0
    8.4924  -22.5958   19.8132 N   0  0  0  0  0  0  0  0  0  0  0  0
   10.2867  -16.5933   23.4146 C   0  0  0  0  0  0  0  0  0  0  0  0
   10.6594  -15.5779   22.7606 O   0  0  0  0  0  0  0  0  0  0  0  0
    7.4874  -12.7861   28.0351 O   0  0  0  0  0  0  0  0  0  0  0  0
    8.5712  -13.6052   27.7209 C   0  0  0  0  0  0  0  0  0  0  0  0
    9.0458  -14.5478   28.5991 C   0  0  0  0  0  0  0  0  0  0  0  0
   10.1214  -15.3080   28.1960 C   0  0  0  0  0  0  0  0  0  0  0  0
   10.6941  -15.1278   26.9641 C   0  0  0  0  0  0  0  0  0  0  0  0
   11.8532  -15.9790   26.6025 C   0  0  0  0  0  0  0  0  0  0  0  0
   12.0768  -16.0842   25.1099 C   0  0  2  0  0  0  0  0  0  0  0  0
   10.9673  -16.8756   24.6003 N   0  0  0  0  0  0  0  0  0  0  0  0
   13.3640  -16.7414   24.7915 C   0  0  0  0  0  0  0  0  0  0  0  0
   13.6783  -17.8790   25.2228 O   0  0  0  0  0  0  0  0  0  0  0  0
   10.2169  -14.1918   26.1013 C   0  0  0  0  0  0  0  0  0  0  0  0
    9.1449  -13.4171   26.4733 C   0  0  0  0  0  0  0  0  0  0  0  0
   16.1076  -15.1313   22.0012 O   0  0  0  0  0  0  0  0  0  0  0  0
   15.9842  -16.5065   22.1694 C   0  0  0  0  0  0  0  0  0  0  0  0
   15.5994  -16.7648   23.6068 C   0  0  2  0  0  0  0  0  0  0  0  0
   14.3527  -16.1136   23.9565 N   0  0  0  0  0  0  0  0  0  0  0  0
   16.6995  -16.4144   24.5065 C   0  0  0  0  0  0  0  0  0  0  0  0
   17.8546  -16.8779   24.3772 O   0  0  0  0  0  0  0  0  0  0  0  0
   16.4683  -15.5321   25.5523 O   0  0  0  0  0  0  0  0  0  0  0  0
  2  1  1  6
  2  3  1  0
  3  4  1  0
  4  5  1  0
  5  6  1  0
  6  7  1  0
  8  2  1  0
  9  8  2  0
 10 11  1  0
 11 21  2  0
 11 12  1  0
 12 13  2  0
 13 14  1  0
 14 15  1  0
 16 15  1  1
 16 17  1  0
 17  8  1  0
 18 16  1  0
 18 19  2  0
 20 14  2  0
 21 20  1  0
 22 23  1  0
 24 23  1  6
 24 25  1  0
 25 18  1  0
 26 24  1  0
 27 26  2  0
 28 26  1  0
M  END
$$$$
