KYS.pdb
     RDKit          3D

 28 28  0  0  1  0  0  0  0  0999 V2000
    7.9278  -16.7531   19.5474 N   0  0  0  0  0  0  0  0  0  0  0  0
    8.8078  -15.6526   19.4570 C   0  0  1  0  0  0  0  0  0  0  0  0
    8.4810  -14.5782   18.4935 C   0  0  0  0  0  0  0  0  0  0  0  0
    8.0919  -14.9253   17.1248 C   0  0  0  0  0  0  0  0  0  0  0  0
    8.0308  -13.8618   16.0985 C   0  0  0  0  0  0  0  0  0  0  0  0
    7.6510  -14.3507   14.7200 C   0  0  0  0  0  0  0  0  0  0  0  0
    7.7673  -13.2204   13.8100 N   0  0  0  0  0  0  0  0  0  0  0  0
    9.1784  -15.1643   20.7996 C   0  0  0  0  0  0  0  0  0  0  0  0
   10.1517  -14.3828   20.9982 O   0  0  0  0  0  0  0  0  0  0  0  0
    7.2492  -12.0731   28.7048 O   0  0  0  0  0  0  0  0  0  0  0  0
    7.2405  -12.6751   27.4472 C   0  0  0  0  0  0  0  0  0  0  0  0
    6.7116  -13.9260   27.2461 C   0  0  0  0  0  0  0  0  0  0  0  0
    6.7503  -14.4347   25.9666 C   0  0  0  0  0  0  0  0  0  0  0  0
    7.2971  -13.7167   24.9353 C   0  0  0  0  0  0  0  0  0  0  0  0
    7.3092  -14.3323   23.5863 C   0  0  0  0  0  0  0  0  0  0  0  0
    8.6186  -15.0111   23.2492 C   0  0  2  0  0  0  0  0  0  0  0  0
    8.4427  -15.5661   21.9158 N   0  0  0  0  0  0  0  0  0  0  0  0
    8.9451  -16.0858   24.2128 C   0  0  0  0  0  0  0  0  0  0  0  0
    8.2155  -17.0935   24.3893 O   0  0  0  0  0  0  0  0  0  0  0  0
    7.8184  -12.4786   25.1444 C   0  0  0  0  0  0  0  0  0  0  0  0
    7.7950  -11.9428   26.4092 C   0  0  0  0  0  0  0  0  0  0  0  0
   11.9235  -17.7900   24.2347 O   0  0  0  0  0  0  0  0  0  0  0  0
   11.8086  -17.7351   25.6198 C   0  0  0  0  0  0  0  0  0  0  0  0
   10.4755  -17.1068   25.9497 C   0  0  2  0  0  0  0  0  0  0  0  0
   10.1342  -16.0475   25.0210 N   0  0  0  0  0  0  0  0  0  0  0  0
   10.4405  -16.6747   27.3477 C   0  0  0  0  0  0  0  0  0  0  0  0
   10.1935  -15.4957   27.6867 O   0  0  0  0  0  0  0  0  0  0  0  0
   10.6897  -17.5993   28.3520 O   0  0  0  0  0  0  0  0  0  0  0  0
  2  1  1  1
  2  3  1  0
  3  4  1  0
  4  5  1  0
  5  6  1  0
  6  7  1  0
  8  2  1  0
  9  8  2  0
 10 11  1  0
 11 21  2  0
 11 12  1  0
 12 13  2  0
 13 14  1  0
 14 15  1  0
 16 15  1  1
 16 17  1  0
 17  8  1  0
 18 16  1  0
 18 19  2  0
 20 14  2  0
 21 20  1  0
 22 23  1  0
 24 23  1  6
 24 25  1  0
 25 18  1  0
 26 24  1  0
 27 26  2  0
 28 26  1  0
M  END
$$$$
