KYS.pdb
     RDKit          3D

 28 28  0  0  1  0  0  0  0  0999 V2000
   10.0319  -16.8525   18.8265 N   0  0  0  0  0  0  0  0  0  0  0  0
    8.9327  -16.9396   19.7084 C   0  0  1  0  0  0  0  0  0  0  0  0
    8.2677  -18.2523   19.8633 C   0  0  0  0  0  0  0  0  0  0  0  0
    8.1068  -19.1256   18.6986 C   0  0  0  0  0  0  0  0  0  0  0  0
    6.8729  -19.9300   18.5626 C   0  0  0  0  0  0  0  0  0  0  0  0
    6.0650  -19.6226   17.3231 C   0  0  0  0  0  0  0  0  0  0  0  0
    6.8078  -20.1356   16.1812 N   0  0  0  0  0  0  0  0  0  0  0  0
    9.2280  -16.2604   20.9850 C   0  0  0  0  0  0  0  0  0  0  0  0
   10.3888  -16.2157   21.4831 O   0  0  0  0  0  0  0  0  0  0  0  0
    6.9758  -11.6017   28.1747 O   0  0  0  0  0  0  0  0  0  0  0  0
    7.0509  -12.1823   26.9092 C   0  0  0  0  0  0  0  0  0  0  0  0
    7.6248  -11.5306   25.8458 C   0  0  0  0  0  0  0  0  0  0  0  0
    7.6506  -12.1882   24.6357 C   0  0  0  0  0  0  0  0  0  0  0  0
    7.1223  -13.4455   24.5016 C   0  0  0  0  0  0  0  0  0  0  0  0
    7.1806  -14.0878   23.1663 C   0  0  0  0  0  0  0  0  0  0  0  0
    8.3844  -14.9862   22.9856 C   0  0  2  0  0  0  0  0  0  0  0  0
    8.2027  -15.6334   21.6952 N   0  0  0  0  0  0  0  0  0  0  0  0
    8.4798  -16.0006   24.0589 C   0  0  0  0  0  0  0  0  0  0  0  0
    7.5705  -16.8345   24.2970 O   0  0  0  0  0  0  0  0  0  0  0  0
    6.5561  -14.0828   25.5607 C   0  0  0  0  0  0  0  0  0  0  0  0
    6.5147  -13.4540   26.7815 C   0  0  0  0  0  0  0  0  0  0  0  0
   12.0710  -17.2428   25.4295 O   0  0  0  0  0  0  0  0  0  0  0  0
   10.9505  -18.0467   25.6108 C   0  0  0  0  0  0  0  0  0  0  0  0
    9.7759  -17.1446   25.9062 C   0  0  2  0  0  0  0  0  0  0  0  0
    9.6342  -16.1005   24.9110 N   0  0  0  0  0  0  0  0  0  0  0  0
    9.8549  -16.6252   27.2725 C   0  0  0  0  0  0  0  0  0  0  0  0
    9.8477  -15.4015   27.5337 O   0  0  0  0  0  0  0  0  0  0  0  0
    9.9421  -17.5144   28.3343 O   0  0  0  0  0  0  0  0  0  0  0  0
  2  1  1  1
  2  3  1  0
  3  4  1  0
  4  5  1  0
  5  6  1  0
  6  7  1  0
  8  2  1  0
  9  8  2  0
 10 11  1  0
 11 21  2  0
 11 12  1  0
 12 13  2  0
 13 14  1  0
 14 15  1  0
 16 15  1  1
 16 17  1  0
 17  8  1  0
 18 16  1  0
 18 19  2  0
 20 14  2  0
 21 20  1  0
 22 23  1  0
 24 23  1  6
 24 25  1  0
 25 18  1  0
 26 24  1  0
 27 26  2  0
 28 26  1  0
M  END
$$$$
