KYS.pdb
     RDKit          3D

 28 28  0  0  1  0  0  0  0  0999 V2000
    6.7208  -15.2614   20.4701 N   0  0  0  0  0  0  0  0  0  0  0  0
    7.9257  -14.5808   20.1897 C   0  0  1  0  0  0  0  0  0  0  0  0
    7.8483  -13.3153   19.4269 C   0  0  0  0  0  0  0  0  0  0  0  0
    7.1134  -13.2756   18.1606 C   0  0  0  0  0  0  0  0  0  0  0  0
    7.8399  -13.5164   16.8948 C   0  0  0  0  0  0  0  0  0  0  0  0
    6.9876  -13.3803   15.6544 C   0  0  0  0  0  0  0  0  0  0  0  0
    7.8030  -13.7872   14.5193 N   0  0  0  0  0  0  0  0  0  0  0  0
    8.7800  -14.5079   21.3910 C   0  0  0  0  0  0  0  0  0  0  0  0
    9.9896  -14.1435   21.3486 O   0  0  0  0  0  0  0  0  0  0  0  0
   10.3954  -14.7448   30.0717 O   0  0  0  0  0  0  0  0  0  0  0  0
    9.8236  -14.6533   28.8033 C   0  0  0  0  0  0  0  0  0  0  0  0
    9.6356  -13.4454   28.1784 C   0  0  0  0  0  0  0  0  0  0  0  0
    9.0624  -13.4597   26.9260 C   0  0  0  0  0  0  0  0  0  0  0  0
    8.6944  -14.6371   26.3290 C   0  0  0  0  0  0  0  0  0  0  0  0
    8.0770  -14.5731   24.9823 C   0  0  0  0  0  0  0  0  0  0  0  0
    9.0432  -14.8973   23.8641 C   0  0  2  0  0  0  0  0  0  0  0  0
    8.2586  -14.8507   22.6397 N   0  0  0  0  0  0  0  0  0  0  0  0
    9.6508  -16.2361   24.0331 C   0  0  0  0  0  0  0  0  0  0  0  0
    9.0009  -17.3046   23.9097 O   0  0  0  0  0  0  0  0  0  0  0  0
    8.8847  -15.8284   26.9558 C   0  0  0  0  0  0  0  0  0  0  0  0
    9.4542  -15.8483   28.2059 C   0  0  0  0  0  0  0  0  0  0  0  0
   13.5459  -17.0406   23.3067 O   0  0  0  0  0  0  0  0  0  0  0  0
   12.5822  -18.0414   23.3724 C   0  0  0  0  0  0  0  0  0  0  0  0
   11.6490  -17.7119   24.5131 C   0  0  2  0  0  0  0  0  0  0  0  0
   11.0427  -16.4051   24.3535 N   0  0  0  0  0  0  0  0  0  0  0  0
   12.3289  -17.8734   25.7992 C   0  0  0  0  0  0  0  0  0  0  0  0
   12.4260  -16.9476   26.6355 O   0  0  0  0  0  0  0  0  0  0  0  0
   12.8954  -19.0989   26.1201 O   0  0  0  0  0  0  0  0  0  0  0  0
  2  1  1  1
  2  3  1  0
  3  4  1  0
  4  5  1  0
  5  6  1  0
  6  7  1  0
  8  2  1  0
  9  8  2  0
 10 11  1  0
 11 21  2  0
 11 12  1  0
 12 13  2  0
 13 14  1  0
 14 15  1  0
 16 15  1  1
 16 17  1  0
 17  8  1  0
 18 16  1  0
 18 19  2  0
 20 14  2  0
 21 20  1  0
 22 23  1  0
 24 23  1  6
 24 25  1  0
 25 18  1  0
 26 24  1  0
 27 26  2  0
 28 26  1  0
M  END
$$$$
