KYS.pdb
     RDKit          3D

 28 28  0  0  1  0  0  0  0  0999 V2000
    7.1827  -16.3463   21.7484 N   0  0  0  0  0  0  0  0  0  0  0  0
    8.2696  -15.4921   21.4608 C   0  0  1  0  0  0  0  0  0  0  0  0
    7.9973  -14.2523   20.7003 C   0  0  0  0  0  0  0  0  0  0  0  0
    7.8556  -14.3114   19.2437 C   0  0  0  0  0  0  0  0  0  0  0  0
    7.8938  -13.0564   18.4618 C   0  0  0  0  0  0  0  0  0  0  0  0
    7.5339  -13.2224   17.0036 C   0  0  0  0  0  0  0  0  0  0  0  0
    7.5470  -11.8985   16.3986 N   0  0  0  0  0  0  0  0  0  0  0  0
    9.1114  -15.2919   22.6564 C   0  0  0  0  0  0  0  0  0  0  0  0
   10.1908  -14.6347   22.6302 O   0  0  0  0  0  0  0  0  0  0  0  0
    5.9217  -10.4212   26.0812 O   0  0  0  0  0  0  0  0  0  0  0  0
    6.4910  -11.6939   26.0961 C   0  0  0  0  0  0  0  0  0  0  0  0
    5.7457  -12.8239   25.8671 C   0  0  0  0  0  0  0  0  0  0  0  0
    6.4000  -14.0354   25.9031 C   0  0  0  0  0  0  0  0  0  0  0  0
    7.7445  -14.1069   26.1586 C   0  0  0  0  0  0  0  0  0  0  0  0
    8.3787  -15.4470   26.1880 C   0  0  0  0  0  0  0  0  0  0  0  0
    9.4436  -15.6293   25.1289 C   0  0  2  0  0  0  0  0  0  0  0  0
    8.7259  -15.8401   23.8809 N   0  0  0  0  0  0  0  0  0  0  0  0
   10.3165  -16.7883   25.4203 C   0  0  0  0  0  0  0  0  0  0  0  0
   10.8963  -16.9498   26.5234 O   0  0  0  0  0  0  0  0  0  0  0  0
    8.4742  -12.9821   26.3841 C   0  0  0  0  0  0  0  0  0  0  0  0
    7.8512  -11.7580   26.3549 C   0  0  0  0  0  0  0  0  0  0  0  0
   11.1987  -19.6655   22.5073 O   0  0  0  0  0  0  0  0  0  0  0  0
   11.0240  -20.1391   23.8034 C   0  0  0  0  0  0  0  0  0  0  0  0
   11.3322  -19.0081   24.7555 C   0  0  2  0  0  0  0  0  0  0  0  0
   10.5618  -17.8194   24.4481 N   0  0  0  0  0  0  0  0  0  0  0  0
   12.7733  -18.7573   24.8096 C   0  0  0  0  0  0  0  0  0  0  0  0
   13.2825  -17.6593   24.4917 O   0  0  0  0  0  0  0  0  0  0  0  0
   13.6247  -19.7696   25.2291 O   0  0  0  0  0  0  0  0  0  0  0  0
  2  1  1  1
  2  3  1  0
  3  4  1  0
  4  5  1  0
  5  6  1  0
  6  7  1  0
  8  2  1  0
  9  8  2  0
 10 11  1  0
 11 21  2  0
 11 12  1  0
 12 13  2  0
 13 14  1  0
 14 15  1  0
 16 15  1  1
 16 17  1  0
 17  8  1  0
 18 16  1  0
 18 19  2  0
 20 14  2  0
 21 20  1  0
 22 23  1  0
 24 23  1  6
 24 25  1  0
 25 18  1  0
 26 24  1  0
 27 26  2  0
 28 26  1  0
M  END
$$$$
