KYS.pdb
     RDKit          3D

 28 28  0  0  1  0  0  0  0  0999 V2000
    8.5131  -14.0204   20.2051 N   0  0  0  0  0  0  0  0  0  0  0  0
    8.2176  -15.2549   20.8234 C   0  0  1  0  0  0  0  0  0  0  0  0
    8.4222  -16.4924   20.0385 C   0  0  0  0  0  0  0  0  0  0  0  0
    8.3734  -16.4396   18.5756 C   0  0  0  0  0  0  0  0  0  0  0  0
    8.4555  -17.6985   17.8032 C   0  0  0  0  0  0  0  0  0  0  0  0
    8.4730  -17.5071   16.3044 C   0  0  0  0  0  0  0  0  0  0  0  0
    8.3372  -18.8226   15.6960 N   0  0  0  0  0  0  0  0  0  0  0  0
    8.7798  -15.3076   22.1870 C   0  0  0  0  0  0  0  0  0  0  0  0
    9.9775  -14.9970   22.4452 O   0  0  0  0  0  0  0  0  0  0  0  0
    6.5920  -10.2054   26.7426 O   0  0  0  0  0  0  0  0  0  0  0  0
    6.7167  -11.5603   26.4380 C   0  0  0  0  0  0  0  0  0  0  0  0
    5.6238  -12.3862   26.3467 C   0  0  0  0  0  0  0  0  0  0  0  0
    5.8508  -13.7099   26.0407 C   0  0  0  0  0  0  0  0  0  0  0  0
    7.1211  -14.1817   25.8359 C   0  0  0  0  0  0  0  0  0  0  0  0
    7.2879  -15.6202   25.5167 C   0  0  0  0  0  0  0  0  0  0  0  0
    8.4691  -15.9005   24.6138 C   0  0  2  0  0  0  0  0  0  0  0  0
    7.9799  -15.7147   23.2562 N   0  0  0  0  0  0  0  0  0  0  0  0
    8.9816  -17.2776   24.7902 C   0  0  0  0  0  0  0  0  0  0  0  0
    8.6005  -18.2464   24.0865 O   0  0  0  0  0  0  0  0  0  0  0  0
    8.1972  -13.3559   25.9285 C   0  0  0  0  0  0  0  0  0  0  0  0
    8.0044  -12.0300   26.2321 C   0  0  0  0  0  0  0  0  0  0  0  0
   12.3379  -18.4506   24.4110 O   0  0  0  0  0  0  0  0  0  0  0  0
   11.2578  -19.3069   24.5971 C   0  0  0  0  0  0  0  0  0  0  0  0
   10.5713  -18.9141   25.8837 C   0  0  2  0  0  0  0  0  0  0  0  0
    9.9622  -17.6022   25.7910 N   0  0  0  0  0  0  0  0  0  0  0  0
   11.4888  -19.0397   27.0172 C   0  0  0  0  0  0  0  0  0  0  0  0
   12.1019  -20.0987   27.2789 O   0  0  0  0  0  0  0  0  0  0  0  0
   11.6988  -17.9472   27.8467 O   0  0  0  0  0  0  0  0  0  0  0  0
  2  1  1  6
  2  3  1  0
  3  4  1  0
  4  5  1  0
  5  6  1  0
  6  7  1  0
  8  2  1  0
  9  8  2  0
 10 11  1  0
 11 21  2  0
 11 12  1  0
 12 13  2  0
 13 14  1  0
 14 15  1  0
 16 15  1  1
 16 17  1  0
 17  8  1  0
 18 16  1  0
 18 19  2  0
 20 14  2  0
 21 20  1  0
 22 23  1  0
 24 23  1  6
 24 25  1  0
 25 18  1  0
 26 24  1  0
 27 26  2  0
 28 26  1  0
M  END
$$$$
