KYS.pdb
     RDKit          3D

 28 28  0  0  1  0  0  0  0  0999 V2000
    8.3776  -16.4902   19.6089 N   0  0  0  0  0  0  0  0  0  0  0  0
    9.2434  -15.3816   19.4867 C   0  0  1  0  0  0  0  0  0  0  0  0
    9.0215  -14.4465   18.3616 C   0  0  0  0  0  0  0  0  0  0  0  0
    9.1249  -14.9323   16.9838 C   0  0  0  0  0  0  0  0  0  0  0  0
    8.1362  -14.4794   15.9810 C   0  0  0  0  0  0  0  0  0  0  0  0
    8.3902  -14.9934   14.5828 C   0  0  0  0  0  0  0  0  0  0  0  0
    7.2959  -14.5287   13.7429 N   0  0  0  0  0  0  0  0  0  0  0  0
    9.4354  -14.7184   20.7912 C   0  0  0  0  0  0  0  0  0  0  0  0
   10.3483  -13.8692   20.9986 O   0  0  0  0  0  0  0  0  0  0  0  0
    6.5641  -11.4165   28.3877 O   0  0  0  0  0  0  0  0  0  0  0  0
    6.7420  -12.0267   27.1467 C   0  0  0  0  0  0  0  0  0  0  0  0
    7.3789  -11.3898   26.1106 C   0  0  0  0  0  0  0  0  0  0  0  0
    7.5051  -12.0766   24.9233 C   0  0  0  0  0  0  0  0  0  0  0  0
    7.0122  -13.3477   24.7846 C   0  0  0  0  0  0  0  0  0  0  0  0
    7.1795  -14.0217   23.4743 C   0  0  0  0  0  0  0  0  0  0  0  0
    8.6216  -14.3372   23.1427 C   0  0  2  0  0  0  0  0  0  0  0  0
    8.5898  -15.0222   21.8595 N   0  0  0  0  0  0  0  0  0  0  0  0
    9.2458  -15.2009   24.1696 C   0  0  0  0  0  0  0  0  0  0  0  0
    9.0067  -15.0882   25.3980 O   0  0  0  0  0  0  0  0  0  0  0  0
    6.3830  -13.9702   25.8166 C   0  0  0  0  0  0  0  0  0  0  0  0
    6.2410  -13.3122   27.0142 C   0  0  0  0  0  0  0  0  0  0  0  0
    9.7838  -18.9950   26.1716 O   0  0  0  0  0  0  0  0  0  0  0  0
    9.3366  -17.9781   25.3346 C   0  0  0  0  0  0  0  0  0  0  0  0
   10.5486  -17.2898   24.7533 C   0  0  2  0  0  0  0  0  0  0  0  0
   10.1789  -16.2398   23.8250 N   0  0  0  0  0  0  0  0  0  0  0  0
   11.4689  -18.2686   24.1723 C   0  0  0  0  0  0  0  0  0  0  0  0
   11.9459  -19.2223   24.8272 O   0  0  0  0  0  0  0  0  0  0  0  0
   11.8381  -18.1480   22.8401 O   0  0  0  0  0  0  0  0  0  0  0  0
  2  1  1  1
  2  3  1  0
  3  4  1  0
  4  5  1  0
  5  6  1  0
  6  7  1  0
  8  2  1  0
  9  8  2  0
 10 11  1  0
 11 21  2  0
 11 12  1  0
 12 13  2  0
 13 14  1  0
 14 15  1  0
 16 15  1  1
 16 17  1  0
 17  8  1  0
 18 16  1  0
 18 19  2  0
 20 14  2  0
 21 20  1  0
 22 23  1  0
 24 23  1  6
 24 25  1  0
 25 18  1  0
 26 24  1  0
 27 26  2  0
 28 26  1  0
M  END
$$$$
