SPE.pdb
     RDKit          3D

 23 23  0  0  1  0  0  0  0  0999 V2000
   16.9452  -12.1521  -18.2176 O   0  0  0  0  0  0  0  0  0  0  0  0
   17.7803  -11.2396  -17.5676 C   0  0  0  0  0  0  0  0  0  0  0  0
   19.1592  -11.8799  -17.3554 C   0  0  2  0  0  0  0  0  0  0  0  0
   18.8778  -13.1591  -16.7065 N   0  0  0  0  0  0  0  0  0  0  0  0
   20.0100  -11.0059  -16.4918 C   0  0  0  0  0  0  0  0  0  0  0  0
   19.5993  -10.9133  -15.2973 O   0  0  0  0  0  0  0  0  0  0  0  0
   21.1556  -10.3628  -17.0059 N   0  0  0  0  0  0  0  0  0  0  0  0
   21.9584  -10.9920  -18.0773 C   0  0  0  0  0  0  0  0  0  0  0  0
   21.9509   -9.8493  -19.0725 C   0  0  0  0  0  0  0  0  0  0  0  0
   22.1926   -8.6525  -18.1631 C   0  0  0  0  0  0  0  0  0  0  0  0
   21.8244   -9.1408  -16.7415 C   0  0  1  0  0  0  0  0  0  0  0  0
   21.0918   -8.0886  -16.0409 C   0  0  0  0  0  0  0  0  0  0  0  0
   20.0174   -7.6445  -16.4665 O   0  0  0  0  0  0  0  0  0  0  0  0
   21.5788   -7.5225  -14.8324 N   0  0  0  0  0  0  0  0  0  0  0  0
   20.8124   -6.5404  -14.0889 C   0  0  1  0  0  0  0  0  0  0  0  0
   19.9002   -7.1222  -13.0691 C   0  0  0  0  0  0  0  0  0  0  0  0
   19.0941   -6.1520  -12.2692 C   0  0  0  0  0  0  0  0  0  0  0  0
   18.3162   -6.7529  -11.1756 C   0  0  0  0  0  0  0  0  0  0  0  0
   17.6580   -6.0113  -10.4072 O   0  0  0  0  0  0  0  0  0  0  0  0
   21.6882   -5.4983  -13.5099 C   0  0  0  0  0  0  0  0  0  0  0  0
   21.2060   -4.2499  -13.1569 O   0  0  0  0  0  0  0  0  0  0  0  0
   18.2822   -8.1377  -10.9571 O   0  0  0  0  0  0  0  0  0  0  0  0
   22.8941   -5.7454  -13.3301 O   0  0  0  0  0  0  0  0  0  0  0  0
  2  1  1  0
  3  2  1  0
  3  4  1  1
  5  3  1  0
  5  6  2  0
  7  5  1  0
  8  7  1  0
  9 10  1  0
  9  8  1  0
 10 11  1  0
 11  7  1  0
 11 12  1  6
 12 14  1  0
 13 12  2  0
 14 15  1  0
 15 16  1  1
 16 17  1  0
 17 18  1  0
 18 22  1  0
 19 18  2  0
 20 21  1  0
 20 15  1  0
 23 20  2  0
M  END
$$$$
