SPE.pdb
     RDKit          3D

 23 23  0  0  1  0  0  0  0  0999 V2000
   26.5571  -18.7725  -15.6475 O   0  0  0  0  0  0  0  0  0  0  0  0
   27.6297  -18.9940  -14.7798 C   0  0  0  0  0  0  0  0  0  0  0  0
   27.7145  -20.4918  -14.4543 C   0  0  2  0  0  0  0  0  0  0  0  0
   28.2927  -21.0990  -15.6517 N   0  0  0  0  0  0  0  0  0  0  0  0
   26.3535  -21.0388  -14.1683 C   0  0  0  0  0  0  0  0  0  0  0  0
   25.6531  -21.2332  -15.2055 O   0  0  0  0  0  0  0  0  0  0  0  0
   25.9322  -21.2975  -12.8471 N   0  0  0  0  0  0  0  0  0  0  0  0
   26.9202  -21.5154  -11.7680 C   0  0  0  0  0  0  0  0  0  0  0  0
   26.4226  -20.4740  -10.7859 C   0  0  0  0  0  0  0  0  0  0  0  0
   24.9157  -20.6748  -10.8675 C   0  0  0  0  0  0  0  0  0  0  0  0
   24.6766  -21.4238  -12.2004 C   0  0  1  0  0  0  0  0  0  0  0  0
   23.4980  -20.8712  -12.8637 C   0  0  0  0  0  0  0  0  0  0  0  0
   23.3908  -19.6621  -13.1073 O   0  0  0  0  0  0  0  0  0  0  0  0
   22.4141  -21.6980  -13.2633 N   0  0  0  0  0  0  0  0  0  0  0  0
   21.2403  -21.1510  -13.9174 C   0  0  1  0  0  0  0  0  0  0  0  0
   20.6552  -22.0344  -14.9604 C   0  0  0  0  0  0  0  0  0  0  0  0
   19.4761  -21.4948  -15.7017 C   0  0  0  0  0  0  0  0  0  0  0  0
   18.8086  -22.4631  -16.5842 C   0  0  0  0  0  0  0  0  0  0  0  0
   19.3460  -23.5767  -16.7963 O   0  0  0  0  0  0  0  0  0  0  0  0
   20.2250  -20.7200  -12.9317 C   0  0  0  0  0  0  0  0  0  0  0  0
   19.3859  -19.6449  -13.1674 O   0  0  0  0  0  0  0  0  0  0  0  0
   17.5816  -22.1859  -17.2041 O   0  0  0  0  0  0  0  0  0  0  0  0
   20.1153  -21.3390  -11.8583 O   0  0  0  0  0  0  0  0  0  0  0  0
  2  1  1  0
  3  2  1  0
  3  4  1  6
  5  3  1  0
  5  6  2  0
  7  5  1  0
  8  7  1  0
  9 10  1  0
  9  8  1  0
 10 11  1  0
 11  7  1  0
 11 12  1  6
 12 14  1  0
 13 12  2  0
 14 15  1  0
 15 16  1  6
 16 17  1  0
 17 18  1  0
 18 22  1  0
 19 18  2  0
 20 21  1  0
 20 15  1  0
 23 20  2  0
M  END
$$$$
