SPE.pdb
     RDKit          3D

 23 23  0  0  1  0  0  0  0  0999 V2000
   12.8766  -12.6459    5.6739 O   0  0  0  0  0  0  0  0  0  0  0  0
   14.1805  -12.2291    5.3941 C   0  0  0  0  0  0  0  0  0  0  0  0
   14.4520  -12.3947    3.8923 C   0  0  2  0  0  0  0  0  0  0  0  0
   13.1259  -12.4758    3.2828 N   0  0  0  0  0  0  0  0  0  0  0  0
   15.2442  -13.6370    3.6419 C   0  0  0  0  0  0  0  0  0  0  0  0
   14.5323  -14.6691    3.4632 O   0  0  0  0  0  0  0  0  0  0  0  0
   16.6545  -13.6124    3.6176 N   0  0  0  0  0  0  0  0  0  0  0  0
   17.3819  -12.3925    3.2040 C   0  0  0  0  0  0  0  0  0  0  0  0
   18.2777  -12.2360    4.4162 C   0  0  0  0  0  0  0  0  0  0  0  0
   18.7175  -13.6736    4.6568 C   0  0  0  0  0  0  0  0  0  0  0  0
   17.6799  -14.5467    3.9112 C   0  0  1  0  0  0  0  0  0  0  0  0
   17.3437  -15.7083    4.7309 C   0  0  0  0  0  0  0  0  0  0  0  0
   16.6574  -15.6090    5.7565 O   0  0  0  0  0  0  0  0  0  0  0  0
   17.7892  -17.0132    4.3889 N   0  0  0  0  0  0  0  0  0  0  0  0
   17.4183  -18.1746    5.1752 C   0  0  1  0  0  0  0  0  0  0  0  0
   17.5696  -19.4695    4.4604 C   0  0  0  0  0  0  0  0  0  0  0  0
   17.1651  -20.6943    5.2136 C   0  0  0  0  0  0  0  0  0  0  0  0
   17.4478  -21.9618    4.5239 C   0  0  0  0  0  0  0  0  0  0  0  0
   17.9934  -21.9410    3.3944 O   0  0  0  0  0  0  0  0  0  0  0  0
   18.1119  -18.1856    6.4818 C   0  0  0  0  0  0  0  0  0  0  0  0
   17.5161  -18.6944    7.6226 O   0  0  0  0  0  0  0  0  0  0  0  0
   17.1271  -23.2056    5.0868 O   0  0  0  0  0  0  0  0  0  0  0  0
   19.2656  -17.7277    6.5640 O   0  0  0  0  0  0  0  0  0  0  0  0
  2  1  1  0
  3  2  1  0
  3  4  1  6
  5  3  1  0
  5  6  2  0
  7  5  1  0
  8  7  1  0
  9 10  1  0
  9  8  1  0
 10 11  1  0
 11  7  1  0
 11 12  1  1
 12 14  1  0
 13 12  2  0
 14 15  1  0
 15 16  1  6
 16 17  1  0
 17 18  1  0
 18 22  1  0
 19 18  2  0
 20 21  1  0
 20 15  1  0
 23 20  2  0
M  END
$$$$
