SPE.pdb
     RDKit          3D

 23 23  0  0  1  0  0  0  0  0999 V2000
   25.8881  -18.9241  -14.9596 O   0  0  0  0  0  0  0  0  0  0  0  0
   26.4444  -20.0972  -15.4759 C   0  0  0  0  0  0  0  0  0  0  0  0
   26.5976  -21.1235  -14.3447 C   0  0  2  0  0  0  0  0  0  0  0  0
   27.2062  -22.2896  -14.9822 N   0  0  0  0  0  0  0  0  0  0  0  0
   25.2626  -21.4558  -13.7609 C   0  0  0  0  0  0  0  0  0  0  0  0
   24.4205  -21.8661  -14.6133 O   0  0  0  0  0  0  0  0  0  0  0  0
   25.0108  -21.3084  -12.3807 N   0  0  0  0  0  0  0  0  0  0  0  0
   26.1194  -21.3480  -11.4020 C   0  0  0  0  0  0  0  0  0  0  0  0
   25.8496  -20.0352  -10.6946 C   0  0  0  0  0  0  0  0  0  0  0  0
   24.3348  -20.0751  -10.5472 C   0  0  0  0  0  0  0  0  0  0  0  0
   23.8520  -21.1148  -11.5868 C   0  0  1  0  0  0  0  0  0  0  0  0
   22.6405  -20.6234  -12.2389 C   0  0  0  0  0  0  0  0  0  0  0  0
   22.5871  -19.5019  -12.7605 O   0  0  0  0  0  0  0  0  0  0  0  0
   21.4611  -21.4123  -12.3070 N   0  0  0  0  0  0  0  0  0  0  0  0
   20.2567  -20.9265  -12.9538 C   0  0  1  0  0  0  0  0  0  0  0  0
   19.3427  -21.9994  -13.4271 C   0  0  0  0  0  0  0  0  0  0  0  0
   18.1170  -21.5536  -14.1549 C   0  0  0  0  0  0  0  0  0  0  0  0
   17.1657  -22.6285  -14.4738 C   0  0  0  0  0  0  0  0  0  0  0  0
   17.4045  -23.7980  -14.0875 O   0  0  0  0  0  0  0  0  0  0  0  0
   19.5510  -19.9389  -12.1083 C   0  0  0  0  0  0  0  0  0  0  0  0
   18.8309  -18.8903  -12.6535 O   0  0  0  0  0  0  0  0  0  0  0  0
   15.9899  -22.3934  -15.2010 O   0  0  0  0  0  0  0  0  0  0  0  0
   19.6002  -20.0496  -10.8702 O   0  0  0  0  0  0  0  0  0  0  0  0
  2  1  1  0
  3  2  1  0
  3  4  1  6
  5  3  1  0
  5  6  2  0
  7  5  1  0
  8  7  1  0
  9 10  1  0
  9  8  1  0
 10 11  1  0
 11  7  1  0
 11 12  1  6
 12 14  1  0
 13 12  2  0
 14 15  1  0
 15 16  1  1
 16 17  1  0
 17 18  1  0
 18 22  1  0
 19 18  2  0
 20 21  1  0
 20 15  1  0
 23 20  2  0
M  END
$$$$
