SPE.pdb
     RDKit          3D

 23 23  0  0  1  0  0  0  0  0999 V2000
   26.3482  -13.4377  -15.7959 O   0  0  0  0  0  0  0  0  0  0  0  0
   25.5384  -12.2995  -15.8302 C   0  0  0  0  0  0  0  0  0  0  0  0
   24.4149  -12.5102  -16.8548 C   0  0  2  0  0  0  0  0  0  0  0  0
   25.1071  -12.7514  -18.1194 N   0  0  0  0  0  0  0  0  0  0  0  0
   23.5472  -11.2958  -16.9309 C   0  0  0  0  0  0  0  0  0  0  0  0
   24.0909  -10.3162  -17.5215 O   0  0  0  0  0  0  0  0  0  0  0  0
   22.2489  -11.2890  -16.3793 N   0  0  0  0  0  0  0  0  0  0  0  0
   21.4504  -12.5324  -16.3113 C   0  0  0  0  0  0  0  0  0  0  0  0
   21.1259  -12.5174  -14.8310 C   0  0  0  0  0  0  0  0  0  0  0  0
   20.7814  -11.0509  -14.6103 C   0  0  0  0  0  0  0  0  0  0  0  0
   21.4043  -10.3012  -15.8122 C   0  0  1  0  0  0  0  0  0  0  0  0
   22.0111   -9.0563  -15.3469 C   0  0  0  0  0  0  0  0  0  0  0  0
   23.0620   -9.0451  -14.6926 O   0  0  0  0  0  0  0  0  0  0  0  0
   21.4224   -7.7936  -15.6245 N   0  0  0  0  0  0  0  0  0  0  0  0
   22.0472   -6.5535  -15.2041 C   0  0  1  0  0  0  0  0  0  0  0  0
   22.0301   -5.4814  -16.2341 C   0  0  0  0  0  0  0  0  0  0  0  0
   22.6072   -4.1643  -15.8303 C   0  0  0  0  0  0  0  0  0  0  0  0
   22.5035   -3.1090  -16.8491 C   0  0  0  0  0  0  0  0  0  0  0  0
   22.1979   -3.4163  -18.0264 O   0  0  0  0  0  0  0  0  0  0  0  0
   21.4977   -6.0828  -13.9139 C   0  0  0  0  0  0  0  0  0  0  0  0
   20.2631   -6.5002  -13.4481 O   0  0  0  0  0  0  0  0  0  0  0  0
   22.7358   -1.7585  -16.5513 O   0  0  0  0  0  0  0  0  0  0  0  0
   22.1605   -5.2901  -13.2212 O   0  0  0  0  0  0  0  0  0  0  0  0
  2  1  1  0
  3  2  1  0
  3  4  1  6
  5  3  1  0
  5  6  2  0
  7  5  1  0
  8  7  1  0
  9 10  1  0
  9  8  1  0
 10 11  1  0
 11  7  1  0
 11 12  1  1
 12 14  1  0
 13 12  2  0
 14 15  1  0
 15 16  1  6
 16 17  1  0
 17 18  1  0
 18 22  1  0
 19 18  2  0
 20 21  1  0
 20 15  1  0
 23 20  2  0
M  END
$$$$
