SPE.pdb
     RDKit          3D

 23 23  0  0  1  0  0  0  0  0999 V2000
   28.1579  -10.4926  -16.1167 O   0  0  0  0  0  0  0  0  0  0  0  0
   27.0010   -9.7092  -16.1016 C   0  0  0  0  0  0  0  0  0  0  0  0
   25.8174  -10.5474  -16.6045 C   0  0  2  0  0  0  0  0  0  0  0  0
   26.1908  -10.9388  -17.9624 N   0  0  0  0  0  0  0  0  0  0  0  0
   24.5642   -9.7332  -16.5967 C   0  0  0  0  0  0  0  0  0  0  0  0
   24.5755   -8.7710  -17.4203 O   0  0  0  0  0  0  0  0  0  0  0  0
   23.4942  -10.0460  -15.7321 N   0  0  0  0  0  0  0  0  0  0  0  0
   23.2461  -11.4423  -15.3117 C   0  0  0  0  0  0  0  0  0  0  0  0
   23.2411  -11.2338  -13.8107 C   0  0  0  0  0  0  0  0  0  0  0  0
   22.4276   -9.9531  -13.6844 C   0  0  0  0  0  0  0  0  0  0  0  0
   22.4742   -9.3015  -15.0873 C   0  0  1  0  0  0  0  0  0  0  0  0
   22.6542   -7.8584  -14.9470 C   0  0  0  0  0  0  0  0  0  0  0  0
   23.7668   -7.3249  -15.0478 O   0  0  0  0  0  0  0  0  0  0  0  0
   21.5568   -6.9944  -14.6878 N   0  0  0  0  0  0  0  0  0  0  0  0
   21.6800   -5.5531  -14.7986 C   0  0  1  0  0  0  0  0  0  0  0  0
   22.2003   -5.0838  -16.1099 C   0  0  0  0  0  0  0  0  0  0  0  0
   22.3745   -3.6085  -16.2650 C   0  0  0  0  0  0  0  0  0  0  0  0
   23.2111   -3.2044  -17.4047 C   0  0  0  0  0  0  0  0  0  0  0  0
   23.6023   -4.0728  -18.2211 O   0  0  0  0  0  0  0  0  0  0  0  0
   20.4170   -4.8741  -14.4353 C   0  0  0  0  0  0  0  0  0  0  0  0
   20.4034   -3.6524  -13.7850 O   0  0  0  0  0  0  0  0  0  0  0  0
   23.5920   -1.8713  -17.6155 O   0  0  0  0  0  0  0  0  0  0  0  0
   19.3317   -5.4102  -14.7218 O   0  0  0  0  0  0  0  0  0  0  0  0
  2  1  1  0
  3  2  1  0
  3  4  1  6
  5  3  1  0
  5  6  2  0
  7  5  1  0
  8  7  1  0
  9 10  1  0
  9  8  1  0
 10 11  1  0
 11  7  1  0
 11 12  1  1
 12 14  1  0
 13 12  2  0
 14 15  1  0
 15 16  1  6
 16 17  1  0
 17 18  1  0
 18 22  1  0
 19 18  2  0
 20 21  1  0
 20 15  1  0
 23 20  2  0
M  END
$$$$
