SPE.pdb
     RDKit          3D

 23 23  0  0  1  0  0  0  0  0999 V2000
   20.0921  -12.9532  -19.5112 O   0  0  0  0  0  0  0  0  0  0  0  0
   20.1369  -11.9631  -18.5263 C   0  0  0  0  0  0  0  0  0  0  0  0
   20.7526  -12.5501  -17.2484 C   0  0  2  0  0  0  0  0  0  0  0  0
   19.8360  -13.6174  -16.8519 N   0  0  0  0  0  0  0  0  0  0  0  0
   20.8552  -11.4986  -16.1913 C   0  0  0  0  0  0  0  0  0  0  0  0
   19.7546  -10.9298  -15.9285 O   0  0  0  0  0  0  0  0  0  0  0  0
   22.0878  -11.2015  -15.5727 N   0  0  0  0  0  0  0  0  0  0  0  0
   23.0870  -12.2650  -15.3298 C   0  0  0  0  0  0  0  0  0  0  0  0
   24.2782  -11.6220  -16.0111 C   0  0  0  0  0  0  0  0  0  0  0  0
   24.1607  -10.1814  -15.5330 C   0  0  0  0  0  0  0  0  0  0  0  0
   22.6957  -10.0283  -15.0585 C   0  0  1  0  0  0  0  0  0  0  0  0
   22.1772   -8.7331  -15.4924 C   0  0  0  0  0  0  0  0  0  0  0  0
   21.9797   -8.4742  -16.6867 O   0  0  0  0  0  0  0  0  0  0  0  0
   21.8729   -7.7047  -14.5608 N   0  0  0  0  0  0  0  0  0  0  0  0
   21.3800   -6.4097  -14.9908 C   0  0  1  0  0  0  0  0  0  0  0  0
   19.9104   -6.2369  -14.8458 C   0  0  0  0  0  0  0  0  0  0  0  0
   19.3584   -4.9026  -15.2274 C   0  0  0  0  0  0  0  0  0  0  0  0
   17.9048   -4.7656  -15.0532 C   0  0  0  0  0  0  0  0  0  0  0  0
   17.2372   -5.7470  -14.6468 O   0  0  0  0  0  0  0  0  0  0  0  0
   22.1275   -5.3071  -14.3476 C   0  0  0  0  0  0  0  0  0  0  0  0
   22.2362   -4.0575  -14.9324 O   0  0  0  0  0  0  0  0  0  0  0  0
   17.2298   -3.5672  -15.3270 O   0  0  0  0  0  0  0  0  0  0  0  0
   22.6751   -5.5014  -13.2476 O   0  0  0  0  0  0  0  0  0  0  0  0
  2  1  1  0
  3  2  1  0
  3  4  1  1
  5  3  1  0
  5  6  2  0
  7  5  1  0
  8  7  1  0
  9 10  1  0
  9  8  1  0
 10 11  1  0
 11  7  1  0
 11 12  1  6
 12 14  1  0
 13 12  2  0
 14 15  1  0
 15 16  1  1
 16 17  1  0
 17 18  1  0
 18 22  1  0
 19 18  2  0
 20 21  1  0
 20 15  1  0
 23 20  2  0
M  END
$$$$
