SPE.pdb
     RDKit          3D

 23 23  0  0  1  0  0  0  0  0999 V2000
   25.7603   -9.1007  -17.5350 O   0  0  0  0  0  0  0  0  0  0  0  0
   25.3729  -10.0996  -18.4319 C   0  0  0  0  0  0  0  0  0  0  0  0
   24.3219  -10.9974  -17.7643 C   0  0  2  0  0  0  0  0  0  0  0  0
   23.9380  -11.9530  -18.8017 N   0  0  0  0  0  0  0  0  0  0  0  0
   23.1530  -10.1821  -17.3142 C   0  0  0  0  0  0  0  0  0  0  0  0
   22.6433   -9.4714  -18.2302 O   0  0  0  0  0  0  0  0  0  0  0  0
   22.6969  -10.2321  -15.9802 N   0  0  0  0  0  0  0  0  0  0  0  0
   22.8427  -11.4662  -15.1776 C   0  0  0  0  0  0  0  0  0  0  0  0
   23.5640  -10.8793  -13.9811 C   0  0  0  0  0  0  0  0  0  0  0  0
   22.7897   -9.5866  -13.7633 C   0  0  0  0  0  0  0  0  0  0  0  0
   22.0609   -9.3185  -15.1019 C   0  0  1  0  0  0  0  0  0  0  0  0
   22.1310   -7.8935  -15.4164 C   0  0  0  0  0  0  0  0  0  0  0  0
   23.1258   -7.3903  -15.9547 O   0  0  0  0  0  0  0  0  0  0  0  0
   21.0564   -7.0132  -15.1190 N   0  0  0  0  0  0  0  0  0  0  0  0
   21.0633   -5.6293  -15.5544 C   0  0  1  0  0  0  0  0  0  0  0  0
   21.2040   -5.4523  -17.0240 C   0  0  0  0  0  0  0  0  0  0  0  0
   21.3063   -4.0458  -17.5160 C   0  0  0  0  0  0  0  0  0  0  0  0
   21.3850   -3.9098  -18.9780 C   0  0  0  0  0  0  0  0  0  0  0  0
   21.3702   -4.9394  -19.6948 O   0  0  0  0  0  0  0  0  0  0  0  0
   19.8972   -4.8905  -15.0227 C   0  0  0  0  0  0  0  0  0  0  0  0
   18.7117   -5.5277  -14.7004 O   0  0  0  0  0  0  0  0  0  0  0  0
   21.4771   -2.6601  -19.6076 O   0  0  0  0  0  0  0  0  0  0  0  0
   19.9787   -3.6604  -14.8557 O   0  0  0  0  0  0  0  0  0  0  0  0
  2  1  1  0
  3  2  1  0
  3  4  1  6
  5  3  1  0
  5  6  2  0
  7  5  1  0
  8  7  1  0
  9 10  1  0
  9  8  1  0
 10 11  1  0
 11  7  1  0
 11 12  1  6
 12 14  1  0
 13 12  2  0
 14 15  1  0
 15 16  1  6
 16 17  1  0
 17 18  1  0
 18 22  1  0
 19 18  2  0
 20 21  1  0
 20 15  1  0
 23 20  2  0
M  END
$$$$
