SPE.pdb
     RDKit          3D

 23 23  0  0  1  0  0  0  0  0999 V2000
   16.1061  -12.6335  -18.2609 O   0  0  0  0  0  0  0  0  0  0  0  0
   16.8421  -11.8125  -17.4026 C   0  0  0  0  0  0  0  0  0  0  0  0
   18.0092  -12.6164  -16.8128 C   0  0  2  0  0  0  0  0  0  0  0  0
   17.3875  -13.5127  -15.8397 N   0  0  0  0  0  0  0  0  0  0  0  0
   18.9930  -11.7004  -16.1596 C   0  0  0  0  0  0  0  0  0  0  0  0
   18.4892  -10.9722  -15.2541 O   0  0  0  0  0  0  0  0  0  0  0  0
   20.3481  -11.6835  -16.5513 N   0  0  0  0  0  0  0  0  0  0  0  0
   21.0011  -12.9069  -17.0660 C   0  0  0  0  0  0  0  0  0  0  0  0
   21.5296  -12.3534  -18.3740 C   0  0  0  0  0  0  0  0  0  0  0  0
   22.0667  -10.9980  -17.9355 C   0  0  0  0  0  0  0  0  0  0  0  0
   21.3710  -10.7021  -16.5853 C   0  0  1  0  0  0  0  0  0  0  0  0
   20.9816   -9.2948  -16.5375 C   0  0  0  0  0  0  0  0  0  0  0  0
   20.0586   -8.8472  -17.2306 O   0  0  0  0  0  0  0  0  0  0  0  0
   21.6455   -8.3685  -15.6894 N   0  0  0  0  0  0  0  0  0  0  0  0
   21.3113   -6.9567  -15.6947 C   0  0  1  0  0  0  0  0  0  0  0  0
   21.7540   -6.2199  -14.4815 C   0  0  0  0  0  0  0  0  0  0  0  0
   21.4880   -4.7503  -14.4639 C   0  0  0  0  0  0  0  0  0  0  0  0
   21.9461   -4.0567  -13.2510 C   0  0  0  0  0  0  0  0  0  0  0  0
   22.4654   -4.7192  -12.3208 O   0  0  0  0  0  0  0  0  0  0  0  0
   21.7737   -6.2974  -16.9355 C   0  0  0  0  0  0  0  0  0  0  0  0
   21.0116   -5.3418  -17.5846 O   0  0  0  0  0  0  0  0  0  0  0  0
   21.8230   -2.6687  -13.0932 O   0  0  0  0  0  0  0  0  0  0  0  0
   22.8803   -6.6045  -17.4137 O   0  0  0  0  0  0  0  0  0  0  0  0
  2  1  1  0
  3  2  1  0
  3  4  1  1
  5  3  1  0
  5  6  2  0
  7  5  1  0
  8  7  1  0
  9 10  1  0
  9  8  1  0
 10 11  1  0
 11  7  1  0
 11 12  1  6
 12 14  1  0
 13 12  2  0
 14 15  1  0
 15 16  1  1
 16 17  1  0
 17 18  1  0
 18 22  1  0
 19 18  2  0
 20 21  1  0
 20 15  1  0
 23 20  2  0
M  END
$$$$
