SPE.pdb
     RDKit          3D

 23 23  0  0  1  0  0  0  0  0999 V2000
   22.0905   -9.9251  -19.1186 O   0  0  0  0  0  0  0  0  0  0  0  0
   20.9413  -10.7157  -19.2006 C   0  0  0  0  0  0  0  0  0  0  0  0
   20.7865  -11.5174  -17.9008 C   0  0  2  0  0  0  0  0  0  0  0  0
   19.5637  -12.2959  -18.0889 N   0  0  0  0  0  0  0  0  0  0  0  0
   20.6704  -10.5936  -16.7317 C   0  0  0  0  0  0  0  0  0  0  0  0
   19.6910   -9.7942  -16.8081 O   0  0  0  0  0  0  0  0  0  0  0  0
   21.5925  -10.6443  -15.6653 N   0  0  0  0  0  0  0  0  0  0  0  0
   22.1923  -11.9297  -15.2455 C   0  0  0  0  0  0  0  0  0  0  0  0
   23.6544  -11.5406  -15.3305 C   0  0  0  0  0  0  0  0  0  0  0  0
   23.6363  -10.1523  -14.7059 C   0  0  0  0  0  0  0  0  0  0  0  0
   22.1614   -9.6902  -14.7840 C   0  0  1  0  0  0  0  0  0  0  0  0
   22.1134   -8.2808  -15.1656 C   0  0  0  0  0  0  0  0  0  0  0  0
   22.5233   -7.8862  -16.2651 O   0  0  0  0  0  0  0  0  0  0  0  0
   21.5914   -7.2913  -14.2901 N   0  0  0  0  0  0  0  0  0  0  0  0
   21.5772   -5.8863  -14.6514 C   0  0  1  0  0  0  0  0  0  0  0  0
   20.2185   -5.3296  -14.8851 C   0  0  0  0  0  0  0  0  0  0  0  0
   20.1503   -3.8930  -15.2880 C   0  0  0  0  0  0  0  0  0  0  0  0
   18.7893   -3.3755  -15.4929 C   0  0  0  0  0  0  0  0  0  0  0  0
   18.6276   -2.1693  -15.7977 O   0  0  0  0  0  0  0  0  0  0  0  0
   22.3438   -5.0723  -13.6829 C   0  0  0  0  0  0  0  0  0  0  0  0
   22.9496   -3.8818  -14.0448 O   0  0  0  0  0  0  0  0  0  0  0  0
   17.6539   -4.1876  -15.3590 O   0  0  0  0  0  0  0  0  0  0  0  0
   22.4489   -5.4624  -12.5063 O   0  0  0  0  0  0  0  0  0  0  0  0
  2  1  1  0
  3  2  1  0
  3  4  1  6
  5  3  1  0
  5  6  2  0
  7  5  1  0
  8  7  1  0
  9 10  1  0
  9  8  1  0
 10 11  1  0
 11  7  1  0
 11 12  1  6
 12 14  1  0
 13 12  2  0
 14 15  1  0
 15 16  1  1
 16 17  1  0
 17 18  1  0
 18 22  1  0
 19 18  2  0
 20 21  1  0
 20 15  1  0
 23 20  2  0
M  END
$$$$
