MQD.pdb
     RDKit          3D

 26 25  0  0  1  0  0  0  0  0999 V2000
    6.5992  -11.1517   27.0580 C   0  0  0  0  0  0  0  0  0  0  0  0
    7.1465  -12.8518   26.8587 S   0  0  0  0  0  0  0  0  0  0  0  0
    5.8460  -13.9525   26.2984 C   0  0  0  0  0  0  0  0  0  0  0  0
    6.2837  -15.4070   26.2535 C   0  0  0  0  0  0  0  0  0  0  0  0
    7.7116  -15.5032   25.7042 C   0  0  2  0  0  0  0  0  0  0  0  0
    8.3208  -14.1952   25.8610 N   0  0  0  0  0  0  0  0  0  0  0  0
    7.6389  -15.8192   24.2746 C   0  0  0  0  0  0  0  0  0  0  0  0
    7.2145  -16.9729   23.9575 O   0  0  0  0  0  0  0  0  0  0  0  0
    8.3686  -12.1726   19.0371 N   0  0  0  0  0  0  0  0  0  0  0  0
    8.1948  -13.5080   18.5995 C   0  0  0  0  0  0  0  0  0  0  0  0
    7.7299  -13.7143   17.4578 O   0  0  0  0  0  0  0  0  0  0  0  0
    8.5716  -14.6068   19.5146 C   0  0  0  0  0  0  0  0  0  0  0  0
    8.1557  -14.4014   20.9177 C   0  0  0  0  0  0  0  0  0  0  0  0
    8.4121  -15.4981   21.8926 C   0  0  2  0  0  0  0  0  0  0  0  0
    7.9998  -14.9520   23.2172 N   0  0  0  0  0  0  0  0  0  0  0  0
    9.8153  -15.9498   21.9781 C   0  0  0  0  0  0  0  0  0  0  0  0
   10.6329  -15.2760   22.6867 O   0  0  0  0  0  0  0  0  0  0  0  0
   10.3737  -17.0821   21.3457 N   0  0  0  0  0  0  0  0  0  0  0  0
   11.7778  -17.4139   21.4747 C   0  0  1  0  0  0  0  0  0  0  0  0
   12.0274  -18.5841   22.3838 C   0  0  0  0  0  0  0  0  0  0  0  0
   13.4231  -19.0469   22.3680 C   0  0  0  0  0  0  0  0  0  0  0  0
   14.4021  -18.3412   22.7423 O   0  0  0  0  0  0  0  0  0  0  0  0
   12.3173  -17.7563   20.1455 C   0  0  0  0  0  0  0  0  0  0  0  0
   11.5547  -17.9670   19.1853 O   0  0  0  0  0  0  0  0  0  0  0  0
   13.7031  -20.3299   21.9196 O   0  0  0  0  0  0  0  0  0  0  0  0
   13.6792  -17.8432   19.9673 O   0  0  0  0  0  0  0  0  0  0  0  0
  2  1  1  0
  3  2  1  0
  4  3  1  0
  4  5  1  0
  5  6  1  6
  5  7  1  0
  7  8  2  0
  9 10  1  0
 10 11  2  0
 10 12  1  0
 12 13  1  0
 14 13  1  6
 15  7  1  0
 15 14  1  0
 16 14  1  0
 16 17  2  0
 18 16  1  0
 19 18  1  0
 20 21  1  0
 19 20  1  1
 21 25  1  0
 22 21  2  0
 23 19  1  0
 23 26  1  0
 24 23  2  0
M  END
$$$$
