MQD.pdb
     RDKit          3D

 26 25  0  0  1  0  0  0  0  0999 V2000
    7.4897  -12.7237   15.8768 C   0  0  0  0  0  0  0  0  0  0  0  0
    8.1392  -12.6540   17.5509 S   0  0  0  0  0  0  0  0  0  0  0  0
    7.4565  -13.9153   18.6277 C   0  0  0  0  0  0  0  0  0  0  0  0
    8.0510  -13.8817   20.0257 C   0  0  0  0  0  0  0  0  0  0  0  0
    7.4148  -14.9784   20.8873 C   0  0  2  0  0  0  0  0  0  0  0  0
    6.0564  -14.5599   21.1806 N   0  0  0  0  0  0  0  0  0  0  0  0
    8.1600  -15.0706   22.1463 C   0  0  0  0  0  0  0  0  0  0  0  0
    7.8103  -14.2903   23.0847 O   0  0  0  0  0  0  0  0  0  0  0  0
    8.3713  -19.3330   26.8647 N   0  0  0  0  0  0  0  0  0  0  0  0
    8.1235  -17.9529   26.6674 C   0  0  0  0  0  0  0  0  0  0  0  0
    7.0500  -17.4661   27.0829 O   0  0  0  0  0  0  0  0  0  0  0  0
    9.1485  -17.1422   25.9753 C   0  0  0  0  0  0  0  0  0  0  0  0
    8.7984  -16.7715   24.5883 C   0  0  0  0  0  0  0  0  0  0  0  0
    9.8197  -16.0537   23.7755 C   0  0  2  0  0  0  0  0  0  0  0  0
    9.2345  -15.9523   22.4080 N   0  0  0  0  0  0  0  0  0  0  0  0
   11.1341  -16.7200   23.6841 C   0  0  0  0  0  0  0  0  0  0  0  0
   11.2405  -17.7679   22.9666 O   0  0  0  0  0  0  0  0  0  0  0  0
   12.3279  -16.3143   24.3200 N   0  0  0  0  0  0  0  0  0  0  0  0
   13.5075  -17.1549   24.3374 C   0  0  1  0  0  0  0  0  0  0  0  0
   14.7906  -16.3727   24.3291 C   0  0  0  0  0  0  0  0  0  0  0  0
   14.9899  -15.5932   23.0983 C   0  0  0  0  0  0  0  0  0  0  0  0
   14.8094  -14.3451   23.0195 O   0  0  0  0  0  0  0  0  0  0  0  0
   13.4942  -17.9806   25.5593 C   0  0  0  0  0  0  0  0  0  0  0  0
   12.5841  -17.8586   26.3988 O   0  0  0  0  0  0  0  0  0  0  0  0
   15.3999  -16.2470   21.9450 O   0  0  0  0  0  0  0  0  0  0  0  0
   14.5002  -18.8956   25.7714 O   0  0  0  0  0  0  0  0  0  0  0  0
  2  1  1  0
  3  2  1  0
  4  3  1  0
  4  5  1  0
  5  6  1  1
  5  7  1  0
  7  8  2  0
  9 10  1  0
 10 11  2  0
 10 12  1  0
 12 13  1  0
 14 13  1  1
 15  7  1  0
 15 14  1  0
 16 14  1  0
 16 17  2  0
 18 16  1  0
 19 18  1  0
 20 21  1  0
 19 20  1  1
 21 25  1  0
 22 21  2  0
 23 19  1  0
 23 26  1  0
 24 23  2  0
M  END
$$$$
