MQD.pdb
     RDKit          3D

 26 25  0  0  1  0  0  0  0  0999 V2000
    4.9842  -12.0297   27.9391 C   0  0  0  0  0  0  0  0  0  0  0  0
    5.7493  -11.6900   26.3490 S   0  0  0  0  0  0  0  0  0  0  0  0
    6.9117  -12.9567   25.8382 C   0  0  0  0  0  0  0  0  0  0  0  0
    6.2275  -14.2012   25.2978 C   0  0  0  0  0  0  0  0  0  0  0  0
    7.2780  -15.2617   24.9490 C   0  0  2  0  0  0  0  0  0  0  0  0
    8.4924  -14.9142   25.6638 N   0  0  0  0  0  0  0  0  0  0  0  0
    7.5451  -15.1949   23.5092 C   0  0  0  0  0  0  0  0  0  0  0  0
    6.7254  -15.7854   22.7403 O   0  0  0  0  0  0  0  0  0  0  0  0
    9.1898  -14.0462   18.2101 N   0  0  0  0  0  0  0  0  0  0  0  0
    7.9120  -13.5376   18.5468 C   0  0  0  0  0  0  0  0  0  0  0  0
    7.0264  -13.4967   17.6658 O   0  0  0  0  0  0  0  0  0  0  0  0
    7.6776  -13.0740   19.9314 C   0  0  0  0  0  0  0  0  0  0  0  0
    8.7966  -13.3372   20.8601 C   0  0  0  0  0  0  0  0  0  0  0  0
    8.9149  -14.7014   21.4464 C   0  0  2  0  0  0  0  0  0  0  0  0
    8.6355  -14.5306   22.9009 N   0  0  0  0  0  0  0  0  0  0  0  0
   10.2345  -15.3439   21.2859 C   0  0  0  0  0  0  0  0  0  0  0  0
   10.6696  -15.5623   20.1080 O   0  0  0  0  0  0  0  0  0  0  0  0
   11.1002  -15.7559   22.3225 N   0  0  0  0  0  0  0  0  0  0  0  0
   12.3466  -16.4415   22.0493 C   0  0  1  0  0  0  0  0  0  0  0  0
   13.5550  -15.5680   22.2370 C   0  0  0  0  0  0  0  0  0  0  0  0
   14.8229  -16.2608   21.9634 C   0  0  0  0  0  0  0  0  0  0  0  0
   15.0055  -17.0298   20.9776 O   0  0  0  0  0  0  0  0  0  0  0  0
   12.4774  -17.5898   22.9655 C   0  0  0  0  0  0  0  0  0  0  0  0
   11.6862  -17.7390   23.9140 O   0  0  0  0  0  0  0  0  0  0  0  0
   15.8937  -16.0730   22.8258 O   0  0  0  0  0  0  0  0  0  0  0  0
   13.4860  -18.5050   22.7675 O   0  0  0  0  0  0  0  0  0  0  0  0
  2  1  1  0
  3  2  1  0
  4  3  1  0
  4  5  1  0
  5  6  1  1
  5  7  1  0
  7  8  2  0
  9 10  1  0
 10 11  2  0
 10 12  1  0
 12 13  1  0
 14 13  1  6
 15  7  1  0
 15 14  1  0
 16 14  1  0
 16 17  2  0
 18 16  1  0
 19 18  1  0
 20 21  1  0
 19 20  1  1
 21 25  1  0
 22 21  2  0
 23 19  1  0
 23 26  1  0
 24 23  2  0
M  END
$$$$
