MQD.pdb
     RDKit          3D

 26 25  0  0  1  0  0  0  0  0999 V2000
    5.8155  -10.9242   26.6169 C   0  0  0  0  0  0  0  0  0  0  0  0
    7.1004  -12.1484   26.8996 S   0  0  0  0  0  0  0  0  0  0  0  0
    6.4593  -13.8087   27.1204 C   0  0  0  0  0  0  0  0  0  0  0  0
    6.4663  -14.6190   25.8349 C   0  0  0  0  0  0  0  0  0  0  0  0
    7.8904  -15.0973   25.5300 C   0  0  2  0  0  0  0  0  0  0  0  0
    8.7367  -13.9194   25.4772 N   0  0  0  0  0  0  0  0  0  0  0  0
    7.8930  -15.7370   24.2110 C   0  0  0  0  0  0  0  0  0  0  0  0
    7.1929  -16.7874   24.0755 O   0  0  0  0  0  0  0  0  0  0  0  0
    7.8929  -12.1326   19.1910 N   0  0  0  0  0  0  0  0  0  0  0  0
    8.3166  -13.4801   19.0934 C   0  0  0  0  0  0  0  0  0  0  0  0
    8.2016  -14.0722   17.9987 O   0  0  0  0  0  0  0  0  0  0  0  0
    8.8794  -14.1333   20.2949 C   0  0  0  0  0  0  0  0  0  0  0  0
    8.1235  -15.3163   20.7562 C   0  0  0  0  0  0  0  0  0  0  0  0
    8.7067  -16.1364   21.8544 C   0  0  2  0  0  0  0  0  0  0  0  0
    8.6068  -15.2873   23.0758 N   0  0  0  0  0  0  0  0  0  0  0  0
   10.1157  -16.5344   21.6636 C   0  0  0  0  0  0  0  0  0  0  0  0
   11.0030  -15.6232   21.5805 O   0  0  0  0  0  0  0  0  0  0  0  0
   10.6101  -17.8531   21.5615 N   0  0  0  0  0  0  0  0  0  0  0  0
   12.0190  -18.1275   21.3669 C   0  0  1  0  0  0  0  0  0  0  0  0
   12.5709  -19.1148   22.3563 C   0  0  0  0  0  0  0  0  0  0  0  0
   12.6585  -18.5822   23.7241 C   0  0  0  0  0  0  0  0  0  0  0  0
   12.8941  -17.3702   23.9929 O   0  0  0  0  0  0  0  0  0  0  0  0
   12.2205  -18.6859   20.0169 C   0  0  0  0  0  0  0  0  0  0  0  0
   13.3642  -18.9416   19.5993 O   0  0  0  0  0  0  0  0  0  0  0  0
   12.4751  -19.4437   24.7963 O   0  0  0  0  0  0  0  0  0  0  0  0
   11.1304  -18.9261   19.2118 O   0  0  0  0  0  0  0  0  0  0  0  0
  2  1  1  0
  3  2  1  0
  4  3  1  0
  4  5  1  0
  5  6  1  6
  5  7  1  0
  7  8  2  0
  9 10  1  0
 10 11  2  0
 10 12  1  0
 12 13  1  0
 14 13  1  6
 15  7  1  0
 15 14  1  0
 16 14  1  0
 16 17  2  0
 18 16  1  0
 19 18  1  0
 20 21  1  0
 19 20  1  1
 21 25  1  0
 22 21  2  0
 23 19  1  0
 23 26  1  0
 24 23  2  0
M  END
$$$$
