MQD.pdb
     RDKit          3D

 26 25  0  0  1  0  0  0  0  0999 V2000
    5.5201  -12.4841   27.3238 C   0  0  0  0  0  0  0  0  0  0  0  0
    6.8477  -11.5867   26.5104 S   0  0  0  0  0  0  0  0  0  0  0  0
    7.1554  -12.1447   24.8340 C   0  0  0  0  0  0  0  0  0  0  0  0
    7.1317  -13.6585   24.7030 C   0  0  0  0  0  0  0  0  0  0  0  0
    8.3919  -14.1365   23.9728 C   0  0  2  0  0  0  0  0  0  0  0  0
    8.3219  -13.6253   22.6162 N   0  0  0  0  0  0  0  0  0  0  0  0
    8.3730  -15.6015   23.9242 C   0  0  0  0  0  0  0  0  0  0  0  0
    7.6583  -16.2001   24.7860 O   0  0  0  0  0  0  0  0  0  0  0  0
    9.3579  -19.3792   19.1241 N   0  0  0  0  0  0  0  0  0  0  0  0
    9.8837  -18.0831   19.3445 C   0  0  0  0  0  0  0  0  0  0  0  0
   10.4151  -17.4759   18.3901 O   0  0  0  0  0  0  0  0  0  0  0  0
    9.7821  -17.4998   20.6997 C   0  0  0  0  0  0  0  0  0  0  0  0
    9.1468  -18.3847   21.6983 C   0  0  0  0  0  0  0  0  0  0  0  0
    9.0368  -17.8940   23.1004 C   0  0  2  0  0  0  0  0  0  0  0  0
    9.0807  -16.4070   23.0019 N   0  0  0  0  0  0  0  0  0  0  0  0
   10.1081  -18.3440   24.0114 C   0  0  0  0  0  0  0  0  0  0  0  0
   10.2806  -19.5952   24.1822 O   0  0  0  0  0  0  0  0  0  0  0  0
   10.9951  -17.5196   24.7376 N   0  0  0  0  0  0  0  0  0  0  0  0
   12.0468  -18.0729   25.5659 C   0  0  1  0  0  0  0  0  0  0  0  0
   13.2886  -17.2269   25.5877 C   0  0  0  0  0  0  0  0  0  0  0  0
   13.8666  -17.0060   24.2538 C   0  0  0  0  0  0  0  0  0  0  0  0
   13.5385  -17.6656   23.2272 O   0  0  0  0  0  0  0  0  0  0  0  0
   11.5590  -18.1883   26.9529 C   0  0  0  0  0  0  0  0  0  0  0  0
   10.4878  -17.6567   27.2961 O   0  0  0  0  0  0  0  0  0  0  0  0
   14.8302  -16.0208   24.0911 O   0  0  0  0  0  0  0  0  0  0  0  0
   12.2982  -18.8922   27.8762 O   0  0  0  0  0  0  0  0  0  0  0  0
  2  1  1  0
  3  2  1  0
  4  3  1  0
  4  5  1  0
  5  6  1  6
  5  7  1  0
  7  8  2  0
  9 10  1  0
 10 11  2  0
 10 12  1  0
 12 13  1  0
 14 13  1  6
 15  7  1  0
 15 14  1  0
 16 14  1  0
 16 17  2  0
 18 16  1  0
 19 18  1  0
 20 21  1  0
 19 20  1  1
 21 25  1  0
 22 21  2  0
 23 19  1  0
 23 26  1  0
 24 23  2  0
M  END
$$$$
