MQD.pdb
     RDKit          3D

 26 25  0  0  1  0  0  0  0  0999 V2000
    5.6124  -10.6985   27.9121 C   0  0  0  0  0  0  0  0  0  0  0  0
    6.8778  -11.6565   27.0692 S   0  0  0  0  0  0  0  0  0  0  0  0
    6.2075  -12.9637   26.0403 C   0  0  0  0  0  0  0  0  0  0  0  0
    7.2839  -13.7506   25.3115 C   0  0  0  0  0  0  0  0  0  0  0  0
    6.6403  -14.8742   24.4910 C   0  0  2  0  0  0  0  0  0  0  0  0
    6.1107  -15.8437   25.4323 N   0  0  0  0  0  0  0  0  0  0  0  0
    7.6839  -15.5198   23.6890 C   0  0  0  0  0  0  0  0  0  0  0  0
    8.0805  -16.6646   24.0684 O   0  0  0  0  0  0  0  0  0  0  0  0
    8.8413  -12.8791   18.8345 N   0  0  0  0  0  0  0  0  0  0  0  0
    8.1572  -14.0882   18.5608 C   0  0  0  0  0  0  0  0  0  0  0  0
    7.3116  -14.1094   17.6407 O   0  0  0  0  0  0  0  0  0  0  0  0
    8.4727  -15.2798   19.3778 C   0  0  0  0  0  0  0  0  0  0  0  0
    9.4455  -15.0349   20.4629 C   0  0  0  0  0  0  0  0  0  0  0  0
    9.2706  -15.7778   21.7421 C   0  0  2  0  0  0  0  0  0  0  0  0
    8.2878  -14.9799   22.5297 N   0  0  0  0  0  0  0  0  0  0  0  0
   10.4985  -15.9492   22.5441 C   0  0  0  0  0  0  0  0  0  0  0  0
   11.0286  -14.9209   23.0789 O   0  0  0  0  0  0  0  0  0  0  0  0
   11.1743  -17.1629   22.7971 N   0  0  0  0  0  0  0  0  0  0  0  0
   12.3637  -17.2170   23.6222 C   0  0  1  0  0  0  0  0  0  0  0  0
   12.5493  -18.5426   24.3053 C   0  0  0  0  0  0  0  0  0  0  0  0
   11.5773  -18.7844   25.3819 C   0  0  0  0  0  0  0  0  0  0  0  0
   10.7878  -17.9041   25.8272 O   0  0  0  0  0  0  0  0  0  0  0  0
   13.5488  -16.9786   22.7774 C   0  0  0  0  0  0  0  0  0  0  0  0
   13.4371  -16.8651   21.5435 O   0  0  0  0  0  0  0  0  0  0  0  0
   11.5069  -20.0457   25.9561 O   0  0  0  0  0  0  0  0  0  0  0  0
   14.7909  -16.8810   23.3622 O   0  0  0  0  0  0  0  0  0  0  0  0
  2  1  1  0
  3  2  1  0
  4  3  1  0
  4  5  1  0
  5  6  1  1
  5  7  1  0
  7  8  2  0
  9 10  1  0
 10 11  2  0
 10 12  1  0
 12 13  1  0
 14 13  1  6
 15  7  1  0
 15 14  1  0
 16 14  1  0
 16 17  2  0
 18 16  1  0
 19 18  1  0
 20 21  1  0
 19 20  1  6
 21 25  1  0
 22 21  2  0
 23 19  1  0
 23 26  1  0
 24 23  2  0
M  END
$$$$
