MQD.pdb
     RDKit          3D

 26 25  0  0  1  0  0  0  0  0999 V2000
    5.0577  -11.3823   27.0668 C   0  0  0  0  0  0  0  0  0  0  0  0
    6.6403  -12.2338   27.0679 S   0  0  0  0  0  0  0  0  0  0  0  0
    6.9575  -13.1390   25.5525 C   0  0  0  0  0  0  0  0  0  0  0  0
    6.0886  -14.3778   25.4130 C   0  0  0  0  0  0  0  0  0  0  0  0
    6.9746  -15.6183   25.2509 C   0  0  2  0  0  0  0  0  0  0  0  0
    8.1144  -15.4499   26.1335 N   0  0  0  0  0  0  0  0  0  0  0  0
    7.4554  -15.6679   23.8670 C   0  0  0  0  0  0  0  0  0  0  0  0
    6.9221  -16.5268   23.0992 O   0  0  0  0  0  0  0  0  0  0  0  0
    8.1825  -14.3032   18.6426 N   0  0  0  0  0  0  0  0  0  0  0  0
    7.1850  -13.6663   19.4200 C   0  0  0  0  0  0  0  0  0  0  0  0
    6.0529  -13.4873   18.9216 O   0  0  0  0  0  0  0  0  0  0  0  0
    7.5253  -13.2378   20.7938 C   0  0  0  0  0  0  0  0  0  0  0  0
    8.8444  -13.7047   21.2690 C   0  0  0  0  0  0  0  0  0  0  0  0
    8.9239  -15.0474   21.9090 C   0  0  2  0  0  0  0  0  0  0  0  0
    8.4612  -14.8432   23.3116 N   0  0  0  0  0  0  0  0  0  0  0  0
   10.2694  -15.6549   21.9338 C   0  0  0  0  0  0  0  0  0  0  0  0
   10.8128  -15.9835   20.8287 O   0  0  0  0  0  0  0  0  0  0  0  0
   11.0507  -15.9203   23.0796 N   0  0  0  0  0  0  0  0  0  0  0  0
   12.3167  -16.6191   22.9955 C   0  0  1  0  0  0  0  0  0  0  0  0
   13.4505  -15.8667   23.6332 C   0  0  0  0  0  0  0  0  0  0  0  0
   14.7725  -16.2690   23.1305 C   0  0  0  0  0  0  0  0  0  0  0  0
   14.9453  -17.0807   22.1776 O   0  0  0  0  0  0  0  0  0  0  0  0
   12.1982  -17.9182   23.6835 C   0  0  0  0  0  0  0  0  0  0  0  0
   11.4072  -18.0646   24.6327 O   0  0  0  0  0  0  0  0  0  0  0  0
   15.9095  -15.7381   23.7230 O   0  0  0  0  0  0  0  0  0  0  0  0
   12.9716  -18.9788   23.2698 O   0  0  0  0  0  0  0  0  0  0  0  0
  2  1  1  0
  3  2  1  0
  4  3  1  0
  4  5  1  0
  5  6  1  1
  5  7  1  0
  7  8  2  0
  9 10  1  0
 10 11  2  0
 10 12  1  0
 12 13  1  0
 14 13  1  1
 15  7  1  0
 15 14  1  0
 16 14  1  0
 16 17  2  0
 18 16  1  0
 19 18  1  0
 20 21  1  0
 19 20  1  1
 21 25  1  0
 22 21  2  0
 23 19  1  0
 23 26  1  0
 24 23  2  0
M  END
$$$$
