MQD.pdb
     RDKit          3D

 26 25  0  0  1  0  0  0  0  0999 V2000
    6.3898  -11.1099   26.2885 C   0  0  0  0  0  0  0  0  0  0  0  0
    6.0593  -12.2711   27.6196 S   0  0  0  0  0  0  0  0  0  0  0  0
    6.7895  -13.8864   27.3469 C   0  0  0  0  0  0  0  0  0  0  0  0
    6.3515  -14.5175   26.0358 C   0  0  0  0  0  0  0  0  0  0  0  0
    7.4132  -15.5152   25.5592 C   0  0  2  0  0  0  0  0  0  0  0  0
    8.7019  -15.0140   26.0004 N   0  0  0  0  0  0  0  0  0  0  0  0
    7.3976  -15.5452   24.0937 C   0  0  0  0  0  0  0  0  0  0  0  0
    6.4044  -16.1065   23.5366 O   0  0  0  0  0  0  0  0  0  0  0  0
    8.1040  -11.7682   18.6950 N   0  0  0  0  0  0  0  0  0  0  0  0
    8.5200  -13.1129   18.8486 C   0  0  0  0  0  0  0  0  0  0  0  0
    8.4168  -13.8923   17.8771 O   0  0  0  0  0  0  0  0  0  0  0  0
    9.0609  -13.5408   20.1568 C   0  0  0  0  0  0  0  0  0  0  0  0
    8.0623  -14.1504   21.0595 C   0  0  0  0  0  0  0  0  0  0  0  0
    8.4492  -15.3811   21.8041 C   0  0  2  0  0  0  0  0  0  0  0  0
    8.3915  -15.0040   23.2454 N   0  0  0  0  0  0  0  0  0  0  0  0
    9.7965  -15.9035   21.5009 C   0  0  0  0  0  0  0  0  0  0  0  0
   10.0118  -16.4109   20.3517 O   0  0  0  0  0  0  0  0  0  0  0  0
   10.9123  -15.9033   22.3663 N   0  0  0  0  0  0  0  0  0  0  0  0
   12.2268  -16.3141   21.9174 C   0  0  1  0  0  0  0  0  0  0  0  0
   13.0584  -15.1736   21.4015 C   0  0  0  0  0  0  0  0  0  0  0  0
   13.4752  -15.3430   20.0016 C   0  0  0  0  0  0  0  0  0  0  0  0
   12.9685  -16.1920   19.2149 O   0  0  0  0  0  0  0  0  0  0  0  0
   12.9541  -16.9238   23.0463 C   0  0  0  0  0  0  0  0  0  0  0  0
   12.4395  -16.9799   24.1776 O   0  0  0  0  0  0  0  0  0  0  0  0
   14.4822  -14.5335   19.4952 O   0  0  0  0  0  0  0  0  0  0  0  0
   14.2155  -17.4359   22.8441 O   0  0  0  0  0  0  0  0  0  0  0  0
  2  1  1  0
  3  2  1  0
  4  3  1  0
  4  5  1  0
  5  6  1  6
  5  7  1  0
  7  8  2  0
  9 10  1  0
 10 11  2  0
 10 12  1  0
 12 13  1  0
 14 13  1  6
 15  7  1  0
 15 14  1  0
 16 14  1  0
 16 17  2  0
 18 16  1  0
 19 18  1  0
 20 21  1  0
 19 20  1  1
 21 25  1  0
 22 21  2  0
 23 19  1  0
 23 26  1  0
 24 23  2  0
M  END
$$$$
