MQD.pdb
     RDKit          3D

 26 25  0  0  1  0  0  0  0  0999 V2000
    6.9746  -10.6938   26.5004 C   0  0  0  0  0  0  0  0  0  0  0  0
    5.9060  -11.6595   27.5750 S   0  0  0  0  0  0  0  0  0  0  0  0
    5.5279  -13.2860   26.9206 C   0  0  0  0  0  0  0  0  0  0  0  0
    6.6046  -13.8096   25.9848 C   0  0  0  0  0  0  0  0  0  0  0  0
    6.1171  -15.0897   25.2967 C   0  0  2  0  0  0  0  0  0  0  0  0
    6.1059  -16.1386   26.2998 N   0  0  0  0  0  0  0  0  0  0  0  0
    7.0793  -15.4502   24.2511 C   0  0  0  0  0  0  0  0  0  0  0  0
    7.7687  -16.5002   24.4356 O   0  0  0  0  0  0  0  0  0  0  0  0
    7.8063  -12.5146   18.7481 N   0  0  0  0  0  0  0  0  0  0  0  0
    8.5407  -13.6971   18.4889 C   0  0  0  0  0  0  0  0  0  0  0  0
    8.9308  -13.9231   17.3232 O   0  0  0  0  0  0  0  0  0  0  0  0
    8.8165  -14.6188   19.6119 C   0  0  0  0  0  0  0  0  0  0  0  0
    7.9797  -14.3898   20.8082 C   0  0  0  0  0  0  0  0  0  0  0  0
    8.1459  -15.3112   21.9668 C   0  0  2  0  0  0  0  0  0  0  0  0
    7.3075  -14.7312   23.0547 N   0  0  0  0  0  0  0  0  0  0  0  0
    9.5299  -15.4613   22.4590 C   0  0  0  0  0  0  0  0  0  0  0  0
   10.0687  -14.4854   23.0770 O   0  0  0  0  0  0  0  0  0  0  0  0
   10.3519  -16.6011   22.3212 N   0  0  0  0  0  0  0  0  0  0  0  0
   11.7316  -16.6053   22.7622 C   0  0  1  0  0  0  0  0  0  0  0  0
   12.1986  -17.9550   23.2296 C   0  0  0  0  0  0  0  0  0  0  0  0
   11.6386  -18.3466   24.5316 C   0  0  0  0  0  0  0  0  0  0  0  0
   11.1035  -17.5357   25.3395 O   0  0  0  0  0  0  0  0  0  0  0  0
   12.5982  -16.1949   21.6416 C   0  0  0  0  0  0  0  0  0  0  0  0
   12.1306  -16.0463   20.4982 O   0  0  0  0  0  0  0  0  0  0  0  0
   11.6905  -19.6794   24.9147 O   0  0  0  0  0  0  0  0  0  0  0  0
   13.9382  -15.9744   21.8649 O   0  0  0  0  0  0  0  0  0  0  0  0
  2  1  1  0
  3  2  1  0
  4  3  1  0
  4  5  1  0
  5  6  1  1
  5  7  1  0
  7  8  2  0
  9 10  1  0
 10 11  2  0
 10 12  1  0
 12 13  1  0
 14 13  1  6
 15  7  1  0
 15 14  1  0
 16 14  1  0
 16 17  2  0
 18 16  1  0
 19 18  1  0
 20 21  1  0
 19 20  1  6
 21 25  1  0
 22 21  2  0
 23 19  1  0
 23 26  1  0
 24 23  2  0
M  END
$$$$
