DIN.pdb
     RDKit          3D

 25 24  0  0  1  0  0  0  0  0999 V2000
    8.1434  -14.4589   19.9033 N   0  0  0  0  0  0  0  0  0  0  0  0
    7.4297  -15.1286   20.9765 C   0  0  1  0  0  0  0  0  0  0  0  0
    7.3991  -16.6265   20.7623 C   0  0  0  0  0  0  0  0  0  0  0  0
    6.6492  -16.9846   19.5314 C   0  0  0  0  0  0  0  0  0  0  0  0
    7.0672  -16.7842   18.3632 O   0  0  0  0  0  0  0  0  0  0  0  0
    8.0696  -14.7598   22.2493 C   0  0  0  0  0  0  0  0  0  0  0  0
    9.3364  -14.7659   22.4045 O   0  0  0  0  0  0  0  0  0  0  0  0
    5.4039  -17.5802   19.6930 O   0  0  0  0  0  0  0  0  0  0  0  0
    5.7685  -11.3770   26.0550 C   0  0  0  0  0  0  0  0  0  0  0  0
    6.7725  -12.0003   25.0890 C   0  0  0  0  0  0  0  0  0  0  0  0
    7.0899  -13.3624   25.5931 C   0  0  2  0  0  0  0  0  0  0  0  0
    7.7773  -13.2118   26.9574 C   0  0  0  0  0  0  0  0  0  0  0  0
    7.9381  -14.2160   24.7033 C   0  0  2  0  0  0  0  0  0  0  0  0
    7.3202  -14.3716   23.3940 N   0  0  0  0  0  0  0  0  0  0  0  0
    8.2569  -15.5332   25.3004 C   0  0  0  0  0  0  0  0  0  0  0  0
    7.2821  -16.3062   25.5814 O   0  0  0  0  0  0  0  0  0  0  0  0
   12.2519  -19.9463   25.0587 N   0  0  0  0  0  0  0  0  0  0  0  0
   10.9341  -19.4569   25.3918 C   0  0  0  0  0  0  0  0  0  0  0  0
   10.2142  -20.2646   26.0103 O   0  0  0  0  0  0  0  0  0  0  0  0
   10.5174  -18.1054   25.0109 C   0  0  0  0  0  0  0  0  0  0  0  0
    9.8677  -17.2865   26.0850 C   0  0  2  0  0  0  0  0  0  0  0  0
    9.5683  -15.9546   25.5700 N   0  0  0  0  0  0  0  0  0  0  0  0
   10.6820  -17.2093   27.3084 C   0  0  0  0  0  0  0  0  0  0  0  0
   11.5724  -16.3738   27.5186 O   0  0  0  0  0  0  0  0  0  0  0  0
   10.4919  -18.1263   28.3686 O   0  0  0  0  0  0  0  0  0  0  0  0
  2  3  1  0
  2  1  1  6
  3  4  1  0
  4  5  2  0
  4  8  1  0
  6  2  1  0
  7  6  2  0
  9 10  1  0
 11 10  1  0
 11 13  1  0
 11 12  1  1
 13 15  1  0
 13 14  1  6
 14  6  1  0
 15 16  2  0
 18 17  1  0
 18 19  2  0
 21 20  1  6
 20 18  1  0
 22 21  1  0
 22 15  1  0
 23 21  1  0
 24 23  2  0
 25 23  1  0
M  END
$$$$
