DIN.pdb
     RDKit          3D

 25 24  0  0  1  0  0  0  0  0999 V2000
   10.1711  -16.4687   14.7061 N   0  0  0  0  0  0  0  0  0  0  0  0
    9.3892  -16.9384   15.8364 C   0  0  1  0  0  0  0  0  0  0  0  0
    9.5613  -18.4283   16.0397 C   0  0  0  0  0  0  0  0  0  0  0  0
    9.1369  -19.1934   14.8396 C   0  0  0  0  0  0  0  0  0  0  0  0
    8.2446  -18.8176   14.0384 O   0  0  0  0  0  0  0  0  0  0  0  0
    9.7899  -16.1636   17.0216 C   0  0  0  0  0  0  0  0  0  0  0  0
   11.0022  -15.8322   17.2438 O   0  0  0  0  0  0  0  0  0  0  0  0
    9.7750  -20.4037   14.5955 O   0  0  0  0  0  0  0  0  0  0  0  0
    7.7995  -11.6298   20.3528 C   0  0  0  0  0  0  0  0  0  0  0  0
    8.7755  -12.8021   20.4056 C   0  0  0  0  0  0  0  0  0  0  0  0
    8.3725  -13.7659   19.3478 C   0  0  2  0  0  0  0  0  0  0  0  0
    6.9453  -14.2379   19.6591 C   0  0  0  0  0  0  0  0  0  0  0  0
    9.2591  -14.9578   19.1663 C   0  0  2  0  0  0  0  0  0  0  0  0
    8.8537  -15.7310   18.0008 N   0  0  0  0  0  0  0  0  0  0  0  0
    9.3299  -15.8134   20.3730 C   0  0  0  0  0  0  0  0  0  0  0  0
    8.4055  -16.6758   20.5412 O   0  0  0  0  0  0  0  0  0  0  0  0
   10.1575  -19.4766   21.0367 N   0  0  0  0  0  0  0  0  0  0  0  0
   11.2849  -18.8981   20.3429 C   0  0  0  0  0  0  0  0  0  0  0  0
   11.7840  -19.6195   19.4577 O   0  0  0  0  0  0  0  0  0  0  0  0
   11.7714  -17.5602   20.6873 C   0  0  0  0  0  0  0  0  0  0  0  0
   11.0755  -16.8761   21.8249 C   0  0  2  0  0  0  0  0  0  0  0  0
   10.3549  -15.7096   21.3262 N   0  0  0  0  0  0  0  0  0  0  0  0
   11.9969  -16.5039   22.9104 C   0  0  0  0  0  0  0  0  0  0  0  0
   12.0743  -17.0778   24.0057 O   0  0  0  0  0  0  0  0  0  0  0  0
   12.8915  -15.4178   22.7656 O   0  0  0  0  0  0  0  0  0  0  0  0
  2  3  1  0
  2  1  1  6
  3  4  1  0
  4  5  2  0
  4  8  1  0
  6  2  1  0
  7  6  2  0
  9 10  1  0
 11 10  1  0
 11 13  1  0
 11 12  1  1
 13 15  1  0
 13 14  1  6
 14  6  1  0
 15 16  2  0
 18 17  1  0
 18 19  2  0
 21 20  1  6
 20 18  1  0
 22 21  1  0
 22 15  1  0
 23 21  1  0
 24 23  2  0
 25 23  1  0
M  END
$$$$
