DIN.pdb
     RDKit          3D

 25 24  0  0  1  0  0  0  0  0999 V2000
    8.0023  -14.9129   20.4066 N   0  0  0  0  0  0  0  0  0  0  0  0
    7.6054  -15.7096   21.5543 C   0  0  1  0  0  0  0  0  0  0  0  0
    7.8946  -17.1777   21.3278 C   0  0  0  0  0  0  0  0  0  0  0  0
    7.1814  -17.6942   20.1318 C   0  0  0  0  0  0  0  0  0  0  0  0
    5.9332  -17.8142   20.0478 O   0  0  0  0  0  0  0  0  0  0  0  0
    8.3000  -15.1803   22.7389 C   0  0  0  0  0  0  0  0  0  0  0  0
    9.5502  -14.9235   22.7404 O   0  0  0  0  0  0  0  0  0  0  0  0
    7.9548  -18.0666   19.0387 O   0  0  0  0  0  0  0  0  0  0  0  0
    5.8108  -11.8006   26.2210 C   0  0  0  0  0  0  0  0  0  0  0  0
    6.8789  -12.3845   25.3001 C   0  0  0  0  0  0  0  0  0  0  0  0
    7.4526  -13.5750   25.9812 C   0  0  2  0  0  0  0  0  0  0  0  0
    8.2381  -13.0845   27.2055 C   0  0  0  0  0  0  0  0  0  0  0  0
    8.3325  -14.4535   25.1484 C   0  0  2  0  0  0  0  0  0  0  0  0
    7.6257  -14.9188   23.9634 N   0  0  0  0  0  0  0  0  0  0  0  0
    8.8993  -15.5904   25.9097 C   0  0  0  0  0  0  0  0  0  0  0  0
    8.0814  -16.4123   26.4408 O   0  0  0  0  0  0  0  0  0  0  0  0
   13.9750  -15.7168   26.0724 N   0  0  0  0  0  0  0  0  0  0  0  0
   12.8556  -16.3565   25.4208 C   0  0  0  0  0  0  0  0  0  0  0  0
   12.6186  -15.9527   24.2659 O   0  0  0  0  0  0  0  0  0  0  0  0
   12.0845  -17.3974   26.1045 C   0  0  0  0  0  0  0  0  0  0  0  0
   10.8194  -16.9514   26.7730 C   0  0  2  0  0  0  0  0  0  0  0  0
   10.2788  -15.7918   26.0717 N   0  0  0  0  0  0  0  0  0  0  0  0
   11.0065  -16.6636   28.2041 C   0  0  0  0  0  0  0  0  0  0  0  0
   10.7645  -15.5774   28.7486 O   0  0  0  0  0  0  0  0  0  0  0  0
   11.4979  -17.6530   29.0875 O   0  0  0  0  0  0  0  0  0  0  0  0
  2  3  1  0
  2  1  1  6
  3  4  1  0
  4  5  2  0
  4  8  1  0
  6  2  1  0
  7  6  2  0
  9 10  1  0
 11 10  1  0
 11 13  1  0
 11 12  1  1
 13 15  1  0
 13 14  1  6
 14  6  1  0
 15 16  2  0
 18 17  1  0
 18 19  2  0
 21 20  1  6
 20 18  1  0
 22 21  1  0
 22 15  1  0
 23 21  1  0
 24 23  2  0
 25 23  1  0
M  END
$$$$
