DIN.pdb
     RDKit          3D

 25 24  0  0  1  0  0  0  0  0999 V2000
    7.1390  -16.5461   21.4579 N   0  0  0  0  0  0  0  0  0  0  0  0
    8.5518  -16.2399   21.3182 C   0  0  1  0  0  0  0  0  0  0  0  0
    8.8338  -15.5447   20.0038 C   0  0  0  0  0  0  0  0  0  0  0  0
    8.7487  -16.4885   18.8603 C   0  0  0  0  0  0  0  0  0  0  0  0
    7.6733  -16.9422   18.3942 O   0  0  0  0  0  0  0  0  0  0  0  0
    8.9594  -15.4293   22.4769 C   0  0  0  0  0  0  0  0  0  0  0  0
   10.0925  -14.8449   22.5377 O   0  0  0  0  0  0  0  0  0  0  0  0
    9.9430  -16.8903   18.2739 O   0  0  0  0  0  0  0  0  0  0  0  0
    6.5359  -11.9428   26.7907 C   0  0  0  0  0  0  0  0  0  0  0  0
    7.7717  -12.7814   26.4756 C   0  0  0  0  0  0  0  0  0  0  0  0
    7.4454  -13.6328   25.3013 C   0  0  2  0  0  0  0  0  0  0  0  0
    6.2538  -14.5229   25.6812 C   0  0  0  0  0  0  0  0  0  0  0  0
    8.5549  -14.4890   24.7763 C   0  0  2  0  0  0  0  0  0  0  0  0
    8.1188  -15.2416   23.6085 N   0  0  0  0  0  0  0  0  0  0  0  0
    9.1260  -15.3883   25.8051 C   0  0  0  0  0  0  0  0  0  0  0  0
    8.3922  -16.3407   26.2307 O   0  0  0  0  0  0  0  0  0  0  0  0
   12.6532  -17.1625   24.8021 N   0  0  0  0  0  0  0  0  0  0  0  0
   13.0201  -16.1439   25.7586 C   0  0  0  0  0  0  0  0  0  0  0  0
   13.7956  -15.2701   25.3248 O   0  0  0  0  0  0  0  0  0  0  0  0
   12.4959  -16.1753   27.1260 C   0  0  0  0  0  0  0  0  0  0  0  0
   11.0033  -16.1872   27.2617 C   0  0  2  0  0  0  0  0  0  0  0  0
   10.4200  -15.2320   26.3257 N   0  0  0  0  0  0  0  0  0  0  0  0
   10.5580  -15.9175   28.6383 C   0  0  0  0  0  0  0  0  0  0  0  0
   10.0096  -14.8730   29.0165 O   0  0  0  0  0  0  0  0  0  0  0  0
   10.7375  -16.8765   29.6625 O   0  0  0  0  0  0  0  0  0  0  0  0
  2  3  1  0
  2  1  1  1
  3  4  1  0
  4  5  2  0
  4  8  1  0
  6  2  1  0
  7  6  2  0
  9 10  1  0
 11 10  1  0
 11 13  1  0
 11 12  1  1
 13 15  1  0
 13 14  1  6
 14  6  1  0
 15 16  2  0
 18 17  1  0
 18 19  2  0
 21 20  1  1
 20 18  1  0
 22 21  1  0
 22 15  1  0
 23 21  1  0
 24 23  2  0
 25 23  1  0
M  END
$$$$
