DIN.pdb
     RDKit          3D

 25 24  0  0  1  0  0  0  0  0999 V2000
    8.5933  -14.9286   20.5062 N   0  0  0  0  0  0  0  0  0  0  0  0
    7.8456  -15.5124   21.6060 C   0  0  1  0  0  0  0  0  0  0  0  0
    7.7739  -17.0190   21.4804 C   0  0  0  0  0  0  0  0  0  0  0  0
    7.3340  -17.4311   20.1230 C   0  0  0  0  0  0  0  0  0  0  0  0
    6.3553  -16.9316   19.5131 O   0  0  0  0  0  0  0  0  0  0  0  0
    8.4787  -15.0869   22.8645 C   0  0  0  0  0  0  0  0  0  0  0  0
    9.7252  -14.8257   22.9484 O   0  0  0  0  0  0  0  0  0  0  0  0
    8.0595  -18.4363   19.4946 O   0  0  0  0  0  0  0  0  0  0  0  0
    6.0120  -11.7600   26.3807 C   0  0  0  0  0  0  0  0  0  0  0  0
    7.0648  -12.4021   25.4812 C   0  0  0  0  0  0  0  0  0  0  0  0
    7.4943  -13.6683   26.1310 C   0  0  2  0  0  0  0  0  0  0  0  0
    8.1943  -13.3078   27.4489 C   0  0  0  0  0  0  0  0  0  0  0  0
    8.3879  -14.5564   25.3233 C   0  0  2  0  0  0  0  0  0  0  0  0
    7.7450  -14.9377   24.0736 N   0  0  0  0  0  0  0  0  0  0  0  0
    8.8446  -15.7500   26.0716 C   0  0  0  0  0  0  0  0  0  0  0  0
    7.9574  -16.5821   26.4553 O   0  0  0  0  0  0  0  0  0  0  0  0
   11.2297  -18.9752   24.4270 N   0  0  0  0  0  0  0  0  0  0  0  0
   11.8915  -17.8606   25.0646 C   0  0  0  0  0  0  0  0  0  0  0  0
   12.4501  -17.0649   24.2850 O   0  0  0  0  0  0  0  0  0  0  0  0
   11.8815  -17.7164   26.5222 C   0  0  0  0  0  0  0  0  0  0  0  0
   10.6220  -17.1704   27.1239 C   0  0  2  0  0  0  0  0  0  0  0  0
   10.1930  -15.9939   26.3752 N   0  0  0  0  0  0  0  0  0  0  0  0
   10.7662  -16.8621   28.5557 C   0  0  0  0  0  0  0  0  0  0  0  0
   10.8901  -17.7045   29.4556 O   0  0  0  0  0  0  0  0  0  0  0  0
   10.7714  -15.5243   29.0153 O   0  0  0  0  0  0  0  0  0  0  0  0
  2  3  1  0
  2  1  1  6
  3  4  1  0
  4  5  2  0
  4  8  1  0
  6  2  1  0
  7  6  2  0
  9 10  1  0
 11 10  1  0
 11 13  1  0
 11 12  1  1
 13 15  1  0
 13 14  1  6
 14  6  1  0
 15 16  2  0
 18 17  1  0
 18 19  2  0
 21 20  1  6
 20 18  1  0
 22 21  1  0
 22 15  1  0
 23 21  1  0
 24 23  2  0
 25 23  1  0
M  END
$$$$
