DIN.pdb
     RDKit          3D

 25 24  0  0  1  0  0  0  0  0999 V2000
    8.9079  -15.5804   20.5290 N   0  0  0  0  0  0  0  0  0  0  0  0
    7.9740  -15.9131   21.5903 C   0  0  1  0  0  0  0  0  0  0  0  0
    7.6176  -17.3838   21.5647 C   0  0  0  0  0  0  0  0  0  0  0  0
    6.8898  -17.7453   20.3216 C   0  0  0  0  0  0  0  0  0  0  0  0
    6.9447  -17.0884   19.2516 O   0  0  0  0  0  0  0  0  0  0  0  0
    8.5751  -15.5069   22.8707 C   0  0  0  0  0  0  0  0  0  0  0  0
    9.8365  -15.5100   23.0652 O   0  0  0  0  0  0  0  0  0  0  0  0
    6.0987  -18.8875   20.3543 O   0  0  0  0  0  0  0  0  0  0  0  0
    6.1416  -11.8893   26.3112 C   0  0  0  0  0  0  0  0  0  0  0  0
    7.2107  -12.5636   25.4555 C   0  0  0  0  0  0  0  0  0  0  0  0
    7.5105  -13.8821   26.0736 C   0  0  2  0  0  0  0  0  0  0  0  0
    8.1564  -13.6250   27.4423 C   0  0  0  0  0  0  0  0  0  0  0  0
    8.3842  -14.8016   25.2793 C   0  0  2  0  0  0  0  0  0  0  0  0
    7.7916  -15.0831   23.9793 N   0  0  0  0  0  0  0  0  0  0  0  0
    8.7071  -16.0552   25.9987 C   0  0  0  0  0  0  0  0  0  0  0  0
    7.7398  -16.8303   26.2989 O   0  0  0  0  0  0  0  0  0  0  0  0
   11.4161  -20.1667   27.9581 N   0  0  0  0  0  0  0  0  0  0  0  0
   11.9876  -19.5920   26.7623 C   0  0  0  0  0  0  0  0  0  0  0  0
   12.9300  -20.2394   26.2665 O   0  0  0  0  0  0  0  0  0  0  0  0
   11.4669  -18.3397   26.2091 C   0  0  0  0  0  0  0  0  0  0  0  0
   10.3293  -17.7101   26.9547 C   0  0  2  0  0  0  0  0  0  0  0  0
   10.0143  -16.4146   26.3621 N   0  0  0  0  0  0  0  0  0  0  0  0
   10.5998  -17.5804   28.3955 C   0  0  0  0  0  0  0  0  0  0  0  0
   10.8991  -16.5247   28.9707 O   0  0  0  0  0  0  0  0  0  0  0  0
   10.5334  -18.7037   29.2527 O   0  0  0  0  0  0  0  0  0  0  0  0
  2  3  1  0
  2  1  1  6
  3  4  1  0
  4  5  2  0
  4  8  1  0
  6  2  1  0
  7  6  2  0
  9 10  1  0
 11 10  1  0
 11 13  1  0
 11 12  1  1
 13 15  1  0
 13 14  1  6
 14  6  1  0
 15 16  2  0
 18 17  1  0
 18 19  2  0
 21 20  1  6
 20 18  1  0
 22 21  1  0
 22 15  1  0
 23 21  1  0
 24 23  2  0
 25 23  1  0
M  END
$$$$
