DIN.pdb
     RDKit          3D

 25 24  0  0  1  0  0  0  0  0999 V2000
    7.8687  -14.6334   19.9758 N   0  0  0  0  0  0  0  0  0  0  0  0
    7.3860  -15.4431   21.0808 C   0  0  1  0  0  0  0  0  0  0  0  0
    7.5018  -16.9195   20.7689 C   0  0  0  0  0  0  0  0  0  0  0  0
    6.7133  -17.2843   19.5644 C   0  0  0  0  0  0  0  0  0  0  0  0
    5.4654  -17.1671   19.4718 O   0  0  0  0  0  0  0  0  0  0  0  0
    8.1415  -15.0665   22.2862 C   0  0  0  0  0  0  0  0  0  0  0  0
    9.4046  -14.8834   22.2719 O   0  0  0  0  0  0  0  0  0  0  0  0
    7.4111  -17.7875   18.4729 O   0  0  0  0  0  0  0  0  0  0  0  0
    5.9634  -11.9674   26.3370 C   0  0  0  0  0  0  0  0  0  0  0  0
    6.9341  -12.4755   25.2743 C   0  0  0  0  0  0  0  0  0  0  0  0
    7.4358  -13.8003   25.7255 C   0  0  2  0  0  0  0  0  0  0  0  0
    8.2306  -13.5869   27.0214 C   0  0  0  0  0  0  0  0  0  0  0  0
    8.2788  -14.5566   24.7472 C   0  0  2  0  0  0  0  0  0  0  0  0
    7.5161  -14.8807   23.5498 N   0  0  0  0  0  0  0  0  0  0  0  0
    8.8918  -15.7713   25.3317 C   0  0  0  0  0  0  0  0  0  0  0  0
    8.1124  -16.6290   25.8642 O   0  0  0  0  0  0  0  0  0  0  0  0
   13.4451  -19.5512   25.0908 N   0  0  0  0  0  0  0  0  0  0  0  0
   13.0480  -18.4713   25.9643 C   0  0  0  0  0  0  0  0  0  0  0  0
   13.3912  -18.6048   27.1548 O   0  0  0  0  0  0  0  0  0  0  0  0
   12.2986  -17.3244   25.4462 C   0  0  0  0  0  0  0  0  0  0  0  0
   10.8542  -17.2466   25.8387 C   0  0  2  0  0  0  0  0  0  0  0  0
   10.2751  -16.0086   25.3280 N   0  0  0  0  0  0  0  0  0  0  0  0
   10.6557  -17.3625   27.2924 C   0  0  0  0  0  0  0  0  0  0  0  0
   10.3076  -18.3947   27.8825 O   0  0  0  0  0  0  0  0  0  0  0  0
   10.8578  -16.2524   28.1455 O   0  0  0  0  0  0  0  0  0  0  0  0
  2  3  1  0
  2  1  1  6
  3  4  1  0
  4  5  2  0
  4  8  1  0
  6  2  1  0
  7  6  2  0
  9 10  1  0
 11 10  1  0
 11 13  1  0
 11 12  1  1
 13 15  1  0
 13 14  1  6
 14  6  1  0
 15 16  2  0
 18 17  1  0
 18 19  2  0
 21 20  1  1
 20 18  1  0
 22 21  1  0
 22 15  1  0
 23 21  1  0
 24 23  2  0
 25 23  1  0
M  END
$$$$
