DIN.pdb
     RDKit          3D

 25 24  0  0  1  0  0  0  0  0999 V2000
    9.9974  -17.0812   15.5110 N   0  0  0  0  0  0  0  0  0  0  0  0
    9.1248  -17.4498   16.6120 C   0  0  1  0  0  0  0  0  0  0  0  0
    9.1312  -18.9463   16.8381 C   0  0  0  0  0  0  0  0  0  0  0  0
    8.5231  -19.6717   15.6937 C   0  0  0  0  0  0  0  0  0  0  0  0
    9.1623  -20.4085   14.9012 O   0  0  0  0  0  0  0  0  0  0  0  0
    9.5556  -16.7034   17.8048 C   0  0  0  0  0  0  0  0  0  0  0  0
   10.7772  -16.6439   18.1697 O   0  0  0  0  0  0  0  0  0  0  0  0
    7.1561  -19.5190   15.4948 O   0  0  0  0  0  0  0  0  0  0  0  0
    6.7451  -12.2561   19.7698 C   0  0  0  0  0  0  0  0  0  0  0  0
    7.9173  -13.0994   19.2755 C   0  0  0  0  0  0  0  0  0  0  0  0
    8.0726  -14.2413   20.2147 C   0  0  2  0  0  0  0  0  0  0  0  0
    8.4411  -13.6720   21.5919 C   0  0  0  0  0  0  0  0  0  0  0  0
    9.0726  -15.2852   19.8274 C   0  0  2  0  0  0  0  0  0  0  0  0
    8.6402  -15.9973   18.6331 N   0  0  0  0  0  0  0  0  0  0  0  0
    9.3774  -16.2287   20.9274 C   0  0  0  0  0  0  0  0  0  0  0  0
    8.5087  -17.1228   21.1968 O   0  0  0  0  0  0  0  0  0  0  0  0
   11.9216  -18.9600   24.6778 N   0  0  0  0  0  0  0  0  0  0  0  0
   12.8196  -18.4199   23.6834 C   0  0  0  0  0  0  0  0  0  0  0  0
   14.0020  -18.8014   23.7801 O   0  0  0  0  0  0  0  0  0  0  0  0
   12.3331  -17.4955   22.6565 C   0  0  0  0  0  0  0  0  0  0  0  0
   10.8751  -17.1530   22.7126 C   0  0  2  0  0  0  0  0  0  0  0  0
   10.5630  -16.1742   21.6765 N   0  0  0  0  0  0  0  0  0  0  0  0
   10.4577  -16.6701   24.0387 C   0  0  0  0  0  0  0  0  0  0  0  0
   10.2269  -15.4869   24.3245 O   0  0  0  0  0  0  0  0  0  0  0  0
   10.2875  -17.5667   25.1195 O   0  0  0  0  0  0  0  0  0  0  0  0
  2  3  1  0
  2  1  1  6
  3  4  1  0
  4  5  2  0
  4  8  1  0
  6  2  1  0
  7  6  2  0
  9 10  1  0
 11 10  1  0
 11 13  1  0
 11 12  1  1
 13 15  1  0
 13 14  1  6
 14  6  1  0
 15 16  2  0
 18 17  1  0
 18 19  2  0
 21 20  1  1
 20 18  1  0
 22 21  1  0
 22 15  1  0
 23 21  1  0
 24 23  2  0
 25 23  1  0
M  END
$$$$
