VCQ.pdb
     RDKit          3D

 23 22  0  0  1  0  0  0  0  0999 V2000
    9.4359  -14.7746   17.9716 C   0  0  0  0  0  0  0  0  0  0  0  0
    7.9826  -14.5608   18.2804 C   0  0  2  0  0  0  0  0  0  0  0  0
    7.2630  -14.2406   16.9930 C   0  0  0  0  0  0  0  0  0  0  0  0
    7.7948  -13.4019   19.2701 C   0  0  2  0  0  0  0  0  0  0  0  0
    8.5055  -12.2747   18.7170 N   0  0  0  0  0  0  0  0  0  0  0  0
    8.3479  -13.7338   20.5882 C   0  0  0  0  0  0  0  0  0  0  0  0
    9.5896  -13.4924   20.7713 O   0  0  0  0  0  0  0  0  0  0  0  0
    7.5724  -14.2984   21.6391 N   0  0  0  0  0  0  0  0  0  0  0  0
    8.2503  -14.5343   22.9034 C   0  0  1  0  0  0  0  0  0  0  0  0
    7.1554  -15.0609   23.8249 C   0  0  0  0  0  0  0  0  0  0  0  0
    7.8775  -15.4101   25.4353 S   0  0  0  0  0  0  0  0  0  0  0  0
    9.2883  -15.5650   22.7774 C   0  0  0  0  0  0  0  0  0  0  0  0
    9.0971  -16.5657   21.9949 O   0  0  0  0  0  0  0  0  0  0  0  0
   13.4148  -14.7784   19.6468 N   0  0  0  0  0  0  0  0  0  0  0  0
   14.2185  -15.7178   20.3207 C   0  0  0  0  0  0  0  0  0  0  0  0
   15.2545  -16.2158   19.8283 O   0  0  0  0  0  0  0  0  0  0  0  0
   13.8282  -16.1551   21.6998 C   0  0  0  0  0  0  0  0  0  0  0  0
   12.6104  -15.4210   22.1762 C   0  0  0  0  0  0  0  0  0  0  0  0
   11.7030  -16.2988   22.9405 C   0  0  2  0  0  0  0  0  0  0  0  0
   10.5278  -15.5881   23.4398 N   0  0  0  0  0  0  0  0  0  0  0  0
   12.3139  -16.9863   24.0741 C   0  0  0  0  0  0  0  0  0  0  0  0
   13.3006  -17.9316   23.9299 O   0  0  0  0  0  0  0  0  0  0  0  0
   11.9517  -16.7373   25.2529 O   0  0  0  0  0  0  0  0  0  0  0  0
  2  1  1  6
  2  4  1  0
  3  2  1  0
  4  5  1  6
  6  4  1  0
  7  6  2  0
  8  6  1  0
  9  8  1  0
  9 12  1  0
  9 10  1  1
 11 10  1  0
 12 13  2  0
 12 20  1  0
 14 15  1  0
 15 16  2  0
 17 15  1  0
 17 18  1  0
 19 18  1  1
 19 21  1  0
 20 19  1  0
 21 22  1  0
 23 21  2  0
M  END
$$$$
