VCQ.pdb
     RDKit          3D

 23 22  0  0  1  0  0  0  0  0999 V2000
    7.5339  -12.6136   20.8343 C   0  0  0  0  0  0  0  0  0  0  0  0
    8.3717  -13.6552   20.1515 C   0  0  2  0  0  0  0  0  0  0  0  0
    7.7690  -13.9406   18.7977 C   0  0  0  0  0  0  0  0  0  0  0  0
    8.4151  -14.9519   20.9727 C   0  0  2  0  0  0  0  0  0  0  0  0
    7.0642  -15.4575   21.0074 N   0  0  0  0  0  0  0  0  0  0  0  0
    8.8812  -14.6991   22.3410 C   0  0  0  0  0  0  0  0  0  0  0  0
   10.1386  -14.5366   22.5024 O   0  0  0  0  0  0  0  0  0  0  0  0
    8.0072  -14.6305   23.4618 N   0  0  0  0  0  0  0  0  0  0  0  0
    8.6140  -14.3504   24.7530 C   0  0  1  0  0  0  0  0  0  0  0  0
    7.5044  -13.6750   25.5517 C   0  0  0  0  0  0  0  0  0  0  0  0
    8.1502  -13.2294   27.1706 S   0  0  0  0  0  0  0  0  0  0  0  0
    9.0027  -15.5841   25.4478 C   0  0  0  0  0  0  0  0  0  0  0  0
    8.1444  -16.5291   25.5909 O   0  0  0  0  0  0  0  0  0  0  0  0
   13.5775  -20.5167   25.3402 N   0  0  0  0  0  0  0  0  0  0  0  0
   12.2943  -20.1148   25.7577 C   0  0  0  0  0  0  0  0  0  0  0  0
   11.2381  -20.6160   25.3139 O   0  0  0  0  0  0  0  0  0  0  0  0
   12.1680  -19.0321   26.7861 C   0  0  0  0  0  0  0  0  0  0  0  0
   11.8617  -17.7109   26.1464 C   0  0  0  0  0  0  0  0  0  0  0  0
   10.5978  -17.1370   26.6478 C   0  0  2  0  0  0  0  0  0  0  0  0
   10.2635  -15.8708   25.9993 N   0  0  0  0  0  0  0  0  0  0  0  0
   10.5451  -16.9180   28.0901 C   0  0  0  0  0  0  0  0  0  0  0  0
   10.6063  -17.9429   29.0032 O   0  0  0  0  0  0  0  0  0  0  0  0
   10.4365  -15.7577   28.5643 O   0  0  0  0  0  0  0  0  0  0  0  0
  2  1  1  1
  2  4  1  0
  3  2  1  0
  4  5  1  1
  6  4  1  0
  7  6  2  0
  8  6  1  0
  9  8  1  0
  9 12  1  0
  9 10  1  1
 11 10  1  0
 12 13  2  0
 12 20  1  0
 14 15  1  0
 15 16  2  0
 17 15  1  0
 17 18  1  0
 19 18  1  6
 19 21  1  0
 20 19  1  0
 21 22  1  0
 23 21  2  0
M  END
$$$$
