VCQ.pdb
     RDKit          3D

 23 22  0  0  1  0  0  0  0  0999 V2000
    7.0996  -14.4970   18.5619 C   0  0  0  0  0  0  0  0  0  0  0  0
    7.5303  -14.5877   19.9970 C   0  0  2  0  0  0  0  0  0  0  0  0
    6.6012  -15.5355   20.7153 C   0  0  0  0  0  0  0  0  0  0  0  0
    7.4775  -13.2114   20.6756 C   0  0  2  0  0  0  0  0  0  0  0  0
    8.3831  -12.3606   19.9423 N   0  0  0  0  0  0  0  0  0  0  0  0
    7.9049  -13.2930   22.0770 C   0  0  0  0  0  0  0  0  0  0  0  0
    9.1463  -13.5092   22.2909 O   0  0  0  0  0  0  0  0  0  0  0  0
    7.0114  -13.1440   23.1743 N   0  0  0  0  0  0  0  0  0  0  0  0
    7.5759  -13.2867   24.5065 C   0  0  1  0  0  0  0  0  0  0  0  0
    6.4557  -12.8399   25.4397 C   0  0  0  0  0  0  0  0  0  0  0  0
    6.9750  -13.1229   27.1387 S   0  0  0  0  0  0  0  0  0  0  0  0
    7.9033  -14.6857   24.8089 C   0  0  0  0  0  0  0  0  0  0  0  0
    7.0792  -15.6153   24.4818 O   0  0  0  0  0  0  0  0  0  0  0  0
    9.4165  -18.1947   22.0462 N   0  0  0  0  0  0  0  0  0  0  0  0
   10.3907  -18.8233   22.8451 C   0  0  0  0  0  0  0  0  0  0  0  0
   10.8039  -19.9855   22.6390 O   0  0  0  0  0  0  0  0  0  0  0  0
   10.9739  -18.0770   24.0063 C   0  0  0  0  0  0  0  0  0  0  0  0
   10.4076  -16.6915   24.0989 C   0  0  0  0  0  0  0  0  0  0  0  0
    9.5753  -16.5172   25.3051 C   0  0  2  0  0  0  0  0  0  0  0  0
    9.0683  -15.1534   25.4414 N   0  0  0  0  0  0  0  0  0  0  0  0
   10.2250  -16.8709   26.5636 C   0  0  0  0  0  0  0  0  0  0  0  0
   10.4195  -15.9695   27.5821 O   0  0  0  0  0  0  0  0  0  0  0  0
   10.6439  -18.0394   26.7688 O   0  0  0  0  0  0  0  0  0  0  0  0
  2  1  1  6
  2  4  1  0
  3  2  1  0
  4  5  1  6
  6  4  1  0
  7  6  2  0
  8  6  1  0
  9  8  1  0
  9 12  1  0
  9 10  1  1
 11 10  1  0
 12 13  2  0
 12 20  1  0
 14 15  1  0
 15 16  2  0
 17 15  1  0
 17 18  1  0
 19 18  1  6
 19 21  1  0
 20 19  1  0
 21 22  1  0
 23 21  2  0
M  END
$$$$
