VCQ.pdb
     RDKit          3D

 23 22  0  0  1  0  0  0  0  0999 V2000
    7.8183  -12.5842   18.8705 C   0  0  0  0  0  0  0  0  0  0  0  0
    7.7855  -13.5237   20.0407 C   0  0  2  0  0  0  0  0  0  0  0  0
    8.4837  -12.8623   21.2037 C   0  0  0  0  0  0  0  0  0  0  0  0
    8.4938  -14.8444   19.7063 C   0  0  2  0  0  0  0  0  0  0  0  0
    7.7672  -15.4288   18.6053 N   0  0  0  0  0  0  0  0  0  0  0  0
    8.4748  -15.7623   20.8510 C   0  0  0  0  0  0  0  0  0  0  0  0
    7.5593  -16.6542   20.8614 O   0  0  0  0  0  0  0  0  0  0  0  0
    9.4129  -15.6960   21.9188 N   0  0  0  0  0  0  0  0  0  0  0  0
    9.3407  -16.7439   22.9240 C   0  0  1  0  0  0  0  0  0  0  0  0
    9.6333  -18.0263   22.1525 C   0  0  0  0  0  0  0  0  0  0  0  0
   11.2128  -17.8437   21.3110 S   0  0  0  0  0  0  0  0  0  0  0  0
   10.3713  -16.5762   23.9562 C   0  0  0  0  0  0  0  0  0  0  0  0
   11.5437  -16.1708   23.6223 O   0  0  0  0  0  0  0  0  0  0  0  0
    9.0074  -12.5901   28.0511 N   0  0  0  0  0  0  0  0  0  0  0  0
    9.6158  -13.8427   28.2593 C   0  0  0  0  0  0  0  0  0  0  0  0
    9.8633  -14.3070   29.3937 O   0  0  0  0  0  0  0  0  0  0  0  0
    9.9931  -14.6763   27.0726 C   0  0  0  0  0  0  0  0  0  0  0  0
   10.8580  -15.8328   27.4764 C   0  0  0  0  0  0  0  0  0  0  0  0
   11.2911  -16.6287   26.3114 C   0  0  2  0  0  0  0  0  0  0  0  0
   10.2214  -16.8146   25.3334 N   0  0  0  0  0  0  0  0  0  0  0  0
   11.8303  -17.9480   26.6273 C   0  0  0  0  0  0  0  0  0  0  0  0
   12.9639  -18.1296   27.3821 O   0  0  0  0  0  0  0  0  0  0  0  0
   11.2679  -18.9931   26.2098 O   0  0  0  0  0  0  0  0  0  0  0  0
  2  1  1  6
  2  4  1  0
  3  2  1  0
  4  5  1  6
  6  4  1  0
  7  6  2  0
  8  6  1  0
  9  8  1  0
  9 12  1  0
  9 10  1  6
 11 10  1  0
 12 13  2  0
 12 20  1  0
 14 15  1  0
 15 16  2  0
 17 15  1  0
 17 18  1  0
 19 18  1  1
 19 21  1  0
 20 19  1  0
 21 22  1  0
 23 21  2  0
M  END
$$$$
