VCQ.pdb
     RDKit          3D

 23 22  0  0  1  0  0  0  0  0999 V2000
    6.9471  -12.7385   18.5244 C   0  0  0  0  0  0  0  0  0  0  0  0
    7.7478  -12.9986   19.7670 C   0  0  2  0  0  0  0  0  0  0  0  0
    9.1988  -13.1441   19.3784 C   0  0  0  0  0  0  0  0  0  0  0  0
    7.2773  -14.2820   20.4665 C   0  0  2  0  0  0  0  0  0  0  0  0
    5.8407  -14.1897   20.5636 N   0  0  0  0  0  0  0  0  0  0  0  0
    7.8550  -14.3973   21.8105 C   0  0  0  0  0  0  0  0  0  0  0  0
    7.5701  -13.4706   22.6434 O   0  0  0  0  0  0  0  0  0  0  0  0
    8.6968  -15.4737   22.2072 N   0  0  0  0  0  0  0  0  0  0  0  0
    9.3069  -15.3811   23.5236 C   0  0  1  0  0  0  0  0  0  0  0  0
    8.1237  -15.3445   24.4849 C   0  0  0  0  0  0  0  0  0  0  0  0
    6.9841  -16.6653   24.0453 S   0  0  0  0  0  0  0  0  0  0  0  0
   10.1183  -16.5661   23.8291 C   0  0  0  0  0  0  0  0  0  0  0  0
    9.6620  -17.7353   23.5552 O   0  0  0  0  0  0  0  0  0  0  0  0
   13.4182  -14.4339   20.3804 N   0  0  0  0  0  0  0  0  0  0  0  0
   14.4357  -15.3321   20.7550 C   0  0  0  0  0  0  0  0  0  0  0  0
   15.5403  -15.4019   20.1729 O   0  0  0  0  0  0  0  0  0  0  0  0
   14.2010  -16.2600   21.9081 C   0  0  0  0  0  0  0  0  0  0  0  0
   12.8725  -15.9976   22.5523 C   0  0  0  0  0  0  0  0  0  0  0  0
   12.6191  -16.9125   23.6823 C   0  0  2  0  0  0  0  0  0  0  0  0
   11.3979  -16.5754   24.4107 N   0  0  0  0  0  0  0  0  0  0  0  0
   13.7001  -17.0063   24.6589 C   0  0  0  0  0  0  0  0  0  0  0  0
   13.8665  -16.0990   25.6772 O   0  0  0  0  0  0  0  0  0  0  0  0
   14.5415  -17.9400   24.6042 O   0  0  0  0  0  0  0  0  0  0  0  0
  2  1  1  6
  2  4  1  0
  3  2  1  0
  4  5  1  1
  6  4  1  0
  7  6  2  0
  8  6  1  0
  9  8  1  0
  9 12  1  0
  9 10  1  1
 11 10  1  0
 12 13  2  0
 12 20  1  0
 14 15  1  0
 15 16  2  0
 17 15  1  0
 17 18  1  0
 19 18  1  6
 19 21  1  0
 20 19  1  0
 21 22  1  0
 23 21  2  0
M  END
$$$$
