VCQ.pdb
     RDKit          3D

 23 22  0  0  1  0  0  0  0  0999 V2000
    6.2667  -16.7881   19.7354 C   0  0  0  0  0  0  0  0  0  0  0  0
    7.0702  -16.2387   20.8781 C   0  0  2  0  0  0  0  0  0  0  0  0
    6.7035  -16.9993   22.1289 C   0  0  0  0  0  0  0  0  0  0  0  0
    6.7801  -14.7454   21.0872 C   0  0  2  0  0  0  0  0  0  0  0  0
    7.0990  -14.0902   19.8420 N   0  0  0  0  0  0  0  0  0  0  0  0
    7.6089  -14.1885   22.1626 C   0  0  0  0  0  0  0  0  0  0  0  0
    8.8374  -13.9658   21.8891 O   0  0  0  0  0  0  0  0  0  0  0  0
    7.1069  -13.8962   23.4615 N   0  0  0  0  0  0  0  0  0  0  0  0
    8.0588  -13.3873   24.4356 C   0  0  1  0  0  0  0  0  0  0  0  0
    7.2039  -12.5948   25.4186 C   0  0  0  0  0  0  0  0  0  0  0  0
    5.9460  -13.6870   26.0977 S   0  0  0  0  0  0  0  0  0  0  0  0
    8.7202  -14.4756   25.1662 C   0  0  0  0  0  0  0  0  0  0  0  0
    8.0180  -15.4442   25.6342 O   0  0  0  0  0  0  0  0  0  0  0  0
   10.7905  -16.6981   31.2032 N   0  0  0  0  0  0  0  0  0  0  0  0
   10.5659  -15.7622   30.1756 C   0  0  0  0  0  0  0  0  0  0  0  0
   10.0571  -14.6365   30.3696 O   0  0  0  0  0  0  0  0  0  0  0  0
   10.9500  -16.1155   28.7709 C   0  0  0  0  0  0  0  0  0  0  0  0
   10.3372  -15.1644   27.7866 C   0  0  0  0  0  0  0  0  0  0  0  0
   10.6650  -15.5272   26.3941 C   0  0  2  0  0  0  0  0  0  0  0  0
   10.0969  -14.5925   25.4250 N   0  0  0  0  0  0  0  0  0  0  0  0
   10.2640  -16.8723   25.9927 C   0  0  0  0  0  0  0  0  0  0  0  0
   10.8165  -18.0082   26.5334 O   0  0  0  0  0  0  0  0  0  0  0  0
    9.3797  -17.0485   25.1153 O   0  0  0  0  0  0  0  0  0  0  0  0
  2  1  1  6
  2  4  1  0
  3  2  1  0
  4  5  1  6
  6  4  1  0
  7  6  2  0
  8  6  1  0
  9  8  1  0
  9 12  1  0
  9 10  1  1
 11 10  1  0
 12 13  2  0
 12 20  1  0
 14 15  1  0
 15 16  2  0
 17 15  1  0
 17 18  1  0
 19 18  1  1
 19 21  1  0
 20 19  1  0
 21 22  1  0
 23 21  2  0
M  END
$$$$
