VCQ.pdb
     RDKit          3D

 23 22  0  0  1  0  0  0  0  0999 V2000
    3.8702  -20.0705   22.3492 C   0  0  0  0  0  0  0  0  0  0  0  0
    5.1466  -19.2814   22.3855 C   0  0  2  0  0  0  0  0  0  0  0  0
    5.2484  -18.5995   23.7280 C   0  0  0  0  0  0  0  0  0  0  0  0
    5.1709  -18.2224   21.2738 C   0  0  2  0  0  0  0  0  0  0  0  0
    5.0091  -18.9344   20.0295 N   0  0  0  0  0  0  0  0  0  0  0  0
    6.4445  -17.4936   21.2618 C   0  0  0  0  0  0  0  0  0  0  0  0
    7.4776  -18.1418   20.8795 O   0  0  0  0  0  0  0  0  0  0  0  0
    6.5658  -16.1299   21.6495 N   0  0  0  0  0  0  0  0  0  0  0  0
    7.9015  -15.5561   21.6280 C   0  0  1  0  0  0  0  0  0  0  0  0
    7.6636  -14.0504   21.5904 C   0  0  0  0  0  0  0  0  0  0  0  0
    6.7260  -13.5793   23.0517 S   0  0  0  0  0  0  0  0  0  0  0  0
    8.6493  -15.8788   22.8497 C   0  0  0  0  0  0  0  0  0  0  0  0
    8.0996  -15.6977   23.9966 O   0  0  0  0  0  0  0  0  0  0  0  0
    8.9490  -20.1552   25.2306 N   0  0  0  0  0  0  0  0  0  0  0  0
    9.7396  -20.1790   24.0658 C   0  0  0  0  0  0  0  0  0  0  0  0
    9.7339  -21.1267   23.2499 O   0  0  0  0  0  0  0  0  0  0  0  0
   10.6403  -19.0180   23.7721 C   0  0  0  0  0  0  0  0  0  0  0  0
   10.4399  -17.9125   24.7653 C   0  0  0  0  0  0  0  0  0  0  0  0
   10.6880  -16.5856   24.1687 C   0  0  2  0  0  0  0  0  0  0  0  0
    9.9569  -16.3899   22.9187 N   0  0  0  0  0  0  0  0  0  0  0  0
   12.0905  -16.2744   23.9095 C   0  0  0  0  0  0  0  0  0  0  0  0
   13.0555  -16.3088   24.8870 O   0  0  0  0  0  0  0  0  0  0  0  0
   12.4791  -15.9529   22.7569 O   0  0  0  0  0  0  0  0  0  0  0  0
  2  1  1  1
  2  4  1  0
  3  2  1  0
  4  5  1  6
  6  4  1  0
  7  6  2  0
  8  6  1  0
  9  8  1  0
  9 12  1  0
  9 10  1  1
 11 10  1  0
 12 13  2  0
 12 20  1  0
 14 15  1  0
 15 16  2  0
 17 15  1  0
 17 18  1  0
 19 18  1  6
 19 21  1  0
 20 19  1  0
 21 22  1  0
 23 21  2  0
M  END
$$$$
