VCQ.pdb
     RDKit          3D

 23 22  0  0  1  0  0  0  0  0999 V2000
    8.4102  -15.2109   19.8122 C   0  0  0  0  0  0  0  0  0  0  0  0
    7.0180  -14.6964   20.0358 C   0  0  2  0  0  0  0  0  0  0  0  0
    6.3229  -14.6034   18.6995 C   0  0  0  0  0  0  0  0  0  0  0  0
    7.0429  -13.3093   20.6940 C   0  0  2  0  0  0  0  0  0  0  0  0
    7.7246  -12.4333   19.7724 N   0  0  0  0  0  0  0  0  0  0  0  0
    7.7660  -13.3396   21.9705 C   0  0  0  0  0  0  0  0  0  0  0  0
    8.6256  -12.4150   22.1698 O   0  0  0  0  0  0  0  0  0  0  0  0
    7.5498  -14.3337   22.9653 N   0  0  0  0  0  0  0  0  0  0  0  0
    8.3069  -14.2048   24.1998 C   0  0  1  0  0  0  0  0  0  0  0  0
    7.7247  -12.9652   24.8705 C   0  0  0  0  0  0  0  0  0  0  0  0
    5.9959  -13.2786   25.2571 S   0  0  0  0  0  0  0  0  0  0  0  0
    8.0969  -15.3559   25.0867 C   0  0  0  0  0  0  0  0  0  0  0  0
    6.9698  -15.9722   25.0703 O   0  0  0  0  0  0  0  0  0  0  0  0
   13.5403  -17.8349   22.7701 N   0  0  0  0  0  0  0  0  0  0  0  0
   12.2288  -18.0943   23.2118 C   0  0  0  0  0  0  0  0  0  0  0  0
   11.3040  -18.4508   22.4492 O   0  0  0  0  0  0  0  0  0  0  0  0
   11.9057  -17.9407   24.6670 C   0  0  0  0  0  0  0  0  0  0  0  0
   11.0435  -16.7373   24.9060 C   0  0  0  0  0  0  0  0  0  0  0  0
    9.8519  -17.0659   25.7124 C   0  0  2  0  0  0  0  0  0  0  0  0
    9.0270  -15.8929   25.9935 N   0  0  0  0  0  0  0  0  0  0  0  0
   10.1270  -17.7237   26.9862 C   0  0  0  0  0  0  0  0  0  0  0  0
   10.0243  -19.0825   27.1618 O   0  0  0  0  0  0  0  0  0  0  0  0
   10.4739  -17.0581   27.9959 O   0  0  0  0  0  0  0  0  0  0  0  0
  2  1  1  6
  2  4  1  0
  3  2  1  0
  4  5  1  6
  6  4  1  0
  7  6  2  0
  8  6  1  0
  9  8  1  0
  9 12  1  0
  9 10  1  1
 11 10  1  0
 12 13  2  0
 12 20  1  0
 14 15  1  0
 15 16  2  0
 17 15  1  0
 17 18  1  0
 19 18  1  1
 19 21  1  0
 20 19  1  0
 21 22  1  0
 23 21  2  0
M  END
$$$$
