NHD.pdb
     RDKit          3D

 27 27  0  0  1  0  0  0  0  0999 V2000
    7.4734  -17.2404   16.0320 N   0  0  0  0  0  0  0  0  0  0  0  0
    8.2721  -16.3665   15.2751 C   0  0  0  0  0  0  0  0  0  0  0  0
    7.7490  -15.7163   14.3206 O   0  0  0  0  0  0  0  0  0  0  0  0
    9.7039  -16.2422   15.6232 C   0  0  0  0  0  0  0  0  0  0  0  0
   10.1351  -17.2627   16.6697 C   0  0  2  0  0  0  0  0  0  0  0  0
    8.9653  -18.0948   17.0187 N   0  0  0  0  0  0  0  0  0  0  0  0
   10.4736  -16.4846   17.8847 C   0  0  0  0  0  0  0  0  0  0  0  0
   11.4666  -15.6935   17.8870 O   0  0  0  0  0  0  0  0  0  0  0  0
    9.7281  -16.5753   19.0884 N   0  0  0  0  0  0  0  0  0  0  0  0
   10.1898  -15.8157   20.2519 C   0  0  1  0  0  0  0  0  0  0  0  0
    8.9048  -15.2169   20.8458 C   0  0  0  0  0  0  0  0  0  0  0  0
    8.3172  -14.2071   19.9489 C   0  0  0  0  0  0  0  0  0  0  0  0
    8.9653  -13.4039   19.0627 C   0  0  0  0  0  0  0  0  0  0  0  0
    8.0385  -12.6481   18.4625 N   0  0  0  0  0  0  0  0  0  0  0  0
    6.8326  -12.9822   18.9725 C   0  0  0  0  0  0  0  0  0  0  0  0
    7.0012  -13.9520   19.8984 N   0  0  0  0  0  0  0  0  0  0  0  0
   10.8579  -16.6728   21.2351 C   0  0  0  0  0  0  0  0  0  0  0  0
   10.4084  -17.8241   21.4694 O   0  0  0  0  0  0  0  0  0  0  0  0
   11.9987  -16.2239   21.9229 N   0  0  0  0  0  0  0  0  0  0  0  0
   13.0266  -17.0741   22.4520 C   0  0  1  0  0  0  0  0  0  0  0  0
   13.6037  -18.0507   21.4138 C   0  0  0  0  0  0  0  0  0  0  0  0
   14.6185  -18.9364   21.9739 C   0  0  0  0  0  0  0  0  0  0  0  0
   14.5143  -19.3706   23.1534 O   0  0  0  0  0  0  0  0  0  0  0  0
   14.0964  -16.3437   23.1544 C   0  0  0  0  0  0  0  0  0  0  0  0
   14.6586  -15.3781   22.5852 O   0  0  0  0  0  0  0  0  0  0  0  0
   15.7374  -19.3430   21.2420 O   0  0  0  0  0  0  0  0  0  0  0  0
   14.5108  -16.6794   24.4282 O   0  0  0  0  0  0  0  0  0  0  0  0
  2  3  2  0
  2  1  1  0
  4  2  1  0
  5  4  1  0
  5  7  1  0
  5  6  1  1
  7  8  2  0
  9 10  1  0
  9  7  1  0
 11 12  1  0
 10 11  1  1
 12 16  1  0
 13 14  1  0
 13 12  2  0
 14 15  1  0
 15 16  2  0
 17 10  1  0
 17 18  2  0
 19 17  1  0
 20 19  1  0
 20 24  1  0
 20 21  1  6
 22 23  2  0
 22 21  1  0
 24 25  2  0
 24 27  1  0
 26 22  1  0
M  END
$$$$
