NHD.pdb
     RDKit          3D

 27 27  0  0  1  0  0  0  0  0999 V2000
    8.0664  -18.5309   16.6710 N   0  0  0  0  0  0  0  0  0  0  0  0
    8.4632  -19.3346   17.7531 C   0  0  0  0  0  0  0  0  0  0  0  0
    8.2445  -20.5828   17.7129 O   0  0  0  0  0  0  0  0  0  0  0  0
    9.1224  -18.6858   18.9069 C   0  0  0  0  0  0  0  0  0  0  0  0
    9.2233  -17.1744   18.7403 C   0  0  2  0  0  0  0  0  0  0  0  0
   10.5017  -16.8641   18.0679 N   0  0  0  0  0  0  0  0  0  0  0  0
    9.3241  -16.6177   20.1100 C   0  0  0  0  0  0  0  0  0  0  0  0
   10.3892  -16.7596   20.7863 O   0  0  0  0  0  0  0  0  0  0  0  0
    8.2629  -15.9113   20.7329 N   0  0  0  0  0  0  0  0  0  0  0  0
    8.4451  -15.4564   22.1128 C   0  0  1  0  0  0  0  0  0  0  0  0
    7.1518  -14.6896   22.4312 C   0  0  0  0  0  0  0  0  0  0  0  0
    7.1878  -14.1129   23.7861 C   0  0  0  0  0  0  0  0  0  0  0  0
    8.1613  -14.2564   24.7255 C   0  0  0  0  0  0  0  0  0  0  0  0
    7.7786  -13.5590   25.8014 N   0  0  0  0  0  0  0  0  0  0  0  0
    6.5832  -12.9914   25.5281 C   0  0  0  0  0  0  0  0  0  0  0  0
    6.2114  -13.3338   24.2748 N   0  0  0  0  0  0  0  0  0  0  0  0
    8.6178  -16.5778   23.0404 C   0  0  0  0  0  0  0  0  0  0  0  0
    8.2467  -17.7315   22.7031 O   0  0  0  0  0  0  0  0  0  0  0  0
    9.1944  -16.3807   24.3071 N   0  0  0  0  0  0  0  0  0  0  0  0
   10.0463  -17.3213   24.9773 C   0  0  1  0  0  0  0  0  0  0  0  0
   11.2220  -17.8031   24.1112 C   0  0  0  0  0  0  0  0  0  0  0  0
   12.0753  -18.7645   24.8010 C   0  0  0  0  0  0  0  0  0  0  0  0
   11.5787  -19.7756   25.3681 O   0  0  0  0  0  0  0  0  0  0  0  0
   10.5062  -16.8656   26.3010 C   0  0  0  0  0  0  0  0  0  0  0  0
   10.9055  -17.7098   27.1380 O   0  0  0  0  0  0  0  0  0  0  0  0
   13.4635  -18.6162   24.8644 O   0  0  0  0  0  0  0  0  0  0  0  0
   10.5182  -15.5333   26.6638 O   0  0  0  0  0  0  0  0  0  0  0  0
  2  3  2  0
  2  1  1  0
  4  2  1  0
  5  4  1  0
  5  7  1  0
  5  6  1  6
  7  8  2  0
  9 10  1  0
  9  7  1  0
 11 12  1  0
 10 11  1  1
 12 16  1  0
 13 14  1  0
 13 12  2  0
 14 15  1  0
 15 16  2  0
 17 10  1  0
 17 18  2  0
 19 17  1  0
 20 19  1  0
 20 24  1  0
 20 21  1  6
 22 23  2  0
 22 21  1  0
 24 25  2  0
 24 27  1  0
 26 22  1  0
M  END
$$$$
