NHD.pdb
     RDKit          3D

 27 27  0  0  1  0  0  0  0  0999 V2000
    3.7035  -19.6188   22.3997 N   0  0  0  0  0  0  0  0  0  0  0  0
    4.5006  -19.6774   21.2441 C   0  0  0  0  0  0  0  0  0  0  0  0
    4.0447  -20.2387   20.2027 O   0  0  0  0  0  0  0  0  0  0  0  0
    5.8526  -19.0800   21.2908 C   0  0  0  0  0  0  0  0  0  0  0  0
    6.1151  -18.1508   20.1117 C   0  0  2  0  0  0  0  0  0  0  0  0
    6.4623  -18.9759   18.9365 N   0  0  0  0  0  0  0  0  0  0  0  0
    7.3337  -17.3827   20.4597 C   0  0  0  0  0  0  0  0  0  0  0  0
    8.4850  -17.8427   20.1860 O   0  0  0  0  0  0  0  0  0  0  0  0
    7.2887  -16.1196   21.1042 N   0  0  0  0  0  0  0  0  0  0  0  0
    8.5472  -15.4026   21.3191 C   0  0  1  0  0  0  0  0  0  0  0  0
    8.1735  -13.9225   21.1402 C   0  0  0  0  0  0  0  0  0  0  0  0
    7.9266  -13.5971   19.7250 C   0  0  0  0  0  0  0  0  0  0  0  0
    6.8851  -12.8949   19.2025 C   0  0  0  0  0  0  0  0  0  0  0  0
    7.0692  -12.8410   17.8782 N   0  0  0  0  0  0  0  0  0  0  0  0
    8.2115  -13.5019   17.5878 C   0  0  0  0  0  0  0  0  0  0  0  0
    8.7485  -13.9745   18.7344 N   0  0  0  0  0  0  0  0  0  0  0  0
    9.0879  -15.6362   22.6611 C   0  0  0  0  0  0  0  0  0  0  0  0
    8.3622  -15.4428   23.6703 O   0  0  0  0  0  0  0  0  0  0  0  0
   10.4119  -16.0748   22.8364 N   0  0  0  0  0  0  0  0  0  0  0  0
   10.9118  -16.7284   24.0121 C   0  0  1  0  0  0  0  0  0  0  0  0
   10.4314  -18.1824   24.1518 C   0  0  0  0  0  0  0  0  0  0  0  0
   11.0034  -18.8577   25.3115 C   0  0  0  0  0  0  0  0  0  0  0  0
   11.7963  -18.2523   26.0831 O   0  0  0  0  0  0  0  0  0  0  0  0
   12.3737  -16.6288   24.1689 C   0  0  0  0  0  0  0  0  0  0  0  0
   12.9253  -17.1724   25.1553 O   0  0  0  0  0  0  0  0  0  0  0  0
   10.7040  -20.1872   25.6211 O   0  0  0  0  0  0  0  0  0  0  0  0
   13.1725  -15.9563   23.2653 O   0  0  0  0  0  0  0  0  0  0  0  0
  2  3  2  0
  2  1  1  0
  4  2  1  0
  5  4  1  0
  5  7  1  0
  5  6  1  6
  7  8  2  0
  9 10  1  0
  9  7  1  0
 11 12  1  0
 10 11  1  1
 12 16  1  0
 13 14  1  0
 13 12  2  0
 14 15  1  0
 15 16  2  0
 17 10  1  0
 17 18  2  0
 19 17  1  0
 20 19  1  0
 20 24  1  0
 20 21  1  6
 22 23  2  0
 22 21  1  0
 24 25  2  0
 24 27  1  0
 26 22  1  0
M  END
$$$$
