NHD.pdb
     RDKit          3D

 27 27  0  0  1  0  0  0  0  0999 V2000
   13.9363  -17.4924   12.7451 N   0  0  0  0  0  0  0  0  0  0  0  0
   13.9219  -18.1884   13.9657 C   0  0  0  0  0  0  0  0  0  0  0  0
   14.1470  -19.4360   13.9721 O   0  0  0  0  0  0  0  0  0  0  0  0
   13.6383  -17.4314   15.2040 C   0  0  0  0  0  0  0  0  0  0  0  0
   13.3335  -15.9640   14.9275 C   0  0  2  0  0  0  0  0  0  0  0  0
   14.6110  -15.2574   14.7009 N   0  0  0  0  0  0  0  0  0  0  0  0
   12.7704  -15.4192   16.1854 C   0  0  0  0  0  0  0  0  0  0  0  0
   13.5350  -15.0896   17.1438 O   0  0  0  0  0  0  0  0  0  0  0  0
   11.3780  -15.2387   16.3898 N   0  0  0  0  0  0  0  0  0  0  0  0
   10.9259  -14.7174   17.6813 C   0  0  1  0  0  0  0  0  0  0  0  0
    9.4203  -14.4784   17.4857 C   0  0  0  0  0  0  0  0  0  0  0  0
    8.7926  -13.9657   18.7156 C   0  0  0  0  0  0  0  0  0  0  0  0
    9.3600  -13.8294   19.9445 C   0  0  0  0  0  0  0  0  0  0  0  0
    8.4256  -13.3236   20.7578 N   0  0  0  0  0  0  0  0  0  0  0  0
    7.2951  -13.1495   20.0382 C   0  0  0  0  0  0  0  0  0  0  0  0
    7.5188  -13.5482   18.7665 N   0  0  0  0  0  0  0  0  0  0  0  0
   11.1562  -15.6732   18.7681 C   0  0  0  0  0  0  0  0  0  0  0  0
   10.9848  -16.9030   18.5665 O   0  0  0  0  0  0  0  0  0  0  0  0
   11.5674  -15.2324   20.0380 N   0  0  0  0  0  0  0  0  0  0  0  0
   11.8423  -16.0894   21.1558 C   0  0  1  0  0  0  0  0  0  0  0  0
   13.3016  -16.5712   21.2098 C   0  0  0  0  0  0  0  0  0  0  0  0
   14.2497  -15.4808   21.4110 C   0  0  0  0  0  0  0  0  0  0  0  0
   14.1521  -14.4121   20.7485 O   0  0  0  0  0  0  0  0  0  0  0  0
   11.4133  -15.5308   22.4502 C   0  0  0  0  0  0  0  0  0  0  0  0
   11.0996  -14.3188   22.5239 O   0  0  0  0  0  0  0  0  0  0  0  0
   15.2950  -15.5645   22.3348 O   0  0  0  0  0  0  0  0  0  0  0  0
   11.3394  -16.2933   23.5992 O   0  0  0  0  0  0  0  0  0  0  0  0
  2  3  2  0
  2  1  1  0
  4  2  1  0
  5  4  1  0
  5  7  1  0
  5  6  1  1
  7  8  2  0
  9 10  1  0
  9  7  1  0
 11 12  1  0
 10 11  1  6
 12 16  1  0
 13 14  1  0
 13 12  2  0
 14 15  1  0
 15 16  2  0
 17 10  1  0
 17 18  2  0
 19 17  1  0
 20 19  1  0
 20 24  1  0
 20 21  1  1
 22 23  2  0
 22 21  1  0
 24 25  2  0
 24 27  1  0
 26 22  1  0
M  END
$$$$
