NHD.pdb
     RDKit          3D

 27 27  0  0  1  0  0  0  0  0999 V2000
    8.1963  -15.9129   16.8972 N   0  0  0  0  0  0  0  0  0  0  0  0
    8.2347  -14.6640   17.5400 C   0  0  0  0  0  0  0  0  0  0  0  0
    8.1158  -13.6066   16.8508 O   0  0  0  0  0  0  0  0  0  0  0  0
    8.4177  -14.6332   19.0072 C   0  0  0  0  0  0  0  0  0  0  0  0
    8.5675  -16.0289   19.6005 C   0  0  2  0  0  0  0  0  0  0  0  0
    7.2558  -16.7057   19.5364 N   0  0  0  0  0  0  0  0  0  0  0  0
    8.8680  -15.8321   21.0382 C   0  0  0  0  0  0  0  0  0  0  0  0
    9.9515  -15.2780   21.3998 O   0  0  0  0  0  0  0  0  0  0  0  0
    7.9859  -16.2417   22.0712 N   0  0  0  0  0  0  0  0  0  0  0  0
    8.4596  -16.1819   23.4554 C   0  0  1  0  0  0  0  0  0  0  0  0
    7.1795  -15.9919   24.2845 C   0  0  0  0  0  0  0  0  0  0  0  0
    6.9692  -14.5762   24.6328 C   0  0  0  0  0  0  0  0  0  0  0  0
    7.7858  -13.5227   24.3611 C   0  0  0  0  0  0  0  0  0  0  0  0
    7.1982  -12.4282   24.8586 N   0  0  0  0  0  0  0  0  0  0  0  0
    6.0324  -12.8028   25.4299 C   0  0  0  0  0  0  0  0  0  0  0  0
    5.8858  -14.1392   25.2921 N   0  0  0  0  0  0  0  0  0  0  0  0
    9.1488  -17.4132   23.8516 C   0  0  0  0  0  0  0  0  0  0  0  0
    8.8333  -18.5068   23.3160 O   0  0  0  0  0  0  0  0  0  0  0  0
   10.1616  -17.3884   24.8261 N   0  0  0  0  0  0  0  0  0  0  0  0
   10.8014  -18.5494   25.3756 C   0  0  1  0  0  0  0  0  0  0  0  0
   12.1498  -18.8737   24.7114 C   0  0  0  0  0  0  0  0  0  0  0  0
   13.0896  -17.7593   24.7666 C   0  0  0  0  0  0  0  0  0  0  0  0
   12.7345  -16.5996   24.4208 O   0  0  0  0  0  0  0  0  0  0  0  0
   10.9197  -18.5215   26.8442 C   0  0  0  0  0  0  0  0  0  0  0  0
   10.6317  -17.4706   27.4650 O   0  0  0  0  0  0  0  0  0  0  0  0
   14.4084  -17.9188   25.2006 O   0  0  0  0  0  0  0  0  0  0  0  0
   11.3373  -19.6158   27.5757 O   0  0  0  0  0  0  0  0  0  0  0  0
  2  3  2  0
  2  1  1  0
  4  2  1  0
  5  4  1  0
  5  7  1  0
  5  6  1  1
  7  8  2  0
  9 10  1  0
  9  7  1  0
 11 12  1  0
 10 11  1  1
 12 16  1  0
 13 14  1  0
 13 12  2  0
 14 15  1  0
 15 16  2  0
 17 10  1  0
 17 18  2  0
 19 17  1  0
 20 19  1  0
 20 24  1  0
 20 21  1  6
 22 23  2  0
 22 21  1  0
 24 25  2  0
 24 27  1  0
 26 22  1  0
M  END
$$$$
