QGL.pdb
     RDKit          3D

 22 21  0  0  1  0  0  0  0  0999 V2000
    8.6587  -12.2172   19.5243 N   0  0  0  0  0  0  0  0  0  0  0  0
    8.1065  -13.3114   18.7581 C   0  0  0  0  0  0  0  0  0  0  0  0
    8.5501  -13.4713   17.6188 O   0  0  0  0  0  0  0  0  0  0  0  0
    7.0707  -14.1813   19.3289 C   0  0  0  0  0  0  0  0  0  0  0  0
    7.2622  -15.6400   19.0629 C   0  0  0  0  0  0  0  0  0  0  0  0
    7.3114  -16.4984   20.2769 C   0  0  2  0  0  0  0  0  0  0  0  0
    6.3345  -16.2504   21.2821 N   0  0  0  0  0  0  0  0  0  0  0  0
    8.6636  -16.2759   20.9040 C   0  0  0  0  0  0  0  0  0  0  0  0
    9.7253  -16.3435   20.2452 O   0  0  0  0  0  0  0  0  0  0  0  0
    8.7304  -15.9738   22.3156 N   0  0  0  0  0  0  0  0  0  0  0  0
   10.0227  -15.6555   22.8355 C   0  0  0  0  0  0  0  0  0  0  0  0
    9.9814  -15.2906   24.2656 C   0  0  0  0  0  0  0  0  0  0  0  0
   11.0911  -15.0218   24.8546 O   0  0  0  0  0  0  0  0  0  0  0  0
    5.7045  -12.8739   26.3931 C   0  0  0  0  0  0  0  0  0  0  0  0
    7.1304  -13.2100   25.9327 C   0  0  1  0  0  0  0  0  0  0  0  0
    7.8851  -11.9266   25.8820 C   0  0  0  0  0  0  0  0  0  0  0  0
    7.6671  -14.2083   26.9071 C   0  0  0  0  0  0  0  0  0  0  0  0
    8.9669  -14.8318   26.4724 C   0  0  2  0  0  0  0  0  0  0  0  0
    8.8363  -15.2018   25.0764 N   0  0  0  0  0  0  0  0  0  0  0  0
    9.2065  -16.0675   27.2745 C   0  0  0  0  0  0  0  0  0  0  0  0
    9.2512  -17.3331   26.6883 O   0  0  0  0  0  0  0  0  0  0  0  0
    9.3802  -16.0294   28.5203 O   0  0  0  0  0  0  0  0  0  0  0  0
  2  1  1  0
  2  3  2  0
  4  2  1  0
  5  4  1  0
  6  5  1  0
  6  7  1  1
  8  6  1  0
  8 10  1  0
  9  8  2  0
 11 10  1  0
 11 12  1  0
 12 19  1  0
 13 12  2  0
 15 14  1  1
 16 15  1  0
 17 15  1  0
 18 17  1  1
 19 18  1  0
 20 21  1  0
 20 18  1  0
 22 20  2  0
M  END
$$$$
