QGL.pdb
     RDKit          3D

 22 21  0  0  1  0  0  0  0  0999 V2000
    1.9028  -18.7552   20.0111 N   0  0  0  0  0  0  0  0  0  0  0  0
    2.0888  -19.7685   21.0248 C   0  0  0  0  0  0  0  0  0  0  0  0
    1.1265  -20.5027   21.2595 O   0  0  0  0  0  0  0  0  0  0  0  0
    3.3712  -19.9029   21.7269 C   0  0  0  0  0  0  0  0  0  0  0  0
    4.4023  -18.8895   21.3463 C   0  0  0  0  0  0  0  0  0  0  0  0
    5.3150  -18.4785   22.4469 C   0  0  2  0  0  0  0  0  0  0  0  0
    4.7102  -17.9580   23.6257 N   0  0  0  0  0  0  0  0  0  0  0  0
    6.2024  -17.3974   21.8858 C   0  0  0  0  0  0  0  0  0  0  0  0
    7.0819  -17.6330   21.0275 O   0  0  0  0  0  0  0  0  0  0  0  0
    6.0270  -16.0432   22.3589 N   0  0  0  0  0  0  0  0  0  0  0  0
    7.0401  -15.1060   21.9892 C   0  0  0  0  0  0  0  0  0  0  0  0
    7.9031  -14.7299   23.1266 C   0  0  0  0  0  0  0  0  0  0  0  0
    8.9921  -14.0954   22.8770 O   0  0  0  0  0  0  0  0  0  0  0  0
    6.4806  -11.9023   27.0380 C   0  0  0  0  0  0  0  0  0  0  0  0
    7.3000  -12.5467   25.9104 C   0  0  1  0  0  0  0  0  0  0  0  0
    8.2382  -11.5059   25.4047 C   0  0  0  0  0  0  0  0  0  0  0  0
    7.9647  -13.7480   26.5015 C   0  0  0  0  0  0  0  0  0  0  0  0
    8.6485  -14.6183   25.4807 C   0  0  2  0  0  0  0  0  0  0  0  0
    7.6622  -14.9940   24.4862 N   0  0  0  0  0  0  0  0  0  0  0  0
    9.1472  -15.8551   26.1509 C   0  0  0  0  0  0  0  0  0  0  0  0
    8.6889  -17.1247   25.7970 O   0  0  0  0  0  0  0  0  0  0  0  0
   10.0065  -15.8144   27.0694 O   0  0  0  0  0  0  0  0  0  0  0  0
  2  1  1  0
  2  3  2  0
  4  2  1  0
  5  4  1  0
  6  5  1  0
  6  7  1  1
  8  6  1  0
  8 10  1  0
  9  8  2  0
 11 10  1  0
 11 12  1  0
 12 19  1  0
 13 12  2  0
 15 14  1  1
 16 15  1  0
 17 15  1  0
 18 17  1  1
 19 18  1  0
 20 21  1  0
 20 18  1  0
 22 20  2  0
M  END
$$$$
