QGL.pdb
     RDKit          3D

 22 21  0  0  1  0  0  0  0  0999 V2000
    6.5725  -13.4743   18.5022 N   0  0  0  0  0  0  0  0  0  0  0  0
    7.9856  -13.4982   18.8050 C   0  0  0  0  0  0  0  0  0  0  0  0
    8.5807  -12.4190   18.7646 O   0  0  0  0  0  0  0  0  0  0  0  0
    8.6603  -14.7569   19.1458 C   0  0  0  0  0  0  0  0  0  0  0  0
    7.7452  -15.9204   19.3560 C   0  0  0  0  0  0  0  0  0  0  0  0
    7.0261  -15.9263   20.6583 C   0  0  2  0  0  0  0  0  0  0  0  0
    6.8508  -14.6698   21.3038 N   0  0  0  0  0  0  0  0  0  0  0  0
    7.8312  -16.7973   21.5879 C   0  0  0  0  0  0  0  0  0  0  0  0
    8.2184  -17.9422   21.2636 O   0  0  0  0  0  0  0  0  0  0  0  0
    8.1653  -16.2873   22.8982 N   0  0  0  0  0  0  0  0  0  0  0  0
    8.7996  -17.2034   23.7925 C   0  0  0  0  0  0  0  0  0  0  0  0
    9.0758  -16.6033   25.1129 C   0  0  0  0  0  0  0  0  0  0  0  0
   10.1104  -17.0083   25.7581 O   0  0  0  0  0  0  0  0  0  0  0  0
    6.2207  -12.0746   26.4455 C   0  0  0  0  0  0  0  0  0  0  0  0
    7.2978  -13.0192   25.8927 C   0  0  1  0  0  0  0  0  0  0  0  0
    8.2068  -12.1955   25.0474 C   0  0  0  0  0  0  0  0  0  0  0  0
    7.9548  -13.6531   27.0763 C   0  0  0  0  0  0  0  0  0  0  0  0
    8.9518  -14.7200   26.7091 C   0  0  2  0  0  0  0  0  0  0  0  0
    8.3157  -15.6138   25.7607 N   0  0  0  0  0  0  0  0  0  0  0  0
    9.3076  -15.4961   27.9333 C   0  0  0  0  0  0  0  0  0  0  0  0
   10.0415  -14.9339   28.9786 O   0  0  0  0  0  0  0  0  0  0  0  0
    8.9632  -16.6971   28.0838 O   0  0  0  0  0  0  0  0  0  0  0  0
  2  1  1  0
  2  3  2  0
  4  2  1  0
  5  4  1  0
  6  5  1  0
  6  7  1  1
  8  6  1  0
  8 10  1  0
  9  8  2  0
 11 10  1  0
 11 12  1  0
 12 19  1  0
 13 12  2  0
 15 14  1  1
 16 15  1  0
 17 15  1  0
 18 17  1  1
 19 18  1  0
 20 21  1  0
 20 18  1  0
 22 20  2  0
M  END
$$$$
