QGL.pdb
     RDKit          3D

 22 21  0  0  1  0  0  0  0  0999 V2000
    1.7398  -19.9131   21.0310 N   0  0  0  0  0  0  0  0  0  0  0  0
    2.7282  -20.0165   22.0804 C   0  0  0  0  0  0  0  0  0  0  0  0
    2.7947  -21.0937   22.6767 O   0  0  0  0  0  0  0  0  0  0  0  0
    3.6038  -18.8829   22.4028 C   0  0  0  0  0  0  0  0  0  0  0  0
    4.3397  -18.3087   21.2350 C   0  0  0  0  0  0  0  0  0  0  0  0
    5.8125  -18.5177   21.2564 C   0  0  2  0  0  0  0  0  0  0  0  0
    6.3754  -19.0166   22.4649 N   0  0  0  0  0  0  0  0  0  0  0  0
    6.4396  -17.1728   20.9936 C   0  0  0  0  0  0  0  0  0  0  0  0
    6.4497  -16.6507   19.8565 O   0  0  0  0  0  0  0  0  0  0  0  0
    7.0486  -16.4658   22.0971 N   0  0  0  0  0  0  0  0  0  0  0  0
    7.6124  -15.1875   21.7975 C   0  0  0  0  0  0  0  0  0  0  0  0
    8.0177  -14.4510   23.0113 C   0  0  0  0  0  0  0  0  0  0  0  0
    8.6459  -13.3400   22.8644 O   0  0  0  0  0  0  0  0  0  0  0  0
    5.6805  -12.4132   26.9609 C   0  0  0  0  0  0  0  0  0  0  0  0
    6.6661  -12.7564   25.8344 C   0  0  1  0  0  0  0  0  0  0  0  0
    7.2142  -11.4671   25.3279 C   0  0  0  0  0  0  0  0  0  0  0  0
    7.6856  -13.6748   26.4273 C   0  0  0  0  0  0  0  0  0  0  0  0
    8.6071  -14.2873   25.4061 C   0  0  2  0  0  0  0  0  0  0  0  0
    7.7882  -14.8375   24.3433 N   0  0  0  0  0  0  0  0  0  0  0  0
    9.3719  -15.3986   26.0448 C   0  0  0  0  0  0  0  0  0  0  0  0
    9.2520  -16.7212   25.6164 O   0  0  0  0  0  0  0  0  0  0  0  0
   10.1634  -15.1978   27.0024 O   0  0  0  0  0  0  0  0  0  0  0  0
  2  1  1  0
  2  3  2  0
  4  2  1  0
  5  4  1  0
  6  5  1  0
  6  7  1  1
  8  6  1  0
  8 10  1  0
  9  8  2  0
 11 10  1  0
 11 12  1  0
 12 19  1  0
 13 12  2  0
 15 14  1  1
 16 15  1  0
 17 15  1  0
 18 17  1  1
 19 18  1  0
 20 21  1  0
 20 18  1  0
 22 20  2  0
M  END
$$$$
