QGL.pdb
     RDKit          3D

 22 21  0  0  1  0  0  0  0  0999 V2000
    7.0210  -12.8302   17.4635 N   0  0  0  0  0  0  0  0  0  0  0  0
    7.8925  -13.9766   17.3399 C   0  0  0  0  0  0  0  0  0  0  0  0
    8.1038  -14.3933   16.1988 O   0  0  0  0  0  0  0  0  0  0  0  0
    8.4903  -14.5981   18.5281 C   0  0  0  0  0  0  0  0  0  0  0  0
    8.3317  -16.0827   18.6046 C   0  0  0  0  0  0  0  0  0  0  0  0
    8.0942  -16.6191   19.9718 C   0  0  2  0  0  0  0  0  0  0  0  0
    6.9759  -16.0997   20.6831 N   0  0  0  0  0  0  0  0  0  0  0  0
    9.3256  -16.2958   20.7782 C   0  0  0  0  0  0  0  0  0  0  0  0
   10.4606  -16.2074   20.2589 O   0  0  0  0  0  0  0  0  0  0  0  0
    9.1846  -16.0811   22.2004 N   0  0  0  0  0  0  0  0  0  0  0  0
   10.3710  -15.7139   22.9070 C   0  0  0  0  0  0  0  0  0  0  0  0
   10.1259  -15.4962   24.3466 C   0  0  0  0  0  0  0  0  0  0  0  0
   11.1289  -15.2046   25.0947 O   0  0  0  0  0  0  0  0  0  0  0  0
    6.0543  -12.8850   26.4582 C   0  0  0  0  0  0  0  0  0  0  0  0
    7.4789  -13.3900   26.1866 C   0  0  1  0  0  0  0  0  0  0  0  0
    8.4146  -12.3713   26.7400 C   0  0  0  0  0  0  0  0  0  0  0  0
    7.5803  -14.7381   26.8242 C   0  0  0  0  0  0  0  0  0  0  0  0
    8.8353  -15.4835   26.4547 C   0  0  2  0  0  0  0  0  0  0  0  0
    8.8879  -15.5737   25.0083 N   0  0  0  0  0  0  0  0  0  0  0  0
    8.7655  -16.8639   27.0178 C   0  0  0  0  0  0  0  0  0  0  0  0
    8.6056  -17.9873   26.2056 O   0  0  0  0  0  0  0  0  0  0  0  0
    8.8474  -17.0835   28.2543 O   0  0  0  0  0  0  0  0  0  0  0  0
  2  1  1  0
  2  3  2  0
  4  2  1  0
  5  4  1  0
  6  5  1  0
  6  7  1  1
  8  6  1  0
  8 10  1  0
  9  8  2  0
 11 10  1  0
 11 12  1  0
 12 19  1  0
 13 12  2  0
 15 14  1  1
 16 15  1  0
 17 15  1  0
 18 17  1  6
 19 18  1  0
 20 21  1  0
 20 18  1  0
 22 20  2  0
M  END
$$$$
