FMI.pdb
     RDKit          3D

 28 28  0  0  1  0  0  0  0  0999 V2000
   26.3328  -20.2394  -18.2685 N   0  0  0  0  0  0  0  0  0  0  0  0
   26.5309  -19.3089  -17.1437 C   0  0  1  0  0  0  0  0  0  0  0  0
   25.2397  -18.5227  -17.0518 C   0  0  0  0  0  0  0  0  0  0  0  0
   25.0241  -17.6112  -18.1826 C   0  0  0  0  0  0  0  0  0  0  0  0
   24.2045  -17.8556  -19.2686 C   0  0  0  0  0  0  0  0  0  0  0  0
   24.0245  -16.9862  -20.3102 C   0  0  0  0  0  0  0  0  0  0  0  0
   24.7138  -15.7727  -20.2734 C   0  0  0  0  0  0  0  0  0  0  0  0
   25.5522  -15.4733  -19.2055 C   0  0  0  0  0  0  0  0  0  0  0  0
   25.6974  -16.3833  -18.1834 C   0  0  0  0  0  0  0  0  0  0  0  0
   26.6748  -20.0936  -15.8846 C   0  0  0  0  0  0  0  0  0  0  0  0
   25.9038  -21.0341  -15.6481 O   0  0  0  0  0  0  0  0  0  0  0  0
   31.4516  -21.7320  -10.1045 C   0  0  0  0  0  0  0  0  0  0  0  0
   31.0746  -21.2322  -11.8200 S   0  0  0  0  0  0  0  0  0  0  0  0
   29.5544  -20.2235  -11.7615 C   0  0  0  0  0  0  0  0  0  0  0  0
   29.2004  -19.8272  -13.1563 C   0  0  0  0  0  0  0  0  0  0  0  0
   27.8784  -20.3286  -13.6543 C   0  0  2  0  0  0  0  0  0  0  0  0
   27.6880  -19.7513  -14.9855 N   0  0  0  0  0  0  0  0  0  0  0  0
   26.7398  -20.0143  -12.7784 C   0  0  0  0  0  0  0  0  0  0  0  0
   26.3813  -18.8203  -12.6043 O   0  0  0  0  0  0  0  0  0  0  0  0
   21.7912  -21.4042  -13.1525 C   0  0  0  0  0  0  0  0  0  0  0  0
   23.1329  -20.7725  -12.8643 C   0  0  0  0  0  0  0  0  0  0  0  0
   23.5909  -21.1578  -11.4657 C   0  0  2  0  0  0  0  0  0  0  0  0
   22.5554  -20.6376  -10.4682 C   0  0  0  0  0  0  0  0  0  0  0  0
   24.9545  -20.6682  -11.1524 C   0  0  2  0  0  0  0  0  0  0  0  0
   25.9879  -20.9979  -12.0858 N   0  0  0  0  0  0  0  0  0  0  0  0
   25.3218  -21.0197   -9.7396 C   0  0  0  0  0  0  0  0  0  0  0  0
   26.3918  -21.8672   -9.5315 O   0  0  0  0  0  0  0  0  0  0  0  0
   24.6807  -20.5614   -8.7638 O   0  0  0  0  0  0  0  0  0  0  0  0
  2  1  1  6
  3  4  1  0
  3  2  1  0
  4  5  2  0
  5  6  1  0
  7  6  2  0
  8  7  1  0
  9  8  2  0
  9  4  1  0
 10  2  1  0
 10 17  1  0
 11 10  2  0
 13 12  1  0
 14 13  1  0
 16 15  1  1
 15 14  1  0
 16 17  1  0
 18 16  1  0
 19 18  2  0
 20 21  1  0
 21 22  1  0
 22 24  1  0
 22 23  1  1
 24 26  1  0
 24 25  1  6
 25 18  1  0
 26 27  1  0
 28 26  2  0
M  END
$$$$
