FMI.pdb
     RDKit          3D

 28 28  0  0  1  0  0  0  0  0999 V2000
   24.3062  -21.4506  -13.6111 N   0  0  0  0  0  0  0  0  0  0  0  0
   24.1388  -20.7128  -12.3470 C   0  0  1  0  0  0  0  0  0  0  0  0
   22.7251  -21.0183  -11.8977 C   0  0  0  0  0  0  0  0  0  0  0  0
   21.6934  -20.4556  -12.7780 C   0  0  0  0  0  0  0  0  0  0  0  0
   20.8361  -21.1840  -13.5815 C   0  0  0  0  0  0  0  0  0  0  0  0
   19.8840  -20.6307  -14.3941 C   0  0  0  0  0  0  0  0  0  0  0  0
   19.7710  -19.2394  -14.4129 C   0  0  0  0  0  0  0  0  0  0  0  0
   20.6072  -18.4561  -13.6251 C   0  0  0  0  0  0  0  0  0  0  0  0
   21.5479  -19.0637  -12.8254 C   0  0  0  0  0  0  0  0  0  0  0  0
   25.0703  -21.2770  -11.3292 C   0  0  0  0  0  0  0  0  0  0  0  0
   25.1872  -22.5043  -11.2079 O   0  0  0  0  0  0  0  0  0  0  0  0
   30.0786  -21.9816  -14.0542 C   0  0  0  0  0  0  0  0  0  0  0  0
   29.8445  -20.8187  -12.6657 S   0  0  0  0  0  0  0  0  0  0  0  0
   28.3603  -21.3653  -11.7546 C   0  0  0  0  0  0  0  0  0  0  0  0
   28.1760  -20.4677  -10.5764 C   0  0  0  0  0  0  0  0  0  0  0  0
   26.9768  -20.7575   -9.7250 C   0  0  2  0  0  0  0  0  0  0  0  0
   25.8030  -20.4019  -10.5232 N   0  0  0  0  0  0  0  0  0  0  0  0
   26.9647  -20.0560   -8.4327 C   0  0  0  0  0  0  0  0  0  0  0  0
   26.4337  -18.9194   -8.3304 O   0  0  0  0  0  0  0  0  0  0  0  0
   28.9356  -20.3266   -2.5022 C   0  0  0  0  0  0  0  0  0  0  0  0
   28.1205  -19.6731   -3.5934 C   0  0  0  0  0  0  0  0  0  0  0  0
   28.1497  -20.5394   -4.8436 C   0  0  2  0  0  0  0  0  0  0  0  0
   29.5622  -21.1045   -4.9953 C   0  0  0  0  0  0  0  0  0  0  0  0
   27.7127  -19.8104   -6.0581 C   0  0  2  0  0  0  0  0  0  0  0  0
   27.5331  -20.5872   -7.2464 N   0  0  0  0  0  0  0  0  0  0  0  0
   28.5817  -18.6068   -6.2834 C   0  0  0  0  0  0  0  0  0  0  0  0
   28.3963  -17.5032   -5.4748 O   0  0  0  0  0  0  0  0  0  0  0  0
   29.4581  -18.5916   -7.1806 O   0  0  0  0  0  0  0  0  0  0  0  0
  2  1  1  6
  3  4  1  0
  3  2  1  0
  4  5  2  0
  5  6  1  0
  7  6  2  0
  8  7  1  0
  9  8  2  0
  9  4  1  0
 10  2  1  0
 10 17  1  0
 11 10  2  0
 13 12  1  0
 14 13  1  0
 16 15  1  6
 15 14  1  0
 16 17  1  0
 18 16  1  0
 19 18  2  0
 20 21  1  0
 21 22  1  0
 22 24  1  0
 22 23  1  6
 24 26  1  0
 24 25  1  6
 25 18  1  0
 26 27  1  0
 28 26  2  0
M  END
$$$$
