FMI.pdb
     RDKit          3D

 28 28  0  0  1  0  0  0  0  0999 V2000
   28.2957  -20.1925  -15.8694 N   0  0  0  0  0  0  0  0  0  0  0  0
   27.6309  -19.4450  -14.7880 C   0  0  1  0  0  0  0  0  0  0  0  0
   26.6112  -18.5686  -15.4850 C   0  0  0  0  0  0  0  0  0  0  0  0
   27.2047  -17.4388  -16.2112 C   0  0  0  0  0  0  0  0  0  0  0  0
   27.3040  -17.3282  -17.5856 C   0  0  0  0  0  0  0  0  0  0  0  0
   27.8649  -16.2620  -18.2350 C   0  0  0  0  0  0  0  0  0  0  0  0
   28.3699  -15.2175  -17.4585 C   0  0  0  0  0  0  0  0  0  0  0  0
   28.2971  -15.2749  -16.0712 C   0  0  0  0  0  0  0  0  0  0  0  0
   27.7225  -16.3706  -15.4686 C   0  0  0  0  0  0  0  0  0  0  0  0
   26.8883  -20.4036  -13.9211 C   0  0  0  0  0  0  0  0  0  0  0  0
   26.4129  -21.4393  -14.4069 O   0  0  0  0  0  0  0  0  0  0  0  0
   27.9592  -20.8333   -7.6612 C   0  0  0  0  0  0  0  0  0  0  0  0
   26.1723  -20.4698   -7.5623 S   0  0  0  0  0  0  0  0  0  0  0  0
   25.4331  -20.9834   -9.1502 C   0  0  0  0  0  0  0  0  0  0  0  0
   26.2531  -20.4087  -10.2571 C   0  0  0  0  0  0  0  0  0  0  0  0
   25.8176  -20.7789  -11.6428 C   0  0  2  0  0  0  0  0  0  0  0  0
   26.7417  -20.1139  -12.5621 N   0  0  0  0  0  0  0  0  0  0  0  0
   24.4239  -20.4294  -11.9558 C   0  0  0  0  0  0  0  0  0  0  0  0
   24.0982  -19.2302  -12.1569 O   0  0  0  0  0  0  0  0  0  0  0  0
   20.1858  -21.5459  -15.8349 C   0  0  0  0  0  0  0  0  0  0  0  0
   20.3683  -21.1644  -14.3846 C   0  0  0  0  0  0  0  0  0  0  0  0
   21.7576  -21.5725  -13.9183 C   0  0  2  0  0  0  0  0  0  0  0  0
   21.8535  -23.0966  -13.9925 C   0  0  0  0  0  0  0  0  0  0  0  0
   22.0816  -21.0637  -12.5642 C   0  0  2  0  0  0  0  0  0  0  0  0
   23.3778  -21.3831  -12.0487 N   0  0  0  0  0  0  0  0  0  0  0  0
   20.9800  -21.4050  -11.6027 C   0  0  0  0  0  0  0  0  0  0  0  0
   21.2852  -22.1868  -10.5063 O   0  0  0  0  0  0  0  0  0  0  0  0
   19.8075  -20.9962  -11.7795 O   0  0  0  0  0  0  0  0  0  0  0  0
  2  1  1  6
  3  4  1  0
  3  2  1  0
  4  5  2  0
  5  6  1  0
  7  6  2  0
  8  7  1  0
  9  8  2  0
  9  4  1  0
 10  2  1  0
 10 17  1  0
 11 10  2  0
 13 12  1  0
 14 13  1  0
 16 15  1  1
 15 14  1  0
 16 17  1  0
 18 16  1  0
 19 18  2  0
 20 21  1  0
 21 22  1  0
 22 24  1  0
 22 23  1  1
 24 26  1  0
 24 25  1  1
 25 18  1  0
 26 27  1  0
 28 26  2  0
M  END
$$$$
