FMI.pdb
     RDKit          3D

 28 28  0  0  1  0  0  0  0  0999 V2000
   28.1163  -19.5407  -16.9185 N   0  0  0  0  0  0  0  0  0  0  0  0
   28.1427  -18.9568  -15.5662 C   0  0  1  0  0  0  0  0  0  0  0  0
   26.9906  -17.9741  -15.5397 C   0  0  0  0  0  0  0  0  0  0  0  0
   27.2390  -16.7551  -16.3196 C   0  0  0  0  0  0  0  0  0  0  0  0
   26.7632  -16.5032  -17.5929 C   0  0  0  0  0  0  0  0  0  0  0  0
   27.0131  -15.3565  -18.2969 C   0  0  0  0  0  0  0  0  0  0  0  0
   27.8002  -14.3766  -17.6892 C   0  0  0  0  0  0  0  0  0  0  0  0
   28.3060  -14.5759  -16.4095 C   0  0  0  0  0  0  0  0  0  0  0  0
   28.0241  -15.7477  -15.7454 C   0  0  0  0  0  0  0  0  0  0  0  0
   27.8496  -20.0264  -14.5702 C   0  0  0  0  0  0  0  0  0  0  0  0
   27.0405  -20.9238  -14.8436 O   0  0  0  0  0  0  0  0  0  0  0  0
   31.3827  -21.9614   -9.2567 C   0  0  0  0  0  0  0  0  0  0  0  0
   32.0092  -21.8033  -10.9648 S   0  0  0  0  0  0  0  0  0  0  0  0
   30.5554  -21.7881  -12.0684 C   0  0  0  0  0  0  0  0  0  0  0  0
   29.4761  -20.9932  -11.4118 C   0  0  0  0  0  0  0  0  0  0  0  0
   28.2033  -20.8636  -12.1928 C   0  0  2  0  0  0  0  0  0  0  0  0
   28.5007  -19.9976  -13.3343 N   0  0  0  0  0  0  0  0  0  0  0  0
   27.0664  -20.3413  -11.4202 C   0  0  0  0  0  0  0  0  0  0  0  0
   26.9555  -19.1056  -11.2073 O   0  0  0  0  0  0  0  0  0  0  0  0
   21.2260  -20.0326  -10.8627 C   0  0  0  0  0  0  0  0  0  0  0  0
   22.5051  -20.0068  -10.0592 C   0  0  0  0  0  0  0  0  0  0  0  0
   23.6027  -20.7357  -10.8194 C   0  0  2  0  0  0  0  0  0  0  0  0
   23.1683  -22.1905  -10.9995 C   0  0  0  0  0  0  0  0  0  0  0  0
   24.9256  -20.6318  -10.1587 C   0  0  2  0  0  0  0  0  0  0  0  0
   26.0464  -21.1617  -10.8733 N   0  0  0  0  0  0  0  0  0  0  0  0
   24.8457  -21.1463   -8.7504 C   0  0  0  0  0  0  0  0  0  0  0  0
   24.1285  -20.4151   -7.8245 O   0  0  0  0  0  0  0  0  0  0  0  0
   25.4119  -22.2127   -8.4105 O   0  0  0  0  0  0  0  0  0  0  0  0
  2  1  1  6
  3  4  1  0
  3  2  1  0
  4  5  2  0
  5  6  1  0
  7  6  2  0
  8  7  1  0
  9  8  2  0
  9  4  1  0
 10  2  1  0
 10 17  1  0
 11 10  2  0
 13 12  1  0
 14 13  1  0
 16 15  1  1
 15 14  1  0
 16 17  1  0
 18 16  1  0
 19 18  2  0
 20 21  1  0
 21 22  1  0
 22 24  1  0
 22 23  1  1
 24 26  1  0
 24 25  1  6
 25 18  1  0
 26 27  1  0
 28 26  2  0
M  END
$$$$
