FMI.pdb
     RDKit          3D

 28 28  0  0  1  0  0  0  0  0999 V2000
   27.5902  -20.8306  -18.3517 N   0  0  0  0  0  0  0  0  0  0  0  0
   26.8764  -20.3538  -17.1545 C   0  0  1  0  0  0  0  0  0  0  0  0
   26.6889  -18.8671  -17.3746 C   0  0  0  0  0  0  0  0  0  0  0  0
   27.9503  -18.1314  -17.5281 C   0  0  0  0  0  0  0  0  0  0  0  0
   28.3605  -17.4658  -18.6682 C   0  0  0  0  0  0  0  0  0  0  0  0
   29.5445  -16.7889  -18.7823 C   0  0  0  0  0  0  0  0  0  0  0  0
   30.3940  -16.7694  -17.6746 C   0  0  0  0  0  0  0  0  0  0  0  0
   30.0330  -17.4219  -16.5011 C   0  0  0  0  0  0  0  0  0  0  0  0
   28.8303  -18.0878  -16.4397 C   0  0  0  0  0  0  0  0  0  0  0  0
   25.5245  -20.9804  -17.1142 C   0  0  0  0  0  0  0  0  0  0  0  0
   25.1285  -21.6635  -18.0688 O   0  0  0  0  0  0  0  0  0  0  0  0
   24.1368  -25.6750  -16.3028 C   0  0  0  0  0  0  0  0  0  0  0  0
   24.8970  -25.1514  -14.7271 S   0  0  0  0  0  0  0  0  0  0  0  0
   24.6632  -23.3460  -14.5943 C   0  0  0  0  0  0  0  0  0  0  0  0
   23.7209  -22.9147  -15.6685 C   0  0  0  0  0  0  0  0  0  0  0  0
   23.4402  -21.4435  -15.7288 C   0  0  2  0  0  0  0  0  0  0  0  0
   24.7209  -20.7847  -15.9880 N   0  0  0  0  0  0  0  0  0  0  0  0
   22.8034  -20.8960  -14.5216 C   0  0  0  0  0  0  0  0  0  0  0  0
   23.4825  -20.6880  -13.4824 O   0  0  0  0  0  0  0  0  0  0  0  0
   20.8552  -16.2697  -14.4373 C   0  0  0  0  0  0  0  0  0  0  0  0
   21.4265  -17.6470  -14.1945 C   0  0  0  0  0  0  0  0  0  0  0  0
   20.3845  -18.5213  -13.5134 C   0  0  2  0  0  0  0  0  0  0  0  0
   19.9917  -17.8513  -12.1964 C   0  0  0  0  0  0  0  0  0  0  0  0
   20.8486  -19.9140  -13.3080 C   0  0  2  0  0  0  0  0  0  0  0  0
   21.4240  -20.5751  -14.4392 N   0  0  0  0  0  0  0  0  0  0  0  0
   19.7726  -20.7295  -12.6509 C   0  0  0  0  0  0  0  0  0  0  0  0
   19.3085  -21.8528  -13.3061 O   0  0  0  0  0  0  0  0  0  0  0  0
   19.2986  -20.4092  -11.5347 O   0  0  0  0  0  0  0  0  0  0  0  0
  2  1  1  6
  3  4  1  0
  3  2  1  0
  4  5  2  0
  5  6  1  0
  7  6  2  0
  8  7  1  0
  9  8  2  0
  9  4  1  0
 10  2  1  0
 10 17  1  0
 11 10  2  0
 13 12  1  0
 14 13  1  0
 16 15  1  1
 15 14  1  0
 16 17  1  0
 18 16  1  0
 19 18  2  0
 20 21  1  0
 21 22  1  0
 22 24  1  0
 22 23  1  1
 24 26  1  0
 24 25  1  6
 25 18  1  0
 26 27  1  0
 28 26  2  0
M  END
$$$$
