FMI.pdb
     RDKit          3D

 28 28  0  0  1  0  0  0  0  0999 V2000
   19.7655  -20.9128  -12.6054 N   0  0  0  0  0  0  0  0  0  0  0  0
   20.8801  -21.2146  -13.5201 C   0  0  1  0  0  0  0  0  0  0  0  0
   20.5381  -20.4945  -14.8078 C   0  0  0  0  0  0  0  0  0  0  0  0
   19.5484  -21.2001  -15.6315 C   0  0  0  0  0  0  0  0  0  0  0  0
   19.7576  -22.3954  -16.2938 C   0  0  0  0  0  0  0  0  0  0  0  0
   18.8150  -23.0296  -17.0569 C   0  0  0  0  0  0  0  0  0  0  0  0
   17.5597  -22.4301  -17.1743 C   0  0  0  0  0  0  0  0  0  0  0  0
   17.2928  -21.2272  -16.5299 C   0  0  0  0  0  0  0  0  0  0  0  0
   18.2767  -20.6316  -15.7744 C   0  0  0  0  0  0  0  0  0  0  0  0
   22.1295  -20.6078  -12.9790 C   0  0  0  0  0  0  0  0  0  0  0  0
   22.1111  -19.4590  -12.5158 O   0  0  0  0  0  0  0  0  0  0  0  0
   25.5699  -20.0683   -8.9553 C   0  0  0  0  0  0  0  0  0  0  0  0
   26.6107  -21.4916   -9.4307 S   0  0  0  0  0  0  0  0  0  0  0  0
   26.6287  -21.5555  -11.2548 C   0  0  0  0  0  0  0  0  0  0  0  0
   25.2469  -21.8642  -11.7272 C   0  0  0  0  0  0  0  0  0  0  0  0
   24.6420  -20.8560  -12.6570 C   0  0  2  0  0  0  0  0  0  0  0  0
   23.3104  -21.3543  -13.0033 N   0  0  0  0  0  0  0  0  0  0  0  0
   25.4347  -20.5927  -13.8673 C   0  0  0  0  0  0  0  0  0  0  0  0
   25.5282  -21.4656  -14.7694 O   0  0  0  0  0  0  0  0  0  0  0  0
   27.2252  -15.3481  -15.2211 C   0  0  0  0  0  0  0  0  0  0  0  0
   26.5047  -16.6734  -15.3038 C   0  0  0  0  0  0  0  0  0  0  0  0
   27.5185  -17.8016  -15.4205 C   0  0  2  0  0  0  0  0  0  0  0  0
   28.2498  -17.6451  -16.7541 C   0  0  0  0  0  0  0  0  0  0  0  0
   26.9036  -19.1432  -15.2816 C   0  0  2  0  0  0  0  0  0  0  0  0
   26.1315  -19.3790  -14.1000 N   0  0  0  0  0  0  0  0  0  0  0  0
   27.9293  -20.2131  -15.5217 C   0  0  0  0  0  0  0  0  0  0  0  0
   28.6890  -20.6451  -14.4528 O   0  0  0  0  0  0  0  0  0  0  0  0
   28.1015  -20.7104  -16.6602 O   0  0  0  0  0  0  0  0  0  0  0  0
  2  1  1  1
  3  4  1  0
  3  2  1  0
  4  5  2  0
  5  6  1  0
  7  6  2  0
  8  7  1  0
  9  8  2  0
  9  4  1  0
 10  2  1  0
 10 17  1  0
 11 10  2  0
 13 12  1  0
 14 13  1  0
 16 15  1  1
 15 14  1  0
 16 17  1  0
 18 16  1  0
 19 18  2  0
 20 21  1  0
 21 22  1  0
 22 24  1  0
 22 23  1  6
 24 26  1  0
 24 25  1  1
 25 18  1  0
 26 27  1  0
 28 26  2  0
M  END
$$$$
