FMI.pdb
     RDKit          3D

 28 28  0  0  1  0  0  0  0  0999 V2000
   27.1301  -17.9055   -7.6788 N   0  0  0  0  0  0  0  0  0  0  0  0
   27.6052  -19.2958   -7.7870 C   0  0  1  0  0  0  0  0  0  0  0  0
   26.9772  -20.0183   -6.6134 C   0  0  0  0  0  0  0  0  0  0  0  0
   27.8173  -20.0258   -5.4092 C   0  0  0  0  0  0  0  0  0  0  0  0
   28.1808  -21.1479   -4.6882 C   0  0  0  0  0  0  0  0  0  0  0  0
   28.9649  -21.1235   -3.5668 C   0  0  0  0  0  0  0  0  0  0  0  0
   29.4282  -19.8840   -3.1217 C   0  0  0  0  0  0  0  0  0  0  0  0
   29.0940  -18.7217   -3.8076 C   0  0  0  0  0  0  0  0  0  0  0  0
   28.3023  -18.8025   -4.9303 C   0  0  0  0  0  0  0  0  0  0  0  0
   27.0594  -19.8991   -9.0360 C   0  0  0  0  0  0  0  0  0  0  0  0
   25.9193  -19.6041   -9.4207 O   0  0  0  0  0  0  0  0  0  0  0  0
   31.6476  -23.4241  -10.3566 C   0  0  0  0  0  0  0  0  0  0  0  0
   31.6729  -22.2468  -11.7524 S   0  0  0  0  0  0  0  0  0  0  0  0
   30.3149  -21.0591  -11.4752 C   0  0  0  0  0  0  0  0  0  0  0  0
   29.0205  -21.7967  -11.5664 C   0  0  0  0  0  0  0  0  0  0  0  0
   27.7996  -21.0057  -11.2052 C   0  0  2  0  0  0  0  0  0  0  0  0
   27.8525  -20.7945   -9.7581 N   0  0  0  0  0  0  0  0  0  0  0  0
   26.5296  -21.6346  -11.5976 C   0  0  0  0  0  0  0  0  0  0  0  0
   26.1436  -22.6933  -11.0367 O   0  0  0  0  0  0  0  0  0  0  0  0
   21.7930  -19.6293  -11.3539 C   0  0  0  0  0  0  0  0  0  0  0  0
   23.0554  -20.4554  -11.4329 C   0  0  0  0  0  0  0  0  0  0  0  0
   23.2064  -21.0278  -12.8342 C   0  0  2  0  0  0  0  0  0  0  0  0
   21.9843  -21.8998  -13.1239 C   0  0  0  0  0  0  0  0  0  0  0  0
   24.4738  -21.7748  -13.0162 C   0  0  2  0  0  0  0  0  0  0  0  0
   25.6752  -21.1156  -12.6042 N   0  0  0  0  0  0  0  0  0  0  0  0
   24.5639  -22.3138  -14.4148 C   0  0  0  0  0  0  0  0  0  0  0  0
   24.1901  -23.6240  -14.6381 O   0  0  0  0  0  0  0  0  0  0  0  0
   24.9671  -21.6018  -15.3654 O   0  0  0  0  0  0  0  0  0  0  0  0
  2  1  1  1
  3  4  1  0
  3  2  1  0
  4  5  2  0
  5  6  1  0
  7  6  2  0
  8  7  1  0
  9  8  2  0
  9  4  1  0
 10  2  1  0
 10 17  1  0
 11 10  2  0
 13 12  1  0
 14 13  1  0
 16 15  1  1
 15 14  1  0
 16 17  1  0
 18 16  1  0
 19 18  2  0
 20 21  1  0
 21 22  1  0
 22 24  1  0
 22 23  1  1
 24 26  1  0
 24 25  1  6
 25 18  1  0
 26 27  1  0
 28 26  2  0
M  END
$$$$
