AWF.pdb
     RDKit          3D

 31 33  0  0  1  0  0  0  0  0999 V2000
   27.6493  -19.6301  -15.6282 C   0  0  0  0  0  0  0  0  0  0  0  0
   28.3162  -20.5091  -14.5691 C   0  0  2  0  0  0  0  0  0  0  0  0
   28.9002  -21.6689  -15.2133 N   0  0  0  0  0  0  0  0  0  0  0  0
   27.2530  -20.9622  -13.6632 C   0  0  0  0  0  0  0  0  0  0  0  0
   26.5357  -21.9573  -13.9567 O   0  0  0  0  0  0  0  0  0  0  0  0
   26.9559  -20.3326  -12.4174 N   0  0  0  0  0  0  0  0  0  0  0  0
   25.9512  -20.8874  -11.5319 C   0  0  1  0  0  0  0  0  0  0  0  0
   26.1025  -20.2781  -10.1269 C   0  0  0  0  0  0  0  0  0  0  0  0
   27.3789  -20.6753   -9.5167 C   0  0  0  0  0  0  0  0  0  0  0  0
   28.2598  -21.5596  -10.1134 C   0  0  0  0  0  0  0  0  0  0  0  0
   29.2947  -21.6787   -9.2764 N   0  0  0  0  0  0  0  0  0  0  0  0
   29.1062  -20.9141   -8.1867 C   0  0  0  0  0  0  0  0  0  0  0  0
   29.8644  -20.6971   -7.0657 C   0  0  0  0  0  0  0  0  0  0  0  0
   29.4617  -19.8562   -6.0640 C   0  0  0  0  0  0  0  0  0  0  0  0
   28.2358  -19.1992   -6.1928 C   0  0  0  0  0  0  0  0  0  0  0  0
   27.4547  -19.4056   -7.3189 C   0  0  0  0  0  0  0  0  0  0  0  0
   27.9007  -20.2654   -8.3091 C   0  0  0  0  0  0  0  0  0  0  0  0
   24.5812  -20.6822  -12.0437 C   0  0  0  0  0  0  0  0  0  0  0  0
   24.2168  -19.5539  -12.4626 O   0  0  0  0  0  0  0  0  0  0  0  0
   23.5999  -21.7183  -12.0993 N   0  0  0  0  0  0  0  0  0  0  0  0
   22.2786  -21.5250  -12.6368 C   0  0  1  0  0  0  0  0  0  0  0  0
   21.7931  -22.8284  -13.2104 C   0  0  0  0  0  0  0  0  0  0  0  0
   20.4173  -22.7134  -13.7781 C   0  0  0  0  0  0  0  0  0  0  0  0
   19.3078  -23.0922  -13.0237 C   0  0  0  0  0  0  0  0  0  0  0  0
   18.0543  -22.9783  -13.5690 C   0  0  0  0  0  0  0  0  0  0  0  0
   17.8860  -22.4937  -14.8531 C   0  0  0  0  0  0  0  0  0  0  0  0
   18.9590  -22.1166  -15.6101 C   0  0  0  0  0  0  0  0  0  0  0  0
   20.2184  -22.2370  -15.0468 C   0  0  0  0  0  0  0  0  0  0  0  0
   21.3014  -21.0278  -11.6702 C   0  0  0  0  0  0  0  0  0  0  0  0
   20.4062  -20.0475  -12.1290 O   0  0  0  0  0  0  0  0  0  0  0  0
   21.1862  -21.3866  -10.4874 O   0  0  0  0  0  0  0  0  0  0  0  0
  2  1  1  6
  2  3  1  0
  4  2  1  0
  4  5  2  0
  6  4  1  0
  7  6  1  0
  7  8  1  1
  9  8  1  0
  9 17  1  0
 10 11  1  0
 10  9  2  0
 11 12  1  0
 12 13  2  0
 12 17  1  0
 13 14  1  0
 14 15  2  0
 16 15  1  0
 17 16  2  0
 18  7  1  0
 19 18  2  0
 20 18  1  0
 21 20  1  0
 21 29  1  0
 22 23  1  0
 21 22  1  1
 23 24  2  0
 24 25  1  0
 26 25  2  0
 27 26  1  0
 28 23  1  0
 28 27  2  0
 29 30  1  0
 31 29  2  0
M  END
$$$$
