AWF.pdb
     RDKit          3D

 31 33  0  0  1  0  0  0  0  0999 V2000
   27.5290  -25.3028  -17.7965 C   0  0  0  0  0  0  0  0  0  0  0  0
   28.6930  -24.3831  -17.4244 C   0  0  2  0  0  0  0  0  0  0  0  0
   29.6672  -25.1357  -16.6591 N   0  0  0  0  0  0  0  0  0  0  0  0
   28.1408  -23.3253  -16.5684 C   0  0  0  0  0  0  0  0  0  0  0  0
   28.0210  -23.4983  -15.3248 O   0  0  0  0  0  0  0  0  0  0  0  0
   27.7091  -22.0570  -17.0599 N   0  0  0  0  0  0  0  0  0  0  0  0
   27.3096  -21.0078  -16.1428 C   0  0  1  0  0  0  0  0  0  0  0  0
   27.3590  -19.6458  -16.8573 C   0  0  0  0  0  0  0  0  0  0  0  0
   26.9319  -18.5650  -15.9580 C   0  0  0  0  0  0  0  0  0  0  0  0
   27.6707  -18.1566  -14.8620 C   0  0  0  0  0  0  0  0  0  0  0  0
   26.9770  -17.1677  -14.2906 N   0  0  0  0  0  0  0  0  0  0  0  0
   25.8420  -16.9365  -14.9733 C   0  0  0  0  0  0  0  0  0  0  0  0
   24.8182  -16.0435  -14.7918 C   0  0  0  0  0  0  0  0  0  0  0  0
   23.7403  -15.9886  -15.6330 C   0  0  0  0  0  0  0  0  0  0  0  0
   23.6861  -16.8745  -16.7117 C   0  0  0  0  0  0  0  0  0  0  0  0
   24.7117  -17.7848  -16.9120 C   0  0  0  0  0  0  0  0  0  0  0  0
   25.7844  -17.8061  -16.0360 C   0  0  0  0  0  0  0  0  0  0  0  0
   25.9695  -21.2472  -15.5703 C   0  0  0  0  0  0  0  0  0  0  0  0
   25.0336  -21.6792  -16.2905 O   0  0  0  0  0  0  0  0  0  0  0  0
   25.6481  -21.0132  -14.1986 N   0  0  0  0  0  0  0  0  0  0  0  0
   24.3403  -21.2469  -13.6442 C   0  0  1  0  0  0  0  0  0  0  0  0
   24.4822  -22.0911  -12.4069 C   0  0  0  0  0  0  0  0  0  0  0  0
   25.2878  -21.4086  -11.3517 C   0  0  0  0  0  0  0  0  0  0  0  0
   26.6713  -21.5735  -11.3021 C   0  0  0  0  0  0  0  0  0  0  0  0
   27.3887  -20.9368  -10.3214 C   0  0  0  0  0  0  0  0  0  0  0  0
   26.7523  -20.1384   -9.3888 C   0  0  0  0  0  0  0  0  0  0  0  0
   25.3977  -19.9628   -9.4187 C   0  0  0  0  0  0  0  0  0  0  0  0
   24.6863  -20.6115  -10.4142 C   0  0  0  0  0  0  0  0  0  0  0  0
   23.5979  -20.0309  -13.3178 C   0  0  0  0  0  0  0  0  0  0  0  0
   22.2019  -20.1536  -13.2217 O   0  0  0  0  0  0  0  0  0  0  0  0
   24.0795  -18.9044  -13.1181 O   0  0  0  0  0  0  0  0  0  0  0  0
  2  1  1  1
  2  3  1  0
  4  2  1  0
  4  5  2  0
  6  4  1  0
  7  6  1  0
  7  8  1  6
  9  8  1  0
  9 17  1  0
 10 11  1  0
 10  9  2  0
 11 12  1  0
 12 13  2  0
 12 17  1  0
 13 14  1  0
 14 15  2  0
 16 15  1  0
 17 16  2  0
 18  7  1  0
 19 18  2  0
 20 18  1  0
 21 20  1  0
 21 29  1  0
 22 23  1  0
 21 22  1  1
 23 24  2  0
 24 25  1  0
 26 25  2  0
 27 26  1  0
 28 23  1  0
 28 27  2  0
 29 30  1  0
 31 29  2  0
M  END
$$$$
