AWF.pdb
     RDKit          3D

 31 33  0  0  1  0  0  0  0  0999 V2000
   23.6217  -21.8385  -19.8188 C   0  0  0  0  0  0  0  0  0  0  0  0
   24.0572  -20.3913  -19.5842 C   0  0  2  0  0  0  0  0  0  0  0  0
   25.3163  -20.1580  -20.2632 N   0  0  0  0  0  0  0  0  0  0  0  0
   24.2696  -20.2413  -18.1389 C   0  0  0  0  0  0  0  0  0  0  0  0
   24.8845  -21.1251  -17.4819 O   0  0  0  0  0  0  0  0  0  0  0  0
   23.8118  -19.1188  -17.3860 N   0  0  0  0  0  0  0  0  0  0  0  0
   24.0857  -19.0221  -15.9658 C   0  0  1  0  0  0  0  0  0  0  0  0
   24.5390  -17.5928  -15.6196 C   0  0  0  0  0  0  0  0  0  0  0  0
   25.9249  -17.3624  -16.0503 C   0  0  0  0  0  0  0  0  0  0  0  0
   26.8387  -18.3841  -16.2372 C   0  0  0  0  0  0  0  0  0  0  0  0
   27.9779  -17.8014  -16.6220 N   0  0  0  0  0  0  0  0  0  0  0  0
   27.8234  -16.4673  -16.6855 C   0  0  0  0  0  0  0  0  0  0  0  0
   28.6795  -15.4514  -17.0225 C   0  0  0  0  0  0  0  0  0  0  0  0
   28.2925  -14.1388  -17.0159 C   0  0  0  0  0  0  0  0  0  0  0  0
   26.9797  -13.8289  -16.6528 C   0  0  0  0  0  0  0  0  0  0  0  0
   26.0991  -14.8423  -16.3087 C   0  0  0  0  0  0  0  0  0  0  0  0
   26.5328  -16.1576  -16.3289 C   0  0  0  0  0  0  0  0  0  0  0  0
   22.9217  -19.4124  -15.1449 C   0  0  0  0  0  0  0  0  0  0  0  0
   21.7585  -19.0739  -15.4819 O   0  0  0  0  0  0  0  0  0  0  0  0
   23.0285  -20.1799  -13.9452 N   0  0  0  0  0  0  0  0  0  0  0  0
   21.9082  -20.4589  -13.0853 C   0  0  1  0  0  0  0  0  0  0  0  0
   22.3835  -21.2890  -11.9240 C   0  0  0  0  0  0  0  0  0  0  0  0
   21.2645  -21.6717  -11.0131 C   0  0  0  0  0  0  0  0  0  0  0  0
   20.4115  -22.7232  -11.3451 C   0  0  0  0  0  0  0  0  0  0  0  0
   19.3896  -23.0540  -10.4918 C   0  0  0  0  0  0  0  0  0  0  0  0
   19.2022  -22.3558   -9.3131 C   0  0  0  0  0  0  0  0  0  0  0  0
   20.0261  -21.3220   -8.9679 C   0  0  0  0  0  0  0  0  0  0  0  0
   21.0534  -20.9991   -9.8387 C   0  0  0  0  0  0  0  0  0  0  0  0
   21.2239  -19.2695  -12.5819 C   0  0  0  0  0  0  0  0  0  0  0  0
   19.8232  -19.2585  -12.6870 O   0  0  0  0  0  0  0  0  0  0  0  0
   21.7584  -18.2717  -12.0723 O   0  0  0  0  0  0  0  0  0  0  0  0
  2  1  1  1
  2  3  1  0
  4  2  1  0
  4  5  2  0
  6  4  1  0
  7  6  1  0
  7  8  1  6
  9  8  1  0
  9 17  1  0
 10 11  1  0
 10  9  2  0
 11 12  1  0
 12 13  2  0
 12 17  1  0
 13 14  1  0
 14 15  2  0
 16 15  1  0
 17 16  2  0
 18  7  1  0
 19 18  2  0
 20 18  1  0
 21 20  1  0
 21 29  1  0
 22 23  1  0
 21 22  1  1
 23 24  2  0
 24 25  1  0
 26 25  2  0
 27 26  1  0
 28 23  1  0
 28 27  2  0
 29 30  1  0
 31 29  2  0
M  END
$$$$
