AWF.pdb
     RDKit          3D

 31 33  0  0  1  0  0  0  0  0999 V2000
   13.2260  -11.3057  -16.4487 C   0  0  0  0  0  0  0  0  0  0  0  0
   14.2723  -12.2196  -15.8092 C   0  0  2  0  0  0  0  0  0  0  0  0
   15.4371  -12.2832  -16.6697 N   0  0  0  0  0  0  0  0  0  0  0  0
   13.6744  -13.5586  -15.7305 C   0  0  0  0  0  0  0  0  0  0  0  0
   12.6486  -13.7669  -15.0268 O   0  0  0  0  0  0  0  0  0  0  0  0
   14.1902  -14.6953  -16.4221 N   0  0  0  0  0  0  0  0  0  0  0  0
   13.5456  -15.9880  -16.2999 C   0  0  1  0  0  0  0  0  0  0  0  0
   13.7555  -16.7981  -17.5914 C   0  0  0  0  0  0  0  0  0  0  0  0
   12.7047  -16.5009  -18.5746 C   0  0  0  0  0  0  0  0  0  0  0  0
   12.3488  -15.2137  -18.9357 C   0  0  0  0  0  0  0  0  0  0  0  0
   11.3713  -15.3352  -19.8386 N   0  0  0  0  0  0  0  0  0  0  0  0
   11.0975  -16.6326  -20.0609 C   0  0  0  0  0  0  0  0  0  0  0  0
   10.1970  -17.2613  -20.8809 C   0  0  0  0  0  0  0  0  0  0  0  0
   10.0950  -18.6245  -20.9430 C   0  0  0  0  0  0  0  0  0  0  0  0
   10.9392  -19.3971  -20.1420 C   0  0  0  0  0  0  0  0  0  0  0  0
   11.8564  -18.7798  -19.3063 C   0  0  0  0  0  0  0  0  0  0  0  0
   11.9261  -17.3968  -19.2746 C   0  0  0  0  0  0  0  0  0  0  0  0
   14.0284  -16.7440  -15.1267 C   0  0  0  0  0  0  0  0  0  0  0  0
   15.2176  -16.6272  -14.7352 O   0  0  0  0  0  0  0  0  0  0  0  0
   13.2051  -17.6354  -14.3736 N   0  0  0  0  0  0  0  0  0  0  0  0
   13.6602  -18.3209  -13.1923 C   0  0  1  0  0  0  0  0  0  0  0  0
   13.8238  -17.3181  -12.0827 C   0  0  0  0  0  0  0  0  0  0  0  0
   12.5151  -16.7519  -11.6411 C   0  0  0  0  0  0  0  0  0  0  0  0
   11.7276  -17.4329  -10.7138 C   0  0  0  0  0  0  0  0  0  0  0  0
   10.5282  -16.8922  -10.3256 C   0  0  0  0  0  0  0  0  0  0  0  0
   10.0989  -15.6847  -10.8448 C   0  0  0  0  0  0  0  0  0  0  0  0
   10.8544  -15.0003  -11.7545 C   0  0  0  0  0  0  0  0  0  0  0  0
   12.0628  -15.5581  -12.1372 C   0  0  0  0  0  0  0  0  0  0  0  0
   12.7807  -19.3990  -12.7446 C   0  0  0  0  0  0  0  0  0  0  0  0
   13.2477  -20.1910  -11.6827 O   0  0  0  0  0  0  0  0  0  0  0  0
   11.6651  -19.6815  -13.2099 O   0  0  0  0  0  0  0  0  0  0  0  0
  2  1  1  6
  2  3  1  0
  4  2  1  0
  4  5  2  0
  6  4  1  0
  7  6  1  0
  7  8  1  6
  9  8  1  0
  9 17  1  0
 10 11  1  0
 10  9  2  0
 11 12  1  0
 12 13  2  0
 12 17  1  0
 13 14  1  0
 14 15  2  0
 16 15  1  0
 17 16  2  0
 18  7  1  0
 19 18  2  0
 20 18  1  0
 21 20  1  0
 21 29  1  0
 22 23  1  0
 21 22  1  1
 23 24  2  0
 24 25  1  0
 26 25  2  0
 27 26  1  0
 28 23  1  0
 28 27  2  0
 29 30  1  0
 31 29  2  0
M  END
$$$$
