AWF.pdb
     RDKit          3D

 31 33  0  0  1  0  0  0  0  0999 V2000
   28.4353  -25.1920  -16.8573 C   0  0  0  0  0  0  0  0  0  0  0  0
   29.5665  -24.1633  -16.8238 C   0  0  2  0  0  0  0  0  0  0  0  0
   30.7136  -24.7402  -16.1511 N   0  0  0  0  0  0  0  0  0  0  0  0
   29.0820  -23.0258  -16.0313 C   0  0  0  0  0  0  0  0  0  0  0  0
   29.4292  -22.8837  -14.8272 O   0  0  0  0  0  0  0  0  0  0  0  0
   28.2071  -22.0219  -16.5445 N   0  0  0  0  0  0  0  0  0  0  0  0
   27.7778  -20.9195  -15.7067 C   0  0  1  0  0  0  0  0  0  0  0  0
   27.3553  -19.7306  -16.5875 C   0  0  0  0  0  0  0  0  0  0  0  0
   26.7731  -18.6545  -15.7736 C   0  0  0  0  0  0  0  0  0  0  0  0
   27.5283  -17.8265  -14.9625 C   0  0  0  0  0  0  0  0  0  0  0  0
   26.6680  -16.9831  -14.3844 N   0  0  0  0  0  0  0  0  0  0  0  0
   25.4132  -17.2412  -14.7925 C   0  0  0  0  0  0  0  0  0  0  0  0
   24.2057  -16.6658  -14.4933 C   0  0  0  0  0  0  0  0  0  0  0  0
   23.0320  -17.1055  -15.0425 C   0  0  0  0  0  0  0  0  0  0  0  0
   23.0708  -18.1771  -15.9377 C   0  0  0  0  0  0  0  0  0  0  0  0
   24.2821  -18.7722  -16.2528 C   0  0  0  0  0  0  0  0  0  0  0  0
   25.4466  -18.2953  -15.6738 C   0  0  0  0  0  0  0  0  0  0  0  0
   26.6834  -21.3057  -14.7933 C   0  0  0  0  0  0  0  0  0  0  0  0
   25.7815  -22.0955  -15.1729 O   0  0  0  0  0  0  0  0  0  0  0  0
   26.5727  -20.8256  -13.4528 N   0  0  0  0  0  0  0  0  0  0  0  0
   25.4941  -21.1893  -12.5715 C   0  0  1  0  0  0  0  0  0  0  0  0
   26.0266  -22.1117  -11.5088 C   0  0  0  0  0  0  0  0  0  0  0  0
   26.7645  -21.3720  -10.4427 C   0  0  0  0  0  0  0  0  0  0  0  0
   26.1049  -20.4380   -9.6449 C   0  0  0  0  0  0  0  0  0  0  0  0
   26.8060  -19.7704   -8.6732 C   0  0  0  0  0  0  0  0  0  0  0  0
   28.1532  -20.0164   -8.4817 C   0  0  0  0  0  0  0  0  0  0  0  0
   28.8195  -20.9272   -9.2518 C   0  0  0  0  0  0  0  0  0  0  0  0
   28.0991  -21.5938  -10.2289 C   0  0  0  0  0  0  0  0  0  0  0  0
   24.8255  -20.0549  -11.9371 C   0  0  0  0  0  0  0  0  0  0  0  0
   25.5008  -18.8239  -11.9785 O   0  0  0  0  0  0  0  0  0  0  0  0
   23.7228  -20.0736  -11.3674 O   0  0  0  0  0  0  0  0  0  0  0  0
  2  1  1  1
  2  3  1  0
  4  2  1  0
  4  5  2  0
  6  4  1  0
  7  6  1  0
  7  8  1  6
  9  8  1  0
  9 17  1  0
 10 11  1  0
 10  9  2  0
 11 12  1  0
 12 13  2  0
 12 17  1  0
 13 14  1  0
 14 15  2  0
 16 15  1  0
 17 16  2  0
 18  7  1  0
 19 18  2  0
 20 18  1  0
 21 20  1  0
 21 29  1  0
 22 23  1  0
 21 22  1  1
 23 24  2  0
 24 25  1  0
 26 25  2  0
 27 26  1  0
 28 23  1  0
 28 27  2  0
 29 30  1  0
 31 29  2  0
M  END
$$$$
