AWF.pdb
     RDKit          3D

 31 33  0  0  1  0  0  0  0  0999 V2000
   29.7858  -22.4173  -15.1362 C   0  0  0  0  0  0  0  0  0  0  0  0
   28.3260  -22.4209  -15.5923 C   0  0  2  0  0  0  0  0  0  0  0  0
   28.2205  -21.7142  -16.8535 N   0  0  0  0  0  0  0  0  0  0  0  0
   27.5627  -21.6839  -14.5771 C   0  0  0  0  0  0  0  0  0  0  0  0
   27.7096  -20.4391  -14.4369 O   0  0  0  0  0  0  0  0  0  0  0  0
   26.6232  -22.2981  -13.6958 N   0  0  0  0  0  0  0  0  0  0  0  0
   25.8187  -21.4928  -12.7981 C   0  0  1  0  0  0  0  0  0  0  0  0
   24.3340  -21.8663  -12.9536 C   0  0  0  0  0  0  0  0  0  0  0  0
   23.5205  -20.6768  -13.2415 C   0  0  0  0  0  0  0  0  0  0  0  0
   24.0656  -19.4526  -13.5849 C   0  0  0  0  0  0  0  0  0  0  0  0
   23.0349  -18.6223  -13.7683 N   0  0  0  0  0  0  0  0  0  0  0  0
   21.8727  -19.2646  -13.5573 C   0  0  0  0  0  0  0  0  0  0  0  0
   20.5655  -18.8573  -13.6195 C   0  0  0  0  0  0  0  0  0  0  0  0
   19.5239  -19.7057  -13.3587 C   0  0  0  0  0  0  0  0  0  0  0  0
   19.8075  -21.0304  -13.0180 C   0  0  0  0  0  0  0  0  0  0  0  0
   21.1230  -21.4611  -12.9499 C   0  0  0  0  0  0  0  0  0  0  0  0
   22.1470  -20.5688  -13.2217 C   0  0  0  0  0  0  0  0  0  0  0  0
   26.2456  -21.6301  -11.3910 C   0  0  0  0  0  0  0  0  0  0  0  0
   26.4556  -22.7658  -10.8937 O   0  0  0  0  0  0  0  0  0  0  0  0
   26.4454  -20.5172  -10.5186 N   0  0  0  0  0  0  0  0  0  0  0  0
   26.7818  -20.6574   -9.1259 C   0  0  1  0  0  0  0  0  0  0  0  0
   27.8482  -19.6535   -8.7814 C   0  0  0  0  0  0  0  0  0  0  0  0
   28.1845  -19.6694   -7.3271 C   0  0  0  0  0  0  0  0  0  0  0  0
   27.4942  -18.8517   -6.4335 C   0  0  0  0  0  0  0  0  0  0  0  0
   27.8235  -18.8837   -5.1022 C   0  0  0  0  0  0  0  0  0  0  0  0
   28.8286  -19.7161   -4.6449 C   0  0  0  0  0  0  0  0  0  0  0  0
   29.5179  -20.5257   -5.5028 C   0  0  0  0  0  0  0  0  0  0  0  0
   29.1748  -20.4829   -6.8439 C   0  0  0  0  0  0  0  0  0  0  0  0
   25.6516  -20.4951   -8.2135 C   0  0  0  0  0  0  0  0  0  0  0  0
   25.5813  -21.3915   -7.1343 O   0  0  0  0  0  0  0  0  0  0  0  0
   24.7510  -19.6451   -8.2994 O   0  0  0  0  0  0  0  0  0  0  0  0
  2  1  1  1
  2  3  1  0
  4  2  1  0
  4  5  2  0
  6  4  1  0
  7  6  1  0
  7  8  1  1
  9  8  1  0
  9 17  1  0
 10 11  1  0
 10  9  2  0
 11 12  1  0
 12 13  2  0
 12 17  1  0
 13 14  1  0
 14 15  2  0
 16 15  1  0
 17 16  2  0
 18  7  1  0
 19 18  2  0
 20 18  1  0
 21 20  1  0
 21 29  1  0
 22 23  1  0
 21 22  1  1
 23 24  2  0
 24 25  1  0
 26 25  2  0
 27 26  1  0
 28 23  1  0
 28 27  2  0
 29 30  1  0
 31 29  2  0
M  END
$$$$
