AWF.pdb
     RDKit          3D

 31 33  0  0  1  0  0  0  0  0999 V2000
   29.9232  -24.0709  -16.1405 C   0  0  0  0  0  0  0  0  0  0  0  0
   29.0292  -23.2929  -17.1071 C   0  0  2  0  0  0  0  0  0  0  0  0
   29.8607  -22.4902  -17.9819 N   0  0  0  0  0  0  0  0  0  0  0  0
   28.2035  -22.3937  -16.2908 C   0  0  0  0  0  0  0  0  0  0  0  0
   28.6993  -21.3576  -15.7698 O   0  0  0  0  0  0  0  0  0  0  0  0
   26.8178  -22.6137  -16.0300 N   0  0  0  0  0  0  0  0  0  0  0  0
   26.0480  -21.6481  -15.2709 C   0  0  1  0  0  0  0  0  0  0  0  0
   24.6250  -21.5477  -15.8482 C   0  0  0  0  0  0  0  0  0  0  0  0
   23.8264  -20.5606  -15.1086 C   0  0  0  0  0  0  0  0  0  0  0  0
   24.0783  -19.2008  -15.1485 C   0  0  0  0  0  0  0  0  0  0  0  0
   23.1622  -18.6274  -14.3626 N   0  0  0  0  0  0  0  0  0  0  0  0
   22.3501  -19.5590  -13.8332 C   0  0  0  0  0  0  0  0  0  0  0  0
   21.2783  -19.4772  -12.9828 C   0  0  0  0  0  0  0  0  0  0  0  0
   20.5882  -20.5845  -12.5702 C   0  0  0  0  0  0  0  0  0  0  0  0
   20.9935  -21.8382  -13.0340 C   0  0  0  0  0  0  0  0  0  0  0  0
   22.0750  -21.9415  -13.8946 C   0  0  0  0  0  0  0  0  0  0  0  0
   22.7452  -20.7946  -14.2870 C   0  0  0  0  0  0  0  0  0  0  0  0
   26.0040  -21.9764  -13.8317 C   0  0  0  0  0  0  0  0  0  0  0  0
   25.9854  -23.1740  -13.4487 O   0  0  0  0  0  0  0  0  0  0  0  0
   25.9806  -20.9882  -12.8009 N   0  0  0  0  0  0  0  0  0  0  0  0
   25.9528  -21.3121  -11.3986 C   0  0  1  0  0  0  0  0  0  0  0  0
   27.1907  -20.7569  -10.7482 C   0  0  0  0  0  0  0  0  0  0  0  0
   26.9161  -20.2284   -9.3794 C   0  0  0  0  0  0  0  0  0  0  0  0
   26.8301  -21.0959   -8.2913 C   0  0  0  0  0  0  0  0  0  0  0  0
   26.5751  -20.5852   -7.0440 C   0  0  0  0  0  0  0  0  0  0  0  0
   26.4041  -19.2254   -6.8609 C   0  0  0  0  0  0  0  0  0  0  0  0
   26.4842  -18.3572   -7.9128 C   0  0  0  0  0  0  0  0  0  0  0  0
   26.7422  -18.8866   -9.1662 C   0  0  0  0  0  0  0  0  0  0  0  0
   24.7723  -20.8215  -10.6899 C   0  0  0  0  0  0  0  0  0  0  0  0
   24.2929  -19.5564  -11.0680 O   0  0  0  0  0  0  0  0  0  0  0  0
   24.1545  -21.4121   -9.7897 O   0  0  0  0  0  0  0  0  0  0  0  0
  2  1  1  1
  2  3  1  0
  4  2  1  0
  4  5  2  0
  6  4  1  0
  7  6  1  0
  7  8  1  6
  9  8  1  0
  9 17  1  0
 10 11  1  0
 10  9  2  0
 11 12  1  0
 12 13  2  0
 12 17  1  0
 13 14  1  0
 14 15  2  0
 16 15  1  0
 17 16  2  0
 18  7  1  0
 19 18  2  0
 20 18  1  0
 21 20  1  0
 21 29  1  0
 22 23  1  0
 21 22  1  1
 23 24  2  0
 24 25  1  0
 26 25  2  0
 27 26  1  0
 28 23  1  0
 28 27  2  0
 29 30  1  0
 31 29  2  0
M  END
$$$$
