AWF.pdb
     RDKit          3D

 31 33  0  0  1  0  0  0  0  0999 V2000
   29.6661  -23.3886  -16.0742 C   0  0  0  0  0  0  0  0  0  0  0  0
   28.5938  -22.5868  -16.8133 C   0  0  2  0  0  0  0  0  0  0  0  0
   29.2231  -21.7983  -17.8542 N   0  0  0  0  0  0  0  0  0  0  0  0
   27.9949  -21.6736  -15.8314 C   0  0  0  0  0  0  0  0  0  0  0  0
   28.7045  -20.8308  -15.2174 O   0  0  0  0  0  0  0  0  0  0  0  0
   26.6060  -21.6672  -15.5039 N   0  0  0  0  0  0  0  0  0  0  0  0
   26.0906  -20.7639  -14.4941 C   0  0  1  0  0  0  0  0  0  0  0  0
   25.0130  -19.8546  -15.1106 C   0  0  0  0  0  0  0  0  0  0  0  0
   25.6126  -18.8810  -16.0337 C   0  0  0  0  0  0  0  0  0  0  0  0
   25.7412  -19.1067  -17.3925 C   0  0  0  0  0  0  0  0  0  0  0  0
   26.3247  -18.0166  -17.8992 N   0  0  0  0  0  0  0  0  0  0  0  0
   26.5677  -17.1204  -16.9268 C   0  0  0  0  0  0  0  0  0  0  0  0
   27.1375  -15.8740  -16.9381 C   0  0  0  0  0  0  0  0  0  0  0  0
   27.2832  -15.1280  -15.8001 C   0  0  0  0  0  0  0  0  0  0  0  0
   26.8345  -15.6591  -14.5886 C   0  0  0  0  0  0  0  0  0  0  0  0
   26.2555  -16.9179  -14.5567 C   0  0  0  0  0  0  0  0  0  0  0  0
   26.1276  -17.6389  -15.7325 C   0  0  0  0  0  0  0  0  0  0  0  0
   25.5552  -21.4844  -13.3214 C   0  0  0  0  0  0  0  0  0  0  0  0
   24.8205  -22.4939  -13.4710 O   0  0  0  0  0  0  0  0  0  0  0  0
   25.8246  -21.0997  -11.9727 N   0  0  0  0  0  0  0  0  0  0  0  0
   25.1037  -21.6264  -10.8434 C   0  0  1  0  0  0  0  0  0  0  0  0
   26.0939  -22.0982   -9.8135 C   0  0  0  0  0  0  0  0  0  0  0  0
   26.8798  -20.9697   -9.2329 C   0  0  0  0  0  0  0  0  0  0  0  0
   28.1625  -20.6879   -9.7008 C   0  0  0  0  0  0  0  0  0  0  0  0
   28.8647  -19.6464   -9.1494 C   0  0  0  0  0  0  0  0  0  0  0  0
   28.3118  -18.8803   -8.1398 C   0  0  0  0  0  0  0  0  0  0  0  0
   27.0566  -19.1386   -7.6662 C   0  0  0  0  0  0  0  0  0  0  0  0
   26.3593  -20.1929   -8.2321 C   0  0  0  0  0  0  0  0  0  0  0  0
   24.1766  -20.6802  -10.2256 C   0  0  0  0  0  0  0  0  0  0  0  0
   24.2631  -19.3451  -10.6535 O   0  0  0  0  0  0  0  0  0  0  0  0
   23.3232  -20.9411   -9.3627 O   0  0  0  0  0  0  0  0  0  0  0  0
  2  1  1  1
  2  3  1  0
  4  2  1  0
  4  5  2  0
  6  4  1  0
  7  6  1  0
  7  8  1  6
  9  8  1  0
  9 17  1  0
 10 11  1  0
 10  9  2  0
 11 12  1  0
 12 13  2  0
 12 17  1  0
 13 14  1  0
 14 15  2  0
 16 15  1  0
 17 16  2  0
 18  7  1  0
 19 18  2  0
 20 18  1  0
 21 20  1  0
 21 29  1  0
 22 23  1  0
 21 22  1  1
 23 24  2  0
 24 25  1  0
 26 25  2  0
 27 26  1  0
 28 23  1  0
 28 27  2  0
 29 30  1  0
 31 29  2  0
M  END
$$$$
