YMA.pdb
     RDKit          3D

 26 26  0  0  1  0  0  0  0  0999 V2000
    6.9992  -13.9230   14.7979 O   0  0  0  0  0  0  0  0  0  0  0  0
    7.2497  -14.3772   16.0728 C   0  0  0  0  0  0  0  0  0  0  0  0
    7.8508  -13.5577   17.0122 C   0  0  0  0  0  0  0  0  0  0  0  0
    8.1018  -14.0120   18.2885 C   0  0  0  0  0  0  0  0  0  0  0  0
    7.7597  -15.2789   18.6422 C   0  0  0  0  0  0  0  0  0  0  0  0
    8.0316  -15.7650   20.0195 C   0  0  0  0  0  0  0  0  0  0  0  0
    9.1698  -14.9302   20.5703 C   0  0  2  0  0  0  0  0  0  0  0  0
   10.3983  -15.4270   19.9777 N   0  0  0  0  0  0  0  0  0  0  0  0
    9.2239  -14.9933   22.0541 C   0  0  0  0  0  0  0  0  0  0  0  0
   10.1034  -15.6528   22.6758 O   0  0  0  0  0  0  0  0  0  0  0  0
    7.1605  -16.1191   17.7317 C   0  0  0  0  0  0  0  0  0  0  0  0
    6.9073  -15.6614   16.4447 C   0  0  0  0  0  0  0  0  0  0  0  0
    6.5600  -11.7522   28.8085 C   0  0  0  0  0  0  0  0  0  0  0  0
    6.3103  -11.9617   27.0311 S   0  0  0  0  0  0  0  0  0  0  0  0
    7.4725  -13.1789   26.3391 C   0  0  0  0  0  0  0  0  0  0  0  0
    7.3379  -13.2847   24.8466 C   0  0  0  0  0  0  0  0  0  0  0  0
    8.3387  -14.2279   24.3037 C   0  0  2  0  0  0  0  0  0  0  0  0
    8.2784  -14.3073   22.8411 N   0  0  0  0  0  0  0  0  0  0  0  0
    8.2971  -15.6093   24.8222 C   0  0  0  0  0  0  0  0  0  0  0  0
    7.3519  -16.4168   24.7190 O   0  0  0  0  0  0  0  0  0  0  0  0
   10.5892  -18.2542   25.4280 C   0  0  0  0  0  0  0  0  0  0  0  0
    9.4420  -17.4978   26.0651 C   0  0  2  0  0  0  0  0  0  0  0  0
    9.4433  -16.1473   25.5369 N   0  0  0  0  0  0  0  0  0  0  0  0
    9.6596  -17.4693   27.5520 C   0  0  0  0  0  0  0  0  0  0  0  0
    9.8297  -16.4149   28.1764 O   0  0  0  0  0  0  0  0  0  0  0  0
    9.6621  -18.6890   28.2039 O   0  0  0  0  0  0  0  0  0  0  0  0
  2  3  2  0
  2  1  1  0
  4  3  1  0
  5  4  2  0
  6  5  1  0
  7  9  1  0
  7  6  1  0
  7  8  1  6
  9 10  2  0
 11  5  1  0
 11 12  2  0
 12  2  1  0
 14 13  1  0
 15 14  1  0
 16 15  1  0
 17 16  1  1
 18  9  1  0
 18 17  1  0
 19 23  1  0
 19 17  1  0
 20 19  2  0
 22 21  1  6
 22 24  1  0
 22 23  1  0
 24 26  1  0
 25 24  2  0
M  END
$$$$
