YMA.pdb
     RDKit          3D

 26 26  0  0  1  0  0  0  0  0999 V2000
    7.8180  -14.5819   15.0365 O   0  0  0  0  0  0  0  0  0  0  0  0
    8.1662  -14.3711   16.3513 C   0  0  0  0  0  0  0  0  0  0  0  0
    7.4739  -13.4611   17.1311 C   0  0  0  0  0  0  0  0  0  0  0  0
    7.8221  -13.2498   18.4472 C   0  0  0  0  0  0  0  0  0  0  0  0
    8.8566  -13.9373   18.9989 C   0  0  0  0  0  0  0  0  0  0  0  0
    9.2288  -13.7069   20.4187 C   0  0  0  0  0  0  0  0  0  0  0  0
    8.9957  -15.0091   21.1575 C   0  0  2  0  0  0  0  0  0  0  0  0
    7.6342  -15.4284   20.8784 N   0  0  0  0  0  0  0  0  0  0  0  0
    9.2229  -14.8554   22.6181 C   0  0  0  0  0  0  0  0  0  0  0  0
   10.3427  -14.5290   23.1023 O   0  0  0  0  0  0  0  0  0  0  0  0
    9.5653  -14.8494   18.2508 C   0  0  0  0  0  0  0  0  0  0  0  0
    9.2145  -15.0626   16.9236 C   0  0  0  0  0  0  0  0  0  0  0  0
    6.1725  -11.0387   28.5021 C   0  0  0  0  0  0  0  0  0  0  0  0
    5.9473  -11.7980   26.8779 S   0  0  0  0  0  0  0  0  0  0  0  0
    7.1681  -13.1163   26.5893 C   0  0  0  0  0  0  0  0  0  0  0  0
    7.0704  -13.6638   25.1938 C   0  0  0  0  0  0  0  0  0  0  0  0
    8.1951  -14.5836   24.9203 C   0  0  2  0  0  0  0  0  0  0  0  0
    8.1785  -15.0720   23.5382 N   0  0  0  0  0  0  0  0  0  0  0  0
    8.3179  -15.7608   25.8024 C   0  0  0  0  0  0  0  0  0  0  0  0
    8.1349  -15.7912   27.0359 O   0  0  0  0  0  0  0  0  0  0  0  0
    8.8820  -19.4424   25.2388 C   0  0  0  0  0  0  0  0  0  0  0  0
    8.9809  -18.1903   26.0853 C   0  0  2  0  0  0  0  0  0  0  0  0
    8.6874  -17.0495   25.2396 N   0  0  0  0  0  0  0  0  0  0  0  0
   10.3818  -18.0880   26.6200 C   0  0  0  0  0  0  0  0  0  0  0  0
   11.1444  -17.1654   26.3073 O   0  0  0  0  0  0  0  0  0  0  0  0
   10.7901  -19.0831   27.4894 O   0  0  0  0  0  0  0  0  0  0  0  0
  2  3  2  0
  2  1  1  0
  4  3  1  0
  5  4  2  0
  6  5  1  0
  7  9  1  0
  7  6  1  0
  7  8  1  1
  9 10  2  0
 11  5  1  0
 11 12  2  0
 12  2  1  0
 14 13  1  0
 15 14  1  0
 16 15  1  0
 17 16  1  1
 18  9  1  0
 18 17  1  0
 19 23  1  0
 19 17  1  0
 20 19  2  0
 22 21  1  6
 22 24  1  0
 22 23  1  0
 24 26  1  0
 25 24  2  0
M  END
$$$$
