YMA.pdb
     RDKit          3D

 26 26  0  0  1  0  0  0  0  0999 V2000
   10.0556  -20.4960   16.6882 O   0  0  0  0  0  0  0  0  0  0  0  0
   10.1599  -19.5460   17.6787 C   0  0  0  0  0  0  0  0  0  0  0  0
    9.2628  -18.4945   17.7500 C   0  0  0  0  0  0  0  0  0  0  0  0
    9.3668  -17.5433   18.7413 C   0  0  0  0  0  0  0  0  0  0  0  0
   10.3583  -17.6271   19.6670 C   0  0  0  0  0  0  0  0  0  0  0  0
   10.4669  -16.5997   20.7347 C   0  0  0  0  0  0  0  0  0  0  0  0
    9.8314  -17.1826   21.9805 C   0  0  2  0  0  0  0  0  0  0  0  0
    8.4823  -17.5879   21.6301 N   0  0  0  0  0  0  0  0  0  0  0  0
    9.8260  -16.2038   23.0988 C   0  0  0  0  0  0  0  0  0  0  0  0
   10.8775  -15.6445   23.5191 O   0  0  0  0  0  0  0  0  0  0  0  0
   11.2665  -18.6602   19.6242 C   0  0  0  0  0  0  0  0  0  0  0  0
   11.1620  -19.6194   18.6248 C   0  0  0  0  0  0  0  0  0  0  0  0
    5.8847  -10.8081   27.2179 C   0  0  0  0  0  0  0  0  0  0  0  0
    5.7880  -12.1295   25.9892 S   0  0  0  0  0  0  0  0  0  0  0  0
    7.2847  -13.1642   26.0116 C   0  0  0  0  0  0  0  0  0  0  0  0
    7.3185  -14.1121   24.8467 C   0  0  0  0  0  0  0  0  0  0  0  0
    8.5504  -14.9288   24.8814 C   0  0  2  0  0  0  0  0  0  0  0  0
    8.6252  -15.8542   23.7469 N   0  0  0  0  0  0  0  0  0  0  0  0
    8.7903  -15.7146   26.1078 C   0  0  0  0  0  0  0  0  0  0  0  0
    9.0065  -15.2655   27.2512 O   0  0  0  0  0  0  0  0  0  0  0  0
    8.5507  -19.3952   26.9094 C   0  0  0  0  0  0  0  0  0  0  0  0
    8.9690  -17.9766   27.2362 C   0  0  2  0  0  0  0  0  0  0  0  0
    8.7876  -17.1673   26.0467 N   0  0  0  0  0  0  0  0  0  0  0  0
   10.4181  -17.9887   27.6348 C   0  0  0  0  0  0  0  0  0  0  0  0
   11.2963  -17.4420   26.9562 O   0  0  0  0  0  0  0  0  0  0  0  0
   10.7348  -18.6465   28.8094 O   0  0  0  0  0  0  0  0  0  0  0  0
  2  3  2  0
  2  1  1  0
  4  3  1  0
  5  4  2  0
  6  5  1  0
  7  9  1  0
  7  6  1  0
  7  8  1  6
  9 10  2  0
 11  5  1  0
 11 12  2  0
 12  2  1  0
 14 13  1  0
 15 14  1  0
 16 15  1  0
 17 16  1  1
 18  9  1  0
 18 17  1  0
 19 23  1  0
 19 17  1  0
 20 19  2  0
 22 21  1  6
 22 24  1  0
 22 23  1  0
 24 26  1  0
 25 24  2  0
M  END
$$$$
