CWC.pdb
     RDKit          3D

 27 28  0  0  1  0  0  0  0  0999 V2000
    7.2728  -13.1017   19.9107 N   0  0  0  0  0  0  0  0  0  0  0  0
    7.2623  -14.4942   20.3214 C   0  0  1  0  0  0  0  0  0  0  0  0
    7.7062  -15.3178   19.1242 C   0  0  0  0  0  0  0  0  0  0  0  0
    7.7048  -17.0816   19.5106 S   0  0  0  0  0  0  0  0  0  0  0  0
    8.2195  -14.6749   21.4518 C   0  0  0  0  0  0  0  0  0  0  0  0
    9.2735  -14.0104   21.5065 O   0  0  0  0  0  0  0  0  0  0  0  0
    7.9513  -15.5938   22.4715 N   0  0  0  0  0  0  0  0  0  0  0  0
    8.8427  -15.9169   23.5794 C   0  0  1  0  0  0  0  0  0  0  0  0
    7.9658  -16.3225   24.7134 C   0  0  0  0  0  0  0  0  0  0  0  0
    7.1098  -15.2935   25.3041 C   0  0  0  0  0  0  0  0  0  0  0  0
    5.7368  -15.3381   25.5457 C   0  0  0  0  0  0  0  0  0  0  0  0
    5.3913  -14.1722   26.0641 N   0  0  0  0  0  0  0  0  0  0  0  0
    6.4318  -13.3447   26.1904 C   0  0  0  0  0  0  0  0  0  0  0  0
    6.6190  -12.0692   26.6661 C   0  0  0  0  0  0  0  0  0  0  0  0
    7.8524  -11.4673   26.6842 C   0  0  0  0  0  0  0  0  0  0  0  0
    8.9548  -12.1421   26.2160 C   0  0  0  0  0  0  0  0  0  0  0  0
    8.7735  -13.4115   25.7408 C   0  0  0  0  0  0  0  0  0  0  0  0
    7.5281  -14.0441   25.7119 C   0  0  0  0  0  0  0  0  0  0  0  0
    9.9361  -16.7986   23.2192 C   0  0  0  0  0  0  0  0  0  0  0  0
    9.7309  -17.8042   22.4992 O   0  0  0  0  0  0  0  0  0  0  0  0
   11.2872  -16.5965   23.6438 N   0  0  0  0  0  0  0  0  0  0  0  0
   12.3319  -17.5098   23.2999 C   0  0  1  0  0  0  0  0  0  0  0  0
   13.0987  -17.0196   22.0959 C   0  0  0  0  0  0  0  0  0  0  0  0
   13.4830  -15.2605   22.2894 S   0  0  0  0  0  0  0  0  0  0  0  0
   13.3247  -17.6646   24.4164 C   0  0  0  0  0  0  0  0  0  0  0  0
   14.3151  -18.4275   24.3415 O   0  0  0  0  0  0  0  0  0  0  0  0
   13.1316  -16.9281   25.5777 O   0  0  0  0  0  0  0  0  0  0  0  0
  2  1  1  6
  2  5  1  0
  3  2  1  0
  4  3  1  0
  5  6  2  0
  7  5  1  0
  7  8  1  0
  8  9  1  1
 10  9  1  0
 11 10  2  0
 12 13  1  0
 12 11  1  0
 13 18  2  0
 14 15  2  0
 14 13  1  0
 15 16  1  0
 16 17  2  0
 18 17  1  0
 18 10  1  0
 19 21  1  0
 19  8  1  0
 20 19  2  0
 22 23  1  6
 22 21  1  0
 23 24  1  0
 25 22  1  0
 25 27  1  0
 26 25  2  0
M  END
$$$$
