CWC.pdb
     RDKit          3D

 27 28  0  0  1  0  0  0  0  0999 V2000
    7.3167  -13.3389   19.8083 N   0  0  0  0  0  0  0  0  0  0  0  0
    7.1365  -14.6084   20.4896 C   0  0  1  0  0  0  0  0  0  0  0  0
    7.3353  -15.7039   19.4557 C   0  0  0  0  0  0  0  0  0  0  0  0
    8.9987  -15.6448   18.7559 S   0  0  0  0  0  0  0  0  0  0  0  0
    8.1592  -14.7301   21.5694 C   0  0  0  0  0  0  0  0  0  0  0  0
    9.1216  -13.9391   21.6273 O   0  0  0  0  0  0  0  0  0  0  0  0
    8.0565  -15.7348   22.5369 N   0  0  0  0  0  0  0  0  0  0  0  0
    9.0037  -15.9704   23.6202 C   0  0  1  0  0  0  0  0  0  0  0  0
    8.1872  -16.3028   24.8211 C   0  0  0  0  0  0  0  0  0  0  0  0
    7.2253  -15.3004   25.2798 C   0  0  0  0  0  0  0  0  0  0  0  0
    5.8326  -15.3762   25.2984 C   0  0  0  0  0  0  0  0  0  0  0  0
    5.3830  -14.2256   25.7690 N   0  0  0  0  0  0  0  0  0  0  0  0
    6.3713  -13.3795   26.0697 C   0  0  0  0  0  0  0  0  0  0  0  0
    6.4520  -12.1079   26.5845 C   0  0  0  0  0  0  0  0  0  0  0  0
    7.6530  -11.4817   26.8066 C   0  0  0  0  0  0  0  0  0  0  0  0
    8.8307  -12.1270   26.5124 C   0  0  0  0  0  0  0  0  0  0  0  0
    8.7557  -13.3924   25.9992 C   0  0  0  0  0  0  0  0  0  0  0  0
    7.5453  -14.0492   25.7642 C   0  0  0  0  0  0  0  0  0  0  0  0
   10.0897  -16.8652   23.2702 C   0  0  0  0  0  0  0  0  0  0  0  0
    9.8574  -17.9455   22.6778 O   0  0  0  0  0  0  0  0  0  0  0  0
   11.4632  -16.5943   23.5646 N   0  0  0  0  0  0  0  0  0  0  0  0
   12.4950  -17.5480   23.3004 C   0  0  1  0  0  0  0  0  0  0  0  0
   13.7714  -16.8571   22.8864 C   0  0  0  0  0  0  0  0  0  0  0  0
   13.4811  -15.8806   21.3891 S   0  0  0  0  0  0  0  0  0  0  0  0
   12.8176  -18.3691   24.5160 C   0  0  0  0  0  0  0  0  0  0  0  0
   12.3079  -18.1473   25.6383 O   0  0  0  0  0  0  0  0  0  0  0  0
   13.7191  -19.4170   24.3840 O   0  0  0  0  0  0  0  0  0  0  0  0
  2  1  1  6
  2  5  1  0
  3  2  1  0
  4  3  1  0
  5  6  2  0
  7  5  1  0
  7  8  1  0
  8  9  1  1
 10  9  1  0
 11 10  2  0
 12 13  1  0
 12 11  1  0
 13 18  2  0
 14 15  2  0
 14 13  1  0
 15 16  1  0
 16 17  2  0
 18 17  1  0
 18 10  1  0
 19 21  1  0
 19  8  1  0
 20 19  2  0
 22 23  1  1
 22 21  1  0
 23 24  1  0
 25 22  1  0
 25 27  1  0
 26 25  2  0
M  END
$$$$
