CWC.pdb
     RDKit          3D

 27 28  0  0  1  0  0  0  0  0999 V2000
    6.4664  -14.6549   20.2808 N   0  0  0  0  0  0  0  0  0  0  0  0
    7.0209  -15.8694   20.8513 C   0  0  1  0  0  0  0  0  0  0  0  0
    7.7841  -16.5766   19.7442 C   0  0  0  0  0  0  0  0  0  0  0  0
    8.4844  -18.1349   20.3285 S   0  0  0  0  0  0  0  0  0  0  0  0
    7.9482  -15.5053   21.9623 C   0  0  0  0  0  0  0  0  0  0  0  0
    8.6231  -14.4579   21.9113 O   0  0  0  0  0  0  0  0  0  0  0  0
    8.0772  -16.3335   23.0820 N   0  0  0  0  0  0  0  0  0  0  0  0
    9.0002  -16.1240   24.1912 C   0  0  1  0  0  0  0  0  0  0  0  0
    8.1824  -16.2069   25.4336 C   0  0  0  0  0  0  0  0  0  0  0  0
    7.1903  -15.1552   25.6581 C   0  0  0  0  0  0  0  0  0  0  0  0
    5.8011  -15.2355   25.5618 C   0  0  0  0  0  0  0  0  0  0  0  0
    5.3193  -14.0326   25.8233 N   0  0  0  0  0  0  0  0  0  0  0  0
    6.2827  -13.1470   26.0895 C   0  0  0  0  0  0  0  0  0  0  0  0
    6.3258  -11.8152   26.4252 C   0  0  0  0  0  0  0  0  0  0  0  0
    7.5065  -11.1572   26.6640 C   0  0  0  0  0  0  0  0  0  0  0  0
    8.7012  -11.8309   26.5708 C   0  0  0  0  0  0  0  0  0  0  0  0
    8.6636  -13.1564   26.2363 C   0  0  0  0  0  0  0  0  0  0  0  0
    7.4745  -13.8466   25.9882 C   0  0  0  0  0  0  0  0  0  0  0  0
   10.2039  -16.9291   24.1172 C   0  0  0  0  0  0  0  0  0  0  0  0
   10.1297  -18.1790   24.0530 O   0  0  0  0  0  0  0  0  0  0  0  0
   11.5243  -16.3784   24.1129 N   0  0  0  0  0  0  0  0  0  0  0  0
   12.6873  -17.2045   24.0194 C   0  0  1  0  0  0  0  0  0  0  0  0
   13.8599  -16.4216   23.4809 C   0  0  0  0  0  0  0  0  0  0  0  0
   13.5821  -16.0255   21.7358 S   0  0  0  0  0  0  0  0  0  0  0  0
   13.0986  -17.7392   25.3614 C   0  0  0  0  0  0  0  0  0  0  0  0
   14.1100  -18.4600   25.5226 O   0  0  0  0  0  0  0  0  0  0  0  0
   12.3214  -17.4172   26.4662 O   0  0  0  0  0  0  0  0  0  0  0  0
  2  1  1  6
  2  5  1  0
  3  2  1  0
  4  3  1  0
  5  6  2  0
  7  5  1  0
  7  8  1  0
  8  9  1  1
 10  9  1  0
 11 10  2  0
 12 13  1  0
 12 11  1  0
 13 18  2  0
 14 15  2  0
 14 13  1  0
 15 16  1  0
 16 17  2  0
 18 17  1  0
 18 10  1  0
 19 21  1  0
 19  8  1  0
 20 19  2  0
 22 23  1  1
 22 21  1  0
 23 24  1  0
 25 22  1  0
 25 27  1  0
 26 25  2  0
M  END
$$$$
