CWC.pdb
     RDKit          3D

 27 28  0  0  1  0  0  0  0  0999 V2000
    7.4491  -18.3014   21.9542 N   0  0  0  0  0  0  0  0  0  0  0  0
    7.9940  -17.2032   21.1763 C   0  0  1  0  0  0  0  0  0  0  0  0
    6.8167  -16.4011   20.6478 C   0  0  0  0  0  0  0  0  0  0  0  0
    6.0196  -17.2476   19.2664 S   0  0  0  0  0  0  0  0  0  0  0  0
    8.8385  -16.3510   22.0637 C   0  0  0  0  0  0  0  0  0  0  0  0
    9.4435  -15.3604   21.6077 O   0  0  0  0  0  0  0  0  0  0  0  0
    8.9667  -16.6486   23.4242 N   0  0  0  0  0  0  0  0  0  0  0  0
    9.9061  -16.0206   24.3458 C   0  0  1  0  0  0  0  0  0  0  0  0
    9.2023  -15.9248   25.6553 C   0  0  0  0  0  0  0  0  0  0  0  0
    7.8904  -15.2771   25.6689 C   0  0  0  0  0  0  0  0  0  0  0  0
    6.6447  -15.8301   25.3723 C   0  0  0  0  0  0  0  0  0  0  0  0
    5.7489  -14.8650   25.4893 N   0  0  0  0  0  0  0  0  0  0  0  0
    6.3000  -13.7015   25.8438 C   0  0  0  0  0  0  0  0  0  0  0  0
    5.8355  -12.4347   26.1044 C   0  0  0  0  0  0  0  0  0  0  0  0
    6.6696  -11.4104   26.4773 C   0  0  0  0  0  0  0  0  0  0  0  0
    8.0205  -11.6330   26.6016 C   0  0  0  0  0  0  0  0  0  0  0  0
    8.4877  -12.8918   26.3425 C   0  0  0  0  0  0  0  0  0  0  0  0
    7.6582  -13.9494   25.9611 C   0  0  0  0  0  0  0  0  0  0  0  0
   11.2311  -16.6093   24.3301 C   0  0  0  0  0  0  0  0  0  0  0  0
   12.2286  -15.9214   24.0081 O   0  0  0  0  0  0  0  0  0  0  0  0
   11.4936  -17.9744   24.6683 N   0  0  0  0  0  0  0  0  0  0  0  0
   12.7861  -18.4121   25.0946 C   0  0  1  0  0  0  0  0  0  0  0  0
   12.6922  -19.1803   26.3904 C   0  0  0  0  0  0  0  0  0  0  0  0
   11.0138  -19.8279   26.5980 S   0  0  0  0  0  0  0  0  0  0  0  0
   13.4223  -19.3286   24.0890 C   0  0  0  0  0  0  0  0  0  0  0  0
   14.5867  -19.7716   24.2172 O   0  0  0  0  0  0  0  0  0  0  0  0
   12.6836  -19.6972   22.9723 O   0  0  0  0  0  0  0  0  0  0  0  0
  2  1  1  1
  2  5  1  0
  3  2  1  0
  4  3  1  0
  5  6  2  0
  7  5  1  0
  7  8  1  0
  8  9  1  1
 10  9  1  0
 11 10  2  0
 12 13  1  0
 12 11  1  0
 13 18  2  0
 14 15  2  0
 14 13  1  0
 15 16  1  0
 16 17  2  0
 18 17  1  0
 18 10  1  0
 19 21  1  0
 19  8  1  0
 20 19  2  0
 22 23  1  1
 22 21  1  0
 23 24  1  0
 25 22  1  0
 25 27  1  0
 26 25  2  0
M  END
$$$$
