CWC.pdb
     RDKit          3D

 27 28  0  0  1  0  0  0  0  0999 V2000
   10.7807  -15.6843   18.2023 N   0  0  0  0  0  0  0  0  0  0  0  0
   10.1681  -16.6198   19.1284 C   0  0  1  0  0  0  0  0  0  0  0  0
   11.0353  -17.8673   19.1442 C   0  0  0  0  0  0  0  0  0  0  0  0
   10.3704  -19.1084   20.2745 S   0  0  0  0  0  0  0  0  0  0  0  0
   10.1298  -16.0042   20.4871 C   0  0  0  0  0  0  0  0  0  0  0  0
   11.1055  -15.3612   20.9229 O   0  0  0  0  0  0  0  0  0  0  0  0
    8.9975  -16.1375   21.2972 N   0  0  0  0  0  0  0  0  0  0  0  0
    8.8934  -15.7113   22.6878 C   0  0  1  0  0  0  0  0  0  0  0  0
    7.4548  -15.4022   22.9210 C   0  0  0  0  0  0  0  0  0  0  0  0
    7.0505  -15.0695   24.2872 C   0  0  0  0  0  0  0  0  0  0  0  0
    6.5182  -15.9093   25.2654 C   0  0  0  0  0  0  0  0  0  0  0  0
    6.2789  -15.1668   26.3325 N   0  0  0  0  0  0  0  0  0  0  0  0
    6.6117  -13.8872   26.1453 C   0  0  0  0  0  0  0  0  0  0  0  0
    6.5820  -12.7439   26.9071 C   0  0  0  0  0  0  0  0  0  0  0  0
    7.0223  -11.5342   26.4312 C   0  0  0  0  0  0  0  0  0  0  0  0
    7.5148  -11.4357   25.1515 C   0  0  0  0  0  0  0  0  0  0  0  0
    7.5457  -12.5705   24.3890 C   0  0  0  0  0  0  0  0  0  0  0  0
    7.1026  -13.8121   24.8517 C   0  0  0  0  0  0  0  0  0  0  0  0
    9.5578  -16.5941   23.6268 C   0  0  0  0  0  0  0  0  0  0  0  0
    9.3679  -17.8324   23.5785 O   0  0  0  0  0  0  0  0  0  0  0  0
   10.4501  -16.1359   24.6468 N   0  0  0  0  0  0  0  0  0  0  0  0
   11.0929  -17.0388   25.5498 C   0  0  1  0  0  0  0  0  0  0  0  0
   12.5510  -16.6857   25.7148 C   0  0  0  0  0  0  0  0  0  0  0  0
   13.3362  -16.5515   24.0884 S   0  0  0  0  0  0  0  0  0  0  0  0
   10.4747  -16.9908   26.9179 C   0  0  0  0  0  0  0  0  0  0  0  0
    9.5100  -16.2436   27.1998 O   0  0  0  0  0  0  0  0  0  0  0  0
   10.9987  -17.8119   27.9077 O   0  0  0  0  0  0  0  0  0  0  0  0
  2  1  1  6
  2  5  1  0
  3  2  1  0
  4  3  1  0
  5  6  2  0
  7  5  1  0
  7  8  1  0
  8  9  1  1
 10  9  1  0
 11 10  2  0
 12 13  1  0
 12 11  1  0
 13 18  2  0
 14 15  2  0
 14 13  1  0
 15 16  1  0
 16 17  2  0
 18 17  1  0
 18 10  1  0
 19 21  1  0
 19  8  1  0
 20 19  2  0
 22 23  1  1
 22 21  1  0
 23 24  1  0
 25 22  1  0
 25 27  1  0
 26 25  2  0
M  END
$$$$
