CWC.pdb
     RDKit          3D

 27 28  0  0  1  0  0  0  0  0999 V2000
    7.8065  -14.4444   19.9032 N   0  0  0  0  0  0  0  0  0  0  0  0
    7.9814  -15.7167   20.5806 C   0  0  1  0  0  0  0  0  0  0  0  0
    8.7174  -16.6373   19.6218 C   0  0  0  0  0  0  0  0  0  0  0  0
    8.8500  -18.3074   20.2951 S   0  0  0  0  0  0  0  0  0  0  0  0
    8.7946  -15.5033   21.8134 C   0  0  0  0  0  0  0  0  0  0  0  0
    9.6707  -14.6166   21.8530 O   0  0  0  0  0  0  0  0  0  0  0  0
    8.5886  -16.2950   22.9477 N   0  0  0  0  0  0  0  0  0  0  0  0
    9.3601  -16.2256   24.1832 C   0  0  1  0  0  0  0  0  0  0  0  0
    8.3968  -16.4850   25.2896 C   0  0  0  0  0  0  0  0  0  0  0  0
    7.3469  -15.4913   25.5152 C   0  0  0  0  0  0  0  0  0  0  0  0
    5.9661  -15.6408   25.3868 C   0  0  0  0  0  0  0  0  0  0  0  0
    5.4170  -14.4706   25.6638 N   0  0  0  0  0  0  0  0  0  0  0  0
    6.3273  -13.5429   25.9704 C   0  0  0  0  0  0  0  0  0  0  0  0
    6.2941  -12.2187   26.3359 C   0  0  0  0  0  0  0  0  0  0  0  0
    7.4337  -11.5064   26.6148 C   0  0  0  0  0  0  0  0  0  0  0  0
    8.6635  -12.1153   26.5331 C   0  0  0  0  0  0  0  0  0  0  0  0
    8.7019  -13.4329   26.1690 C   0  0  0  0  0  0  0  0  0  0  0  0
    7.5557  -14.1776   25.8799 C   0  0  0  0  0  0  0  0  0  0  0  0
   10.5866  -16.9985   24.1572 C   0  0  0  0  0  0  0  0  0  0  0  0
   10.5943  -18.1629   23.6925 O   0  0  0  0  0  0  0  0  0  0  0  0
   11.8397  -16.5093   24.6441 N   0  0  0  0  0  0  0  0  0  0  0  0
   13.0162  -17.3214   24.6522 C   0  0  1  0  0  0  0  0  0  0  0  0
   14.2065  -16.5471   24.1408 C   0  0  0  0  0  0  0  0  0  0  0  0
   14.1017  -14.8264   24.6956 S   0  0  0  0  0  0  0  0  0  0  0  0
   13.3609  -17.7869   26.0380 C   0  0  0  0  0  0  0  0  0  0  0  0
   12.6942  -17.4622   27.0473 O   0  0  0  0  0  0  0  0  0  0  0  0
   14.4660  -18.6119   26.2010 O   0  0  0  0  0  0  0  0  0  0  0  0
  2  1  1  6
  2  5  1  0
  3  2  1  0
  4  3  1  0
  5  6  2  0
  7  5  1  0
  7  8  1  0
  8  9  1  1
 10  9  1  0
 11 10  2  0
 12 13  1  0
 12 11  1  0
 13 18  2  0
 14 15  2  0
 14 13  1  0
 15 16  1  0
 16 17  2  0
 18 17  1  0
 18 10  1  0
 19 21  1  0
 19  8  1  0
 20 19  2  0
 22 23  1  1
 22 21  1  0
 23 24  1  0
 25 22  1  0
 25 27  1  0
 26 25  2  0
M  END
$$$$
