TMW.pdb
     RDKit          3D

 30 31  0  0  1  0  0  0  0  0999 V2000
   29.0339  -18.7925  -16.8067 C   0  0  0  0  0  0  0  0  0  0  0  0
   28.3596  -19.9376  -16.0755 C   0  0  1  0  0  0  0  0  0  0  0  0
   29.2104  -20.8590  -15.5609 O   0  0  0  0  0  0  0  0  0  0  0  0
   27.3607  -19.3988  -15.0573 C   0  0  2  0  0  0  0  0  0  0  0  0
   28.1962  -18.6975  -14.0753 N   0  0  0  0  0  0  0  0  0  0  0  0
   26.5712  -20.4545  -14.4007 C   0  0  0  0  0  0  0  0  0  0  0  0
   25.8654  -21.2807  -15.0537 O   0  0  0  0  0  0  0  0  0  0  0  0
   26.2898  -19.7716   -7.1289 C   0  0  0  0  0  0  0  0  0  0  0  0
   26.7763  -21.0470   -8.3280 S   0  0  0  0  0  0  0  0  0  0  0  0
   26.0252  -20.5875   -9.9412 C   0  0  0  0  0  0  0  0  0  0  0  0
   26.3327  -21.6929  -10.9077 C   0  0  0  0  0  0  0  0  0  0  0  0
   25.6593  -21.4701  -12.2651 C   0  0  2  0  0  0  0  0  0  0  0  0
   26.5653  -20.5960  -12.9814 N   0  0  0  0  0  0  0  0  0  0  0  0
   24.3125  -20.9399  -12.0829 C   0  0  0  0  0  0  0  0  0  0  0  0
   24.1254  -19.8744  -11.4149 O   0  0  0  0  0  0  0  0  0  0  0  0
   23.1432  -21.5238  -12.6052 N   0  0  0  0  0  0  0  0  0  0  0  0
   21.8153  -20.8879  -12.4541 C   0  0  1  0  0  0  0  0  0  0  0  0
   21.8356  -19.6007  -13.2370 C   0  0  0  0  0  0  0  0  0  0  0  0
   21.8696  -19.7731  -14.6904 C   0  0  0  0  0  0  0  0  0  0  0  0
   21.0669  -20.6127  -15.4701 C   0  0  0  0  0  0  0  0  0  0  0  0
   21.4536  -20.5180  -16.7531 N   0  0  0  0  0  0  0  0  0  0  0  0
   22.4747  -19.6579  -16.8909 C   0  0  0  0  0  0  0  0  0  0  0  0
   23.2101  -19.1928  -17.9832 C   0  0  0  0  0  0  0  0  0  0  0  0
   24.1954  -18.2681  -17.7686 C   0  0  0  0  0  0  0  0  0  0  0  0
   24.4873  -17.7797  -16.5148 C   0  0  0  0  0  0  0  0  0  0  0  0
   23.7628  -18.2428  -15.4586 C   0  0  0  0  0  0  0  0  0  0  0  0
   22.7414  -19.1876  -15.6078 C   0  0  0  0  0  0  0  0  0  0  0  0
   20.8017  -21.8401  -12.8412 C   0  0  0  0  0  0  0  0  0  0  0  0
   21.1450  -23.0691  -13.3794 O   0  0  0  0  0  0  0  0  0  0  0  0
   19.5814  -21.5824  -12.7041 O   0  0  0  0  0  0  0  0  0  0  0  0
  2  1  1  1
  2  3  1  0
  4  2  1  0
  4  5  1  1
  6  4  1  0
  7  6  2  0
  9  8  1  0
  9 10  1  0
 10 11  1  0
 12 11  1  1
 12 13  1  0
 13  6  1  0
 14 12  1  0
 14 15  2  0
 16 14  1  0
 17 16  1  0
 18 19  1  0
 17 18  1  6
 19 20  2  0
 21 20  1  0
 22 21  1  0
 23 22  2  0
 24 23  1  0
 25 24  2  0
 25 26  1  0
 26 27  2  0
 27 22  1  0
 27 19  1  0
 28 17  1  0
 29 28  1  0
 30 28  2  0
M  END
$$$$
