TMW.pdb
     RDKit          3D

 30 31  0  0  1  0  0  0  0  0999 V2000
   26.5139  -18.1489  -13.7365 C   0  0  0  0  0  0  0  0  0  0  0  0
   26.8784  -19.2973  -14.6580 C   0  0  1  0  0  0  0  0  0  0  0  0
   27.3852  -18.9206  -15.8576 O   0  0  0  0  0  0  0  0  0  0  0  0
   27.7498  -20.3090  -13.9219 C   0  0  2  0  0  0  0  0  0  0  0  0
   28.0403  -21.3317  -14.9339 N   0  0  0  0  0  0  0  0  0  0  0  0
   27.0829  -20.9134  -12.7562 C   0  0  0  0  0  0  0  0  0  0  0  0
   26.3530  -21.9456  -12.8505 O   0  0  0  0  0  0  0  0  0  0  0  0
   26.9439  -20.4280   -4.8720 C   0  0  0  0  0  0  0  0  0  0  0  0
   27.7205  -19.9792   -6.4520 S   0  0  0  0  0  0  0  0  0  0  0  0
   26.6570  -20.6566   -7.7892 C   0  0  0  0  0  0  0  0  0  0  0  0
   27.3058  -20.3068   -9.0958 C   0  0  0  0  0  0  0  0  0  0  0  0
   26.4999  -20.8233  -10.2913 C   0  0  2  0  0  0  0  0  0  0  0  0
   27.2305  -20.3562  -11.4515 N   0  0  0  0  0  0  0  0  0  0  0  0
   25.1186  -20.3611  -10.2104 C   0  0  0  0  0  0  0  0  0  0  0  0
   24.8599  -19.1623   -9.8751 O   0  0  0  0  0  0  0  0  0  0  0  0
   23.9896  -21.1555  -10.4849 N   0  0  0  0  0  0  0  0  0  0  0  0
   22.8799  -20.6720  -11.3366 C   0  0  1  0  0  0  0  0  0  0  0  0
   23.4879  -20.0636  -12.5738 C   0  0  0  0  0  0  0  0  0  0  0  0
   22.5156  -19.5407  -13.5353 C   0  0  0  0  0  0  0  0  0  0  0  0
   21.4131  -18.7197  -13.2748 C   0  0  0  0  0  0  0  0  0  0  0  0
   20.7434  -18.5117  -14.4205 N   0  0  0  0  0  0  0  0  0  0  0  0
   21.3305  -19.1443  -15.4485 C   0  0  0  0  0  0  0  0  0  0  0  0
   21.0600  -19.2310  -16.8158 C   0  0  0  0  0  0  0  0  0  0  0  0
   21.9026  -19.9606  -17.6093 C   0  0  0  0  0  0  0  0  0  0  0  0
   23.0075  -20.6117  -17.1082 C   0  0  0  0  0  0  0  0  0  0  0  0
   23.2586  -20.5192  -15.7727 C   0  0  0  0  0  0  0  0  0  0  0  0
   22.4383  -19.7896  -14.9051 C   0  0  0  0  0  0  0  0  0  0  0  0
   21.9625  -21.7636  -11.5618 C   0  0  0  0  0  0  0  0  0  0  0  0
   22.4232  -23.0247  -11.9015 O   0  0  0  0  0  0  0  0  0  0  0  0
   20.7225  -21.6024  -11.4590 O   0  0  0  0  0  0  0  0  0  0  0  0
  2  1  1  1
  2  3  1  0
  4  2  1  0
  4  5  1  6
  6  4  1  0
  7  6  2  0
  9  8  1  0
  9 10  1  0
 10 11  1  0
 12 11  1  1
 12 13  1  0
 13  6  1  0
 14 12  1  0
 14 15  2  0
 16 14  1  0
 17 16  1  0
 18 19  1  0
 17 18  1  6
 19 20  2  0
 21 20  1  0
 22 21  1  0
 23 22  2  0
 24 23  1  0
 25 24  2  0
 25 26  1  0
 26 27  2  0
 27 22  1  0
 27 19  1  0
 28 17  1  0
 29 28  1  0
 30 28  2  0
M  END
$$$$
