TMW.pdb
     RDKit          3D

 30 31  0  0  1  0  0  0  0  0999 V2000
   29.9525  -21.1340  -16.3528 C   0  0  0  0  0  0  0  0  0  0  0  0
   28.9309  -20.3777  -15.5250 C   0  0  1  0  0  0  0  0  0  0  0  0
   28.5657  -19.1767  -16.0370 O   0  0  0  0  0  0  0  0  0  0  0  0
   27.7481  -21.2804  -15.1922 C   0  0  2  0  0  0  0  0  0  0  0  0
   27.1671  -21.6031  -16.5009 N   0  0  0  0  0  0  0  0  0  0  0  0
   26.7454  -20.6327  -14.3297 C   0  0  0  0  0  0  0  0  0  0  0  0
   26.0149  -19.6791  -14.7348 O   0  0  0  0  0  0  0  0  0  0  0  0
   20.0612  -20.2749  -12.2184 C   0  0  0  0  0  0  0  0  0  0  0  0
   21.5116  -21.0509  -12.9900 S   0  0  0  0  0  0  0  0  0  0  0  0
   22.9918  -20.4623  -12.0733 C   0  0  0  0  0  0  0  0  0  0  0  0
   24.2001  -20.9608  -12.8097 C   0  0  0  0  0  0  0  0  0  0  0  0
   25.5027  -20.5406  -12.1226 C   0  0  2  0  0  0  0  0  0  0  0  0
   26.5494  -21.0552  -12.9815 N   0  0  0  0  0  0  0  0  0  0  0  0
   25.5365  -21.0368  -10.7511 C   0  0  0  0  0  0  0  0  0  0  0  0
   25.7243  -22.2725  -10.5185 O   0  0  0  0  0  0  0  0  0  0  0  0
   25.3757  -20.2365   -9.6045 N   0  0  0  0  0  0  0  0  0  0  0  0
   25.5128  -20.7890   -8.2382 C   0  0  1  0  0  0  0  0  0  0  0  0
   25.9481  -19.6647   -7.3345 C   0  0  0  0  0  0  0  0  0  0  0  0
   27.3954  -19.5703   -7.1348 C   0  0  0  0  0  0  0  0  0  0  0  0
   28.3709  -19.2599   -8.0883 C   0  0  0  0  0  0  0  0  0  0  0  0
   29.5825  -19.3323   -7.5127 N   0  0  0  0  0  0  0  0  0  0  0  0
   29.4860  -19.6731   -6.2180 C   0  0  0  0  0  0  0  0  0  0  0  0
   30.4150  -19.8551   -5.1914 C   0  0  0  0  0  0  0  0  0  0  0  0
   29.9617  -20.1835   -3.9430 C   0  0  0  0  0  0  0  0  0  0  0  0
   28.6228  -20.3405   -3.6628 C   0  0  0  0  0  0  0  0  0  0  0  0
   27.7281  -20.1608   -4.6738 C   0  0  0  0  0  0  0  0  0  0  0  0
   28.1237  -19.8237   -5.9730 C   0  0  0  0  0  0  0  0  0  0  0  0
   24.2752  -21.4386   -7.8776 C   0  0  0  0  0  0  0  0  0  0  0  0
   24.2084  -22.2943   -6.7907 O   0  0  0  0  0  0  0  0  0  0  0  0
   23.2253  -21.2497   -8.5380 O   0  0  0  0  0  0  0  0  0  0  0  0
  2  1  1  6
  2  3  1  0
  4  2  1  0
  4  5  1  6
  6  4  1  0
  7  6  2  0
  9  8  1  0
  9 10  1  0
 10 11  1  0
 12 11  1  6
 12 13  1  0
 13  6  1  0
 14 12  1  0
 14 15  2  0
 16 14  1  0
 17 16  1  0
 18 19  1  0
 17 18  1  1
 19 20  2  0
 21 20  1  0
 22 21  1  0
 23 22  2  0
 24 23  1  0
 25 24  2  0
 25 26  1  0
 26 27  2  0
 27 22  1  0
 27 19  1  0
 28 17  1  0
 29 28  1  0
 30 28  2  0
M  END
$$$$
