TMW.pdb
     RDKit          3D

 30 31  0  0  1  0  0  0  0  0999 V2000
   26.8431  -14.7516  -15.6029 C   0  0  0  0  0  0  0  0  0  0  0  0
   26.7013  -16.2325  -15.3076 C   0  0  1  0  0  0  0  0  0  0  0  0
   25.5343  -16.7829  -15.7236 O   0  0  0  0  0  0  0  0  0  0  0  0
   27.9345  -16.9879  -15.7907 C   0  0  2  0  0  0  0  0  0  0  0  0
   27.9038  -16.8243  -17.2489 N   0  0  0  0  0  0  0  0  0  0  0  0
   27.9202  -18.4163  -15.4326 C   0  0  0  0  0  0  0  0  0  0  0  0
   27.4621  -19.3071  -16.2097 O   0  0  0  0  0  0  0  0  0  0  0  0
   30.9072  -20.2605  -10.0521 C   0  0  0  0  0  0  0  0  0  0  0  0
   30.6453  -21.8887  -10.8144 S   0  0  0  0  0  0  0  0  0  0  0  0
   29.1985  -21.7339  -11.9371 C   0  0  0  0  0  0  0  0  0  0  0  0
   29.2862  -20.3886  -12.5951 C   0  0  0  0  0  0  0  0  0  0  0  0
   28.1871  -20.1915  -13.6434 C   0  0  2  0  0  0  0  0  0  0  0  0
   28.4280  -18.8672  -14.1782 N   0  0  0  0  0  0  0  0  0  0  0  0
   26.8716  -20.3791  -13.0413 C   0  0  0  0  0  0  0  0  0  0  0  0
   26.4262  -19.5416  -12.1947 O   0  0  0  0  0  0  0  0  0  0  0  0
   26.0050  -21.4512  -13.3254 N   0  0  0  0  0  0  0  0  0  0  0  0
   24.6916  -21.5946  -12.6583 C   0  0  1  0  0  0  0  0  0  0  0  0
   24.3072  -20.2428  -12.1151 C   0  0  0  0  0  0  0  0  0  0  0  0
   23.4718  -20.2851  -10.9136 C   0  0  0  0  0  0  0  0  0  0  0  0
   23.8519  -20.6645   -9.6217 C   0  0  0  0  0  0  0  0  0  0  0  0
   22.7759  -20.6179   -8.8188 N   0  0  0  0  0  0  0  0  0  0  0  0
   21.6834  -20.2251   -9.4924 C   0  0  0  0  0  0  0  0  0  0  0  0
   20.3535  -19.9952   -9.1336 C   0  0  0  0  0  0  0  0  0  0  0  0
   19.4783  -19.5605  -10.0911 C   0  0  0  0  0  0  0  0  0  0  0  0
   19.8619  -19.3411  -11.3952 C   0  0  0  0  0  0  0  0  0  0  0  0
   21.1617  -19.5703  -11.7311 C   0  0  0  0  0  0  0  0  0  0  0  0
   22.1084  -20.0149  -10.8016 C   0  0  0  0  0  0  0  0  0  0  0  0
   23.7613  -22.1810  -13.5935 C   0  0  0  0  0  0  0  0  0  0  0  0
   24.0929  -22.3340  -14.9294 O   0  0  0  0  0  0  0  0  0  0  0  0
   22.6257  -22.5670  -13.2253 O   0  0  0  0  0  0  0  0  0  0  0  0
  2  1  1  6
  2  3  1  0
  4  2  1  0
  4  5  1  6
  6  4  1  0
  7  6  2  0
  9  8  1  0
  9 10  1  0
 10 11  1  0
 12 11  1  1
 12 13  1  0
 13  6  1  0
 14 12  1  0
 14 15  2  0
 16 14  1  0
 17 16  1  0
 18 19  1  0
 17 18  1  6
 19 20  2  0
 21 20  1  0
 22 21  1  0
 23 22  2  0
 24 23  1  0
 25 24  2  0
 25 26  1  0
 26 27  2  0
 27 22  1  0
 27 19  1  0
 28 17  1  0
 29 28  1  0
 30 28  2  0
M  END
$$$$
