TMW.pdb
     RDKit          3D

 30 31  0  0  1  0  0  0  0  0999 V2000
   27.6539  -17.2539  -13.1461 C   0  0  0  0  0  0  0  0  0  0  0  0
   27.1729  -18.4340  -13.9688 C   0  0  1  0  0  0  0  0  0  0  0  0
   26.3594  -18.1080  -15.0031 O   0  0  0  0  0  0  0  0  0  0  0  0
   28.3528  -19.3090  -14.3774 C   0  0  2  0  0  0  0  0  0  0  0  0
   28.1509  -19.5309  -15.8141 N   0  0  0  0  0  0  0  0  0  0  0  0
   28.4009  -20.5942  -13.6599 C   0  0  0  0  0  0  0  0  0  0  0  0
   28.6818  -21.6860  -14.2398 O   0  0  0  0  0  0  0  0  0  0  0  0
   33.1396  -22.2618   -8.9778 C   0  0  0  0  0  0  0  0  0  0  0  0
   32.2373  -22.6376  -10.5094 S   0  0  0  0  0  0  0  0  0  0  0  0
   30.4923  -22.1228  -10.2493 C   0  0  0  0  0  0  0  0  0  0  0  0
   29.8068  -22.1800  -11.5825 C   0  0  0  0  0  0  0  0  0  0  0  0
   28.3114  -21.8686  -11.4709 C   0  0  2  0  0  0  0  0  0  0  0  0
   28.1297  -20.6687  -12.2616 N   0  0  0  0  0  0  0  0  0  0  0  0
   27.9217  -21.7443  -10.0705 C   0  0  0  0  0  0  0  0  0  0  0  0
   28.7741  -21.3957   -9.1940 O   0  0  0  0  0  0  0  0  0  0  0  0
   26.6263  -21.9827   -9.5743 N   0  0  0  0  0  0  0  0  0  0  0  0
   25.9239  -21.0030   -8.7155 C   0  0  1  0  0  0  0  0  0  0  0  0
   26.8339  -19.8146   -8.5430 C   0  0  0  0  0  0  0  0  0  0  0  0
   27.0566  -19.4158   -7.1520 C   0  0  0  0  0  0  0  0  0  0  0  0
   26.4973  -18.3264   -6.4756 C   0  0  0  0  0  0  0  0  0  0  0  0
   27.0016  -18.2795   -5.2314 N   0  0  0  0  0  0  0  0  0  0  0  0
   27.8727  -19.2790   -5.0220 C   0  0  0  0  0  0  0  0  0  0  0  0
   28.6354  -19.6867   -3.9256 C   0  0  0  0  0  0  0  0  0  0  0  0
   29.4216  -20.7998   -4.0470 C   0  0  0  0  0  0  0  0  0  0  0  0
   29.4872  -21.5323   -5.2111 C   0  0  0  0  0  0  0  0  0  0  0  0
   28.7387  -21.1225   -6.2726 C   0  0  0  0  0  0  0  0  0  0  0  0
   27.9134  -19.9940   -6.2161 C   0  0  0  0  0  0  0  0  0  0  0  0
   24.6324  -20.7233   -9.2967 C   0  0  0  0  0  0  0  0  0  0  0  0
   23.4991  -20.6291   -8.5063 O   0  0  0  0  0  0  0  0  0  0  0  0
   24.4977  -20.5598  -10.5334 O   0  0  0  0  0  0  0  0  0  0  0  0
  2  1  1  6
  2  3  1  0
  4  2  1  0
  4  5  1  6
  6  4  1  0
  7  6  2  0
  9  8  1  0
  9 10  1  0
 10 11  1  0
 12 11  1  1
 12 13  1  0
 13  6  1  0
 14 12  1  0
 14 15  2  0
 16 14  1  0
 17 16  1  0
 18 19  1  0
 17 18  1  6
 19 20  2  0
 21 20  1  0
 22 21  1  0
 23 22  2  0
 24 23  1  0
 25 24  2  0
 25 26  1  0
 26 27  2  0
 27 22  1  0
 27 19  1  0
 28 17  1  0
 29 28  1  0
 30 28  2  0
M  END
$$$$
