TMW.pdb
     RDKit          3D

 30 31  0  0  1  0  0  0  0  0999 V2000
   28.4306  -22.0982  -17.0536 C   0  0  0  0  0  0  0  0  0  0  0  0
   27.6869  -21.7301  -15.7839 C   0  0  1  0  0  0  0  0  0  0  0  0
   28.4144  -21.8534  -14.6466 O   0  0  0  0  0  0  0  0  0  0  0  0
   27.0256  -20.3648  -15.9360 C   0  0  2  0  0  0  0  0  0  0  0  0
   28.1292  -19.4748  -16.3155 N   0  0  0  0  0  0  0  0  0  0  0  0
   26.3818  -19.8883  -14.7002 C   0  0  0  0  0  0  0  0  0  0  0  0
   26.7896  -18.8651  -14.0726 O   0  0  0  0  0  0  0  0  0  0  0  0
   20.6807  -22.1074  -13.4992 C   0  0  0  0  0  0  0  0  0  0  0  0
   20.5843  -20.7714  -12.2716 S   0  0  0  0  0  0  0  0  0  0  0  0
   22.3078  -20.2525  -11.9004 C   0  0  0  0  0  0  0  0  0  0  0  0
   23.1390  -20.5685  -13.1086 C   0  0  0  0  0  0  0  0  0  0  0  0
   24.6051  -20.1700  -12.9148 C   0  0  2  0  0  0  0  0  0  0  0  0
   25.2556  -20.5663  -14.1468 N   0  0  0  0  0  0  0  0  0  0  0  0
   25.1449  -20.7905  -11.7099 C   0  0  0  0  0  0  0  0  0  0  0  0
   25.4643  -22.0212  -11.7077 O   0  0  0  0  0  0  0  0  0  0  0  0
   25.3590  -20.1215  -10.4902 N   0  0  0  0  0  0  0  0  0  0  0  0
   25.9655  -20.7979   -9.3217 C   0  0  1  0  0  0  0  0  0  0  0  0
   26.9864  -19.8596   -8.7322 C   0  0  0  0  0  0  0  0  0  0  0  0
   27.6467  -20.3596   -7.5250 C   0  0  0  0  0  0  0  0  0  0  0  0
   27.9128  -21.6905   -7.1858 C   0  0  0  0  0  0  0  0  0  0  0  0
   28.4819  -21.7255   -5.9695 N   0  0  0  0  0  0  0  0  0  0  0  0
   28.6204  -20.4907   -5.4619 C   0  0  0  0  0  0  0  0  0  0  0  0
   29.1585  -19.9841   -4.2770 C   0  0  0  0  0  0  0  0  0  0  0  0
   29.1660  -18.6299   -4.0828 C   0  0  0  0  0  0  0  0  0  0  0  0
   28.6626  -17.7490   -5.0137 C   0  0  0  0  0  0  0  0  0  0  0  0
   28.1401  -18.2571   -6.1642 C   0  0  0  0  0  0  0  0  0  0  0  0
   28.1016  -19.6310   -6.4265 C   0  0  0  0  0  0  0  0  0  0  0  0
   24.9089  -21.2136   -8.4302 C   0  0  0  0  0  0  0  0  0  0  0  0
   25.0929  -22.2630   -7.5455 O   0  0  0  0  0  0  0  0  0  0  0  0
   23.7935  -20.6391   -8.4317 O   0  0  0  0  0  0  0  0  0  0  0  0
  2  1  1  6
  2  3  1  0
  4  2  1  0
  4  5  1  1
  6  4  1  0
  7  6  2  0
  9  8  1  0
  9 10  1  0
 10 11  1  0
 12 11  1  6
 12 13  1  0
 13  6  1  0
 14 12  1  0
 14 15  2  0
 16 14  1  0
 17 16  1  0
 18 19  1  0
 17 18  1  1
 19 20  2  0
 21 20  1  0
 22 21  1  0
 23 22  2  0
 24 23  1  0
 25 24  2  0
 25 26  1  0
 26 27  2  0
 27 22  1  0
 27 19  1  0
 28 17  1  0
 29 28  1  0
 30 28  2  0
M  END
$$$$
