VYV.pdb
     RDKit          3D

 27 27  0  0  1  0  0  0  0  0999 V2000
    8.2711  -12.3946   20.7178 C   0  0  0  0  0  0  0  0  0  0  0  0
    7.6647  -13.4275   19.8261 C   0  0  1  0  0  0  0  0  0  0  0  0
    7.8532  -12.9619   18.3808 C   0  0  0  0  0  0  0  0  0  0  0  0
    8.3603  -14.7660   19.9334 C   0  0  2  0  0  0  0  0  0  0  0  0
    7.9267  -15.6471   18.9019 N   0  0  0  0  0  0  0  0  0  0  0  0
    8.1607  -15.3896   21.2619 C   0  0  0  0  0  0  0  0  0  0  0  0
    7.0664  -15.9009   21.6202 O   0  0  0  0  0  0  0  0  0  0  0  0
    9.3909  -21.6476   20.6094 O   0  0  0  0  0  0  0  0  0  0  0  0
    9.5911  -20.5059   21.3689 C   0  0  0  0  0  0  0  0  0  0  0  0
    8.9605  -20.3353   22.5735 C   0  0  0  0  0  0  0  0  0  0  0  0
    9.1411  -19.2138   23.3461 C   0  0  0  0  0  0  0  0  0  0  0  0
    9.9751  -18.2210   22.9165 C   0  0  0  0  0  0  0  0  0  0  0  0
   10.2017  -17.0033   23.7050 C   0  0  0  0  0  0  0  0  0  0  0  0
    9.1092  -15.9669   23.5222 C   0  0  2  0  0  0  0  0  0  0  0  0
    9.2406  -15.4212   22.1847 N   0  0  0  0  0  0  0  0  0  0  0  0
    9.3529  -14.9005   24.5248 C   0  0  0  0  0  0  0  0  0  0  0  0
   10.4111  -14.2215   24.5521 O   0  0  0  0  0  0  0  0  0  0  0  0
   10.6179  -18.3823   21.7009 C   0  0  0  0  0  0  0  0  0  0  0  0
   10.4323  -19.5019   20.9382 C   0  0  0  0  0  0  0  0  0  0  0  0
    7.0781  -12.0224   25.3711 C   0  0  0  0  0  0  0  0  0  0  0  0
    7.2927  -12.7526   26.6649 C   0  0  1  0  0  0  0  0  0  0  0  0
    6.0570  -13.5321   26.9838 C   0  0  0  0  0  0  0  0  0  0  0  0
    8.5187  -13.6298   26.5418 C   0  0  2  0  0  0  0  0  0  0  0  0
    8.3586  -14.6245   25.5001 N   0  0  0  0  0  0  0  0  0  0  0  0
    8.8604  -14.2722   27.8277 C   0  0  0  0  0  0  0  0  0  0  0  0
    9.3206  -13.5579   28.9217 O   0  0  0  0  0  0  0  0  0  0  0  0
    8.7309  -15.5093   27.9379 O   0  0  0  0  0  0  0  0  0  0  0  0
  2  1  1  1
  2  3  1  0
  4  2  1  0
  4  5  1  6
  6  4  1  0
  6 15  1  0
  7  6  2  0
  9 19  2  0
  9  8  1  0
 10  9  1  0
 11 12  1  0
 11 10  2  0
 12 18  2  0
 13 12  1  0
 14 13  1  1
 14 15  1  0
 16 17  2  0
 16 14  1  0
 18 19  1  0
 21 20  1  6
 21 23  1  0
 22 21  1  0
 23 25  1  0
 23 24  1  6
 24 16  1  0
 25 26  1  0
 27 25  2  0
M  END
$$$$
