VYV.pdb
     RDKit          3D

 27 27  0  0  1  0  0  0  0  0999 V2000
   11.4823  -20.1907   20.7473 C   0  0  0  0  0  0  0  0  0  0  0  0
   11.2898  -19.0164   21.6493 C   0  0  1  0  0  0  0  0  0  0  0  0
   12.6502  -18.6701   22.2580 C   0  0  0  0  0  0  0  0  0  0  0  0
   10.8335  -17.7821   20.9040 C   0  0  2  0  0  0  0  0  0  0  0  0
   11.8073  -17.3793   19.9459 N   0  0  0  0  0  0  0  0  0  0  0  0
   10.5207  -16.6635   21.8228 C   0  0  0  0  0  0  0  0  0  0  0  0
   11.3210  -15.7161   22.0446 O   0  0  0  0  0  0  0  0  0  0  0  0
    5.6471  -11.5078   27.0880 O   0  0  0  0  0  0  0  0  0  0  0  0
    6.0857  -12.4812   26.2045 C   0  0  0  0  0  0  0  0  0  0  0  0
    6.8438  -12.1568   25.1102 C   0  0  0  0  0  0  0  0  0  0  0  0
    7.2915  -13.1016   24.2189 C   0  0  0  0  0  0  0  0  0  0  0  0
    6.9808  -14.4176   24.4122 C   0  0  0  0  0  0  0  0  0  0  0  0
    7.4350  -15.4652   23.4890 C   0  0  0  0  0  0  0  0  0  0  0  0
    8.9395  -15.6584   23.5055 C   0  0  2  0  0  0  0  0  0  0  0  0
    9.2673  -16.6425   22.4916 N   0  0  0  0  0  0  0  0  0  0  0  0
    9.2930  -16.1842   24.8472 C   0  0  0  0  0  0  0  0  0  0  0  0
    9.2383  -17.4074   25.1346 O   0  0  0  0  0  0  0  0  0  0  0  0
    6.2153  -14.7575   25.5146 C   0  0  0  0  0  0  0  0  0  0  0  0
    5.7738  -13.8106   26.3967 C   0  0  0  0  0  0  0  0  0  0  0  0
   10.7305  -15.0354   29.4616 C   0  0  0  0  0  0  0  0  0  0  0  0
   10.1672  -14.5594   28.1543 C   0  0  1  0  0  0  0  0  0  0  0  0
   10.9730  -13.3905   27.6845 C   0  0  0  0  0  0  0  0  0  0  0  0
   10.1716  -15.7043   27.1660 C   0  0  2  0  0  0  0  0  0  0  0  0
    9.7121  -15.2801   25.8586 N   0  0  0  0  0  0  0  0  0  0  0  0
    9.3732  -16.8480   27.6533 C   0  0  0  0  0  0  0  0  0  0  0  0
    9.9185  -17.8730   28.4089 O   0  0  0  0  0  0  0  0  0  0  0  0
    8.1568  -16.8973   27.3754 O   0  0  0  0  0  0  0  0  0  0  0  0
  2  1  1  6
  2  3  1  0
  4  2  1  0
  4  5  1  6
  6  4  1  0
  6 15  1  0
  7  6  2  0
  9 19  2  0
  9  8  1  0
 10  9  1  0
 11 12  1  0
 11 10  2  0
 12 18  2  0
 13 12  1  0
 14 13  1  1
 14 15  1  0
 16 17  2  0
 16 14  1  0
 18 19  1  0
 21 20  1  1
 21 23  1  0
 22 21  1  0
 23 25  1  0
 23 24  1  6
 24 16  1  0
 25 26  1  0
 27 25  2  0
M  END
$$$$
