VYV.pdb
     RDKit          3D

 27 27  0  0  1  0  0  0  0  0999 V2000
    7.9684  -12.7108   20.7700 C   0  0  0  0  0  0  0  0  0  0  0  0
    7.3964  -13.5783   19.6977 C   0  0  1  0  0  0  0  0  0  0  0  0
    7.9744  -13.1073   18.3615 C   0  0  0  0  0  0  0  0  0  0  0  0
    7.8025  -15.0274   19.8468 C   0  0  2  0  0  0  0  0  0  0  0  0
    7.2641  -15.8163   18.7902 N   0  0  0  0  0  0  0  0  0  0  0  0
    7.4028  -15.5829   21.1603 C   0  0  0  0  0  0  0  0  0  0  0  0
    6.2159  -15.9047   21.4345 O   0  0  0  0  0  0  0  0  0  0  0  0
    7.7889  -19.3502   29.0394 O   0  0  0  0  0  0  0  0  0  0  0  0
    8.0145  -18.8946   27.7503 C   0  0  0  0  0  0  0  0  0  0  0  0
    9.2626  -18.4992   27.3455 C   0  0  0  0  0  0  0  0  0  0  0  0
    9.5137  -18.0436   26.0740 C   0  0  0  0  0  0  0  0  0  0  0  0
    8.4966  -17.9743   25.1649 C   0  0  0  0  0  0  0  0  0  0  0  0
    8.7132  -17.4948   23.7941 C   0  0  0  0  0  0  0  0  0  0  0  0
    8.0560  -16.1544   23.5243 C   0  0  2  0  0  0  0  0  0  0  0  0
    8.3888  -15.7673   22.1665 N   0  0  0  0  0  0  0  0  0  0  0  0
    8.6445  -15.1843   24.4805 C   0  0  0  0  0  0  0  0  0  0  0  0
    9.8603  -14.8632   24.4620 O   0  0  0  0  0  0  0  0  0  0  0  0
    7.2311  -18.3711   25.5624 C   0  0  0  0  0  0  0  0  0  0  0  0
    6.9900  -18.8233   26.8302 C   0  0  0  0  0  0  0  0  0  0  0  0
    7.0790  -11.7781   25.2414 C   0  0  0  0  0  0  0  0  0  0  0  0
    7.2709  -12.4656   26.5619 C   0  0  1  0  0  0  0  0  0  0  0  0
    5.9423  -12.9552   27.0428 C   0  0  0  0  0  0  0  0  0  0  0  0
    8.2782  -13.5819   26.3981 C   0  0  2  0  0  0  0  0  0  0  0  0
    7.8120  -14.5859   25.4627 N   0  0  0  0  0  0  0  0  0  0  0  0
    8.6239  -14.1987   27.6954 C   0  0  0  0  0  0  0  0  0  0  0  0
    9.3608  -13.5384   28.6648 O   0  0  0  0  0  0  0  0  0  0  0  0
    8.2385  -15.3626   27.9324 O   0  0  0  0  0  0  0  0  0  0  0  0
  2  1  1  1
  2  3  1  0
  4  2  1  0
  4  5  1  6
  6  4  1  0
  6 15  1  0
  7  6  2  0
  9 19  2  0
  9  8  1  0
 10  9  1  0
 11 12  1  0
 11 10  2  0
 12 18  2  0
 13 12  1  0
 14 13  1  1
 14 15  1  0
 16 17  2  0
 16 14  1  0
 18 19  1  0
 21 20  1  6
 21 23  1  0
 22 21  1  0
 23 25  1  0
 23 24  1  6
 24 16  1  0
 25 26  1  0
 27 25  2  0
M  END
$$$$
