VYV.pdb
     RDKit          3D

 27 27  0  0  1  0  0  0  0  0999 V2000
    7.9985  -12.7260   20.6246 C   0  0  0  0  0  0  0  0  0  0  0  0
    7.5893  -13.6107   19.4935 C   0  0  1  0  0  0  0  0  0  0  0  0
    8.2288  -13.0593   18.2176 C   0  0  0  0  0  0  0  0  0  0  0  0
    8.1045  -15.0241   19.6481 C   0  0  2  0  0  0  0  0  0  0  0  0
    7.7018  -15.8339   18.5478 N   0  0  0  0  0  0  0  0  0  0  0  0
    7.6701  -15.6362   20.9249 C   0  0  0  0  0  0  0  0  0  0  0  0
    6.5188  -16.1187   21.0954 O   0  0  0  0  0  0  0  0  0  0  0  0
    7.6946  -19.7165   28.6058 O   0  0  0  0  0  0  0  0  0  0  0  0
    8.0141  -19.1506   27.3818 C   0  0  0  0  0  0  0  0  0  0  0  0
    9.2248  -18.5429   27.1753 C   0  0  0  0  0  0  0  0  0  0  0  0
    9.5669  -17.9742   25.9724 C   0  0  0  0  0  0  0  0  0  0  0  0
    8.6827  -18.0046   24.9317 C   0  0  0  0  0  0  0  0  0  0  0  0
    9.0004  -17.4113   23.6267 C   0  0  0  0  0  0  0  0  0  0  0  0
    8.1932  -16.1613   23.3316 C   0  0  2  0  0  0  0  0  0  0  0  0
    8.5792  -15.6895   22.0154 N   0  0  0  0  0  0  0  0  0  0  0  0
    8.5671  -15.1539   24.3548 C   0  0  0  0  0  0  0  0  0  0  0  0
    9.7154  -14.6451   24.4207 O   0  0  0  0  0  0  0  0  0  0  0  0
    7.4561  -18.6159   25.1286 C   0  0  0  0  0  0  0  0  0  0  0  0
    7.1238  -19.1795   26.3293 C   0  0  0  0  0  0  0  0  0  0  0  0
    6.8473  -11.6810   27.3497 C   0  0  0  0  0  0  0  0  0  0  0  0
    6.5768  -12.7789   26.3626 C   0  0  1  0  0  0  0  0  0  0  0  0
    6.1673  -12.1624   25.0631 C   0  0  0  0  0  0  0  0  0  0  0  0
    7.8104  -13.6444   26.2330 C   0  0  2  0  0  0  0  0  0  0  0  0
    7.5982  -14.7375   25.3055 N   0  0  0  0  0  0  0  0  0  0  0  0
    8.2588  -14.1541   27.5454 C   0  0  0  0  0  0  0  0  0  0  0  0
    9.0267  -13.4003   28.4179 O   0  0  0  0  0  0  0  0  0  0  0  0
    7.9351  -15.3108   27.8866 O   0  0  0  0  0  0  0  0  0  0  0  0
  2  1  1  1
  2  3  1  0
  4  2  1  0
  4  5  1  6
  6  4  1  0
  6 15  1  0
  7  6  2  0
  9 19  2  0
  9  8  1  0
 10  9  1  0
 11 12  1  0
 11 10  2  0
 12 18  2  0
 13 12  1  0
 14 13  1  1
 14 15  1  0
 16 17  2  0
 16 14  1  0
 18 19  1  0
 21 20  1  1
 21 23  1  0
 22 21  1  0
 23 25  1  0
 23 24  1  6
 24 16  1  0
 25 26  1  0
 27 25  2  0
M  END
$$$$
