VYV.pdb
     RDKit          3D

 27 27  0  0  1  0  0  0  0  0999 V2000
   13.4065  -16.7529   20.0292 C   0  0  0  0  0  0  0  0  0  0  0  0
   12.0112  -17.2725   19.9151 C   0  0  1  0  0  0  0  0  0  0  0  0
   12.0164  -18.3926   18.8729 C   0  0  0  0  0  0  0  0  0  0  0  0
   11.5177  -17.8945   21.2021 C   0  0  2  0  0  0  0  0  0  0  0  0
   10.3027  -18.6063   20.9881 N   0  0  0  0  0  0  0  0  0  0  0  0
   11.3432  -16.8871   22.2736 C   0  0  0  0  0  0  0  0  0  0  0  0
   12.2760  -16.1358   22.6648 O   0  0  0  0  0  0  0  0  0  0  0  0
    6.9305  -13.1689   18.7755 O   0  0  0  0  0  0  0  0  0  0  0  0
    7.2725  -13.7097   20.0047 C   0  0  0  0  0  0  0  0  0  0  0  0
    6.8969  -14.9815   20.3498 C   0  0  0  0  0  0  0  0  0  0  0  0
    7.2226  -15.5417   21.5612 C   0  0  0  0  0  0  0  0  0  0  0  0
    7.9465  -14.8219   22.4688 C   0  0  0  0  0  0  0  0  0  0  0  0
    8.3198  -15.3751   23.7767 C   0  0  0  0  0  0  0  0  0  0  0  0
    9.7947  -15.7156   23.8772 C   0  0  2  0  0  0  0  0  0  0  0  0
   10.0747  -16.7489   22.8985 N   0  0  0  0  0  0  0  0  0  0  0  0
   10.0239  -16.2448   25.2443 C   0  0  0  0  0  0  0  0  0  0  0  0
   10.1527  -17.4723   25.4859 O   0  0  0  0  0  0  0  0  0  0  0  0
    8.3317  -13.5357   22.1312 C   0  0  0  0  0  0  0  0  0  0  0  0
    8.0032  -12.9858   20.9231 C   0  0  0  0  0  0  0  0  0  0  0  0
   11.2095  -13.4159   27.9857 C   0  0  0  0  0  0  0  0  0  0  0  0
   10.4801  -14.5609   28.6260 C   0  0  1  0  0  0  0  0  0  0  0  0
    9.1015  -14.1070   28.9864 C   0  0  0  0  0  0  0  0  0  0  0  0
   10.4756  -15.7388   27.6772 C   0  0  2  0  0  0  0  0  0  0  0  0
   10.1033  -15.3391   26.3349 N   0  0  0  0  0  0  0  0  0  0  0  0
    9.5974  -16.8244   28.1602 C   0  0  0  0  0  0  0  0  0  0  0  0
    9.9191  -17.6183   29.2488 O   0  0  0  0  0  0  0  0  0  0  0  0
    8.5201  -17.0389   27.5663 O   0  0  0  0  0  0  0  0  0  0  0  0
  2  1  1  1
  2  3  1  0
  4  2  1  0
  4  5  1  6
  6  4  1  0
  6 15  1  0
  7  6  2  0
  9 19  2  0
  9  8  1  0
 10  9  1  0
 11 12  1  0
 11 10  2  0
 12 18  2  0
 13 12  1  0
 14 13  1  1
 14 15  1  0
 16 17  2  0
 16 14  1  0
 18 19  1  0
 21 20  1  6
 21 23  1  0
 22 21  1  0
 23 25  1  0
 23 24  1  6
 24 16  1  0
 25 26  1  0
 27 25  2  0
M  END
$$$$
