VYV.pdb
     RDKit          3D

 27 27  0  0  1  0  0  0  0  0999 V2000
    6.6673  -15.9072   19.7880 C   0  0  0  0  0  0  0  0  0  0  0  0
    7.2910  -14.7740   19.0419 C   0  0  1  0  0  0  0  0  0  0  0  0
    6.4489  -14.5230   17.7893 C   0  0  0  0  0  0  0  0  0  0  0  0
    7.2734  -13.4829   19.8290 C   0  0  2  0  0  0  0  0  0  0  0  0
    7.7707  -12.4035   19.0440 N   0  0  0  0  0  0  0  0  0  0  0  0
    8.0355  -13.5943   21.0941 C   0  0  0  0  0  0  0  0  0  0  0  0
    9.2940  -13.6387   21.1330 O   0  0  0  0  0  0  0  0  0  0  0  0
    9.1099  -14.2766   29.8733 O   0  0  0  0  0  0  0  0  0  0  0  0
    8.5988  -14.0754   28.6010 C   0  0  0  0  0  0  0  0  0  0  0  0
    7.8370  -15.0321   27.9828 C   0  0  0  0  0  0  0  0  0  0  0  0
    7.3184  -14.8584   26.7225 C   0  0  0  0  0  0  0  0  0  0  0  0
    7.5589  -13.6977   26.0439 C   0  0  0  0  0  0  0  0  0  0  0  0
    7.0273  -13.4636   24.6952 C   0  0  0  0  0  0  0  0  0  0  0  0
    8.0003  -13.8538   23.5987 C   0  0  2  0  0  0  0  0  0  0  0  0
    7.3318  -13.6547   22.3269 N   0  0  0  0  0  0  0  0  0  0  0  0
    8.3057  -15.2939   23.7844 C   0  0  0  0  0  0  0  0  0  0  0  0
    7.4276  -16.1910   23.7075 O   0  0  0  0  0  0  0  0  0  0  0  0
    8.3273  -12.7237   26.6585 C   0  0  0  0  0  0  0  0  0  0  0  0
    8.8397  -12.9049   27.9132 C   0  0  0  0  0  0  0  0  0  0  0  0
   12.2316  -16.5490   23.2797 C   0  0  0  0  0  0  0  0  0  0  0  0
   11.0699  -17.4984   23.2334 C   0  0  1  0  0  0  0  0  0  0  0  0
   11.5763  -18.8847   23.4739 C   0  0  0  0  0  0  0  0  0  0  0  0
   10.0386  -17.0704   24.2537 C   0  0  2  0  0  0  0  0  0  0  0  0
    9.6408  -15.6902   24.0610 N   0  0  0  0  0  0  0  0  0  0  0  0
   10.5159  -17.2872   25.6351 C   0  0  0  0  0  0  0  0  0  0  0  0
   10.6825  -18.5501   26.1793 O   0  0  0  0  0  0  0  0  0  0  0  0
   10.7813  -16.2948   26.3450 O   0  0  0  0  0  0  0  0  0  0  0  0
  2  1  1  1
  2  3  1  0
  4  2  1  0
  4  5  1  6
  6  4  1  0
  6 15  1  0
  7  6  2  0
  9 19  2  0
  9  8  1  0
 10  9  1  0
 11 12  1  0
 11 10  2  0
 12 18  2  0
 13 12  1  0
 14 13  1  1
 14 15  1  0
 16 17  2  0
 16 14  1  0
 18 19  1  0
 21 20  1  1
 21 23  1  0
 22 21  1  0
 23 25  1  0
 23 24  1  1
 24 16  1  0
 25 26  1  0
 27 25  2  0
M  END
$$$$
