VYV.pdb
     RDKit          3D

 27 27  0  0  1  0  0  0  0  0999 V2000
    7.6716  -18.8721   20.4473 C   0  0  0  0  0  0  0  0  0  0  0  0
    8.7855  -18.4591   19.5427 C   0  0  1  0  0  0  0  0  0  0  0  0
    8.4838  -19.0164   18.1500 C   0  0  0  0  0  0  0  0  0  0  0  0
    8.8783  -16.9578   19.3864 C   0  0  2  0  0  0  0  0  0  0  0  0
    9.8432  -16.6094   18.3984 N   0  0  0  0  0  0  0  0  0  0  0  0
    9.1876  -16.2849   20.6690 C   0  0  0  0  0  0  0  0  0  0  0  0
   10.3510  -16.2301   21.1497 O   0  0  0  0  0  0  0  0  0  0  0  0
    7.1886  -12.0071   28.1968 O   0  0  0  0  0  0  0  0  0  0  0  0
    7.1634  -12.5593   26.9260 C   0  0  0  0  0  0  0  0  0  0  0  0
    7.8845  -12.0092   25.8988 C   0  0  0  0  0  0  0  0  0  0  0  0
    7.8774  -12.5362   24.6301 C   0  0  0  0  0  0  0  0  0  0  0  0
    7.1313  -13.6485   24.3617 C   0  0  0  0  0  0  0  0  0  0  0  0
    7.0901  -14.2500   23.0228 C   0  0  0  0  0  0  0  0  0  0  0  0
    8.3577  -15.0068   22.6738 C   0  0  2  0  0  0  0  0  0  0  0  0
    8.1379  -15.6691   21.4022 N   0  0  0  0  0  0  0  0  0  0  0  0
    8.5627  -16.0203   23.7380 C   0  0  0  0  0  0  0  0  0  0  0  0
    7.7244  -16.9241   23.9873 O   0  0  0  0  0  0  0  0  0  0  0  0
    6.3985  -14.2131   25.3918 C   0  0  0  0  0  0  0  0  0  0  0  0
    6.4114  -13.6820   26.6517 C   0  0  0  0  0  0  0  0  0  0  0  0
   11.9153  -18.4991   26.2609 C   0  0  0  0  0  0  0  0  0  0  0  0
   11.5552  -17.4762   25.2231 C   0  0  1  0  0  0  0  0  0  0  0  0
   11.7641  -18.0757   23.8692 C   0  0  0  0  0  0  0  0  0  0  0  0
   10.1291  -17.0244   25.4459 C   0  0  2  0  0  0  0  0  0  0  0  0
    9.7503  -15.9803   24.5150 N   0  0  0  0  0  0  0  0  0  0  0  0
    9.9078  -16.5858   26.8394 C   0  0  0  0  0  0  0  0  0  0  0  0
    9.5037  -17.4529   27.8412 O   0  0  0  0  0  0  0  0  0  0  0  0
   10.0911  -15.3855   27.1309 O   0  0  0  0  0  0  0  0  0  0  0  0
  2  1  1  1
  2  3  1  0
  4  2  1  0
  4  5  1  6
  6  4  1  0
  6 15  1  0
  7  6  2  0
  9 19  2  0
  9  8  1  0
 10  9  1  0
 11 12  1  0
 11 10  2  0
 12 18  2  0
 13 12  1  0
 14 13  1  1
 14 15  1  0
 16 17  2  0
 16 14  1  0
 18 19  1  0
 21 20  1  1
 21 23  1  0
 22 21  1  0
 23 25  1  0
 23 24  1  6
 24 16  1  0
 25 26  1  0
 27 25  2  0
M  END
$$$$
