VYV.pdb
     RDKit          3D

 27 27  0  0  1  0  0  0  0  0999 V2000
    8.7314  -12.7941   19.1871 C   0  0  0  0  0  0  0  0  0  0  0  0
    8.2862  -14.2192   19.2037 C   0  0  1  0  0  0  0  0  0  0  0  0
    8.3755  -14.7505   17.7716 C   0  0  0  0  0  0  0  0  0  0  0  0
    9.1902  -15.0988   20.0381 C   0  0  2  0  0  0  0  0  0  0  0  0
    8.7470  -16.4520   20.0110 N   0  0  0  0  0  0  0  0  0  0  0  0
    9.2953  -14.6186   21.4352 C   0  0  0  0  0  0  0  0  0  0  0  0
    9.9646  -13.6020   21.7607 O   0  0  0  0  0  0  0  0  0  0  0  0
    5.6782  -10.9260   28.0048 O   0  0  0  0  0  0  0  0  0  0  0  0
    6.0147  -11.8951   27.0731 C   0  0  0  0  0  0  0  0  0  0  0  0
    5.7666  -13.2221   27.3082 C   0  0  0  0  0  0  0  0  0  0  0  0
    6.0900  -14.2028   26.4020 C   0  0  0  0  0  0  0  0  0  0  0  0
    6.6809  -13.8643   25.2179 C   0  0  0  0  0  0  0  0  0  0  0  0
    7.0458  -14.8746   24.2168 C   0  0  0  0  0  0  0  0  0  0  0  0
    8.5085  -14.8140   23.8195 C   0  0  2  0  0  0  0  0  0  0  0  0
    8.6176  -15.3238   22.4659 N   0  0  0  0  0  0  0  0  0  0  0  0
    9.2465  -15.7027   24.7508 C   0  0  0  0  0  0  0  0  0  0  0  0
    9.4290  -16.9259   24.5226 O   0  0  0  0  0  0  0  0  0  0  0  0
    6.9365  -12.5265   24.9693 C   0  0  0  0  0  0  0  0  0  0  0  0
    6.6113  -11.5568   25.8768 C   0  0  0  0  0  0  0  0  0  0  0  0
   11.7775  -13.8693   27.3859 C   0  0  0  0  0  0  0  0  0  0  0  0
   11.1133  -15.0664   28.0013 C   0  0  1  0  0  0  0  0  0  0  0  0
   10.0660  -14.5923   28.9576 C   0  0  0  0  0  0  0  0  0  0  0  0
   10.5468  -15.9385   26.9031 C   0  0  2  0  0  0  0  0  0  0  0  0
    9.7740  -15.1631   25.9535 N   0  0  0  0  0  0  0  0  0  0  0  0
    9.7387  -17.0479   27.4503 C   0  0  0  0  0  0  0  0  0  0  0  0
   10.2955  -18.1009   28.1575 O   0  0  0  0  0  0  0  0  0  0  0  0
    8.5030  -17.0406   27.2707 O   0  0  0  0  0  0  0  0  0  0  0  0
  2  1  1  6
  2  3  1  0
  4  2  1  0
  4  5  1  1
  6  4  1  0
  6 15  1  0
  7  6  2  0
  9 19  2  0
  9  8  1  0
 10  9  1  0
 11 12  1  0
 11 10  2  0
 12 18  2  0
 13 12  1  0
 14 13  1  1
 14 15  1  0
 16 17  2  0
 16 14  1  0
 18 19  1  0
 21 20  1  6
 21 23  1  0
 22 21  1  0
 23 25  1  0
 23 24  1  6
 24 16  1  0
 25 26  1  0
 27 25  2  0
M  END
$$$$
