VYV.pdb
     RDKit          3D

 27 27  0  0  1  0  0  0  0  0999 V2000
    8.4683  -12.6901   20.4718 C   0  0  0  0  0  0  0  0  0  0  0  0
    7.7192  -13.5796   19.5351 C   0  0  1  0  0  0  0  0  0  0  0  0
    8.2448  -13.3148   18.1228 C   0  0  0  0  0  0  0  0  0  0  0  0
    7.9638  -15.0466   19.8093 C   0  0  2  0  0  0  0  0  0  0  0  0
    7.3214  -15.8592   18.8318 N   0  0  0  0  0  0  0  0  0  0  0  0
    7.5289  -15.4364   21.1703 C   0  0  0  0  0  0  0  0  0  0  0  0
    6.3252  -15.6637   21.4651 O   0  0  0  0  0  0  0  0  0  0  0  0
    8.0139  -19.2900   29.0061 O   0  0  0  0  0  0  0  0  0  0  0  0
    8.2337  -18.7985   27.7291 C   0  0  0  0  0  0  0  0  0  0  0  0
    9.4540  -18.2938   27.3633 C   0  0  0  0  0  0  0  0  0  0  0  0
    9.6988  -17.8006   26.1046 C   0  0  0  0  0  0  0  0  0  0  0  0
    8.7035  -17.8041   25.1691 C   0  0  0  0  0  0  0  0  0  0  0  0
    8.9145  -17.2884   23.8106 C   0  0  0  0  0  0  0  0  0  0  0  0
    8.1608  -15.9996   23.5421 C   0  0  2  0  0  0  0  0  0  0  0  0
    8.4990  -15.5641   22.2005 N   0  0  0  0  0  0  0  0  0  0  0  0
    8.6438  -15.0028   24.5294 C   0  0  0  0  0  0  0  0  0  0  0  0
    9.8306  -14.5873   24.5515 O   0  0  0  0  0  0  0  0  0  0  0  0
    7.4662  -18.3116   25.5273 C   0  0  0  0  0  0  0  0  0  0  0  0
    7.2312  -18.8006   26.7824 C   0  0  0  0  0  0  0  0  0  0  0  0
    6.9632  -11.6915   25.4054 C   0  0  0  0  0  0  0  0  0  0  0  0
    7.0902  -12.4530   26.6927 C   0  0  1  0  0  0  0  0  0  0  0  0
    5.7448  -12.9893   27.0648 C   0  0  0  0  0  0  0  0  0  0  0  0
    8.1250  -13.5430   26.5241 C   0  0  2  0  0  0  0  0  0  0  0  0
    7.7394  -14.4880   25.4953 N   0  0  0  0  0  0  0  0  0  0  0  0
    8.3942  -14.2408   27.7984 C   0  0  0  0  0  0  0  0  0  0  0  0
    9.0574  -13.6389   28.8552 O   0  0  0  0  0  0  0  0  0  0  0  0
    8.0101  -15.4213   27.9332 O   0  0  0  0  0  0  0  0  0  0  0  0
  2  1  1  1
  2  3  1  0
  4  2  1  0
  4  5  1  6
  6  4  1  0
  6 15  1  0
  7  6  2  0
  9 19  2  0
  9  8  1  0
 10  9  1  0
 11 12  1  0
 11 10  2  0
 12 18  2  0
 13 12  1  0
 14 13  1  1
 14 15  1  0
 16 17  2  0
 16 14  1  0
 18 19  1  0
 21 20  1  6
 21 23  1  0
 22 21  1  0
 23 25  1  0
 23 24  1  6
 24 16  1  0
 25 26  1  0
 27 25  2  0
M  END
$$$$
