VYV.pdb
     RDKit          3D

 27 27  0  0  1  0  0  0  0  0999 V2000
    9.7092  -20.5867   21.0516 C   0  0  0  0  0  0  0  0  0  0  0  0
   10.1666  -19.6870   19.9511 C   0  0  1  0  0  0  0  0  0  0  0  0
    9.9110  -20.4073   18.6256 C   0  0  0  0  0  0  0  0  0  0  0  0
    9.3778  -18.3981   19.8911 C   0  0  2  0  0  0  0  0  0  0  0  0
    9.6423  -17.6976   18.6795 N   0  0  0  0  0  0  0  0  0  0  0  0
    9.6474  -17.5282   21.0590 C   0  0  0  0  0  0  0  0  0  0  0  0
   10.6717  -16.7998   21.1477 O   0  0  0  0  0  0  0  0  0  0  0  0
    7.3983  -12.0081   19.2551 O   0  0  0  0  0  0  0  0  0  0  0  0
    7.4810  -12.9306   20.2860 C   0  0  0  0  0  0  0  0  0  0  0  0
    8.3572  -12.7569   21.3251 C   0  0  0  0  0  0  0  0  0  0  0  0
    8.4594  -13.6555   22.3593 C   0  0  0  0  0  0  0  0  0  0  0  0
    7.6681  -14.7688   22.3714 C   0  0  0  0  0  0  0  0  0  0  0  0
    7.7392  -15.7589   23.4535 C   0  0  0  0  0  0  0  0  0  0  0  0
    8.9256  -16.6951   23.3233 C   0  0  2  0  0  0  0  0  0  0  0  0
    8.7203  -17.5019   22.1354 N   0  0  0  0  0  0  0  0  0  0  0  0
    8.9242  -17.5643   24.5258 C   0  0  0  0  0  0  0  0  0  0  0  0
    7.9261  -18.2477   24.8701 O   0  0  0  0  0  0  0  0  0  0  0  0
    6.7789  -14.9550   21.3267 C   0  0  0  0  0  0  0  0  0  0  0  0
    6.6837  -14.0555   20.3013 C   0  0  0  0  0  0  0  0  0  0  0  0
   12.0301  -19.7494   25.3318 C   0  0  0  0  0  0  0  0  0  0  0  0
   11.6379  -19.0493   26.6003 C   0  0  1  0  0  0  0  0  0  0  0  0
   12.6264  -17.9601   26.8698 C   0  0  0  0  0  0  0  0  0  0  0  0
   10.2235  -18.5311   26.4639 C   0  0  2  0  0  0  0  0  0  0  0  0
   10.0915  -17.6373   25.3308 N   0  0  0  0  0  0  0  0  0  0  0  0
    9.7624  -17.8727   27.7036 C   0  0  0  0  0  0  0  0  0  0  0  0
    9.6001  -18.5560   28.8976 O   0  0  0  0  0  0  0  0  0  0  0  0
    9.5072  -16.6506   27.6793 O   0  0  0  0  0  0  0  0  0  0  0  0
  2  1  1  1
  2  3  1  0
  4  2  1  0
  4  5  1  6
  6  4  1  0
  6 15  1  0
  7  6  2  0
  9 19  2  0
  9  8  1  0
 10  9  1  0
 11 12  1  0
 11 10  2  0
 12 18  2  0
 13 12  1  0
 14 13  1  1
 14 15  1  0
 16 17  2  0
 16 14  1  0
 18 19  1  0
 21 20  1  6
 21 23  1  0
 22 21  1  0
 23 25  1  0
 23 24  1  6
 24 16  1  0
 25 26  1  0
 27 25  2  0
M  END
$$$$
