LTC.pdb
     RDKit          3D

 22 21  0  0  1  0  0  0  0  0999 V2000
    6.4867  -11.9081   24.1808 C   0  0  0  0  0  0  0  0  0  0  0  0
    6.0469  -12.5534   25.4442 C   0  0  2  0  0  0  0  0  0  0  0  0
    6.1025  -11.5571   26.5796 C   0  0  0  0  0  0  0  0  0  0  0  0
    6.7570  -13.8176   25.7928 C   0  0  0  0  0  0  0  0  0  0  0  0
    6.6614  -14.9044   24.7876 C   0  0  2  0  0  0  0  0  0  0  0  0
    5.3713  -15.5275   24.7553 N   0  0  0  0  0  0  0  0  0  0  0  0
    7.7511  -15.8874   25.0744 C   0  0  0  0  0  0  0  0  0  0  0  0
    7.6063  -16.6656   26.0516 O   0  0  0  0  0  0  0  0  0  0  0  0
    9.9511  -17.5581   22.1426 C   0  0  0  0  0  0  0  0  0  0  0  0
   10.8085  -17.0356   23.2712 C   0  0  1  0  0  0  0  0  0  0  0  0
   11.3536  -15.7893   22.9766 O   0  0  0  0  0  0  0  0  0  0  0  0
    9.9982  -16.9303   24.5689 C   0  0  2  0  0  0  0  0  0  0  0  0
    8.9301  -15.9954   24.3174 N   0  0  0  0  0  0  0  0  0  0  0  0
   10.8945  -16.4902   25.6619 C   0  0  0  0  0  0  0  0  0  0  0  0
   11.7308  -15.5916   25.4026 O   0  0  0  0  0  0  0  0  0  0  0  0
   10.8792  -17.0085   26.9823 N   0  0  0  0  0  0  0  0  0  0  0  0
   11.8192  -16.5654   28.0125 C   0  0  1  0  0  0  0  0  0  0  0  0
   11.0224  -15.9355   29.1548 C   0  0  0  0  0  0  0  0  0  0  0  0
   10.0264  -14.5822   28.4721 S   0  0  0  0  0  0  0  0  0  0  0  0
   12.5107  -17.7739   28.5346 C   0  0  0  0  0  0  0  0  0  0  0  0
   13.4586  -17.7173   29.5539 O   0  0  0  0  0  0  0  0  0  0  0  0
   12.2658  -18.9223   28.0702 O   0  0  0  0  0  0  0  0  0  0  0  0
  2  1  1  6
  2  3  1  0
  4  2  1  0
  5  4  1  0
  5  7  1  0
  5  6  1  1
  7 13  1  0
  7  8  2  0
 10  9  1  6
 10 12  1  0
 11 10  1  0
 12 14  1  0
 12 13  1  6
 14 16  1  0
 14 15  2  0
 16 17  1  0
 17 20  1  0
 17 18  1  1
 19 18  1  0
 20 21  1  0
 22 20  2  0
M  END
$$$$
