LTC.pdb
     RDKit          3D

 22 21  0  0  1  0  0  0  0  0999 V2000
    6.3104  -12.1386   24.5372 C   0  0  0  0  0  0  0  0  0  0  0  0
    6.1745  -12.8384   25.8402 C   0  0  2  0  0  0  0  0  0  0  0  0
    6.4059  -11.8668   26.9748 C   0  0  0  0  0  0  0  0  0  0  0  0
    7.0094  -14.0645   25.9933 C   0  0  0  0  0  0  0  0  0  0  0  0
    6.7378  -15.1504   25.0197 C   0  0  2  0  0  0  0  0  0  0  0  0
    5.4843  -15.8068   25.2460 N   0  0  0  0  0  0  0  0  0  0  0  0
    7.8873  -16.1055   25.0702 C   0  0  0  0  0  0  0  0  0  0  0  0
    7.9650  -16.8893   26.0505 O   0  0  0  0  0  0  0  0  0  0  0  0
    9.6400  -17.5639   21.7748 C   0  0  0  0  0  0  0  0  0  0  0  0
   10.6689  -17.0603   22.7594 C   0  0  1  0  0  0  0  0  0  0  0  0
   11.1560  -15.8051   22.4069 O   0  0  0  0  0  0  0  0  0  0  0  0
   10.0810  -16.9869   24.1739 C   0  0  2  0  0  0  0  0  0  0  0  0
    8.8887  -16.1813   24.0872 N   0  0  0  0  0  0  0  0  0  0  0  0
   11.0934  -16.4092   25.0867 C   0  0  0  0  0  0  0  0  0  0  0  0
   11.3846  -15.1975   24.9408 O   0  0  0  0  0  0  0  0  0  0  0  0
   11.7599  -17.1231   26.1155 N   0  0  0  0  0  0  0  0  0  0  0  0
   12.6651  -16.4740   27.0645 C   0  0  1  0  0  0  0  0  0  0  0  0
   11.8429  -15.5473   27.9598 C   0  0  0  0  0  0  0  0  0  0  0  0
   10.5784  -16.5427   28.7963 S   0  0  0  0  0  0  0  0  0  0  0  0
   13.2595  -17.5400   27.9140 C   0  0  0  0  0  0  0  0  0  0  0  0
   12.9454  -18.8884   27.7593 O   0  0  0  0  0  0  0  0  0  0  0  0
   14.0877  -17.2663   28.8271 O   0  0  0  0  0  0  0  0  0  0  0  0
  2  1  1  6
  2  3  1  0
  4  2  1  0
  5  4  1  0
  5  7  1  0
  5  6  1  1
  7 13  1  0
  7  8  2  0
 10  9  1  6
 10 12  1  0
 11 10  1  0
 12 14  1  0
 12 13  1  6
 14 16  1  0
 14 15  2  0
 16 17  1  0
 17 20  1  0
 17 18  1  1
 19 18  1  0
 20 21  1  0
 22 20  2  0
M  END
$$$$
