LTC.pdb
     RDKit          3D

 22 21  0  0  1  0  0  0  0  0999 V2000
    5.5578  -12.2743   25.7325 C   0  0  0  0  0  0  0  0  0  0  0  0
    6.3557  -13.0037   26.7509 C   0  0  2  0  0  0  0  0  0  0  0  0
    7.1225  -12.0216   27.6068 C   0  0  0  0  0  0  0  0  0  0  0  0
    7.2476  -14.0716   26.2143 C   0  0  0  0  0  0  0  0  0  0  0  0
    6.5975  -15.0586   25.3175 C   0  0  2  0  0  0  0  0  0  0  0  0
    5.6759  -15.9169   26.0013 N   0  0  0  0  0  0  0  0  0  0  0  0
    7.6782  -15.8310   24.6308 C   0  0  0  0  0  0  0  0  0  0  0  0
    8.2681  -16.7320   25.2802 O   0  0  0  0  0  0  0  0  0  0  0  0
    7.5656  -16.0829   20.6458 C   0  0  0  0  0  0  0  0  0  0  0  0
    8.9937  -15.9701   21.1251 C   0  0  1  0  0  0  0  0  0  0  0  0
    9.5027  -14.6870   20.9467 O   0  0  0  0  0  0  0  0  0  0  0  0
    9.1036  -16.3475   22.6074 C   0  0  2  0  0  0  0  0  0  0  0  0
    8.0762  -15.6117   23.3011 N   0  0  0  0  0  0  0  0  0  0  0  0
   10.4641  -16.0172   23.0888 C   0  0  0  0  0  0  0  0  0  0  0  0
   10.6884  -14.8311   23.4309 O   0  0  0  0  0  0  0  0  0  0  0  0
   11.5349  -16.9418   23.1927 N   0  0  0  0  0  0  0  0  0  0  0  0
   12.8156  -16.5965   23.8106 C   0  0  1  0  0  0  0  0  0  0  0  0
   13.2598  -17.7667   24.6878 C   0  0  0  0  0  0  0  0  0  0  0  0
   12.1289  -17.8767   26.1014 S   0  0  0  0  0  0  0  0  0  0  0  0
   13.8078  -16.4285   22.7159 C   0  0  0  0  0  0  0  0  0  0  0  0
   15.1247  -16.0374   22.9472 O   0  0  0  0  0  0  0  0  0  0  0  0
   13.4962  -16.6361   21.5099 O   0  0  0  0  0  0  0  0  0  0  0  0
  2  1  1  6
  2  3  1  0
  4  2  1  0
  5  4  1  0
  5  7  1  0
  5  6  1  1
  7 13  1  0
  7  8  2  0
 10  9  1  1
 10 12  1  0
 11 10  1  0
 12 14  1  0
 12 13  1  1
 14 16  1  0
 14 15  2  0
 16 17  1  0
 17 20  1  0
 17 18  1  1
 19 18  1  0
 20 21  1  0
 22 20  2  0
M  END
$$$$
