LTC.pdb
     RDKit          3D

 22 21  0  0  1  0  0  0  0  0999 V2000
    6.5371  -11.7722   25.3909 C   0  0  0  0  0  0  0  0  0  0  0  0
    6.5280  -12.6986   26.5518 C   0  0  2  0  0  0  0  0  0  0  0  0
    7.1751  -12.0360   27.7464 C   0  0  0  0  0  0  0  0  0  0  0  0
    7.1111  -14.0467   26.2937 C   0  0  0  0  0  0  0  0  0  0  0  0
    6.4617  -14.8296   25.2138 C   0  0  2  0  0  0  0  0  0  0  0  0
    5.2020  -15.3893   25.6057 N   0  0  0  0  0  0  0  0  0  0  0  0
    7.4277  -15.8810   24.7694 C   0  0  0  0  0  0  0  0  0  0  0  0
    7.5797  -16.8938   25.4992 O   0  0  0  0  0  0  0  0  0  0  0  0
    8.1828  -16.3033   20.8553 C   0  0  0  0  0  0  0  0  0  0  0  0
    9.4453  -16.4649   21.6689 C   0  0  1  0  0  0  0  0  0  0  0  0
   10.2344  -15.3188   21.6382 O   0  0  0  0  0  0  0  0  0  0  0  0
    9.1152  -16.8030   23.1278 C   0  0  2  0  0  0  0  0  0  0  0  0
    8.1780  -15.8070   23.5836 N   0  0  0  0  0  0  0  0  0  0  0  0
   10.3682  -16.8087   23.9162 C   0  0  0  0  0  0  0  0  0  0  0  0
   10.8128  -15.7037   24.3105 O   0  0  0  0  0  0  0  0  0  0  0  0
   11.1054  -17.9709   24.2600 N   0  0  0  0  0  0  0  0  0  0  0  0
   12.4060  -17.9089   24.9278 C   0  0  1  0  0  0  0  0  0  0  0  0
   12.1831  -18.0503   26.4334 C   0  0  0  0  0  0  0  0  0  0  0  0
   11.0816  -19.4637   26.7130 S   0  0  0  0  0  0  0  0  0  0  0  0
   13.2029  -19.0742   24.4608 C   0  0  0  0  0  0  0  0  0  0  0  0
   14.5228  -19.2886   24.8515 O   0  0  0  0  0  0  0  0  0  0  0  0
   12.7113  -19.9342   23.6775 O   0  0  0  0  0  0  0  0  0  0  0  0
  2  1  1  6
  2  3  1  0
  4  2  1  0
  5  4  1  0
  5  7  1  0
  5  6  1  1
  7 13  1  0
  7  8  2  0
 10  9  1  6
 10 12  1  0
 11 10  1  0
 12 14  1  0
 12 13  1  1
 14 16  1  0
 14 15  2  0
 16 17  1  0
 17 20  1  0
 17 18  1  1
 19 18  1  0
 20 21  1  0
 22 20  2  0
M  END
$$$$
