LTC.pdb
     RDKit          3D

 22 21  0  0  1  0  0  0  0  0999 V2000
    9.7748  -13.0908   19.5220 C   0  0  0  0  0  0  0  0  0  0  0  0
    8.4662  -13.5020   18.9525 C   0  0  2  0  0  0  0  0  0  0  0  0
    7.6637  -12.2804   18.5674 C   0  0  0  0  0  0  0  0  0  0  0  0
    7.6683  -14.4333   19.8010 C   0  0  0  0  0  0  0  0  0  0  0  0
    8.3762  -15.6576   20.2493 C   0  0  2  0  0  0  0  0  0  0  0  0
    8.1500  -16.7829   19.3914 N   0  0  0  0  0  0  0  0  0  0  0  0
    7.9593  -15.9348   21.6583 C   0  0  0  0  0  0  0  0  0  0  0  0
    6.7455  -16.1761   21.8815 O   0  0  0  0  0  0  0  0  0  0  0  0
    8.9423  -18.6657   23.7030 C   0  0  0  0  0  0  0  0  0  0  0  0
    9.3013  -17.4593   24.5382 C   0  0  1  0  0  0  0  0  0  0  0  0
   10.6543  -17.1464   24.4460 O   0  0  0  0  0  0  0  0  0  0  0  0
    8.4777  -16.2371   24.1144 C   0  0  2  0  0  0  0  0  0  0  0  0
    8.8425  -15.9423   22.7513 N   0  0  0  0  0  0  0  0  0  0  0  0
    8.7693  -15.1165   25.0369 C   0  0  0  0  0  0  0  0  0  0  0  0
    9.8300  -14.4721   24.8528 O   0  0  0  0  0  0  0  0  0  0  0  0
    7.9390  -14.7157   26.1149 N   0  0  0  0  0  0  0  0  0  0  0  0
    8.3288  -13.6706   27.0622 C   0  0  1  0  0  0  0  0  0  0  0  0
    7.0608  -13.0017   27.5923 C   0  0  0  0  0  0  0  0  0  0  0  0
    5.9836  -12.6304   26.1812 S   0  0  0  0  0  0  0  0  0  0  0  0
    9.0185  -14.3349   28.1998 C   0  0  0  0  0  0  0  0  0  0  0  0
    9.6585  -13.6225   29.2116 O   0  0  0  0  0  0  0  0  0  0  0  0
    9.0555  -15.5931   28.3008 O   0  0  0  0  0  0  0  0  0  0  0  0
  2  1  1  1
  2  3  1  0
  4  2  1  0
  5  4  1  0
  5  7  1  0
  5  6  1  6
  7 13  1  0
  7  8  2  0
 10  9  1  6
 10 12  1  0
 11 10  1  0
 12 14  1  0
 12 13  1  6
 14 16  1  0
 14 15  2  0
 16 17  1  0
 17 20  1  0
 17 18  1  1
 19 18  1  0
 20 21  1  0
 22 20  2  0
M  END
$$$$
