LTC.pdb
     RDKit          3D

 22 21  0  0  1  0  0  0  0  0999 V2000
    9.3911  -13.6778   19.6516 C   0  0  0  0  0  0  0  0  0  0  0  0
    7.9186  -13.7144   19.4608 C   0  0  2  0  0  0  0  0  0  0  0  0
    7.4061  -12.3313   19.1302 C   0  0  0  0  0  0  0  0  0  0  0  0
    7.1478  -14.3284   20.5800 C   0  0  0  0  0  0  0  0  0  0  0  0
    7.5170  -15.7238   20.9225 C   0  0  2  0  0  0  0  0  0  0  0  0
    6.8802  -16.6953   20.0833 N   0  0  0  0  0  0  0  0  0  0  0  0
    7.1986  -15.9376   22.3679 C   0  0  0  0  0  0  0  0  0  0  0  0
    6.0029  -15.8131   22.7369 O   0  0  0  0  0  0  0  0  0  0  0  0
    6.7002  -18.5455   24.3964 C   0  0  0  0  0  0  0  0  0  0  0  0
    7.8614  -17.8718   25.0889 C   0  0  1  0  0  0  0  0  0  0  0  0
    9.0802  -18.4452   24.7382 O   0  0  0  0  0  0  0  0  0  0  0  0
    7.9015  -16.3752   24.7568 C   0  0  2  0  0  0  0  0  0  0  0  0
    8.1556  -16.2700   23.3417 N   0  0  0  0  0  0  0  0  0  0  0  0
    8.9534  -15.7287   25.5738 C   0  0  0  0  0  0  0  0  0  0  0  0
   10.1265  -15.7424   25.1289 O   0  0  0  0  0  0  0  0  0  0  0  0
    8.7349  -15.0940   26.8235 N   0  0  0  0  0  0  0  0  0  0  0  0
    9.8174  -14.4829   27.5956 C   0  0  1  0  0  0  0  0  0  0  0  0
    9.2718  -13.2339   28.2874 C   0  0  0  0  0  0  0  0  0  0  0  0
    8.4280  -12.2196   27.0429 S   0  0  0  0  0  0  0  0  0  0  0  0
   10.2241  -15.4581   28.6420 C   0  0  0  0  0  0  0  0  0  0  0  0
   11.2886  -15.2293   29.5110 O   0  0  0  0  0  0  0  0  0  0  0  0
    9.6134  -16.5532   28.7917 O   0  0  0  0  0  0  0  0  0  0  0  0
  2  1  1  1
  2  3  1  0
  4  2  1  0
  5  4  1  0
  5  7  1  0
  5  6  1  6
  7 13  1  0
  7  8  2  0
 10  9  1  6
 10 12  1  0
 11 10  1  0
 12 14  1  0
 12 13  1  6
 14 16  1  0
 14 15  2  0
 16 17  1  0
 17 20  1  0
 17 18  1  1
 19 18  1  0
 20 21  1  0
 22 20  2  0
M  END
$$$$
