FET.pdb
     RDKit          3D

 28 28  0  0  1  0  0  0  0  0999 V2000
    8.4409  -16.7370   16.4720 N   0  0  0  0  0  0  0  0  0  0  0  0
    8.5945  -15.6102   17.3369 C   0  0  1  0  0  0  0  0  0  0  0  0
    7.2666  -15.1380   17.8288 C   0  0  0  0  0  0  0  0  0  0  0  0
    7.5242  -14.0562   18.8251 C   0  0  0  0  0  0  0  0  0  0  0  0
    7.9923  -12.8108   18.4650 C   0  0  0  0  0  0  0  0  0  0  0  0
    8.2311  -11.8150   19.3951 C   0  0  0  0  0  0  0  0  0  0  0  0
    8.0043  -12.0381   20.7448 C   0  0  0  0  0  0  0  0  0  0  0  0
    7.5360  -13.2815   21.1123 C   0  0  0  0  0  0  0  0  0  0  0  0
    7.2971  -14.2796   20.1746 C   0  0  0  0  0  0  0  0  0  0  0  0
    9.6053  -15.8238   18.3951 C   0  0  0  0  0  0  0  0  0  0  0  0
    9.4993  -16.8411   19.1280 O   0  0  0  0  0  0  0  0  0  0  0  0
   10.6904  -14.9370   18.6245 N   0  0  0  0  0  0  0  0  0  0  0  0
   11.8195  -15.2216   19.4754 C   0  0  1  0  0  0  0  0  0  0  0  0
   13.0984  -14.6099   19.0539 C   0  0  0  0  0  0  0  0  0  0  0  0
   14.3211  -14.9828   19.8023 C   0  0  0  0  0  0  0  0  0  0  0  0
   15.5748  -14.3771   19.3948 C   0  0  0  0  0  0  0  0  0  0  0  0
   16.4093  -14.0146   20.2526 O   0  0  0  0  0  0  0  0  0  0  0  0
   11.4746  -15.0755   20.9101 C   0  0  0  0  0  0  0  0  0  0  0  0
   11.4077  -13.9164   21.3736 O   0  0  0  0  0  0  0  0  0  0  0  0
   15.8996  -14.1755   18.0658 O   0  0  0  0  0  0  0  0  0  0  0  0
    8.5966  -16.1685   22.9952 C   0  0  0  0  0  0  0  0  0  0  0  0
    9.8062  -16.8686   23.6303 C   0  0  1  0  0  0  0  0  0  0  0  0
    9.7185  -18.1931   23.1813 O   0  0  0  0  0  0  0  0  0  0  0  0
   11.0366  -16.1880   23.1639 C   0  0  2  0  0  0  0  0  0  0  0  0
   11.2234  -16.1704   21.7544 N   0  0  0  0  0  0  0  0  0  0  0  0
   12.2333  -16.6636   23.9084 C   0  0  0  0  0  0  0  0  0  0  0  0
   13.3589  -17.1528   23.2696 O   0  0  0  0  0  0  0  0  0  0  0  0
   12.2556  -16.6302   25.1566 O   0  0  0  0  0  0  0  0  0  0  0  0
  2  3  1  0
  2  1  1  1
  3  4  1  0
  4  9  2  0
  5  4  1  0
  5  6  2  0
  6  7  1  0
  7  8  2  0
  9  8  1  0
 10 12  1  0
 10  2  1  0
 11 10  2  0
 13 12  1  0
 13 14  1  6
 14 15  1  0
 15 16  1  0
 16 20  1  0
 17 16  2  0
 18 19  2  0
 18 13  1  0
 22 21  1  6
 22 24  1  0
 23 22  1  0
 24 26  1  0
 24 25  1  6
 25 18  1  0
 26 27  1  0
 28 26  2  0
M  END
$$$$
