FET.pdb
     RDKit          3D

 28 28  0  0  1  0  0  0  0  0999 V2000
    7.7433  -17.4575   18.0991 N   0  0  0  0  0  0  0  0  0  0  0  0
    8.0118  -16.4357   19.0609 C   0  0  1  0  0  0  0  0  0  0  0  0
    6.8662  -15.4830   19.1519 C   0  0  0  0  0  0  0  0  0  0  0  0
    7.2041  -14.4862   20.2109 C   0  0  0  0  0  0  0  0  0  0  0  0
    7.9186  -13.3371   19.9485 C   0  0  0  0  0  0  0  0  0  0  0  0
    8.2300  -12.4201   20.9364 C   0  0  0  0  0  0  0  0  0  0  0  0
    7.8278  -12.6280   22.2471 C   0  0  0  0  0  0  0  0  0  0  0  0
    7.1127  -13.7753   22.5169 C   0  0  0  0  0  0  0  0  0  0  0  0
    6.8017  -14.6944   21.5213 C   0  0  0  0  0  0  0  0  0  0  0  0
    8.4774  -16.9683   20.3596 C   0  0  0  0  0  0  0  0  0  0  0  0
    7.7169  -17.7422   20.9969 O   0  0  0  0  0  0  0  0  0  0  0  0
    9.7414  -16.6494   20.9228 N   0  0  0  0  0  0  0  0  0  0  0  0
   10.3057  -17.2832   22.0889 C   0  0  1  0  0  0  0  0  0  0  0  0
   11.7303  -17.6635   21.9743 C   0  0  0  0  0  0  0  0  0  0  0  0
   12.7425  -16.7058   22.4767 C   0  0  0  0  0  0  0  0  0  0  0  0
   14.1411  -17.0230   22.2580 C   0  0  0  0  0  0  0  0  0  0  0  0
   15.0366  -16.2947   22.7391 O   0  0  0  0  0  0  0  0  0  0  0  0
    9.9232  -16.5768   23.3353 C   0  0  0  0  0  0  0  0  0  0  0  0
   10.2829  -15.3859   23.4587 O   0  0  0  0  0  0  0  0  0  0  0  0
   14.5424  -18.1226   21.5217 O   0  0  0  0  0  0  0  0  0  0  0  0
    6.9328  -15.3693   25.0393 C   0  0  0  0  0  0  0  0  0  0  0  0
    7.4559  -16.4823   25.9582 C   0  0  1  0  0  0  0  0  0  0  0  0
    6.6727  -17.5985   25.6354 O   0  0  0  0  0  0  0  0  0  0  0  0
    8.8935  -16.6900   25.6668 C   0  0  2  0  0  0  0  0  0  0  0  0
    9.1839  -17.1831   24.3651 N   0  0  0  0  0  0  0  0  0  0  0  0
    9.5586  -17.4639   26.7491 C   0  0  0  0  0  0  0  0  0  0  0  0
    9.4801  -17.0959   28.0806 O   0  0  0  0  0  0  0  0  0  0  0  0
   10.2168  -18.4903   26.4793 O   0  0  0  0  0  0  0  0  0  0  0  0
  2  3  1  0
  2  1  1  6
  3  4  1  0
  4  9  2  0
  5  4  1  0
  5  6  2  0
  6  7  1  0
  7  8  2  0
  9  8  1  0
 10 12  1  0
 10  2  1  0
 11 10  2  0
 13 12  1  0
 13 14  1  6
 14 15  1  0
 15 16  1  0
 16 20  1  0
 17 16  2  0
 18 19  2  0
 18 13  1  0
 22 21  1  6
 22 24  1  0
 23 22  1  0
 24 26  1  0
 24 25  1  6
 25 18  1  0
 26 27  1  0
 28 26  2  0
M  END
$$$$
