FET.pdb
     RDKit          3D

 28 28  0  0  1  0  0  0  0  0999 V2000
    6.0418  -17.5956   23.5017 N   0  0  0  0  0  0  0  0  0  0  0  0
    6.7830  -16.5447   24.1242 C   0  0  1  0  0  0  0  0  0  0  0  0
    6.0161  -15.9622   25.2646 C   0  0  0  0  0  0  0  0  0  0  0  0
    6.3770  -14.5157   25.3463 C   0  0  0  0  0  0  0  0  0  0  0  0
    7.3539  -13.9481   24.5568 C   0  0  0  0  0  0  0  0  0  0  0  0
    7.6840  -12.6073   24.6410 C   0  0  0  0  0  0  0  0  0  0  0  0
    7.0332  -11.7733   25.5375 C   0  0  0  0  0  0  0  0  0  0  0  0
    6.0550  -12.3342   26.3305 C   0  0  0  0  0  0  0  0  0  0  0  0
    5.7260  -13.6820   26.2428 C   0  0  0  0  0  0  0  0  0  0  0  0
    8.1746  -16.9277   24.4467 C   0  0  0  0  0  0  0  0  0  0  0  0
    8.3638  -17.9043   25.2173 O   0  0  0  0  0  0  0  0  0  0  0  0
    9.3084  -16.2474   23.9289 N   0  0  0  0  0  0  0  0  0  0  0  0
   10.6770  -16.6494   24.1417 C   0  0  1  0  0  0  0  0  0  0  0  0
   11.5732  -16.4818   22.9772 C   0  0  0  0  0  0  0  0  0  0  0  0
   11.3795  -17.3880   21.8216 C   0  0  0  0  0  0  0  0  0  0  0  0
   12.2640  -17.2304   20.6826 C   0  0  0  0  0  0  0  0  0  0  0  0
   12.2522  -18.0669   19.7532 O   0  0  0  0  0  0  0  0  0  0  0  0
   11.1992  -16.1505   25.4367 C   0  0  0  0  0  0  0  0  0  0  0  0
   11.9928  -15.1850   25.4069 O   0  0  0  0  0  0  0  0  0  0  0  0
   13.1447  -16.1698   20.5729 O   0  0  0  0  0  0  0  0  0  0  0  0
   10.6870  -14.0367   27.6982 C   0  0  0  0  0  0  0  0  0  0  0  0
   10.6272  -15.2515   28.6348 C   0  0  1  0  0  0  0  0  0  0  0  0
    9.2576  -15.4862   28.8154 O   0  0  0  0  0  0  0  0  0  0  0  0
   11.3182  -16.3835   27.9746 C   0  0  2  0  0  0  0  0  0  0  0  0
   10.8422  -16.7105   26.6752 N   0  0  0  0  0  0  0  0  0  0  0  0
   11.4125  -17.5612   28.8783 C   0  0  0  0  0  0  0  0  0  0  0  0
   12.0381  -17.5027   30.1110 O   0  0  0  0  0  0  0  0  0  0  0  0
   10.9158  -18.6567   28.5427 O   0  0  0  0  0  0  0  0  0  0  0  0
  2  3  1  0
  2  1  1  1
  3  4  1  0
  4  9  2  0
  5  4  1  0
  5  6  2  0
  6  7  1  0
  7  8  2  0
  9  8  1  0
 10 12  1  0
 10  2  1  0
 11 10  2  0
 13 12  1  0
 13 14  1  6
 14 15  1  0
 15 16  1  0
 16 20  1  0
 17 16  2  0
 18 19  2  0
 18 13  1  0
 22 21  1  6
 22 24  1  0
 23 22  1  0
 24 26  1  0
 24 25  1  6
 25 18  1  0
 26 27  1  0
 28 26  2  0
M  END
$$$$
