FET.pdb
     RDKit          3D

 28 28  0  0  1  0  0  0  0  0999 V2000
    8.9792  -15.1756   26.2593 N   0  0  0  0  0  0  0  0  0  0  0  0
    8.2751  -14.9440   25.0379 C   0  0  1  0  0  0  0  0  0  0  0  0
    8.1071  -13.4808   24.7952 C   0  0  0  0  0  0  0  0  0  0  0  0
    7.3516  -12.9246   25.9567 C   0  0  0  0  0  0  0  0  0  0  0  0
    6.0550  -13.2930   26.2446 C   0  0  0  0  0  0  0  0  0  0  0  0
    5.3612  -12.7704   27.3213 C   0  0  0  0  0  0  0  0  0  0  0  0
    5.9553  -11.8420   28.1627 C   0  0  0  0  0  0  0  0  0  0  0  0
    7.2521  -11.4688   27.8808 C   0  0  0  0  0  0  0  0  0  0  0  0
    7.9460  -11.9964   26.7979 C   0  0  0  0  0  0  0  0  0  0  0  0
    8.8305  -15.7004   23.8949 C   0  0  0  0  0  0  0  0  0  0  0  0
   10.0740  -15.6706   23.7045 O   0  0  0  0  0  0  0  0  0  0  0  0
    8.0292  -16.4594   23.0013 N   0  0  0  0  0  0  0  0  0  0  0  0
    8.4679  -16.9515   21.7187 C   0  0  1  0  0  0  0  0  0  0  0  0
    8.4864  -18.4238   21.5795 C   0  0  0  0  0  0  0  0  0  0  0  0
    9.3938  -19.1891   22.4656 C   0  0  0  0  0  0  0  0  0  0  0  0
    9.9056  -20.4560   21.9782 C   0  0  0  0  0  0  0  0  0  0  0  0
   11.1109  -20.7515   22.1321 O   0  0  0  0  0  0  0  0  0  0  0  0
    7.8412  -16.2041   20.6018 C   0  0  0  0  0  0  0  0  0  0  0  0
    6.5926  -16.1986   20.5384 O   0  0  0  0  0  0  0  0  0  0  0  0
    9.1018  -21.3778   21.3328 O   0  0  0  0  0  0  0  0  0  0  0  0
    8.2188  -12.6452   19.4555 C   0  0  0  0  0  0  0  0  0  0  0  0
    8.6262  -13.4914   18.2411 C   0  0  1  0  0  0  0  0  0  0  0  0
   10.0256  -13.4216   18.2203 O   0  0  0  0  0  0  0  0  0  0  0  0
    8.1263  -14.8709   18.4454 C   0  0  2  0  0  0  0  0  0  0  0  0
    8.5832  -15.5129   19.6291 N   0  0  0  0  0  0  0  0  0  0  0  0
    8.3064  -15.6983   17.2224 C   0  0  0  0  0  0  0  0  0  0  0  0
    7.8563  -15.2923   15.9787 O   0  0  0  0  0  0  0  0  0  0  0  0
    8.8840  -16.8036   17.2867 O   0  0  0  0  0  0  0  0  0  0  0  0
  2  3  1  0
  2  1  1  1
  3  4  1  0
  4  9  2  0
  5  4  1  0
  5  6  2  0
  6  7  1  0
  7  8  2  0
  9  8  1  0
 10 12  1  0
 10  2  1  0
 11 10  2  0
 13 12  1  0
 13 14  1  6
 14 15  1  0
 15 16  1  0
 16 20  1  0
 17 16  2  0
 18 19  2  0
 18 13  1  0
 22 21  1  1
 22 24  1  0
 23 22  1  0
 24 26  1  0
 24 25  1  1
 25 18  1  0
 26 27  1  0
 28 26  2  0
M  END
$$$$
