FET.pdb
     RDKit          3D

 28 28  0  0  1  0  0  0  0  0999 V2000
    7.3082  -15.6166   21.1424 N   0  0  0  0  0  0  0  0  0  0  0  0
    7.5417  -15.0249   22.4217 C   0  0  1  0  0  0  0  0  0  0  0  0
    6.2506  -14.6818   23.0877 C   0  0  0  0  0  0  0  0  0  0  0  0
    6.5844  -13.9779   24.3615 C   0  0  0  0  0  0  0  0  0  0  0  0
    7.1355  -12.7149   24.3898 C   0  0  0  0  0  0  0  0  0  0  0  0
    7.4444  -12.0710   25.5746 C   0  0  0  0  0  0  0  0  0  0  0  0
    7.2068  -12.6836   26.7958 C   0  0  0  0  0  0  0  0  0  0  0  0
    6.6556  -13.9470   26.7750 C   0  0  0  0  0  0  0  0  0  0  0  0
    6.3465  -14.5907   25.5823 C   0  0  0  0  0  0  0  0  0  0  0  0
    8.4814  -15.8022   23.2584 C   0  0  0  0  0  0  0  0  0  0  0  0
    8.0407  -16.8013   23.8837 O   0  0  0  0  0  0  0  0  0  0  0  0
    9.8572  -15.4765   23.3905 N   0  0  0  0  0  0  0  0  0  0  0  0
   10.8373  -16.3003   24.0543 C   0  0  1  0  0  0  0  0  0  0  0  0
   12.0429  -16.6143   23.2573 C   0  0  0  0  0  0  0  0  0  0  0  0
   13.0694  -17.4867   23.8735 C   0  0  0  0  0  0  0  0  0  0  0  0
   14.2349  -17.8252   23.0789 C   0  0  0  0  0  0  0  0  0  0  0  0
   14.6897  -17.0109   22.2459 O   0  0  0  0  0  0  0  0  0  0  0  0
   11.0814  -15.8479   25.4452 C   0  0  0  0  0  0  0  0  0  0  0  0
   11.6275  -14.7346   25.6038 O   0  0  0  0  0  0  0  0  0  0  0  0
   14.8848  -19.0397   23.2017 O   0  0  0  0  0  0  0  0  0  0  0  0
    9.9266  -14.3212   28.2036 C   0  0  0  0  0  0  0  0  0  0  0  0
   10.1489  -15.7241   28.7859 C   0  0  1  0  0  0  0  0  0  0  0  0
    8.8789  -16.3159   28.7657 O   0  0  0  0  0  0  0  0  0  0  0  0
   11.1242  -16.4359   27.9274 C   0  0  2  0  0  0  0  0  0  0  0  0
   10.7279  -16.6084   26.5728 N   0  0  0  0  0  0  0  0  0  0  0  0
   11.5900  -17.6954   28.5673 C   0  0  0  0  0  0  0  0  0  0  0  0
   12.1049  -17.7295   29.8510 O   0  0  0  0  0  0  0  0  0  0  0  0
   11.5242  -18.7794   27.9506 O   0  0  0  0  0  0  0  0  0  0  0  0
  2  3  1  0
  2  1  1  6
  3  4  1  0
  4  9  2  0
  5  4  1  0
  5  6  2  0
  6  7  1  0
  7  8  2  0
  9  8  1  0
 10 12  1  0
 10  2  1  0
 11 10  2  0
 13 12  1  0
 13 14  1  6
 14 15  1  0
 15 16  1  0
 16 20  1  0
 17 16  2  0
 18 19  2  0
 18 13  1  0
 22 21  1  6
 22 24  1  0
 23 22  1  0
 24 26  1  0
 24 25  1  6
 25 18  1  0
 26 27  1  0
 28 26  2  0
M  END
$$$$
