FET.pdb
     RDKit          3D

 28 28  0  0  1  0  0  0  0  0999 V2000
    8.0221  -15.9423   26.7876 N   0  0  0  0  0  0  0  0  0  0  0  0
    7.5451  -16.1350   25.4546 C   0  0  1  0  0  0  0  0  0  0  0  0
    6.3922  -15.2302   25.1711 C   0  0  0  0  0  0  0  0  0  0  0  0
    6.6835  -13.9235   25.8322 C   0  0  0  0  0  0  0  0  0  0  0  0
    6.0915  -13.5422   27.0171 C   0  0  0  0  0  0  0  0  0  0  0  0
    6.3649  -12.3283   27.6214 C   0  0  0  0  0  0  0  0  0  0  0  0
    7.2589  -11.4373   27.0469 C   0  0  0  0  0  0  0  0  0  0  0  0
    7.8549  -11.8121   25.8617 C   0  0  0  0  0  0  0  0  0  0  0  0
    7.5775  -13.0330   25.2576 C   0  0  0  0  0  0  0  0  0  0  0  0
    8.6220  -16.1000   24.4417 C   0  0  0  0  0  0  0  0  0  0  0  0
    9.5009  -15.2040   24.5326 O   0  0  0  0  0  0  0  0  0  0  0  0
    8.7132  -17.0284   23.3710 N   0  0  0  0  0  0  0  0  0  0  0  0
    9.4257  -16.7956   22.1390 C   0  0  1  0  0  0  0  0  0  0  0  0
   10.2915  -17.9075   21.6899 C   0  0  0  0  0  0  0  0  0  0  0  0
   11.0498  -17.7260   20.4306 C   0  0  0  0  0  0  0  0  0  0  0  0
   11.7638  -18.8718   19.8997 C   0  0  0  0  0  0  0  0  0  0  0  0
   12.4544  -18.7609   18.8631 O   0  0  0  0  0  0  0  0  0  0  0  0
    8.5479  -16.2004   21.1027 C   0  0  0  0  0  0  0  0  0  0  0  0
    7.3948  -16.6684   20.9832 O   0  0  0  0  0  0  0  0  0  0  0  0
   11.7151  -20.1158   20.5017 O   0  0  0  0  0  0  0  0  0  0  0  0
    7.9207  -12.4732   20.3061 C   0  0  0  0  0  0  0  0  0  0  0  0
    8.3997  -13.1215   18.9996 C   0  0  1  0  0  0  0  0  0  0  0  0
    9.7270  -12.6934   18.8634 O   0  0  0  0  0  0  0  0  0  0  0  0
    8.2856  -14.5919   19.1398 C   0  0  2  0  0  0  0  0  0  0  0  0
    8.9543  -15.1481   20.2647 N   0  0  0  0  0  0  0  0  0  0  0  0
    8.6098  -15.2838   17.8635 C   0  0  0  0  0  0  0  0  0  0  0  0
    7.9399  -15.0158   16.6829 O   0  0  0  0  0  0  0  0  0  0  0  0
    9.5171  -16.1410   17.8221 O   0  0  0  0  0  0  0  0  0  0  0  0
  2  3  1  0
  2  1  1  1
  3  4  1  0
  4  9  2  0
  5  4  1  0
  5  6  2  0
  6  7  1  0
  7  8  2  0
  9  8  1  0
 10 12  1  0
 10  2  1  0
 11 10  2  0
 13 12  1  0
 13 14  1  6
 14 15  1  0
 15 16  1  0
 16 20  1  0
 17 16  2  0
 18 19  2  0
 18 13  1  0
 22 21  1  1
 22 24  1  0
 23 22  1  0
 24 26  1  0
 24 25  1  1
 25 18  1  0
 26 27  1  0
 28 26  2  0
M  END
$$$$
