FET.pdb
     RDKit          3D

 28 28  0  0  1  0  0  0  0  0999 V2000
    7.3564  -15.5974   20.0706 N   0  0  0  0  0  0  0  0  0  0  0  0
    7.6003  -14.9950   21.3430 C   0  0  1  0  0  0  0  0  0  0  0  0
    6.3309  -14.4775   21.9336 C   0  0  0  0  0  0  0  0  0  0  0  0
    6.6542  -13.9711   23.3005 C   0  0  0  0  0  0  0  0  0  0  0  0
    6.3586  -14.6805   24.4447 C   0  0  0  0  0  0  0  0  0  0  0  0
    6.6591  -14.2024   25.7075 C   0  0  0  0  0  0  0  0  0  0  0  0
    7.2783  -12.9723   25.8697 C   0  0  0  0  0  0  0  0  0  0  0  0
    7.5769  -12.2572   24.7296 C   0  0  0  0  0  0  0  0  0  0  0  0
    7.2735  -12.7411   23.4622 C   0  0  0  0  0  0  0  0  0  0  0  0
    8.3989  -15.8506   22.2471 C   0  0  0  0  0  0  0  0  0  0  0  0
    7.9716  -17.0039   22.5127 O   0  0  0  0  0  0  0  0  0  0  0  0
    9.6250  -15.4344   22.8301 N   0  0  0  0  0  0  0  0  0  0  0  0
   10.5517  -16.3073   23.5077 C   0  0  1  0  0  0  0  0  0  0  0  0
   11.9757  -16.1090   23.1607 C   0  0  0  0  0  0  0  0  0  0  0  0
   12.9700  -17.0121   23.7850 C   0  0  0  0  0  0  0  0  0  0  0  0
   14.3686  -16.8074   23.4585 C   0  0  0  0  0  0  0  0  0  0  0  0
   15.1149  -16.1803   24.2418 O   0  0  0  0  0  0  0  0  0  0  0  0
   10.2472  -16.4117   24.9552 C   0  0  0  0  0  0  0  0  0  0  0  0
   10.2822  -15.3603   25.6307 O   0  0  0  0  0  0  0  0  0  0  0  0
   14.9314  -17.2856   22.2893 O   0  0  0  0  0  0  0  0  0  0  0  0
    7.2075  -17.5682   26.6460 C   0  0  0  0  0  0  0  0  0  0  0  0
    8.2973  -18.4967   27.2001 C   0  0  1  0  0  0  0  0  0  0  0  0
    8.1290  -19.6942   26.4921 O   0  0  0  0  0  0  0  0  0  0  0  0
    9.6156  -17.8677   26.9527 C   0  0  2  0  0  0  0  0  0  0  0  0
    9.9255  -17.6253   25.5862 N   0  0  0  0  0  0  0  0  0  0  0  0
   10.6995  -18.5778   27.6830 C   0  0  0  0  0  0  0  0  0  0  0  0
   10.6297  -18.8448   29.0388 O   0  0  0  0  0  0  0  0  0  0  0  0
   11.7218  -18.9632   27.0781 O   0  0  0  0  0  0  0  0  0  0  0  0
  2  3  1  0
  2  1  1  6
  3  4  1  0
  4  9  2  0
  5  4  1  0
  5  6  2  0
  6  7  1  0
  7  8  2  0
  9  8  1  0
 10 12  1  0
 10  2  1  0
 11 10  2  0
 13 12  1  0
 13 14  1  1
 14 15  1  0
 15 16  1  0
 16 20  1  0
 17 16  2  0
 18 19  2  0
 18 13  1  0
 22 21  1  6
 22 24  1  0
 23 22  1  0
 24 26  1  0
 24 25  1  6
 25 18  1  0
 26 27  1  0
 28 26  2  0
M  END
$$$$
