FET.pdb
     RDKit          3D

 28 28  0  0  1  0  0  0  0  0999 V2000
    8.0908  -17.0042   20.1955 N   0  0  0  0  0  0  0  0  0  0  0  0
    9.0445  -16.3082   21.0001 C   0  0  1  0  0  0  0  0  0  0  0  0
    8.3854  -15.2125   21.7702 C   0  0  0  0  0  0  0  0  0  0  0  0
    7.9933  -14.1574   20.7891 C   0  0  0  0  0  0  0  0  0  0  0  0
    6.7066  -14.0276   20.3124 C   0  0  0  0  0  0  0  0  0  0  0  0
    6.3525  -13.0489   19.4011 C   0  0  0  0  0  0  0  0  0  0  0  0
    7.2951  -12.1491   18.9270 C   0  0  0  0  0  0  0  0  0  0  0  0
    8.5842  -12.2730   19.3995 C   0  0  0  0  0  0  0  0  0  0  0  0
    8.9361  -13.2579   20.3154 C   0  0  0  0  0  0  0  0  0  0  0  0
    9.8899  -17.2113   21.8106 C   0  0  0  0  0  0  0  0  0  0  0  0
    9.3264  -18.0979   22.5032 O   0  0  0  0  0  0  0  0  0  0  0  0
   11.3070  -17.1271   21.8455 N   0  0  0  0  0  0  0  0  0  0  0  0
   12.1546  -17.8886   22.7295 C   0  0  1  0  0  0  0  0  0  0  0  0
   13.5346  -18.1104   22.2461 C   0  0  0  0  0  0  0  0  0  0  0  0
   13.7096  -18.5935   20.8567 C   0  0  0  0  0  0  0  0  0  0  0  0
   15.0634  -18.7325   20.3543 C   0  0  0  0  0  0  0  0  0  0  0  0
   15.7857  -17.7238   20.1978 O   0  0  0  0  0  0  0  0  0  0  0  0
   12.0270  -17.4356   24.1356 C   0  0  0  0  0  0  0  0  0  0  0  0
   12.8070  -16.5407   24.5279 O   0  0  0  0  0  0  0  0  0  0  0  0
   15.6080  -19.9617   20.0304 O   0  0  0  0  0  0  0  0  0  0  0  0
    9.4930  -15.6904   25.9065 C   0  0  0  0  0  0  0  0  0  0  0  0
    9.5794  -16.9951   26.7109 C   0  0  1  0  0  0  0  0  0  0  0  0
    8.4770  -17.7450   26.2797 O   0  0  0  0  0  0  0  0  0  0  0  0
   10.8717  -17.6495   26.4003 C   0  0  2  0  0  0  0  0  0  0  0  0
   11.0791  -17.9630   25.0289 N   0  0  0  0  0  0  0  0  0  0  0  0
   11.1291  -18.7978   27.3100 C   0  0  0  0  0  0  0  0  0  0  0  0
   11.1066  -18.6729   28.6878 O   0  0  0  0  0  0  0  0  0  0  0  0
   11.3744  -19.9303   26.8443 O   0  0  0  0  0  0  0  0  0  0  0  0
  2  3  1  0
  2  1  1  1
  3  4  1  0
  4  9  2  0
  5  4  1  0
  5  6  2  0
  6  7  1  0
  7  8  2  0
  9  8  1  0
 10 12  1  0
 10  2  1  0
 11 10  2  0
 13 12  1  0
 13 14  1  6
 14 15  1  0
 15 16  1  0
 16 20  1  0
 17 16  2  0
 18 19  2  0
 18 13  1  0
 22 21  1  6
 22 24  1  0
 23 22  1  0
 24 26  1  0
 24 25  1  6
 25 18  1  0
 26 27  1  0
 28 26  2  0
M  END
$$$$
