FET.pdb
     RDKit          3D

 28 28  0  0  1  0  0  0  0  0999 V2000
    5.5020  -17.7497   23.6473 N   0  0  0  0  0  0  0  0  0  0  0  0
    6.2938  -16.6717   24.1496 C   0  0  1  0  0  0  0  0  0  0  0  0
    5.6165  -16.0140   25.3059 C   0  0  0  0  0  0  0  0  0  0  0  0
    6.3972  -14.7841   25.6334 C   0  0  0  0  0  0  0  0  0  0  0  0
    6.7548  -13.8553   24.6799 C   0  0  0  0  0  0  0  0  0  0  0  0
    7.4809  -12.7198   24.9916 C   0  0  0  0  0  0  0  0  0  0  0  0
    7.8813  -12.4718   26.2959 C   0  0  0  0  0  0  0  0  0  0  0  0
    7.5271  -13.3966   27.2549 C   0  0  0  0  0  0  0  0  0  0  0  0
    6.7973  -14.5364   26.9377 C   0  0  0  0  0  0  0  0  0  0  0  0
    7.7028  -17.0498   24.3920 C   0  0  0  0  0  0  0  0  0  0  0  0
    7.9381  -18.0493   25.1194 O   0  0  0  0  0  0  0  0  0  0  0  0
    8.8039  -16.3401   23.8438 N   0  0  0  0  0  0  0  0  0  0  0  0
   10.1877  -16.7069   24.0180 C   0  0  1  0  0  0  0  0  0  0  0  0
   11.0539  -16.4824   22.8404 C   0  0  0  0  0  0  0  0  0  0  0  0
   12.4999  -16.7705   22.9827 C   0  0  0  0  0  0  0  0  0  0  0  0
   13.3303  -16.6659   21.7978 C   0  0  0  0  0  0  0  0  0  0  0  0
   14.4259  -17.2661   21.7393 O   0  0  0  0  0  0  0  0  0  0  0  0
   10.7225  -16.2269   25.3150 C   0  0  0  0  0  0  0  0  0  0  0  0
   11.1188  -15.0427   25.3744 O   0  0  0  0  0  0  0  0  0  0  0  0
   12.9581  -15.9126   20.6995 O   0  0  0  0  0  0  0  0  0  0  0  0
   10.8616  -16.2496   30.1127 C   0  0  0  0  0  0  0  0  0  0  0  0
   10.3952  -17.0363   28.8798 C   0  0  1  0  0  0  0  0  0  0  0  0
    9.0825  -16.5973   28.6613 O   0  0  0  0  0  0  0  0  0  0  0  0
   11.3000  -16.7144   27.7518 C   0  0  2  0  0  0  0  0  0  0  0  0
   10.7989  -17.0369   26.4607 N   0  0  0  0  0  0  0  0  0  0  0  0
   12.6729  -17.2328   27.9946 C   0  0  0  0  0  0  0  0  0  0  0  0
   13.4537  -16.8001   29.0517 O   0  0  0  0  0  0  0  0  0  0  0  0
   13.1667  -18.0936   27.2363 O   0  0  0  0  0  0  0  0  0  0  0  0
  2  3  1  0
  2  1  1  1
  3  4  1  0
  4  9  2  0
  5  4  1  0
  5  6  2  0
  6  7  1  0
  7  8  2  0
  9  8  1  0
 10 12  1  0
 10  2  1  0
 11 10  2  0
 13 12  1  0
 13 14  1  6
 14 15  1  0
 15 16  1  0
 16 20  1  0
 17 16  2  0
 18 19  2  0
 18 13  1  0
 22 21  1  1
 22 24  1  0
 23 22  1  0
 24 26  1  0
 24 25  1  6
 25 18  1  0
 26 27  1  0
 28 26  2  0
M  END
$$$$
