FET.pdb
     RDKit          3D

 28 28  0  0  1  0  0  0  0  0999 V2000
    7.1495  -16.5234   21.4479 N   0  0  0  0  0  0  0  0  0  0  0  0
    7.5244  -15.6816   22.5398 C   0  0  1  0  0  0  0  0  0  0  0  0
    6.3153  -15.1448   23.2312 C   0  0  0  0  0  0  0  0  0  0  0  0
    6.7861  -14.1281   24.2182 C   0  0  0  0  0  0  0  0  0  0  0  0
    7.2190  -12.8743   23.8438 C   0  0  0  0  0  0  0  0  0  0  0  0
    7.6564  -11.9392   24.7647 C   0  0  0  0  0  0  0  0  0  0  0  0
    7.6753  -12.2353   26.1194 C   0  0  0  0  0  0  0  0  0  0  0  0
    7.2437  -13.4876   26.5011 C   0  0  0  0  0  0  0  0  0  0  0  0
    6.8048  -14.4245   25.5726 C   0  0  0  0  0  0  0  0  0  0  0  0
    8.5240  -16.3027   23.4354 C   0  0  0  0  0  0  0  0  0  0  0  0
    8.1927  -17.3305   24.0813 O   0  0  0  0  0  0  0  0  0  0  0  0
    9.8400  -15.7961   23.6022 N   0  0  0  0  0  0  0  0  0  0  0  0
   10.9095  -16.4906   24.2758 C   0  0  1  0  0  0  0  0  0  0  0  0
   12.1609  -16.6285   23.4996 C   0  0  0  0  0  0  0  0  0  0  0  0
   12.1251  -17.4620   22.2756 C   0  0  0  0  0  0  0  0  0  0  0  0
   13.3307  -17.5360   21.4721 C   0  0  0  0  0  0  0  0  0  0  0  0
   14.4557  -17.4614   22.0130 O   0  0  0  0  0  0  0  0  0  0  0  0
   11.0649  -16.0300   25.6766 C   0  0  0  0  0  0  0  0  0  0  0  0
   11.4603  -14.8582   25.8596 O   0  0  0  0  0  0  0  0  0  0  0  0
   13.2940  -17.6888   20.0982 O   0  0  0  0  0  0  0  0  0  0  0  0
    9.5053  -14.6220   28.0671 C   0  0  0  0  0  0  0  0  0  0  0  0
    9.8465  -15.9004   28.8455 C   0  0  1  0  0  0  0  0  0  0  0  0
    8.6697  -16.6600   28.8028 O   0  0  0  0  0  0  0  0  0  0  0  0
   10.9824  -16.5689   28.1690 C   0  0  2  0  0  0  0  0  0  0  0  0
   10.7887  -16.8449   26.7876 N   0  0  0  0  0  0  0  0  0  0  0  0
   11.4544  -17.7485   28.9425 C   0  0  0  0  0  0  0  0  0  0  0  0
   11.8194  -17.6651   30.2744 O   0  0  0  0  0  0  0  0  0  0  0  0
   11.5323  -18.8704   28.3993 O   0  0  0  0  0  0  0  0  0  0  0  0
  2  3  1  0
  2  1  1  6
  3  4  1  0
  4  9  2  0
  5  4  1  0
  5  6  2  0
  6  7  1  0
  7  8  2  0
  9  8  1  0
 10 12  1  0
 10  2  1  0
 11 10  2  0
 13 12  1  0
 13 14  1  6
 14 15  1  0
 15 16  1  0
 16 20  1  0
 17 16  2  0
 18 19  2  0
 18 13  1  0
 22 21  1  6
 22 24  1  0
 23 22  1  0
 24 26  1  0
 24 25  1  6
 25 18  1  0
 26 27  1  0
 28 26  2  0
M  END
$$$$
