FET.pdb
     RDKit          3D

 28 28  0  0  1  0  0  0  0  0999 V2000
    5.6429  -16.1683   24.0569 N   0  0  0  0  0  0  0  0  0  0  0  0
    6.8291  -15.7491   23.3799 C   0  0  1  0  0  0  0  0  0  0  0  0
    6.9321  -14.2600   23.3696 C   0  0  0  0  0  0  0  0  0  0  0  0
    7.0206  -13.8137   24.7917 C   0  0  0  0  0  0  0  0  0  0  0  0
    8.2210  -13.5388   25.4107 C   0  0  0  0  0  0  0  0  0  0  0  0
    8.2941  -13.1286   26.7298 C   0  0  0  0  0  0  0  0  0  0  0  0
    7.1433  -12.9771   27.4886 C   0  0  0  0  0  0  0  0  0  0  0  0
    5.9390  -13.2503   26.8759 C   0  0  0  0  0  0  0  0  0  0  0  0
    5.8697  -13.6622   25.5500 C   0  0  0  0  0  0  0  0  0  0  0  0
    8.0441  -16.4495   23.8494 C   0  0  0  0  0  0  0  0  0  0  0  0
    7.9349  -17.2657   24.8008 O   0  0  0  0  0  0  0  0  0  0  0  0
    9.3285  -16.2462   23.2788 N   0  0  0  0  0  0  0  0  0  0  0  0
   10.5140  -16.9850   23.6372 C   0  0  1  0  0  0  0  0  0  0  0  0
   11.6707  -16.8003   22.7343 C   0  0  0  0  0  0  0  0  0  0  0  0
   12.8867  -17.6042   22.9976 C   0  0  0  0  0  0  0  0  0  0  0  0
   13.7354  -17.9367   21.8690 C   0  0  0  0  0  0  0  0  0  0  0  0
   14.9321  -17.5743   21.8504 O   0  0  0  0  0  0  0  0  0  0  0  0
   10.8037  -16.8856   25.0880 C   0  0  0  0  0  0  0  0  0  0  0  0
   11.3035  -15.8186   25.5060 O   0  0  0  0  0  0  0  0  0  0  0  0
   13.2709  -18.6546   20.7822 O   0  0  0  0  0  0  0  0  0  0  0  0
    8.5834  -17.3923   28.0817 C   0  0  0  0  0  0  0  0  0  0  0  0
    9.7226  -18.4062   28.2571 C   0  0  1  0  0  0  0  0  0  0  0  0
    9.1602  -19.6325   27.8783 O   0  0  0  0  0  0  0  0  0  0  0  0
   10.8473  -17.9995   27.3828 C   0  0  2  0  0  0  0  0  0  0  0  0
   10.5419  -17.9256   25.9960 N   0  0  0  0  0  0  0  0  0  0  0  0
   12.0719  -18.7928   27.6724 C   0  0  0  0  0  0  0  0  0  0  0  0
   12.5820  -18.9305   28.9511 O   0  0  0  0  0  0  0  0  0  0  0  0
   12.6833  -19.3708   26.7495 O   0  0  0  0  0  0  0  0  0  0  0  0
  2  3  1  0
  2  1  1  1
  3  4  1  0
  4  9  2  0
  5  4  1  0
  5  6  2  0
  6  7  1  0
  7  8  2  0
  9  8  1  0
 10 12  1  0
 10  2  1  0
 11 10  2  0
 13 12  1  0
 13 14  1  6
 14 15  1  0
 15 16  1  0
 16 20  1  0
 17 16  2  0
 18 19  2  0
 18 13  1  0
 22 21  1  6
 22 24  1  0
 23 22  1  0
 24 26  1  0
 24 25  1  6
 25 18  1  0
 26 27  1  0
 28 26  2  0
M  END
$$$$
