FET.pdb
     RDKit          3D

 28 28  0  0  1  0  0  0  0  0999 V2000
    5.7820  -17.5338   23.6729 N   0  0  0  0  0  0  0  0  0  0  0  0
    6.5845  -16.5342   24.3040 C   0  0  1  0  0  0  0  0  0  0  0  0
    5.8984  -15.9936   25.5144 C   0  0  0  0  0  0  0  0  0  0  0  0
    6.6124  -14.7417   25.9044 C   0  0  0  0  0  0  0  0  0  0  0  0
    7.3928  -14.6537   27.0371 C   0  0  0  0  0  0  0  0  0  0  0  0
    8.0486  -13.4887   27.3927 C   0  0  0  0  0  0  0  0  0  0  0  0
    7.9423  -12.3494   26.6092 C   0  0  0  0  0  0  0  0  0  0  0  0
    7.1633  -12.4302   25.4747 C   0  0  0  0  0  0  0  0  0  0  0  0
    6.5059  -13.6028   25.1207 C   0  0  0  0  0  0  0  0  0  0  0  0
    7.9814  -16.9659   24.5263 C   0  0  0  0  0  0  0  0  0  0  0  0
    8.1959  -17.9088   25.3314 O   0  0  0  0  0  0  0  0  0  0  0  0
    9.0930  -16.3684   23.8753 N   0  0  0  0  0  0  0  0  0  0  0  0
   10.4664  -16.7683   24.0592 C   0  0  1  0  0  0  0  0  0  0  0  0
   11.3260  -16.6456   22.8620 C   0  0  0  0  0  0  0  0  0  0  0  0
   12.7629  -16.9749   23.0078 C   0  0  0  0  0  0  0  0  0  0  0  0
   13.5971  -16.9023   21.8231 C   0  0  0  0  0  0  0  0  0  0  0  0
   13.1329  -16.4590   20.7499 O   0  0  0  0  0  0  0  0  0  0  0  0
   11.0306  -16.2264   25.3188 C   0  0  0  0  0  0  0  0  0  0  0  0
   11.7144  -15.1825   25.2441 O   0  0  0  0  0  0  0  0  0  0  0  0
   14.9178  -17.3122   21.8240 O   0  0  0  0  0  0  0  0  0  0  0  0
   10.4114  -14.4075   28.2320 C   0  0  0  0  0  0  0  0  0  0  0  0
   10.6811  -15.8090   28.7973 C   0  0  1  0  0  0  0  0  0  0  0  0
    9.4068  -16.3581   28.9925 O   0  0  0  0  0  0  0  0  0  0  0  0
   11.4828  -16.5648   27.8068 C   0  0  2  0  0  0  0  0  0  0  0  0
   10.8292  -16.8294   26.5720 N   0  0  0  0  0  0  0  0  0  0  0  0
   12.0960  -17.7747   28.4172 C   0  0  0  0  0  0  0  0  0  0  0  0
   12.8420  -17.7220   29.5812 O   0  0  0  0  0  0  0  0  0  0  0  0
   11.9478  -18.8950   27.8854 O   0  0  0  0  0  0  0  0  0  0  0  0
  2  3  1  0
  2  1  1  1
  3  4  1  0
  4  9  2  0
  5  4  1  0
  5  6  2  0
  6  7  1  0
  7  8  2  0
  9  8  1  0
 10 12  1  0
 10  2  1  0
 11 10  2  0
 13 12  1  0
 13 14  1  6
 14 15  1  0
 15 16  1  0
 16 20  1  0
 17 16  2  0
 18 19  2  0
 18 13  1  0
 22 21  1  6
 22 24  1  0
 23 22  1  0
 24 26  1  0
 24 25  1  6
 25 18  1  0
 26 27  1  0
 28 26  2  0
M  END
$$$$
