VHE.pdb
     RDKit          3D

 27 27  0  0  1  0  0  0  0  0999 V2000
  -13.5749  -17.9728  -12.7374 C   0  0  0  0  0  0  0  0  0  0  0  0
  -14.6025  -17.9932  -11.6441 C   0  0  1  0  0  0  0  0  0  0  0  0
  -14.8731  -19.3958  -11.1419 C   0  0  0  0  0  0  0  0  0  0  0  0
  -14.0358  -17.2043  -10.4664 C   0  0  2  0  0  0  0  0  0  0  0  0
  -12.6273  -17.4793  -10.2876 N   0  0  0  0  0  0  0  0  0  0  0  0
  -14.7535  -17.6191   -9.2390 C   0  0  0  0  0  0  0  0  0  0  0  0
  -15.9486  -18.0258   -9.2574 O   0  0  0  0  0  0  0  0  0  0  0  0
  -14.0865  -17.5611   -8.0026 N   0  0  0  0  0  0  0  0  0  0  0  0
  -12.8778  -18.3793   -7.7208 C   0  0  1  0  0  0  0  0  0  0  0  0
  -13.1778  -19.0763   -6.4422 C   0  0  0  0  0  0  0  0  0  0  0  0
  -12.4327  -18.6358   -5.2572 C   0  0  0  0  0  0  0  0  0  0  0  0
  -11.0713  -18.5412   -5.1069 C   0  0  0  0  0  0  0  0  0  0  0  0
  -10.7478  -18.1235   -3.8672 N   0  0  0  0  0  0  0  0  0  0  0  0
  -11.9159  -17.9468   -3.2110 C   0  0  0  0  0  0  0  0  0  0  0  0
  -12.9277  -18.2534   -4.0425 N   0  0  0  0  0  0  0  0  0  0  0  0
  -12.6815  -19.2125   -8.9050 C   0  0  0  0  0  0  0  0  0  0  0  0
  -12.6519  -18.7256  -10.0586 O   0  0  0  0  0  0  0  0  0  0  0  0
  -12.5127  -20.6135   -8.7747 N   0  0  0  0  0  0  0  0  0  0  0  0
  -12.8061  -21.5335   -9.8555 C   0  0  1  0  0  0  0  0  0  0  0  0
  -13.6360  -22.6620   -9.2693 C   0  0  0  0  0  0  0  0  0  0  0  0
  -13.5183  -22.7143   -7.7657 C   0  0  0  0  0  0  0  0  0  0  0  0
  -13.0377  -24.0463   -7.3093 C   0  0  0  0  0  0  0  0  0  0  0  0
  -12.2923  -24.1170   -6.3027 O   0  0  0  0  0  0  0  0  0  0  0  0
  -13.4127  -20.9403  -11.0374 C   0  0  0  0  0  0  0  0  0  0  0  0
  -13.4558  -19.7476  -11.3736 O   0  0  0  0  0  0  0  0  0  0  0  0
  -13.3840  -25.2241   -7.9579 O   0  0  0  0  0  0  0  0  0  0  0  0
  -14.0397  -21.8371  -11.9280 O   0  0  0  0  0  0  0  0  0  0  0  0
  2  1  1  6
  2  4  1  0
  2  3  1  0
  4  5  1  1
  6  4  1  0
  6  7  2  0
  8  6  1  0
  9  8  1  0
  9 10  1  1
 11 10  1  0
 11 15  1  0
 12 13  1  0
 12 11  2  0
 13 14  1  0
 14 15  2  0
 16  9  1  0
 17 16  2  0
 18 16  1  0
 19 18  1  0
 19 24  1  0
 19 20  1  1
 21 20  1  0
 22 21  1  0
 22 26  1  0
 23 22  2  0
 24 27  1  0
 25 24  2  0
M  END
$$$$
