VHE.pdb
     RDKit          3D

 27 27  0  0  1  0  0  0  0  0999 V2000
   23.7183  -16.9616  -16.5665 C   0  0  0  0  0  0  0  0  0  0  0  0
   23.9763  -17.6445  -17.8775 C   0  0  1  0  0  0  0  0  0  0  0  0
   23.9194  -16.6804  -19.0436 C   0  0  0  0  0  0  0  0  0  0  0  0
   25.3973  -18.2009  -17.8337 C   0  0  2  0  0  0  0  0  0  0  0  0
   25.7148  -18.9094  -19.0537 N   0  0  0  0  0  0  0  0  0  0  0  0
   25.4909  -19.1517  -16.7020 C   0  0  0  0  0  0  0  0  0  0  0  0
   24.8185  -20.2194  -16.6564 O   0  0  0  0  0  0  0  0  0  0  0  0
   26.3584  -18.8624  -15.6340 N   0  0  0  0  0  0  0  0  0  0  0  0
   26.4841  -19.7607  -14.4562 C   0  0  1  0  0  0  0  0  0  0  0  0
   27.8486  -19.5045  -13.9241 C   0  0  0  0  0  0  0  0  0  0  0  0
   28.2008  -20.1622  -12.6605 C   0  0  0  0  0  0  0  0  0  0  0  0
   27.4257  -21.0106  -11.9093 C   0  0  0  0  0  0  0  0  0  0  0  0
   28.0734  -21.3997  -10.7934 N   0  0  0  0  0  0  0  0  0  0  0  0
   29.2810  -20.7940  -10.8266 C   0  0  0  0  0  0  0  0  0  0  0  0
   29.3597  -20.0513  -11.9453 N   0  0  0  0  0  0  0  0  0  0  0  0
   25.3563  -19.4311  -13.5875 C   0  0  0  0  0  0  0  0  0  0  0  0
   24.9737  -18.2503  -13.4200 O   0  0  0  0  0  0  0  0  0  0  0  0
   24.6539  -20.4561  -12.9062 N   0  0  0  0  0  0  0  0  0  0  0  0
   23.5826  -20.1728  -11.9721 C   0  0  1  0  0  0  0  0  0  0  0  0
   22.2911  -20.6456  -12.6160 C   0  0  0  0  0  0  0  0  0  0  0  0
   21.7756  -19.6475  -13.6236 C   0  0  0  0  0  0  0  0  0  0  0  0
   20.4874  -20.0975  -14.2166 C   0  0  0  0  0  0  0  0  0  0  0  0
   19.9852  -21.1834  -13.8393 O   0  0  0  0  0  0  0  0  0  0  0  0
   23.7682  -20.6953  -10.6270 C   0  0  0  0  0  0  0  0  0  0  0  0
   23.0997  -20.4715   -9.6070 O   0  0  0  0  0  0  0  0  0  0  0  0
   19.8131  -19.3578  -15.1789 O   0  0  0  0  0  0  0  0  0  0  0  0
   24.8547  -21.5778  -10.4499 O   0  0  0  0  0  0  0  0  0  0  0  0
  2  1  1  1
  2  4  1  0
  2  3  1  0
  4  5  1  6
  6  4  1  0
  6  7  2  0
  8  6  1  0
  9  8  1  0
  9 10  1  1
 11 10  1  0
 11 15  1  0
 12 13  1  0
 12 11  2  0
 13 14  1  0
 14 15  2  0
 16  9  1  0
 17 16  2  0
 18 16  1  0
 19 18  1  0
 19 24  1  0
 19 20  1  6
 21 20  1  0
 22 21  1  0
 22 26  1  0
 23 22  2  0
 24 27  1  0
 25 24  2  0
M  END
$$$$
