VHE.pdb
     RDKit          3D

 27 27  0  0  1  0  0  0  0  0999 V2000
   25.0768  -35.4458  -10.6387 C   0  0  0  0  0  0  0  0  0  0  0  0
   25.0588  -36.8695  -10.1652 C   0  0  1  0  0  0  0  0  0  0  0  0
   26.4479  -37.3834   -9.8505 C   0  0  0  0  0  0  0  0  0  0  0  0
   24.2672  -36.9096   -8.8605 C   0  0  2  0  0  0  0  0  0  0  0  0
   22.8757  -36.5882   -9.0879 N   0  0  0  0  0  0  0  0  0  0  0  0
   24.8366  -35.8999   -7.9386 C   0  0  0  0  0  0  0  0  0  0  0  0
   26.0156  -35.4635   -8.0558 O   0  0  0  0  0  0  0  0  0  0  0  0
   24.0415  -35.4031   -6.8908 N   0  0  0  0  0  0  0  0  0  0  0  0
   24.5526  -34.3964   -5.9237 C   0  0  1  0  0  0  0  0  0  0  0  0
   23.6107  -33.2510   -6.0308 C   0  0  0  0  0  0  0  0  0  0  0  0
   23.8466  -32.2997   -7.1229 C   0  0  0  0  0  0  0  0  0  0  0  0
   24.8894  -32.2859   -8.0159 C   0  0  0  0  0  0  0  0  0  0  0  0
   24.7880  -31.2438   -8.8643 N   0  0  0  0  0  0  0  0  0  0  0  0
   23.6657  -30.5781   -8.5130 C   0  0  0  0  0  0  0  0  0  0  0  0
   23.0994  -31.2093   -7.4690 N   0  0  0  0  0  0  0  0  0  0  0  0
   24.6213  -35.0859   -4.6372 C   0  0  0  0  0  0  0  0  0  0  0  0
   23.7569  -35.9226   -4.2883 O   0  0  0  0  0  0  0  0  0  0  0  0
   25.6870  -34.8240   -3.7405 N   0  0  0  0  0  0  0  0  0  0  0  0
   25.8249  -35.5190   -2.4762 C   0  0  1  0  0  0  0  0  0  0  0  0
   27.3080  -35.7627   -2.2593 C   0  0  0  0  0  0  0  0  0  0  0  0
   27.5655  -36.5082   -0.9727 C   0  0  0  0  0  0  0  0  0  0  0  0
   29.0240  -36.6635   -0.7232 C   0  0  0  0  0  0  0  0  0  0  0  0
   29.5909  -35.8984    0.0936 O   0  0  0  0  0  0  0  0  0  0  0  0
   25.1839  -34.8814   -1.3364 C   0  0  0  0  0  0  0  0  0  0  0  0
   24.7431  -33.7266   -1.2379 O   0  0  0  0  0  0  0  0  0  0  0  0
   29.7892  -37.6292   -1.3632 O   0  0  0  0  0  0  0  0  0  0  0  0
   25.0401  -35.6784   -0.1810 O   0  0  0  0  0  0  0  0  0  0  0  0
  2  1  1  1
  2  4  1  0
  2  3  1  0
  4  5  1  6
  6  4  1  0
  6  7  2  0
  8  6  1  0
  9  8  1  0
  9 10  1  1
 11 10  1  0
 11 15  1  0
 12 13  1  0
 12 11  2  0
 13 14  1  0
 14 15  2  0
 16  9  1  0
 17 16  2  0
 18 16  1  0
 19 18  1  0
 19 24  1  0
 19 20  1  1
 21 20  1  0
 22 21  1  0
 22 26  1  0
 23 22  2  0
 24 27  1  0
 25 24  2  0
M  END
$$$$
