VHE.pdb
     RDKit          3D

 27 27  0  0  1  0  0  0  0  0999 V2000
   27.3771  -24.5626  -19.1648 C   0  0  0  0  0  0  0  0  0  0  0  0
   26.5422  -24.1488  -17.9886 C   0  0  1  0  0  0  0  0  0  0  0  0
   25.2767  -24.9716  -17.8699 C   0  0  0  0  0  0  0  0  0  0  0  0
   27.3612  -24.4144  -16.7279 C   0  0  2  0  0  0  0  0  0  0  0  0
   27.7814  -25.7967  -16.6640 N   0  0  0  0  0  0  0  0  0  0  0  0
   26.5098  -24.1286  -15.5502 C   0  0  0  0  0  0  0  0  0  0  0  0
   25.7936  -25.0118  -15.0014 O   0  0  0  0  0  0  0  0  0  0  0  0
   26.4924  -22.8279  -15.0167 N   0  0  0  0  0  0  0  0  0  0  0  0
   25.6351  -22.4634  -13.8583 C   0  0  1  0  0  0  0  0  0  0  0  0
   26.4055  -21.4249  -13.1245 C   0  0  0  0  0  0  0  0  0  0  0  0
   25.8021  -20.8980  -11.8950 C   0  0  0  0  0  0  0  0  0  0  0  0
   25.9569  -21.3671  -10.6140 C   0  0  0  0  0  0  0  0  0  0  0  0
   25.2262  -20.6456   -9.7414 N   0  0  0  0  0  0  0  0  0  0  0  0
   24.5928  -19.6999  -10.4698 C   0  0  0  0  0  0  0  0  0  0  0  0
   24.9365  -19.8492  -11.7616 N   0  0  0  0  0  0  0  0  0  0  0  0
   24.3511  -22.0628  -14.4294 C   0  0  0  0  0  0  0  0  0  0  0  0
   24.1636  -22.0159  -15.6668 O   0  0  0  0  0  0  0  0  0  0  0  0
   23.2682  -21.7164  -13.5834 N   0  0  0  0  0  0  0  0  0  0  0  0
   21.8940  -21.7168  -14.0439 C   0  0  1  0  0  0  0  0  0  0  0  0
   21.6193  -23.0902  -14.6306 C   0  0  0  0  0  0  0  0  0  0  0  0
   20.2004  -23.2062  -15.1312 C   0  0  0  0  0  0  0  0  0  0  0  0
   20.1065  -24.1637  -16.2661 C   0  0  0  0  0  0  0  0  0  0  0  0
   20.3503  -25.3779  -16.0653 O   0  0  0  0  0  0  0  0  0  0  0  0
   20.9019  -21.3138  -13.0590 C   0  0  0  0  0  0  0  0  0  0  0  0
   20.9627  -21.3800  -11.8223 O   0  0  0  0  0  0  0  0  0  0  0  0
   19.7569  -23.7643  -17.5490 O   0  0  0  0  0  0  0  0  0  0  0  0
   19.7041  -20.7729  -13.5720 O   0  0  0  0  0  0  0  0  0  0  0  0
  2  1  1  6
  2  4  1  0
  2  3  1  0
  4  5  1  1
  6  4  1  0
  6  7  2  0
  8  6  1  0
  9  8  1  0
  9 10  1  6
 11 10  1  0
 11 15  1  0
 12 13  1  0
 12 11  2  0
 13 14  1  0
 14 15  2  0
 16  9  1  0
 17 16  2  0
 18 16  1  0
 19 18  1  0
 19 24  1  0
 19 20  1  1
 21 20  1  0
 22 21  1  0
 22 26  1  0
 23 22  2  0
 24 27  1  0
 25 24  2  0
M  END
$$$$
