VHE.pdb
     RDKit          3D

 27 27  0  0  1  0  0  0  0  0999 V2000
   17.9349  -16.3215  -16.3609 C   0  0  0  0  0  0  0  0  0  0  0  0
   18.6303  -15.0864  -16.8531 C   0  0  1  0  0  0  0  0  0  0  0  0
   18.0307  -14.5705  -18.1443 C   0  0  0  0  0  0  0  0  0  0  0  0
   18.4259  -13.9956  -15.8048 C   0  0  2  0  0  0  0  0  0  0  0  0
   17.0195  -13.7874  -15.5403 N   0  0  0  0  0  0  0  0  0  0  0  0
   18.9960  -12.7330  -16.3286 C   0  0  0  0  0  0  0  0  0  0  0  0
   20.2051  -12.6283  -16.6769 O   0  0  0  0  0  0  0  0  0  0  0  0
   18.1668  -11.6035  -16.4458 N   0  0  0  0  0  0  0  0  0  0  0  0
   18.6675  -10.3118  -16.9848 C   0  0  1  0  0  0  0  0  0  0  0  0
   17.6759   -9.9201  -18.0211 C   0  0  0  0  0  0  0  0  0  0  0  0
   17.8686   -8.6141  -18.6619 C   0  0  0  0  0  0  0  0  0  0  0  0
   19.0528   -7.9643  -18.9076 C   0  0  0  0  0  0  0  0  0  0  0  0
   18.8382   -6.7682  -19.4900 N   0  0  0  0  0  0  0  0  0  0  0  0
   17.4987   -6.6463  -19.6210 C   0  0  0  0  0  0  0  0  0  0  0  0
   16.9151   -7.7520  -19.1251 N   0  0  0  0  0  0  0  0  0  0  0  0
   18.8074   -9.4301  -15.8280 C   0  0  0  0  0  0  0  0  0  0  0  0
   18.0446   -9.5122  -14.8379 O   0  0  0  0  0  0  0  0  0  0  0  0
   19.8286   -8.4481  -15.7955 N   0  0  0  0  0  0  0  0  0  0  0  0
   19.9216   -7.4610  -14.7383 C   0  0  1  0  0  0  0  0  0  0  0  0
   21.2374   -6.7267  -14.9266 C   0  0  0  0  0  0  0  0  0  0  0  0
   21.4961   -5.7544  -13.8018 C   0  0  0  0  0  0  0  0  0  0  0  0
   22.7367   -4.9694  -14.0435 C   0  0  0  0  0  0  0  0  0  0  0  0
   22.8027   -3.7858  -13.6327 O   0  0  0  0  0  0  0  0  0  0  0  0
   18.7843   -6.5618  -14.6175 C   0  0  0  0  0  0  0  0  0  0  0  0
   18.1845   -5.9429  -15.5090 O   0  0  0  0  0  0  0  0  0  0  0  0
   23.8333   -5.4984  -14.7108 O   0  0  0  0  0  0  0  0  0  0  0  0
   18.2899   -6.3605  -13.3115 O   0  0  0  0  0  0  0  0  0  0  0  0
  2  1  1  1
  2  4  1  0
  2  3  1  0
  4  5  1  6
  6  4  1  0
  6  7  2  0
  8  6  1  0
  9  8  1  0
  9 10  1  6
 11 10  1  0
 11 15  1  0
 12 13  1  0
 12 11  2  0
 13 14  1  0
 14 15  2  0
 16  9  1  0
 17 16  2  0
 18 16  1  0
 19 18  1  0
 19 24  1  0
 19 20  1  6
 21 20  1  0
 22 21  1  0
 22 26  1  0
 23 22  2  0
 24 27  1  0
 25 24  2  0
M  END
$$$$
