VHE.pdb
     RDKit          3D

 27 27  0  0  1  0  0  0  0  0999 V2000
   20.3029  -13.4767    5.5139 C   0  0  0  0  0  0  0  0  0  0  0  0
   19.0385  -12.7060    5.2714 C   0  0  1  0  0  0  0  0  0  0  0  0
   19.2562  -11.5310    4.3415 C   0  0  0  0  0  0  0  0  0  0  0  0
   18.0555  -13.6437    4.5749 C   0  0  2  0  0  0  0  0  0  0  0  0
   16.7604  -13.0183    4.4237 N   0  0  0  0  0  0  0  0  0  0  0  0
   17.8956  -14.8558    5.4109 C   0  0  0  0  0  0  0  0  0  0  0  0
   17.1978  -14.8662    6.4632 O   0  0  0  0  0  0  0  0  0  0  0  0
   18.5414  -16.0438    5.0259 N   0  0  0  0  0  0  0  0  0  0  0  0
   18.4002  -17.3039    5.8018 C   0  0  1  0  0  0  0  0  0  0  0  0
   17.9423  -18.3135    4.8110 C   0  0  0  0  0  0  0  0  0  0  0  0
   16.5033  -18.3570    4.5268 C   0  0  0  0  0  0  0  0  0  0  0  0
   15.5077  -17.6135    5.1107 C   0  0  0  0  0  0  0  0  0  0  0  0
   14.2996  -17.9448    4.6139 N   0  0  0  0  0  0  0  0  0  0  0  0
   14.5202  -18.9140    3.6984 C   0  0  0  0  0  0  0  0  0  0  0  0
   15.8409  -19.1629    3.6443 N   0  0  0  0  0  0  0  0  0  0  0  0
   19.7004  -17.5273    6.4300 C   0  0  0  0  0  0  0  0  0  0  0  0
   20.7733  -17.2527    5.8451 O   0  0  0  0  0  0  0  0  0  0  0  0
   19.7803  -18.0645    7.7390 N   0  0  0  0  0  0  0  0  0  0  0  0
   21.0341  -18.1708    8.4582 C   0  0  1  0  0  0  0  0  0  0  0  0
   21.6025  -16.7675    8.5757 C   0  0  0  0  0  0  0  0  0  0  0  0
   22.1591  -16.5079    9.9542 C   0  0  0  0  0  0  0  0  0  0  0  0
   22.0524  -15.0686   10.3155 C   0  0  0  0  0  0  0  0  0  0  0  0
   20.9337  -14.5975   10.6321 O   0  0  0  0  0  0  0  0  0  0  0  0
   20.9679  -18.8630    9.7361 C   0  0  0  0  0  0  0  0  0  0  0  0
   20.0087  -18.9675   10.5149 O   0  0  0  0  0  0  0  0  0  0  0  0
   23.1505  -14.2188   10.3165 O   0  0  0  0  0  0  0  0  0  0  0  0
   22.1522  -19.5060   10.1541 O   0  0  0  0  0  0  0  0  0  0  0  0
  2  1  1  6
  2  4  1  0
  2  3  1  0
  4  5  1  1
  6  4  1  0
  6  7  2  0
  8  6  1  0
  9  8  1  0
  9 10  1  6
 11 10  1  0
 11 15  1  0
 12 13  1  0
 12 11  2  0
 13 14  1  0
 14 15  2  0
 16  9  1  0
 17 16  2  0
 18 16  1  0
 19 18  1  0
 19 24  1  0
 19 20  1  1
 21 20  1  0
 22 21  1  0
 22 26  1  0
 23 22  2  0
 24 27  1  0
 25 24  2  0
M  END
$$$$
