VHE.pdb
     RDKit          3D

 27 27  0  0  1  0  0  0  0  0999 V2000
   21.2578  -13.4058  -19.9943 C   0  0  0  0  0  0  0  0  0  0  0  0
   20.4630  -12.3863  -19.2325 C   0  0  1  0  0  0  0  0  0  0  0  0
   19.5531  -13.0247  -18.2042 C   0  0  0  0  0  0  0  0  0  0  0  0
   21.4521  -11.5128  -18.4649 C   0  0  2  0  0  0  0  0  0  0  0  0
   22.2490  -12.3071  -17.5563 N   0  0  0  0  0  0  0  0  0  0  0  0
   20.6842  -10.5245  -17.6730 C   0  0  0  0  0  0  0  0  0  0  0  0
   19.8808   -9.7078  -18.2037 O   0  0  0  0  0  0  0  0  0  0  0  0
   20.8499  -10.4872  -16.2772 N   0  0  0  0  0  0  0  0  0  0  0  0
   20.1745   -9.4686  -15.4311 C   0  0  1  0  0  0  0  0  0  0  0  0
   19.4162  -10.2529  -14.4209 C   0  0  0  0  0  0  0  0  0  0  0  0
   18.0145  -10.5549  -14.7330 C   0  0  0  0  0  0  0  0  0  0  0  0
   17.3209  -10.2417  -15.8757 C   0  0  0  0  0  0  0  0  0  0  0  0
   16.0413  -10.6566  -15.7957 N   0  0  0  0  0  0  0  0  0  0  0  0
   15.9093  -11.2444  -14.5861 C   0  0  0  0  0  0  0  0  0  0  0  0
   17.0913  -11.1846  -13.9469 N   0  0  0  0  0  0  0  0  0  0  0  0
   21.2392   -8.5977  -14.9380 C   0  0  0  0  0  0  0  0  0  0  0  0
   22.2803   -9.0572  -14.4148 O   0  0  0  0  0  0  0  0  0  0  0  0
   21.1200   -7.1897  -15.0456 N   0  0  0  0  0  0  0  0  0  0  0  0
   22.1845   -6.2891  -14.6503 C   0  0  1  0  0  0  0  0  0  0  0  0
   22.4037   -5.3233  -15.8015 C   0  0  0  0  0  0  0  0  0  0  0  0
   21.3089   -4.2872  -15.8728 C   0  0  0  0  0  0  0  0  0  0  0  0
   21.4683   -3.4169  -17.0690 C   0  0  0  0  0  0  0  0  0  0  0  0
   22.4621   -3.5796  -17.8172 O   0  0  0  0  0  0  0  0  0  0  0  0
   21.9952   -5.6151  -13.3749 C   0  0  0  0  0  0  0  0  0  0  0  0
   20.9554   -5.4826  -12.7124 O   0  0  0  0  0  0  0  0  0  0  0  0
   20.5537   -2.4238  -17.3932 O   0  0  0  0  0  0  0  0  0  0  0  0
   23.1464   -5.0295  -12.8071 O   0  0  0  0  0  0  0  0  0  0  0  0
  2  1  1  1
  2  4  1  0
  2  3  1  0
  4  5  1  1
  6  4  1  0
  6  7  2  0
  8  6  1  0
  9  8  1  0
  9 10  1  1
 11 10  1  0
 11 15  1  0
 12 13  1  0
 12 11  2  0
 13 14  1  0
 14 15  2  0
 16  9  1  0
 17 16  2  0
 18 16  1  0
 19 18  1  0
 19 24  1  0
 19 20  1  6
 21 20  1  0
 22 21  1  0
 22 26  1  0
 23 22  2  0
 24 27  1  0
 25 24  2  0
M  END
$$$$
