VHE.pdb
     RDKit          3D

 27 27  0  0  1  0  0  0  0  0999 V2000
   24.1483  -13.1686  -19.5119 C   0  0  0  0  0  0  0  0  0  0  0  0
   23.0081  -12.3268  -19.0191 C   0  0  1  0  0  0  0  0  0  0  0  0
   21.9139  -13.1618  -18.3879 C   0  0  0  0  0  0  0  0  0  0  0  0
   23.5522  -11.4120  -17.9246 C   0  0  2  0  0  0  0  0  0  0  0  0
   24.0424  -12.1809  -16.8022 N   0  0  0  0  0  0  0  0  0  0  0  0
   22.4492  -10.5440  -17.4518 C   0  0  0  0  0  0  0  0  0  0  0  0
   21.8570   -9.7267  -18.2105 O   0  0  0  0  0  0  0  0  0  0  0  0
   22.0398  -10.6264  -16.1092 N   0  0  0  0  0  0  0  0  0  0  0  0
   20.9153   -9.8124  -15.5776 C   0  0  1  0  0  0  0  0  0  0  0  0
   20.1828  -10.7252  -14.6606 C   0  0  0  0  0  0  0  0  0  0  0  0
   19.0616  -11.4791  -15.2332 C   0  0  0  0  0  0  0  0  0  0  0  0
   18.5568  -11.3979  -16.5074 C   0  0  0  0  0  0  0  0  0  0  0  0
   17.5041  -12.2242  -16.6659 N   0  0  0  0  0  0  0  0  0  0  0  0
   17.3290  -12.8454  -15.4786 C   0  0  0  0  0  0  0  0  0  0  0  0
   18.2617  -12.4003  -14.6179 N   0  0  0  0  0  0  0  0  0  0  0  0
   21.5323   -8.6269  -14.9867 C   0  0  0  0  0  0  0  0  0  0  0  0
   22.5754   -8.6985  -14.2971 O   0  0  0  0  0  0  0  0  0  0  0  0
   20.9590   -7.3464  -15.1865 N   0  0  0  0  0  0  0  0  0  0  0  0
   21.5396   -6.1414  -14.6284 C   0  0  1  0  0  0  0  0  0  0  0  0
   22.6252   -5.6830  -15.5862 C   0  0  0  0  0  0  0  0  0  0  0  0
   23.3311   -4.4506  -15.0761 C   0  0  0  0  0  0  0  0  0  0  0  0
   22.7869   -3.2182  -15.7075 C   0  0  0  0  0  0  0  0  0  0  0  0
   22.6652   -3.1714  -16.9552 O   0  0  0  0  0  0  0  0  0  0  0  0
   20.5956   -5.0854  -14.2963 C   0  0  0  0  0  0  0  0  0  0  0  0
   19.6407   -4.6585  -14.9623 O   0  0  0  0  0  0  0  0  0  0  0  0
   22.4052   -2.1087  -14.9652 O   0  0  0  0  0  0  0  0  0  0  0  0
   20.7848   -4.4555  -13.0481 O   0  0  0  0  0  0  0  0  0  0  0  0
  2  1  1  1
  2  4  1  0
  2  3  1  0
  4  5  1  1
  6  4  1  0
  6  7  2  0
  8  6  1  0
  9  8  1  0
  9 10  1  1
 11 10  1  0
 11 15  1  0
 12 13  1  0
 12 11  2  0
 13 14  1  0
 14 15  2  0
 16  9  1  0
 17 16  2  0
 18 16  1  0
 19 18  1  0
 19 24  1  0
 19 20  1  6
 21 20  1  0
 22 21  1  0
 22 26  1  0
 23 22  2  0
 24 27  1  0
 25 24  2  0
M  END
$$$$
