VHE.pdb
     RDKit          3D

 27 27  0  0  1  0  0  0  0  0999 V2000
   20.0797  -15.4312  -17.9762 C   0  0  0  0  0  0  0  0  0  0  0  0
   19.3782  -14.1062  -17.9141 C   0  0  1  0  0  0  0  0  0  0  0  0
   18.2164  -14.1209  -16.9432 C   0  0  0  0  0  0  0  0  0  0  0  0
   20.3795  -13.0805  -17.3888 C   0  0  2  0  0  0  0  0  0  0  0  0
   20.8562  -13.4474  -16.0737 N   0  0  0  0  0  0  0  0  0  0  0  0
   19.6964  -11.7701  -17.2907 C   0  0  0  0  0  0  0  0  0  0  0  0
   19.1423  -11.2187  -18.2822 O   0  0  0  0  0  0  0  0  0  0  0  0
   19.6587  -11.1081  -16.0508 N   0  0  0  0  0  0  0  0  0  0  0  0
   19.0684   -9.7522  -15.8998 C   0  0  1  0  0  0  0  0  0  0  0  0
   17.8713   -9.9502  -15.0405 C   0  0  0  0  0  0  0  0  0  0  0  0
   16.6123  -10.2711  -15.7226 C   0  0  0  0  0  0  0  0  0  0  0  0
   16.0173   -9.5889  -16.7549 C   0  0  0  0  0  0  0  0  0  0  0  0
   14.8512  -10.1643  -17.1084 N   0  0  0  0  0  0  0  0  0  0  0  0
   14.6933  -11.2306  -16.2933 C   0  0  0  0  0  0  0  0  0  0  0  0
   15.7481  -11.2967  -15.4614 N   0  0  0  0  0  0  0  0  0  0  0  0
   20.1401   -8.9131  -15.3682 C   0  0  0  0  0  0  0  0  0  0  0  0
   20.8126   -9.2541  -14.3681 O   0  0  0  0  0  0  0  0  0  0  0  0
   20.4527   -7.6755  -15.9838 N   0  0  0  0  0  0  0  0  0  0  0  0
   21.4564   -6.7762  -15.4506 C   0  0  1  0  0  0  0  0  0  0  0  0
   21.6510   -5.6680  -16.4704 C   0  0  0  0  0  0  0  0  0  0  0  0
   22.6490   -4.6423  -15.9917 C   0  0  0  0  0  0  0  0  0  0  0  0
   22.7520   -3.5052  -16.9458 C   0  0  0  0  0  0  0  0  0  0  0  0
   22.1062   -3.5465  -18.0205 O   0  0  0  0  0  0  0  0  0  0  0  0
   21.1991   -6.2723  -14.1102 C   0  0  0  0  0  0  0  0  0  0  0  0
   20.1191   -5.9439  -13.5971 O   0  0  0  0  0  0  0  0  0  0  0  0
   23.5408   -2.3910  -16.6923 O   0  0  0  0  0  0  0  0  0  0  0  0
   22.3265   -6.1356  -13.2730 O   0  0  0  0  0  0  0  0  0  0  0  0
  2  1  1  1
  2  4  1  0
  2  3  1  0
  4  5  1  1
  6  4  1  0
  6  7  2  0
  8  6  1  0
  9  8  1  0
  9 10  1  1
 11 10  1  0
 11 15  1  0
 12 13  1  0
 12 11  2  0
 13 14  1  0
 14 15  2  0
 16  9  1  0
 17 16  2  0
 18 16  1  0
 19 18  1  0
 19 24  1  0
 19 20  1  6
 21 20  1  0
 22 21  1  0
 22 26  1  0
 23 22  2  0
 24 27  1  0
 25 24  2  0
M  END
$$$$
