VHE.pdb
     RDKit          3D

 27 27  0  0  1  0  0  0  0  0999 V2000
   25.6967  -13.8357  -16.0366 C   0  0  0  0  0  0  0  0  0  0  0  0
   25.5774  -15.1461  -15.3153 C   0  0  1  0  0  0  0  0  0  0  0  0
   24.1414  -15.6177  -15.2232 C   0  0  0  0  0  0  0  0  0  0  0  0
   26.3334  -16.1906  -16.1326 C   0  0  2  0  0  0  0  0  0  0  0  0
   26.6830  -15.6747  -17.4375 N   0  0  0  0  0  0  0  0  0  0  0  0
   25.4523  -17.3671  -16.3147 C   0  0  0  0  0  0  0  0  0  0  0  0
   24.6281  -17.4557  -17.2670 O   0  0  0  0  0  0  0  0  0  0  0  0
   25.5300  -18.4299  -15.3974 N   0  0  0  0  0  0  0  0  0  0  0  0
   24.7355  -19.6750  -15.5658 C   0  0  1  0  0  0  0  0  0  0  0  0
   25.6955  -20.7794  -15.3026 C   0  0  0  0  0  0  0  0  0  0  0  0
   25.1443  -22.1385  -15.2548 C   0  0  0  0  0  0  0  0  0  0  0  0
   23.8243  -22.5130  -15.3028 C   0  0  0  0  0  0  0  0  0  0  0  0
   23.6956  -23.8510  -15.2065 N   0  0  0  0  0  0  0  0  0  0  0  0
   24.9488  -24.3442  -15.0950 C   0  0  0  0  0  0  0  0  0  0  0  0
   25.8192  -23.3192  -15.1237 N   0  0  0  0  0  0  0  0  0  0  0  0
   23.6015  -19.5448  -14.6535 C   0  0  0  0  0  0  0  0  0  0  0  0
   23.7385  -19.1138  -13.4855 O   0  0  0  0  0  0  0  0  0  0  0  0
   22.2976  -19.9046  -15.0762 N   0  0  0  0  0  0  0  0  0  0  0  0
   21.1395  -19.7729  -14.2148 C   0  0  1  0  0  0  0  0  0  0  0  0
   20.3285  -18.5980  -14.7324 C   0  0  0  0  0  0  0  0  0  0  0  0
   19.1053  -18.3512  -13.8837 C   0  0  0  0  0  0  0  0  0  0  0  0
   18.2427  -17.2941  -14.4770 C   0  0  0  0  0  0  0  0  0  0  0  0
   18.5515  -16.8042  -15.5899 O   0  0  0  0  0  0  0  0  0  0  0  0
   20.3432  -20.9786  -14.0449 C   0  0  0  0  0  0  0  0  0  0  0  0
   20.1093  -21.8778  -14.8660 O   0  0  0  0  0  0  0  0  0  0  0  0
   17.1001  -16.8242  -13.8433 O   0  0  0  0  0  0  0  0  0  0  0  0
   19.7530  -21.1573  -12.7759 O   0  0  0  0  0  0  0  0  0  0  0  0
  2  1  1  6
  2  4  1  0
  2  3  1  0
  4  5  1  6
  6  4  1  0
  6  7  2  0
  8  6  1  0
  9  8  1  0
  9 10  1  1
 11 10  1  0
 11 15  1  0
 12 13  1  0
 12 11  2  0
 13 14  1  0
 14 15  2  0
 16  9  1  0
 17 16  2  0
 18 16  1  0
 19 18  1  0
 19 24  1  0
 19 20  1  6
 21 20  1  0
 22 21  1  0
 22 26  1  0
 23 22  2  0
 24 27  1  0
 25 24  2  0
M  END
$$$$
