VHE.pdb
     RDKit          3D

 27 27  0  0  1  0  0  0  0  0999 V2000
   18.7939  -13.0934  -17.7053 C   0  0  0  0  0  0  0  0  0  0  0  0
   20.1764  -12.7728  -17.2178 C   0  0  1  0  0  0  0  0  0  0  0  0
   21.0770  -12.2893  -18.3349 C   0  0  0  0  0  0  0  0  0  0  0  0
   20.0564  -11.6244  -16.2191 C   0  0  2  0  0  0  0  0  0  0  0  0
   19.1381  -10.6149  -16.6973 N   0  0  0  0  0  0  0  0  0  0  0  0
   21.3920  -11.0046  -16.0590 C   0  0  0  0  0  0  0  0  0  0  0  0
   22.4057  -11.6634  -15.6948 O   0  0  0  0  0  0  0  0  0  0  0  0
   21.5460   -9.6317  -16.3201 N   0  0  0  0  0  0  0  0  0  0  0  0
   22.8730   -8.9639  -16.2660 C   0  0  1  0  0  0  0  0  0  0  0  0
   23.6926   -9.6588  -17.2935 C   0  0  0  0  0  0  0  0  0  0  0  0
   24.7369  -10.5665  -16.8047 C   0  0  0  0  0  0  0  0  0  0  0  0
   25.0896  -10.8191  -15.5021 C   0  0  0  0  0  0  0  0  0  0  0  0
   26.1139  -11.6923  -15.4373 N   0  0  0  0  0  0  0  0  0  0  0  0
   26.4248  -12.0060  -16.7145 C   0  0  0  0  0  0  0  0  0  0  0  0
   25.6004  -11.3321  -17.5363 N   0  0  0  0  0  0  0  0  0  0  0  0
   22.6071   -7.5422  -16.4740 C   0  0  0  0  0  0  0  0  0  0  0  0
   22.3301   -7.0797  -17.6045 O   0  0  0  0  0  0  0  0  0  0  0  0
   22.6524   -6.6383  -15.3834 N   0  0  0  0  0  0  0  0  0  0  0  0
   22.2649   -5.2478  -15.5126 C   0  0  1  0  0  0  0  0  0  0  0  0
   20.8748   -5.2257  -16.1235 C   0  0  0  0  0  0  0  0  0  0  0  0
   19.8201   -5.6157  -15.1171 C   0  0  0  0  0  0  0  0  0  0  0  0
   18.4554   -5.5165  -15.7016 C   0  0  0  0  0  0  0  0  0  0  0  0
   17.7081   -6.5240  -15.6878 O   0  0  0  0  0  0  0  0  0  0  0  0
   22.3610   -4.4540  -14.2971 C   0  0  0  0  0  0  0  0  0  0  0  0
   22.6170   -4.8276  -13.1428 O   0  0  0  0  0  0  0  0  0  0  0  0
   17.9718   -4.3438  -16.2662 O   0  0  0  0  0  0  0  0  0  0  0  0
   22.1335   -3.0691  -14.4423 O   0  0  0  0  0  0  0  0  0  0  0  0
  2  1  1  6
  2  4  1  0
  2  3  1  0
  4  5  1  6
  6  4  1  0
  6  7  2  0
  8  6  1  0
  9  8  1  0
  9 10  1  6
 11 10  1  0
 11 15  1  0
 12 13  1  0
 12 11  2  0
 13 14  1  0
 14 15  2  0
 16  9  1  0
 17 16  2  0
 18 16  1  0
 19 18  1  0
 19 24  1  0
 19 20  1  1
 21 20  1  0
 22 21  1  0
 22 26  1  0
 23 22  2  0
 24 27  1  0
 25 24  2  0
M  END
$$$$
