VHE.pdb
     RDKit          3D

 27 27  0  0  1  0  0  0  0  0999 V2000
   28.1208  -27.4798  -18.8778 C   0  0  0  0  0  0  0  0  0  0  0  0
   27.6843  -26.1991  -18.2291 C   0  0  1  0  0  0  0  0  0  0  0  0
   26.4231  -26.3757  -17.4100 C   0  0  0  0  0  0  0  0  0  0  0  0
   28.7850  -25.7771  -17.2592 C   0  0  2  0  0  0  0  0  0  0  0  0
   28.9718  -26.7687  -16.2233 N   0  0  0  0  0  0  0  0  0  0  0  0
   28.3806  -24.5033  -16.6208 C   0  0  0  0  0  0  0  0  0  0  0  0
   27.9210  -24.4499  -15.4460 O   0  0  0  0  0  0  0  0  0  0  0  0
   28.5099  -23.3037  -17.3427 N   0  0  0  0  0  0  0  0  0  0  0  0
   28.1345  -21.9891  -16.7590 C   0  0  1  0  0  0  0  0  0  0  0  0
   29.0419  -21.0083  -17.4112 C   0  0  0  0  0  0  0  0  0  0  0  0
   28.7710  -19.5879  -17.1614 C   0  0  0  0  0  0  0  0  0  0  0  0
   27.7447  -19.0433  -16.4298 C   0  0  0  0  0  0  0  0  0  0  0  0
   27.8011  -17.6969  -16.4423 N   0  0  0  0  0  0  0  0  0  0  0  0
   28.8774  -17.3705  -17.1914 C   0  0  0  0  0  0  0  0  0  0  0  0
   29.4606  -18.5028  -17.6238 N   0  0  0  0  0  0  0  0  0  0  0  0
   26.7023  -21.8419  -17.0088 C   0  0  0  0  0  0  0  0  0  0  0  0
   26.1736  -22.2316  -18.0753 O   0  0  0  0  0  0  0  0  0  0  0  0
   25.8625  -21.2494  -16.0331 N   0  0  0  0  0  0  0  0  0  0  0  0
   24.4343  -21.0987  -16.2280 C   0  0  1  0  0  0  0  0  0  0  0  0
   23.8383  -20.7106  -14.8863 C   0  0  0  0  0  0  0  0  0  0  0  0
   22.3342  -20.6101  -14.9554 C   0  0  0  0  0  0  0  0  0  0  0  0
   21.7646  -20.1573  -13.6576 C   0  0  0  0  0  0  0  0  0  0  0  0
   22.5406  -19.8716  -12.7142 O   0  0  0  0  0  0  0  0  0  0  0  0
   24.0387  -20.2019  -17.3032 C   0  0  0  0  0  0  0  0  0  0  0  0
   24.4610  -19.0652  -17.5624 O   0  0  0  0  0  0  0  0  0  0  0  0
   20.3975  -20.0374  -13.4470 O   0  0  0  0  0  0  0  0  0  0  0  0
   23.0389  -20.6830  -18.1747 O   0  0  0  0  0  0  0  0  0  0  0  0
  2  1  1  1
  2  4  1  0
  2  3  1  0
  4  5  1  1
  6  4  1  0
  6  7  2  0
  8  6  1  0
  9  8  1  0
  9 10  1  6
 11 10  1  0
 11 15  1  0
 12 13  1  0
 12 11  2  0
 13 14  1  0
 14 15  2  0
 16  9  1  0
 17 16  2  0
 18 16  1  0
 19 18  1  0
 19 24  1  0
 19 20  1  1
 21 20  1  0
 22 21  1  0
 22 26  1  0
 23 22  2  0
 24 27  1  0
 25 24  2  0
M  END
$$$$
