VPQ.pdb
     RDKit          3D

 24 24  0  0  1  0  0  0  0  0999 V2000
    7.4220  -15.5803   21.4633 C   0  0  0  0  0  0  0  0  0  0  0  0
    6.9302  -14.1617   21.3672 C   0  0  2  0  0  0  0  0  0  0  0  0
    6.2548  -13.9075   20.0645 C   0  0  0  0  0  0  0  0  0  0  0  0
    7.9771  -13.1459   21.7634 C   0  0  2  0  0  0  0  0  0  0  0  0
    8.9522  -12.8977   20.7494 N   0  0  0  0  0  0  0  0  0  0  0  0
    8.4928  -13.5198   23.0794 C   0  0  0  0  0  0  0  0  0  0  0  0
    9.6067  -14.1022   23.1238 O   0  0  0  0  0  0  0  0  0  0  0  0
    7.8194  -13.2709   24.3348 N   0  0  0  0  0  0  0  0  0  0  0  0
    6.5896  -12.5362   24.3900 C   0  0  0  0  0  0  0  0  0  0  0  0
    6.2101  -12.5082   25.8384 C   0  0  0  0  0  0  0  0  0  0  0  0
    7.4583  -12.8449   26.6010 C   0  0  0  0  0  0  0  0  0  0  0  0
    8.2303  -13.6792   25.6248 C   0  0  1  0  0  0  0  0  0  0  0  0
    7.9316  -15.1142   25.9151 C   0  0  0  0  0  0  0  0  0  0  0  0
    7.0493  -15.6996   25.2359 O   0  0  0  0  0  0  0  0  0  0  0  0
   12.3173  -17.2988   23.6550 N   0  0  0  0  0  0  0  0  0  0  0  0
   11.9932  -18.4406   24.4473 C   0  0  0  0  0  0  0  0  0  0  0  0
   12.6351  -19.4931   24.2330 O   0  0  0  0  0  0  0  0  0  0  0  0
   10.9496  -18.4158   25.4829 C   0  0  0  0  0  0  0  0  0  0  0  0
   10.2142  -17.1162   25.6125 C   0  0  0  0  0  0  0  0  0  0  0  0
    9.1986  -17.1683   26.6982 C   0  0  2  0  0  0  0  0  0  0  0  0
    8.6031  -15.8432   26.9256 N   0  0  0  0  0  0  0  0  0  0  0  0
    9.8653  -17.5424   27.9798 C   0  0  0  0  0  0  0  0  0  0  0  0
    9.9672  -18.8310   28.4754 O   0  0  0  0  0  0  0  0  0  0  0  0
   10.4051  -16.6544   28.7321 O   0  0  0  0  0  0  0  0  0  0  0  0
  2  1  1  6
  2  3  1  0
  4  6  1  0
  4  2  1  0
  4  5  1  6
  6  8  1  0
  6  7  2  0
  8  9  1  0
 10  9  1  0
 11 10  1  0
 11 12  1  0
 12  8  1  0
 12 13  1  1
 14 13  2  0
 16 15  1  0
 17 16  2  0
 18 16  1  0
 19 18  1  0
 20 21  1  0
 20 19  1  6
 21 13  1  0
 22 20  1  0
 23 22  1  0
 24 22  2  0
M  END
$$$$
