VPQ.pdb
     RDKit          3D

 24 24  0  0  1  0  0  0  0  0999 V2000
    7.1363  -14.8691   20.1168 C   0  0  0  0  0  0  0  0  0  0  0  0
    7.7160  -14.7468   21.4997 C   0  0  2  0  0  0  0  0  0  0  0  0
    6.9642  -15.5785   22.4799 C   0  0  0  0  0  0  0  0  0  0  0  0
    7.9549  -13.3130   21.9148 C   0  0  2  0  0  0  0  0  0  0  0  0
    8.6322  -12.5327   20.9284 N   0  0  0  0  0  0  0  0  0  0  0  0
    8.5480  -13.3234   23.2511 C   0  0  0  0  0  0  0  0  0  0  0  0
    9.7726  -13.5953   23.3420 O   0  0  0  0  0  0  0  0  0  0  0  0
    7.8335  -13.0447   24.4772 N   0  0  0  0  0  0  0  0  0  0  0  0
    6.4420  -12.6999   24.4691 C   0  0  0  0  0  0  0  0  0  0  0  0
    6.0738  -12.5069   25.9077 C   0  0  0  0  0  0  0  0  0  0  0  0
    7.3671  -12.3170   26.6452 C   0  0  0  0  0  0  0  0  0  0  0  0
    8.3487  -13.0631   25.7939 C   0  0  1  0  0  0  0  0  0  0  0  0
    8.4863  -14.4403   26.3570 C   0  0  0  0  0  0  0  0  0  0  0  0
    7.6097  -15.2991   26.0806 O   0  0  0  0  0  0  0  0  0  0  0  0
   12.2728  -17.8134   24.1184 N   0  0  0  0  0  0  0  0  0  0  0  0
   12.1670  -18.5316   25.3469 C   0  0  0  0  0  0  0  0  0  0  0  0
   12.5871  -19.7101   25.3649 O   0  0  0  0  0  0  0  0  0  0  0  0
   11.5900  -17.9399   26.5632 C   0  0  0  0  0  0  0  0  0  0  0  0
   11.1347  -16.5187   26.4237 C   0  0  0  0  0  0  0  0  0  0  0  0
   10.0095  -16.2117   27.3470 C   0  0  2  0  0  0  0  0  0  0  0  0
    9.5659  -14.8185   27.1907 N   0  0  0  0  0  0  0  0  0  0  0  0
   10.4810  -16.3350   28.7574 C   0  0  0  0  0  0  0  0  0  0  0  0
   10.5785  -17.5232   29.4613 O   0  0  0  0  0  0  0  0  0  0  0  0
   10.8374  -15.3034   29.4317 O   0  0  0  0  0  0  0  0  0  0  0  0
  2  1  1  6
  2  3  1  0
  4  6  1  0
  4  2  1  0
  4  5  1  6
  6  8  1  0
  6  7  2  0
  8  9  1  0
 10  9  1  0
 11 10  1  0
 11 12  1  0
 12  8  1  0
 12 13  1  1
 14 13  2  0
 16 15  1  0
 17 16  2  0
 18 16  1  0
 19 18  1  0
 20 21  1  0
 20 19  1  6
 21 13  1  0
 22 20  1  0
 23 22  1  0
 24 22  2  0
M  END
$$$$
