VPQ.pdb
     RDKit          3D

 24 24  0  0  1  0  0  0  0  0999 V2000
    6.9599  -16.2159   20.9676 C   0  0  0  0  0  0  0  0  0  0  0  0
    7.5687  -15.8458   22.2926 C   0  0  2  0  0  0  0  0  0  0  0  0
    6.6495  -16.1622   23.4208 C   0  0  0  0  0  0  0  0  0  0  0  0
    8.1535  -14.4519   22.3047 C   0  0  2  0  0  0  0  0  0  0  0  0
    9.0129  -14.1779   21.1970 N   0  0  0  0  0  0  0  0  0  0  0  0
    8.7130  -14.2092   23.6334 C   0  0  0  0  0  0  0  0  0  0  0  0
    9.9020  -14.5646   23.8378 O   0  0  0  0  0  0  0  0  0  0  0  0
    8.0032  -13.5911   24.7314 N   0  0  0  0  0  0  0  0  0  0  0  0
    6.6573  -13.1210   24.5805 C   0  0  0  0  0  0  0  0  0  0  0  0
    6.2773  -12.5721   25.9211 C   0  0  0  0  0  0  0  0  0  0  0  0
    7.5654  -12.3495   26.6586 C   0  0  0  0  0  0  0  0  0  0  0  0
    8.4816  -13.3623   26.0422 C   0  0  1  0  0  0  0  0  0  0  0  0
    8.4570  -14.5831   26.9034 C   0  0  0  0  0  0  0  0  0  0  0  0
    7.4909  -15.3816   26.7964 O   0  0  0  0  0  0  0  0  0  0  0  0
   11.5792  -18.9756   25.7354 N   0  0  0  0  0  0  0  0  0  0  0  0
   12.3280  -18.0801   26.5562 C   0  0  0  0  0  0  0  0  0  0  0  0
   13.5741  -18.0995   26.4444 O   0  0  0  0  0  0  0  0  0  0  0  0
   11.6913  -17.1580   27.5084 C   0  0  0  0  0  0  0  0  0  0  0  0
   10.1927  -17.1866   27.5145 C   0  0  0  0  0  0  0  0  0  0  0  0
    9.6308  -16.1959   28.4715 C   0  0  2  0  0  0  0  0  0  0  0  0
    9.4796  -14.8783   27.8366 N   0  0  0  0  0  0  0  0  0  0  0  0
   10.5897  -15.9994   29.5980 C   0  0  0  0  0  0  0  0  0  0  0  0
   10.9181  -16.9609   30.5383 O   0  0  0  0  0  0  0  0  0  0  0  0
   11.1911  -14.8795   29.7712 O   0  0  0  0  0  0  0  0  0  0  0  0
  2  1  1  6
  2  3  1  0
  4  6  1  0
  4  2  1  0
  4  5  1  6
  6  8  1  0
  6  7  2  0
  8  9  1  0
 10  9  1  0
 11 10  1  0
 11 12  1  0
 12  8  1  0
 12 13  1  1
 14 13  2  0
 16 15  1  0
 17 16  2  0
 18 16  1  0
 19 18  1  0
 20 21  1  0
 20 19  1  6
 21 13  1  0
 22 20  1  0
 23 22  1  0
 24 22  2  0
M  END
$$$$
