VPQ.pdb
     RDKit          3D

 24 24  0  0  1  0  0  0  0  0999 V2000
    7.3759  -18.0821   21.8501 C   0  0  0  0  0  0  0  0  0  0  0  0
    6.2858  -17.0838   21.5700 C   0  0  2  0  0  0  0  0  0  0  0  0
    5.0505  -17.3969   22.3405 C   0  0  0  0  0  0  0  0  0  0  0  0
    6.0820  -16.8311   20.0936 C   0  0  2  0  0  0  0  0  0  0  0  0
    5.5646  -17.9567   19.3823 N   0  0  0  0  0  0  0  0  0  0  0  0
    7.3094  -16.2392   19.5638 C   0  0  0  0  0  0  0  0  0  0  0  0
    8.0522  -16.9715   18.8611 O   0  0  0  0  0  0  0  0  0  0  0  0
    7.7349  -14.8751   19.7863 N   0  0  0  0  0  0  0  0  0  0  0  0
    6.9935  -13.9907   20.6368 C   0  0  0  0  0  0  0  0  0  0  0  0
    7.7517  -12.6993   20.6219 C   0  0  0  0  0  0  0  0  0  0  0  0
    8.6495  -12.7591   19.4206 C   0  0  0  0  0  0  0  0  0  0  0  0
    8.8697  -14.2304   19.2421 C   0  0  1  0  0  0  0  0  0  0  0  0
   10.1438  -14.5882   19.9359 C   0  0  0  0  0  0  0  0  0  0  0  0
   11.2204  -14.0835   19.5256 O   0  0  0  0  0  0  0  0  0  0  0  0
   11.5385  -18.4306   25.4241 N   0  0  0  0  0  0  0  0  0  0  0  0
   11.9937  -17.0805   25.3437 C   0  0  0  0  0  0  0  0  0  0  0  0
   12.1782  -16.4683   26.4192 O   0  0  0  0  0  0  0  0  0  0  0  0
   12.2445  -16.4041   24.0623 C   0  0  0  0  0  0  0  0  0  0  0  0
   11.0279  -16.1711   23.2184 C   0  0  0  0  0  0  0  0  0  0  0  0
   11.3886  -15.6659   21.8665 C   0  0  2  0  0  0  0  0  0  0  0  0
   10.1883  -15.4741   21.0391 N   0  0  0  0  0  0  0  0  0  0  0  0
   12.2124  -16.6905   21.1606 C   0  0  0  0  0  0  0  0  0  0  0  0
   13.5797  -16.6092   20.9594 O   0  0  0  0  0  0  0  0  0  0  0  0
   11.6802  -17.7521   20.6753 O   0  0  0  0  0  0  0  0  0  0  0  0
  2  1  1  6
  2  3  1  0
  4  6  1  0
  4  2  1  0
  4  5  1  6
  6  8  1  0
  6  7  2  0
  8  9  1  0
 10  9  1  0
 11 10  1  0
 11 12  1  0
 12  8  1  0
 12 13  1  1
 14 13  2  0
 16 15  1  0
 17 16  2  0
 18 16  1  0
 19 18  1  0
 20 21  1  0
 20 19  1  1
 21 13  1  0
 22 20  1  0
 23 22  1  0
 24 22  2  0
M  END
$$$$
