VPQ.pdb
     RDKit          3D

 24 24  0  0  1  0  0  0  0  0999 V2000
    7.7477  -16.6671   22.6904 C   0  0  0  0  0  0  0  0  0  0  0  0
    6.9807  -15.4327   22.3015 C   0  0  2  0  0  0  0  0  0  0  0  0
    6.0403  -15.7076   21.1800 C   0  0  0  0  0  0  0  0  0  0  0  0
    7.8653  -14.2200   22.1230 C   0  0  2  0  0  0  0  0  0  0  0  0
    8.6859  -14.2722   20.9548 N   0  0  0  0  0  0  0  0  0  0  0  0
    8.5556  -13.9752   23.3884 C   0  0  0  0  0  0  0  0  0  0  0  0
    9.7789  -14.2608   23.4485 O   0  0  0  0  0  0  0  0  0  0  0  0
    7.9385  -13.4293   24.5770 N   0  0  0  0  0  0  0  0  0  0  0  0
    6.5754  -12.9854   24.5744 C   0  0  0  0  0  0  0  0  0  0  0  0
    6.3106  -12.5124   25.9704 C   0  0  0  0  0  0  0  0  0  0  0  0
    7.6570  -12.2947   26.5971 C   0  0  0  0  0  0  0  0  0  0  0  0
    8.5319  -13.2533   25.8483 C   0  0  1  0  0  0  0  0  0  0  0  0
    8.6117  -14.5152   26.6446 C   0  0  0  0  0  0  0  0  0  0  0  0
    7.5891  -15.2423   26.7331 O   0  0  0  0  0  0  0  0  0  0  0  0
   12.4086  -18.7095   24.7020 N   0  0  0  0  0  0  0  0  0  0  0  0
   12.4624  -17.6606   25.6681 C   0  0  0  0  0  0  0  0  0  0  0  0
   13.5892  -17.3322   26.1017 O   0  0  0  0  0  0  0  0  0  0  0  0
   11.2588  -16.9723   26.1578 C   0  0  0  0  0  0  0  0  0  0  0  0
   11.0980  -16.9569   27.6480 C   0  0  0  0  0  0  0  0  0  0  0  0
    9.8960  -16.1837   28.0605 C   0  0  2  0  0  0  0  0  0  0  0  0
    9.7944  -14.9264   27.3047 N   0  0  0  0  0  0  0  0  0  0  0  0
   10.0307  -15.7897   29.4935 C   0  0  0  0  0  0  0  0  0  0  0  0
   10.0641  -16.6718   30.5599 O   0  0  0  0  0  0  0  0  0  0  0  0
   10.1255  -14.5576   29.8379 O   0  0  0  0  0  0  0  0  0  0  0  0
  2  1  1  6
  2  3  1  0
  4  6  1  0
  4  2  1  0
  4  5  1  6
  6  8  1  0
  6  7  2  0
  8  9  1  0
 10  9  1  0
 11 10  1  0
 11 12  1  0
 12  8  1  0
 12 13  1  1
 14 13  2  0
 16 15  1  0
 17 16  2  0
 18 16  1  0
 19 18  1  0
 20 21  1  0
 20 19  1  6
 21 13  1  0
 22 20  1  0
 23 22  1  0
 24 22  2  0
M  END
$$$$
