VPQ.pdb
     RDKit          3D

 24 24  0  0  1  0  0  0  0  0999 V2000
    8.1291  -13.5731   26.7879 C   0  0  0  0  0  0  0  0  0  0  0  0
    6.9868  -13.2051   25.8807 C   0  0  2  0  0  0  0  0  0  0  0  0
    6.1844  -12.0841   26.4440 C   0  0  0  0  0  0  0  0  0  0  0  0
    6.1903  -14.4038   25.4185 C   0  0  2  0  0  0  0  0  0  0  0  0
    5.5365  -15.1045   26.4778 N   0  0  0  0  0  0  0  0  0  0  0  0
    7.0465  -15.2044   24.5447 C   0  0  0  0  0  0  0  0  0  0  0  0
    7.2198  -16.4126   24.8480 O   0  0  0  0  0  0  0  0  0  0  0  0
    7.7098  -14.7126   23.3573 N   0  0  0  0  0  0  0  0  0  0  0  0
    7.6100  -13.3386   22.9608 C   0  0  0  0  0  0  0  0  0  0  0  0
    8.4334  -13.2255   21.7151 C   0  0  0  0  0  0  0  0  0  0  0  0
    8.6096  -14.6262   21.2056 C   0  0  0  0  0  0  0  0  0  0  0  0
    8.5090  -15.4497   22.4533 C   0  0  1  0  0  0  0  0  0  0  0  0
    9.8964  -15.6934   22.9519 C   0  0  0  0  0  0  0  0  0  0  0  0
   10.7747  -16.0784   22.1379 O   0  0  0  0  0  0  0  0  0  0  0  0
   11.1388  -16.0070   29.1179 N   0  0  0  0  0  0  0  0  0  0  0  0
   10.7944  -14.8201   28.4045 C   0  0  0  0  0  0  0  0  0  0  0  0
   10.3357  -13.8617   29.0654 O   0  0  0  0  0  0  0  0  0  0  0  0
   10.9582  -14.6953   26.9485 C   0  0  0  0  0  0  0  0  0  0  0  0
   11.6439  -15.8514   26.2852 C   0  0  0  0  0  0  0  0  0  0  0  0
   11.6309  -15.7182   24.8036 C   0  0  2  0  0  0  0  0  0  0  0  0
   10.2631  -15.5076   24.3063 N   0  0  0  0  0  0  0  0  0  0  0  0
   12.0972  -16.9957   24.1893 C   0  0  0  0  0  0  0  0  0  0  0  0
   13.3822  -17.2350   23.7331 O   0  0  0  0  0  0  0  0  0  0  0  0
   11.3010  -17.9903   24.0387 O   0  0  0  0  0  0  0  0  0  0  0  0
  2  1  1  1
  2  3  1  0
  4  6  1  0
  4  2  1  0
  4  5  1  1
  6  8  1  0
  6  7  2  0
  8  9  1  0
 10  9  1  0
 11 10  1  0
 11 12  1  0
 12  8  1  0
 12 13  1  1
 14 13  2  0
 16 15  1  0
 17 16  2  0
 18 16  1  0
 19 18  1  0
 20 21  1  0
 20 19  1  1
 21 13  1  0
 22 20  1  0
 23 22  1  0
 24 22  2  0
M  END
$$$$
