VPQ.pdb
     RDKit          3D

 24 24  0  0  1  0  0  0  0  0999 V2000
   10.2027  -12.8695   20.5103 C   0  0  0  0  0  0  0  0  0  0  0  0
    9.7619  -13.6367   19.2936 C   0  0  2  0  0  0  0  0  0  0  0  0
   10.2095  -12.9707   18.0391 C   0  0  0  0  0  0  0  0  0  0  0  0
    8.3011  -14.0230   19.3366 C   0  0  2  0  0  0  0  0  0  0  0  0
    7.4088  -12.9267   19.1302 N   0  0  0  0  0  0  0  0  0  0  0  0
    8.0805  -14.8188   20.5430 C   0  0  0  0  0  0  0  0  0  0  0  0
    7.5237  -14.2537   21.5190 O   0  0  0  0  0  0  0  0  0  0  0  0
    8.4538  -16.2072   20.6999 N   0  0  0  0  0  0  0  0  0  0  0  0
    8.9834  -16.9666   19.6053 C   0  0  0  0  0  0  0  0  0  0  0  0
    9.2561  -18.3289   20.1642 C   0  0  0  0  0  0  0  0  0  0  0  0
    8.4634  -18.4222   21.4353 C   0  0  0  0  0  0  0  0  0  0  0  0
    8.3652  -16.9924   21.8725 C   0  0  1  0  0  0  0  0  0  0  0  0
    9.4721  -16.7353   22.8426 C   0  0  0  0  0  0  0  0  0  0  0  0
   10.5819  -16.3364   22.4050 O   0  0  0  0  0  0  0  0  0  0  0  0
    8.5343  -13.6221   28.1686 N   0  0  0  0  0  0  0  0  0  0  0  0
    9.8235  -14.2102   28.3377 C   0  0  0  0  0  0  0  0  0  0  0  0
   10.4183  -13.9969   29.4177 O   0  0  0  0  0  0  0  0  0  0  0  0
   10.4582  -15.0388   27.3019 C   0  0  0  0  0  0  0  0  0  0  0  0
    9.5288  -15.5598   26.2476 C   0  0  0  0  0  0  0  0  0  0  0  0
   10.2544  -16.3634   25.2276 C   0  0  2  0  0  0  0  0  0  0  0  0
    9.3219  -16.9227   24.2376 N   0  0  0  0  0  0  0  0  0  0  0  0
   10.8989  -17.5352   25.8898 C   0  0  0  0  0  0  0  0  0  0  0  0
   10.2844  -18.7541   26.1207 O   0  0  0  0  0  0  0  0  0  0  0  0
   12.1117  -17.4804   26.3043 O   0  0  0  0  0  0  0  0  0  0  0  0
  2  1  1  1
  2  3  1  0
  4  6  1  0
  4  2  1  0
  4  5  1  1
  6  8  1  0
  6  7  2  0
  8  9  1  0
 10  9  1  0
 11 10  1  0
 11 12  1  0
 12  8  1  0
 12 13  1  1
 14 13  2  0
 16 15  1  0
 17 16  2  0
 18 16  1  0
 19 18  1  0
 20 21  1  0
 20 19  1  1
 21 13  1  0
 22 20  1  0
 23 22  1  0
 24 22  2  0
M  END
$$$$
