LMH.pdb
     RDKit          3D

 27 27  0  0  1  0  0  0  0  0999 V2000
    7.2747  -12.2255   18.5134 C   0  0  0  0  0  0  0  0  0  0  0  0
    7.6370  -13.6286   18.9129 C   0  0  1  0  0  0  0  0  0  0  0  0
    8.5827  -14.2503   17.9475 C   0  0  0  0  0  0  0  0  0  0  0  0
    8.1292  -13.6216   20.3335 C   0  0  0  0  0  0  0  0  0  0  0  0
    8.4449  -14.9729   20.8680 C   0  0  2  0  0  0  0  0  0  0  0  0
    7.3420  -15.8861   20.8279 N   0  0  0  0  0  0  0  0  0  0  0  0
    8.9301  -14.8346   22.2661 C   0  0  0  0  0  0  0  0  0  0  0  0
   10.0472  -14.2774   22.5300 O   0  0  0  0  0  0  0  0  0  0  0  0
    5.9840  -12.0553   26.7102 C   0  0  0  0  0  0  0  0  0  0  0  0
    7.3316  -12.6644   27.7846 S   0  0  0  0  0  0  0  0  0  0  0  0
    8.2426  -13.8974   26.8393 C   0  0  0  0  0  0  0  0  0  0  0  0
    7.6238  -14.1943   25.5019 C   0  0  0  0  0  0  0  0  0  0  0  0
    8.6260  -15.0562   24.7396 C   0  0  2  0  0  0  0  0  0  0  0  0
    8.1918  -15.3069   23.3818 N   0  0  0  0  0  0  0  0  0  0  0  0
    8.8900  -16.3416   25.4489 C   0  0  0  0  0  0  0  0  0  0  0  0
    7.9435  -17.1200   25.7966 O   0  0  0  0  0  0  0  0  0  0  0  0
   10.2188  -16.7016   25.7405 N   0  0  0  0  0  0  0  0  0  0  0  0
   10.4863  -18.0266   26.3298 C   0  0  1  0  0  0  0  0  0  0  0  0
   11.8747  -18.4763   25.9676 C   0  0  0  0  0  0  0  0  0  0  0  0
   12.0324  -18.5014   24.5077 C   0  0  0  0  0  0  0  0  0  0  0  0
   11.0096  -18.7208   23.5859 C   0  0  0  0  0  0  0  0  0  0  0  0
   11.5712  -18.6634   22.3622 N   0  0  0  0  0  0  0  0  0  0  0  0
   12.8836  -18.4209   22.4755 C   0  0  0  0  0  0  0  0  0  0  0  0
   13.1372  -18.3270   23.7906 N   0  0  0  0  0  0  0  0  0  0  0  0
   10.3309  -17.9622   27.8021 C   0  0  0  0  0  0  0  0  0  0  0  0
   10.4905  -19.0173   28.4651 O   0  0  0  0  0  0  0  0  0  0  0  0
   10.0229  -16.8176   28.5041 O   0  0  0  0  0  0  0  0  0  0  0  0
  2  1  1  6
  2  3  1  0
  4  2  1  0
  5  4  1  0
  5  6  1  1
  7  8  2  0
  7  5  1  0
 10  9  1  0
 11 10  1  0
 11 12  1  0
 13 12  1  1
 13 14  1  0
 14  7  1  0
 15 16  2  0
 15 13  1  0
 17 15  1  0
 18 19  1  1
 18 17  1  0
 20 19  1  0
 20 21  2  0
 22 21  1  0
 23 24  2  0
 23 22  1  0
 24 20  1  0
 25 18  1  0
 26 25  2  0
 27 25  1  0
M  END
$$$$
