LMH.pdb
     RDKit          3D

 27 27  0  0  1  0  0  0  0  0999 V2000
    7.1066  -12.7853   18.4394 C   0  0  0  0  0  0  0  0  0  0  0  0
    7.4790  -14.1273   19.0051 C   0  0  1  0  0  0  0  0  0  0  0  0
    7.8353  -15.0973   17.9352 C   0  0  0  0  0  0  0  0  0  0  0  0
    8.5500  -13.9408   20.0437 C   0  0  0  0  0  0  0  0  0  0  0  0
    8.8059  -15.1512   20.8687 C   0  0  2  0  0  0  0  0  0  0  0  0
    7.7586  -16.1268   20.8099 N   0  0  0  0  0  0  0  0  0  0  0  0
    9.0229  -14.7338   22.2786 C   0  0  0  0  0  0  0  0  0  0  0  0
    9.9956  -13.9752   22.6051 O   0  0  0  0  0  0  0  0  0  0  0  0
    6.9386  -11.2292   28.3290 C   0  0  0  0  0  0  0  0  0  0  0  0
    6.1078  -12.3665   27.1638 S   0  0  0  0  0  0  0  0  0  0  0  0
    7.3464  -13.5512   26.6105 C   0  0  0  0  0  0  0  0  0  0  0  0
    7.0206  -14.1708   25.2802 C   0  0  0  0  0  0  0  0  0  0  0  0
    8.3429  -14.6453   24.6848 C   0  0  2  0  0  0  0  0  0  0  0  0
    8.1736  -15.1465   23.3376 N   0  0  0  0  0  0  0  0  0  0  0  0
    8.9906  -15.6756   25.5474 C   0  0  0  0  0  0  0  0  0  0  0  0
    9.1428  -15.4992   26.7997 O   0  0  0  0  0  0  0  0  0  0  0  0
    9.4443  -16.8717   24.9611 N   0  0  0  0  0  0  0  0  0  0  0  0
    9.9033  -17.9661   25.8364 C   0  0  1  0  0  0  0  0  0  0  0  0
    9.5313  -19.2927   25.2339 C   0  0  0  0  0  0  0  0  0  0  0  0
    8.1345  -19.2673   24.7808 C   0  0  0  0  0  0  0  0  0  0  0  0
    7.0220  -19.0620   25.5957 C   0  0  0  0  0  0  0  0  0  0  0  0
    5.9396  -19.1127   24.7947 N   0  0  0  0  0  0  0  0  0  0  0  0
    6.3201  -19.3379   23.5303 C   0  0  0  0  0  0  0  0  0  0  0  0
    7.6596  -19.4279   23.5504 N   0  0  0  0  0  0  0  0  0  0  0  0
   11.3704  -17.8768   26.0249 C   0  0  0  0  0  0  0  0  0  0  0  0
   11.9965  -16.9764   25.4119 O   0  0  0  0  0  0  0  0  0  0  0  0
   12.1051  -18.7164   26.8329 O   0  0  0  0  0  0  0  0  0  0  0  0
  2  1  1  6
  2  3  1  0
  4  2  1  0
  5  4  1  0
  5  6  1  1
  7  8  2  0
  7  5  1  0
 10  9  1  0
 11 10  1  0
 11 12  1  0
 13 12  1  1
 13 14  1  0
 14  7  1  0
 15 16  2  0
 15 13  1  0
 17 15  1  0
 18 19  1  6
 18 17  1  0
 20 19  1  0
 20 21  2  0
 22 21  1  0
 23 24  2  0
 23 22  1  0
 24 20  1  0
 25 18  1  0
 26 25  2  0
 27 25  1  0
M  END
$$$$
