LMH.pdb
     RDKit          3D

 27 27  0  0  1  0  0  0  0  0999 V2000
    8.3332  -12.4359   19.2355 C   0  0  0  0  0  0  0  0  0  0  0  0
    7.8862  -13.6857   19.9411 C   0  0  1  0  0  0  0  0  0  0  0  0
    6.5940  -14.1902   19.4040 C   0  0  0  0  0  0  0  0  0  0  0  0
    9.0004  -14.6945   19.9032 C   0  0  0  0  0  0  0  0  0  0  0  0
    8.8214  -15.8250   20.8526 C   0  0  2  0  0  0  0  0  0  0  0  0
    7.5557  -16.4859   20.7376 N   0  0  0  0  0  0  0  0  0  0  0  0
    8.9985  -15.3197   22.2391 C   0  0  0  0  0  0  0  0  0  0  0  0
   10.1040  -14.8134   22.6260 O   0  0  0  0  0  0  0  0  0  0  0  0
    7.1555  -11.3762   28.1911 C   0  0  0  0  0  0  0  0  0  0  0  0
    6.2848  -12.2488   26.8413 S   0  0  0  0  0  0  0  0  0  0  0  0
    7.2256  -13.7431   26.4869 C   0  0  0  0  0  0  0  0  0  0  0  0
    6.8620  -14.3739   25.1718 C   0  0  0  0  0  0  0  0  0  0  0  0
    8.1634  -14.8793   24.5561 C   0  0  2  0  0  0  0  0  0  0  0  0
    7.9633  -15.3672   23.2082 N   0  0  0  0  0  0  0  0  0  0  0  0
    8.7947  -15.9319   25.4038 C   0  0  0  0  0  0  0  0  0  0  0  0
    9.0887  -15.7195   26.6249 O   0  0  0  0  0  0  0  0  0  0  0  0
    9.0718  -17.1905   24.8385 N   0  0  0  0  0  0  0  0  0  0  0  0
    9.7419  -18.2119   25.6645 C   0  0  1  0  0  0  0  0  0  0  0  0
   10.9136  -18.7857   24.9169 C   0  0  0  0  0  0  0  0  0  0  0  0
   11.6699  -19.6966   25.7859 C   0  0  0  0  0  0  0  0  0  0  0  0
   11.9317  -19.4935   27.1402 C   0  0  0  0  0  0  0  0  0  0  0  0
   12.6476  -20.5550   27.5604 N   0  0  0  0  0  0  0  0  0  0  0  0
   12.8433  -21.4031   26.5423 C   0  0  0  0  0  0  0  0  0  0  0  0
   12.2384  -20.8566   25.4754 N   0  0  0  0  0  0  0  0  0  0  0  0
   10.1884  -17.6102   26.9430 C   0  0  0  0  0  0  0  0  0  0  0  0
    9.6632  -18.0175   28.0091 O   0  0  0  0  0  0  0  0  0  0  0  0
   11.1485  -16.6279   27.0490 O   0  0  0  0  0  0  0  0  0  0  0  0
  2  1  1  6
  2  3  1  0
  4  2  1  0
  5  4  1  0
  5  6  1  1
  7  8  2  0
  7  5  1  0
 10  9  1  0
 11 10  1  0
 11 12  1  0
 13 12  1  1
 13 14  1  0
 14  7  1  0
 15 16  2  0
 15 13  1  0
 17 15  1  0
 18 19  1  6
 18 17  1  0
 20 19  1  0
 20 21  2  0
 22 21  1  0
 23 24  2  0
 23 22  1  0
 24 20  1  0
 25 18  1  0
 26 25  2  0
 27 25  1  0
M  END
$$$$
