LMH.pdb
     RDKit          3D

 27 27  0  0  1  0  0  0  0  0999 V2000
    7.9164  -20.1601   19.8375 C   0  0  0  0  0  0  0  0  0  0  0  0
    8.2606  -18.7340   19.5098 C   0  0  1  0  0  0  0  0  0  0  0  0
    7.1707  -18.0639   18.7511 C   0  0  0  0  0  0  0  0  0  0  0  0
    8.6533  -18.0220   20.7745 C   0  0  0  0  0  0  0  0  0  0  0  0
    8.9140  -16.5694   20.5915 C   0  0  2  0  0  0  0  0  0  0  0  0
   10.0034  -16.2813   19.7070 N   0  0  0  0  0  0  0  0  0  0  0  0
    9.1729  -15.9572   21.9209 C   0  0  0  0  0  0  0  0  0  0  0  0
   10.3531  -15.8836   22.4003 O   0  0  0  0  0  0  0  0  0  0  0  0
    7.3877  -11.0559   27.6512 C   0  0  0  0  0  0  0  0  0  0  0  0
    6.5853  -11.9211   26.2551 S   0  0  0  0  0  0  0  0  0  0  0  0
    7.7265  -13.2000   25.7019 C   0  0  0  0  0  0  0  0  0  0  0  0
    7.2566  -13.9199   24.4688 C   0  0  0  0  0  0  0  0  0  0  0  0
    8.4202  -14.7893   24.0015 C   0  0  2  0  0  0  0  0  0  0  0  0
    8.1381  -15.4226   22.7310 N   0  0  0  0  0  0  0  0  0  0  0  0
    8.7821  -15.8118   25.0255 C   0  0  0  0  0  0  0  0  0  0  0  0
    8.0205  -16.8002   25.2815 O   0  0  0  0  0  0  0  0  0  0  0  0
    9.9958  -15.6795   25.7252 N   0  0  0  0  0  0  0  0  0  0  0  0
   10.4389  -16.7807   26.6002 C   0  0  1  0  0  0  0  0  0  0  0  0
   11.9402  -16.8654   26.5949 C   0  0  0  0  0  0  0  0  0  0  0  0
   12.4124  -17.3759   25.3013 C   0  0  0  0  0  0  0  0  0  0  0  0
   11.6776  -18.1790   24.4301 C   0  0  0  0  0  0  0  0  0  0  0  0
   12.4685  -18.4224   23.3665 N   0  0  0  0  0  0  0  0  0  0  0  0
   13.6510  -17.8151   23.5310 C   0  0  0  0  0  0  0  0  0  0  0  0
   13.5898  -17.1862   24.7157 N   0  0  0  0  0  0  0  0  0  0  0  0
    9.9379  -16.5606   27.9773 C   0  0  0  0  0  0  0  0  0  0  0  0
    9.3021  -15.5042   28.2186 O   0  0  0  0  0  0  0  0  0  0  0  0
   10.1188  -17.4395   29.0225 O   0  0  0  0  0  0  0  0  0  0  0  0
  2  1  1  1
  2  3  1  0
  4  2  1  0
  5  4  1  0
  5  6  1  6
  7  8  2  0
  7  5  1  0
 10  9  1  0
 11 10  1  0
 11 12  1  0
 13 12  1  1
 13 14  1  0
 14  7  1  0
 15 16  2  0
 15 13  1  0
 17 15  1  0
 18 19  1  1
 18 17  1  0
 20 19  1  0
 20 21  2  0
 22 21  1  0
 23 24  2  0
 23 22  1  0
 24 20  1  0
 25 18  1  0
 26 25  2  0
 27 25  1  0
M  END
$$$$
