LMH.pdb
     RDKit          3D

 27 27  0  0  1  0  0  0  0  0999 V2000
    7.8995  -12.7906   18.1127 C   0  0  0  0  0  0  0  0  0  0  0  0
    7.8907  -13.0765   19.5884 C   0  0  1  0  0  0  0  0  0  0  0  0
    7.1829  -12.0140   20.3519 C   0  0  0  0  0  0  0  0  0  0  0  0
    7.3466  -14.4595   19.8160 C   0  0  0  0  0  0  0  0  0  0  0  0
    8.3334  -15.4061   20.4005 C   0  0  2  0  0  0  0  0  0  0  0  0
    7.8842  -16.7658   20.4355 N   0  0  0  0  0  0  0  0  0  0  0  0
    8.6742  -14.9556   21.7753 C   0  0  0  0  0  0  0  0  0  0  0  0
    8.9390  -13.7332   22.0277 O   0  0  0  0  0  0  0  0  0  0  0  0
    7.2680  -11.2281   26.7821 C   0  0  0  0  0  0  0  0  0  0  0  0
    6.4457  -12.8336   26.4861 S   0  0  0  0  0  0  0  0  0  0  0  0
    7.7230  -13.9919   25.9660 C   0  0  0  0  0  0  0  0  0  0  0  0
    7.5919  -14.4119   24.5287 C   0  0  0  0  0  0  0  0  0  0  0  0
    8.7542  -15.3584   24.2433 C   0  0  2  0  0  0  0  0  0  0  0  0
    8.7260  -15.8442   22.8802 N   0  0  0  0  0  0  0  0  0  0  0  0
    8.7763  -16.4995   25.2037 C   0  0  0  0  0  0  0  0  0  0  0  0
    7.8966  -17.4201   25.1684 O   0  0  0  0  0  0  0  0  0  0  0  0
    9.7952  -16.5587   26.1725 N   0  0  0  0  0  0  0  0  0  0  0  0
   10.8531  -17.5767   26.0342 C   0  0  1  0  0  0  0  0  0  0  0  0
   12.1159  -16.9362   25.5280 C   0  0  0  0  0  0  0  0  0  0  0  0
   12.2443  -17.1483   24.0805 C   0  0  0  0  0  0  0  0  0  0  0  0
   11.3510  -17.8635   23.2840 C   0  0  0  0  0  0  0  0  0  0  0  0
   11.8313  -17.8184   22.0257 N   0  0  0  0  0  0  0  0  0  0  0  0
   12.9713  -17.1157   21.9993 C   0  0  0  0  0  0  0  0  0  0  0  0
   13.1992  -16.7201   23.2619 N   0  0  0  0  0  0  0  0  0  0  0  0
   11.0934  -18.2320   27.3414 C   0  0  0  0  0  0  0  0  0  0  0  0
   10.6354  -17.6851   28.3756 O   0  0  0  0  0  0  0  0  0  0  0  0
   11.7878  -19.4102   27.5069 O   0  0  0  0  0  0  0  0  0  0  0  0
  2  1  1  6
  2  3  1  0
  4  2  1  0
  5  4  1  0
  5  6  1  1
  7  8  2  0
  7  5  1  0
 10  9  1  0
 11 10  1  0
 11 12  1  0
 13 12  1  1
 13 14  1  0
 14  7  1  0
 15 16  2  0
 15 13  1  0
 17 15  1  0
 18 19  1  1
 18 17  1  0
 20 19  1  0
 20 21  2  0
 22 21  1  0
 23 24  2  0
 23 22  1  0
 24 20  1  0
 25 18  1  0
 26 25  2  0
 27 25  1  0
M  END
$$$$
