LMH.pdb
     RDKit          3D

 27 27  0  0  1  0  0  0  0  0999 V2000
    7.6545  -11.7839   18.7587 C   0  0  0  0  0  0  0  0  0  0  0  0
    7.6881  -13.2612   19.0344 C   0  0  1  0  0  0  0  0  0  0  0  0
    7.9264  -14.0484   17.7950 C   0  0  0  0  0  0  0  0  0  0  0  0
    8.6797  -13.5321   20.1317 C   0  0  0  0  0  0  0  0  0  0  0  0
    8.6130  -14.9146   20.6755 C   0  0  2  0  0  0  0  0  0  0  0  0
    7.3150  -15.5134   20.5836 N   0  0  0  0  0  0  0  0  0  0  0  0
    9.0557  -14.8939   22.0942 C   0  0  0  0  0  0  0  0  0  0  0  0
   10.2488  -14.5736   22.4136 O   0  0  0  0  0  0  0  0  0  0  0  0
    6.0200  -12.3468   26.7177 C   0  0  0  0  0  0  0  0  0  0  0  0
    7.2390  -13.1621   27.8090 S   0  0  0  0  0  0  0  0  0  0  0  0
    8.1454  -14.3438   26.7962 C   0  0  0  0  0  0  0  0  0  0  0  0
    7.5255  -14.5635   25.4446 C   0  0  0  0  0  0  0  0  0  0  0  0
    8.6238  -15.1268   24.5476 C   0  0  2  0  0  0  0  0  0  0  0  0
    8.1914  -15.2245   23.1698 N   0  0  0  0  0  0  0  0  0  0  0  0
    9.1034  -16.4510   25.0392 C   0  0  0  0  0  0  0  0  0  0  0  0
    9.1004  -17.4826   24.2920 O   0  0  0  0  0  0  0  0  0  0  0  0
    9.5705  -16.5613   26.3621 N   0  0  0  0  0  0  0  0  0  0  0  0
   10.4590  -17.6844   26.7138 C   0  0  1  0  0  0  0  0  0  0  0  0
   11.7435  -17.5821   25.9388 C   0  0  0  0  0  0  0  0  0  0  0  0
   11.6319  -18.3242   24.6764 C   0  0  0  0  0  0  0  0  0  0  0  0
   10.4891  -18.9797   24.2202 C   0  0  0  0  0  0  0  0  0  0  0  0
   10.8057  -19.5297   23.0314 N   0  0  0  0  0  0  0  0  0  0  0  0
   12.0800  -19.2512   22.7268 C   0  0  0  0  0  0  0  0  0  0  0  0
   12.5586  -18.5172   23.7441 N   0  0  0  0  0  0  0  0  0  0  0  0
   10.7312  -17.6723   28.1704 C   0  0  0  0  0  0  0  0  0  0  0  0
   10.7442  -16.5658   28.7652 O   0  0  0  0  0  0  0  0  0  0  0  0
   10.9718  -18.7975   28.9279 O   0  0  0  0  0  0  0  0  0  0  0  0
  2  1  1  6
  2  3  1  0
  4  2  1  0
  5  4  1  0
  5  6  1  1
  7  8  2  0
  7  5  1  0
 10  9  1  0
 11 10  1  0
 11 12  1  0
 13 12  1  1
 13 14  1  0
 14  7  1  0
 15 16  2  0
 15 13  1  0
 17 15  1  0
 18 19  1  6
 18 17  1  0
 20 19  1  0
 20 21  2  0
 22 21  1  0
 23 24  2  0
 23 22  1  0
 24 20  1  0
 25 18  1  0
 26 25  2  0
 27 25  1  0
M  END
$$$$
