LIS.pdb
     RDKit          3D

 23 22  0  0  1  0  0  0  0  0999 V2000
    4.0380  -19.7523   23.6789 C   0  0  0  0  0  0  0  0  0  0  0  0
    5.4351  -20.0944   23.2065 C   0  0  2  0  0  0  0  0  0  0  0  0
    5.7715  -21.4537   23.7365 C   0  0  0  0  0  0  0  0  0  0  0  0
    6.4467  -19.0683   23.6552 C   0  0  0  0  0  0  0  0  0  0  0  0
    6.0786  -17.6842   23.1666 C   0  0  2  0  0  0  0  0  0  0  0  0
    5.9592  -17.6663   21.7230 N   0  0  0  0  0  0  0  0  0  0  0  0
    7.0956  -16.6774   23.5438 C   0  0  0  0  0  0  0  0  0  0  0  0
    8.0974  -16.4800   22.8198 O   0  0  0  0  0  0  0  0  0  0  0  0
    5.6566  -12.4817   26.6176 C   0  0  0  0  0  0  0  0  0  0  0  0
    6.4950  -13.1665   25.5727 C   0  0  0  0  0  0  0  0  0  0  0  0
    7.4450  -14.1070   26.2559 C   0  0  2  0  0  0  0  0  0  0  0  0
    8.5436  -13.2921   26.8989 C   0  0  0  0  0  0  0  0  0  0  0  0
    8.0465  -15.1095   25.2891 C   0  0  2  0  0  0  0  0  0  0  0  0
    6.9916  -15.8912   24.7319 N   0  0  0  0  0  0  0  0  0  0  0  0
    9.0528  -15.9431   26.0169 C   0  0  0  0  0  0  0  0  0  0  0  0
    8.6775  -16.5545   27.0263 O   0  0  0  0  0  0  0  0  0  0  0  0
   13.0850  -16.0551   24.7294 O   0  0  0  0  0  0  0  0  0  0  0  0
   12.4520  -17.2442   25.0834 C   0  0  0  0  0  0  0  0  0  0  0  0
   11.3276  -16.9904   26.0675 C   0  0  2  0  0  0  0  0  0  0  0  0
   10.3803  -16.0221   25.5595 N   0  0  0  0  0  0  0  0  0  0  0  0
   11.8562  -16.5972   27.3957 C   0  0  0  0  0  0  0  0  0  0  0  0
   11.5251  -15.5352   27.9739 O   0  0  0  0  0  0  0  0  0  0  0  0
   12.7461  -17.4326   28.0179 O   0  0  0  0  0  0  0  0  0  0  0  0
  2  1  1  1
  2  3  1  0
  4  2  1  0
  5  4  1  0
  5  6  1  6
  7  8  2  0
  7  5  1  0
 10  9  1  0
 11 10  1  0
 11 12  1  6
 13 11  1  0
 13 14  1  1
 14  7  1  0
 15 20  1  0
 15 13  1  0
 16 15  2  0
 18 17  1  0
 19 18  1  6
 19 20  1  0
 21 19  1  0
 21 23  1  0
 22 21  2  0
M  END
$$$$
