LIS.pdb
     RDKit          3D

 23 22  0  0  1  0  0  0  0  0999 V2000
    5.5930  -12.3891   26.1562 C   0  0  0  0  0  0  0  0  0  0  0  0
    6.5217  -13.1416   27.0853 C   0  0  2  0  0  0  0  0  0  0  0  0
    7.3589  -12.1300   27.8047 C   0  0  0  0  0  0  0  0  0  0  0  0
    7.3830  -14.1307   26.3386 C   0  0  0  0  0  0  0  0  0  0  0  0
    6.5437  -15.0478   25.4758 C   0  0  2  0  0  0  0  0  0  0  0  0
    6.0046  -16.1384   26.2622 N   0  0  0  0  0  0  0  0  0  0  0  0
    7.3312  -15.6394   24.3712 C   0  0  0  0  0  0  0  0  0  0  0  0
    7.6375  -16.8530   24.3845 O   0  0  0  0  0  0  0  0  0  0  0  0
    7.5075  -12.4598   20.0285 C   0  0  0  0  0  0  0  0  0  0  0  0
    7.3303  -13.7822   20.7237 C   0  0  0  0  0  0  0  0  0  0  0  0
    8.6816  -14.3083   21.1126 C   0  0  2  0  0  0  0  0  0  0  0  0
    9.3425  -14.8831   19.8809 C   0  0  0  0  0  0  0  0  0  0  0  0
    8.5892  -15.3716   22.1907 C   0  0  2  0  0  0  0  0  0  0  0  0
    7.7762  -14.8726   23.2512 N   0  0  0  0  0  0  0  0  0  0  0  0
    9.9699  -15.7235   22.6458 C   0  0  0  0  0  0  0  0  0  0  0  0
   10.6607  -14.8267   23.1476 O   0  0  0  0  0  0  0  0  0  0  0  0
   11.1858  -19.6664   22.3264 O   0  0  0  0  0  0  0  0  0  0  0  0
   11.9096  -18.8768   23.2167 C   0  0  0  0  0  0  0  0  0  0  0  0
   11.8108  -17.4100   22.8481 C   0  0  2  0  0  0  0  0  0  0  0  0
   10.4567  -17.0351   22.5031 N   0  0  0  0  0  0  0  0  0  0  0  0
   12.7685  -17.0622   21.7710 C   0  0  0  0  0  0  0  0  0  0  0  0
   12.4106  -16.5813   20.6699 O   0  0  0  0  0  0  0  0  0  0  0  0
   14.1038  -17.2762   21.9902 O   0  0  0  0  0  0  0  0  0  0  0  0
  2  1  1  6
  2  3  1  0
  4  2  1  0
  5  4  1  0
  5  6  1  1
  7  8  2  0
  7  5  1  0
 10  9  1  0
 11 10  1  0
 11 12  1  6
 13 11  1  0
 13 14  1  1
 14  7  1  0
 15 20  1  0
 15 13  1  0
 16 15  2  0
 18 17  1  0
 19 18  1  6
 19 20  1  0
 21 19  1  0
 21 23  1  0
 22 21  2  0
M  END
$$$$
