LIS.pdb
     RDKit          3D

 23 22  0  0  1  0  0  0  0  0999 V2000
    5.3943  -19.2537   21.2350 C   0  0  0  0  0  0  0  0  0  0  0  0
    4.6432  -17.9428   21.3319 C   0  0  2  0  0  0  0  0  0  0  0  0
    4.2447  -17.5462   19.9442 C   0  0  0  0  0  0  0  0  0  0  0  0
    5.4728  -16.8672   21.9895 C   0  0  0  0  0  0  0  0  0  0  0  0
    6.1591  -17.3872   23.2340 C   0  0  2  0  0  0  0  0  0  0  0  0
    5.1943  -17.6279   24.2875 N   0  0  0  0  0  0  0  0  0  0  0  0
    7.1592  -16.4281   23.7539 C   0  0  0  0  0  0  0  0  0  0  0  0
    8.1584  -16.1139   23.0687 O   0  0  0  0  0  0  0  0  0  0  0  0
    5.7373  -12.2193   26.6444 C   0  0  0  0  0  0  0  0  0  0  0  0
    6.5830  -13.0503   25.7182 C   0  0  0  0  0  0  0  0  0  0  0  0
    7.4123  -13.9953   26.5387 C   0  0  2  0  0  0  0  0  0  0  0  0
    8.4731  -13.1961   27.2601 C   0  0  0  0  0  0  0  0  0  0  0  0
    8.0659  -15.0660   25.6856 C   0  0  2  0  0  0  0  0  0  0  0  0
    7.0412  -15.8207   25.0413 N   0  0  0  0  0  0  0  0  0  0  0  0
    8.9397  -15.9137   26.5546 C   0  0  0  0  0  0  0  0  0  0  0  0
    8.4045  -16.5392   27.4797 O   0  0  0  0  0  0  0  0  0  0  0  0
   12.1522  -17.5414   24.9549 O   0  0  0  0  0  0  0  0  0  0  0  0
   12.4541  -17.2033   26.2719 C   0  0  0  0  0  0  0  0  0  0  0  0
   11.1961  -16.8802   27.0532 C   0  0  2  0  0  0  0  0  0  0  0  0
   10.3239  -15.9899   26.3184 N   0  0  0  0  0  0  0  0  0  0  0  0
   11.5220  -16.3447   28.3967 C   0  0  0  0  0  0  0  0  0  0  0  0
   11.1307  -15.2228   28.7967 O   0  0  0  0  0  0  0  0  0  0  0  0
   12.2849  -17.1112   29.2378 O   0  0  0  0  0  0  0  0  0  0  0  0
  2  1  1  6
  2  3  1  0
  4  2  1  0
  5  4  1  0
  5  6  1  1
  7  8  2  0
  7  5  1  0
 10  9  1  0
 11 10  1  0
 11 12  1  6
 13 11  1  0
 13 14  1  1
 14  7  1  0
 15 20  1  0
 15 13  1  0
 16 15  2  0
 18 17  1  0
 19 18  1  6
 19 20  1  0
 21 19  1  0
 21 23  1  0
 22 21  2  0
M  END
$$$$
