LIS.pdb
     RDKit          3D

 23 22  0  0  1  0  0  0  0  0999 V2000
    6.4874  -21.3771   17.9198 C   0  0  0  0  0  0  0  0  0  0  0  0
    7.0682  -20.1716   17.2117 C   0  0  2  0  0  0  0  0  0  0  0  0
    7.6117  -20.6378   15.8968 C   0  0  0  0  0  0  0  0  0  0  0  0
    8.1377  -19.4973   18.0358 C   0  0  0  0  0  0  0  0  0  0  0  0
    8.4359  -18.1074   17.5170 C   0  0  2  0  0  0  0  0  0  0  0  0
    9.3133  -18.1683   16.3659 N   0  0  0  0  0  0  0  0  0  0  0  0
    9.0977  -17.2670   18.5398 C   0  0  0  0  0  0  0  0  0  0  0  0
   10.3449  -17.2525   18.6443 O   0  0  0  0  0  0  0  0  0  0  0  0
    6.6815  -12.5819   20.0152 C   0  0  0  0  0  0  0  0  0  0  0  0
    7.7093  -13.6074   19.6209 C   0  0  0  0  0  0  0  0  0  0  0  0
    7.9666  -14.5089   20.7935 C   0  0  2  0  0  0  0  0  0  0  0  0
    8.5128  -13.6726   21.9277 C   0  0  0  0  0  0  0  0  0  0  0  0
    8.9447  -15.6179   20.4544 C   0  0  2  0  0  0  0  0  0  0  0  0
    8.3634  -16.4426   19.4461 N   0  0  0  0  0  0  0  0  0  0  0  0
    9.2669  -16.3797   21.7006 C   0  0  0  0  0  0  0  0  0  0  0  0
    8.3262  -16.8708   22.3389 O   0  0  0  0  0  0  0  0  0  0  0  0
   12.9090  -18.1245   22.1730 O   0  0  0  0  0  0  0  0  0  0  0  0
   11.8147  -18.4880   22.9542 C   0  0  0  0  0  0  0  0  0  0  0  0
   10.9690  -17.2795   23.3028 C   0  0  2  0  0  0  0  0  0  0  0  0
   10.5999  -16.5268   22.1237 N   0  0  0  0  0  0  0  0  0  0  0  0
   11.6430  -16.4262   24.3107 C   0  0  0  0  0  0  0  0  0  0  0  0
   11.9092  -15.2174   24.1118 O   0  0  0  0  0  0  0  0  0  0  0  0
   11.9897  -16.9849   25.5125 O   0  0  0  0  0  0  0  0  0  0  0  0
  2  1  1  1
  2  3  1  0
  4  2  1  0
  5  4  1  0
  5  6  1  6
  7  8  2  0
  7  5  1  0
 10  9  1  0
 11 10  1  0
 11 12  1  1
 13 11  1  0
 13 14  1  6
 14  7  1  0
 15 20  1  0
 15 13  1  0
 16 15  2  0
 18 17  1  0
 19 18  1  6
 19 20  1  0
 21 19  1  0
 21 23  1  0
 22 21  2  0
M  END
$$$$
