LPA.pdb
     RDKit          3D

 21 21  0  0  1  0  0  0  0  0999 V2000
   23.4037  -22.2209  -13.5140 C   0  0  0  0  0  0  0  0  0  0  0  0
   22.5376  -21.7882  -12.3429 C   0  0  2  0  0  0  0  0  0  0  0  0
   21.1357  -21.4618  -12.8127 C   0  0  0  0  0  0  0  0  0  0  0  0
   23.1409  -20.5498  -11.6683 C   0  0  0  0  0  0  0  0  0  0  0  0
   24.5601  -20.8580  -11.2479 C   0  0  2  0  0  0  0  0  0  0  0  0
   24.6704  -20.9634   -9.8384 N   0  0  0  0  0  0  0  0  0  0  0  0
   25.4959  -19.9245  -11.9070 C   0  0  0  0  0  0  0  0  0  0  0  0
   25.3273  -18.7131  -11.6318 O   0  0  0  0  0  0  0  0  0  0  0  0
   26.5247  -20.3587  -12.7967 N   0  0  0  0  0  0  0  0  0  0  0  0
   27.2164  -21.6391  -12.5986 C   0  0  0  0  0  0  0  0  0  0  0  0
   28.1325  -21.8221  -13.8012 C   0  0  0  0  0  0  0  0  0  0  0  0
   27.3883  -20.9710  -14.8441 C   0  0  0  0  0  0  0  0  0  0  0  0
   27.1011  -19.7574  -13.9339 C   0  0  1  0  0  0  0  0  0  0  0  0
   26.3255  -18.7907  -14.6989 C   0  0  0  0  0  0  0  0  0  0  0  0
   25.1905  -18.9099  -15.1950 O   0  0  0  0  0  0  0  0  0  0  0  0
   26.8126  -15.0896  -15.2416 C   0  0  0  0  0  0  0  0  0  0  0  0
   26.2547  -16.4608  -15.6042 C   0  0  2  0  0  0  0  0  0  0  0  0
   26.9624  -17.5152  -14.9116 N   0  0  0  0  0  0  0  0  0  0  0  0
   26.4572  -16.6347  -17.0526 C   0  0  0  0  0  0  0  0  0  0  0  0
   27.4110  -17.3275  -17.4608 O   0  0  0  0  0  0  0  0  0  0  0  0
   25.6100  -16.0443  -17.9601 O   0  0  0  0  0  0  0  0  0  0  0  0
  2  3  1  6
  2  1  1  0
  4  2  1  0
  5  4  1  0
  5  6  1  1
  7  5  1  0
  7  9  1  0
  8  7  2  0
  9 13  1  0
 10  9  1  0
 10 11  1  0
 11 12  1  0
 13 14  1  6
 13 12  1  0
 14 18  1  0
 15 14  2  0
 17 16  1  1
 17 19  1  0
 18 17  1  0
 19 20  2  0
 19 21  1  0
M  END
$$$$
