LPA.pdb
     RDKit          3D

 21 21  0  0  1  0  0  0  0  0999 V2000
   11.4553  -23.0659   -6.1243 C   0  0  0  0  0  0  0  0  0  0  0  0
   12.8706  -23.4825   -6.4877 C   0  0  2  0  0  0  0  0  0  0  0  0
   12.9878  -23.7163   -7.9791 C   0  0  0  0  0  0  0  0  0  0  0  0
   13.2489  -24.7716   -5.7474 C   0  0  0  0  0  0  0  0  0  0  0  0
   14.4875  -24.5197   -4.9177 C   0  0  2  0  0  0  0  0  0  0  0  0
   15.6307  -25.1244   -5.4987 N   0  0  0  0  0  0  0  0  0  0  0  0
   14.2231  -24.8504   -3.5027 C   0  0  0  0  0  0  0  0  0  0  0  0
   14.0260  -26.0652   -3.2640 O   0  0  0  0  0  0  0  0  0  0  0  0
   14.1921  -23.8651   -2.4699 N   0  0  0  0  0  0  0  0  0  0  0  0
   14.9559  -22.6157   -2.5822 C   0  0  0  0  0  0  0  0  0  0  0  0
   14.5713  -21.7682   -1.3769 C   0  0  0  0  0  0  0  0  0  0  0  0
   13.1737  -22.3364   -1.0775 C   0  0  0  0  0  0  0  0  0  0  0  0
   13.5372  -23.8300   -1.2221 C   0  0  1  0  0  0  0  0  0  0  0  0
   12.3233  -24.6122   -1.0324 C   0  0  0  0  0  0  0  0  0  0  0  0
   11.3381  -24.7288   -1.7835 O   0  0  0  0  0  0  0  0  0  0  0  0
   11.3782  -27.2588    1.4773 C   0  0  0  0  0  0  0  0  0  0  0  0
   11.0642  -26.1174    0.5175 C   0  0  2  0  0  0  0  0  0  0  0  0
   12.2529  -25.3569    0.1998 N   0  0  0  0  0  0  0  0  0  0  0  0
   10.1115  -25.2301    1.2062 C   0  0  0  0  0  0  0  0  0  0  0  0
   10.4803  -24.0942    1.5668 O   0  0  0  0  0  0  0  0  0  0  0  0
    8.8224  -25.6365    1.4569 O   0  0  0  0  0  0  0  0  0  0  0  0
  2  3  1  6
  2  1  1  0
  4  2  1  0
  5  4  1  0
  5  6  1  6
  7  5  1  0
  7  9  1  0
  8  7  2  0
  9 13  1  0
 10  9  1  0
 10 11  1  0
 11 12  1  0
 13 14  1  6
 13 12  1  0
 14 18  1  0
 15 14  2  0
 17 16  1  1
 17 19  1  0
 18 17  1  0
 19 20  2  0
 19 21  1  0
M  END
$$$$
