LPA.pdb
     RDKit          3D

 21 21  0  0  1  0  0  0  0  0999 V2000
   24.9008  -15.5199  -15.6186 C   0  0  0  0  0  0  0  0  0  0  0  0
   24.2713  -16.6353  -16.4363 C   0  0  2  0  0  0  0  0  0  0  0  0
   23.0698  -16.1194  -17.1996 C   0  0  0  0  0  0  0  0  0  0  0  0
   23.8268  -17.7792  -15.5161 C   0  0  0  0  0  0  0  0  0  0  0  0
   24.5263  -19.0519  -15.9365 C   0  0  2  0  0  0  0  0  0  0  0  0
   23.8295  -19.7025  -16.9859 N   0  0  0  0  0  0  0  0  0  0  0  0
   24.8333  -19.8751  -14.7492 C   0  0  0  0  0  0  0  0  0  0  0  0
   23.8361  -20.3082  -14.1249 O   0  0  0  0  0  0  0  0  0  0  0  0
   26.1675  -20.1648  -14.3316 N   0  0  0  0  0  0  0  0  0  0  0  0
   27.2855  -20.1556  -15.2840 C   0  0  0  0  0  0  0  0  0  0  0  0
   28.5502  -20.3683  -14.4627 C   0  0  0  0  0  0  0  0  0  0  0  0
   28.0863  -19.8255  -13.1004 C   0  0  0  0  0  0  0  0  0  0  0  0
   26.7056  -20.5162  -13.0770 C   0  0  1  0  0  0  0  0  0  0  0  0
   26.0130  -20.1036  -11.8640 C   0  0  0  0  0  0  0  0  0  0  0  0
   25.5538  -18.9871  -11.5624 O   0  0  0  0  0  0  0  0  0  0  0  0
   24.8479  -22.0226   -8.8099 C   0  0  0  0  0  0  0  0  0  0  0  0
   25.3527  -20.7908   -9.5522 C   0  0  2  0  0  0  0  0  0  0  0  0
   25.8340  -21.1342  -10.8722 N   0  0  0  0  0  0  0  0  0  0  0  0
   26.4780  -20.2521   -8.7695 C   0  0  0  0  0  0  0  0  0  0  0  0
   26.2478  -19.6045   -7.7284 O   0  0  0  0  0  0  0  0  0  0  0  0
   27.7775  -20.4530   -9.1705 O   0  0  0  0  0  0  0  0  0  0  0  0
  2  3  1  1
  2  1  1  0
  4  2  1  0
  5  4  1  0
  5  6  1  6
  7  5  1  0
  7  9  1  0
  8  7  2  0
  9 13  1  0
 10  9  1  0
 10 11  1  0
 11 12  1  0
 13 14  1  1
 13 12  1  0
 14 18  1  0
 15 14  2  0
 17 16  1  1
 17 19  1  0
 18 17  1  0
 19 20  2  0
 19 21  1  0
M  END
$$$$
