LPA.pdb
     RDKit          3D

 21 21  0  0  1  0  0  0  0  0999 V2000
   16.7030  -11.8876  -17.3210 C   0  0  0  0  0  0  0  0  0  0  0  0
   17.2418  -12.3293  -15.9706 C   0  0  2  0  0  0  0  0  0  0  0  0
   16.1088  -12.5181  -14.9841 C   0  0  0  0  0  0  0  0  0  0  0  0
   18.2152  -11.2792  -15.4205 C   0  0  0  0  0  0  0  0  0  0  0  0
   19.4261  -11.2069  -16.3229 C   0  0  2  0  0  0  0  0  0  0  0  0
   20.1821  -12.4051  -16.2705 N   0  0  0  0  0  0  0  0  0  0  0  0
   20.1692   -9.9555  -16.0713 C   0  0  0  0  0  0  0  0  0  0  0  0
   20.6876   -9.8595  -14.9339 O   0  0  0  0  0  0  0  0  0  0  0  0
   20.2959   -8.9207  -17.0468 N   0  0  0  0  0  0  0  0  0  0  0  0
   20.1081   -9.1920  -18.4779 C   0  0  0  0  0  0  0  0  0  0  0  0
   20.1814   -7.8443  -19.1831 C   0  0  0  0  0  0  0  0  0  0  0  0
   19.7507   -6.9124  -18.0378 C   0  0  0  0  0  0  0  0  0  0  0  0
   20.6165   -7.5528  -16.9314 C   0  0  1  0  0  0  0  0  0  0  0  0
   20.3396   -6.8592  -15.6809 C   0  0  0  0  0  0  0  0  0  0  0  0
   19.3271   -6.9137  -14.9595 O   0  0  0  0  0  0  0  0  0  0  0  0
   22.5680   -4.8669  -13.3776 C   0  0  0  0  0  0  0  0  0  0  0  0
   21.2209   -5.2606  -13.9719 C   0  0  2  0  0  0  0  0  0  0  0  0
   21.3864   -5.9860  -15.2123 N   0  0  0  0  0  0  0  0  0  0  0  0
   20.4970   -4.0096  -14.2547 C   0  0  0  0  0  0  0  0  0  0  0  0
   20.4305   -3.5899  -15.4277 O   0  0  0  0  0  0  0  0  0  0  0  0
   19.8941   -3.2985  -13.2444 O   0  0  0  0  0  0  0  0  0  0  0  0
  2  3  1  1
  2  1  1  0
  4  2  1  0
  5  4  1  0
  5  6  1  1
  7  5  1  0
  7  9  1  0
  8  7  2  0
  9 13  1  0
 10  9  1  0
 10 11  1  0
 11 12  1  0
 13 14  1  1
 13 12  1  0
 14 18  1  0
 15 14  2  0
 17 16  1  6
 17 19  1  0
 18 17  1  0
 19 20  2  0
 19 21  1  0
M  END
$$$$
