LPA.pdb
     RDKit          3D

 21 21  0  0  1  0  0  0  0  0999 V2000
   28.5372  -27.3303  -16.1727 C   0  0  0  0  0  0  0  0  0  0  0  0
   28.1090  -26.6330  -17.4531 C   0  0  2  0  0  0  0  0  0  0  0  0
   27.5457  -27.6345  -18.4390 C   0  0  0  0  0  0  0  0  0  0  0  0
   29.3069  -25.9197  -18.0927 C   0  0  0  0  0  0  0  0  0  0  0  0
   29.7733  -24.8146  -17.1723 C   0  0  2  0  0  0  0  0  0  0  0  0
   28.8257  -23.7622  -17.1065 N   0  0  0  0  0  0  0  0  0  0  0  0
   31.1572  -24.4257  -17.5113 C   0  0  0  0  0  0  0  0  0  0  0  0
   31.2785  -23.7175  -18.5387 O   0  0  0  0  0  0  0  0  0  0  0  0
   32.2859  -24.8215  -16.7317 N   0  0  0  0  0  0  0  0  0  0  0  0
   32.1687  -25.0716  -15.2893 C   0  0  0  0  0  0  0  0  0  0  0  0
   33.5225  -25.6002  -14.8344 C   0  0  0  0  0  0  0  0  0  0  0  0
   34.0381  -26.2024  -16.1524 C   0  0  0  0  0  0  0  0  0  0  0  0
   33.6385  -25.0275  -17.0711 C   0  0  1  0  0  0  0  0  0  0  0  0
   33.9828  -25.3856  -18.4403 C   0  0  0  0  0  0  0  0  0  0  0  0
   33.3257  -26.0389  -19.2707 O   0  0  0  0  0  0  0  0  0  0  0  0
   36.7806  -24.2421  -20.7062 C   0  0  0  0  0  0  0  0  0  0  0  0
   35.7102  -25.2223  -20.2410 C   0  0  2  0  0  0  0  0  0  0  0  0
   35.2666  -24.9167  -18.8986 N   0  0  0  0  0  0  0  0  0  0  0  0
   36.3283  -26.5590  -20.2364 C   0  0  0  0  0  0  0  0  0  0  0  0
   36.8056  -27.0115  -19.1763 O   0  0  0  0  0  0  0  0  0  0  0  0
   36.3864  -27.3143  -21.3835 O   0  0  0  0  0  0  0  0  0  0  0  0
  2  3  1  6
  2  1  1  0
  4  2  1  0
  5  4  1  0
  5  6  1  6
  7  5  1  0
  7  9  1  0
  8  7  2  0
  9 13  1  0
 10  9  1  0
 10 11  1  0
 11 12  1  0
 13 14  1  6
 13 12  1  0
 14 18  1  0
 15 14  2  0
 17 16  1  1
 17 19  1  0
 18 17  1  0
 19 20  2  0
 19 21  1  0
M  END
$$$$
