LPA.pdb
     RDKit          3D

 21 21  0  0  1  0  0  0  0  0999 V2000
   18.7581  -14.0521    3.3259 C   0  0  0  0  0  0  0  0  0  0  0  0
   17.9713  -13.6490    4.5617 C   0  0  2  0  0  0  0  0  0  0  0  0
   18.5696  -12.4078    5.1893 C   0  0  0  0  0  0  0  0  0  0  0  0
   17.9837  -14.7864    5.5907 C   0  0  0  0  0  0  0  0  0  0  0  0
   17.3093  -16.0007    4.9935 C   0  0  2  0  0  0  0  0  0  0  0  0
   16.0006  -15.6955    4.5419 N   0  0  0  0  0  0  0  0  0  0  0  0
   17.4300  -17.1492    5.9143 C   0  0  0  0  0  0  0  0  0  0  0  0
   16.5200  -17.2473    6.7709 O   0  0  0  0  0  0  0  0  0  0  0  0
   18.5026  -18.0889    5.8437 N   0  0  0  0  0  0  0  0  0  0  0  0
   19.2812  -18.2690    4.6116 C   0  0  0  0  0  0  0  0  0  0  0  0
   20.4077  -19.2351    4.9535 C   0  0  0  0  0  0  0  0  0  0  0  0
   20.5330  -18.9849    6.4660 C   0  0  0  0  0  0  0  0  0  0  0  0
   19.0233  -18.9953    6.7894 C   0  0  1  0  0  0  0  0  0  0  0  0
   18.8622  -18.7142    8.2094 C   0  0  0  0  0  0  0  0  0  0  0  0
   19.0203  -17.6423    8.8213 O   0  0  0  0  0  0  0  0  0  0  0  0
   17.4939  -20.8096   11.0532 C   0  0  0  0  0  0  0  0  0  0  0  0
   18.3201  -19.6786   10.4520 C   0  0  2  0  0  0  0  0  0  0  0  0
   18.4631  -19.8365    9.0213 N   0  0  0  0  0  0  0  0  0  0  0  0
   19.6564  -19.7527   11.0667 C   0  0  0  0  0  0  0  0  0  0  0  0
   20.5433  -20.4447   10.5273 O   0  0  0  0  0  0  0  0  0  0  0  0
   19.9395  -19.0700   12.2259 O   0  0  0  0  0  0  0  0  0  0  0  0
  2  3  1  1
  2  1  1  0
  4  2  1  0
  5  4  1  0
  5  6  1  1
  7  5  1  0
  7  9  1  0
  8  7  2  0
  9 13  1  0
 10  9  1  0
 10 11  1  0
 11 12  1  0
 13 14  1  1
 13 12  1  0
 14 18  1  0
 15 14  2  0
 17 16  1  1
 17 19  1  0
 18 17  1  0
 19 20  2  0
 19 21  1  0
M  END
$$$$
