LPA.pdb
     RDKit          3D

 21 21  0  0  1  0  0  0  0  0999 V2000
   15.9135  -11.9974  -17.2344 C   0  0  0  0  0  0  0  0  0  0  0  0
   16.3883  -12.2493  -15.8131 C   0  0  2  0  0  0  0  0  0  0  0  0
   15.2207  -12.2114  -14.8499 C   0  0  0  0  0  0  0  0  0  0  0  0
   17.4122  -11.1841  -15.4011 C   0  0  0  0  0  0  0  0  0  0  0  0
   18.6954  -11.4091  -16.1684 C   0  0  2  0  0  0  0  0  0  0  0  0
   19.2569  -12.6776  -15.8761 N   0  0  0  0  0  0  0  0  0  0  0  0
   19.5915  -10.2463  -16.0057 C   0  0  0  0  0  0  0  0  0  0  0  0
   20.1921  -10.1821  -14.9072 O   0  0  0  0  0  0  0  0  0  0  0  0
   19.7699   -9.2581  -17.0207 N   0  0  0  0  0  0  0  0  0  0  0  0
   19.5002   -9.5560  -18.4333 C   0  0  0  0  0  0  0  0  0  0  0  0
   19.6645   -8.2432  -19.1873 C   0  0  0  0  0  0  0  0  0  0  0  0
   19.3660   -7.2407  -18.0596 C   0  0  0  0  0  0  0  0  0  0  0  0
   20.2158   -7.9220  -16.9653 C   0  0  1  0  0  0  0  0  0  0  0  0
   20.0534   -7.1675  -15.7301 C   0  0  0  0  0  0  0  0  0  0  0  0
   19.0811   -7.1293  -14.9546 O   0  0  0  0  0  0  0  0  0  0  0  0
   22.5710   -5.3087  -13.6223 C   0  0  0  0  0  0  0  0  0  0  0  0
   21.1588   -5.6292  -14.0977 C   0  0  2  0  0  0  0  0  0  0  0  0
   21.1782   -6.3490  -15.3522 N   0  0  0  0  0  0  0  0  0  0  0  0
   20.4765   -4.3411  -14.3081 C   0  0  0  0  0  0  0  0  0  0  0  0
   20.1516   -3.6497  -13.3218 O   0  0  0  0  0  0  0  0  0  0  0  0
   20.1931   -3.8906  -15.5756 O   0  0  0  0  0  0  0  0  0  0  0  0
  2  3  1  1
  2  1  1  0
  4  2  1  0
  5  4  1  0
  5  6  1  1
  7  5  1  0
  7  9  1  0
  8  7  2  0
  9 13  1  0
 10  9  1  0
 10 11  1  0
 11 12  1  0
 13 14  1  1
 13 12  1  0
 14 18  1  0
 15 14  2  0
 17 16  1  6
 17 19  1  0
 18 17  1  0
 19 20  2  0
 19 21  1  0
M  END
$$$$
