TWQ.pdb
     RDKit          3D

 31 32  0  0  1  0  0  0  0  0999 V2000
    8.5574  -17.6796   20.0763 C   0  0  0  0  0  0  0  0  0  0  0  0
    7.8962  -16.3740   19.7577 C   0  0  1  0  0  0  0  0  0  0  0  0
    6.8944  -16.6493   18.7948 O   0  0  0  0  0  0  0  0  0  0  0  0
    7.1670  -15.7820   20.9408 C   0  0  2  0  0  0  0  0  0  0  0  0
    6.4540  -14.5891   20.5049 N   0  0  0  0  0  0  0  0  0  0  0  0
    8.1070  -15.3760   22.0197 C   0  0  0  0  0  0  0  0  0  0  0  0
    8.6655  -14.2484   21.9389 O   0  0  0  0  0  0  0  0  0  0  0  0
    8.3855  -16.1959   23.1051 N   0  0  0  0  0  0  0  0  0  0  0  0
    9.2737  -15.8310   24.2290 C   0  0  1  0  0  0  0  0  0  0  0  0
    8.5650  -15.9974   25.5042 C   0  0  0  0  0  0  0  0  0  0  0  0
    7.3970  -15.1451   25.6804 C   0  0  0  0  0  0  0  0  0  0  0  0
    6.0473  -15.4014   25.5701 C   0  0  0  0  0  0  0  0  0  0  0  0
    5.3534  -14.2819   25.8357 N   0  0  0  0  0  0  0  0  0  0  0  0
    6.1675  -13.2746   26.1222 C   0  0  0  0  0  0  0  0  0  0  0  0
    5.9339  -11.9619   26.4760 C   0  0  0  0  0  0  0  0  0  0  0  0
    6.9960  -11.1063   26.7555 C   0  0  0  0  0  0  0  0  0  0  0  0
    8.2797  -11.6019   26.6688 C   0  0  0  0  0  0  0  0  0  0  0  0
    8.4975  -12.9238   26.3109 C   0  0  0  0  0  0  0  0  0  0  0  0
    7.4607  -13.7922   26.0302 C   0  0  0  0  0  0  0  0  0  0  0  0
   10.5392  -16.4983   23.9874 C   0  0  0  0  0  0  0  0  0  0  0  0
   10.5493  -17.7764   23.9594 O   0  0  0  0  0  0  0  0  0  0  0  0
   16.0073  -15.6590   20.8472 N   0  0  0  0  0  0  0  0  0  0  0  0
   14.7036  -15.0707   20.7365 C   0  0  0  0  0  0  0  0  0  0  0  0
   14.4176  -14.5071   19.6660 O   0  0  0  0  0  0  0  0  0  0  0  0
   13.7541  -15.1271   21.8375 C   0  0  0  0  0  0  0  0  0  0  0  0
   14.1200  -15.8898   23.0425 C   0  0  0  0  0  0  0  0  0  0  0  0
   13.0203  -16.7271   23.6794 C   0  0  2  0  0  0  0  0  0  0  0  0
   11.8113  -15.8709   23.7589 N   0  0  0  0  0  0  0  0  0  0  0  0
   13.3045  -17.2200   25.0174 C   0  0  0  0  0  0  0  0  0  0  0  0
   12.7317  -16.8108   26.0835 O   0  0  0  0  0  0  0  0  0  0  0  0
   14.2528  -18.2080   25.2109 O   0  0  0  0  0  0  0  0  0  0  0  0
  2  1  1  1
  2  3  1  0
  4  2  1  0
  4  5  1  6
  6  8  1  0
  6  4  1  0
  7  6  2  0
  9 10  1  1
  9  8  1  0
 10 11  1  0
 11 19  1  0
 11 12  2  0
 12 13  1  0
 14 13  1  0
 14 15  2  0
 16 15  1  0
 17 16  2  0
 18 19  2  0
 18 17  1  0
 19 14  1  0
 20  9  1  0
 20 21  2  0
 22 23  1  0
 23 24  2  0
 25 23  1  0
 25 26  1  0
 27 26  1  1
 27 29  1  0
 27 28  1  0
 28 20  1  0
 29 31  1  0
 30 29  2  0
M  END
$$$$
