TWQ.pdb
     RDKit          3D

 31 32  0  0  1  0  0  0  0  0999 V2000
    8.3655  -17.9553   20.2537 C   0  0  0  0  0  0  0  0  0  0  0  0
    7.8519  -16.6143   19.8279 C   0  0  1  0  0  0  0  0  0  0  0  0
    6.8943  -16.8493   18.8108 O   0  0  0  0  0  0  0  0  0  0  0  0
    7.1050  -15.8964   20.9273 C   0  0  2  0  0  0  0  0  0  0  0  0
    6.5354  -14.6701   20.3857 N   0  0  0  0  0  0  0  0  0  0  0  0
    8.0062  -15.5177   22.0484 C   0  0  0  0  0  0  0  0  0  0  0  0
    8.7058  -14.4750   21.9329 O   0  0  0  0  0  0  0  0  0  0  0  0
    8.0993  -16.2730   23.2098 N   0  0  0  0  0  0  0  0  0  0  0  0
    9.0580  -16.0168   24.3054 C   0  0  1  0  0  0  0  0  0  0  0  0
    8.3589  -16.0221   25.5966 C   0  0  0  0  0  0  0  0  0  0  0  0
    7.3485  -14.9856   25.7591 C   0  0  0  0  0  0  0  0  0  0  0  0
    5.9727  -15.0243   25.6880 C   0  0  0  0  0  0  0  0  0  0  0  0
    5.4754  -13.7975   25.9182 N   0  0  0  0  0  0  0  0  0  0  0  0
    6.4484  -12.9245   26.1432 C   0  0  0  0  0  0  0  0  0  0  0  0
    6.4388  -11.5782   26.4436 C   0  0  0  0  0  0  0  0  0  0  0  0
    7.6320  -10.8953   26.6631 C   0  0  0  0  0  0  0  0  0  0  0  0
    8.8163  -11.5951   26.5720 C   0  0  0  0  0  0  0  0  0  0  0  0
    8.8088  -12.9482   26.2683 C   0  0  0  0  0  0  0  0  0  0  0  0
    7.6385  -13.6479   26.0475 C   0  0  0  0  0  0  0  0  0  0  0  0
   10.1947  -16.8872   24.0701 C   0  0  0  0  0  0  0  0  0  0  0  0
    9.9659  -18.1164   23.8037 O   0  0  0  0  0  0  0  0  0  0  0  0
   14.6886  -15.7549   20.4411 N   0  0  0  0  0  0  0  0  0  0  0  0
   14.8008  -15.1849   21.7528 C   0  0  0  0  0  0  0  0  0  0  0  0
   15.4154  -14.1097   21.8604 O   0  0  0  0  0  0  0  0  0  0  0  0
   14.2214  -15.8431   22.9138 C   0  0  0  0  0  0  0  0  0  0  0  0
   13.4790  -17.0984   22.7123 C   0  0  0  0  0  0  0  0  0  0  0  0
   12.6033  -17.5654   23.8661 C   0  0  2  0  0  0  0  0  0  0  0  0
   11.5818  -16.5133   24.0913 N   0  0  0  0  0  0  0  0  0  0  0  0
   13.2948  -17.7904   25.1253 C   0  0  0  0  0  0  0  0  0  0  0  0
   13.0717  -17.1468   26.2061 O   0  0  0  0  0  0  0  0  0  0  0  0
   14.2733  -18.7630   25.2206 O   0  0  0  0  0  0  0  0  0  0  0  0
  2  1  1  1
  2  3  1  0
  4  2  1  0
  4  5  1  6
  6  8  1  0
  6  4  1  0
  7  6  2  0
  9 10  1  1
  9  8  1  0
 10 11  1  0
 11 19  1  0
 11 12  2  0
 12 13  1  0
 14 13  1  0
 14 15  2  0
 16 15  1  0
 17 16  2  0
 18 19  2  0
 18 17  1  0
 19 14  1  0
 20  9  1  0
 20 21  2  0
 22 23  1  0
 23 24  2  0
 25 23  1  0
 25 26  1  0
 27 26  1  6
 27 29  1  0
 27 28  1  0
 28 20  1  0
 29 31  1  0
 30 29  2  0
M  END
$$$$
