TWQ.pdb
     RDKit          3D

 31 32  0  0  1  0  0  0  0  0999 V2000
   11.1744  -19.6478   19.3315 C   0  0  0  0  0  0  0  0  0  0  0  0
   10.9397  -18.7321   20.4933 C   0  0  1  0  0  0  0  0  0  0  0  0
   12.2085  -18.4653   21.0641 O   0  0  0  0  0  0  0  0  0  0  0  0
   10.3929  -17.3865   20.0781 C   0  0  2  0  0  0  0  0  0  0  0  0
   11.3581  -16.7367   19.2020 N   0  0  0  0  0  0  0  0  0  0  0  0
   10.1763  -16.4954   21.2492 C   0  0  0  0  0  0  0  0  0  0  0  0
   11.0777  -15.6667   21.5503 O   0  0  0  0  0  0  0  0  0  0  0  0
    9.0193  -16.5489   22.0150 N   0  0  0  0  0  0  0  0  0  0  0  0
    8.7130  -15.6411   23.1408 C   0  0  1  0  0  0  0  0  0  0  0  0
    7.2782  -15.6893   23.4492 C   0  0  0  0  0  0  0  0  0  0  0  0
    6.8910  -15.0526   24.7008 C   0  0  0  0  0  0  0  0  0  0  0  0
    6.4187  -15.5701   25.8875 C   0  0  0  0  0  0  0  0  0  0  0  0
    6.2064  -14.5717   26.7612 N   0  0  0  0  0  0  0  0  0  0  0  0
    6.5125  -13.3977   26.2252 C   0  0  0  0  0  0  0  0  0  0  0  0
    6.4855  -12.1120   26.7244 C   0  0  0  0  0  0  0  0  0  0  0  0
    6.8956  -11.0399   25.9366 C   0  0  0  0  0  0  0  0  0  0  0  0
    7.3257  -11.2950   24.6518 C   0  0  0  0  0  0  0  0  0  0  0  0
    7.3459  -12.5932   24.1646 C   0  0  0  0  0  0  0  0  0  0  0  0
    6.9454  -13.6732   24.9269 C   0  0  0  0  0  0  0  0  0  0  0  0
    9.7046  -15.9070   24.1659 C   0  0  0  0  0  0  0  0  0  0  0  0
   10.1856  -14.9127   24.8096 O   0  0  0  0  0  0  0  0  0  0  0  0
   10.5385  -18.4353   29.6678 N   0  0  0  0  0  0  0  0  0  0  0  0
    9.7917  -19.1178   28.6506 C   0  0  0  0  0  0  0  0  0  0  0  0
    9.1189  -20.1040   28.9974 O   0  0  0  0  0  0  0  0  0  0  0  0
    9.8246  -18.6754   27.2650 C   0  0  0  0  0  0  0  0  0  0  0  0
   10.4221  -17.3650   26.9598 C   0  0  0  0  0  0  0  0  0  0  0  0
   11.2041  -17.2586   25.6586 C   0  0  2  0  0  0  0  0  0  0  0  0
   10.2115  -17.1929   24.5578 N   0  0  0  0  0  0  0  0  0  0  0  0
   12.1061  -18.3641   25.3783 C   0  0  0  0  0  0  0  0  0  0  0  0
   11.9006  -19.2700   24.5013 O   0  0  0  0  0  0  0  0  0  0  0  0
   13.2913  -18.4932   26.0791 O   0  0  0  0  0  0  0  0  0  0  0  0
  2  1  1  6
  2  3  1  0
  4  2  1  0
  4  5  1  6
  6  8  1  0
  6  4  1  0
  7  6  2  0
  9 10  1  1
  9  8  1  0
 10 11  1  0
 11 19  1  0
 11 12  2  0
 12 13  1  0
 14 13  1  0
 14 15  2  0
 16 15  1  0
 17 16  2  0
 18 19  2  0
 18 17  1  0
 19 14  1  0
 20  9  1  0
 20 21  2  0
 22 23  1  0
 23 24  2  0
 25 23  1  0
 25 26  1  0
 27 26  1  1
 27 29  1  0
 27 28  1  0
 28 20  1  0
 29 31  1  0
 30 29  2  0
M  END
$$$$
