TWQ.pdb
     RDKit          3D

 31 32  0  0  1  0  0  0  0  0999 V2000
    7.1776  -16.9871   18.4350 C   0  0  0  0  0  0  0  0  0  0  0  0
    7.9275  -16.7405   19.7078 C   0  0  1  0  0  0  0  0  0  0  0  0
    9.2038  -16.2484   19.3394 O   0  0  0  0  0  0  0  0  0  0  0  0
    7.3052  -15.6549   20.5540 C   0  0  2  0  0  0  0  0  0  0  0  0
    7.2472  -14.4260   19.7743 N   0  0  0  0  0  0  0  0  0  0  0  0
    8.1112  -15.3773   21.7729 C   0  0  0  0  0  0  0  0  0  0  0  0
    8.9015  -14.3949   21.7615 O   0  0  0  0  0  0  0  0  0  0  0  0
    8.0196  -16.1623   22.9146 N   0  0  0  0  0  0  0  0  0  0  0  0
    8.8231  -15.9630   24.1393 C   0  0  1  0  0  0  0  0  0  0  0  0
    7.9811  -16.1464   25.3282 C   0  0  0  0  0  0  0  0  0  0  0  0
    7.0555  -15.0568   25.6068 C   0  0  0  0  0  0  0  0  0  0  0  0
    5.6787  -14.9946   25.5945 C   0  0  0  0  0  0  0  0  0  0  0  0
    5.2810  -13.7561   25.9309 N   0  0  0  0  0  0  0  0  0  0  0  0
    6.3227  -12.9713   26.1723 C   0  0  0  0  0  0  0  0  0  0  0  0
    6.4225  -11.6527   26.5652 C   0  0  0  0  0  0  0  0  0  0  0  0
    7.6696  -11.0719   26.7783 C   0  0  0  0  0  0  0  0  0  0  0  0
    8.7957  -11.8438   26.5863 C   0  0  0  0  0  0  0  0  0  0  0  0
    8.6783  -13.1676   26.1903 C   0  0  0  0  0  0  0  0  0  0  0  0
    7.4527  -13.7667   25.9740 C   0  0  0  0  0  0  0  0  0  0  0  0
   10.0407  -16.7319   23.9629 C   0  0  0  0  0  0  0  0  0  0  0  0
    9.9644  -17.8436   23.3364 O   0  0  0  0  0  0  0  0  0  0  0  0
   16.3551  -16.1621   21.3888 N   0  0  0  0  0  0  0  0  0  0  0  0
   15.9935  -16.2540   22.7741 C   0  0  0  0  0  0  0  0  0  0  0  0
   16.6776  -15.6114   23.5893 O   0  0  0  0  0  0  0  0  0  0  0  0
   14.8719  -17.0724   23.2087 C   0  0  0  0  0  0  0  0  0  0  0  0
   13.5795  -16.4149   23.4636 C   0  0  0  0  0  0  0  0  0  0  0  0
   12.4889  -17.2738   24.0875 C   0  0  2  0  0  0  0  0  0  0  0  0
   11.3567  -16.3719   24.4129 N   0  0  0  0  0  0  0  0  0  0  0  0
   12.8638  -17.9739   25.3055 C   0  0  0  0  0  0  0  0  0  0  0  0
   12.4839  -17.6487   26.4811 O   0  0  0  0  0  0  0  0  0  0  0  0
   13.6871  -19.0836   25.2479 O   0  0  0  0  0  0  0  0  0  0  0  0
  2  1  1  6
  2  3  1  0
  4  2  1  0
  4  5  1  6
  6  8  1  0
  6  4  1  0
  7  6  2  0
  9 10  1  1
  9  8  1  0
 10 11  1  0
 11 19  1  0
 11 12  2  0
 12 13  1  0
 14 13  1  0
 14 15  2  0
 16 15  1  0
 17 16  2  0
 18 19  2  0
 18 17  1  0
 19 14  1  0
 20  9  1  0
 20 21  2  0
 22 23  1  0
 23 24  2  0
 25 23  1  0
 25 26  1  0
 27 26  1  1
 27 29  1  0
 27 28  1  0
 28 20  1  0
 29 31  1  0
 30 29  2  0
M  END
$$$$
