TWQ.pdb
     RDKit          3D

 31 32  0  0  1  0  0  0  0  0999 V2000
    6.6519  -18.3580   20.2586 C   0  0  0  0  0  0  0  0  0  0  0  0
    7.9396  -18.2288   19.5047 C   0  0  1  0  0  0  0  0  0  0  0  0
    7.6565  -18.5573   18.1561 O   0  0  0  0  0  0  0  0  0  0  0  0
    8.4614  -16.8115   19.4739 C   0  0  2  0  0  0  0  0  0  0  0  0
    9.6093  -16.7523   18.5793 N   0  0  0  0  0  0  0  0  0  0  0  0
    8.9139  -16.3624   20.8177 C   0  0  0  0  0  0  0  0  0  0  0  0
   10.0941  -16.6262   21.1750 O   0  0  0  0  0  0  0  0  0  0  0  0
    8.0813  -15.6664   21.6839 N   0  0  0  0  0  0  0  0  0  0  0  0
    8.4290  -15.3019   23.0737 C   0  0  1  0  0  0  0  0  0  0  0  0
    7.6116  -14.1646   23.5146 C   0  0  0  0  0  0  0  0  0  0  0  0
    7.7232  -13.8315   24.9281 C   0  0  0  0  0  0  0  0  0  0  0  0
    8.4977  -14.3597   25.9384 C   0  0  0  0  0  0  0  0  0  0  0  0
    8.2483  -13.7060   27.0854 N   0  0  0  0  0  0  0  0  0  0  0  0
    7.3400  -12.7565   26.9039 C   0  0  0  0  0  0  0  0  0  0  0  0
    6.7848  -11.8252   27.7568 C   0  0  0  0  0  0  0  0  0  0  0  0
    5.8506  -10.9062   27.2871 C   0  0  0  0  0  0  0  0  0  0  0  0
    5.4959  -10.9515   25.9556 C   0  0  0  0  0  0  0  0  0  0  0  0
    6.0627  -11.8945   25.1114 C   0  0  0  0  0  0  0  0  0  0  0  0
    6.9923  -12.8157   25.5532 C   0  0  0  0  0  0  0  0  0  0  0  0
    8.4534  -16.5395   23.8304 C   0  0  0  0  0  0  0  0  0  0  0  0
    7.7136  -17.5028   23.4317 O   0  0  0  0  0  0  0  0  0  0  0  0
   12.4256  -18.3634   21.0294 N   0  0  0  0  0  0  0  0  0  0  0  0
   12.5613  -19.0767   22.2667 C   0  0  0  0  0  0  0  0  0  0  0  0
   12.8686  -20.2797   22.2046 O   0  0  0  0  0  0  0  0  0  0  0  0
   12.3426  -18.4181   23.5455 C   0  0  0  0  0  0  0  0  0  0  0  0
   11.1373  -17.5892   23.7119 C   0  0  0  0  0  0  0  0  0  0  0  0
   10.2674  -17.8866   24.9248 C   0  0  2  0  0  0  0  0  0  0  0  0
    9.2423  -16.8167   24.9987 N   0  0  0  0  0  0  0  0  0  0  0  0
   10.9641  -17.9236   26.2005 C   0  0  0  0  0  0  0  0  0  0  0  0
   10.9976  -16.9633   27.0425 O   0  0  0  0  0  0  0  0  0  0  0  0
   11.6552  -19.0577   26.5862 O   0  0  0  0  0  0  0  0  0  0  0  0
  2  1  1  1
  2  3  1  0
  4  2  1  0
  4  5  1  6
  6  8  1  0
  6  4  1  0
  7  6  2  0
  9 10  1  1
  9  8  1  0
 10 11  1  0
 11 19  1  0
 11 12  2  0
 12 13  1  0
 14 13  1  0
 14 15  2  0
 16 15  1  0
 17 16  2  0
 18 19  2  0
 18 17  1  0
 19 14  1  0
 20  9  1  0
 20 21  2  0
 22 23  1  0
 23 24  2  0
 25 23  1  0
 25 26  1  0
 27 26  1  6
 27 29  1  0
 27 28  1  0
 28 20  1  0
 29 31  1  0
 30 29  2  0
M  END
$$$$
