TWQ.pdb
     RDKit          3D

 31 32  0  0  1  0  0  0  0  0999 V2000
    7.5166  -14.9719   17.7340 C   0  0  0  0  0  0  0  0  0  0  0  0
    8.0577  -15.1676   19.1168 C   0  0  1  0  0  0  0  0  0  0  0  0
    9.4696  -15.1818   19.0033 O   0  0  0  0  0  0  0  0  0  0  0  0
    7.7386  -14.0150   20.0397 C   0  0  2  0  0  0  0  0  0  0  0  0
    8.1085  -12.7694   19.3817 N   0  0  0  0  0  0  0  0  0  0  0  0
    8.5069  -14.0987   21.3105 C   0  0  0  0  0  0  0  0  0  0  0  0
    9.3761  -13.2166   21.5479 O   0  0  0  0  0  0  0  0  0  0  0  0
    8.2968  -15.1120   22.2363 N   0  0  0  0  0  0  0  0  0  0  0  0
    9.0401  -15.2592   23.5055 C   0  0  1  0  0  0  0  0  0  0  0  0
    8.2002  -15.9314   24.5049 C   0  0  0  0  0  0  0  0  0  0  0  0
    7.2139  -15.0820   25.1586 C   0  0  0  0  0  0  0  0  0  0  0  0
    5.9086  -15.3123   25.5362 C   0  0  0  0  0  0  0  0  0  0  0  0
    5.4065  -14.2094   26.1165 N   0  0  0  0  0  0  0  0  0  0  0  0
    6.3091  -13.2381   26.1522 C   0  0  0  0  0  0  0  0  0  0  0  0
    6.2751  -11.9551   26.6580 C   0  0  0  0  0  0  0  0  0  0  0  0
    7.3995  -11.1375   26.5851 C   0  0  0  0  0  0  0  0  0  0  0  0
    8.5407  -11.6399   25.9967 C   0  0  0  0  0  0  0  0  0  0  0  0
    8.5581  -12.9316   25.4923 C   0  0  0  0  0  0  0  0  0  0  0  0
    7.4563  -13.7622   25.5538 C   0  0  0  0  0  0  0  0  0  0  0  0
   10.3482  -15.7823   23.1585 C   0  0  0  0  0  0  0  0  0  0  0  0
   11.2108  -15.9130   24.0929 O   0  0  0  0  0  0  0  0  0  0  0  0
   12.9856  -14.7687   17.8840 N   0  0  0  0  0  0  0  0  0  0  0  0
   13.4005  -14.2626   19.1607 C   0  0  0  0  0  0  0  0  0  0  0  0
   14.5446  -13.7835   19.2434 O   0  0  0  0  0  0  0  0  0  0  0  0
   12.5174  -14.3131   20.3158 C   0  0  0  0  0  0  0  0  0  0  0  0
   12.9256  -15.1199   21.4777 C   0  0  0  0  0  0  0  0  0  0  0  0
   12.2352  -16.4652   21.6499 C   0  0  2  0  0  0  0  0  0  0  0  0
   10.7915  -16.1911   21.8545 N   0  0  0  0  0  0  0  0  0  0  0  0
   12.6985  -17.2674   22.7706 C   0  0  0  0  0  0  0  0  0  0  0  0
   13.8563  -17.8003   22.8581 O   0  0  0  0  0  0  0  0  0  0  0  0
   11.8690  -17.5011   23.8523 O   0  0  0  0  0  0  0  0  0  0  0  0
  2  1  1  6
  2  3  1  0
  4  2  1  0
  4  5  1  6
  6  8  1  0
  6  4  1  0
  7  6  2  0
  9 10  1  1
  9  8  1  0
 10 11  1  0
 11 19  1  0
 11 12  2  0
 12 13  1  0
 14 13  1  0
 14 15  2  0
 16 15  1  0
 17 16  2  0
 18 19  2  0
 18 17  1  0
 19 14  1  0
 20  9  1  0
 20 21  2  0
 22 23  1  0
 23 24  2  0
 25 23  1  0
 25 26  1  0
 27 26  1  1
 27 29  1  0
 27 28  1  0
 28 20  1  0
 29 31  1  0
 30 29  2  0
M  END
$$$$
