TWQ.pdb
     RDKit          3D

 31 32  0  0  1  0  0  0  0  0999 V2000
    8.7309  -19.4850   17.5632 C   0  0  0  0  0  0  0  0  0  0  0  0
    8.9444  -18.7586   18.8555 C   0  0  1  0  0  0  0  0  0  0  0  0
   10.3118  -18.9165   19.1902 O   0  0  0  0  0  0  0  0  0  0  0  0
    8.7282  -17.2686   18.7332 C   0  0  2  0  0  0  0  0  0  0  0  0
    9.6874  -16.7312   17.7778 N   0  0  0  0  0  0  0  0  0  0  0  0
    8.9456  -16.5726   20.0296 C   0  0  0  0  0  0  0  0  0  0  0  0
   10.0883  -16.0994   20.2749 O   0  0  0  0  0  0  0  0  0  0  0  0
    7.9348  -16.4299   20.9708 N   0  0  0  0  0  0  0  0  0  0  0  0
    8.1080  -15.8173   22.3049 C   0  0  1  0  0  0  0  0  0  0  0  0
    6.8120  -15.3557   22.8182 C   0  0  0  0  0  0  0  0  0  0  0  0
    6.7855  -15.0371   24.2393 C   0  0  0  0  0  0  0  0  0  0  0  0
    6.5336  -15.8126   25.3504 C   0  0  0  0  0  0  0  0  0  0  0  0
    6.6329  -15.0582   26.4577 N   0  0  0  0  0  0  0  0  0  0  0  0
    6.9410  -13.8046   26.1530 C   0  0  0  0  0  0  0  0  0  0  0  0
    7.1686  -12.6876   26.9300 C   0  0  0  0  0  0  0  0  0  0  0  0
    7.5103  -11.4743   26.3391 C   0  0  0  0  0  0  0  0  0  0  0  0
    7.6135  -11.4180   24.9654 C   0  0  0  0  0  0  0  0  0  0  0  0
    7.3807  -12.5498   24.1986 C   0  0  0  0  0  0  0  0  0  0  0  0
    7.0417  -13.7648   24.7612 C   0  0  0  0  0  0  0  0  0  0  0  0
    8.9311  -16.7314   23.0743 C   0  0  0  0  0  0  0  0  0  0  0  0
    8.7891  -17.9854   22.8703 O   0  0  0  0  0  0  0  0  0  0  0  0
   14.6213  -17.3795   22.2109 N   0  0  0  0  0  0  0  0  0  0  0  0
   14.5151  -18.0580   23.4705 C   0  0  0  0  0  0  0  0  0  0  0  0
   15.5587  -18.5211   23.9623 O   0  0  0  0  0  0  0  0  0  0  0  0
   13.2337  -18.2028   24.1440 C   0  0  0  0  0  0  0  0  0  0  0  0
   12.1277  -17.3151   23.7486 C   0  0  0  0  0  0  0  0  0  0  0  0
   10.8381  -17.4351   24.5478 C   0  0  2  0  0  0  0  0  0  0  0  0
    9.9202  -16.3789   24.0549 N   0  0  0  0  0  0  0  0  0  0  0  0
   10.9753  -17.2691   25.9858 C   0  0  0  0  0  0  0  0  0  0  0  0
   10.5084  -16.2863   26.6553 O   0  0  0  0  0  0  0  0  0  0  0  0
   11.6474  -18.2159   26.7371 O   0  0  0  0  0  0  0  0  0  0  0  0
  2  1  1  6
  2  3  1  0
  4  2  1  0
  4  5  1  6
  6  8  1  0
  6  4  1  0
  7  6  2  0
  9 10  1  1
  9  8  1  0
 10 11  1  0
 11 19  1  0
 11 12  2  0
 12 13  1  0
 14 13  1  0
 14 15  2  0
 16 15  1  0
 17 16  2  0
 18 19  2  0
 18 17  1  0
 19 14  1  0
 20  9  1  0
 20 21  2  0
 22 23  1  0
 23 24  2  0
 25 23  1  0
 25 26  1  0
 27 26  1  6
 27 29  1  0
 27 28  1  0
 28 20  1  0
 29 31  1  0
 30 29  2  0
M  END
$$$$
