TWQ.pdb
     RDKit          3D

 31 32  0  0  1  0  0  0  0  0999 V2000
    6.6570  -14.5731   19.7905 C   0  0  0  0  0  0  0  0  0  0  0  0
    7.3360  -14.5250   21.1246 C   0  0  1  0  0  0  0  0  0  0  0  0
    6.3767  -14.9313   22.0845 O   0  0  0  0  0  0  0  0  0  0  0  0
    8.4693  -15.5169   21.2417 C   0  0  2  0  0  0  0  0  0  0  0  0
    7.9229  -16.8653   21.1743 N   0  0  0  0  0  0  0  0  0  0  0  0
    9.1843  -15.3849   22.5393 C   0  0  0  0  0  0  0  0  0  0  0  0
    9.9448  -14.3936   22.7098 O   0  0  0  0  0  0  0  0  0  0  0  0
    9.0401  -16.3142   23.5609 N   0  0  0  0  0  0  0  0  0  0  0  0
    9.7075  -16.2278   24.8770 C   0  0  1  0  0  0  0  0  0  0  0  0
    8.7118  -16.3188   25.9524 C   0  0  0  0  0  0  0  0  0  0  0  0
    7.5635  -15.4339   25.8111 C   0  0  0  0  0  0  0  0  0  0  0  0
    6.2673  -15.6680   25.4057 C   0  0  0  0  0  0  0  0  0  0  0  0
    5.5687  -14.5210   25.4469 N   0  0  0  0  0  0  0  0  0  0  0  0
    6.3285  -13.5161   25.8618 C   0  0  0  0  0  0  0  0  0  0  0  0
    6.0639  -12.1808   26.0852 C   0  0  0  0  0  0  0  0  0  0  0  0
    7.0617  -11.3329   26.5582 C   0  0  0  0  0  0  0  0  0  0  0  0
    8.3138  -11.8590   26.7951 C   0  0  0  0  0  0  0  0  0  0  0  0
    8.5636  -13.2035   26.5647 C   0  0  0  0  0  0  0  0  0  0  0  0
    7.5904  -14.0648   26.0969 C   0  0  0  0  0  0  0  0  0  0  0  0
   10.8357  -17.1386   24.8274 C   0  0  0  0  0  0  0  0  0  0  0  0
   11.1792  -17.7299   25.9075 O   0  0  0  0  0  0  0  0  0  0  0  0
   15.3227  -15.9608   20.7548 N   0  0  0  0  0  0  0  0  0  0  0  0
   15.8376  -15.7533   22.0776 C   0  0  0  0  0  0  0  0  0  0  0  0
   17.0625  -15.5764   22.1952 O   0  0  0  0  0  0  0  0  0  0  0  0
   14.9599  -15.7548   23.2380 C   0  0  0  0  0  0  0  0  0  0  0  0
   13.5541  -16.1520   23.0552 C   0  0  0  0  0  0  0  0  0  0  0  0
   13.1015  -17.4109   23.7807 C   0  0  2  0  0  0  0  0  0  0  0  0
   11.6230  -17.4688   23.6717 N   0  0  0  0  0  0  0  0  0  0  0  0
   13.4461  -17.4783   25.1916 C   0  0  0  0  0  0  0  0  0  0  0  0
   12.8213  -16.8709   26.1259 O   0  0  0  0  0  0  0  0  0  0  0  0
   14.5176  -18.2444   25.6130 O   0  0  0  0  0  0  0  0  0  0  0  0
  2  1  1  6
  2  3  1  0
  4  2  1  0
  4  5  1  1
  6  8  1  0
  6  4  1  0
  7  6  2  0
  9 10  1  1
  9  8  1  0
 10 11  1  0
 11 19  1  0
 11 12  2  0
 12 13  1  0
 14 13  1  0
 14 15  2  0
 16 15  1  0
 17 16  2  0
 18 19  2  0
 18 17  1  0
 19 14  1  0
 20  9  1  0
 20 21  2  0
 22 23  1  0
 23 24  2  0
 25 23  1  0
 25 26  1  0
 27 26  1  1
 27 29  1  0
 27 28  1  0
 28 20  1  0
 29 31  1  0
 30 29  2  0
M  END
$$$$
