TWQ.pdb
     RDKit          3D

 31 32  0  0  1  0  0  0  0  0999 V2000
    8.1964  -16.9704   19.3193 C   0  0  0  0  0  0  0  0  0  0  0  0
    8.1797  -15.5084   18.9946 C   0  0  1  0  0  0  0  0  0  0  0  0
    7.3011  -15.3456   17.8955 O   0  0  0  0  0  0  0  0  0  0  0  0
    7.5962  -14.6677   20.1058 C   0  0  2  0  0  0  0  0  0  0  0  0
    7.4854  -13.2905   19.6448 N   0  0  0  0  0  0  0  0  0  0  0  0
    8.4658  -14.6702   21.3125 C   0  0  0  0  0  0  0  0  0  0  0  0
    9.4640  -13.9001   21.3371 O   0  0  0  0  0  0  0  0  0  0  0  0
    8.2127  -15.4896   22.4046 N   0  0  0  0  0  0  0  0  0  0  0  0
    9.0654  -15.5729   23.6092 C   0  0  1  0  0  0  0  0  0  0  0  0
    8.2384  -15.8386   24.7931 C   0  0  0  0  0  0  0  0  0  0  0  0
    7.2134  -14.8414   25.0701 C   0  0  0  0  0  0  0  0  0  0  0  0
    5.8580  -14.8231   24.8214 C   0  0  0  0  0  0  0  0  0  0  0  0
    5.3330  -13.6716   25.2727 N   0  0  0  0  0  0  0  0  0  0  0  0
    6.2677  -12.9043   25.8177 C   0  0  0  0  0  0  0  0  0  0  0  0
    6.2173  -11.6670   26.4256 C   0  0  0  0  0  0  0  0  0  0  0  0
    7.3714  -11.0893   26.9477 C   0  0  0  0  0  0  0  0  0  0  0  0
    8.5590  -11.7812   26.8409 C   0  0  0  0  0  0  0  0  0  0  0  0
    8.5929  -13.0238   26.2260 C   0  0  0  0  0  0  0  0  0  0  0  0
    7.4617  -13.6182   25.7017 C   0  0  0  0  0  0  0  0  0  0  0  0
   10.1775  -16.4399   23.2676 C   0  0  0  0  0  0  0  0  0  0  0  0
    9.9175  -17.5584   22.7059 O   0  0  0  0  0  0  0  0  0  0  0  0
   14.3409  -13.9392   21.2115 N   0  0  0  0  0  0  0  0  0  0  0  0
   13.9983  -15.0685   20.3957 C   0  0  0  0  0  0  0  0  0  0  0  0
   13.9572  -14.8958   19.1653 O   0  0  0  0  0  0  0  0  0  0  0  0
   13.7051  -16.3652   20.9867 C   0  0  0  0  0  0  0  0  0  0  0  0
   13.7360  -16.4923   22.4531 C   0  0  0  0  0  0  0  0  0  0  0  0
   12.5609  -17.2109   23.1001 C   0  0  2  0  0  0  0  0  0  0  0  0
   11.5726  -16.1728   23.4832 N   0  0  0  0  0  0  0  0  0  0  0  0
   12.8781  -17.9832   24.2906 C   0  0  0  0  0  0  0  0  0  0  0  0
   13.6680  -18.9868   24.3210 O   0  0  0  0  0  0  0  0  0  0  0  0
   12.3159  -17.6503   25.5094 O   0  0  0  0  0  0  0  0  0  0  0  0
  2  1  1  1
  2  3  1  0
  4  2  1  0
  4  5  1  6
  6  8  1  0
  6  4  1  0
  7  6  2  0
  9 10  1  1
  9  8  1  0
 10 11  1  0
 11 19  1  0
 11 12  2  0
 12 13  1  0
 14 13  1  0
 14 15  2  0
 16 15  1  0
 17 16  2  0
 18 19  2  0
 18 17  1  0
 19 14  1  0
 20  9  1  0
 20 21  2  0
 22 23  1  0
 23 24  2  0
 25 23  1  0
 25 26  1  0
 27 26  1  1
 27 29  1  0
 27 28  1  0
 28 20  1  0
 29 31  1  0
 30 29  2  0
M  END
$$$$
