IFY.pdb
     RDKit          3D

 32 33  0  0  1  0  0  0  0  0999 V2000
   10.7006  -20.8743   18.2666 C   0  0  0  0  0  0  0  0  0  0  0  0
    9.6264  -19.8400   18.3954 C   0  0  0  0  0  0  0  0  0  0  0  0
   10.0053  -18.7677   19.4326 C   0  0  2  0  0  0  0  0  0  0  0  0
   10.0498  -19.5063   20.7513 C   0  0  0  0  0  0  0  0  0  0  0  0
    8.8687  -17.7633   19.4203 C   0  0  2  0  0  0  0  0  0  0  0  0
    8.8405  -17.1431   18.0771 N   0  0  0  0  0  0  0  0  0  0  0  0
    9.0272  -16.6709   20.4038 C   0  0  0  0  0  0  0  0  0  0  0  0
   10.0508  -15.8949   20.3189 O   0  0  0  0  0  0  0  0  0  0  0  0
    8.1352  -16.3896   21.4555 N   0  0  0  0  0  0  0  0  0  0  0  0
    8.4165  -15.2593   22.3991 C   0  0  1  0  0  0  0  0  0  0  0  0
    7.1238  -14.9086   23.0760 C   0  0  0  0  0  0  0  0  0  0  0  0
    7.1800  -13.9768   24.1950 C   0  0  0  0  0  0  0  0  0  0  0  0
    7.6833  -12.7061   24.1013 C   0  0  0  0  0  0  0  0  0  0  0  0
    7.7300  -11.8530   25.2096 C   0  0  0  0  0  0  0  0  0  0  0  0
    7.2678  -12.2792   26.4192 C   0  0  0  0  0  0  0  0  0  0  0  0
    6.7567  -13.5605   26.5257 C   0  0  0  0  0  0  0  0  0  0  0  0
    6.7153  -14.3855   25.4399 C   0  0  0  0  0  0  0  0  0  0  0  0
    9.3920  -15.7895   23.3643 C   0  0  0  0  0  0  0  0  0  0  0  0
    9.1860  -16.9845   23.7935 O   0  0  0  0  0  0  0  0  0  0  0  0
   10.3911  -14.5736   31.2187 O   0  0  0  0  0  0  0  0  0  0  0  0
   10.3373  -15.0497   29.9107 C   0  0  0  0  0  0  0  0  0  0  0  0
   10.2696  -16.3955   29.6455 C   0  0  0  0  0  0  0  0  0  0  0  0
   10.2178  -16.8327   28.3473 C   0  0  0  0  0  0  0  0  0  0  0  0
   10.2293  -15.9788   27.2431 C   0  0  0  0  0  0  0  0  0  0  0  0
   10.1976  -16.4974   25.8618 C   0  0  0  0  0  0  0  0  0  0  0  0
   11.2031  -15.7012   25.0276 C   0  0  2  0  0  0  0  0  0  0  0  0
   10.5295  -15.1481   23.8688 N   0  0  0  0  0  0  0  0  0  0  0  0
   12.3192  -16.5285   24.5994 C   0  0  0  0  0  0  0  0  0  0  0  0
   12.4683  -16.8963   23.2842 O   0  0  0  0  0  0  0  0  0  0  0  0
   10.2985  -14.6153   27.5344 C   0  0  0  0  0  0  0  0  0  0  0  0
   10.3501  -14.1872   28.8396 C   0  0  0  0  0  0  0  0  0  0  0  0
   13.1863  -16.9400   25.4071 O   0  0  0  0  0  0  0  0  0  0  0  0
  1  2  1  0
  3  5  1  0
  3  2  1  0
  3  4  1  1
  5  7  1  0
  5  6  1  6
  7  8  2  0
  9 10  1  0
  9  7  1  0
 11 12  1  0
 10 11  1  1
 12 17  2  0
 13 14  2  0
 13 12  1  0
 14 15  1  0
 15 16  2  0
 17 16  1  0
 18 19  2  0
 18 10  1  0
 20 21  1  0
 21 31  2  0
 21 22  1  0
 22 23  2  0
 23 24  1  0
 24 25  1  0
 26 25  1  6
 26 27  1  0
 26 28  1  0
 27 18  1  0
 28 32  2  0
 28 29  1  0
 30 24  2  0
 31 30  1  0
M  END
$$$$
