IFY.pdb
     RDKit          3D

 32 33  0  0  1  0  0  0  0  0999 V2000
    7.6793  -12.6545   18.8600 C   0  0  0  0  0  0  0  0  0  0  0  0
    7.7846  -13.8704   19.7265 C   0  0  0  0  0  0  0  0  0  0  0  0
    9.0016  -14.7289   19.3383 C   0  0  2  0  0  0  0  0  0  0  0  0
    8.6140  -15.3762   18.0278 C   0  0  0  0  0  0  0  0  0  0  0  0
    9.1349  -15.7723   20.4312 C   0  0  2  0  0  0  0  0  0  0  0  0
    7.9189  -16.6145   20.3901 N   0  0  0  0  0  0  0  0  0  0  0  0
    9.2269  -15.2023   21.7922 C   0  0  0  0  0  0  0  0  0  0  0  0
   10.1102  -14.2976   22.0343 O   0  0  0  0  0  0  0  0  0  0  0  0
    8.4129  -15.5657   22.8814 N   0  0  0  0  0  0  0  0  0  0  0  0
    8.5436  -14.8484   24.1911 C   0  0  1  0  0  0  0  0  0  0  0  0
    7.1935  -14.2888   24.5320 C   0  0  0  0  0  0  0  0  0  0  0  0
    7.0821  -13.4891   25.7452 C   0  0  0  0  0  0  0  0  0  0  0  0
    7.7894  -12.3363   25.9631 C   0  0  0  0  0  0  0  0  0  0  0  0
    7.6593  -11.6106   27.1527 C   0  0  0  0  0  0  0  0  0  0  0  0
    6.8130  -12.0459   28.1287 C   0  0  0  0  0  0  0  0  0  0  0  0
    6.0931  -13.2087   27.9196 C   0  0  0  0  0  0  0  0  0  0  0  0
    6.2264  -13.9098   26.7569 C   0  0  0  0  0  0  0  0  0  0  0  0
    8.9500  -15.8771   25.1611 C   0  0  0  0  0  0  0  0  0  0  0  0
    8.1839  -16.9052   25.2650 O   0  0  0  0  0  0  0  0  0  0  0  0
   11.6309  -19.4966   21.2186 O   0  0  0  0  0  0  0  0  0  0  0  0
   11.6495  -19.0382   22.5339 C   0  0  0  0  0  0  0  0  0  0  0  0
   11.1408  -19.7970   23.5592 C   0  0  0  0  0  0  0  0  0  0  0  0
   11.1738  -19.3178   24.8432 C   0  0  0  0  0  0  0  0  0  0  0  0
   11.7048  -18.0746   25.1909 C   0  0  0  0  0  0  0  0  0  0  0  0
   11.6951  -17.5899   26.5848 C   0  0  0  0  0  0  0  0  0  0  0  0
   10.3162  -16.9944   26.8758 C   0  0  2  0  0  0  0  0  0  0  0  0
   10.0823  -15.8749   25.9844 N   0  0  0  0  0  0  0  0  0  0  0  0
   10.2020  -16.5555   28.2570 C   0  0  0  0  0  0  0  0  0  0  0  0
   10.3668  -17.4356   29.2989 O   0  0  0  0  0  0  0  0  0  0  0  0
   12.2164  -17.3192   24.1342 C   0  0  0  0  0  0  0  0  0  0  0  0
   12.1785  -17.8087   22.8503 C   0  0  0  0  0  0  0  0  0  0  0  0
    9.9484  -15.3633   28.5539 O   0  0  0  0  0  0  0  0  0  0  0  0
  1  2  1  0
  3  5  1  0
  3  2  1  0
  3  4  1  6
  5  7  1  0
  5  6  1  1
  7  8  2  0
  9 10  1  0
  9  7  1  0
 11 12  1  0
 10 11  1  1
 12 17  2  0
 13 14  2  0
 13 12  1  0
 14 15  1  0
 15 16  2  0
 17 16  1  0
 18 19  2  0
 18 10  1  0
 20 21  1  0
 21 31  2  0
 21 22  1  0
 22 23  2  0
 23 24  1  0
 24 25  1  0
 26 25  1  1
 26 27  1  0
 26 28  1  0
 27 18  1  0
 28 32  2  0
 28 29  1  0
 30 24  2  0
 31 30  1  0
M  END
$$$$
