IFY.pdb
     RDKit          3D

 32 33  0  0  1  0  0  0  0  0999 V2000
   10.3837  -19.7236   17.6067 C   0  0  0  0  0  0  0  0  0  0  0  0
   10.3244  -18.2516   17.8712 C   0  0  0  0  0  0  0  0  0  0  0  0
   10.1794  -17.9601   19.3756 C   0  0  2  0  0  0  0  0  0  0  0  0
    8.9084  -18.6698   19.7846 C   0  0  0  0  0  0  0  0  0  0  0  0
   10.0128  -16.4567   19.4894 C   0  0  2  0  0  0  0  0  0  0  0  0
   11.2729  -15.8352   19.0250 N   0  0  0  0  0  0  0  0  0  0  0  0
    9.7752  -15.9855   20.8705 C   0  0  0  0  0  0  0  0  0  0  0  0
   10.6485  -16.2448   21.7800 O   0  0  0  0  0  0  0  0  0  0  0  0
    8.6498  -15.2557   21.2969 N   0  0  0  0  0  0  0  0  0  0  0  0
    8.4425  -14.9758   22.7549 C   0  0  1  0  0  0  0  0  0  0  0  0
    7.3166  -13.9898   22.8661 C   0  0  0  0  0  0  0  0  0  0  0  0
    7.1081  -13.3475   24.1574 C   0  0  0  0  0  0  0  0  0  0  0  0
    7.9248  -12.3691   24.6601 C   0  0  0  0  0  0  0  0  0  0  0  0
    7.6916  -11.7929   25.9140 C   0  0  0  0  0  0  0  0  0  0  0  0
    6.6312  -12.2020   26.6668 C   0  0  0  0  0  0  0  0  0  0  0  0
    5.7993  -13.1890   26.1690 C   0  0  0  0  0  0  0  0  0  0  0  0
    6.0344  -13.7454   24.9457 C   0  0  0  0  0  0  0  0  0  0  0  0
    8.0742  -16.2686   23.3525 C   0  0  0  0  0  0  0  0  0  0  0  0
    8.3423  -17.3197   22.6613 O   0  0  0  0  0  0  0  0  0  0  0  0
   12.3526  -16.7500   30.6416 O   0  0  0  0  0  0  0  0  0  0  0  0
   11.5892  -16.4800   29.5082 C   0  0  0  0  0  0  0  0  0  0  0  0
   11.8853  -17.0556   28.2970 C   0  0  0  0  0  0  0  0  0  0  0  0
   11.1147  -16.7698   27.1998 C   0  0  0  0  0  0  0  0  0  0  0  0
   10.0169  -15.9081   27.2296 C   0  0  0  0  0  0  0  0  0  0  0  0
    9.2319  -15.6106   26.0158 C   0  0  0  0  0  0  0  0  0  0  0  0
    8.2998  -16.7935   25.7460 C   0  0  2  0  0  0  0  0  0  0  0  0
    7.4700  -16.4940   24.5952 N   0  0  0  0  0  0  0  0  0  0  0  0
    7.4592  -17.0871   26.8952 C   0  0  0  0  0  0  0  0  0  0  0  0
    7.8173  -18.0456   27.8119 O   0  0  0  0  0  0  0  0  0  0  0  0
    9.7332  -15.3335   28.4699 C   0  0  0  0  0  0  0  0  0  0  0  0
   10.5119  -15.6267   29.5639 C   0  0  0  0  0  0  0  0  0  0  0  0
    6.3782  -16.4831   27.0963 O   0  0  0  0  0  0  0  0  0  0  0  0
  1  2  1  0
  3  5  1  0
  3  2  1  0
  3  4  1  6
  5  7  1  0
  5  6  1  1
  7  8  2  0
  9 10  1  0
  9  7  1  0
 11 12  1  0
 10 11  1  6
 12 17  2  0
 13 14  2  0
 13 12  1  0
 14 15  1  0
 15 16  2  0
 17 16  1  0
 18 19  2  0
 18 10  1  0
 20 21  1  0
 21 31  2  0
 21 22  1  0
 22 23  2  0
 23 24  1  0
 24 25  1  0
 26 25  1  1
 26 27  1  0
 26 28  1  0
 27 18  1  0
 28 32  2  0
 28 29  1  0
 30 24  2  0
 31 30  1  0
M  END
$$$$
