IFY.pdb
     RDKit          3D

 32 33  0  0  1  0  0  0  0  0999 V2000
    8.6705  -13.1018   16.8980 C   0  0  0  0  0  0  0  0  0  0  0  0
    7.8075  -13.6688   17.9815 C   0  0  0  0  0  0  0  0  0  0  0  0
    8.4620  -13.4969   19.3639 C   0  0  2  0  0  0  0  0  0  0  0  0
    9.8189  -14.1509   19.2316 C   0  0  0  0  0  0  0  0  0  0  0  0
    7.5876  -14.2706   20.3324 C   0  0  2  0  0  0  0  0  0  0  0  0
    6.2397  -13.6610   20.2959 N   0  0  0  0  0  0  0  0  0  0  0  0
    8.0555  -14.2151   21.7337 C   0  0  0  0  0  0  0  0  0  0  0  0
    8.2306  -13.0678   22.2909 O   0  0  0  0  0  0  0  0  0  0  0  0
    8.3340  -15.3335   22.5416 N   0  0  0  0  0  0  0  0  0  0  0  0
    8.8967  -15.1461   23.9183 C   0  0  1  0  0  0  0  0  0  0  0  0
    7.7753  -15.3573   24.8930 C   0  0  0  0  0  0  0  0  0  0  0  0
    7.2952  -14.1954   25.6301 C   0  0  0  0  0  0  0  0  0  0  0  0
    8.0691  -13.4751   26.5013 C   0  0  0  0  0  0  0  0  0  0  0  0
    7.5573  -12.3748   27.1983 C   0  0  0  0  0  0  0  0  0  0  0  0
    6.2603  -11.9957   27.0181 C   0  0  0  0  0  0  0  0  0  0  0  0
    5.4693  -12.7153   26.1402 C   0  0  0  0  0  0  0  0  0  0  0  0
    5.9766  -13.7869   25.4652 C   0  0  0  0  0  0  0  0  0  0  0  0
    9.9270  -16.1861   24.0641 C   0  0  0  0  0  0  0  0  0  0  0  0
    9.5823  -17.3857   23.7527 O   0  0  0  0  0  0  0  0  0  0  0  0
   13.0842  -15.1078   18.6833 O   0  0  0  0  0  0  0  0  0  0  0  0
   13.1818  -15.5254   20.0086 C   0  0  0  0  0  0  0  0  0  0  0  0
   13.6272  -14.6759   20.9914 C   0  0  0  0  0  0  0  0  0  0  0  0
   13.7119  -15.1169   22.2867 C   0  0  0  0  0  0  0  0  0  0  0  0
   13.3664  -16.4085   22.6876 C   0  0  0  0  0  0  0  0  0  0  0  0
   13.4988  -16.8461   24.0909 C   0  0  0  0  0  0  0  0  0  0  0  0
   12.1045  -17.1883   24.6198 C   0  0  2  0  0  0  0  0  0  0  0  0
   11.2487  -16.0244   24.4965 N   0  0  0  0  0  0  0  0  0  0  0  0
   12.1484  -17.6217   26.0068 C   0  0  0  0  0  0  0  0  0  0  0  0
   12.8381  -18.7504   26.3777 O   0  0  0  0  0  0  0  0  0  0  0  0
   12.9164  -17.2559   21.6735 C   0  0  0  0  0  0  0  0  0  0  0  0
   12.8350  -16.8041   20.3780 C   0  0  0  0  0  0  0  0  0  0  0  0
   11.5613  -16.9887   26.9170 O   0  0  0  0  0  0  0  0  0  0  0  0
  1  2  1  0
  3  5  1  0
  3  2  1  0
  3  4  1  6
  5  7  1  0
  5  6  1  1
  7  8  2  0
  9 10  1  0
  9  7  1  0
 11 12  1  0
 10 11  1  1
 12 17  2  0
 13 14  2  0
 13 12  1  0
 14 15  1  0
 15 16  2  0
 17 16  1  0
 18 19  2  0
 18 10  1  0
 20 21  1  0
 21 31  2  0
 21 22  1  0
 22 23  2  0
 23 24  1  0
 24 25  1  0
 26 25  1  1
 26 27  1  0
 26 28  1  0
 27 18  1  0
 28 32  2  0
 28 29  1  0
 30 24  2  0
 31 30  1  0
M  END
$$$$
