IFY.pdb
     RDKit          3D

 32 33  0  0  1  0  0  0  0  0999 V2000
    9.5534  -20.8338   19.1042 C   0  0  0  0  0  0  0  0  0  0  0  0
    8.7871  -19.5485   19.0734 C   0  0  0  0  0  0  0  0  0  0  0  0
    9.2762  -18.5806   20.1657 C   0  0  2  0  0  0  0  0  0  0  0  0
    8.9846  -19.2909   21.4683 C   0  0  0  0  0  0  0  0  0  0  0  0
    8.4165  -17.3383   20.0299 C   0  0  2  0  0  0  0  0  0  0  0  0
    8.7274  -16.7257   18.7193 N   0  0  0  0  0  0  0  0  0  0  0  0
    8.6784  -16.3153   21.0646 C   0  0  0  0  0  0  0  0  0  0  0  0
    9.8661  -15.8328   21.1822 O   0  0  0  0  0  0  0  0  0  0  0  0
    7.7211  -15.8020   21.9596 N   0  0  0  0  0  0  0  0  0  0  0  0
    8.1375  -14.8591   23.0480 C   0  0  1  0  0  0  0  0  0  0  0  0
    6.8964  -14.1862   23.5568 C   0  0  0  0  0  0  0  0  0  0  0  0
    7.0174  -13.3661   24.7553 C   0  0  0  0  0  0  0  0  0  0  0  0
    6.3704  -13.6393   25.9316 C   0  0  0  0  0  0  0  0  0  0  0  0
    6.5065  -12.8118   27.0519 C   0  0  0  0  0  0  0  0  0  0  0  0
    7.2979  -11.7035   26.9899 C   0  0  0  0  0  0  0  0  0  0  0  0
    7.9566  -11.4178   25.8073 C   0  0  0  0  0  0  0  0  0  0  0  0
    7.8179  -12.2301   24.7200 C   0  0  0  0  0  0  0  0  0  0  0  0
    8.7442  -15.7054   24.0872 C   0  0  0  0  0  0  0  0  0  0  0  0
    8.0747  -16.7428   24.4482 O   0  0  0  0  0  0  0  0  0  0  0  0
   13.0616  -20.2942   29.9993 O   0  0  0  0  0  0  0  0  0  0  0  0
   12.7010  -19.5419   28.8838 C   0  0  0  0  0  0  0  0  0  0  0  0
   13.3478  -18.3702   28.5762 C   0  0  0  0  0  0  0  0  0  0  0  0
   12.9694  -17.6524   27.4712 C   0  0  0  0  0  0  0  0  0  0  0  0
   11.9412  -18.0419   26.6113 C   0  0  0  0  0  0  0  0  0  0  0  0
   11.5520  -17.2226   25.4471 C   0  0  0  0  0  0  0  0  0  0  0  0
   10.3353  -16.3815   25.8382 C   0  0  2  0  0  0  0  0  0  0  0  0
    9.9745  -15.5202   24.7290 N   0  0  0  0  0  0  0  0  0  0  0  0
   10.5969  -15.5771   27.0205 C   0  0  0  0  0  0  0  0  0  0  0  0
   11.3386  -14.4231   26.9459 O   0  0  0  0  0  0  0  0  0  0  0  0
   11.2967  -19.2354   26.9418 C   0  0  0  0  0  0  0  0  0  0  0  0
   11.6837  -19.9477   28.0518 C   0  0  0  0  0  0  0  0  0  0  0  0
   10.1610  -15.9011   28.1514 O   0  0  0  0  0  0  0  0  0  0  0  0
  1  2  1  0
  3  5  1  0
  3  2  1  0
  3  4  1  1
  5  7  1  0
  5  6  1  6
  7  8  2  0
  9 10  1  0
  9  7  1  0
 11 12  1  0
 10 11  1  1
 12 17  2  0
 13 14  2  0
 13 12  1  0
 14 15  1  0
 15 16  2  0
 17 16  1  0
 18 19  2  0
 18 10  1  0
 20 21  1  0
 21 31  2  0
 21 22  1  0
 22 23  2  0
 23 24  1  0
 24 25  1  0
 26 25  1  6
 26 27  1  0
 26 28  1  0
 27 18  1  0
 28 32  2  0
 28 29  1  0
 30 24  2  0
 31 30  1  0
M  END
$$$$
