IFY.pdb
     RDKit          3D

 32 33  0  0  1  0  0  0  0  0999 V2000
   11.7275  -18.7399   19.7508 C   0  0  0  0  0  0  0  0  0  0  0  0
   10.8392  -18.5766   20.9444 C   0  0  0  0  0  0  0  0  0  0  0  0
    9.3875  -18.2849   20.5241 C   0  0  2  0  0  0  0  0  0  0  0  0
    9.1684  -19.1261   19.2868 C   0  0  0  0  0  0  0  0  0  0  0  0
    9.3473  -16.8079   20.1806 C   0  0  2  0  0  0  0  0  0  0  0  0
   10.5386  -16.5131   19.3539 N   0  0  0  0  0  0  0  0  0  0  0  0
    9.4024  -15.9191   21.3607 C   0  0  0  0  0  0  0  0  0  0  0  0
   10.5488  -15.5982   21.8505 O   0  0  0  0  0  0  0  0  0  0  0  0
    8.2845  -15.3722   22.0181 N   0  0  0  0  0  0  0  0  0  0  0  0
    8.4554  -14.6538   23.3226 C   0  0  1  0  0  0  0  0  0  0  0  0
    7.1813  -13.9086   23.5938 C   0  0  0  0  0  0  0  0  0  0  0  0
    7.0408  -13.2643   24.8933 C   0  0  0  0  0  0  0  0  0  0  0  0
    6.1971  -13.7112   25.8757 C   0  0  0  0  0  0  0  0  0  0  0  0
    6.0857  -13.0483   27.1033 C   0  0  0  0  0  0  0  0  0  0  0  0
    6.8271  -11.9302   27.3450 C   0  0  0  0  0  0  0  0  0  0  0  0
    7.6831  -11.4699   26.3603 C   0  0  0  0  0  0  0  0  0  0  0  0
    7.7850  -12.1223   25.1665 C   0  0  0  0  0  0  0  0  0  0  0  0
    8.6741  -15.7091   24.3241 C   0  0  0  0  0  0  0  0  0  0  0  0
    7.9061  -16.7385   24.2529 O   0  0  0  0  0  0  0  0  0  0  0  0
   15.7850  -15.5986   24.9089 O   0  0  0  0  0  0  0  0  0  0  0  0
   14.5256  -16.1750   25.0568 C   0  0  0  0  0  0  0  0  0  0  0  0
   13.6696  -16.2983   23.9900 C   0  0  0  0  0  0  0  0  0  0  0  0
   12.4366  -16.8703   24.1679 C   0  0  0  0  0  0  0  0  0  0  0  0
   11.9771  -17.3505   25.3954 C   0  0  0  0  0  0  0  0  0  0  0  0
   10.6305  -17.9359   25.5439 C   0  0  0  0  0  0  0  0  0  0  0  0
    9.7257  -16.8950   26.2062 C   0  0  2  0  0  0  0  0  0  0  0  0
    9.6296  -15.7309   25.3471 N   0  0  0  0  0  0  0  0  0  0  0  0
   10.2275  -16.5018   27.5128 C   0  0  0  0  0  0  0  0  0  0  0  0
   10.3562  -15.1778   27.8563 O   0  0  0  0  0  0  0  0  0  0  0  0
   12.8622  -17.2156   26.4666 C   0  0  0  0  0  0  0  0  0  0  0  0
   14.0963  -16.6406   26.2777 C   0  0  0  0  0  0  0  0  0  0  0  0
   10.5634  -17.3486   28.3752 O   0  0  0  0  0  0  0  0  0  0  0  0
  1  2  1  0
  3  5  1  0
  3  2  1  0
  3  4  1  6
  5  7  1  0
  5  6  1  6
  7  8  2  0
  9 10  1  0
  9  7  1  0
 11 12  1  0
 10 11  1  1
 12 17  2  0
 13 14  2  0
 13 12  1  0
 14 15  1  0
 15 16  2  0
 17 16  1  0
 18 19  2  0
 18 10  1  0
 20 21  1  0
 21 31  2  0
 21 22  1  0
 22 23  2  0
 23 24  1  0
 24 25  1  0
 26 25  1  6
 26 27  1  0
 26 28  1  0
 27 18  1  0
 28 32  2  0
 28 29  1  0
 30 24  2  0
 31 30  1  0
M  END
$$$$
