IFY.pdb
     RDKit          3D

 32 33  0  0  1  0  0  0  0  0999 V2000
   10.7027  -20.3381   18.9548 C   0  0  0  0  0  0  0  0  0  0  0  0
    9.6326  -19.3049   19.1214 C   0  0  0  0  0  0  0  0  0  0  0  0
    9.9546  -18.3503   20.2851 C   0  0  2  0  0  0  0  0  0  0  0  0
    9.6462  -19.1466   21.5330 C   0  0  0  0  0  0  0  0  0  0  0  0
    8.9919  -17.1869   20.1415 C   0  0  2  0  0  0  0  0  0  0  0  0
    9.3061  -16.5071   18.8652 N   0  0  0  0  0  0  0  0  0  0  0  0
    9.1106  -16.1781   21.2158 C   0  0  0  0  0  0  0  0  0  0  0  0
   10.2215  -15.5436   21.3596 O   0  0  0  0  0  0  0  0  0  0  0  0
    8.0908  -15.8341   22.1227 N   0  0  0  0  0  0  0  0  0  0  0  0
    8.3559  -14.8377   23.2108 C   0  0  1  0  0  0  0  0  0  0  0  0
    7.0344  -14.2503   23.6120 C   0  0  0  0  0  0  0  0  0  0  0  0
    7.0117  -13.3744   24.7764 C   0  0  0  0  0  0  0  0  0  0  0  0
    7.5847  -12.1303   24.8028 C   0  0  0  0  0  0  0  0  0  0  0  0
    7.5499  -11.3318   25.9516 C   0  0  0  0  0  0  0  0  0  0  0  0
    6.9350  -11.7861   27.0803 C   0  0  0  0  0  0  0  0  0  0  0  0
    6.3523  -13.0409   27.0652 C   0  0  0  0  0  0  0  0  0  0  0  0
    6.3914  -13.8126   25.9408 C   0  0  0  0  0  0  0  0  0  0  0  0
    8.9472  -15.6113   24.3136 C   0  0  0  0  0  0  0  0  0  0  0  0
    8.4539  -16.7801   24.5262 O   0  0  0  0  0  0  0  0  0  0  0  0
   13.2182  -19.7338   30.5699 O   0  0  0  0  0  0  0  0  0  0  0  0
   12.8512  -19.0060   29.4402 C   0  0  0  0  0  0  0  0  0  0  0  0
   12.7930  -17.6342   29.4653 C   0  0  0  0  0  0  0  0  0  0  0  0
   12.4283  -16.9466   28.3369 C   0  0  0  0  0  0  0  0  0  0  0  0
   12.1022  -17.5630   27.1277 C   0  0  0  0  0  0  0  0  0  0  0  0
   11.6902  -16.7815   25.9455 C   0  0  0  0  0  0  0  0  0  0  0  0
   10.3650  -16.0879   26.2675 C   0  0  2  0  0  0  0  0  0  0  0  0
    9.9949  -15.2286   25.1597 N   0  0  0  0  0  0  0  0  0  0  0  0
   10.4523  -15.3049   27.4893 C   0  0  0  0  0  0  0  0  0  0  0  0
   10.0950  -15.8391   28.7035 O   0  0  0  0  0  0  0  0  0  0  0  0
   12.1674  -18.9575   27.1235 C   0  0  0  0  0  0  0  0  0  0  0  0
   12.5343  -19.6376   28.2603 C   0  0  0  0  0  0  0  0  0  0  0  0
   10.8533  -14.1162   27.4865 O   0  0  0  0  0  0  0  0  0  0  0  0
  1  2  1  0
  3  5  1  0
  3  2  1  0
  3  4  1  1
  5  7  1  0
  5  6  1  6
  7  8  2  0
  9 10  1  0
  9  7  1  0
 11 12  1  0
 10 11  1  1
 12 17  2  0
 13 14  2  0
 13 12  1  0
 14 15  1  0
 15 16  2  0
 17 16  1  0
 18 19  2  0
 18 10  1  0
 20 21  1  0
 21 31  2  0
 21 22  1  0
 22 23  2  0
 23 24  1  0
 24 25  1  0
 26 25  1  6
 26 27  1  0
 26 28  1  0
 27 18  1  0
 28 32  2  0
 28 29  1  0
 30 24  2  0
 31 30  1  0
M  END
$$$$
