DHD.pdb
     RDKit          3D

 27 27  0  0  1  0  0  0  0  0999 V2000
   12.4935  -16.1615   17.6405 N   0  0  0  0  0  0  0  0  0  0  0  0
   13.2591  -15.3239   18.5252 C   0  0  1  0  0  0  0  0  0  0  0  0
   13.8360  -14.1214   17.8335 C   0  0  0  0  0  0  0  0  0  0  0  0
   14.8740  -14.5518   16.8613 C   0  0  0  0  0  0  0  0  0  0  0  0
   15.7180  -13.7200   16.4433 O   0  0  0  0  0  0  0  0  0  0  0  0
   12.4986  -15.0252   19.7298 C   0  0  0  0  0  0  0  0  0  0  0  0
   13.0226  -14.2871   20.6041 O   0  0  0  0  0  0  0  0  0  0  0  0
   14.9608  -15.8477   16.3825 O   0  0  0  0  0  0  0  0  0  0  0  0
   11.1941  -15.4954   20.0219 N   0  0  0  0  0  0  0  0  0  0  0  0
   10.4769  -15.2285   21.2406 C   0  0  1  0  0  0  0  0  0  0  0  0
    8.9766  -15.2838   21.0416 C   0  0  0  0  0  0  0  0  0  0  0  0
    8.6182  -14.2771   19.9830 C   0  0  0  0  0  0  0  0  0  0  0  0
    8.3126  -12.9481   20.1455 C   0  0  0  0  0  0  0  0  0  0  0  0
    8.0530  -12.4032   18.9646 N   0  0  0  0  0  0  0  0  0  0  0  0
    8.1928  -13.3776   18.0637 C   0  0  0  0  0  0  0  0  0  0  0  0
    8.5342  -14.5198   18.6552 N   0  0  0  0  0  0  0  0  0  0  0  0
   10.8104  -16.2193   22.2897 C   0  0  0  0  0  0  0  0  0  0  0  0
   10.5530  -17.4308   22.0514 O   0  0  0  0  0  0  0  0  0  0  0  0
   11.3945  -15.8837   23.5209 N   0  0  0  0  0  0  0  0  0  0  0  0
   11.7248  -16.9539   24.4495 C   0  0  1  0  0  0  0  0  0  0  0  0
   13.0458  -16.6421   25.1451 C   0  0  0  0  0  0  0  0  0  0  0  0
   14.1075  -16.6327   24.1188 C   0  0  0  0  0  0  0  0  0  0  0  0
   14.2169  -17.6110   23.3420 O   0  0  0  0  0  0  0  0  0  0  0  0
   10.6110  -17.1132   25.3903 C   0  0  0  0  0  0  0  0  0  0  0  0
   10.6055  -17.9899   26.2882 O   0  0  0  0  0  0  0  0  0  0  0  0
   14.9756  -15.5791   23.9966 O   0  0  0  0  0  0  0  0  0  0  0  0
    9.5106  -16.2888   25.3207 O   0  0  0  0  0  0  0  0  0  0  0  0
  2  1  1  6
  2  3  1  0
  3  4  1  0
  4  5  2  0
  6  2  1  0
  7  6  2  0
  8  4  1  0
  9  6  1  0
 10  9  1  0
 11 12  1  0
 10 11  1  6
 12 13  2  0
 13 14  1  0
 15 14  1  0
 16 12  1  0
 16 15  2  0
 17 10  1  0
 17 18  2  0
 19 17  1  0
 20 21  1  1
 20 19  1  0
 22 21  1  0
 22 26  1  0
 23 22  2  0
 24 20  1  0
 25 24  2  0
 27 24  1  0
M  END
$$$$
