DHD.pdb
     RDKit          3D

 27 27  0  0  1  0  0  0  0  0999 V2000
    8.4679  -17.3629   16.7529 N   0  0  0  0  0  0  0  0  0  0  0  0
    9.6047  -17.9181   17.4383 C   0  0  1  0  0  0  0  0  0  0  0  0
   10.6807  -18.3830   16.4984 C   0  0  0  0  0  0  0  0  0  0  0  0
   10.1383  -19.4286   15.5926 C   0  0  0  0  0  0  0  0  0  0  0  0
    8.9314  -19.7661   15.6842 O   0  0  0  0  0  0  0  0  0  0  0  0
   10.0607  -17.0146   18.4845 C   0  0  0  0  0  0  0  0  0  0  0  0
   11.0452  -16.2676   18.2468 O   0  0  0  0  0  0  0  0  0  0  0  0
   10.9094  -20.0626   14.6337 O   0  0  0  0  0  0  0  0  0  0  0  0
    9.4908  -16.8906   19.7760 N   0  0  0  0  0  0  0  0  0  0  0  0
    9.9302  -15.9617   20.7835 C   0  0  1  0  0  0  0  0  0  0  0  0
    8.7680  -15.3382   21.5280 C   0  0  0  0  0  0  0  0  0  0  0  0
    8.0298  -14.4511   20.5633 C   0  0  0  0  0  0  0  0  0  0  0  0
    8.2748  -13.1330   20.2658 C   0  0  0  0  0  0  0  0  0  0  0  0
    7.3997  -12.7100   19.3635 N   0  0  0  0  0  0  0  0  0  0  0  0
    6.6087  -13.7500   19.0927 C   0  0  0  0  0  0  0  0  0  0  0  0
    6.9699  -14.8140   19.8057 N   0  0  0  0  0  0  0  0  0  0  0  0
   10.7836  -16.6274   21.7943 C   0  0  0  0  0  0  0  0  0  0  0  0
   10.5267  -17.8301   22.0745 O   0  0  0  0  0  0  0  0  0  0  0  0
   11.8540  -15.9969   22.4473 N   0  0  0  0  0  0  0  0  0  0  0  0
   12.7410  -16.8051   23.2700 C   0  0  1  0  0  0  0  0  0  0  0  0
   14.1783  -16.3225   23.1044 C   0  0  0  0  0  0  0  0  0  0  0  0
   15.0443  -17.1838   23.9343 C   0  0  0  0  0  0  0  0  0  0  0  0
   14.7809  -18.4061   24.0301 O   0  0  0  0  0  0  0  0  0  0  0  0
   12.2756  -16.7385   24.6592 C   0  0  0  0  0  0  0  0  0  0  0  0
   11.8120  -15.6884   25.1665 O   0  0  0  0  0  0  0  0  0  0  0  0
   16.1291  -16.6774   24.6016 O   0  0  0  0  0  0  0  0  0  0  0  0
   12.3311  -17.8485   25.4716 O   0  0  0  0  0  0  0  0  0  0  0  0
  2  1  1  6
  2  3  1  0
  3  4  1  0
  4  5  2  0
  6  2  1  0
  7  6  2  0
  8  4  1  0
  9  6  1  0
 10  9  1  0
 11 12  1  0
 10 11  1  1
 12 13  2  0
 13 14  1  0
 15 14  1  0
 16 12  1  0
 16 15  2  0
 17 10  1  0
 17 18  2  0
 19 17  1  0
 20 21  1  1
 20 19  1  0
 22 21  1  0
 22 26  1  0
 23 22  2  0
 24 20  1  0
 25 24  2  0
 27 24  1  0
M  END
$$$$
