DHD.pdb
     RDKit          3D

 27 27  0  0  1  0  0  0  0  0999 V2000
   12.2980  -15.3827   15.2359 N   0  0  0  0  0  0  0  0  0  0  0  0
   12.3743  -16.3217   16.3235 C   0  0  1  0  0  0  0  0  0  0  0  0
   13.4963  -17.3078   16.1631 C   0  0  0  0  0  0  0  0  0  0  0  0
   13.3005  -18.0923   14.9164 C   0  0  0  0  0  0  0  0  0  0  0  0
   14.0671  -17.9075   13.9381 O   0  0  0  0  0  0  0  0  0  0  0  0
   12.3561  -15.6247   17.6012 C   0  0  0  0  0  0  0  0  0  0  0  0
   13.2604  -14.7825   17.8396 O   0  0  0  0  0  0  0  0  0  0  0  0
   12.2969  -19.0350   14.7743 O   0  0  0  0  0  0  0  0  0  0  0  0
   11.3967  -15.8057   18.6282 N   0  0  0  0  0  0  0  0  0  0  0  0
   11.3779  -15.0842   19.8732 C   0  0  1  0  0  0  0  0  0  0  0  0
    9.9833  -14.9925   20.4566 C   0  0  0  0  0  0  0  0  0  0  0  0
    9.1404  -14.1906   19.5031 C   0  0  0  0  0  0  0  0  0  0  0  0
    9.3362  -12.8994   19.0783 C   0  0  0  0  0  0  0  0  0  0  0  0
    8.3699  -12.5559   18.2374 N   0  0  0  0  0  0  0  0  0  0  0  0
    7.5705  -13.6191   18.1312 C   0  0  0  0  0  0  0  0  0  0  0  0
    8.0156  -14.6198   18.8870 N   0  0  0  0  0  0  0  0  0  0  0  0
   12.2292  -15.7432   20.8903 C   0  0  0  0  0  0  0  0  0  0  0  0
   12.0882  -16.9860   21.0531 O   0  0  0  0  0  0  0  0  0  0  0  0
   13.1766  -15.0641   21.6718 N   0  0  0  0  0  0  0  0  0  0  0  0
   14.0581  -15.8417   22.5291 C   0  0  1  0  0  0  0  0  0  0  0  0
   15.3136  -15.0348   22.8434 C   0  0  0  0  0  0  0  0  0  0  0  0
   16.1775  -15.8598   23.7114 C   0  0  0  0  0  0  0  0  0  0  0  0
   15.9542  -17.0902   23.8059 O   0  0  0  0  0  0  0  0  0  0  0  0
   13.3143  -16.2272   23.7329 C   0  0  0  0  0  0  0  0  0  0  0  0
   13.7951  -16.9853   24.6100 O   0  0  0  0  0  0  0  0  0  0  0  0
   17.2175  -15.3111   24.4156 O   0  0  0  0  0  0  0  0  0  0  0  0
   12.0372  -15.7604   23.9480 O   0  0  0  0  0  0  0  0  0  0  0  0
  2  1  1  6
  2  3  1  0
  3  4  1  0
  4  5  2  0
  6  2  1  0
  7  6  2  0
  8  4  1  0
  9  6  1  0
 10  9  1  0
 11 12  1  0
 10 11  1  1
 12 13  2  0
 13 14  1  0
 15 14  1  0
 16 12  1  0
 16 15  2  0
 17 10  1  0
 17 18  2  0
 19 17  1  0
 20 21  1  1
 20 19  1  0
 22 21  1  0
 22 26  1  0
 23 22  2  0
 24 20  1  0
 25 24  2  0
 27 24  1  0
M  END
$$$$
