DHD.pdb
     RDKit          3D

 27 27  0  0  1  0  0  0  0  0999 V2000
   11.1668  -17.1062   16.8443 N   0  0  0  0  0  0  0  0  0  0  0  0
   12.1787  -16.0938   16.9912 C   0  0  1  0  0  0  0  0  0  0  0  0
   12.2628  -15.1786   15.8027 C   0  0  0  0  0  0  0  0  0  0  0  0
   12.4963  -15.9760   14.5709 C   0  0  0  0  0  0  0  0  0  0  0  0
   12.8261  -17.1848   14.6654 O   0  0  0  0  0  0  0  0  0  0  0  0
   12.0394  -15.4157   18.2716 C   0  0  0  0  0  0  0  0  0  0  0  0
   12.8843  -14.5357   18.5809 O   0  0  0  0  0  0  0  0  0  0  0  0
   12.3665  -15.4452   13.2990 O   0  0  0  0  0  0  0  0  0  0  0  0
   11.0211  -15.6550   19.2275 N   0  0  0  0  0  0  0  0  0  0  0  0
   10.9559  -15.0469   20.5301 C   0  0  1  0  0  0  0  0  0  0  0  0
    9.5338  -14.9485   21.0415 C   0  0  0  0  0  0  0  0  0  0  0  0
    8.7517  -14.1175   20.0615 C   0  0  0  0  0  0  0  0  0  0  0  0
    8.7767  -12.7544   19.8959 C   0  0  0  0  0  0  0  0  0  0  0  0
    7.9411  -12.4083   18.9260 N   0  0  0  0  0  0  0  0  0  0  0  0
    7.3927  -13.5410   18.4821 C   0  0  0  0  0  0  0  0  0  0  0  0
    7.8670  -14.5878   19.1531 N   0  0  0  0  0  0  0  0  0  0  0  0
   11.7208  -15.8290   21.5284 C   0  0  0  0  0  0  0  0  0  0  0  0
   11.6389  -17.0864   21.4721 O   0  0  0  0  0  0  0  0  0  0  0  0
   12.5260  -15.2497   22.5212 N   0  0  0  0  0  0  0  0  0  0  0  0
   13.2243  -16.1253   23.4499 C   0  0  1  0  0  0  0  0  0  0  0  0
   14.5382  -15.4792   23.8772 C   0  0  0  0  0  0  0  0  0  0  0  0
   15.5100  -15.6593   22.7801 C   0  0  0  0  0  0  0  0  0  0  0  0
   15.1641  -16.2904   21.7531 O   0  0  0  0  0  0  0  0  0  0  0  0
   12.3350  -16.4066   24.5816 C   0  0  0  0  0  0  0  0  0  0  0  0
   11.2192  -15.8488   24.7186 O   0  0  0  0  0  0  0  0  0  0  0  0
   16.7809  -15.1524   22.8593 O   0  0  0  0  0  0  0  0  0  0  0  0
   12.7000  -17.3119   25.5524 O   0  0  0  0  0  0  0  0  0  0  0  0
  2  1  1  6
  2  3  1  0
  3  4  1  0
  4  5  2  0
  6  2  1  0
  7  6  2  0
  8  4  1  0
  9  6  1  0
 10  9  1  0
 11 12  1  0
 10 11  1  1
 12 13  2  0
 13 14  1  0
 15 14  1  0
 16 12  1  0
 16 15  2  0
 17 10  1  0
 17 18  2  0
 19 17  1  0
 20 21  1  1
 20 19  1  0
 22 21  1  0
 22 26  1  0
 23 22  2  0
 24 20  1  0
 25 24  2  0
 27 24  1  0
M  END
$$$$
