DHD.pdb
     RDKit          3D

 27 27  0  0  1  0  0  0  0  0999 V2000
   10.3028  -17.4473   14.1371 N   0  0  0  0  0  0  0  0  0  0  0  0
   11.4002  -16.5509   14.3875 C   0  0  1  0  0  0  0  0  0  0  0  0
   11.7835  -15.7481   13.1769 C   0  0  0  0  0  0  0  0  0  0  0  0
   11.9704  -16.6531   12.0133 C   0  0  0  0  0  0  0  0  0  0  0  0
   12.2295  -17.8676   12.2049 O   0  0  0  0  0  0  0  0  0  0  0  0
   11.1515  -15.7626   15.5855 C   0  0  0  0  0  0  0  0  0  0  0  0
   12.1157  -15.1490   16.1124 O   0  0  0  0  0  0  0  0  0  0  0  0
   11.8717  -16.2184   10.7027 O   0  0  0  0  0  0  0  0  0  0  0  0
    9.8996  -15.6145   16.2327 N   0  0  0  0  0  0  0  0  0  0  0  0
    9.6733  -14.8289   17.4170 C   0  0  1  0  0  0  0  0  0  0  0  0
    8.1998  -14.7038   17.7437 C   0  0  0  0  0  0  0  0  0  0  0  0
    8.0697  -13.7804   18.9240 C   0  0  0  0  0  0  0  0  0  0  0  0
    8.3285  -12.4328   18.9788 C   0  0  0  0  0  0  0  0  0  0  0  0
    8.0906  -11.9831   20.2035 N   0  0  0  0  0  0  0  0  0  0  0  0
    7.6852  -13.0356   20.9168 C   0  0  0  0  0  0  0  0  0  0  0  0
    7.6644  -14.1335   20.1650 N   0  0  0  0  0  0  0  0  0  0  0  0
   10.3278  -15.4357   18.5989 C   0  0  0  0  0  0  0  0  0  0  0  0
   10.4500  -16.6909   18.6183 O   0  0  0  0  0  0  0  0  0  0  0  0
   10.8167  -14.6938   19.6853 N   0  0  0  0  0  0  0  0  0  0  0  0
   11.5236  -15.3956   20.7457 C   0  0  1  0  0  0  0  0  0  0  0  0
   12.9231  -14.8108   20.9057 C   0  0  0  0  0  0  0  0  0  0  0  0
   13.5986  -15.5429   21.9958 C   0  0  0  0  0  0  0  0  0  0  0  0
   13.1109  -16.6250   22.4007 O   0  0  0  0  0  0  0  0  0  0  0  0
   10.7267  -15.3063   21.9737 C   0  0  0  0  0  0  0  0  0  0  0  0
    9.7969  -14.4755   22.1165 O   0  0  0  0  0  0  0  0  0  0  0  0
   14.7460  -15.0664   22.5745 O   0  0  0  0  0  0  0  0  0  0  0  0
   10.9749  -16.1487   23.0338 O   0  0  0  0  0  0  0  0  0  0  0  0
  2  1  1  6
  2  3  1  0
  3  4  1  0
  4  5  2  0
  6  2  1  0
  7  6  2  0
  8  4  1  0
  9  6  1  0
 10  9  1  0
 11 12  1  0
 10 11  1  1
 12 13  2  0
 13 14  1  0
 15 14  1  0
 16 12  1  0
 16 15  2  0
 17 10  1  0
 17 18  2  0
 19 17  1  0
 20 21  1  1
 20 19  1  0
 22 21  1  0
 22 26  1  0
 23 22  2  0
 24 20  1  0
 25 24  2  0
 27 24  1  0
M  END
$$$$
