DHD.pdb
     RDKit          3D

 27 27  0  0  1  0  0  0  0  0999 V2000
    9.7544  -17.5339   15.7734 N   0  0  0  0  0  0  0  0  0  0  0  0
   10.3080  -16.2997   15.2826 C   0  0  1  0  0  0  0  0  0  0  0  0
    9.4254  -15.6289   14.2686 C   0  0  0  0  0  0  0  0  0  0  0  0
    8.8943  -16.6402   13.3184 C   0  0  0  0  0  0  0  0  0  0  0  0
    9.6063  -17.0254   12.3574 O   0  0  0  0  0  0  0  0  0  0  0  0
   10.7169  -15.4483   16.3902 C   0  0  0  0  0  0  0  0  0  0  0  0
   11.2020  -14.3164   16.1310 O   0  0  0  0  0  0  0  0  0  0  0  0
    7.6302  -17.1911   13.4397 O   0  0  0  0  0  0  0  0  0  0  0  0
   10.6201  -15.7770   17.7651 N   0  0  0  0  0  0  0  0  0  0  0  0
   11.0130  -14.9134   18.8472 C   0  0  1  0  0  0  0  0  0  0  0  0
    9.9468  -14.8232   19.9190 C   0  0  0  0  0  0  0  0  0  0  0  0
    8.7791  -14.0720   19.3405 C   0  0  0  0  0  0  0  0  0  0  0  0
    8.5286  -12.7228   19.3935 C   0  0  0  0  0  0  0  0  0  0  0  0
    7.3933  -12.4555   18.7624 N   0  0  0  0  0  0  0  0  0  0  0  0
    6.9298  -13.6239   18.3144 C   0  0  0  0  0  0  0  0  0  0  0  0
    7.7503  -14.6159   18.6515 N   0  0  0  0  0  0  0  0  0  0  0  0
   12.2468  -15.4018   19.5051 C   0  0  0  0  0  0  0  0  0  0  0  0
   12.1789  -16.4905   20.1384 O   0  0  0  0  0  0  0  0  0  0  0  0
   13.4751  -14.7246   19.4583 N   0  0  0  0  0  0  0  0  0  0  0  0
   14.5739  -15.2184   20.2741 C   0  0  1  0  0  0  0  0  0  0  0  0
   15.6657  -14.1572   20.3635 C   0  0  0  0  0  0  0  0  0  0  0  0
   16.3319  -14.0800   19.0479 C   0  0  0  0  0  0  0  0  0  0  0  0
   17.4608  -13.5405   18.9640 O   0  0  0  0  0  0  0  0  0  0  0  0
   14.0431  -15.5996   21.5870 C   0  0  0  0  0  0  0  0  0  0  0  0
   12.9471  -15.1710   22.0228 O   0  0  0  0  0  0  0  0  0  0  0  0
   15.7442  -14.5847   17.9172 O   0  0  0  0  0  0  0  0  0  0  0  0
   14.7424  -16.4596   22.4036 O   0  0  0  0  0  0  0  0  0  0  0  0
  2  1  1  1
  2  3  1  0
  3  4  1  0
  4  5  2  0
  6  2  1  0
  7  6  2  0
  8  4  1  0
  9  6  1  0
 10  9  1  0
 11 12  1  0
 10 11  1  1
 12 13  2  0
 13 14  1  0
 15 14  1  0
 16 12  1  0
 16 15  2  0
 17 10  1  0
 17 18  2  0
 19 17  1  0
 20 21  1  1
 20 19  1  0
 22 21  1  0
 22 26  1  0
 23 22  2  0
 24 20  1  0
 25 24  2  0
 27 24  1  0
M  END
$$$$
