DHD.pdb
     RDKit          3D

 27 27  0  0  1  0  0  0  0  0999 V2000
    9.6254  -18.1395   19.4866 N   0  0  0  0  0  0  0  0  0  0  0  0
   10.8336  -17.4513   19.8568 C   0  0  1  0  0  0  0  0  0  0  0  0
   11.6233  -16.9818   18.6680 C   0  0  0  0  0  0  0  0  0  0  0  0
   12.1466  -18.1535   17.9188 C   0  0  0  0  0  0  0  0  0  0  0  0
   12.5682  -19.1563   18.5476 O   0  0  0  0  0  0  0  0  0  0  0  0
   10.5508  -16.4198   20.8441 C   0  0  0  0  0  0  0  0  0  0  0  0
   11.5103  -15.7455   21.3008 O   0  0  0  0  0  0  0  0  0  0  0  0
   12.1946  -18.1980   16.5361 O   0  0  0  0  0  0  0  0  0  0  0  0
    9.2699  -16.0923   21.3540 N   0  0  0  0  0  0  0  0  0  0  0  0
    8.9961  -15.0024   22.2529 C   0  0  1  0  0  0  0  0  0  0  0  0
    7.6576  -14.3532   21.9688 C   0  0  0  0  0  0  0  0  0  0  0  0
    7.5717  -14.1119   20.4866 C   0  0  0  0  0  0  0  0  0  0  0  0
    7.8512  -12.9570   19.7980 C   0  0  0  0  0  0  0  0  0  0  0  0
    7.6513  -13.1521   18.5016 N   0  0  0  0  0  0  0  0  0  0  0  0
    7.2493  -14.4178   18.3709 C   0  0  0  0  0  0  0  0  0  0  0  0
    7.1934  -15.0185   19.5571 N   0  0  0  0  0  0  0  0  0  0  0  0
    8.9638  -15.4608   23.6608 C   0  0  0  0  0  0  0  0  0  0  0  0
    9.5332  -14.7377   24.5233 O   0  0  0  0  0  0  0  0  0  0  0  0
    8.3365  -16.6439   24.0808 N   0  0  0  0  0  0  0  0  0  0  0  0
    8.5904  -17.1254   25.4301 C   0  0  1  0  0  0  0  0  0  0  0  0
    7.6111  -18.2441   25.7700 C   0  0  0  0  0  0  0  0  0  0  0  0
    7.8796  -18.6762   27.1562 C   0  0  0  0  0  0  0  0  0  0  0  0
    8.7006  -18.0309   27.8506 O   0  0  0  0  0  0  0  0  0  0  0  0
    9.9913  -17.5511   25.5156 C   0  0  0  0  0  0  0  0  0  0  0  0
   10.5060  -18.3488   24.6949 O   0  0  0  0  0  0  0  0  0  0  0  0
    7.2518  -19.7662   27.7006 O   0  0  0  0  0  0  0  0  0  0  0  0
   10.8076  -17.0798   26.5190 O   0  0  0  0  0  0  0  0  0  0  0  0
  2  1  1  6
  2  3  1  0
  3  4  1  0
  4  5  2  0
  6  2  1  0
  7  6  2  0
  8  4  1  0
  9  6  1  0
 10  9  1  0
 11 12  1  0
 10 11  1  6
 12 13  2  0
 13 14  1  0
 15 14  1  0
 16 12  1  0
 16 15  2  0
 17 10  1  0
 17 18  2  0
 19 17  1  0
 20 21  1  6
 20 19  1  0
 22 21  1  0
 22 26  1  0
 23 22  2  0
 24 20  1  0
 25 24  2  0
 27 24  1  0
M  END
$$$$
