DHD.pdb
     RDKit          3D

 27 27  0  0  1  0  0  0  0  0999 V2000
    9.7085  -18.3354   18.5235 N   0  0  0  0  0  0  0  0  0  0  0  0
   10.8617  -17.5056   18.7517 C   0  0  1  0  0  0  0  0  0  0  0  0
   11.4305  -16.9381   17.4822 C   0  0  0  0  0  0  0  0  0  0  0  0
   11.6102  -18.0236   16.4836 C   0  0  0  0  0  0  0  0  0  0  0  0
   11.9666  -19.1668   16.8646 O   0  0  0  0  0  0  0  0  0  0  0  0
   10.5843  -16.5206   19.7868 C   0  0  0  0  0  0  0  0  0  0  0  0
   11.4870  -15.6984   20.0918 O   0  0  0  0  0  0  0  0  0  0  0  0
   11.4009  -17.8368   15.1281 O   0  0  0  0  0  0  0  0  0  0  0  0
    9.3679  -16.3934   20.5024 N   0  0  0  0  0  0  0  0  0  0  0  0
    9.1281  -15.4420   21.5551 C   0  0  1  0  0  0  0  0  0  0  0  0
    7.7815  -14.7636   21.4130 C   0  0  0  0  0  0  0  0  0  0  0  0
    7.7327  -14.1243   20.0523 C   0  0  0  0  0  0  0  0  0  0  0  0
    8.0757  -12.8405   19.7058 C   0  0  0  0  0  0  0  0  0  0  0  0
    7.8903  -12.6658   18.4043 N   0  0  0  0  0  0  0  0  0  0  0  0
    7.4343  -13.8275   17.9317 C   0  0  0  0  0  0  0  0  0  0  0  0
    7.3306  -14.7247   18.9091 N   0  0  0  0  0  0  0  0  0  0  0  0
    9.1450  -16.0943   22.8846 C   0  0  0  0  0  0  0  0  0  0  0  0
    8.0599  -16.5729   23.3139 O   0  0  0  0  0  0  0  0  0  0  0  0
   10.2945  -16.2090   23.6816 N   0  0  0  0  0  0  0  0  0  0  0  0
   10.2055  -16.9527   24.9288 C   0  0  1  0  0  0  0  0  0  0  0  0
    9.9519  -18.4270   24.6318 C   0  0  0  0  0  0  0  0  0  0  0  0
   11.1962  -18.9990   24.0796 C   0  0  0  0  0  0  0  0  0  0  0  0
   11.7801  -18.4046   23.1424 O   0  0  0  0  0  0  0  0  0  0  0  0
   11.4385  -16.7307   25.6913 C   0  0  0  0  0  0  0  0  0  0  0  0
   12.4252  -16.1176   25.2163 O   0  0  0  0  0  0  0  0  0  0  0  0
   11.7268  -20.1644   24.5683 O   0  0  0  0  0  0  0  0  0  0  0  0
   11.5587  -17.1954   26.9816 O   0  0  0  0  0  0  0  0  0  0  0  0
  2  1  1  6
  2  3  1  0
  3  4  1  0
  4  5  2  0
  6  2  1  0
  7  6  2  0
  8  4  1  0
  9  6  1  0
 10  9  1  0
 11 12  1  0
 10 11  1  6
 12 13  2  0
 13 14  1  0
 15 14  1  0
 16 12  1  0
 16 15  2  0
 17 10  1  0
 17 18  2  0
 19 17  1  0
 20 21  1  6
 20 19  1  0
 22 21  1  0
 22 26  1  0
 23 22  2  0
 24 20  1  0
 25 24  2  0
 27 24  1  0
M  END
$$$$
