PPC.pdb
     RDKit          3D

 21 22  0  0  1  0  0  0  0  0999 V2000
   17.5113  -11.2303  -15.6103 N   0  0  0  0  0  0  0  0  0  0  0  0
   17.5838  -12.6848  -15.3597 C   0  0  0  0  0  0  0  0  0  0  0  0
   18.7708  -13.1011  -16.2209 C   0  0  0  0  0  0  0  0  0  0  0  0
   19.5388  -11.8064  -16.4967 C   0  0  0  0  0  0  0  0  0  0  0  0
   18.8900  -10.8795  -15.4812 C   0  0  1  0  0  0  0  0  0  0  0  0
   19.2356   -9.4711  -15.6519 C   0  0  0  0  0  0  0  0  0  0  0  0
   20.4466   -9.1554  -15.4138 O   0  0  0  0  0  0  0  0  0  0  0  0
   18.3297   -8.4908  -16.0496 N   0  0  0  0  0  0  0  0  0  0  0  0
   16.9253   -8.6552  -16.3283 C   0  0  0  0  0  0  0  0  0  0  0  0
   16.3238   -7.2427  -16.3498 C   0  0  0  0  0  0  0  0  0  0  0  0
   17.4931   -6.3357  -16.6603 C   0  0  0  0  0  0  0  0  0  0  0  0
   18.7188   -7.0797  -16.2355 C   0  0  1  0  0  0  0  0  0  0  0  0
   19.2883   -6.5177  -14.9976 C   0  0  0  0  0  0  0  0  0  0  0  0
   18.8078   -6.8428  -13.8819 O   0  0  0  0  0  0  0  0  0  0  0  0
   20.3650   -5.6172  -15.0057 N   0  0  0  0  0  0  0  0  0  0  0  0
   21.0791   -5.1227  -13.8883 C   0  0  1  0  0  0  0  0  0  0  0  0
   22.3349   -5.8671  -13.5507 C   0  0  0  0  0  0  0  0  0  0  0  0
   23.3448   -5.9321  -15.0617 S   0  0  0  0  0  0  0  0  0  0  0  0
   21.4319   -3.7049  -14.1059 C   0  0  0  0  0  0  0  0  0  0  0  0
   21.9494   -2.8838  -13.1166 O   0  0  0  0  0  0  0  0  0  0  0  0
   21.2579   -3.2083  -15.2413 O   0  0  0  0  0  0  0  0  0  0  0  0
  2  1  1  0
  3  2  1  0
  4  3  1  0
  4  5  1  0
  5  1  1  0
  6  8  1  0
  5  6  1  6
  7  6  2  0
  8 12  1  0
  9  8  1  0
 10  9  1  0
 10 11  1  0
 11 12  1  0
 12 13  1  1
 13 15  1  0
 13 14  2  0
 15 16  1  0
 16 17  1  6
 17 18  1  0
 19 16  1  0
 19 20  1  0
 21 19  2  0
M  END
$$$$
