PPC.pdb
     RDKit          3D

 21 22  0  0  1  0  0  0  0  0999 V2000
   19.7163  -10.5773  -14.9683 N   0  0  0  0  0  0  0  0  0  0  0  0
   19.7018  -11.0862  -16.3556 C   0  0  0  0  0  0  0  0  0  0  0  0
   18.7936  -10.0825  -17.0571 C   0  0  0  0  0  0  0  0  0  0  0  0
   18.7645   -8.8589  -16.1385 C   0  0  0  0  0  0  0  0  0  0  0  0
   19.9226   -9.1845  -15.2089 C   0  0  1  0  0  0  0  0  0  0  0  0
   20.0123   -8.3148  -14.0394 C   0  0  0  0  0  0  0  0  0  0  0  0
   19.3599   -8.6860  -13.0100 O   0  0  0  0  0  0  0  0  0  0  0  0
   20.7542   -7.1367  -14.0015 N   0  0  0  0  0  0  0  0  0  0  0  0
   21.7115   -6.6711  -14.9731 C   0  0  0  0  0  0  0  0  0  0  0  0
   21.9506   -5.1866  -14.6627 C   0  0  0  0  0  0  0  0  0  0  0  0
   21.5763   -5.0373  -13.2053 C   0  0  0  0  0  0  0  0  0  0  0  0
   20.6362   -6.1599  -12.9019 C   0  0  1  0  0  0  0  0  0  0  0  0
   19.2496   -5.6793  -12.7642 C   0  0  0  0  0  0  0  0  0  0  0  0
   18.5018   -5.6233  -13.7737 O   0  0  0  0  0  0  0  0  0  0  0  0
   18.7130   -5.2723  -11.5328 N   0  0  0  0  0  0  0  0  0  0  0  0
   17.3760   -4.8957  -11.2613 C   0  0  1  0  0  0  0  0  0  0  0  0
   16.8642   -5.2826   -9.9072 C   0  0  0  0  0  0  0  0  0  0  0  0
   18.2367   -6.0817   -9.0213 S   0  0  0  0  0  0  0  0  0  0  0  0
   17.2276   -3.4331  -11.4058 C   0  0  0  0  0  0  0  0  0  0  0  0
   16.0020   -2.7870  -11.4392 O   0  0  0  0  0  0  0  0  0  0  0  0
   18.2582   -2.7299  -11.5042 O   0  0  0  0  0  0  0  0  0  0  0  0
  2  1  1  0
  3  2  1  0
  4  3  1  0
  4  5  1  0
  5  1  1  0
  6  8  1  0
  5  6  1  1
  7  6  2  0
  8 12  1  0
  9  8  1  0
 10  9  1  0
 10 11  1  0
 11 12  1  0
 12 13  1  6
 13 15  1  0
 13 14  2  0
 15 16  1  0
 16 17  1  1
 17 18  1  0
 19 16  1  0
 19 20  1  0
 21 19  2  0
M  END
$$$$
