PPC.pdb
     RDKit          3D

 21 22  0  0  1  0  0  0  0  0999 V2000
   29.0040  -22.3104  -16.2270 N   0  0  0  0  0  0  0  0  0  0  0  0
   29.7750  -22.6125  -17.4510 C   0  0  0  0  0  0  0  0  0  0  0  0
   28.7416  -22.3811  -18.5476 C   0  0  0  0  0  0  0  0  0  0  0  0
   27.6501  -21.5292  -17.8958 C   0  0  0  0  0  0  0  0  0  0  0  0
   28.3606  -21.0981  -16.6226 C   0  0  1  0  0  0  0  0  0  0  0  0
   27.4902  -20.4573  -15.6409 C   0  0  0  0  0  0  0  0  0  0  0  0
   27.0124  -21.2131  -14.7334 O   0  0  0  0  0  0  0  0  0  0  0  0
   27.1697  -19.1019  -15.6530 N   0  0  0  0  0  0  0  0  0  0  0  0
   27.7373  -18.0737  -16.4883 C   0  0  0  0  0  0  0  0  0  0  0  0
   26.7964  -16.8653  -16.3805 C   0  0  0  0  0  0  0  0  0  0  0  0
   26.0794  -17.0574  -15.0632 C   0  0  0  0  0  0  0  0  0  0  0  0
   26.1427  -18.5217  -14.7667 C   0  0  1  0  0  0  0  0  0  0  0  0
   24.8351  -19.1701  -14.9722 C   0  0  0  0  0  0  0  0  0  0  0  0
   24.5213  -19.6027  -16.1106 O   0  0  0  0  0  0  0  0  0  0  0  0
   23.9034  -19.3309  -13.9348 N   0  0  0  0  0  0  0  0  0  0  0  0
   22.6578  -20.0001  -13.9956 C   0  0  1  0  0  0  0  0  0  0  0  0
   22.1033  -20.4417  -12.6754 C   0  0  0  0  0  0  0  0  0  0  0  0
   20.5658  -21.3516  -13.0147 S   0  0  0  0  0  0  0  0  0  0  0  0
   21.6542  -19.1336  -14.6467 C   0  0  0  0  0  0  0  0  0  0  0  0
   20.6170  -19.6168  -15.4287 O   0  0  0  0  0  0  0  0  0  0  0  0
   21.7356  -17.8947  -14.4902 O   0  0  0  0  0  0  0  0  0  0  0  0
  2  1  1  0
  3  2  1  0
  4  3  1  0
  4  5  1  0
  5  1  1  0
  6  8  1  0
  5  6  1  1
  7  6  2  0
  8 12  1  0
  9  8  1  0
 10  9  1  0
 10 11  1  0
 11 12  1  0
 12 13  1  6
 13 15  1  0
 13 14  2  0
 15 16  1  0
 16 17  1  1
 17 18  1  0
 19 16  1  0
 19 20  1  0
 21 19  2  0
M  END
$$$$
