PPC.pdb
     RDKit          3D

 21 22  0  0  1  0  0  0  0  0999 V2000
   23.9813  -14.9215  -17.8657 N   0  0  0  0  0  0  0  0  0  0  0  0
   24.5522  -15.6942  -18.9885 C   0  0  0  0  0  0  0  0  0  0  0  0
   24.6356  -14.6452  -20.0916 C   0  0  0  0  0  0  0  0  0  0  0  0
   24.5565  -13.2981  -19.3697 C   0  0  0  0  0  0  0  0  0  0  0  0
   24.7834  -13.7415  -17.9333 C   0  0  1  0  0  0  0  0  0  0  0  0
   24.5228  -12.7037  -16.9398 C   0  0  0  0  0  0  0  0  0  0  0  0
   23.3810  -12.7378  -16.3757 O   0  0  0  0  0  0  0  0  0  0  0  0
   25.4367  -11.7112  -16.5939 N   0  0  0  0  0  0  0  0  0  0  0  0
   26.8218  -11.6204  -16.9816 C   0  0  0  0  0  0  0  0  0  0  0  0
   27.2630  -10.1844  -16.6643 C   0  0  0  0  0  0  0  0  0  0  0  0
   26.3009   -9.7180  -15.5951 C   0  0  0  0  0  0  0  0  0  0  0  0
   25.0738  -10.5591  -15.7465 C   0  0  1  0  0  0  0  0  0  0  0  0
   23.9641   -9.7913  -16.3396 C   0  0  0  0  0  0  0  0  0  0  0  0
   23.7786   -9.8156  -17.5832 O   0  0  0  0  0  0  0  0  0  0  0  0
   23.0857   -9.0177  -15.5651 N   0  0  0  0  0  0  0  0  0  0  0  0
   21.9469   -8.3059  -16.0118 C   0  0  1  0  0  0  0  0  0  0  0  0
   20.8041   -8.2541  -15.0440 C   0  0  0  0  0  0  0  0  0  0  0  0
   19.4960   -7.2489  -15.8091 S   0  0  0  0  0  0  0  0  0  0  0  0
   22.3236   -6.9181  -16.3498 C   0  0  0  0  0  0  0  0  0  0  0  0
   21.7821   -6.2151  -17.4144 O   0  0  0  0  0  0  0  0  0  0  0  0
   23.1769   -6.3364  -15.6430 O   0  0  0  0  0  0  0  0  0  0  0  0
  2  1  1  0
  3  2  1  0
  4  3  1  0
  4  5  1  0
  5  1  1  0
  6  8  1  0
  5  6  1  1
  7  6  2  0
  8 12  1  0
  9  8  1  0
 10  9  1  0
 10 11  1  0
 11 12  1  0
 12 13  1  6
 13 15  1  0
 13 14  2  0
 15 16  1  0
 16 17  1  1
 17 18  1  0
 19 16  1  0
 19 20  1  0
 21 19  2  0
M  END
$$$$
