PPC.pdb
     RDKit          3D

 21 22  0  0  1  0  0  0  0  0999 V2000
   26.1258  -17.8597  -16.8156 N   0  0  0  0  0  0  0  0  0  0  0  0
   26.7470  -16.6617  -17.4179 C   0  0  0  0  0  0  0  0  0  0  0  0
   26.9844  -15.7756  -16.2003 C   0  0  0  0  0  0  0  0  0  0  0  0
   26.9195  -16.7209  -14.9986 C   0  0  0  0  0  0  0  0  0  0  0  0
   26.9961  -18.0665  -15.7020 C   0  0  1  0  0  0  0  0  0  0  0  0
   26.7098  -19.2088  -14.8387 C   0  0  0  0  0  0  0  0  0  0  0  0
   25.5165  -19.6539  -14.8707 O   0  0  0  0  0  0  0  0  0  0  0  0
   27.6520  -19.8122  -14.0092 N   0  0  0  0  0  0  0  0  0  0  0  0
   29.0758  -19.5900  -13.9919 C   0  0  0  0  0  0  0  0  0  0  0  0
   29.5883  -20.1933  -12.6763 C   0  0  0  0  0  0  0  0  0  0  0  0
   28.5470  -21.2225  -12.2984 C   0  0  0  0  0  0  0  0  0  0  0  0
   27.2838  -20.8035  -12.9802 C   0  0  1  0  0  0  0  0  0  0  0  0
   26.3154  -20.2408  -12.0221 C   0  0  0  0  0  0  0  0  0  0  0  0
   26.4621  -19.0658  -11.5986 O   0  0  0  0  0  0  0  0  0  0  0  0
   25.2133  -20.9704  -11.5498 N   0  0  0  0  0  0  0  0  0  0  0  0
   24.3629  -20.6376  -10.4686 C   0  0  1  0  0  0  0  0  0  0  0  0
   23.0290  -21.3203  -10.4695 C   0  0  0  0  0  0  0  0  0  0  0  0
   22.0890  -20.6671   -9.0565 S   0  0  0  0  0  0  0  0  0  0  0  0
   25.0339  -20.9461   -9.1893 C   0  0  0  0  0  0  0  0  0  0  0  0
   25.1923  -20.0251   -8.1658 O   0  0  0  0  0  0  0  0  0  0  0  0
   25.4877  -22.0984   -9.0096 O   0  0  0  0  0  0  0  0  0  0  0  0
  2  1  1  0
  3  2  1  0
  4  3  1  0
  4  5  1  0
  5  1  1  0
  6  8  1  0
  5  6  1  1
  7  6  2  0
  8 12  1  0
  9  8  1  0
 10  9  1  0
 10 11  1  0
 11 12  1  0
 12 13  1  1
 13 15  1  0
 13 14  2  0
 15 16  1  0
 16 17  1  6
 17 18  1  0
 19 16  1  0
 19 20  1  0
 21 19  2  0
M  END
$$$$
