PPC.pdb
     RDKit          3D

 21 22  0  0  1  0  0  0  0  0999 V2000
   20.8781  -12.9920  -18.4246 N   0  0  0  0  0  0  0  0  0  0  0  0
   19.8674  -13.7525  -19.1888 C   0  0  0  0  0  0  0  0  0  0  0  0
   18.5611  -13.2449  -18.5887 C   0  0  0  0  0  0  0  0  0  0  0  0
   18.9236  -11.9299  -17.8949 C   0  0  0  0  0  0  0  0  0  0  0  0
   20.3068  -11.6838  -18.4762 C   0  0  1  0  0  0  0  0  0  0  0  0
   21.0474  -10.6095  -17.8210 C   0  0  0  0  0  0  0  0  0  0  0  0
   21.4874  -10.8602  -16.6520 O   0  0  0  0  0  0  0  0  0  0  0  0
   21.2851   -9.3644  -18.3982 N   0  0  0  0  0  0  0  0  0  0  0  0
   21.0145   -8.9603  -19.7548 C   0  0  0  0  0  0  0  0  0  0  0  0
   21.0995   -7.4274  -19.7710 C   0  0  0  0  0  0  0  0  0  0  0  0
   21.9723   -7.0820  -18.5857 C   0  0  0  0  0  0  0  0  0  0  0  0
   21.8684   -8.2386  -17.6436 C   0  0  1  0  0  0  0  0  0  0  0  0
   21.0455   -7.9035  -16.4676 C   0  0  0  0  0  0  0  0  0  0  0  0
   19.8056   -8.1124  -16.4894 O   0  0  0  0  0  0  0  0  0  0  0  0
   21.5924   -7.3504  -15.2993 N   0  0  0  0  0  0  0  0  0  0  0  0
   20.9182   -7.0623  -14.0887 C   0  0  1  0  0  0  0  0  0  0  0  0
   21.0105   -8.1247  -13.0361 C   0  0  0  0  0  0  0  0  0  0  0  0
   20.1176   -7.5134  -11.5746 S   0  0  0  0  0  0  0  0  0  0  0  0
   21.4345   -5.8030  -13.5144 C   0  0  0  0  0  0  0  0  0  0  0  0
   20.6213   -4.8058  -12.9997 O   0  0  0  0  0  0  0  0  0  0  0  0
   22.6716   -5.6165  -13.4862 O   0  0  0  0  0  0  0  0  0  0  0  0
  2  1  1  0
  3  2  1  0
  4  3  1  0
  4  5  1  0
  5  1  1  0
  6  8  1  0
  5  6  1  1
  7  6  2  0
  8 12  1  0
  9  8  1  0
 10  9  1  0
 10 11  1  0
 11 12  1  0
 12 13  1  1
 13 15  1  0
 13 14  2  0
 15 16  1  0
 16 17  1  1
 17 18  1  0
 19 16  1  0
 19 20  1  0
 21 19  2  0
M  END
$$$$
