PPC.pdb
     RDKit          3D

 21 22  0  0  1  0  0  0  0  0999 V2000
   24.5974  -17.5311  -15.7642 N   0  0  0  0  0  0  0  0  0  0  0  0
   25.0052  -16.3647  -16.5747 C   0  0  0  0  0  0  0  0  0  0  0  0
   25.8766  -15.5829  -15.5981 C   0  0  0  0  0  0  0  0  0  0  0  0
   26.2634  -16.5898  -14.5124 C   0  0  0  0  0  0  0  0  0  0  0  0
   25.8522  -17.8905  -15.1837 C   0  0  1  0  0  0  0  0  0  0  0  0
   25.8656  -19.0504  -14.2969 C   0  0  0  0  0  0  0  0  0  0  0  0
   24.7818  -19.2958  -13.6740 O   0  0  0  0  0  0  0  0  0  0  0  0
   26.9743  -19.8721  -14.1081 N   0  0  0  0  0  0  0  0  0  0  0  0
   28.1430  -19.9746  -14.9451 C   0  0  0  0  0  0  0  0  0  0  0  0
   29.2021  -20.7136  -14.1147 C   0  0  0  0  0  0  0  0  0  0  0  0
   28.4075  -21.4938  -13.0918 C   0  0  0  0  0  0  0  0  0  0  0  0
   27.0984  -20.7841  -12.9549 C   0  0  1  0  0  0  0  0  0  0  0  0
   27.0163  -20.0459  -11.6818 C   0  0  0  0  0  0  0  0  0  0  0  0
   27.7505  -19.0432  -11.4895 O   0  0  0  0  0  0  0  0  0  0  0  0
   26.1382  -20.4174  -10.6517 N   0  0  0  0  0  0  0  0  0  0  0  0
   26.4297  -20.5208   -9.2706 C   0  0  1  0  0  0  0  0  0  0  0  0
   26.8974  -19.2553   -8.6186 C   0  0  0  0  0  0  0  0  0  0  0  0
   27.0928  -19.6043   -6.8446 S   0  0  0  0  0  0  0  0  0  0  0  0
   25.2375  -20.9982   -8.5407 C   0  0  0  0  0  0  0  0  0  0  0  0
   25.2598  -21.3932   -7.2125 O   0  0  0  0  0  0  0  0  0  0  0  0
   24.1430  -21.0528   -9.1450 O   0  0  0  0  0  0  0  0  0  0  0  0
  2  1  1  0
  3  2  1  0
  4  3  1  0
  4  5  1  0
  5  1  1  0
  6  8  1  0
  5  6  1  1
  7  6  2  0
  8 12  1  0
  9  8  1  0
 10  9  1  0
 10 11  1  0
 11 12  1  0
 12 13  1  1
 13 15  1  0
 13 14  2  0
 15 16  1  0
 16 17  1  1
 17 18  1  0
 19 16  1  0
 19 20  1  0
 21 19  2  0
M  END
$$$$
