PPC.pdb
     RDKit          3D

 21 22  0  0  1  0  0  0  0  0999 V2000
   27.8624  -20.5020  -15.3832 N   0  0  0  0  0  0  0  0  0  0  0  0
   28.8839  -19.4641  -15.6347 C   0  0  0  0  0  0  0  0  0  0  0  0
   28.1352  -18.1836  -15.2828 C   0  0  0  0  0  0  0  0  0  0  0  0
   26.9479  -18.6358  -14.4296 C   0  0  0  0  0  0  0  0  0  0  0  0
   27.3605  -20.0658  -14.1190 C   0  0  1  0  0  0  0  0  0  0  0  0
   26.3071  -20.8720  -13.5087 C   0  0  0  0  0  0  0  0  0  0  0  0
   25.7474  -21.7323  -14.2636 O   0  0  0  0  0  0  0  0  0  0  0  0
   25.9007  -20.7456  -12.1826 N   0  0  0  0  0  0  0  0  0  0  0  0
   26.5879  -20.0625  -11.1158 C   0  0  0  0  0  0  0  0  0  0  0  0
   25.5639  -19.8944   -9.9841 C   0  0  0  0  0  0  0  0  0  0  0  0
   24.5449  -20.9847  -10.2277 C   0  0  0  0  0  0  0  0  0  0  0  0
   24.6379  -21.3214  -11.6817 C   0  0  1  0  0  0  0  0  0  0  0  0
   23.4811  -20.7989  -12.4308 C   0  0  0  0  0  0  0  0  0  0  0  0
   23.4341  -19.5818  -12.7438 O   0  0  0  0  0  0  0  0  0  0  0  0
   22.4061  -21.6134  -12.8197 N   0  0  0  0  0  0  0  0  0  0  0  0
   21.3112  -21.2553  -13.6419 C   0  0  1  0  0  0  0  0  0  0  0  0
   20.6762  -22.3869  -14.3912 C   0  0  0  0  0  0  0  0  0  0  0  0
   19.3130  -21.6866  -15.3700 S   0  0  0  0  0  0  0  0  0  0  0  0
   20.2659  -20.6014  -12.8284 C   0  0  0  0  0  0  0  0  0  0  0  0
   19.4980  -19.5389  -13.2781 O   0  0  0  0  0  0  0  0  0  0  0  0
   20.0541  -21.0218  -11.6689 O   0  0  0  0  0  0  0  0  0  0  0  0
  2  1  1  0
  3  2  1  0
  4  3  1  0
  4  5  1  0
  5  1  1  0
  6  8  1  0
  5  6  1  6
  7  6  2  0
  8 12  1  0
  9  8  1  0
 10  9  1  0
 10 11  1  0
 11 12  1  0
 12 13  1  6
 13 15  1  0
 13 14  2  0
 15 16  1  0
 16 17  1  1
 17 18  1  0
 19 16  1  0
 19 20  1  0
 21 19  2  0
M  END
$$$$
