PPC.pdb
     RDKit          3D

 21 22  0  0  1  0  0  0  0  0999 V2000
   22.5807  -15.9940  -16.4630 N   0  0  0  0  0  0  0  0  0  0  0  0
   22.6072  -17.0045  -17.5410 C   0  0  0  0  0  0  0  0  0  0  0  0
   22.4655  -16.1446  -18.7918 C   0  0  0  0  0  0  0  0  0  0  0  0
   22.8446  -14.7294  -18.3496 C   0  0  0  0  0  0  0  0  0  0  0  0
   23.4804  -15.0233  -17.0002 C   0  0  1  0  0  0  0  0  0  0  0  0
   23.7376  -13.8361  -16.1900 C   0  0  0  0  0  0  0  0  0  0  0  0
   22.8001  -13.4750  -15.4065 O   0  0  0  0  0  0  0  0  0  0  0  0
   24.9225  -13.1055  -16.2351 N   0  0  0  0  0  0  0  0  0  0  0  0
   26.1478  -13.4618  -16.9050 C   0  0  0  0  0  0  0  0  0  0  0  0
   26.9908  -12.1800  -16.9678 C   0  0  0  0  0  0  0  0  0  0  0  0
   26.4665  -11.3238  -15.8372 C   0  0  0  0  0  0  0  0  0  0  0  0
   25.0729  -11.7963  -15.5715 C   0  0  1  0  0  0  0  0  0  0  0  0
   24.0736  -10.8319  -16.0652 C   0  0  0  0  0  0  0  0  0  0  0  0
   23.5757  -10.9756  -17.2111 O   0  0  0  0  0  0  0  0  0  0  0  0
   23.6421   -9.7371  -15.3002 N   0  0  0  0  0  0  0  0  0  0  0  0
   22.6574   -8.7818  -15.6476 C   0  0  1  0  0  0  0  0  0  0  0  0
   22.1629   -7.9319  -14.5169 C   0  0  0  0  0  0  0  0  0  0  0  0
   21.5840   -9.0572  -13.2110 S   0  0  0  0  0  0  0  0  0  0  0  0
   23.1774   -7.8854  -16.7003 C   0  0  0  0  0  0  0  0  0  0  0  0
   22.3729   -7.0597  -17.4695 O   0  0  0  0  0  0  0  0  0  0  0  0
   24.4096   -7.8627  -16.9175 O   0  0  0  0  0  0  0  0  0  0  0  0
  2  1  1  0
  3  2  1  0
  4  3  1  0
  4  5  1  0
  5  1  1  0
  6  8  1  0
  5  6  1  1
  7  6  2  0
  8 12  1  0
  9  8  1  0
 10  9  1  0
 10 11  1  0
 11 12  1  0
 12 13  1  6
 13 15  1  0
 13 14  2  0
 15 16  1  0
 16 17  1  1
 17 18  1  0
 19 16  1  0
 19 20  1  0
 21 19  2  0
M  END
$$$$
