TTK.pdb
     RDKit          3D

 24 23  0  0  1  0  0  0  0  0999 V2000
    8.9941  -18.5085   13.6662 C   0  0  0  0  0  0  0  0  0  0  0  0
    9.5217  -17.7067   14.8208 C   0  0  1  0  0  0  0  0  0  0  0  0
   10.9147  -17.7171   14.8467 O   0  0  0  0  0  0  0  0  0  0  0  0
    9.1090  -16.2559   14.6014 C   0  0  2  0  0  0  0  0  0  0  0  0
    9.7390  -15.8190   13.3752 N   0  0  0  0  0  0  0  0  0  0  0  0
    9.5116  -15.4088   15.7589 C   0  0  0  0  0  0  0  0  0  0  0  0
   10.6517  -14.8855   15.8421 O   0  0  0  0  0  0  0  0  0  0  0  0
    8.3992  -13.0543   19.9469 C   0  0  0  0  0  0  0  0  0  0  0  0
    7.8433  -13.8686   18.7949 C   0  0  1  0  0  0  0  0  0  0  0  0
    7.0278  -13.0636   18.0285 O   0  0  0  0  0  0  0  0  0  0  0  0
    9.0231  -14.4193   18.0334 C   0  0  2  0  0  0  0  0  0  0  0  0
    8.6194  -15.1409   16.8480 N   0  0  0  0  0  0  0  0  0  0  0  0
    9.9521  -15.1921   18.8890 C   0  0  0  0  0  0  0  0  0  0  0  0
    9.7360  -16.4219   18.9920 O   0  0  0  0  0  0  0  0  0  0  0  0
   11.0473  -14.6287   19.5819 N   0  0  0  0  0  0  0  0  0  0  0  0
   11.9901  -15.4090   20.4103 C   0  0  1  0  0  0  0  0  0  0  0  0
   13.3164  -14.8303   20.4658 C   0  0  0  0  0  0  0  0  0  0  0  0
   14.1608  -14.7809   19.2539 C   0  0  0  0  0  0  0  0  0  0  0  0
   15.3621  -13.9198   19.2243 C   0  0  0  0  0  0  0  0  0  0  0  0
   16.2748  -13.8675   18.0813 C   0  0  0  0  0  0  0  0  0  0  0  0
   17.3066  -12.8777   18.0946 N   0  0  0  0  0  0  0  0  0  0  0  0
   11.3450  -15.5481   21.7778 C   0  0  0  0  0  0  0  0  0  0  0  0
   10.1471  -14.9387   22.1012 O   0  0  0  0  0  0  0  0  0  0  0  0
   11.9039  -16.2299   22.6344 O   0  0  0  0  0  0  0  0  0  0  0  0
  2  3  1  0
  2  1  1  6
  4  2  1  0
  4  5  1  6
  6  7  2  0
  6  4  1  0
  9  8  1  1
  9 10  1  0
  9 11  1  0
 11 12  1  6
 12  6  1  0
 13 11  1  0
 13 15  1  0
 14 13  2  0
 16 15  1  0
 16 22  1  0
 16 17  1  1
 17 18  1  0
 19 18  1  0
 20 19  1  0
 20 21  1  0
 22 23  1  0
 24 22  2  0
M  END
$$$$
