TTK.pdb
     RDKit          3D

 24 23  0  0  1  0  0  0  0  0999 V2000
    6.3579  -18.6558   16.0431 C   0  0  0  0  0  0  0  0  0  0  0  0
    7.1041  -18.0773   17.2106 C   0  0  1  0  0  0  0  0  0  0  0  0
    8.1167  -18.9344   17.6360 O   0  0  0  0  0  0  0  0  0  0  0  0
    7.7937  -16.8049   16.7321 C   0  0  2  0  0  0  0  0  0  0  0  0
    8.6374  -17.1761   15.6178 N   0  0  0  0  0  0  0  0  0  0  0  0
    8.5795  -16.1811   17.8334 C   0  0  0  0  0  0  0  0  0  0  0  0
    9.8340  -16.2484   17.8832 O   0  0  0  0  0  0  0  0  0  0  0  0
    7.9136  -12.6984   19.5625 C   0  0  0  0  0  0  0  0  0  0  0  0
    8.0099  -13.7487   20.6520 C   0  0  1  0  0  0  0  0  0  0  0  0
    6.7460  -14.0101   21.1365 O   0  0  0  0  0  0  0  0  0  0  0  0
    8.6766  -14.9569   20.0431 C   0  0  2  0  0  0  0  0  0  0  0  0
    7.9485  -15.4660   18.9031 N   0  0  0  0  0  0  0  0  0  0  0  0
    8.9914  -16.0056   21.0399 C   0  0  0  0  0  0  0  0  0  0  0  0
    8.2050  -16.9788   21.1048 O   0  0  0  0  0  0  0  0  0  0  0  0
   10.1086  -15.9688   21.9045 N   0  0  0  0  0  0  0  0  0  0  0  0
   10.4118  -17.0117   22.9067 C   0  0  1  0  0  0  0  0  0  0  0  0
   11.5556  -17.8273   22.5548 C   0  0  0  0  0  0  0  0  0  0  0  0
   11.7705  -19.1343   23.2102 C   0  0  0  0  0  0  0  0  0  0  0  0
   12.9932  -19.9138   22.9221 C   0  0  0  0  0  0  0  0  0  0  0  0
   13.2162  -21.2638   23.4414 C   0  0  0  0  0  0  0  0  0  0  0  0
   14.1447  -22.1018   22.7484 N   0  0  0  0  0  0  0  0  0  0  0  0
   10.5797  -16.2944   24.2343 C   0  0  0  0  0  0  0  0  0  0  0  0
   10.5305  -16.9540   25.4482 O   0  0  0  0  0  0  0  0  0  0  0  0
   10.7693  -15.0799   24.2363 O   0  0  0  0  0  0  0  0  0  0  0  0
  2  3  1  0
  2  1  1  6
  4  2  1  0
  4  5  1  6
  6  7  2  0
  6  4  1  0
  9  8  1  6
  9 10  1  0
  9 11  1  0
 11 12  1  6
 12  6  1  0
 13 11  1  0
 13 15  1  0
 14 13  2  0
 16 15  1  0
 16 22  1  0
 16 17  1  6
 17 18  1  0
 19 18  1  0
 20 19  1  0
 20 21  1  0
 22 23  1  0
 24 22  2  0
M  END
$$$$
