TTK.pdb
     RDKit          3D

 24 23  0  0  1  0  0  0  0  0999 V2000
    2.8893  -19.0616   20.2080 C   0  0  0  0  0  0  0  0  0  0  0  0
    4.3193  -19.0263   20.6645 C   0  0  1  0  0  0  0  0  0  0  0  0
    4.5148  -19.8479   21.7726 O   0  0  0  0  0  0  0  0  0  0  0  0
    5.1750  -19.6075   19.5450 C   0  0  2  0  0  0  0  0  0  0  0  0
    4.7261  -20.9658   19.3328 N   0  0  0  0  0  0  0  0  0  0  0  0
    6.6208  -19.5551   19.9005 C   0  0  0  0  0  0  0  0  0  0  0  0
    7.2212  -20.5342   20.4119 O   0  0  0  0  0  0  0  0  0  0  0  0
   11.0663  -17.6073   19.4189 C   0  0  0  0  0  0  0  0  0  0  0  0
    9.6171  -17.5713   18.9741 C   0  0  1  0  0  0  0  0  0  0  0  0
    9.5188  -18.1315   17.7183 O   0  0  0  0  0  0  0  0  0  0  0  0
    8.8158  -18.3066   20.0193 C   0  0  2  0  0  0  0  0  0  0  0  0
    7.4131  -18.3816   19.6793 N   0  0  0  0  0  0  0  0  0  0  0  0
    9.0493  -17.7966   21.3896 C   0  0  0  0  0  0  0  0  0  0  0  0
    8.5616  -16.6764   21.6671 O   0  0  0  0  0  0  0  0  0  0  0  0
    9.7778  -18.4912   22.3814 N   0  0  0  0  0  0  0  0  0  0  0  0
   10.0464  -17.9588   23.7335 C   0  0  1  0  0  0  0  0  0  0  0  0
   10.2936  -18.9931   24.7165 C   0  0  0  0  0  0  0  0  0  0  0  0
   10.6901  -18.6344   26.0942 C   0  0  0  0  0  0  0  0  0  0  0  0
   10.9959  -19.6966   27.0759 C   0  0  0  0  0  0  0  0  0  0  0  0
   11.2621  -19.4210   28.4885 C   0  0  0  0  0  0  0  0  0  0  0  0
   11.6205  -20.5214   29.3283 N   0  0  0  0  0  0  0  0  0  0  0  0
   11.2045  -16.9873   23.5894 C   0  0  0  0  0  0  0  0  0  0  0  0
   12.3170  -17.2648   22.8172 O   0  0  0  0  0  0  0  0  0  0  0  0
   11.1557  -15.9095   24.1781 O   0  0  0  0  0  0  0  0  0  0  0  0
  2  3  1  0
  2  1  1  6
  4  2  1  0
  4  5  1  1
  6  7  2  0
  6  4  1  0
  9  8  1  1
  9 10  1  0
  9 11  1  0
 11 12  1  6
 12  6  1  0
 13 11  1  0
 13 15  1  0
 14 13  2  0
 16 15  1  0
 16 22  1  0
 16 17  1  1
 17 18  1  0
 19 18  1  0
 20 19  1  0
 20 21  1  0
 22 23  1  0
 24 22  2  0
M  END
$$$$
