TTK.pdb
     RDKit          3D

 24 23  0  0  1  0  0  0  0  0999 V2000
   11.1746  -13.8370   18.8183 C   0  0  0  0  0  0  0  0  0  0  0  0
   10.0687  -12.8703   19.1299 C   0  0  1  0  0  0  0  0  0  0  0  0
   10.1599  -11.7281   18.3373 O   0  0  0  0  0  0  0  0  0  0  0  0
    8.7513  -13.5425   18.7614 C   0  0  2  0  0  0  0  0  0  0  0  0
    7.7011  -12.5827   19.0205 N   0  0  0  0  0  0  0  0  0  0  0  0
    8.5574  -14.7949   19.5446 C   0  0  0  0  0  0  0  0  0  0  0  0
    8.0380  -14.7959   20.6895 O   0  0  0  0  0  0  0  0  0  0  0  0
    8.4024  -19.6756   19.8885 C   0  0  0  0  0  0  0  0  0  0  0  0
    8.6246  -18.5033   18.9527 C   0  0  1  0  0  0  0  0  0  0  0  0
    7.5290  -18.3750   18.1258 O   0  0  0  0  0  0  0  0  0  0  0  0
    8.8660  -17.2894   19.8150 C   0  0  2  0  0  0  0  0  0  0  0  0
    8.9533  -16.0750   19.0362 N   0  0  0  0  0  0  0  0  0  0  0  0
   10.0055  -17.4598   20.7449 C   0  0  0  0  0  0  0  0  0  0  0  0
   11.1441  -17.1830   20.3013 O   0  0  0  0  0  0  0  0  0  0  0  0
    9.8807  -17.9088   22.0790 N   0  0  0  0  0  0  0  0  0  0  0  0
   11.0026  -17.9667   23.0392 C   0  0  1  0  0  0  0  0  0  0  0  0
   10.6094  -18.4406   24.3499 C   0  0  0  0  0  0  0  0  0  0  0  0
   11.6229  -18.6397   25.4069 C   0  0  0  0  0  0  0  0  0  0  0  0
   11.2147  -19.1342   26.7389 C   0  0  0  0  0  0  0  0  0  0  0  0
   12.1704  -19.4029   27.8143 C   0  0  0  0  0  0  0  0  0  0  0  0
   11.6544  -19.8474   29.0716 N   0  0  0  0  0  0  0  0  0  0  0  0
   12.0751  -18.8262   22.3939 C   0  0  0  0  0  0  0  0  0  0  0  0
   13.3994  -18.4357   22.3233 O   0  0  0  0  0  0  0  0  0  0  0  0
   11.7602  -19.9138   21.9157 O   0  0  0  0  0  0  0  0  0  0  0  0
  2  3  1  0
  2  1  1  6
  4  2  1  0
  4  5  1  1
  6  7  2  0
  6  4  1  0
  9  8  1  1
  9 10  1  0
  9 11  1  0
 11 12  1  6
 12  6  1  0
 13 11  1  0
 13 15  1  0
 14 13  2  0
 16 15  1  0
 16 22  1  0
 16 17  1  1
 17 18  1  0
 19 18  1  0
 20 19  1  0
 20 21  1  0
 22 23  1  0
 24 22  2  0
M  END
$$$$
