TTK.pdb
     RDKit          3D

 24 23  0  0  1  0  0  0  0  0999 V2000
    3.6460  -17.3847   21.7065 C   0  0  0  0  0  0  0  0  0  0  0  0
    4.0156  -18.6019   20.9087 C   0  0  1  0  0  0  0  0  0  0  0  0
    2.8857  -19.2120   20.3680 O   0  0  0  0  0  0  0  0  0  0  0  0
    4.8591  -18.1396   19.7264 C   0  0  2  0  0  0  0  0  0  0  0  0
    5.0656  -19.2930   18.8789 N   0  0  0  0  0  0  0  0  0  0  0  0
    6.1506  -17.5598   20.1906 C   0  0  0  0  0  0  0  0  0  0  0  0
    7.0703  -18.2700   20.6704 O   0  0  0  0  0  0  0  0  0  0  0  0
    6.6297  -13.3408   20.6837 C   0  0  0  0  0  0  0  0  0  0  0  0
    7.8131  -14.1373   20.1692 C   0  0  1  0  0  0  0  0  0  0  0  0
    8.9773  -13.5586   20.6277 O   0  0  0  0  0  0  0  0  0  0  0  0
    7.6277  -15.5581   20.6405 C   0  0  2  0  0  0  0  0  0  0  0  0
    6.4197  -16.1541   20.1166 N   0  0  0  0  0  0  0  0  0  0  0  0
    7.7487  -15.6990   22.1094 C   0  0  0  0  0  0  0  0  0  0  0  0
    6.7179  -15.4767   22.7859 O   0  0  0  0  0  0  0  0  0  0  0  0
    8.9402  -16.0634   22.7762 N   0  0  0  0  0  0  0  0  0  0  0  0
    9.0608  -16.1859   24.2439 C   0  0  1  0  0  0  0  0  0  0  0  0
    8.6384  -17.4767   24.7465 C   0  0  0  0  0  0  0  0  0  0  0  0
    8.6328  -17.7469   26.1994 C   0  0  0  0  0  0  0  0  0  0  0  0
    8.1796  -19.0598   26.7057 C   0  0  0  0  0  0  0  0  0  0  0  0
    8.0728  -19.3680   28.1325 C   0  0  0  0  0  0  0  0  0  0  0  0
    7.6731  -20.6900   28.5027 N   0  0  0  0  0  0  0  0  0  0  0  0
   10.5041  -15.8594   24.5841 C   0  0  0  0  0  0  0  0  0  0  0  0
   11.4611  -15.6198   23.6158 O   0  0  0  0  0  0  0  0  0  0  0  0
   10.8403  -15.8023   25.7650 O   0  0  0  0  0  0  0  0  0  0  0  0
  2  3  1  0
  2  1  1  1
  4  2  1  0
  4  5  1  6
  6  7  2  0
  6  4  1  0
  9  8  1  1
  9 10  1  0
  9 11  1  0
 11 12  1  1
 12  6  1  0
 13 11  1  0
 13 15  1  0
 14 13  2  0
 16 15  1  0
 16 22  1  0
 16 17  1  6
 17 18  1  0
 19 18  1  0
 20 19  1  0
 20 21  1  0
 22 23  1  0
 24 22  2  0
M  END
$$$$
