TTK.pdb
     RDKit          3D

 24 23  0  0  1  0  0  0  0  0999 V2000
    7.5960  -19.5600   16.1489 C   0  0  0  0  0  0  0  0  0  0  0  0
    7.9382  -18.7518   17.3673 C   0  0  1  0  0  0  0  0  0  0  0  0
    8.7509  -19.4737   18.2388 O   0  0  0  0  0  0  0  0  0  0  0  0
    8.7610  -17.5533   16.9092 C   0  0  2  0  0  0  0  0  0  0  0  0
    9.9642  -18.0757   16.3003 N   0  0  0  0  0  0  0  0  0  0  0  0
    9.0705  -16.6531   18.0552 C   0  0  0  0  0  0  0  0  0  0  0  0
   10.1604  -16.7127   18.6791 O   0  0  0  0  0  0  0  0  0  0  0  0
    7.9530  -12.7323   20.8285 C   0  0  0  0  0  0  0  0  0  0  0  0
    7.4734  -13.6242   19.6998 C   0  0  1  0  0  0  0  0  0  0  0  0
    7.4640  -12.8990   18.5275 O   0  0  0  0  0  0  0  0  0  0  0  0
    8.3967  -14.8162   19.6561 C   0  0  2  0  0  0  0  0  0  0  0  0
    8.1404  -15.6639   18.5139 N   0  0  0  0  0  0  0  0  0  0  0  0
    8.4320  -15.5657   20.9326 C   0  0  0  0  0  0  0  0  0  0  0  0
    7.5366  -16.4240   21.1096 O   0  0  0  0  0  0  0  0  0  0  0  0
    9.4015  -15.3691   21.9417 N   0  0  0  0  0  0  0  0  0  0  0  0
    9.4267  -16.1124   23.2187 C   0  0  1  0  0  0  0  0  0  0  0  0
   10.6681  -16.8240   23.4416 C   0  0  0  0  0  0  0  0  0  0  0  0
   10.8594  -17.6255   24.6684 C   0  0  0  0  0  0  0  0  0  0  0  0
   12.1316  -18.3448   24.8909 C   0  0  0  0  0  0  0  0  0  0  0  0
   12.3853  -19.1630   26.0776 C   0  0  0  0  0  0  0  0  0  0  0  0
   13.6307  -19.8614   26.1542 N   0  0  0  0  0  0  0  0  0  0  0  0
    9.1173  -15.1018   24.3089 C   0  0  0  0  0  0  0  0  0  0  0  0
    9.2650  -13.7397   24.1249 O   0  0  0  0  0  0  0  0  0  0  0  0
    8.7174  -15.5043   25.3992 O   0  0  0  0  0  0  0  0  0  0  0  0
  2  3  1  0
  2  1  1  6
  4  2  1  0
  4  5  1  1
  6  7  2  0
  6  4  1  0
  9  8  1  1
  9 10  1  0
  9 11  1  0
 11 12  1  6
 12  6  1  0
 13 11  1  0
 13 15  1  0
 14 13  2  0
 16 15  1  0
 16 22  1  0
 16 17  1  1
 17 18  1  0
 19 18  1  0
 20 19  1  0
 20 21  1  0
 22 23  1  0
 24 22  2  0
M  END
$$$$
