TTK.pdb
     RDKit          3D

 24 23  0  0  1  0  0  0  0  0999 V2000
    5.9340  -19.2697   19.8981 C   0  0  0  0  0  0  0  0  0  0  0  0
    6.3683  -19.5593   18.4902 C   0  0  1  0  0  0  0  0  0  0  0  0
    5.4040  -20.2975   17.8074 O   0  0  0  0  0  0  0  0  0  0  0  0
    6.4829  -18.2263   17.7598 C   0  0  2  0  0  0  0  0  0  0  0  0
    6.8037  -18.5266   16.3821 N   0  0  0  0  0  0  0  0  0  0  0  0
    7.5203  -17.3631   18.3908 C   0  0  0  0  0  0  0  0  0  0  0  0
    8.7331  -17.6921   18.4296 O   0  0  0  0  0  0  0  0  0  0  0  0
    8.8666  -13.0129   20.2829 C   0  0  0  0  0  0  0  0  0  0  0  0
    7.7483  -13.8020   19.6300 C   0  0  1  0  0  0  0  0  0  0  0  0
    7.5039  -13.2818   18.3770 O   0  0  0  0  0  0  0  0  0  0  0  0
    8.1848  -15.2456   19.6014 C   0  0  2  0  0  0  0  0  0  0  0  0
    7.1943  -16.1036   18.9919 N   0  0  0  0  0  0  0  0  0  0  0  0
    8.6379  -15.7376   20.9223 C   0  0  0  0  0  0  0  0  0  0  0  0
    7.7833  -15.7685   21.8381 O   0  0  0  0  0  0  0  0  0  0  0  0
    9.9556  -16.1655   21.2004 N   0  0  0  0  0  0  0  0  0  0  0  0
   10.3680  -16.7964   22.4716 C   0  0  1  0  0  0  0  0  0  0  0  0
   11.4960  -17.6928   22.3254 C   0  0  0  0  0  0  0  0  0  0  0  0
   11.2952  -19.0710   21.8309 C   0  0  0  0  0  0  0  0  0  0  0  0
   11.8934  -19.4899   20.5456 C   0  0  0  0  0  0  0  0  0  0  0  0
   11.6379  -20.7968   19.9382 C   0  0  0  0  0  0  0  0  0  0  0  0
   12.1422  -21.0318   18.6210 N   0  0  0  0  0  0  0  0  0  0  0  0
   10.6326  -15.6629   23.4466 C   0  0  0  0  0  0  0  0  0  0  0  0
   10.4175  -15.7855   24.8066 O   0  0  0  0  0  0  0  0  0  0  0  0
   11.0569  -14.5927   23.0161 O   0  0  0  0  0  0  0  0  0  0  0  0
  2  3  1  0
  2  1  1  1
  4  2  1  0
  4  5  1  6
  6  7  2  0
  6  4  1  0
  9  8  1  6
  9 10  1  0
  9 11  1  0
 11 12  1  1
 12  6  1  0
 13 11  1  0
 13 15  1  0
 14 13  2  0
 16 15  1  0
 16 22  1  0
 16 17  1  6
 17 18  1  0
 19 18  1  0
 20 19  1  0
 20 21  1  0
 22 23  1  0
 24 22  2  0
M  END
$$$$
