FED.pdb
     RDKit          3D

 29 29  0  0  1  0  0  0  0  0999 V2000
   22.3893  -30.1037    3.4622 N   0  0  0  0  0  0  0  0  0  0  0  0
   22.8035  -30.6108    2.1931 C   0  0  1  0  0  0  0  0  0  0  0  0
   23.2679  -29.4844    1.2592 C   0  0  0  0  0  0  0  0  0  0  0  0
   22.1854  -28.5764    0.8753 C   0  0  0  0  0  0  0  0  0  0  0  0
   21.5019  -28.7985   -0.3004 C   0  0  0  0  0  0  0  0  0  0  0  0
   20.4694  -27.9411   -0.6808 C   0  0  0  0  0  0  0  0  0  0  0  0
   20.1426  -26.8721    0.1319 C   0  0  0  0  0  0  0  0  0  0  0  0
   20.8158  -26.6386    1.3072 C   0  0  0  0  0  0  0  0  0  0  0  0
   21.8398  -27.5012    1.6699 C   0  0  0  0  0  0  0  0  0  0  0  0
   23.9832  -31.5021    2.3385 C   0  0  0  0  0  0  0  0  0  0  0  0
   25.0100  -31.0247    2.8518 O   0  0  0  0  0  0  0  0  0  0  0  0
   23.9903  -32.8478    1.9255 N   0  0  0  0  0  0  0  0  0  0  0  0
   25.0850  -33.7403    1.9008 C   0  0  1  0  0  0  0  0  0  0  0  0
   25.3676  -34.5690    3.1161 C   0  0  0  0  0  0  0  0  0  0  0  0
   25.1750  -33.8898    4.4357 C   0  0  0  0  0  0  0  0  0  0  0  0
   25.4655  -34.8820    5.5319 C   0  0  0  0  0  0  0  0  0  0  0  0
   25.1510  -36.0866    5.4411 O   0  0  0  0  0  0  0  0  0  0  0  0
   25.3700  -34.4048    0.6158 C   0  0  0  0  0  0  0  0  0  0  0  0
   24.4728  -34.8890   -0.1282 O   0  0  0  0  0  0  0  0  0  0  0  0
   26.1061  -34.3864    6.6583 O   0  0  0  0  0  0  0  0  0  0  0  0
   26.7046  -34.5326    0.1455 N   0  0  0  0  0  0  0  0  0  0  0  0
   27.0066  -35.1848   -1.1614 C   0  0  1  0  0  0  0  0  0  0  0  0
   27.7039  -34.1485   -1.9811 C   0  0  0  0  0  0  0  0  0  0  0  0
   26.8095  -33.5031   -2.9384 C   0  0  0  0  0  0  0  0  0  0  0  0
   25.6235  -33.8484   -3.0581 O   0  0  0  0  0  0  0  0  0  0  0  0
   27.8158  -36.3931   -0.8769 C   0  0  0  0  0  0  0  0  0  0  0  0
   28.5093  -36.4794    0.1534 O   0  0  0  0  0  0  0  0  0  0  0  0
   27.2319  -32.4605   -3.7757 O   0  0  0  0  0  0  0  0  0  0  0  0
   27.7714  -37.4345   -1.8107 O   0  0  0  0  0  0  0  0  0  0  0  0
  2  1  1  1
  2 10  1  0
  2  3  1  0
  3  4  1  0
  4  9  2  0
  4  5  1  0
  5  6  2  0
  6  7  1  0
  8  7  2  0
  9  8  1  0
 10 11  2  0
 10 12  1  0
 12 13  1  0
 13 14  1  1
 14 15  1  0
 16 20  1  0
 16 15  1  0
 17 16  2  0
 18 21  1  0
 18 13  1  0
 19 18  2  0
 22 26  1  0
 22 21  1  0
 22 23  1  6
 23 24  1  0
 24 25  2  0
 26 29  1  0
 27 26  2  0
 28 24  1  0
M  END
$$$$
