FED.pdb
     RDKit          3D

 29 29  0  0  1  0  0  0  0  0999 V2000
   22.3583  -29.0599  -13.5432 N   0  0  0  0  0  0  0  0  0  0  0  0
   21.4837  -28.0100  -13.9581 C   0  0  1  0  0  0  0  0  0  0  0  0
   20.4332  -28.5122  -14.9585 C   0  0  0  0  0  0  0  0  0  0  0  0
   21.0088  -28.8949  -16.2491 C   0  0  0  0  0  0  0  0  0  0  0  0
   21.1154  -30.2301  -16.5725 C   0  0  0  0  0  0  0  0  0  0  0  0
   21.6634  -30.6105  -17.7976 C   0  0  0  0  0  0  0  0  0  0  0  0
   22.0956  -29.6367  -18.6779 C   0  0  0  0  0  0  0  0  0  0  0  0
   21.9954  -28.3013  -18.3684 C   0  0  0  0  0  0  0  0  0  0  0  0
   21.4480  -27.9410  -17.1459 C   0  0  0  0  0  0  0  0  0  0  0  0
   20.7019  -27.4867  -12.8082 C   0  0  0  0  0  0  0  0  0  0  0  0
   20.4521  -28.2682  -11.8740 O   0  0  0  0  0  0  0  0  0  0  0  0
   20.2363  -26.1606  -12.7300 N   0  0  0  0  0  0  0  0  0  0  0  0
   19.4602  -25.5741  -11.7057 C   0  0  1  0  0  0  0  0  0  0  0  0
   19.2169  -24.0966  -11.7412 C   0  0  0  0  0  0  0  0  0  0  0  0
   19.7309  -23.3733  -12.9464 C   0  0  0  0  0  0  0  0  0  0  0  0
   19.3682  -21.9161  -12.8212 C   0  0  0  0  0  0  0  0  0  0  0  0
   19.7149  -21.0679  -13.6688 O   0  0  0  0  0  0  0  0  0  0  0  0
   18.3393  -26.3758  -11.1815 C   0  0  0  0  0  0  0  0  0  0  0  0
   17.4381  -26.8698  -11.9141 O   0  0  0  0  0  0  0  0  0  0  0  0
   18.6225  -21.5598  -11.7069 O   0  0  0  0  0  0  0  0  0  0  0  0
   18.2212  -26.6348   -9.7894 N   0  0  0  0  0  0  0  0  0  0  0  0
   17.0802  -27.4240   -9.2420 C   0  0  1  0  0  0  0  0  0  0  0  0
   17.5113  -27.8730   -7.8838 C   0  0  0  0  0  0  0  0  0  0  0  0
   16.5039  -28.7017   -7.2271 C   0  0  0  0  0  0  0  0  0  0  0  0
   15.4221  -28.9689   -7.7734 O   0  0  0  0  0  0  0  0  0  0  0  0
   15.8882  -26.5437   -9.2509 C   0  0  0  0  0  0  0  0  0  0  0  0
   14.7369  -27.0145   -9.3037 O   0  0  0  0  0  0  0  0  0  0  0  0
   16.6949  -29.2433   -5.9477 O   0  0  0  0  0  0  0  0  0  0  0  0
   16.1053  -25.1623   -9.1979 O   0  0  0  0  0  0  0  0  0  0  0  0
  2  1  1  1
  2 10  1  0
  2  3  1  0
  3  4  1  0
  4  9  2  0
  4  5  1  0
  5  6  2  0
  6  7  1  0
  8  7  2  0
  9  8  1  0
 10 11  2  0
 10 12  1  0
 12 13  1  0
 13 14  1  6
 14 15  1  0
 16 20  1  0
 16 15  1  0
 17 16  2  0
 18 21  1  0
 18 13  1  0
 19 18  2  0
 22 26  1  0
 22 21  1  0
 22 23  1  1
 23 24  1  0
 24 25  2  0
 26 29  1  0
 27 26  2  0
 28 24  1  0
M  END
$$$$
