FED.pdb
     RDKit          3D

 29 29  0  0  1  0  0  0  0  0999 V2000
   25.3629  -10.6243  -18.3172 N   0  0  0  0  0  0  0  0  0  0  0  0
   24.4905  -10.6040  -17.1868 C   0  0  1  0  0  0  0  0  0  0  0  0
   25.2513  -10.2863  -15.8919 C   0  0  0  0  0  0  0  0  0  0  0  0
   26.3140  -11.2506  -15.6012 C   0  0  0  0  0  0  0  0  0  0  0  0
   27.6242  -10.9107  -15.8593 C   0  0  0  0  0  0  0  0  0  0  0  0
   28.6477  -11.8194  -15.5895 C   0  0  0  0  0  0  0  0  0  0  0  0
   28.3326  -13.0578  -15.0631 C   0  0  0  0  0  0  0  0  0  0  0  0
   27.0303  -13.4101  -14.8007 C   0  0  0  0  0  0  0  0  0  0  0  0
   26.0252  -12.4943  -15.0751 C   0  0  0  0  0  0  0  0  0  0  0  0
   23.4811   -9.5215  -17.3164 C   0  0  0  0  0  0  0  0  0  0  0  0
   23.8400   -8.4554  -17.8459 O   0  0  0  0  0  0  0  0  0  0  0  0
   22.1517   -9.6475  -16.8712 N   0  0  0  0  0  0  0  0  0  0  0  0
   21.0750   -8.7615  -17.0975 C   0  0  1  0  0  0  0  0  0  0  0  0
   20.0141   -9.1518  -18.0803 C   0  0  0  0  0  0  0  0  0  0  0  0
   20.4949   -9.6019  -19.4242 C   0  0  0  0  0  0  0  0  0  0  0  0
   20.4979  -11.1085  -19.4519 C   0  0  0  0  0  0  0  0  0  0  0  0
   19.4538  -11.7795  -19.3189 O   0  0  0  0  0  0  0  0  0  0  0  0
   20.5926   -7.9934  -15.9351 C   0  0  0  0  0  0  0  0  0  0  0  0
   20.1721   -8.5324  -14.8741 O   0  0  0  0  0  0  0  0  0  0  0  0
   21.7300  -11.7195  -19.6343 O   0  0  0  0  0  0  0  0  0  0  0  0
   20.5796   -6.5729  -15.9589 N   0  0  0  0  0  0  0  0  0  0  0  0
   20.1453   -5.7818  -14.7715 C   0  0  1  0  0  0  0  0  0  0  0  0
   20.7924   -4.4430  -14.9164 C   0  0  0  0  0  0  0  0  0  0  0  0
   22.2012   -4.4624  -14.5316 C   0  0  0  0  0  0  0  0  0  0  0  0
   22.9588   -3.5120  -14.7821 O   0  0  0  0  0  0  0  0  0  0  0  0
   18.6637   -5.7541  -14.7755 C   0  0  0  0  0  0  0  0  0  0  0  0
   18.0195   -5.7628  -15.8408 O   0  0  0  0  0  0  0  0  0  0  0  0
   22.7811   -5.5483  -13.8600 O   0  0  0  0  0  0  0  0  0  0  0  0
   18.0153   -5.7177  -13.5359 O   0  0  0  0  0  0  0  0  0  0  0  0
  2  1  1  6
  2 10  1  0
  2  3  1  0
  3  4  1  0
  4  9  2  0
  4  5  1  0
  5  6  2  0
  6  7  1  0
  8  7  2  0
  9  8  1  0
 10 11  2  0
 10 12  1  0
 12 13  1  0
 13 14  1  1
 14 15  1  0
 16 20  1  0
 16 15  1  0
 17 16  2  0
 18 21  1  0
 18 13  1  0
 19 18  2  0
 22 26  1  0
 22 21  1  0
 22 23  1  6
 23 24  1  0
 24 25  2  0
 26 29  1  0
 27 26  2  0
 28 24  1  0
M  END
$$$$
