FED.pdb
     RDKit          3D

 29 29  0  0  1  0  0  0  0  0999 V2000
   24.9155  -12.5285  -16.9351 N   0  0  0  0  0  0  0  0  0  0  0  0
   24.5380  -11.8169  -15.7560 C   0  0  1  0  0  0  0  0  0  0  0  0
   25.7491  -11.1544  -15.0842 C   0  0  0  0  0  0  0  0  0  0  0  0
   27.0222  -11.5272  -15.7037 C   0  0  0  0  0  0  0  0  0  0  0  0
   27.6274  -10.6549  -16.5822 C   0  0  0  0  0  0  0  0  0  0  0  0
   28.8396  -10.9966  -17.1820 C   0  0  0  0  0  0  0  0  0  0  0  0
   29.4225  -12.2142  -16.8856 C   0  0  0  0  0  0  0  0  0  0  0  0
   28.8300  -13.0939  -16.0114 C   0  0  0  0  0  0  0  0  0  0  0  0
   27.6248  -12.7378  -15.4241 C   0  0  0  0  0  0  0  0  0  0  0  0
   23.6190  -10.6968  -16.0850 C   0  0  0  0  0  0  0  0  0  0  0  0
   23.7155  -10.1804  -17.2118 O   0  0  0  0  0  0  0  0  0  0  0  0
   22.6550  -10.1995  -15.1878 N   0  0  0  0  0  0  0  0  0  0  0  0
   21.7000   -9.1844  -15.4179 C   0  0  1  0  0  0  0  0  0  0  0  0
   20.2452   -9.5361  -15.3594 C   0  0  0  0  0  0  0  0  0  0  0  0
   19.2951   -8.4945  -15.8616 C   0  0  0  0  0  0  0  0  0  0  0  0
   17.8974   -9.0549  -15.8069 C   0  0  0  0  0  0  0  0  0  0  0  0
   17.5920  -10.1378  -16.3473 O   0  0  0  0  0  0  0  0  0  0  0  0
   22.0334   -7.8358  -14.9238 C   0  0  0  0  0  0  0  0  0  0  0  0
   22.4532   -7.6098  -13.7552 O   0  0  0  0  0  0  0  0  0  0  0  0
   16.9572   -8.3010  -15.1195 O   0  0  0  0  0  0  0  0  0  0  0  0
   21.8928   -6.6996  -15.7652 N   0  0  0  0  0  0  0  0  0  0  0  0
   22.2060   -5.3270  -15.2728 C   0  0  1  0  0  0  0  0  0  0  0  0
   22.2893   -4.4672  -16.4917 C   0  0  0  0  0  0  0  0  0  0  0  0
   22.5284   -3.0637  -16.1661 C   0  0  0  0  0  0  0  0  0  0  0  0
   22.6751   -2.6818  -14.9945 O   0  0  0  0  0  0  0  0  0  0  0  0
   21.1379   -4.9439  -14.3198 C   0  0  0  0  0  0  0  0  0  0  0  0
   19.9414   -4.9233  -14.6632 O   0  0  0  0  0  0  0  0  0  0  0  0
   22.6068   -2.0675  -17.1500 O   0  0  0  0  0  0  0  0  0  0  0  0
   21.5249   -4.6056  -13.0182 O   0  0  0  0  0  0  0  0  0  0  0  0
  2  1  1  6
  2 10  1  0
  2  3  1  0
  3  4  1  0
  4  9  2  0
  4  5  1  0
  5  6  2  0
  6  7  1  0
  8  7  2  0
  9  8  1  0
 10 11  2  0
 10 12  1  0
 12 13  1  0
 13 14  1  1
 14 15  1  0
 16 20  1  0
 16 15  1  0
 17 16  2  0
 18 21  1  0
 18 13  1  0
 19 18  2  0
 22 26  1  0
 22 21  1  0
 22 23  1  6
 23 24  1  0
 24 25  2  0
 26 29  1  0
 27 26  2  0
 28 24  1  0
M  END
$$$$
