FED.pdb
     RDKit          3D

 29 29  0  0  1  0  0  0  0  0999 V2000
   18.8473   -9.1125  -13.4454 N   0  0  0  0  0  0  0  0  0  0  0  0
   19.1751   -8.1680  -12.4257 C   0  0  1  0  0  0  0  0  0  0  0  0
   20.5036   -7.4574  -12.7203 C   0  0  0  0  0  0  0  0  0  0  0  0
   21.6308   -8.3825  -12.8517 C   0  0  0  0  0  0  0  0  0  0  0  0
   22.2146   -8.5654  -14.0865 C   0  0  0  0  0  0  0  0  0  0  0  0
   23.2880   -9.4449  -14.2281 C   0  0  0  0  0  0  0  0  0  0  0  0
   23.7559  -10.1265  -13.1206 C   0  0  0  0  0  0  0  0  0  0  0  0
   23.1833   -9.9537  -11.8832 C   0  0  0  0  0  0  0  0  0  0  0  0
   22.1167   -9.0753  -11.7605 C   0  0  0  0  0  0  0  0  0  0  0  0
   18.1626   -7.0826  -12.3641 C   0  0  0  0  0  0  0  0  0  0  0  0
   17.5504   -6.8017  -13.4091 O   0  0  0  0  0  0  0  0  0  0  0  0
   17.8689   -6.3659  -11.1887 N   0  0  0  0  0  0  0  0  0  0  0  0
   16.9949   -5.2659  -11.0406 C   0  0  1  0  0  0  0  0  0  0  0  0
   16.3435   -5.0361   -9.7116 C   0  0  0  0  0  0  0  0  0  0  0  0
   15.3395   -3.9277   -9.6532 C   0  0  0  0  0  0  0  0  0  0  0  0
   14.7767   -3.8646   -8.2568 C   0  0  0  0  0  0  0  0  0  0  0  0
   15.0994   -2.9703   -7.4480 O   0  0  0  0  0  0  0  0  0  0  0  0
   17.3401   -4.0401  -11.7836 C   0  0  0  0  0  0  0  0  0  0  0  0
   18.4185   -3.4067  -11.6134 O   0  0  0  0  0  0  0  0  0  0  0  0
   13.8732   -4.8588   -7.9106 O   0  0  0  0  0  0  0  0  0  0  0  0
   16.4489   -3.5028  -12.7510 N   0  0  0  0  0  0  0  0  0  0  0  0
   16.8145   -2.3050  -13.5609 C   0  0  1  0  0  0  0  0  0  0  0  0
   16.5728   -2.6878  -14.9847 C   0  0  0  0  0  0  0  0  0  0  0  0
   16.7613   -1.5664  -15.9011 C   0  0  0  0  0  0  0  0  0  0  0  0
   15.8239   -0.8163  -16.2153 O   0  0  0  0  0  0  0  0  0  0  0  0
   15.9876   -1.1743  -13.0775 C   0  0  0  0  0  0  0  0  0  0  0  0
   14.9084   -1.3680  -12.4878 O   0  0  0  0  0  0  0  0  0  0  0  0
   18.0042   -1.2695  -16.4787 O   0  0  0  0  0  0  0  0  0  0  0  0
   16.4655    0.1204  -13.3092 O   0  0  0  0  0  0  0  0  0  0  0  0
  2  1  1  6
  2 10  1  0
  2  3  1  0
  3  4  1  0
  4  9  2  0
  4  5  1  0
  5  6  2  0
  6  7  1  0
  8  7  2  0
  9  8  1  0
 10 11  2  0
 10 12  1  0
 12 13  1  0
 13 14  1  1
 14 15  1  0
 16 20  1  0
 16 15  1  0
 17 16  2  0
 18 21  1  0
 18 13  1  0
 19 18  2  0
 22 26  1  0
 22 21  1  0
 22 23  1  6
 23 24  1  0
 24 25  2  0
 26 29  1  0
 27 26  2  0
 28 24  1  0
M  END
$$$$
