FED.pdb
     RDKit          3D

 29 29  0  0  1  0  0  0  0  0999 V2000
   17.1620  -11.7271  -15.2722 N   0  0  0  0  0  0  0  0  0  0  0  0
   17.9119  -10.8062  -16.0653 C   0  0  1  0  0  0  0  0  0  0  0  0
   17.2318  -10.5395  -17.4155 C   0  0  0  0  0  0  0  0  0  0  0  0
   17.1294  -11.7372  -18.2513 C   0  0  0  0  0  0  0  0  0  0  0  0
   18.2799  -12.3507  -18.6971 C   0  0  0  0  0  0  0  0  0  0  0  0
   18.1987  -13.4915  -19.4958 C   0  0  0  0  0  0  0  0  0  0  0  0
   16.9567  -13.9957  -19.8324 C   0  0  0  0  0  0  0  0  0  0  0  0
   15.8010  -13.3940  -19.3949 C   0  0  0  0  0  0  0  0  0  0  0  0
   15.9004  -12.2605  -18.6016 C   0  0  0  0  0  0  0  0  0  0  0  0
   17.9893   -9.4783  -15.4035 C   0  0  0  0  0  0  0  0  0  0  0  0
   17.0606   -9.1555  -14.6425 O   0  0  0  0  0  0  0  0  0  0  0  0
   19.0549   -8.5793  -15.5977 N   0  0  0  0  0  0  0  0  0  0  0  0
   19.2005   -7.2802  -15.0622 C   0  0  1  0  0  0  0  0  0  0  0  0
   20.5729   -6.7956  -14.7084 C   0  0  0  0  0  0  0  0  0  0  0  0
   20.6468   -5.4608  -14.0354 C   0  0  0  0  0  0  0  0  0  0  0  0
   22.0933   -5.1452  -13.7553 C   0  0  0  0  0  0  0  0  0  0  0  0
   22.5312   -5.0001  -12.5954 O   0  0  0  0  0  0  0  0  0  0  0  0
   18.2901   -6.2432  -15.5813 C   0  0  0  0  0  0  0  0  0  0  0  0
   18.1549   -5.9915  -16.8107 O   0  0  0  0  0  0  0  0  0  0  0  0
   22.9229   -5.0225  -14.8605 O   0  0  0  0  0  0  0  0  0  0  0  0
   17.5028   -5.4595  -14.6954 N   0  0  0  0  0  0  0  0  0  0  0  0
   16.6278   -4.3624  -15.2006 C   0  0  1  0  0  0  0  0  0  0  0  0
   15.2332   -4.7536  -14.8344 C   0  0  0  0  0  0  0  0  0  0  0  0
   14.2729   -3.6807  -15.0793 C   0  0  0  0  0  0  0  0  0  0  0  0
   14.3848   -2.9141  -16.0487 O   0  0  0  0  0  0  0  0  0  0  0  0
   17.0971   -3.1007  -14.5810 C   0  0  0  0  0  0  0  0  0  0  0  0
   18.0193   -3.0947  -13.7447 O   0  0  0  0  0  0  0  0  0  0  0  0
   13.1728   -3.4519  -14.2403 O   0  0  0  0  0  0  0  0  0  0  0  0
   16.4642   -1.9152  -14.9714 O   0  0  0  0  0  0  0  0  0  0  0  0
  2  1  1  1
  2 10  1  0
  2  3  1  0
  3  4  1  0
  4  9  2  0
  4  5  1  0
  5  6  2  0
  6  7  1  0
  8  7  2  0
  9  8  1  0
 10 11  2  0
 10 12  1  0
 12 13  1  0
 13 14  1  6
 14 15  1  0
 16 20  1  0
 16 15  1  0
 17 16  2  0
 18 21  1  0
 18 13  1  0
 19 18  2  0
 22 26  1  0
 22 21  1  0
 22 23  1  1
 23 24  1  0
 24 25  2  0
 26 29  1  0
 27 26  2  0
 28 24  1  0
M  END
$$$$
