FSM.pdb
     RDKit          3D

 26 26  0  0  1  0  0  0  0  0999 V2000
    9.7337  -17.1997   19.7481 N   0  0  0  0  0  0  0  0  0  0  0  0
   10.3791  -16.0464   20.3534 C   0  0  1  0  0  0  0  0  0  0  0  0
   10.3122  -14.9499   19.3426 C   0  0  0  0  0  0  0  0  0  0  0  0
    9.0166  -14.3539   19.0923 C   0  0  0  0  0  0  0  0  0  0  0  0
    8.0649  -14.8792   18.2307 C   0  0  0  0  0  0  0  0  0  0  0  0
    6.8588  -14.2580   18.0488 C   0  0  0  0  0  0  0  0  0  0  0  0
    6.5328  -13.0971   18.7020 C   0  0  0  0  0  0  0  0  0  0  0  0
    7.4673  -12.5700   19.5560 C   0  0  0  0  0  0  0  0  0  0  0  0
    8.6916  -13.1839   19.7525 C   0  0  0  0  0  0  0  0  0  0  0  0
    9.6078  -15.6895   21.5655 C   0  0  0  0  0  0  0  0  0  0  0  0
    9.8501  -14.6029   22.1917 O   0  0  0  0  0  0  0  0  0  0  0  0
    7.5249  -18.5870   23.7050 O   0  0  0  0  0  0  0  0  0  0  0  0
    6.8287  -17.4165   23.4938 C   0  0  0  0  0  0  0  0  0  0  0  0
    7.7907  -16.2530   23.2206 C   0  0  2  0  0  0  0  0  0  0  0  0
    8.5969  -16.5265   22.0581 N   0  0  0  0  0  0  0  0  0  0  0  0
    8.6734  -16.1887   24.4326 C   0  0  0  0  0  0  0  0  0  0  0  0
    9.7837  -16.7718   24.3957 O   0  0  0  0  0  0  0  0  0  0  0  0
    6.6970  -11.0535   28.4545 C   0  0  0  0  0  0  0  0  0  0  0  0
    6.4184  -12.7022   27.7164 S   0  0  0  0  0  0  0  0  0  0  0  0
    7.9190  -13.1804   26.7867 C   0  0  0  0  0  0  0  0  0  0  0  0
    8.7387  -14.1578   27.5586 C   0  0  0  0  0  0  0  0  0  0  0  0
    9.2123  -15.2929   26.7045 C   0  0  2  0  0  0  0  0  0  0  0  0
    8.2875  -15.5000   25.5898 N   0  0  0  0  0  0  0  0  0  0  0  0
    9.2871  -16.5632   27.4495 C   0  0  0  0  0  0  0  0  0  0  0  0
    8.4171  -17.6233   27.1329 O   0  0  0  0  0  0  0  0  0  0  0  0
   10.0893  -16.8074   28.3847 O   0  0  0  0  0  0  0  0  0  0  0  0
  2 10  1  0
  2  1  1  6
  3  2  1  0
  4  3  1  0
  5  4  2  0
  6  5  1  0
  7  6  2  0
  7  8  1  0
  8  9  2  0
  9  4  1  0
 10 11  2  0
 13 12  1  0
 14 13  1  1
 15 14  1  0
 15 10  1  0
 16 14  1  0
 17 16  2  0
 18 19  1  0
 19 20  1  0
 20 21  1  0
 22 21  1  1
 22 23  1  0
 23 16  1  0
 24 22  1  0
 24 25  1  0
 26 24  2  0
M  END
$$$$
