FSM.pdb
     RDKit          3D

 26 26  0  0  1  0  0  0  0  0999 V2000
    6.2961  -17.5057   21.5946 N   0  0  0  0  0  0  0  0  0  0  0  0
    6.9930  -16.5739   22.4659 C   0  0  1  0  0  0  0  0  0  0  0  0
    6.0028  -16.1427   23.4963 C   0  0  0  0  0  0  0  0  0  0  0  0
    6.4171  -15.1147   24.4280 C   0  0  0  0  0  0  0  0  0  0  0  0
    6.2313  -15.1794   25.8011 C   0  0  0  0  0  0  0  0  0  0  0  0
    6.6545  -14.1665   26.6186 C   0  0  0  0  0  0  0  0  0  0  0  0
    7.2773  -13.0477   26.1277 C   0  0  0  0  0  0  0  0  0  0  0  0
    7.4656  -12.9744   24.7714 C   0  0  0  0  0  0  0  0  0  0  0  0
    7.0445  -13.9885   23.9295 C   0  0  0  0  0  0  0  0  0  0  0  0
    8.1167  -17.3058   23.0930 C   0  0  0  0  0  0  0  0  0  0  0  0
    7.8925  -18.2639   23.9074 O   0  0  0  0  0  0  0  0  0  0  0  0
   11.8820  -16.3732   21.7664 O   0  0  0  0  0  0  0  0  0  0  0  0
   11.7474  -17.6346   22.3049 C   0  0  0  0  0  0  0  0  0  0  0  0
   10.6009  -17.6717   23.3237 C   0  0  2  0  0  0  0  0  0  0  0  0
    9.4492  -16.9719   22.8140 N   0  0  0  0  0  0  0  0  0  0  0  0
   11.1296  -16.9470   24.5269 C   0  0  0  0  0  0  0  0  0  0  0  0
   11.8440  -15.9313   24.3473 O   0  0  0  0  0  0  0  0  0  0  0  0
   10.8536  -12.1508   28.4390 C   0  0  0  0  0  0  0  0  0  0  0  0
    9.7207  -13.5771   28.2879 S   0  0  0  0  0  0  0  0  0  0  0  0
   10.4638  -14.7859   27.1339 C   0  0  0  0  0  0  0  0  0  0  0  0
   10.8643  -16.0319   27.8480 C   0  0  0  0  0  0  0  0  0  0  0  0
   11.6561  -16.9525   26.9717 C   0  0  2  0  0  0  0  0  0  0  0  0
   10.8455  -17.3763   25.8297 N   0  0  0  0  0  0  0  0  0  0  0  0
   12.0824  -18.1736   27.6798 C   0  0  0  0  0  0  0  0  0  0  0  0
   13.1151  -18.1158   28.6343 O   0  0  0  0  0  0  0  0  0  0  0  0
   11.5921  -19.3173   27.5092 O   0  0  0  0  0  0  0  0  0  0  0  0
  2 10  1  0
  2  1  1  6
  3  2  1  0
  4  3  1  0
  5  4  2  0
  6  5  1  0
  7  6  2  0
  7  8  1  0
  8  9  2  0
  9  4  1  0
 10 11  2  0
 13 12  1  0
 14 13  1  6
 15 14  1  0
 15 10  1  0
 16 14  1  0
 17 16  2  0
 18 19  1  0
 19 20  1  0
 20 21  1  0
 22 21  1  1
 22 23  1  0
 23 16  1  0
 24 22  1  0
 24 25  1  0
 26 24  2  0
M  END
$$$$
