FSM.pdb
     RDKit          3D

 26 26  0  0  1  0  0  0  0  0999 V2000
    5.7625  -18.4783   24.2009 N   0  0  0  0  0  0  0  0  0  0  0  0
    6.3829  -17.1799   23.9956 C   0  0  1  0  0  0  0  0  0  0  0  0
    6.0433  -16.3586   25.1950 C   0  0  0  0  0  0  0  0  0  0  0  0
    6.4627  -14.9727   25.1928 C   0  0  0  0  0  0  0  0  0  0  0  0
    6.6655  -14.2128   26.3353 C   0  0  0  0  0  0  0  0  0  0  0  0
    7.0661  -12.9066   26.2516 C   0  0  0  0  0  0  0  0  0  0  0  0
    7.2854  -12.2888   25.0471 C   0  0  0  0  0  0  0  0  0  0  0  0
    7.0876  -13.0320   23.9117 C   0  0  0  0  0  0  0  0  0  0  0  0
    6.6827  -14.3535   23.9768 C   0  0  0  0  0  0  0  0  0  0  0  0
    7.8448  -17.3942   23.9040 C   0  0  0  0  0  0  0  0  0  0  0  0
    8.4608  -18.0569   24.8056 O   0  0  0  0  0  0  0  0  0  0  0  0
   10.1833  -15.4236   20.9219 O   0  0  0  0  0  0  0  0  0  0  0  0
   10.3909  -16.7607   21.1835 C   0  0  0  0  0  0  0  0  0  0  0  0
    9.9995  -17.0998   22.6277 C   0  0  2  0  0  0  0  0  0  0  0  0
    8.5905  -16.8803   22.8340 N   0  0  0  0  0  0  0  0  0  0  0  0
   10.7807  -16.1389   23.4755 C   0  0  0  0  0  0  0  0  0  0  0  0
   10.3673  -14.9587   23.5777 O   0  0  0  0  0  0  0  0  0  0  0  0
    9.8490  -13.5532   28.7604 C   0  0  0  0  0  0  0  0  0  0  0  0
   10.6752  -15.1709   28.9639 S   0  0  0  0  0  0  0  0  0  0  0  0
   11.9890  -15.3121   27.6995 C   0  0  0  0  0  0  0  0  0  0  0  0
   11.4525  -15.8829   26.4309 C   0  0  0  0  0  0  0  0  0  0  0  0
   12.4435  -15.7957   25.3117 C   0  0  2  0  0  0  0  0  0  0  0  0
   11.9474  -16.5279   24.1461 N   0  0  0  0  0  0  0  0  0  0  0  0
   13.7485  -16.3810   25.6702 C   0  0  0  0  0  0  0  0  0  0  0  0
   14.1393  -17.6232   25.1361 O   0  0  0  0  0  0  0  0  0  0  0  0
   14.5892  -15.8566   26.4421 O   0  0  0  0  0  0  0  0  0  0  0  0
  2 10  1  0
  2  1  1  1
  3  2  1  0
  4  3  1  0
  5  4  2  0
  6  5  1  0
  7  6  2  0
  7  8  1  0
  8  9  2  0
  9  4  1  0
 10 11  2  0
 13 12  1  0
 14 13  1  6
 15 14  1  0
 15 10  1  0
 16 14  1  0
 17 16  2  0
 18 19  1  0
 19 20  1  0
 20 21  1  0
 22 21  1  1
 22 23  1  0
 23 16  1  0
 24 22  1  0
 24 25  1  0
 26 24  2  0
M  END
$$$$
