FSM.pdb
     RDKit          3D

 26 26  0  0  1  0  0  0  0  0999 V2000
    6.1168  -16.9334   25.5815 N   0  0  0  0  0  0  0  0  0  0  0  0
    7.0025  -16.0582   24.8314 C   0  0  1  0  0  0  0  0  0  0  0  0
    7.4699  -15.0134   25.7897 C   0  0  0  0  0  0  0  0  0  0  0  0
    6.9090  -13.6857   25.6520 C   0  0  0  0  0  0  0  0  0  0  0  0
    5.8717  -13.1881   26.4268 C   0  0  0  0  0  0  0  0  0  0  0  0
    5.3970  -11.9182   26.2384 C   0  0  0  0  0  0  0  0  0  0  0  0
    5.9170  -11.0814   25.2845 C   0  0  0  0  0  0  0  0  0  0  0  0
    6.9430  -11.5643   24.5134 C   0  0  0  0  0  0  0  0  0  0  0  0
    7.4358  -12.8451   24.6894 C   0  0  0  0  0  0  0  0  0  0  0  0
    8.1392  -16.8777   24.3542 C   0  0  0  0  0  0  0  0  0  0  0  0
    8.5495  -17.8769   25.0358 O   0  0  0  0  0  0  0  0  0  0  0  0
   10.2821  -15.4393   21.1247 O   0  0  0  0  0  0  0  0  0  0  0  0
   10.2940  -16.8132   21.2324 C   0  0  0  0  0  0  0  0  0  0  0  0
    9.9780  -17.2491   22.6691 C   0  0  2  0  0  0  0  0  0  0  0  0
    8.7938  -16.5838   23.1499 N   0  0  0  0  0  0  0  0  0  0  0  0
   11.1609  -16.8024   23.4774 C   0  0  0  0  0  0  0  0  0  0  0  0
   11.8162  -15.8089   23.0801 O   0  0  0  0  0  0  0  0  0  0  0  0
    8.6435  -15.7281   29.0382 C   0  0  0  0  0  0  0  0  0  0  0  0
   10.3433  -15.3037   28.5175 S   0  0  0  0  0  0  0  0  0  0  0  0
   10.8322  -16.4325   27.1642 C   0  0  0  0  0  0  0  0  0  0  0  0
   12.0488  -15.9321   26.4623 C   0  0  0  0  0  0  0  0  0  0  0  0
   12.6072  -16.9462   25.5126 C   0  0  2  0  0  0  0  0  0  0  0  0
   11.5436  -17.4639   24.6514 N   0  0  0  0  0  0  0  0  0  0  0  0
   13.2030  -18.1007   26.2101 C   0  0  0  0  0  0  0  0  0  0  0  0
   14.3537  -17.9334   27.0031 O   0  0  0  0  0  0  0  0  0  0  0  0
   12.7652  -19.2772   26.1664 O   0  0  0  0  0  0  0  0  0  0  0  0
  2 10  1  0
  2  1  1  1
  3  2  1  0
  4  3  1  0
  5  4  2  0
  6  5  1  0
  7  6  2  0
  7  8  1  0
  8  9  2  0
  9  4  1  0
 10 11  2  0
 13 12  1  0
 14 13  1  6
 15 14  1  0
 15 10  1  0
 16 14  1  0
 17 16  2  0
 18 19  1  0
 19 20  1  0
 20 21  1  0
 22 21  1  1
 22 23  1  0
 23 16  1  0
 24 22  1  0
 24 25  1  0
 26 24  2  0
M  END
$$$$
