FSM.pdb
     RDKit          3D

 26 26  0  0  1  0  0  0  0  0999 V2000
    5.9294  -17.0148   24.9801 N   0  0  0  0  0  0  0  0  0  0  0  0
    6.9297  -16.0841   24.4838 C   0  0  1  0  0  0  0  0  0  0  0  0
    7.3787  -15.2838   25.6612 C   0  0  0  0  0  0  0  0  0  0  0  0
    6.8983  -13.9217   25.7620 C   0  0  0  0  0  0  0  0  0  0  0  0
    5.8108  -13.5282   26.5279 C   0  0  0  0  0  0  0  0  0  0  0  0
    5.4185  -12.2177   26.5749 C   0  0  0  0  0  0  0  0  0  0  0  0
    6.0733  -11.2369   25.8749 C   0  0  0  0  0  0  0  0  0  0  0  0
    7.1498  -11.6161   25.1148 C   0  0  0  0  0  0  0  0  0  0  0  0
    7.5609  -12.9359   25.0551 C   0  0  0  0  0  0  0  0  0  0  0  0
    8.0488  -16.8834   23.9359 C   0  0  0  0  0  0  0  0  0  0  0  0
    8.4828  -17.9073   24.5641 O   0  0  0  0  0  0  0  0  0  0  0  0
   10.0503  -15.5209   20.4007 O   0  0  0  0  0  0  0  0  0  0  0  0
   10.1243  -16.8421   20.7854 C   0  0  0  0  0  0  0  0  0  0  0  0
    9.9708  -16.9754   22.3061 C   0  0  2  0  0  0  0  0  0  0  0  0
    8.6605  -16.5431   22.7214 N   0  0  0  0  0  0  0  0  0  0  0  0
   11.0037  -16.0511   22.8813 C   0  0  0  0  0  0  0  0  0  0  0  0
   10.7680  -14.8187   22.8850 O   0  0  0  0  0  0  0  0  0  0  0  0
   11.4628  -13.3124   28.5079 C   0  0  0  0  0  0  0  0  0  0  0  0
   11.0915  -15.0779   28.2149 S   0  0  0  0  0  0  0  0  0  0  0  0
   12.3532  -15.7527   27.0759 C   0  0  0  0  0  0  0  0  0  0  0  0
   11.7602  -16.0659   25.7443 C   0  0  0  0  0  0  0  0  0  0  0  0
   12.7752  -15.9937   24.6457 C   0  0  2  0  0  0  0  0  0  0  0  0
   12.2106  -16.5301   23.4070 N   0  0  0  0  0  0  0  0  0  0  0  0
   13.9864  -16.7786   24.9476 C   0  0  0  0  0  0  0  0  0  0  0  0
   15.2112  -16.1282   25.1877 O   0  0  0  0  0  0  0  0  0  0  0  0
   14.0381  -18.0317   25.0161 O   0  0  0  0  0  0  0  0  0  0  0  0
  2 10  1  0
  2  1  1  1
  3  2  1  0
  4  3  1  0
  5  4  2  0
  6  5  1  0
  7  6  2  0
  7  8  1  0
  8  9  2  0
  9  4  1  0
 10 11  2  0
 13 12  1  0
 14 13  1  6
 15 14  1  0
 15 10  1  0
 16 14  1  0
 17 16  2  0
 18 19  1  0
 19 20  1  0
 20 21  1  0
 22 21  1  1
 22 23  1  0
 23 16  1  0
 24 22  1  0
 24 25  1  0
 26 24  2  0
M  END
$$$$
