FSM.pdb
     RDKit          3D

 26 26  0  0  1  0  0  0  0  0999 V2000
    5.9581  -18.2454   24.7190 N   0  0  0  0  0  0  0  0  0  0  0  0
    6.4887  -16.9257   24.4190 C   0  0  1  0  0  0  0  0  0  0  0  0
    6.2808  -16.1014   25.6461 C   0  0  0  0  0  0  0  0  0  0  0  0
    6.2313  -14.6637   25.4812 C   0  0  0  0  0  0  0  0  0  0  0  0
    5.5181  -13.8040   26.3035 C   0  0  0  0  0  0  0  0  0  0  0  0
    5.5229  -12.4528   26.0849 C   0  0  0  0  0  0  0  0  0  0  0  0
    6.2256  -11.8856   25.0528 C   0  0  0  0  0  0  0  0  0  0  0  0
    6.9340  -12.7274   24.2343 C   0  0  0  0  0  0  0  0  0  0  0  0
    6.9409  -14.0956   24.4399 C   0  0  0  0  0  0  0  0  0  0  0  0
    7.9323  -17.0810   24.1304 C   0  0  0  0  0  0  0  0  0  0  0  0
    8.7055  -17.6458   24.9757 O   0  0  0  0  0  0  0  0  0  0  0  0
    9.7103  -14.9793   21.0040 O   0  0  0  0  0  0  0  0  0  0  0  0
   10.0649  -16.3085   21.0862 C   0  0  0  0  0  0  0  0  0  0  0  0
    9.8479  -16.8425   22.5080 C   0  0  2  0  0  0  0  0  0  0  0  0
    8.4891  -16.6166   22.9307 N   0  0  0  0  0  0  0  0  0  0  0  0
   10.7759  -16.0367   23.3693 C   0  0  0  0  0  0  0  0  0  0  0  0
   10.4670  -14.8498   23.6340 O   0  0  0  0  0  0  0  0  0  0  0  0
   10.4265  -13.4715   28.4516 C   0  0  0  0  0  0  0  0  0  0  0  0
   11.3227  -15.0337   28.7632 S   0  0  0  0  0  0  0  0  0  0  0  0
   12.4844  -15.3196   27.3799 C   0  0  0  0  0  0  0  0  0  0  0  0
   11.7665  -15.8179   26.1718 C   0  0  0  0  0  0  0  0  0  0  0  0
   12.6778  -15.9502   24.9909 C   0  0  2  0  0  0  0  0  0  0  0  0
   11.9651  -16.5759   23.8767 N   0  0  0  0  0  0  0  0  0  0  0  0
   13.8547  -16.7897   25.2810 C   0  0  0  0  0  0  0  0  0  0  0  0
   15.0286  -16.2108   25.7986 O   0  0  0  0  0  0  0  0  0  0  0  0
   13.9188  -18.0317   25.1046 O   0  0  0  0  0  0  0  0  0  0  0  0
  2 10  1  0
  2  1  1  1
  3  2  1  0
  4  3  1  0
  5  4  2  0
  6  5  1  0
  7  6  2  0
  7  8  1  0
  8  9  2  0
  9  4  1  0
 10 11  2  0
 13 12  1  0
 14 13  1  6
 15 14  1  0
 15 10  1  0
 16 14  1  0
 17 16  2  0
 18 19  1  0
 19 20  1  0
 20 21  1  0
 22 21  1  1
 22 23  1  0
 23 16  1  0
 24 22  1  0
 24 25  1  0
 26 24  2  0
M  END
$$$$
