PLQ.pdb
     RDKit          3D

 25 25  0  0  1  0  0  0  0  0999 V2000
   20.6465  -12.9971  -19.2627 N   0  0  0  0  0  0  0  0  0  0  0  0
   21.2123  -14.2288  -18.7452 C   0  0  0  0  0  0  0  0  0  0  0  0
   20.0239  -15.0082  -18.2246 C   0  0  0  0  0  0  0  0  0  0  0  0
   19.1172  -13.9004  -17.6866 C   0  0  0  0  0  0  0  0  0  0  0  0
   19.5556  -12.6435  -18.3965 C   0  0  1  0  0  0  0  0  0  0  0  0
   19.9147  -11.5529  -17.4541 C   0  0  0  0  0  0  0  0  0  0  0  0
   19.0451  -11.1960  -16.6023 O   0  0  0  0  0  0  0  0  0  0  0  0
   22.6337  -11.2625  -14.0182 C   0  0  0  0  0  0  0  0  0  0  0  0
   23.4462  -11.1073  -15.2985 C   0  0  2  0  0  0  0  0  0  0  0  0
   24.9019  -11.1969  -15.0166 C   0  0  0  0  0  0  0  0  0  0  0  0
   22.9909   -9.9913  -16.1349 C   0  0  0  0  0  0  0  0  0  0  0  0
   21.5895   -9.8852  -16.5622 C   0  0  2  0  0  0  0  0  0  0  0  0
   21.1701  -10.9175  -17.4811 N   0  0  0  0  0  0  0  0  0  0  0  0
   21.1190   -8.5408  -16.9641 C   0  0  0  0  0  0  0  0  0  0  0  0
   21.3330   -8.0612  -18.1184 O   0  0  0  0  0  0  0  0  0  0  0  0
   15.8719   -6.2240  -15.7200 N   0  0  0  0  0  0  0  0  0  0  0  0
   16.4108   -5.0225  -16.2277 C   0  0  0  0  0  0  0  0  0  0  0  0
   15.6859   -4.0340  -16.4215 O   0  0  0  0  0  0  0  0  0  0  0  0
   17.8609   -4.9582  -16.5271 C   0  0  0  0  0  0  0  0  0  0  0  0
   18.4748   -6.2916  -16.2070 C   0  0  0  0  0  0  0  0  0  0  0  0
   19.9428   -6.3506  -16.5393 C   0  0  2  0  0  0  0  0  0  0  0  0
   20.3926   -7.6913  -16.0848 N   0  0  0  0  0  0  0  0  0  0  0  0
   20.6861   -5.3528  -15.7429 C   0  0  0  0  0  0  0  0  0  0  0  0
   21.5123   -5.6882  -14.6933 O   0  0  0  0  0  0  0  0  0  0  0  0
   20.5782   -4.1115  -16.0132 O   0  0  0  0  0  0  0  0  0  0  0  0
  1  2  1  0
  3  2  1  0
  4  5  1  0
  4  3  1  0
  5  1  1  0
  6  7  2  0
  5  6  1  1
  9 10  1  1
  9  8  1  0
 11  9  1  0
 12 11  1  6
 12 13  1  0
 13  6  1  0
 14 15  2  0
 14 12  1  0
 16 17  1  0
 17 18  2  0
 19 17  1  0
 19 20  1  0
 21 20  1  1
 21 22  1  0
 22 14  1  0
 23 21  1  0
 24 23  1  0
 25 23  2  0
M  END
$$$$
