PLQ.pdb
     RDKit          3D

 25 25  0  0  1  0  0  0  0  0999 V2000
   20.4208  -13.6460  -19.7779 N   0  0  0  0  0  0  0  0  0  0  0  0
   19.0677  -13.2313  -20.0976 C   0  0  0  0  0  0  0  0  0  0  0  0
   19.2197  -12.3109  -21.2894 C   0  0  0  0  0  0  0  0  0  0  0  0
   20.5464  -11.6101  -20.9935 C   0  0  0  0  0  0  0  0  0  0  0  0
   21.2735  -12.5176  -20.0325 C   0  0  1  0  0  0  0  0  0  0  0  0
   21.6742  -11.8206  -18.7834 C   0  0  0  0  0  0  0  0  0  0  0  0
   20.8406  -11.7919  -17.8277 O   0  0  0  0  0  0  0  0  0  0  0  0
   26.7726  -10.4519  -15.6398 C   0  0  0  0  0  0  0  0  0  0  0  0
   25.2802  -10.1893  -15.8052 C   0  0  2  0  0  0  0  0  0  0  0  0
   24.5512  -10.4590  -14.5393 C   0  0  0  0  0  0  0  0  0  0  0  0
   24.7288  -10.7687  -17.0350 C   0  0  0  0  0  0  0  0  0  0  0  0
   23.3552  -10.4736  -17.4637 C   0  0  2  0  0  0  0  0  0  0  0  0
   22.9301  -11.2032  -18.6355 N   0  0  0  0  0  0  0  0  0  0  0  0
   22.9680   -9.0460  -17.5114 C   0  0  0  0  0  0  0  0  0  0  0  0
   22.9764   -8.3735  -18.5866 O   0  0  0  0  0  0  0  0  0  0  0  0
   18.4387   -7.4834  -18.5977 N   0  0  0  0  0  0  0  0  0  0  0  0
   18.6593   -6.1720  -18.1251 C   0  0  0  0  0  0  0  0  0  0  0  0
   17.8279   -5.2744  -18.3331 O   0  0  0  0  0  0  0  0  0  0  0  0
   19.9034   -5.8813  -17.3739 C   0  0  0  0  0  0  0  0  0  0  0  0
   20.6975   -7.1511  -17.2543 C   0  0  0  0  0  0  0  0  0  0  0  0
   21.9792   -6.9650  -16.4854 C   0  0  2  0  0  0  0  0  0  0  0  0
   22.5579   -8.3268  -16.3551 N   0  0  0  0  0  0  0  0  0  0  0  0
   21.6885   -6.4867  -15.1182 C   0  0  0  0  0  0  0  0  0  0  0  0
   21.5460   -5.1546  -14.7987 O   0  0  0  0  0  0  0  0  0  0  0  0
   21.5591   -7.3219  -14.1636 O   0  0  0  0  0  0  0  0  0  0  0  0
  1  2  1  0
  3  2  1  0
  4  5  1  0
  4  3  1  0
  5  1  1  0
  6  7  2  0
  5  6  1  1
  9 10  1  1
  9  8  1  0
 11  9  1  0
 12 11  1  6
 12 13  1  0
 13  6  1  0
 14 15  2  0
 14 12  1  0
 16 17  1  0
 17 18  2  0
 19 17  1  0
 19 20  1  0
 21 20  1  6
 21 22  1  0
 22 14  1  0
 23 21  1  0
 24 23  1  0
 25 23  2  0
M  END
$$$$
