PLQ.pdb
     RDKit          3D

 25 25  0  0  1  0  0  0  0  0999 V2000
   26.5209  -18.2138  -15.7656 N   0  0  0  0  0  0  0  0  0  0  0  0
   27.4790  -17.5451  -14.9053 C   0  0  0  0  0  0  0  0  0  0  0  0
   28.7808  -18.2824  -15.1346 C   0  0  0  0  0  0  0  0  0  0  0  0
   28.3079  -19.7209  -15.3488 C   0  0  0  0  0  0  0  0  0  0  0  0
   26.8613  -19.6100  -15.7622 C   0  0  1  0  0  0  0  0  0  0  0  0
   25.9581  -20.4083  -14.8942 C   0  0  0  0  0  0  0  0  0  0  0  0
   25.8580  -21.6511  -15.1279 O   0  0  0  0  0  0  0  0  0  0  0  0
   26.1648  -22.0793  -11.0115 C   0  0  0  0  0  0  0  0  0  0  0  0
   25.7728  -20.6119  -10.8834 C   0  0  2  0  0  0  0  0  0  0  0  0
   25.9452  -20.1373   -9.4863 C   0  0  0  0  0  0  0  0  0  0  0  0
   24.5036  -20.2972  -11.5484 C   0  0  0  0  0  0  0  0  0  0  0  0
   24.3136  -20.5544  -12.9822 C   0  0  2  0  0  0  0  0  0  0  0  0
   25.2247  -19.8331  -13.8398 N   0  0  0  0  0  0  0  0  0  0  0  0
   22.9207  -20.5270  -13.4815 C   0  0  0  0  0  0  0  0  0  0  0  0
   22.3072  -19.4451  -13.7296 O   0  0  0  0  0  0  0  0  0  0  0  0
   19.5540  -23.6755  -17.1862 N   0  0  0  0  0  0  0  0  0  0  0  0
   18.7368  -22.9431  -16.2989 C   0  0  0  0  0  0  0  0  0  0  0  0
   17.8991  -22.1345  -16.7286 O   0  0  0  0  0  0  0  0  0  0  0  0
   18.8943  -23.1545  -14.8404 C   0  0  0  0  0  0  0  0  0  0  0  0
   20.3510  -23.0309  -14.4939 C   0  0  0  0  0  0  0  0  0  0  0  0
   20.7391  -21.6284  -14.1051 C   0  0  2  0  0  0  0  0  0  0  0  0
   22.1712  -21.7120  -13.7197 N   0  0  0  0  0  0  0  0  0  0  0  0
   19.9920  -21.2078  -12.9019 C   0  0  0  0  0  0  0  0  0  0  0  0
   20.3465  -21.5809  -11.6245 O   0  0  0  0  0  0  0  0  0  0  0  0
   18.9626  -20.4645  -13.0171 O   0  0  0  0  0  0  0  0  0  0  0  0
  1  2  1  0
  3  2  1  0
  4  5  1  0
  4  3  1  0
  5  1  1  0
  6  7  2  0
  5  6  1  1
  9 10  1  1
  9  8  1  0
 11  9  1  0
 12 11  1  1
 12 13  1  0
 13  6  1  0
 14 15  2  0
 14 12  1  0
 16 17  1  0
 17 18  2  0
 19 17  1  0
 19 20  1  0
 21 20  1  1
 21 22  1  0
 22 14  1  0
 23 21  1  0
 24 23  1  0
 25 23  2  0
M  END
$$$$
