PLQ.pdb
     RDKit          3D

 25 25  0  0  1  0  0  0  0  0999 V2000
   17.8295  -27.3756   -5.8848 N   0  0  0  0  0  0  0  0  0  0  0  0
   16.4729  -27.1384   -6.3412 C   0  0  0  0  0  0  0  0  0  0  0  0
   16.3471  -25.6314   -6.4047 C   0  0  0  0  0  0  0  0  0  0  0  0
   17.2066  -25.1820   -5.2223 C   0  0  0  0  0  0  0  0  0  0  0  0
   18.1414  -26.3334   -4.9457 C   0  0  1  0  0  0  0  0  0  0  0  0
   18.0669  -26.8020   -3.5382 C   0  0  0  0  0  0  0  0  0  0  0  0
   17.3092  -27.7863   -3.2810 O   0  0  0  0  0  0  0  0  0  0  0  0
   21.0154  -25.5310    1.8045 C   0  0  0  0  0  0  0  0  0  0  0  0
   20.0461  -26.4684    1.0937 C   0  0  2  0  0  0  0  0  0  0  0  0
   20.2492  -27.8729    1.5325 C   0  0  0  0  0  0  0  0  0  0  0  0
   19.9632  -26.2205   -0.3499 C   0  0  0  0  0  0  0  0  0  0  0  0
   18.7767  -26.6148   -1.1210 C   0  0  2  0  0  0  0  0  0  0  0  0
   18.8007  -26.1942   -2.5025 N   0  0  0  0  0  0  0  0  0  0  0  0
   17.4630  -26.3852   -0.4795 C   0  0  0  0  0  0  0  0  0  0  0  0
   16.8837  -25.2571   -0.4982 O   0  0  0  0  0  0  0  0  0  0  0  0
   13.6217  -29.8950   -1.4682 N   0  0  0  0  0  0  0  0  0  0  0  0
   13.0893  -28.5958   -1.6115 C   0  0  0  0  0  0  0  0  0  0  0  0
   12.2731  -28.3402   -2.5107 O   0  0  0  0  0  0  0  0  0  0  0  0
   13.5210  -27.5370   -0.6685 C   0  0  0  0  0  0  0  0  0  0  0  0
   14.4931  -28.1345    0.3089 C   0  0  0  0  0  0  0  0  0  0  0  0
   15.4582  -27.1196    0.8632 C   0  0  2  0  0  0  0  0  0  0  0  0
   16.7559  -27.4133    0.2029 N   0  0  0  0  0  0  0  0  0  0  0  0
   15.6515  -27.3379    2.3115 C   0  0  0  0  0  0  0  0  0  0  0  0
   14.7665  -26.8902    3.2671 O   0  0  0  0  0  0  0  0  0  0  0  0
   16.6784  -27.9663    2.7309 O   0  0  0  0  0  0  0  0  0  0  0  0
  1  2  1  0
  3  2  1  0
  4  5  1  0
  4  3  1  0
  5  1  1  0
  6  7  2  0
  5  6  1  1
  9 10  1  6
  9  8  1  0
 11  9  1  0
 12 11  1  1
 12 13  1  0
 13  6  1  0
 14 15  2  0
 14 12  1  0
 16 17  1  0
 17 18  2  0
 19 17  1  0
 19 20  1  0
 21 20  1  6
 21 22  1  0
 22 14  1  0
 23 21  1  0
 24 23  1  0
 25 23  2  0
M  END
$$$$
