PLQ.pdb
     RDKit          3D

 25 25  0  0  1  0  0  0  0  0999 V2000
   28.0594  -21.3880  -14.4153 N   0  0  0  0  0  0  0  0  0  0  0  0
   27.4076  -20.9208  -15.6245 C   0  0  0  0  0  0  0  0  0  0  0  0
   27.5515  -19.4148  -15.5807 C   0  0  0  0  0  0  0  0  0  0  0  0
   27.4406  -19.1196  -14.0843 C   0  0  0  0  0  0  0  0  0  0  0  0
   27.7887  -20.4146  -13.3934 C   0  0  1  0  0  0  0  0  0  0  0  0
   26.7280  -20.8626  -12.4550 C   0  0  0  0  0  0  0  0  0  0  0  0
   26.1165  -21.9410  -12.7235 O   0  0  0  0  0  0  0  0  0  0  0  0
   27.4656  -21.5227   -8.1581 C   0  0  0  0  0  0  0  0  0  0  0  0
   26.9633  -20.1018   -8.3868 C   0  0  2  0  0  0  0  0  0  0  0  0
   27.2110  -19.2535   -7.1928 C   0  0  0  0  0  0  0  0  0  0  0  0
   25.6210  -20.0562   -8.9770 C   0  0  0  0  0  0  0  0  0  0  0  0
   25.3773  -20.5287  -10.3464 C   0  0  2  0  0  0  0  0  0  0  0  0
   26.3901  -20.1358  -11.2982 N   0  0  0  0  0  0  0  0  0  0  0  0
   24.0050  -20.3561  -10.8727 C   0  0  0  0  0  0  0  0  0  0  0  0
   22.9749  -20.6845  -10.2098 O   0  0  0  0  0  0  0  0  0  0  0  0
   21.0044  -22.6824  -14.5236 N   0  0  0  0  0  0  0  0  0  0  0  0
   20.6923  -21.5181  -15.2577 C   0  0  0  0  0  0  0  0  0  0  0  0
   19.7211  -21.4961  -16.0299 O   0  0  0  0  0  0  0  0  0  0  0  0
   21.5450  -20.3171  -15.0921 C   0  0  0  0  0  0  0  0  0  0  0  0
   22.6171  -20.6269  -14.0861 C   0  0  0  0  0  0  0  0  0  0  0  0
   22.3941  -19.9348  -12.7671 C   0  0  2  0  0  0  0  0  0  0  0  0
   23.7434  -19.8087  -12.1590 N   0  0  0  0  0  0  0  0  0  0  0  0
   21.5946  -20.7937  -11.8696 C   0  0  0  0  0  0  0  0  0  0  0  0
   21.9514  -22.0833  -11.5432 O   0  0  0  0  0  0  0  0  0  0  0  0
   20.5147  -20.3507  -11.3567 O   0  0  0  0  0  0  0  0  0  0  0  0
  1  2  1  0
  3  2  1  0
  4  5  1  0
  4  3  1  0
  5  1  1  0
  6  7  2  0
  5  6  1  6
  9 10  1  1
  9  8  1  0
 11  9  1  0
 12 11  1  1
 12 13  1  0
 13  6  1  0
 14 15  2  0
 14 12  1  0
 16 17  1  0
 17 18  2  0
 19 17  1  0
 19 20  1  0
 21 20  1  6
 21 22  1  0
 22 14  1  0
 23 21  1  0
 24 23  1  0
 25 23  2  0
M  END
$$$$
