PLQ.pdb
     RDKit          3D

 25 25  0  0  1  0  0  0  0  0999 V2000
   27.8186  -19.2218  -16.0848 N   0  0  0  0  0  0  0  0  0  0  0  0
   27.3492  -18.5109  -17.2593 C   0  0  0  0  0  0  0  0  0  0  0  0
   27.1833  -17.0783  -16.8000 C   0  0  0  0  0  0  0  0  0  0  0  0
   26.7131  -17.2511  -15.3550 C   0  0  0  0  0  0  0  0  0  0  0  0
   27.1593  -18.6343  -14.9510 C   0  0  1  0  0  0  0  0  0  0  0  0
   26.0378  -19.4722  -14.4544 C   0  0  0  0  0  0  0  0  0  0  0  0
   25.6014  -20.3888  -15.2150 O   0  0  0  0  0  0  0  0  0  0  0  0
   26.2863  -22.0267  -10.9733 C   0  0  0  0  0  0  0  0  0  0  0  0
   25.7772  -20.6625  -10.5226 C   0  0  2  0  0  0  0  0  0  0  0  0
   25.8582  -20.5282   -9.0454 C   0  0  0  0  0  0  0  0  0  0  0  0
   24.5141  -20.2812  -11.1639 C   0  0  0  0  0  0  0  0  0  0  0  0
   24.4229  -20.1125  -12.6203 C   0  0  2  0  0  0  0  0  0  0  0  0
   25.4579  -19.2794  -13.1867 N   0  0  0  0  0  0  0  0  0  0  0  0
   23.0830  -19.8068  -13.1695 C   0  0  0  0  0  0  0  0  0  0  0  0
   22.6244  -18.6259  -13.2287 O   0  0  0  0  0  0  0  0  0  0  0  0
   20.6798  -22.2327  -17.9519 N   0  0  0  0  0  0  0  0  0  0  0  0
   19.5086  -21.5502  -17.5591 C   0  0  0  0  0  0  0  0  0  0  0  0
   18.5115  -21.5242  -18.2974 O   0  0  0  0  0  0  0  0  0  0  0  0
   19.4869  -20.8622  -16.2465 C   0  0  0  0  0  0  0  0  0  0  0  0
   20.8143  -21.0720  -15.5747 C   0  0  0  0  0  0  0  0  0  0  0  0
   20.8751  -20.4550  -14.2020 C   0  0  2  0  0  0  0  0  0  0  0  0
   22.2146  -20.8154  -13.6707 N   0  0  0  0  0  0  0  0  0  0  0  0
   19.8752  -21.0848  -13.3154 C   0  0  0  0  0  0  0  0  0  0  0  0
   18.5959  -20.6002  -13.1560 O   0  0  0  0  0  0  0  0  0  0  0  0
   20.1798  -22.1285  -12.6494 O   0  0  0  0  0  0  0  0  0  0  0  0
  1  2  1  0
  3  2  1  0
  4  5  1  0
  4  3  1  0
  5  1  1  0
  6  7  2  0
  5  6  1  6
  9 10  1  1
  9  8  1  0
 11  9  1  0
 12 11  1  1
 12 13  1  0
 13  6  1  0
 14 15  2  0
 14 12  1  0
 16 17  1  0
 17 18  2  0
 19 17  1  0
 19 20  1  0
 21 20  1  6
 21 22  1  0
 22 14  1  0
 23 21  1  0
 24 23  1  0
 25 23  2  0
M  END
$$$$
