PLQ.pdb
     RDKit          3D

 25 25  0  0  1  0  0  0  0  0999 V2000
   28.3262  -21.0150  -15.8324 N   0  0  0  0  0  0  0  0  0  0  0  0
   27.9260  -20.7845  -17.2079 C   0  0  0  0  0  0  0  0  0  0  0  0
   27.7982  -19.2808  -17.3237 C   0  0  0  0  0  0  0  0  0  0  0  0
   27.2709  -18.8907  -15.9422 C   0  0  0  0  0  0  0  0  0  0  0  0
   27.6499  -20.0320  -15.0315 C   0  0  1  0  0  0  0  0  0  0  0  0
   26.4805  -20.5987  -14.3118 C   0  0  0  0  0  0  0  0  0  0  0  0
   25.9557  -21.6565  -14.7752 O   0  0  0  0  0  0  0  0  0  0  0  0
   26.3457  -22.0373  -10.1072 C   0  0  0  0  0  0  0  0  0  0  0  0
   26.0491  -20.5422  -10.1188 C   0  0  2  0  0  0  0  0  0  0  0  0
   26.0888  -19.9834   -8.7430 C   0  0  0  0  0  0  0  0  0  0  0  0
   24.8938  -20.1933  -10.9530 C   0  0  0  0  0  0  0  0  0  0  0  0
   24.8544  -20.5421  -12.3794 C   0  0  2  0  0  0  0  0  0  0  0  0
   25.9500  -20.0043  -13.1518 N   0  0  0  0  0  0  0  0  0  0  0  0
   23.5500  -20.3926  -13.0624 C   0  0  0  0  0  0  0  0  0  0  0  0
   23.2032  -19.3187  -13.6409 O   0  0  0  0  0  0  0  0  0  0  0  0
   17.9004  -24.4755  -13.7858 N   0  0  0  0  0  0  0  0  0  0  0  0
   18.8530  -23.9905  -14.7073 C   0  0  0  0  0  0  0  0  0  0  0  0
   19.2852  -24.7179  -15.6151 O   0  0  0  0  0  0  0  0  0  0  0  0
   19.3315  -22.5940  -14.5743 C   0  0  0  0  0  0  0  0  0  0  0  0
   20.6919  -22.6134  -13.9369 C   0  0  0  0  0  0  0  0  0  0  0  0
   21.2973  -21.2394  -13.8167 C   0  0  2  0  0  0  0  0  0  0  0  0
   22.5929  -21.4430  -13.1195 N   0  0  0  0  0  0  0  0  0  0  0  0
   20.4642  -20.3903  -12.9406 C   0  0  0  0  0  0  0  0  0  0  0  0
   19.4932  -19.5378  -13.4172 O   0  0  0  0  0  0  0  0  0  0  0  0
   20.6279  -20.4231  -11.6766 O   0  0  0  0  0  0  0  0  0  0  0  0
  1  2  1  0
  3  2  1  0
  4  5  1  0
  4  3  1  0
  5  1  1  0
  6  7  2  0
  5  6  1  6
  9 10  1  1
  9  8  1  0
 11  9  1  0
 12 11  1  1
 12 13  1  0
 13  6  1  0
 14 15  2  0
 14 12  1  0
 16 17  1  0
 17 18  2  0
 19 17  1  0
 19 20  1  0
 21 20  1  1
 21 22  1  0
 22 14  1  0
 23 21  1  0
 24 23  1  0
 25 23  2  0
M  END
$$$$
