PLQ.pdb
     RDKit          3D

 25 25  0  0  1  0  0  0  0  0999 V2000
   21.9164  -14.6583  -18.2603 N   0  0  0  0  0  0  0  0  0  0  0  0
   20.5120  -15.0108  -18.1682 C   0  0  0  0  0  0  0  0  0  0  0  0
   19.8771  -14.3805  -19.3891 C   0  0  0  0  0  0  0  0  0  0  0  0
   20.6815  -13.0892  -19.5454 C   0  0  0  0  0  0  0  0  0  0  0  0
   21.9780  -13.3335  -18.8140 C   0  0  1  0  0  0  0  0  0  0  0  0
   22.2517  -12.3026  -17.7801 C   0  0  0  0  0  0  0  0  0  0  0  0
   21.3560  -12.0856  -16.9085 O   0  0  0  0  0  0  0  0  0  0  0  0
   25.3463  -11.9066  -14.5687 C   0  0  0  0  0  0  0  0  0  0  0  0
   25.9190  -11.4346  -15.9001 C   0  0  2  0  0  0  0  0  0  0  0  0
   27.3931  -11.2720  -15.8151 C   0  0  0  0  0  0  0  0  0  0  0  0
   25.1544  -10.3329  -16.4949 C   0  0  0  0  0  0  0  0  0  0  0  0
   23.7329  -10.4898  -16.8307 C   0  0  2  0  0  0  0  0  0  0  0  0
   23.4554  -11.5746  -17.7431 N   0  0  0  0  0  0  0  0  0  0  0  0
   22.9927   -9.2551  -17.1736 C   0  0  0  0  0  0  0  0  0  0  0  0
   22.9609   -8.7847  -18.3509 O   0  0  0  0  0  0  0  0  0  0  0  0
   17.5104   -8.2065  -16.3893 N   0  0  0  0  0  0  0  0  0  0  0  0
   17.7897   -6.8413  -16.6130 C   0  0  0  0  0  0  0  0  0  0  0  0
   16.8698   -6.0210  -16.7582 O   0  0  0  0  0  0  0  0  0  0  0  0
   19.2033   -6.3999  -16.6721 C   0  0  0  0  0  0  0  0  0  0  0  0
   20.0873   -7.6059  -16.5265 C   0  0  0  0  0  0  0  0  0  0  0  0
   21.5526   -7.2651  -16.6014 C   0  0  2  0  0  0  0  0  0  0  0  0
   22.2635   -8.5084  -16.2075 N   0  0  0  0  0  0  0  0  0  0  0  0
   21.8891   -6.2378  -15.5944 C   0  0  0  0  0  0  0  0  0  0  0  0
   22.5612   -6.5181  -14.4255 O   0  0  0  0  0  0  0  0  0  0  0  0
   21.5534   -5.0227  -15.7853 O   0  0  0  0  0  0  0  0  0  0  0  0
  1  2  1  0
  3  2  1  0
  4  5  1  0
  4  3  1  0
  5  1  1  0
  6  7  2  0
  5  6  1  1
  9 10  1  1
  9  8  1  0
 11  9  1  0
 12 11  1  6
 12 13  1  0
 13  6  1  0
 14 15  2  0
 14 12  1  0
 16 17  1  0
 17 18  2  0
 19 17  1  0
 19 20  1  0
 21 20  1  1
 21 22  1  0
 22 14  1  0
 23 21  1  0
 24 23  1  0
 25 23  2  0
M  END
$$$$
