LED.pdb
     RDKit          3D

 26 25  0  0  1  0  0  0  0  0999 V2000
    6.8820  -12.5668   19.9225 C   0  0  0  0  0  0  0  0  0  0  0  0
    8.1773  -12.9929   19.2401 C   0  0  1  0  0  0  0  0  0  0  0  0
    9.1226  -11.7893   19.3655 C   0  0  0  0  0  0  0  0  0  0  0  0
    8.8442  -14.1208   19.9412 C   0  0  0  0  0  0  0  0  0  0  0  0
   10.1744  -14.5547   19.4094 C   0  0  2  0  0  0  0  0  0  0  0  0
    9.9765  -14.9030   17.9842 N   0  0  0  0  0  0  0  0  0  0  0  0
   10.7226  -15.7784   20.0718 C   0  0  0  0  0  0  0  0  0  0  0  0
   10.8277  -15.7378   21.3178 O   0  0  0  0  0  0  0  0  0  0  0  0
   11.1064  -16.9291   19.3564 N   0  0  0  0  0  0  0  0  0  0  0  0
   11.6056  -18.1683   19.8769 C   0  0  1  0  0  0  0  0  0  0  0  0
   11.2153  -19.3546   19.0730 C   0  0  0  0  0  0  0  0  0  0  0  0
   11.7134  -20.6203   19.7892 C   0  0  0  0  0  0  0  0  0  0  0  0
   11.3784  -21.7994   18.9256 C   0  0  0  0  0  0  0  0  0  0  0  0
   11.7503  -21.7544   17.7117 O   0  0  0  0  0  0  0  0  0  0  0  0
   12.9582  -18.1569   20.4443 C   0  0  0  0  0  0  0  0  0  0  0  0
   13.9869  -17.9182   19.7674 O   0  0  0  0  0  0  0  0  0  0  0  0
   10.7020  -22.8973   19.3877 O   0  0  0  0  0  0  0  0  0  0  0  0
   13.2101  -18.4202   21.8372 N   0  0  0  0  0  0  0  0  0  0  0  0
   14.5622  -18.4613   22.3651 C   0  0  1  0  0  0  0  0  0  0  0  0
   14.8487  -17.4574   23.4216 C   0  0  0  0  0  0  0  0  0  0  0  0
   15.8491  -16.4474   23.0365 C   0  0  0  0  0  0  0  0  0  0  0  0
   16.4292  -16.5533   21.9284 O   0  0  0  0  0  0  0  0  0  0  0  0
   14.7952  -19.8344   22.9396 C   0  0  0  0  0  0  0  0  0  0  0  0
   15.9834  -20.0875   23.2984 O   0  0  0  0  0  0  0  0  0  0  0  0
   16.1962  -15.3682   23.8321 O   0  0  0  0  0  0  0  0  0  0  0  0
   13.8341  -20.7861   23.0878 O   0  0  0  0  0  0  0  0  0  0  0  0
  2  1  1  1
  2  3  1  0
  4  2  1  0
  5  4  1  0
  5  6  1  6
  7  9  1  0
  7  5  1  0
  8  7  2  0
 10  9  1  0
 11 12  1  0
 10 11  1  6
 12 13  1  0
 13 14  2  0
 13 17  1  0
 15 16  2  0
 15 10  1  0
 18 15  1  0
 19 20  1  1
 19 18  1  0
 21 20  1  0
 21 25  1  0
 22 21  2  0
 23 19  1  0
 24 23  2  0
 26 23  1  0
M  END
$$$$
