LED.pdb
     RDKit          3D

 26 25  0  0  1  0  0  0  0  0999 V2000
    8.3646  -12.1323   25.8451 C   0  0  0  0  0  0  0  0  0  0  0  0
    7.3249  -13.2345   26.0165 C   0  0  1  0  0  0  0  0  0  0  0  0
    6.2067  -12.6153   26.8675 C   0  0  0  0  0  0  0  0  0  0  0  0
    6.6979  -13.6289   24.7283 C   0  0  0  0  0  0  0  0  0  0  0  0
    6.4632  -15.0912   24.5112 C   0  0  2  0  0  0  0  0  0  0  0  0
    5.5813  -15.5539   25.6066 N   0  0  0  0  0  0  0  0  0  0  0  0
    7.7040  -15.9226   24.5873 C   0  0  0  0  0  0  0  0  0  0  0  0
    7.9681  -16.4286   25.7006 O   0  0  0  0  0  0  0  0  0  0  0  0
    8.5474  -16.1419   23.4811 N   0  0  0  0  0  0  0  0  0  0  0  0
    9.6354  -17.0690   23.3688 C   0  0  1  0  0  0  0  0  0  0  0  0
   10.0435  -17.3444   21.9675 C   0  0  0  0  0  0  0  0  0  0  0  0
   10.7485  -16.0991   21.4061 C   0  0  0  0  0  0  0  0  0  0  0  0
   11.0285  -16.3445   19.9537 C   0  0  0  0  0  0  0  0  0  0  0  0
   11.4504  -17.4985   19.6306 O   0  0  0  0  0  0  0  0  0  0  0  0
   10.7011  -16.9715   24.3719 C   0  0  0  0  0  0  0  0  0  0  0  0
   11.0858  -15.8841   24.8644 O   0  0  0  0  0  0  0  0  0  0  0  0
   10.8499  -15.3920   18.9857 O   0  0  0  0  0  0  0  0  0  0  0  0
   11.3927  -18.1301   24.8740 N   0  0  0  0  0  0  0  0  0  0  0  0
   12.4629  -18.0073   25.8479 C   0  0  1  0  0  0  0  0  0  0  0  0
   12.4450  -19.0301   26.9247 C   0  0  0  0  0  0  0  0  0  0  0  0
   11.2626  -18.9615   27.8002 C   0  0  0  0  0  0  0  0  0  0  0  0
   11.1520  -18.0035   28.6037 O   0  0  0  0  0  0  0  0  0  0  0  0
   13.7740  -18.1142   25.1136 C   0  0  0  0  0  0  0  0  0  0  0  0
   13.6956  -18.4202   23.8869 O   0  0  0  0  0  0  0  0  0  0  0  0
   10.2462  -19.9022   27.7929 O   0  0  0  0  0  0  0  0  0  0  0  0
   14.9963  -17.9094   25.6756 O   0  0  0  0  0  0  0  0  0  0  0  0
  2  1  1  6
  2  3  1  0
  4  2  1  0
  5  4  1  0
  5  6  1  1
  7  9  1  0
  7  5  1  0
  8  7  2  0
 10  9  1  0
 11 12  1  0
 10 11  1  6
 12 13  1  0
 13 14  2  0
 13 17  1  0
 15 16  2  0
 15 10  1  0
 18 15  1  0
 19 20  1  1
 19 18  1  0
 21 20  1  0
 21 25  1  0
 22 21  2  0
 23 19  1  0
 24 23  2  0
 26 23  1  0
M  END
$$$$
