LED.pdb
     RDKit          3D

 26 25  0  0  1  0  0  0  0  0999 V2000
    6.9140  -11.6914   26.9458 C   0  0  0  0  0  0  0  0  0  0  0  0
    6.4368  -12.7920   26.0045 C   0  0  1  0  0  0  0  0  0  0  0  0
    6.2497  -12.1128   24.6401 C   0  0  0  0  0  0  0  0  0  0  0  0
    7.4593  -13.8517   25.8052 C   0  0  0  0  0  0  0  0  0  0  0  0
    7.0859  -14.9903   24.9081 C   0  0  2  0  0  0  0  0  0  0  0  0
    5.8999  -15.6417   25.5088 N   0  0  0  0  0  0  0  0  0  0  0  0
    8.1388  -16.0468   24.7988 C   0  0  0  0  0  0  0  0  0  0  0  0
    8.1142  -16.9495   25.6646 O   0  0  0  0  0  0  0  0  0  0  0  0
    9.1167  -16.0508   23.7854 N   0  0  0  0  0  0  0  0  0  0  0  0
   10.1828  -16.9892   23.5891 C   0  0  1  0  0  0  0  0  0  0  0  0
   10.8679  -16.8498   22.2787 C   0  0  0  0  0  0  0  0  0  0  0  0
   10.2634  -17.8662   21.2965 C   0  0  0  0  0  0  0  0  0  0  0  0
   10.9459  -17.6889   19.9732 C   0  0  0  0  0  0  0  0  0  0  0  0
   11.8811  -18.5004   19.6889 O   0  0  0  0  0  0  0  0  0  0  0  0
   11.0178  -17.3034   24.7535 C   0  0  0  0  0  0  0  0  0  0  0  0
   11.5264  -16.4270   25.4927 O   0  0  0  0  0  0  0  0  0  0  0  0
   10.6051  -16.7070   19.0810 O   0  0  0  0  0  0  0  0  0  0  0  0
   11.3186  -18.6569   25.1413 N   0  0  0  0  0  0  0  0  0  0  0  0
   12.0352  -18.9485   26.3701 C   0  0  1  0  0  0  0  0  0  0  0  0
   11.3722  -19.9381   27.2574 C   0  0  0  0  0  0  0  0  0  0  0  0
   12.1661  -20.3127   28.4401 C   0  0  0  0  0  0  0  0  0  0  0  0
   12.4698  -19.4282   29.2774 O   0  0  0  0  0  0  0  0  0  0  0  0
   13.3956  -19.4795   26.0001 C   0  0  0  0  0  0  0  0  0  0  0  0
   13.5880  -19.6907   24.7660 O   0  0  0  0  0  0  0  0  0  0  0  0
   12.6058  -21.6014   28.6928 O   0  0  0  0  0  0  0  0  0  0  0  0
   14.3945  -19.7380   26.8872 O   0  0  0  0  0  0  0  0  0  0  0  0
  2  1  1  1
  2  3  1  0
  4  2  1  0
  5  4  1  0
  5  6  1  1
  7  9  1  0
  7  5  1  0
  8  7  2  0
 10  9  1  0
 11 12  1  0
 10 11  1  6
 12 13  1  0
 13 14  2  0
 13 17  1  0
 15 16  2  0
 15 10  1  0
 18 15  1  0
 19 20  1  6
 19 18  1  0
 21 20  1  0
 21 25  1  0
 22 21  2  0
 23 19  1  0
 24 23  2  0
 26 23  1  0
M  END
$$$$
