LED.pdb
     RDKit          3D

 26 25  0  0  1  0  0  0  0  0999 V2000
    7.6683  -12.2532   24.8166 C   0  0  0  0  0  0  0  0  0  0  0  0
    7.5202  -13.3790   25.8344 C   0  0  1  0  0  0  0  0  0  0  0  0
    7.0251  -12.7053   27.1225 C   0  0  0  0  0  0  0  0  0  0  0  0
    6.4724  -14.3594   25.4483 C   0  0  0  0  0  0  0  0  0  0  0  0
    6.7364  -15.1843   24.2274 C   0  0  2  0  0  0  0  0  0  0  0  0
    5.6009  -16.1239   24.0878 N   0  0  0  0  0  0  0  0  0  0  0  0
    7.9711  -16.0233   24.3175 C   0  0  0  0  0  0  0  0  0  0  0  0
    7.9291  -16.9936   25.1061 O   0  0  0  0  0  0  0  0  0  0  0  0
    9.1324  -15.7593   23.5658 N   0  0  0  0  0  0  0  0  0  0  0  0
   10.3489  -16.5169   23.5226 C   0  0  1  0  0  0  0  0  0  0  0  0
   11.1371  -16.3114   22.2805 C   0  0  0  0  0  0  0  0  0  0  0  0
   12.3251  -17.2869   22.2841 C   0  0  0  0  0  0  0  0  0  0  0  0
   13.0785  -17.0989   21.0015 C   0  0  0  0  0  0  0  0  0  0  0  0
   12.7965  -17.8826   20.0422 O   0  0  0  0  0  0  0  0  0  0  0  0
   11.0961  -16.6512   24.7777 C   0  0  0  0  0  0  0  0  0  0  0  0
   11.2455  -15.7108   25.5941 O   0  0  0  0  0  0  0  0  0  0  0  0
   14.0370  -16.1353   20.8310 O   0  0  0  0  0  0  0  0  0  0  0  0
   11.7201  -17.8871   25.1726 N   0  0  0  0  0  0  0  0  0  0  0  0
   11.8935  -18.2315   26.5726 C   0  0  1  0  0  0  0  0  0  0  0  0
   10.6710  -18.7420   27.2441 C   0  0  0  0  0  0  0  0  0  0  0  0
   10.8904  -19.1987   28.6271 C   0  0  0  0  0  0  0  0  0  0  0  0
   11.2112  -20.3948   28.8321 O   0  0  0  0  0  0  0  0  0  0  0  0
   12.9613  -19.2906   26.6619 C   0  0  0  0  0  0  0  0  0  0  0  0
   13.0386  -20.0801   25.6743 O   0  0  0  0  0  0  0  0  0  0  0  0
   10.7644  -18.3782   29.7358 O   0  0  0  0  0  0  0  0  0  0  0  0
   13.8167  -19.4427   27.7091 O   0  0  0  0  0  0  0  0  0  0  0  0
  2  1  1  6
  2  3  1  0
  4  2  1  0
  5  4  1  0
  5  6  1  1
  7  9  1  0
  7  5  1  0
  8  7  2  0
 10  9  1  0
 11 12  1  0
 10 11  1  6
 12 13  1  0
 13 14  2  0
 13 17  1  0
 15 16  2  0
 15 10  1  0
 18 15  1  0
 19 20  1  6
 19 18  1  0
 21 20  1  0
 21 25  1  0
 22 21  2  0
 23 19  1  0
 24 23  2  0
 26 23  1  0
M  END
$$$$
