LED.pdb
     RDKit          3D

 26 25  0  0  1  0  0  0  0  0999 V2000
    7.7317  -11.5822   25.7282 C   0  0  0  0  0  0  0  0  0  0  0  0
    7.0876  -12.9637   25.6890 C   0  0  1  0  0  0  0  0  0  0  0  0
    5.6391  -12.7547   26.1539 C   0  0  0  0  0  0  0  0  0  0  0  0
    7.0071  -13.5139   24.3110 C   0  0  0  0  0  0  0  0  0  0  0  0
    8.2941  -13.9453   23.6798 C   0  0  2  0  0  0  0  0  0  0  0  0
    7.9726  -14.3886   22.3043 N   0  0  0  0  0  0  0  0  0  0  0  0
    8.9424  -15.1094   24.3589 C   0  0  0  0  0  0  0  0  0  0  0  0
    9.0534  -15.0376   25.6029 O   0  0  0  0  0  0  0  0  0  0  0  0
    9.4108  -16.2391   23.6606 N   0  0  0  0  0  0  0  0  0  0  0  0
   10.0814  -17.3905   24.1900 C   0  0  1  0  0  0  0  0  0  0  0  0
   10.6961  -18.2548   23.1501 C   0  0  0  0  0  0  0  0  0  0  0  0
   11.2796  -19.5039   23.8299 C   0  0  0  0  0  0  0  0  0  0  0  0
   11.9428  -20.3354   22.7729 C   0  0  0  0  0  0  0  0  0  0  0  0
   13.1872  -20.1570   22.5896 O   0  0  0  0  0  0  0  0  0  0  0  0
   10.8260  -17.2122   25.4411 C   0  0  0  0  0  0  0  0  0  0  0  0
   11.8808  -16.5386   25.5248 O   0  0  0  0  0  0  0  0  0  0  0  0
   11.2710  -21.2585   22.0160 O   0  0  0  0  0  0  0  0  0  0  0  0
   10.3965  -17.8021   26.6823 N   0  0  0  0  0  0  0  0  0  0  0  0
   11.2132  -17.7188   27.8801 C   0  0  1  0  0  0  0  0  0  0  0  0
   10.7103  -16.7763   28.9120 C   0  0  0  0  0  0  0  0  0  0  0  0
   11.4379  -15.4967   28.9640 C   0  0  0  0  0  0  0  0  0  0  0  0
   12.4666  -15.3496   28.2598 O   0  0  0  0  0  0  0  0  0  0  0  0
   11.2862  -19.0946   28.4895 C   0  0  0  0  0  0  0  0  0  0  0  0
   11.9940  -19.1977   29.5349 O   0  0  0  0  0  0  0  0  0  0  0  0
   11.0525  -14.4258   29.7532 O   0  0  0  0  0  0  0  0  0  0  0  0
   10.6575  -20.1957   27.9955 O   0  0  0  0  0  0  0  0  0  0  0  0
  2  1  1  6
  2  3  1  0
  4  2  1  0
  5  4  1  0
  5  6  1  6
  7  9  1  0
  7  5  1  0
  8  7  2  0
 10  9  1  0
 11 12  1  0
 10 11  1  6
 12 13  1  0
 13 14  2  0
 13 17  1  0
 15 16  2  0
 15 10  1  0
 18 15  1  0
 19 20  1  1
 19 18  1  0
 21 20  1  0
 21 25  1  0
 22 21  2  0
 23 19  1  0
 24 23  2  0
 26 23  1  0
M  END
$$$$
