PGD.pdb
     RDKit          3D

 20 20  0  0  1  0  0  0  0  0999 V2000
   18.9490  -10.6259  -16.3734 N   0  0  0  0  0  0  0  0  0  0  0  0
   18.9974  -12.0590  -16.6932 C   0  0  0  0  0  0  0  0  0  0  0  0
   19.2274  -12.1425  -18.1847 C   0  0  0  0  0  0  0  0  0  0  0  0
   19.2866  -10.6911  -18.6434 C   0  0  0  0  0  0  0  0  0  0  0  0
   19.7961  -10.0225  -17.3607 C   0  0  1  0  0  0  0  0  0  0  0  0
   19.6164   -8.5698  -17.4746 C   0  0  0  0  0  0  0  0  0  0  0  0
   20.3687   -7.8819  -18.1737 O   0  0  0  0  0  0  0  0  0  0  0  0
   18.5619   -7.8898  -16.7804 N   0  0  0  0  0  0  0  0  0  0  0  0
   18.3825   -6.4818  -16.9103 C   0  0  0  0  0  0  0  0  0  0  0  0
   19.0233   -5.6950  -15.8491 C   0  0  0  0  0  0  0  0  0  0  0  0
   18.4087   -4.8240  -15.1957 O   0  0  0  0  0  0  0  0  0  0  0  0
   20.3901   -5.9258  -15.5480 N   0  0  0  0  0  0  0  0  0  0  0  0
   21.0835   -5.2227  -14.4551 C   0  0  1  0  0  0  0  0  0  0  0  0
   22.0620   -6.1711  -13.8094 C   0  0  0  0  0  0  0  0  0  0  0  0
   21.3098   -7.2427  -13.1276 C   0  0  0  0  0  0  0  0  0  0  0  0
   20.2290   -7.0418  -12.5008 O   0  0  0  0  0  0  0  0  0  0  0  0
   21.7690   -4.0196  -14.9826 C   0  0  0  0  0  0  0  0  0  0  0  0
   21.8817   -3.7210  -16.1852 O   0  0  0  0  0  0  0  0  0  0  0  0
   21.8000   -8.5413  -13.1670 O   0  0  0  0  0  0  0  0  0  0  0  0
   22.3528   -3.1182  -14.0715 O   0  0  0  0  0  0  0  0  0  0  0  0
  1  2  1  0
  3  2  1  0
  4  3  1  0
  5  4  1  0
  5  1  1  0
  6  8  1  0
  5  6  1  6
  7  6  2  0
  9  8  1  0
 10  9  1  0
 10 11  2  0
 12 10  1  0
 13 12  1  0
 13 14  1  6
 14 15  1  0
 15 19  1  0
 15 16  2  0
 17 13  1  0
 18 17  2  0
 20 17  1  0
M  END
$$$$
