PGD.pdb
     RDKit          3D

 20 20  0  0  1  0  0  0  0  0999 V2000
   18.6658  -12.8652  -15.2756 N   0  0  0  0  0  0  0  0  0  0  0  0
   18.3223  -14.2475  -14.9159 C   0  0  0  0  0  0  0  0  0  0  0  0
   17.0139  -14.5432  -15.6125 C   0  0  0  0  0  0  0  0  0  0  0  0
   16.6729  -13.2531  -16.3472 C   0  0  0  0  0  0  0  0  0  0  0  0
   18.0813  -12.6900  -16.5733 C   0  0  1  0  0  0  0  0  0  0  0  0
   17.9744  -11.2834  -16.9801 C   0  0  0  0  0  0  0  0  0  0  0  0
   17.5142  -10.9662  -18.0826 O   0  0  0  0  0  0  0  0  0  0  0  0
   18.3989  -10.2204  -16.1162 N   0  0  0  0  0  0  0  0  0  0  0  0
   18.1765   -8.8559  -16.4628 C   0  0  0  0  0  0  0  0  0  0  0  0
   18.6568   -7.8964  -15.4605 C   0  0  0  0  0  0  0  0  0  0  0  0
   18.7747   -8.1921  -14.2514 O   0  0  0  0  0  0  0  0  0  0  0  0
   19.0018   -6.5834  -15.8714 N   0  0  0  0  0  0  0  0  0  0  0  0
   19.6705   -5.6285  -14.9710 C   0  0  1  0  0  0  0  0  0  0  0  0
   20.9918   -6.2115  -14.5374 C   0  0  0  0  0  0  0  0  0  0  0  0
   21.6064   -5.3129  -13.5405 C   0  0  0  0  0  0  0  0  0  0  0  0
   20.9387   -4.5166  -12.8183 O   0  0  0  0  0  0  0  0  0  0  0  0
   19.8558   -4.3295  -15.6593 C   0  0  0  0  0  0  0  0  0  0  0  0
   19.9692   -4.1724  -16.8883 O   0  0  0  0  0  0  0  0  0  0  0  0
   22.9850   -5.3307  -13.3753 O   0  0  0  0  0  0  0  0  0  0  0  0
   19.9126   -3.1545  -14.8849 O   0  0  0  0  0  0  0  0  0  0  0  0
  1  2  1  0
  3  2  1  0
  4  3  1  0
  5  4  1  0
  5  1  1  0
  6  8  1  0
  5  6  1  1
  7  6  2  0
  9  8  1  0
 10  9  1  0
 10 11  2  0
 12 10  1  0
 13 12  1  0
 13 14  1  6
 14 15  1  0
 15 19  1  0
 15 16  2  0
 17 13  1  0
 18 17  2  0
 20 17  1  0
M  END
$$$$
