PGD.pdb
     RDKit          3D

 20 20  0  0  1  0  0  0  0  0999 V2000
   19.7766  -12.8239  -18.0805 N   0  0  0  0  0  0  0  0  0  0  0  0
   19.6308  -14.1468  -18.7026 C   0  0  0  0  0  0  0  0  0  0  0  0
   19.5798  -13.8997  -20.1929 C   0  0  0  0  0  0  0  0  0  0  0  0
   19.6925  -12.3870  -20.3328 C   0  0  0  0  0  0  0  0  0  0  0  0
   20.4855  -12.0561  -19.0625 C   0  0  1  0  0  0  0  0  0  0  0  0
   20.4265  -10.6084  -18.8254 C   0  0  0  0  0  0  0  0  0  0  0  0
   21.0270   -9.8123  -19.5558 O   0  0  0  0  0  0  0  0  0  0  0  0
   19.6706  -10.0587  -17.7377 N   0  0  0  0  0  0  0  0  0  0  0  0
   19.5542   -8.6494  -17.5596 C   0  0  0  0  0  0  0  0  0  0  0  0
   20.3776   -8.1127  -16.4687 C   0  0  0  0  0  0  0  0  0  0  0  0
   20.8456   -8.8366  -15.5630 O   0  0  0  0  0  0  0  0  0  0  0  0
   20.6568   -6.7225  -16.4341 N   0  0  0  0  0  0  0  0  0  0  0  0
   21.5563   -6.1264  -15.4316 C   0  0  1  0  0  0  0  0  0  0  0  0
   21.8617   -4.7058  -15.8347 C   0  0  0  0  0  0  0  0  0  0  0  0
   22.6769   -4.0741  -14.7786 C   0  0  0  0  0  0  0  0  0  0  0  0
   23.9392   -3.9988  -14.8274 O   0  0  0  0  0  0  0  0  0  0  0  0
   20.9270   -6.1816  -14.0912 C   0  0  0  0  0  0  0  0  0  0  0  0
   21.5309   -6.1089  -13.0058 O   0  0  0  0  0  0  0  0  0  0  0  0
   22.0413   -3.5309  -13.6699 O   0  0  0  0  0  0  0  0  0  0  0  0
   19.5291   -6.3282  -14.0046 O   0  0  0  0  0  0  0  0  0  0  0  0
  1  2  1  0
  3  2  1  0
  4  3  1  0
  5  4  1  0
  5  1  1  0
  6  8  1  0
  5  6  1  1
  7  6  2  0
  9  8  1  0
 10  9  1  0
 10 11  2  0
 12 10  1  0
 13 12  1  0
 13 14  1  6
 14 15  1  0
 15 19  1  0
 15 16  2  0
 17 13  1  0
 18 17  2  0
 20 17  1  0
M  END
$$$$
