PGD.pdb
     RDKit          3D

 20 20  0  0  1  0  0  0  0  0999 V2000
   22.3749  -14.6862  -19.1681 N   0  0  0  0  0  0  0  0  0  0  0  0
   21.5111  -15.8745  -19.1559 C   0  0  0  0  0  0  0  0  0  0  0  0
   20.0951  -15.3577  -19.2672 C   0  0  0  0  0  0  0  0  0  0  0  0
   20.2454  -13.8430  -19.3266 C   0  0  0  0  0  0  0  0  0  0  0  0
   21.6420  -13.7340  -19.9507 C   0  0  1  0  0  0  0  0  0  0  0  0
   22.1276  -12.3567  -19.7989 C   0  0  0  0  0  0  0  0  0  0  0  0
   23.1648  -11.9760  -20.3529 O   0  0  0  0  0  0  0  0  0  0  0  0
   21.4192  -11.3974  -19.0024 N   0  0  0  0  0  0  0  0  0  0  0  0
   21.8832  -10.0553  -18.8800 C   0  0  0  0  0  0  0  0  0  0  0  0
   21.0625   -9.2149  -17.9990 C   0  0  0  0  0  0  0  0  0  0  0  0
   19.9639   -8.7385  -18.3588 O   0  0  0  0  0  0  0  0  0  0  0  0
   21.5264   -8.9283  -16.6895 N   0  0  0  0  0  0  0  0  0  0  0  0
   20.7038   -8.2043  -15.7054 C   0  0  1  0  0  0  0  0  0  0  0  0
   20.7159   -8.9675  -14.4049 C   0  0  0  0  0  0  0  0  0  0  0  0
   19.8950   -8.2406  -13.4166 C   0  0  0  0  0  0  0  0  0  0  0  0
   18.9750   -7.4331  -13.7375 O   0  0  0  0  0  0  0  0  0  0  0  0
   21.2237   -6.8284  -15.5263 C   0  0  0  0  0  0  0  0  0  0  0  0
   20.6532   -5.9157  -14.9020 O   0  0  0  0  0  0  0  0  0  0  0  0
   20.1321   -8.4425  -12.0634 O   0  0  0  0  0  0  0  0  0  0  0  0
   22.4661   -6.4936  -16.0988 O   0  0  0  0  0  0  0  0  0  0  0  0
  1  2  1  0
  3  2  1  0
  4  3  1  0
  5  4  1  0
  5  1  1  0
  6  8  1  0
  5  6  1  1
  7  6  2  0
  9  8  1  0
 10  9  1  0
 10 11  2  0
 12 10  1  0
 13 12  1  0
 13 14  1  1
 14 15  1  0
 15 19  1  0
 15 16  2  0
 17 13  1  0
 18 17  2  0
 20 17  1  0
M  END
$$$$
