PGD.pdb
     RDKit          3D

 20 20  0  0  1  0  0  0  0  0999 V2000
   17.6791  -12.7925  -16.2064 N   0  0  0  0  0  0  0  0  0  0  0  0
   17.4129  -14.2373  -16.2064 C   0  0  0  0  0  0  0  0  0  0  0  0
   18.6924  -14.8936  -16.6721 C   0  0  0  0  0  0  0  0  0  0  0  0
   19.6443  -13.7328  -16.9308 C   0  0  0  0  0  0  0  0  0  0  0  0
   19.0859  -12.6999  -15.9442 C   0  0  1  0  0  0  0  0  0  0  0  0
   19.6527  -11.3827  -16.2590 C   0  0  0  0  0  0  0  0  0  0  0  0
   20.8216  -11.1008  -15.9727 O   0  0  0  0  0  0  0  0  0  0  0  0
   18.8745  -10.3698  -16.9109 N   0  0  0  0  0  0  0  0  0  0  0  0
   19.4719   -9.1551  -17.3570 C   0  0  0  0  0  0  0  0  0  0  0  0
   19.5273   -8.1030  -16.3343 C   0  0  0  0  0  0  0  0  0  0  0  0
   18.5076   -7.6926  -15.7382 O   0  0  0  0  0  0  0  0  0  0  0  0
   20.7803   -7.5257  -16.0048 N   0  0  0  0  0  0  0  0  0  0  0  0
   20.9187   -6.4853  -14.9714 C   0  0  1  0  0  0  0  0  0  0  0  0
   22.3834   -6.2883  -14.6717 C   0  0  0  0  0  0  0  0  0  0  0  0
   22.5217   -5.2680  -13.6140 C   0  0  0  0  0  0  0  0  0  0  0  0
   22.3039   -5.5030  -12.3897 O   0  0  0  0  0  0  0  0  0  0  0  0
   20.2905   -5.2258  -15.4346 C   0  0  0  0  0  0  0  0  0  0  0  0
   20.3543   -4.7688  -16.5901 O   0  0  0  0  0  0  0  0  0  0  0  0
   22.9095   -3.9814  -13.9641 O   0  0  0  0  0  0  0  0  0  0  0  0
   19.5520   -4.4581  -14.5134 O   0  0  0  0  0  0  0  0  0  0  0  0
  1  2  1  0
  3  2  1  0
  4  3  1  0
  5  4  1  0
  5  1  1  0
  6  8  1  0
  5  6  1  6
  7  6  2  0
  9  8  1  0
 10  9  1  0
 10 11  2  0
 12 10  1  0
 13 12  1  0
 13 14  1  6
 14 15  1  0
 15 19  1  0
 15 16  2  0
 17 13  1  0
 18 17  2  0
 20 17  1  0
M  END
$$$$
