PGD.pdb
     RDKit          3D

 20 20  0  0  1  0  0  0  0  0999 V2000
   24.6652  -18.6617  -16.7028 N   0  0  0  0  0  0  0  0  0  0  0  0
   23.2971  -18.1680  -16.9094 C   0  0  0  0  0  0  0  0  0  0  0  0
   23.1620  -16.9445  -16.0322 C   0  0  0  0  0  0  0  0  0  0  0  0
   24.5144  -16.8184  -15.3425 C   0  0  0  0  0  0  0  0  0  0  0  0
   25.4160  -17.4802  -16.3918 C   0  0  1  0  0  0  0  0  0  0  0  0
   26.7245  -17.7622  -15.7886 C   0  0  0  0  0  0  0  0  0  0  0  0
   27.3893  -16.8706  -15.2491 O   0  0  0  0  0  0  0  0  0  0  0  0
   27.2848  -19.0822  -15.8004 N   0  0  0  0  0  0  0  0  0  0  0  0
   28.1482  -19.5253  -14.7565 C   0  0  0  0  0  0  0  0  0  0  0  0
   27.4526  -20.1722  -13.6369 C   0  0  0  0  0  0  0  0  0  0  0  0
   28.0641  -20.7079  -12.6868 O   0  0  0  0  0  0  0  0  0  0  0  0
   26.0344  -20.1944  -13.6253 N   0  0  0  0  0  0  0  0  0  0  0  0
   25.2682  -20.9157  -12.5946 C   0  0  1  0  0  0  0  0  0  0  0  0
   25.4014  -20.1802  -11.2850 C   0  0  0  0  0  0  0  0  0  0  0  0
   25.9025  -21.1167  -10.2598 C   0  0  0  0  0  0  0  0  0  0  0  0
   26.2386  -22.3099  -10.5143 O   0  0  0  0  0  0  0  0  0  0  0  0
   23.8492  -21.0286  -13.0060 C   0  0  0  0  0  0  0  0  0  0  0  0
   22.9878  -21.7298  -12.4452 O   0  0  0  0  0  0  0  0  0  0  0  0
   26.0164  -20.6813   -8.9462 O   0  0  0  0  0  0  0  0  0  0  0  0
   23.4067  -20.2928  -14.1223 O   0  0  0  0  0  0  0  0  0  0  0  0
  1  2  1  0
  3  2  1  0
  4  3  1  0
  5  4  1  0
  5  1  1  0
  6  8  1  0
  5  6  1  1
  7  6  2  0
  9  8  1  0
 10  9  1  0
 10 11  2  0
 12 10  1  0
 13 12  1  0
 13 14  1  1
 14 15  1  0
 15 19  1  0
 15 16  2  0
 17 13  1  0
 18 17  2  0
 20 17  1  0
M  END
$$$$
