PGD.pdb
     RDKit          3D

 20 20  0  0  1  0  0  0  0  0999 V2000
   25.6873  -10.9817  -17.4313 N   0  0  0  0  0  0  0  0  0  0  0  0
   27.1035  -11.2998  -17.6578 C   0  0  0  0  0  0  0  0  0  0  0  0
   27.7664  -11.2251  -16.3015 C   0  0  0  0  0  0  0  0  0  0  0  0
   26.6421  -10.8414  -15.3481 C   0  0  0  0  0  0  0  0  0  0  0  0
   25.4406  -11.4354  -16.0935 C   0  0  1  0  0  0  0  0  0  0  0  0
   24.2040  -10.8971  -15.5134 C   0  0  0  0  0  0  0  0  0  0  0  0
   23.9050  -11.1038  -14.3319 O   0  0  0  0  0  0  0  0  0  0  0  0
   23.2929  -10.1102  -16.2925 N   0  0  0  0  0  0  0  0  0  0  0  0
   22.0921   -9.5947  -15.7236 C   0  0  0  0  0  0  0  0  0  0  0  0
   22.2443   -8.2774  -15.0931 C   0  0  0  0  0  0  0  0  0  0  0  0
   22.3477   -8.1341  -13.8553 O   0  0  0  0  0  0  0  0  0  0  0  0
   22.2760   -7.1197  -15.9119 N   0  0  0  0  0  0  0  0  0  0  0  0
   22.4226   -5.7651  -15.3522 C   0  0  1  0  0  0  0  0  0  0  0  0
   22.7260   -4.8047  -16.4743 C   0  0  0  0  0  0  0  0  0  0  0  0
   22.8912   -3.4498  -15.9121 C   0  0  0  0  0  0  0  0  0  0  0  0
   23.1967   -3.2320  -14.7035 O   0  0  0  0  0  0  0  0  0  0  0  0
   21.1860   -5.3786  -14.6331 C   0  0  0  0  0  0  0  0  0  0  0  0
   21.1292   -4.6162  -13.6515 O   0  0  0  0  0  0  0  0  0  0  0  0
   22.7055   -2.3492  -16.7382 O   0  0  0  0  0  0  0  0  0  0  0  0
   19.9547   -5.9015  -15.0732 O   0  0  0  0  0  0  0  0  0  0  0  0
  1  2  1  0
  3  2  1  0
  4  3  1  0
  5  4  1  0
  5  1  1  0
  6  8  1  0
  5  6  1  1
  7  6  2  0
  9  8  1  0
 10  9  1  0
 10 11  2  0
 12 10  1  0
 13 12  1  0
 13 14  1  6
 14 15  1  0
 15 19  1  0
 15 16  2  0
 17 13  1  0
 18 17  2  0
 20 17  1  0
M  END
$$$$
