PGD.pdb
     RDKit          3D

 20 20  0  0  1  0  0  0  0  0999 V2000
   24.1115  -11.4974  -17.3125 N   0  0  0  0  0  0  0  0  0  0  0  0
   25.4442  -12.0173  -16.9781 C   0  0  0  0  0  0  0  0  0  0  0  0
   25.3653  -12.4600  -15.5350 C   0  0  0  0  0  0  0  0  0  0  0  0
   23.9361  -12.1408  -15.1156 C   0  0  0  0  0  0  0  0  0  0  0  0
   23.2261  -12.2483  -16.4707 C   0  0  1  0  0  0  0  0  0  0  0  0
   21.8871  -11.6568  -16.3573 C   0  0  0  0  0  0  0  0  0  0  0  0
   21.0383  -12.1291  -15.5930 O   0  0  0  0  0  0  0  0  0  0  0  0
   21.5092  -10.5078  -17.1277 N   0  0  0  0  0  0  0  0  0  0  0  0
   20.2216   -9.9142  -16.9820 C   0  0  0  0  0  0  0  0  0  0  0  0
   20.1737   -8.8173  -16.0071 C   0  0  0  0  0  0  0  0  0  0  0  0
   19.2847   -8.7363  -15.1317 O   0  0  0  0  0  0  0  0  0  0  0  0
   21.1694   -7.8081  -16.0538 N   0  0  0  0  0  0  0  0  0  0  0  0
   21.2174   -6.7059  -15.0778 C   0  0  1  0  0  0  0  0  0  0  0  0
   22.6480   -6.2557  -14.9217 C   0  0  0  0  0  0  0  0  0  0  0  0
   22.6874   -5.0977  -14.0070 C   0  0  0  0  0  0  0  0  0  0  0  0
   22.4990   -5.1917  -12.7591 O   0  0  0  0  0  0  0  0  0  0  0  0
   20.3496   -5.5929  -15.5291 C   0  0  0  0  0  0  0  0  0  0  0  0
   20.0774   -5.3229  -16.7128 O   0  0  0  0  0  0  0  0  0  0  0  0
   22.9428   -3.8357  -14.5269 O   0  0  0  0  0  0  0  0  0  0  0  0
   19.7686   -4.7513  -14.5609 O   0  0  0  0  0  0  0  0  0  0  0  0
  1  2  1  0
  3  2  1  0
  4  3  1  0
  5  4  1  0
  5  1  1  0
  6  8  1  0
  5  6  1  1
  7  6  2  0
  9  8  1  0
 10  9  1  0
 10 11  2  0
 12 10  1  0
 13 12  1  0
 13 14  1  6
 14 15  1  0
 15 19  1  0
 15 16  2  0
 17 13  1  0
 18 17  2  0
 20 17  1  0
M  END
$$$$
