VLE.pdb
     RDKit          3D

 25 24  0  0  1  0  0  0  0  0999 V2000
   12.3523  -20.5046   17.6372 C   0  0  0  0  0  0  0  0  0  0  0  0
   12.1789  -19.3201   18.6064 C   0  0  2  0  0  0  0  0  0  0  0  0
   11.6303  -19.9155   19.8816 C   0  0  0  0  0  0  0  0  0  0  0  0
   11.1907  -18.4003   17.9063 C   0  0  2  0  0  0  0  0  0  0  0  0
   11.7313  -18.0791   16.5722 N   0  0  0  0  0  0  0  0  0  0  0  0
   11.0099  -17.1011   18.5943 C   0  0  0  0  0  0  0  0  0  0  0  0
   11.9476  -16.2231   18.5989 O   0  0  0  0  0  0  0  0  0  0  0  0
    8.3583  -12.6202   20.3612 C   0  0  0  0  0  0  0  0  0  0  0  0
    7.9839  -13.9055   21.0443 C   0  0  1  0  0  0  0  0  0  0  0  0
    6.4567  -13.8314   21.2302 C   0  0  0  0  0  0  0  0  0  0  0  0
    8.2436  -15.1493   20.2770 C   0  0  0  0  0  0  0  0  0  0  0  0
    9.6646  -15.5125   20.0322 C   0  0  2  0  0  0  0  0  0  0  0  0
    9.8113  -16.7446   19.2800 N   0  0  0  0  0  0  0  0  0  0  0  0
   10.4382  -15.4813   21.2880 C   0  0  0  0  0  0  0  0  0  0  0  0
   10.4852  -14.4166   21.9937 O   0  0  0  0  0  0  0  0  0  0  0  0
   11.1627  -16.5845   21.8008 N   0  0  0  0  0  0  0  0  0  0  0  0
   11.8439  -16.5579   23.0795 C   0  0  1  0  0  0  0  0  0  0  0  0
   11.2420  -17.6023   24.0233 C   0  0  0  0  0  0  0  0  0  0  0  0
   11.9663  -17.6367   25.3352 C   0  0  0  0  0  0  0  0  0  0  0  0
   11.1873  -18.5064   26.2537 C   0  0  0  0  0  0  0  0  0  0  0  0
   10.5792  -19.5224   25.7987 O   0  0  0  0  0  0  0  0  0  0  0  0
   13.2410  -16.9668   22.8712 C   0  0  0  0  0  0  0  0  0  0  0  0
   14.1706  -16.7516   23.8693 O   0  0  0  0  0  0  0  0  0  0  0  0
   11.0799  -18.2715   27.6139 O   0  0  0  0  0  0  0  0  0  0  0  0
   13.6446  -17.5162   21.8017 O   0  0  0  0  0  0  0  0  0  0  0  0
  2  1  1  6
  2  4  1  0
  2  3  1  0
  4  6  1  0
  4  5  1  6
  6  7  2  0
  9  8  1  6
 10  9  1  0
 11  9  1  0
 12 11  1  1
 13  6  1  0
 13 12  1  0
 14 12  1  0
 14 15  2  0
 16 14  1  0
 17 18  1  1
 17 16  1  0
 19 18  1  0
 19 20  1  0
 20 21  2  0
 22 17  1  0
 23 22  1  0
 24 20  1  0
 25 22  2  0
M  END
$$$$
