VLE.pdb
     RDKit          3D

 25 24  0  0  1  0  0  0  0  0999 V2000
    9.2951  -20.6940   18.5629 C   0  0  0  0  0  0  0  0  0  0  0  0
    7.8090  -20.3594   18.3344 C   0  0  2  0  0  0  0  0  0  0  0  0
    7.2731  -21.4676   17.4590 C   0  0  0  0  0  0  0  0  0  0  0  0
    7.8287  -19.0079   17.6376 C   0  0  2  0  0  0  0  0  0  0  0  0
    8.6704  -19.1270   16.4324 N   0  0  0  0  0  0  0  0  0  0  0  0
    8.4407  -17.9351   18.4554 C   0  0  0  0  0  0  0  0  0  0  0  0
    9.7154  -17.7800   18.4893 O   0  0  0  0  0  0  0  0  0  0  0  0
    8.6288  -12.8699   20.7057 C   0  0  0  0  0  0  0  0  0  0  0  0
    7.8483  -13.9221   21.4423 C   0  0  1  0  0  0  0  0  0  0  0  0
    6.6241  -13.1851   22.0172 C   0  0  0  0  0  0  0  0  0  0  0  0
    7.3086  -15.0298   20.6148 C   0  0  0  0  0  0  0  0  0  0  0  0
    8.2735  -16.0590   20.1445 C   0  0  2  0  0  0  0  0  0  0  0  0
    7.6750  -17.0229   19.2400 N   0  0  0  0  0  0  0  0  0  0  0  0
    8.9876  -16.6681   21.2826 C   0  0  0  0  0  0  0  0  0  0  0  0
    8.8214  -17.9036   21.5653 O   0  0  0  0  0  0  0  0  0  0  0  0
    9.8852  -15.9662   22.1231 N   0  0  0  0  0  0  0  0  0  0  0  0
   10.8732  -16.6268   22.9520 C   0  0  1  0  0  0  0  0  0  0  0  0
   12.0981  -17.0076   22.1163 C   0  0  0  0  0  0  0  0  0  0  0  0
   12.2654  -18.4950   22.0362 C   0  0  0  0  0  0  0  0  0  0  0  0
   13.4237  -18.7678   21.1471 C   0  0  0  0  0  0  0  0  0  0  0  0
   13.2382  -19.3105   20.0156 O   0  0  0  0  0  0  0  0  0  0  0  0
   11.3574  -15.6658   23.9543 C   0  0  0  0  0  0  0  0  0  0  0  0
   11.7614  -16.1193   25.1944 O   0  0  0  0  0  0  0  0  0  0  0  0
   14.7301  -18.4585   21.4847 O   0  0  0  0  0  0  0  0  0  0  0  0
   11.4235  -14.4184   23.7354 O   0  0  0  0  0  0  0  0  0  0  0  0
  2  1  1  6
  2  4  1  0
  2  3  1  0
  4  6  1  0
  4  5  1  6
  6  7  2  0
  9  8  1  6
 10  9  1  0
 11  9  1  0
 12 11  1  1
 13  6  1  0
 13 12  1  0
 14 12  1  0
 14 15  2  0
 16 14  1  0
 17 18  1  6
 17 16  1  0
 19 18  1  0
 19 20  1  0
 20 21  2  0
 22 17  1  0
 23 22  1  0
 24 20  1  0
 25 22  2  0
M  END
$$$$
