VLE.pdb
     RDKit          3D

 25 24  0  0  1  0  0  0  0  0999 V2000
    7.1024  -14.3558   18.4925 C   0  0  0  0  0  0  0  0  0  0  0  0
    7.6732  -14.8300   19.8423 C   0  0  2  0  0  0  0  0  0  0  0  0
    6.7684  -15.9519   20.2943 C   0  0  0  0  0  0  0  0  0  0  0  0
    7.5932  -13.6039   20.7383 C   0  0  2  0  0  0  0  0  0  0  0  0
    8.4578  -12.5581   20.1602 N   0  0  0  0  0  0  0  0  0  0  0  0
    8.1060  -13.8432   22.1072 C   0  0  0  0  0  0  0  0  0  0  0  0
    9.3584  -14.0393   22.3155 O   0  0  0  0  0  0  0  0  0  0  0  0
    5.4157  -11.9550   26.7083 C   0  0  0  0  0  0  0  0  0  0  0  0
    6.4837  -12.3402   25.7234 C   0  0  1  0  0  0  0  0  0  0  0  0
    7.7560  -11.6207   26.2088 C   0  0  0  0  0  0  0  0  0  0  0  0
    6.8254  -13.7835   25.6662 C   0  0  0  0  0  0  0  0  0  0  0  0
    7.7444  -14.2218   24.5824 C   0  0  2  0  0  0  0  0  0  0  0  0
    7.2652  -13.8699   23.2588 N   0  0  0  0  0  0  0  0  0  0  0  0
    8.0929  -15.6472   24.7341 C   0  0  0  0  0  0  0  0  0  0  0  0
    7.1981  -16.5505   24.6029 O   0  0  0  0  0  0  0  0  0  0  0  0
    9.3966  -16.1185   25.0225 N   0  0  0  0  0  0  0  0  0  0  0  0
    9.7176  -17.5252   25.1560 C   0  0  1  0  0  0  0  0  0  0  0  0
   10.8072  -17.9183   24.1550 C   0  0  0  0  0  0  0  0  0  0  0  0
   11.9949  -17.0091   24.2533 C   0  0  0  0  0  0  0  0  0  0  0  0
   12.9907  -17.4635   23.2492 C   0  0  0  0  0  0  0  0  0  0  0  0
   13.2346  -18.7013   23.1158 O   0  0  0  0  0  0  0  0  0  0  0  0
   10.3015  -17.7451   26.4876 C   0  0  0  0  0  0  0  0  0  0  0  0
   10.5206  -16.6674   27.3226 O   0  0  0  0  0  0  0  0  0  0  0  0
   13.6896  -16.5971   22.4261 O   0  0  0  0  0  0  0  0  0  0  0  0
   10.6215  -18.8948   26.9170 O   0  0  0  0  0  0  0  0  0  0  0  0
  2  1  1  6
  2  4  1  0
  2  3  1  0
  4  6  1  0
  4  5  1  6
  6  7  2  0
  9  8  1  1
 10  9  1  0
 11  9  1  0
 12 11  1  1
 13  6  1  0
 13 12  1  0
 14 12  1  0
 14 15  2  0
 16 14  1  0
 17 18  1  6
 17 16  1  0
 19 18  1  0
 19 20  1  0
 20 21  2  0
 22 17  1  0
 23 22  1  0
 24 20  1  0
 25 22  2  0
M  END
$$$$
