VLE.pdb
     RDKit          3D

 25 24  0  0  1  0  0  0  0  0999 V2000
    7.1318  -13.3708   21.0294 C   0  0  0  0  0  0  0  0  0  0  0  0
    8.0423  -14.4017   20.3359 C   0  0  2  0  0  0  0  0  0  0  0  0
    7.2819  -14.8576   19.1131 C   0  0  0  0  0  0  0  0  0  0  0  0
    8.2222  -15.5028   21.3693 C   0  0  2  0  0  0  0  0  0  0  0  0
    6.8899  -16.0435   21.6978 N   0  0  0  0  0  0  0  0  0  0  0  0
    8.7905  -15.0192   22.6488 C   0  0  0  0  0  0  0  0  0  0  0  0
   10.0137  -14.6337   22.7212 O   0  0  0  0  0  0  0  0  0  0  0  0
    5.5056  -12.4927   26.6233 C   0  0  0  0  0  0  0  0  0  0  0  0
    6.6143  -12.8217   25.6634 C   0  0  1  0  0  0  0  0  0  0  0  0
    7.5340  -11.5863   25.6735 C   0  0  0  0  0  0  0  0  0  0  0  0
    7.4729  -13.9750   26.0323 C   0  0  0  0  0  0  0  0  0  0  0  0
    8.5483  -14.3543   25.0778 C   0  0  2  0  0  0  0  0  0  0  0  0
    8.0364  -14.9489   23.8573 N   0  0  0  0  0  0  0  0  0  0  0  0
    9.5849  -15.1614   25.7487 C   0  0  0  0  0  0  0  0  0  0  0  0
   10.1433  -14.7393   26.8183 O   0  0  0  0  0  0  0  0  0  0  0  0
   10.0298  -16.4237   25.2866 N   0  0  0  0  0  0  0  0  0  0  0  0
   11.0753  -17.1827   25.9428 C   0  0  1  0  0  0  0  0  0  0  0  0
   10.4682  -18.1531   26.9595 C   0  0  0  0  0  0  0  0  0  0  0  0
    9.5656  -19.1484   26.2951 C   0  0  0  0  0  0  0  0  0  0  0  0
    9.2003  -20.1690   27.3107 C   0  0  0  0  0  0  0  0  0  0  0  0
    9.5265  -21.3821   27.1338 O   0  0  0  0  0  0  0  0  0  0  0  0
   11.7410  -18.0240   24.9370 C   0  0  0  0  0  0  0  0  0  0  0  0
   12.8465  -18.7697   25.2953 O   0  0  0  0  0  0  0  0  0  0  0  0
    8.5065  -19.8717   28.4713 O   0  0  0  0  0  0  0  0  0  0  0  0
   11.3458  -18.1008   23.7343 O   0  0  0  0  0  0  0  0  0  0  0  0
  2  1  1  1
  2  4  1  0
  2  3  1  0
  4  6  1  0
  4  5  1  1
  6  7  2  0
  9  8  1  1
 10  9  1  0
 11  9  1  0
 12 11  1  1
 13  6  1  0
 13 12  1  0
 14 12  1  0
 14 15  2  0
 16 14  1  0
 17 18  1  1
 17 16  1  0
 19 18  1  0
 19 20  1  0
 20 21  2  0
 22 17  1  0
 23 22  1  0
 24 20  1  0
 25 22  2  0
M  END
$$$$
