VLE.pdb
     RDKit          3D

 25 24  0  0  1  0  0  0  0  0999 V2000
    7.6283  -17.2142   19.2131 C   0  0  0  0  0  0  0  0  0  0  0  0
    8.1513  -17.0718   20.6549 C   0  0  2  0  0  0  0  0  0  0  0  0
    7.3004  -17.9999   21.4892 C   0  0  0  0  0  0  0  0  0  0  0  0
    7.9368  -15.6045   20.9916 C   0  0  2  0  0  0  0  0  0  0  0  0
    8.7782  -14.7998   20.0861 N   0  0  0  0  0  0  0  0  0  0  0  0
    8.3638  -15.2493   22.3648 C   0  0  0  0  0  0  0  0  0  0  0  0
    9.6098  -15.1912   22.6718 O   0  0  0  0  0  0  0  0  0  0  0  0
    5.3026  -12.1590   26.1469 C   0  0  0  0  0  0  0  0  0  0  0  0
    6.4834  -12.7129   25.4000 C   0  0  1  0  0  0  0  0  0  0  0  0
    7.6991  -11.9337   25.9361 C   0  0  0  0  0  0  0  0  0  0  0  0
    6.7829  -14.1484   25.6296 C   0  0  0  0  0  0  0  0  0  0  0  0
    7.8481  -14.7625   24.7934 C   0  0  2  0  0  0  0  0  0  0  0  0
    7.4433  -14.9531   23.4131 N   0  0  0  0  0  0  0  0  0  0  0  0
    8.3830  -15.9788   25.4344 C   0  0  0  0  0  0  0  0  0  0  0  0
    7.6268  -16.9885   25.6404 O   0  0  0  0  0  0  0  0  0  0  0  0
    9.7265  -16.1278   25.8559 N   0  0  0  0  0  0  0  0  0  0  0  0
   10.2390  -17.3468   26.4485 C   0  0  1  0  0  0  0  0  0  0  0  0
   11.6535  -17.6317   25.9370 C   0  0  0  0  0  0  0  0  0  0  0  0
   11.6262  -18.3038   24.5974 C   0  0  0  0  0  0  0  0  0  0  0  0
   12.7741  -17.7826   23.8117 C   0  0  0  0  0  0  0  0  0  0  0  0
   13.9124  -17.6629   24.3586 O   0  0  0  0  0  0  0  0  0  0  0  0
   10.3736  -17.1388   27.8981 C   0  0  0  0  0  0  0  0  0  0  0  0
   10.8358  -18.1677   28.6946 O   0  0  0  0  0  0  0  0  0  0  0  0
   12.6775  -17.4084   22.4824 O   0  0  0  0  0  0  0  0  0  0  0  0
   10.0806  -16.0432   28.4658 O   0  0  0  0  0  0  0  0  0  0  0  0
  2  1  1  6
  2  4  1  0
  2  3  1  0
  4  6  1  0
  4  5  1  6
  6  7  2  0
  9  8  1  1
 10  9  1  0
 11  9  1  0
 12 11  1  1
 13  6  1  0
 13 12  1  0
 14 12  1  0
 14 15  2  0
 16 14  1  0
 17 18  1  6
 17 16  1  0
 19 18  1  0
 19 20  1  0
 20 21  2  0
 22 17  1  0
 23 22  1  0
 24 20  1  0
 25 22  2  0
M  END
$$$$
