VLE.pdb
     RDKit          3D

 25 24  0  0  1  0  0  0  0  0999 V2000
    9.1527  -20.4822   16.8257 C   0  0  0  0  0  0  0  0  0  0  0  0
    9.7212  -19.6173   17.9665 C   0  0  2  0  0  0  0  0  0  0  0  0
    9.2311  -20.2569   19.2441 C   0  0  0  0  0  0  0  0  0  0  0  0
    9.1283  -18.2377   17.7266 C   0  0  2  0  0  0  0  0  0  0  0  0
    9.5776  -17.7711   16.4016 N   0  0  0  0  0  0  0  0  0  0  0  0
    9.5981  -17.2207   18.6957 C   0  0  0  0  0  0  0  0  0  0  0  0
   10.8415  -16.9066   18.7685 O   0  0  0  0  0  0  0  0  0  0  0  0
    6.4184  -12.9608   20.4454 C   0  0  0  0  0  0  0  0  0  0  0  0
    7.6402  -13.7449   20.0564 C   0  0  1  0  0  0  0  0  0  0  0  0
    8.7398  -12.6899   19.8322 C   0  0  0  0  0  0  0  0  0  0  0  0
    8.1693  -14.6766   21.0836 C   0  0  0  0  0  0  0  0  0  0  0  0
    9.1953  -15.6596   20.6454 C   0  0  2  0  0  0  0  0  0  0  0  0
    8.7231  -16.5367   19.5904 N   0  0  0  0  0  0  0  0  0  0  0  0
    9.7697  -16.3705   21.8035 C   0  0  0  0  0  0  0  0  0  0  0  0
    9.1623  -17.3720   22.3152 O   0  0  0  0  0  0  0  0  0  0  0  0
   10.9954  -16.0212   22.4204 N   0  0  0  0  0  0  0  0  0  0  0  0
   11.5549  -16.7533   23.5387 C   0  0  1  0  0  0  0  0  0  0  0  0
   13.0367  -16.4090   23.7103 C   0  0  0  0  0  0  0  0  0  0  0  0
   13.8502  -16.8970   22.5498 C   0  0  0  0  0  0  0  0  0  0  0  0
   15.2453  -16.4289   22.7529 C   0  0  0  0  0  0  0  0  0  0  0  0
   16.2014  -17.0140   22.1589 O   0  0  0  0  0  0  0  0  0  0  0  0
   10.8943  -16.2974   24.7708 C   0  0  0  0  0  0  0  0  0  0  0  0
   11.2179  -16.8875   25.9765 O   0  0  0  0  0  0  0  0  0  0  0  0
   15.5777  -15.3641   23.5728 O   0  0  0  0  0  0  0  0  0  0  0  0
   10.0254  -15.3736   24.7839 O   0  0  0  0  0  0  0  0  0  0  0  0
  2  1  1  6
  2  4  1  0
  2  3  1  0
  4  6  1  0
  4  5  1  6
  6  7  2  0
  9  8  1  1
 10  9  1  0
 11  9  1  0
 12 11  1  1
 13  6  1  0
 13 12  1  0
 14 12  1  0
 14 15  2  0
 16 14  1  0
 17 18  1  1
 17 16  1  0
 19 18  1  0
 19 20  1  0
 20 21  2  0
 22 17  1  0
 23 22  1  0
 24 20  1  0
 25 22  2  0
M  END
$$$$
