FEM.pdb
     RDKit          3D

 29 29  0  0  1  0  0  0  0  0999 V2000
    6.1245  -18.2457   20.8358 N   0  0  0  0  0  0  0  0  0  0  0  0
    6.8813  -17.0353   21.0669 C   0  0  1  0  0  0  0  0  0  0  0  0
    5.9087  -15.9160   21.2971 C   0  0  0  0  0  0  0  0  0  0  0  0
    6.7027  -14.6590   21.2652 C   0  0  0  0  0  0  0  0  0  0  0  0
    6.9465  -13.9225   22.4048 C   0  0  0  0  0  0  0  0  0  0  0  0
    7.6847  -12.7487   22.3625 C   0  0  0  0  0  0  0  0  0  0  0  0
    8.2035  -12.2738   21.1803 C   0  0  0  0  0  0  0  0  0  0  0  0
    7.9728  -12.9922   20.0317 C   0  0  0  0  0  0  0  0  0  0  0  0
    7.2247  -14.1758   20.0905 C   0  0  0  0  0  0  0  0  0  0  0  0
    7.8180  -17.2593   22.1732 C   0  0  0  0  0  0  0  0  0  0  0  0
    7.3904  -17.5956   23.3320 O   0  0  0  0  0  0  0  0  0  0  0  0
    9.2315  -17.1328   22.0800 N   0  0  0  0  0  0  0  0  0  0  0  0
   10.1257  -17.3453   23.1981 C   0  0  1  0  0  0  0  0  0  0  0  0
   11.4982  -17.6736   22.7193 C   0  0  0  0  0  0  0  0  0  0  0  0
   12.1949  -16.6637   21.8894 C   0  0  0  0  0  0  0  0  0  0  0  0
   13.5290  -16.9722   21.4082 C   0  0  0  0  0  0  0  0  0  0  0  0
   13.7805  -18.0643   20.8452 O   0  0  0  0  0  0  0  0  0  0  0  0
   10.1330  -16.2790   24.1957 C   0  0  0  0  0  0  0  0  0  0  0  0
   10.6514  -15.1394   23.9886 O   0  0  0  0  0  0  0  0  0  0  0  0
   14.5622  -16.0617   21.5612 O   0  0  0  0  0  0  0  0  0  0  0  0
    6.5240  -11.3881   25.5335 C   0  0  0  0  0  0  0  0  0  0  0  0
    6.9160  -12.7464   26.6152 S   0  0  0  0  0  0  0  0  0  0  0  0
    8.3002  -13.7301   26.1065 C   0  0  0  0  0  0  0  0  0  0  0  0
    8.7017  -14.8144   27.0299 C   0  0  0  0  0  0  0  0  0  0  0  0
    9.8135  -15.6904   26.6226 C   0  0  2  0  0  0  0  0  0  0  0  0
    9.5342  -16.5095   25.4569 N   0  0  0  0  0  0  0  0  0  0  0  0
   10.4473  -16.4720   27.7256 C   0  0  0  0  0  0  0  0  0  0  0  0
   10.3932  -17.7353   27.6358 O   0  0  0  0  0  0  0  0  0  0  0  0
   11.0754  -15.9565   28.8192 O   0  0  0  0  0  0  0  0  0  0  0  0
  2  1  1  1
  3  4  1  0
  3  2  1  0
  4  5  2  0
  4  9  1  0
  5  6  1  0
  6  7  2  0
  8  7  1  0
  9  8  2  0
 10  2  1  0
 11 10  2  0
 12 10  1  0
 13 12  1  0
 13 18  1  0
 13 14  1  6
 15 16  1  0
 15 14  1  0
 16 20  1  0
 17 16  2  0
 18 26  1  0
 19 18  2  0
 21 22  1  0
 23 22  1  0
 24 23  1  0
 25 24  1  1
 25 27  1  0
 26 25  1  0
 27 28  2  0
 27 29  1  0
M  END
$$$$
