FEM.pdb
     RDKit          3D

 29 29  0  0  1  0  0  0  0  0999 V2000
    6.5253  -17.9434   21.2237 N   0  0  0  0  0  0  0  0  0  0  0  0
    7.0996  -16.8165   21.9247 C   0  0  1  0  0  0  0  0  0  0  0  0
    6.0743  -16.2982   22.8901 C   0  0  0  0  0  0  0  0  0  0  0  0
    6.6717  -15.0955   23.5289 C   0  0  0  0  0  0  0  0  0  0  0  0
    6.7940  -14.9826   24.8974 C   0  0  0  0  0  0  0  0  0  0  0  0
    7.3488  -13.8538   25.4826 C   0  0  0  0  0  0  0  0  0  0  0  0
    7.7998  -12.8022   24.7191 C   0  0  0  0  0  0  0  0  0  0  0  0
    7.6878  -12.8934   23.3525 C   0  0  0  0  0  0  0  0  0  0  0  0
    7.1246  -14.0399   22.7761 C   0  0  0  0  0  0  0  0  0  0  0  0
    8.3610  -17.2314   22.5476 C   0  0  0  0  0  0  0  0  0  0  0  0
    8.3806  -18.1683   23.4199 O   0  0  0  0  0  0  0  0  0  0  0  0
    9.6339  -16.6646   22.2623 N   0  0  0  0  0  0  0  0  0  0  0  0
   10.8605  -17.1029   22.8932 C   0  0  1  0  0  0  0  0  0  0  0  0
   12.0238  -16.8901   21.9865 C   0  0  0  0  0  0  0  0  0  0  0  0
   13.3579  -17.3132   22.4715 C   0  0  0  0  0  0  0  0  0  0  0  0
   14.4911  -17.1716   21.5757 C   0  0  0  0  0  0  0  0  0  0  0  0
   15.5387  -16.5864   21.9403 O   0  0  0  0  0  0  0  0  0  0  0  0
   11.0983  -16.5594   24.2274 C   0  0  0  0  0  0  0  0  0  0  0  0
   11.1718  -15.3154   24.4664 O   0  0  0  0  0  0  0  0  0  0  0  0
   14.4410  -17.6824   20.2886 O   0  0  0  0  0  0  0  0  0  0  0  0
    9.3689  -12.7455   28.0232 C   0  0  0  0  0  0  0  0  0  0  0  0
    9.2123  -14.2760   28.9185 S   0  0  0  0  0  0  0  0  0  0  0  0
   10.4086  -15.5140   28.4953 C   0  0  0  0  0  0  0  0  0  0  0  0
   10.4000  -15.9725   27.0885 C   0  0  0  0  0  0  0  0  0  0  0  0
   11.3824  -16.9953   26.6908 C   0  0  2  0  0  0  0  0  0  0  0  0
   11.2522  -17.4484   25.3177 N   0  0  0  0  0  0  0  0  0  0  0  0
   11.5468  -18.1290   27.6484 C   0  0  0  0  0  0  0  0  0  0  0  0
   11.1426  -19.2668   27.2625 O   0  0  0  0  0  0  0  0  0  0  0  0
   12.0873  -18.0558   28.8968 O   0  0  0  0  0  0  0  0  0  0  0  0
  2  1  1  1
  3  4  1  0
  3  2  1  0
  4  5  2  0
  4  9  1  0
  5  6  1  0
  6  7  2  0
  8  7  1  0
  9  8  2  0
 10  2  1  0
 11 10  2  0
 12 10  1  0
 13 12  1  0
 13 18  1  0
 13 14  1  6
 15 16  1  0
 15 14  1  0
 16 20  1  0
 17 16  2  0
 18 26  1  0
 19 18  2  0
 21 22  1  0
 23 22  1  0
 24 23  1  0
 25 24  1  1
 25 27  1  0
 26 25  1  0
 27 28  2  0
 27 29  1  0
M  END
$$$$
