FEM.pdb
     RDKit          3D

 29 29  0  0  1  0  0  0  0  0999 V2000
    6.6966  -16.6341   19.2109 N   0  0  0  0  0  0  0  0  0  0  0  0
    8.0696  -16.9994   19.4810 C   0  0  1  0  0  0  0  0  0  0  0  0
    8.9558  -15.9343   18.9046 C   0  0  0  0  0  0  0  0  0  0  0  0
    8.6987  -14.7025   19.6971 C   0  0  0  0  0  0  0  0  0  0  0  0
    7.7989  -13.7440   19.2819 C   0  0  0  0  0  0  0  0  0  0  0  0
    7.5705  -12.5964   20.0271 C   0  0  0  0  0  0  0  0  0  0  0  0
    8.2331  -12.3703   21.2112 C   0  0  0  0  0  0  0  0  0  0  0  0
    9.1346  -13.3128   21.6443 C   0  0  0  0  0  0  0  0  0  0  0  0
    9.3550  -14.4667   20.8802 C   0  0  0  0  0  0  0  0  0  0  0  0
    8.2354  -17.2085   20.9233 C   0  0  0  0  0  0  0  0  0  0  0  0
    7.3950  -16.7169   21.7546 O   0  0  0  0  0  0  0  0  0  0  0  0
    9.2956  -17.9438   21.5217 N   0  0  0  0  0  0  0  0  0  0  0  0
    9.3923  -18.1863   22.9454 C   0  0  1  0  0  0  0  0  0  0  0  0
   10.3385  -19.3029   23.2259 C   0  0  0  0  0  0  0  0  0  0  0  0
   10.5629  -19.6722   24.6426 C   0  0  0  0  0  0  0  0  0  0  0  0
   11.5298  -20.7141   24.9359 C   0  0  0  0  0  0  0  0  0  0  0  0
   12.7189  -20.6255   24.5470 O   0  0  0  0  0  0  0  0  0  0  0  0
    9.6807  -17.0062   23.7556 C   0  0  0  0  0  0  0  0  0  0  0  0
   10.6817  -16.2534   23.5524 O   0  0  0  0  0  0  0  0  0  0  0  0
   11.1591  -21.8381   25.6565 O   0  0  0  0  0  0  0  0  0  0  0  0
    5.5252  -12.3519   26.0459 C   0  0  0  0  0  0  0  0  0  0  0  0
    7.1786  -12.1667   26.6787 S   0  0  0  0  0  0  0  0  0  0  0  0
    8.0077  -13.6873   27.0571 C   0  0  0  0  0  0  0  0  0  0  0  0
    7.8630  -14.7720   26.0612 C   0  0  0  0  0  0  0  0  0  0  0  0
    9.0604  -15.5589   25.7201 C   0  0  2  0  0  0  0  0  0  0  0  0
    8.8102  -16.6696   24.8193 N   0  0  0  0  0  0  0  0  0  0  0  0
    9.9181  -15.9505   26.8779 C   0  0  0  0  0  0  0  0  0  0  0  0
    9.6666  -15.3956   27.9895 O   0  0  0  0  0  0  0  0  0  0  0  0
   10.9454  -16.8449   26.8520 O   0  0  0  0  0  0  0  0  0  0  0  0
  2  1  1  1
  3  4  1  0
  3  2  1  0
  4  5  2  0
  4  9  1  0
  5  6  1  0
  6  7  2  0
  8  7  1  0
  9  8  2  0
 10  2  1  0
 11 10  2  0
 12 10  1  0
 13 12  1  0
 13 18  1  0
 13 14  1  6
 15 16  1  0
 15 14  1  0
 16 20  1  0
 17 16  2  0
 18 26  1  0
 19 18  2  0
 21 22  1  0
 23 22  1  0
 24 23  1  0
 25 24  1  1
 25 27  1  0
 26 25  1  0
 27 28  2  0
 27 29  1  0
M  END
$$$$
