FEM.pdb
     RDKit          3D

 29 29  0  0  1  0  0  0  0  0999 V2000
    7.5258  -17.9549   18.2690 N   0  0  0  0  0  0  0  0  0  0  0  0
    7.9099  -16.7744   19.0109 C   0  0  1  0  0  0  0  0  0  0  0  0
    6.7319  -15.8456   19.0486 C   0  0  0  0  0  0  0  0  0  0  0  0
    7.1379  -14.6893   19.8910 C   0  0  0  0  0  0  0  0  0  0  0  0
    6.7795  -14.5942   21.2188 C   0  0  0  0  0  0  0  0  0  0  0  0
    7.1601  -13.5084   21.9939 C   0  0  0  0  0  0  0  0  0  0  0  0
    7.9116  -12.4836   21.4673 C   0  0  0  0  0  0  0  0  0  0  0  0
    8.2803  -12.5579   20.1456 C   0  0  0  0  0  0  0  0  0  0  0  0
    7.8876  -13.6608   19.3752 C   0  0  0  0  0  0  0  0  0  0  0  0
    8.4041  -17.1778   20.3316 C   0  0  0  0  0  0  0  0  0  0  0  0
    7.6597  -17.8459   21.1306 O   0  0  0  0  0  0  0  0  0  0  0  0
    9.6997  -16.8839   20.8396 N   0  0  0  0  0  0  0  0  0  0  0  0
   10.1461  -17.2776   22.1589 C   0  0  1  0  0  0  0  0  0  0  0  0
   11.5642  -17.7342   22.1200 C   0  0  0  0  0  0  0  0  0  0  0  0
   12.6127  -16.7017   21.9513 C   0  0  0  0  0  0  0  0  0  0  0  0
   13.9999  -17.1284   21.9319 C   0  0  0  0  0  0  0  0  0  0  0  0
   14.4022  -17.9943   21.1187 O   0  0  0  0  0  0  0  0  0  0  0  0
    9.9163  -16.2904   23.2099 C   0  0  0  0  0  0  0  0  0  0  0  0
   10.3066  -15.0858   23.1271 O   0  0  0  0  0  0  0  0  0  0  0  0
   14.9174  -16.5858   22.8172 O   0  0  0  0  0  0  0  0  0  0  0  0
    6.8392  -11.1817   27.0895 C   0  0  0  0  0  0  0  0  0  0  0  0
    7.6778  -12.3537   26.0448 S   0  0  0  0  0  0  0  0  0  0  0  0
    7.3147  -14.0543   26.3896 C   0  0  0  0  0  0  0  0  0  0  0  0
    7.6731  -15.0234   25.3303 C   0  0  0  0  0  0  0  0  0  0  0  0
    8.9414  -15.7591   25.4696 C   0  0  2  0  0  0  0  0  0  0  0  0
    9.2231  -16.6778   24.3812 N   0  0  0  0  0  0  0  0  0  0  0  0
    9.1771  -16.3772   26.8081 C   0  0  0  0  0  0  0  0  0  0  0  0
    9.0790  -17.6390   26.8808 O   0  0  0  0  0  0  0  0  0  0  0  0
    9.4851  -15.7140   27.9577 O   0  0  0  0  0  0  0  0  0  0  0  0
  2  1  1  6
  3  4  1  0
  3  2  1  0
  4  5  2  0
  4  9  1  0
  5  6  1  0
  6  7  2  0
  8  7  1  0
  9  8  2  0
 10  2  1  0
 11 10  2  0
 12 10  1  0
 13 12  1  0
 13 18  1  0
 13 14  1  6
 15 16  1  0
 15 14  1  0
 16 20  1  0
 17 16  2  0
 18 26  1  0
 19 18  2  0
 21 22  1  0
 23 22  1  0
 24 23  1  0
 25 24  1  1
 25 27  1  0
 26 25  1  0
 27 28  2  0
 27 29  1  0
M  END
$$$$
