FEM.pdb
     RDKit          3D

 29 29  0  0  1  0  0  0  0  0999 V2000
    6.0181  -16.6579   24.9713 N   0  0  0  0  0  0  0  0  0  0  0  0
    7.2745  -16.0425   24.6051 C   0  0  1  0  0  0  0  0  0  0  0  0
    7.7038  -15.1541   25.7358 C   0  0  0  0  0  0  0  0  0  0  0  0
    6.9557  -13.8792   25.5730 C   0  0  0  0  0  0  0  0  0  0  0  0
    5.8317  -13.5941   26.3187 C   0  0  0  0  0  0  0  0  0  0  0  0
    5.1390  -12.4033   26.1551 C   0  0  0  0  0  0  0  0  0  0  0  0
    5.5477  -11.4592   25.2419 C   0  0  0  0  0  0  0  0  0  0  0  0
    6.6659  -11.7226   24.4878 C   0  0  0  0  0  0  0  0  0  0  0  0
    7.3547  -12.9302   24.6641 C   0  0  0  0  0  0  0  0  0  0  0  0
    8.2399  -17.0916   24.2606 C   0  0  0  0  0  0  0  0  0  0  0  0
    8.1729  -18.2458   24.8103 O   0  0  0  0  0  0  0  0  0  0  0  0
    9.3008  -16.9448   23.3248 N   0  0  0  0  0  0  0  0  0  0  0  0
   10.5954  -17.5723   23.4834 C   0  0  1  0  0  0  0  0  0  0  0  0
   11.2438  -17.7833   22.1583 C   0  0  0  0  0  0  0  0  0  0  0  0
   10.7167  -17.0151   21.0068 C   0  0  0  0  0  0  0  0  0  0  0  0
   11.4607  -17.0481   19.7609 C   0  0  0  0  0  0  0  0  0  0  0  0
   11.1467  -17.8361   18.8371 O   0  0  0  0  0  0  0  0  0  0  0  0
   11.4891  -16.9153   24.4331 C   0  0  0  0  0  0  0  0  0  0  0  0
   11.5958  -15.6544   24.5264 O   0  0  0  0  0  0  0  0  0  0  0  0
   12.5420  -16.2047   19.5625 O   0  0  0  0  0  0  0  0  0  0  0  0
   11.0757  -14.4962   29.8176 C   0  0  0  0  0  0  0  0  0  0  0  0
   10.6923  -14.0888   28.1278 S   0  0  0  0  0  0  0  0  0  0  0  0
   11.3354  -15.2193   26.9231 C   0  0  0  0  0  0  0  0  0  0  0  0
   11.1918  -16.6576   27.2395 C   0  0  0  0  0  0  0  0  0  0  0  0
   12.2295  -17.5790   26.7461 C   0  0  2  0  0  0  0  0  0  0  0  0
   12.2775  -17.7078   25.3008 N   0  0  0  0  0  0  0  0  0  0  0  0
   12.2882  -18.9023   27.4351 C   0  0  0  0  0  0  0  0  0  0  0  0
   13.0997  -19.0076   28.4033 O   0  0  0  0  0  0  0  0  0  0  0  0
   11.5546  -20.0064   27.1206 O   0  0  0  0  0  0  0  0  0  0  0  0
  2  1  1  1
  3  4  1  0
  3  2  1  0
  4  5  2  0
  4  9  1  0
  5  6  1  0
  6  7  2  0
  8  7  1  0
  9  8  2  0
 10  2  1  0
 11 10  2  0
 12 10  1  0
 13 12  1  0
 13 18  1  0
 13 14  1  6
 15 16  1  0
 15 14  1  0
 16 20  1  0
 17 16  2  0
 18 26  1  0
 19 18  2  0
 21 22  1  0
 23 22  1  0
 24 23  1  0
 25 24  1  6
 25 27  1  0
 26 25  1  0
 27 28  2  0
 27 29  1  0
M  END
$$$$
