FEM.pdb
     RDKit          3D

 29 29  0  0  1  0  0  0  0  0999 V2000
    5.9040  -18.0228   23.7627 N   0  0  0  0  0  0  0  0  0  0  0  0
    6.8330  -16.9452   24.0218 C   0  0  1  0  0  0  0  0  0  0  0  0
    6.4635  -16.3186   25.3344 C   0  0  0  0  0  0  0  0  0  0  0  0
    6.7488  -14.8654   25.1990 C   0  0  0  0  0  0  0  0  0  0  0  0
    7.4465  -14.3573   24.1239 C   0  0  0  0  0  0  0  0  0  0  0  0
    7.7110  -13.0002   24.0104 C   0  0  0  0  0  0  0  0  0  0  0  0
    7.2862  -12.1075   24.9669 C   0  0  0  0  0  0  0  0  0  0  0  0
    6.5887  -12.5922   26.0472 C   0  0  0  0  0  0  0  0  0  0  0  0
    6.3299  -13.9657   26.1482 C   0  0  0  0  0  0  0  0  0  0  0  0
    8.2020  -17.4686   23.9661 C   0  0  0  0  0  0  0  0  0  0  0  0
    8.5647  -18.4295   24.7302 O   0  0  0  0  0  0  0  0  0  0  0  0
    9.2218  -16.9874   23.0993 N   0  0  0  0  0  0  0  0  0  0  0  0
   10.6248  -17.3001   23.2693 C   0  0  1  0  0  0  0  0  0  0  0  0
   11.4018  -16.9071   22.0599 C   0  0  0  0  0  0  0  0  0  0  0  0
   12.8601  -17.1664   22.0674 C   0  0  0  0  0  0  0  0  0  0  0  0
   13.5545  -17.2214   20.7941 C   0  0  0  0  0  0  0  0  0  0  0  0
   14.0215  -18.2991   20.3544 O   0  0  0  0  0  0  0  0  0  0  0  0
   11.2275  -16.7909   24.4980 C   0  0  0  0  0  0  0  0  0  0  0  0
   11.7302  -15.6298   24.5943 O   0  0  0  0  0  0  0  0  0  0  0  0
   13.7188  -16.0771   20.0302 O   0  0  0  0  0  0  0  0  0  0  0  0
    7.7810  -13.8183   28.7385 C   0  0  0  0  0  0  0  0  0  0  0  0
    9.5205  -14.1450   28.5494 S   0  0  0  0  0  0  0  0  0  0  0  0
    9.9098  -15.5808   27.5853 C   0  0  0  0  0  0  0  0  0  0  0  0
   11.3453  -15.8070   27.3063 C   0  0  0  0  0  0  0  0  0  0  0  0
   11.7682  -17.1662   26.9281 C   0  0  2  0  0  0  0  0  0  0  0  0
   11.2569  -17.6173   25.6464 N   0  0  0  0  0  0  0  0  0  0  0  0
   11.6182  -18.2010   27.9939 C   0  0  0  0  0  0  0  0  0  0  0  0
   10.8895  -19.2018   27.7210 O   0  0  0  0  0  0  0  0  0  0  0  0
   12.1880  -18.1704   29.2310 O   0  0  0  0  0  0  0  0  0  0  0  0
  2  1  1  1
  3  4  1  0
  3  2  1  0
  4  5  2  0
  4  9  1  0
  5  6  1  0
  6  7  2  0
  8  7  1  0
  9  8  2  0
 10  2  1  0
 11 10  2  0
 12 10  1  0
 13 12  1  0
 13 18  1  0
 13 14  1  6
 15 16  1  0
 15 14  1  0
 16 20  1  0
 17 16  2  0
 18 26  1  0
 19 18  2  0
 21 22  1  0
 23 22  1  0
 24 23  1  0
 25 24  1  1
 25 27  1  0
 26 25  1  0
 27 28  2  0
 27 29  1  0
M  END
$$$$
