FEM.pdb
     RDKit          3D

 29 29  0  0  1  0  0  0  0  0999 V2000
    5.8553  -16.9501   24.2776 N   0  0  0  0  0  0  0  0  0  0  0  0
    7.0651  -16.1579   24.2864 C   0  0  1  0  0  0  0  0  0  0  0  0
    7.1835  -15.5054   25.6326 C   0  0  0  0  0  0  0  0  0  0  0  0
    6.8712  -14.0659   25.4284 C   0  0  0  0  0  0  0  0  0  0  0  0
    7.5576  -13.2942   24.5153 C   0  0  0  0  0  0  0  0  0  0  0  0
    7.2608  -11.9508   24.3365 C   0  0  0  0  0  0  0  0  0  0  0  0
    6.2681  -11.3361   25.0638 C   0  0  0  0  0  0  0  0  0  0  0  0
    5.5708  -12.0866   25.9797 C   0  0  0  0  0  0  0  0  0  0  0  0
    5.8826  -13.4422   26.1494 C   0  0  0  0  0  0  0  0  0  0  0  0
    8.2011  -17.0134   23.9273 C   0  0  0  0  0  0  0  0  0  0  0  0
    8.3776  -18.1410   24.5073 O   0  0  0  0  0  0  0  0  0  0  0  0
    9.1791  -16.6962   22.9446 N   0  0  0  0  0  0  0  0  0  0  0  0
   10.5280  -17.2206   22.9650 C   0  0  1  0  0  0  0  0  0  0  0  0
   11.2464  -16.8739   21.7063 C   0  0  0  0  0  0  0  0  0  0  0  0
   12.6342  -17.3677   21.5504 C   0  0  0  0  0  0  0  0  0  0  0  0
   13.2994  -17.1565   20.2778 C   0  0  0  0  0  0  0  0  0  0  0  0
   13.8325  -16.0564   19.9977 O   0  0  0  0  0  0  0  0  0  0  0  0
   11.3062  -16.8797   24.1526 C   0  0  0  0  0  0  0  0  0  0  0  0
   11.8333  -15.7395   24.3324 O   0  0  0  0  0  0  0  0  0  0  0  0
   13.3608  -18.1719   19.3369 O   0  0  0  0  0  0  0  0  0  0  0  0
   10.5919  -14.3337   30.7639 C   0  0  0  0  0  0  0  0  0  0  0  0
   10.5971  -14.7198   29.0263 S   0  0  0  0  0  0  0  0  0  0  0  0
   10.8353  -16.4343   28.6434 C   0  0  0  0  0  0  0  0  0  0  0  0
   10.6482  -16.8161   27.2261 C   0  0  0  0  0  0  0  0  0  0  0  0
   11.7548  -17.5123   26.5479 C   0  0  2  0  0  0  0  0  0  0  0  0
   11.4873  -17.8543   25.1625 N   0  0  0  0  0  0  0  0  0  0  0  0
   12.3537  -18.6501   27.3069 C   0  0  0  0  0  0  0  0  0  0  0  0
   13.5012  -18.4605   27.8110 O   0  0  0  0  0  0  0  0  0  0  0  0
   11.7850  -19.8719   27.5067 O   0  0  0  0  0  0  0  0  0  0  0  0
  2  1  1  1
  3  4  1  0
  3  2  1  0
  4  5  2  0
  4  9  1  0
  5  6  1  0
  6  7  2  0
  8  7  1  0
  9  8  2  0
 10  2  1  0
 11 10  2  0
 12 10  1  0
 13 12  1  0
 13 18  1  0
 13 14  1  6
 15 16  1  0
 15 14  1  0
 16 20  1  0
 17 16  2  0
 18 26  1  0
 19 18  2  0
 21 22  1  0
 23 22  1  0
 24 23  1  0
 25 24  1  1
 25 27  1  0
 26 25  1  0
 27 28  2  0
 27 29  1  0
M  END
$$$$
