FEM.pdb
     RDKit          3D

 29 29  0  0  1  0  0  0  0  0999 V2000
    6.4248  -18.8885   22.2066 N   0  0  0  0  0  0  0  0  0  0  0  0
    6.9507  -17.6562   22.7509 C   0  0  1  0  0  0  0  0  0  0  0  0
    6.1761  -17.3292   23.9938 C   0  0  0  0  0  0  0  0  0  0  0  0
    6.6285  -15.9801   24.4258 C   0  0  0  0  0  0  0  0  0  0  0  0
    6.6296  -15.6022   25.7516 C   0  0  0  0  0  0  0  0  0  0  0  0
    7.0496  -14.3391   26.1426 C   0  0  0  0  0  0  0  0  0  0  0  0
    7.4826  -13.4137   25.2215 C   0  0  0  0  0  0  0  0  0  0  0  0
    7.4900  -13.7692   23.8940 C   0  0  0  0  0  0  0  0  0  0  0  0
    7.0622  -15.0486   23.5145 C   0  0  0  0  0  0  0  0  0  0  0  0
    8.3951  -17.8021   22.9597 C   0  0  0  0  0  0  0  0  0  0  0  0
    8.8633  -18.8057   23.6020 O   0  0  0  0  0  0  0  0  0  0  0  0
    9.3805  -16.8887   22.4934 N   0  0  0  0  0  0  0  0  0  0  0  0
   10.8032  -17.1009   22.6545 C   0  0  1  0  0  0  0  0  0  0  0  0
   11.5664  -16.3721   21.6023 C   0  0  0  0  0  0  0  0  0  0  0  0
   11.4808  -16.8833   20.2147 C   0  0  0  0  0  0  0  0  0  0  0  0
   12.6910  -17.3891   19.5932 C   0  0  0  0  0  0  0  0  0  0  0  0
   12.8230  -18.6067   19.3232 O   0  0  0  0  0  0  0  0  0  0  0  0
   11.3210  -16.8324   23.9931 C   0  0  0  0  0  0  0  0  0  0  0  0
   12.5603  -16.7551   24.2545 O   0  0  0  0  0  0  0  0  0  0  0  0
   13.7353  -16.5329   19.2825 O   0  0  0  0  0  0  0  0  0  0  0  0
   10.6956  -11.7417   27.8950 C   0  0  0  0  0  0  0  0  0  0  0  0
   10.1778  -13.1187   28.8971 S   0  0  0  0  0  0  0  0  0  0  0  0
   10.7327  -14.7043   28.3307 C   0  0  0  0  0  0  0  0  0  0  0  0
   10.3598  -15.0669   26.9454 C   0  0  0  0  0  0  0  0  0  0  0  0
   10.8382  -16.3561   26.4177 C   0  0  2  0  0  0  0  0  0  0  0  0
   10.4110  -16.6427   25.0601 N   0  0  0  0  0  0  0  0  0  0  0  0
   10.6558  -17.5255   27.3278 C   0  0  0  0  0  0  0  0  0  0  0  0
   11.2248  -17.4642   28.4590 O   0  0  0  0  0  0  0  0  0  0  0  0
    9.9385  -18.6517   27.0571 O   0  0  0  0  0  0  0  0  0  0  0  0
  2  1  1  1
  3  4  1  0
  3  2  1  0
  4  5  2  0
  4  9  1  0
  5  6  1  0
  6  7  2  0
  8  7  1  0
  9  8  2  0
 10  2  1  0
 11 10  2  0
 12 10  1  0
 13 12  1  0
 13 18  1  0
 13 14  1  6
 15 16  1  0
 15 14  1  0
 16 20  1  0
 17 16  2  0
 18 26  1  0
 19 18  2  0
 21 22  1  0
 23 22  1  0
 24 23  1  0
 25 24  1  1
 25 27  1  0
 26 25  1  0
 27 28  2  0
 27 29  1  0
M  END
$$$$
