FEM.pdb
     RDKit          3D

 29 29  0  0  1  0  0  0  0  0999 V2000
    5.8129  -18.4077   21.4899 N   0  0  0  0  0  0  0  0  0  0  0  0
    6.6193  -17.2088   21.4285 C   0  0  1  0  0  0  0  0  0  0  0  0
    5.7542  -16.0466   21.8194 C   0  0  0  0  0  0  0  0  0  0  0  0
    6.5603  -14.8224   21.5684 C   0  0  0  0  0  0  0  0  0  0  0  0
    6.9754  -14.4708   20.3016 C   0  0  0  0  0  0  0  0  0  0  0  0
    7.7311  -13.3287   20.0798 C   0  0  0  0  0  0  0  0  0  0  0  0
    8.0953  -12.5011   21.1165 C   0  0  0  0  0  0  0  0  0  0  0  0
    7.6921  -12.8323   22.3878 C   0  0  0  0  0  0  0  0  0  0  0  0
    6.9297  -13.9896   22.5960 C   0  0  0  0  0  0  0  0  0  0  0  0
    7.8082  -17.3870   22.2687 C   0  0  0  0  0  0  0  0  0  0  0  0
    7.7024  -17.8412   23.4609 O   0  0  0  0  0  0  0  0  0  0  0  0
    9.1397  -17.0886   21.8673 N   0  0  0  0  0  0  0  0  0  0  0  0
   10.2845  -17.2228   22.7426 C   0  0  1  0  0  0  0  0  0  0  0  0
   11.5537  -17.1093   21.9700 C   0  0  0  0  0  0  0  0  0  0  0  0
   12.8253  -17.2706   22.7124 C   0  0  0  0  0  0  0  0  0  0  0  0
   14.0692  -17.1965   21.9682 C   0  0  0  0  0  0  0  0  0  0  0  0
   15.1787  -17.2850   22.5462 O   0  0  0  0  0  0  0  0  0  0  0  0
   10.2744  -16.3492   23.9126 C   0  0  0  0  0  0  0  0  0  0  0  0
   10.5380  -15.1093   23.8545 O   0  0  0  0  0  0  0  0  0  0  0  0
   14.0595  -17.0247   20.5933 O   0  0  0  0  0  0  0  0  0  0  0  0
    7.5146  -11.1650   25.9610 C   0  0  0  0  0  0  0  0  0  0  0  0
    7.3602  -12.8853   26.3917 S   0  0  0  0  0  0  0  0  0  0  0  0
    8.8440  -13.8373   26.2054 C   0  0  0  0  0  0  0  0  0  0  0  0
    8.7492  -15.2676   26.5727 C   0  0  0  0  0  0  0  0  0  0  0  0
    9.9479  -16.1053   26.3971 C   0  0  2  0  0  0  0  0  0  0  0  0
    9.9533  -16.8943   25.1784 N   0  0  0  0  0  0  0  0  0  0  0  0
   10.3477  -16.9059   27.5922 C   0  0  0  0  0  0  0  0  0  0  0  0
   10.3620  -16.3020   28.7067 O   0  0  0  0  0  0  0  0  0  0  0  0
   10.7003  -18.2219   27.5979 O   0  0  0  0  0  0  0  0  0  0  0  0
  2  1  1  1
  3  4  1  0
  3  2  1  0
  4  5  2  0
  4  9  1  0
  5  6  1  0
  6  7  2  0
  8  7  1  0
  9  8  2  0
 10  2  1  0
 11 10  2  0
 12 10  1  0
 13 12  1  0
 13 18  1  0
 13 14  1  6
 15 16  1  0
 15 14  1  0
 16 20  1  0
 17 16  2  0
 18 26  1  0
 19 18  2  0
 21 22  1  0
 23 22  1  0
 24 23  1  0
 25 24  1  1
 25 27  1  0
 26 25  1  0
 27 28  2  0
 27 29  1  0
M  END
$$$$
