ACY.pdb
     RDKit          3D

 24 24  0  0  1  0  0  0  0  0999 V2000
   17.0071  -10.6578  -13.8939 C   0  0  0  0  0  0  0  0  0  0  0  0
   16.3215  -10.3090  -12.5864 C   0  0  2  0  0  0  0  0  0  0  0  0
   14.9962  -10.9103  -12.5843 N   0  0  0  0  0  0  0  0  0  0  0  0
   16.2368   -8.8320  -12.4262 C   0  0  0  0  0  0  0  0  0  0  0  0
   15.5432   -8.1492  -13.1960 O   0  0  0  0  0  0  0  0  0  0  0  0
   16.9559   -8.1996  -11.3831 N   0  0  0  0  0  0  0  0  0  0  0  0
   17.0026   -6.7884  -11.1747 C   0  0  1  0  0  0  0  0  0  0  0  0
   16.3399   -6.3825   -9.8672 C   0  0  0  0  0  0  0  0  0  0  0  0
   16.3954   -7.8692   -8.7915 S   0  0  0  0  0  0  0  0  0  0  0  0
   18.3848   -6.2508  -11.1257 C   0  0  0  0  0  0  0  0  0  0  0  0
   19.0975   -6.4602  -10.1069 O   0  0  0  0  0  0  0  0  0  0  0  0
   21.2700   -9.5002  -16.8088 O   0  0  0  0  0  0  0  0  0  0  0  0
   21.2678   -8.7075  -15.6584 C   0  0  0  0  0  0  0  0  0  0  0  0
   21.8228   -7.4481  -15.6376 C   0  0  0  0  0  0  0  0  0  0  0  0
   21.8269   -6.6557  -14.5081 C   0  0  0  0  0  0  0  0  0  0  0  0
   21.2628   -7.1037  -13.3286 C   0  0  0  0  0  0  0  0  0  0  0  0
   21.2779   -6.2646  -12.1373 C   0  0  0  0  0  0  0  0  0  0  0  0
   20.3776   -5.0823  -12.1689 C   0  0  2  0  0  0  0  0  0  0  0  0
   18.9715   -5.4965  -12.1791 N   0  0  0  0  0  0  0  0  0  0  0  0
   20.6847   -4.2362  -13.3407 C   0  0  0  0  0  0  0  0  0  0  0  0
   21.8870   -3.5127  -13.4097 O   0  0  0  0  0  0  0  0  0  0  0  0
   20.7045   -8.3773  -13.3597 C   0  0  0  0  0  0  0  0  0  0  0  0
   20.7039   -9.1600  -14.4872 C   0  0  0  0  0  0  0  0  0  0  0  0
   19.9018   -4.1330  -14.2981 O   0  0  0  0  0  0  0  0  0  0  0  0
  2  1  1  6
  2  4  1  0
  3  2  1  0
  4  6  1  0
  4  5  2  0
  6  7  1  0
  7 10  1  0
  7  8  1  1
  8  9  1  0
 10 11  2  0
 12 13  1  0
 13 23  2  0
 14 13  1  0
 14 15  2  0
 15 16  1  0
 16 22  2  0
 16 17  1  0
 18 17  1  6
 18 20  1  0
 19 10  1  0
 19 18  1  0
 20 21  1  0
 23 22  1  0
 24 20  2  0
M  END
$$$$
