ACY.pdb
     RDKit          3D

 24 24  0  0  1  0  0  0  0  0999 V2000
   24.1561  -13.0909  -19.8344 C   0  0  0  0  0  0  0  0  0  0  0  0
   25.1021  -13.4289  -18.6977 C   0  0  2  0  0  0  0  0  0  0  0  0
   25.0820  -14.8693  -18.4918 N   0  0  0  0  0  0  0  0  0  0  0  0
   24.6995  -12.7080  -17.4596 C   0  0  0  0  0  0  0  0  0  0  0  0
   23.6049  -12.9348  -16.9212 O   0  0  0  0  0  0  0  0  0  0  0  0
   25.5764  -11.7528  -16.8904 N   0  0  0  0  0  0  0  0  0  0  0  0
   25.2449  -10.9080  -15.7888 C   0  0  1  0  0  0  0  0  0  0  0  0
   26.4811  -10.4399  -15.0366 C   0  0  0  0  0  0  0  0  0  0  0  0
   27.6573   -9.8511  -16.3173 S   0  0  0  0  0  0  0  0  0  0  0  0
   24.5137   -9.6816  -16.1928 C   0  0  0  0  0  0  0  0  0  0  0  0
   24.8266   -9.0960  -17.2646 O   0  0  0  0  0  0  0  0  0  0  0  0
   18.0248  -12.4935  -15.6581 O   0  0  0  0  0  0  0  0  0  0  0  0
   18.9349  -11.4865  -15.9890 C   0  0  0  0  0  0  0  0  0  0  0  0
   20.0792  -11.7436  -16.7095 C   0  0  0  0  0  0  0  0  0  0  0  0
   20.9855  -10.7580  -17.0425 C   0  0  0  0  0  0  0  0  0  0  0  0
   20.7768   -9.4469  -16.6580 C   0  0  0  0  0  0  0  0  0  0  0  0
   21.7424   -8.4126  -17.0064 C   0  0  0  0  0  0  0  0  0  0  0  0
   22.6524   -7.9840  -15.9121 C   0  0  2  0  0  0  0  0  0  0  0  0
   23.4573   -9.1105  -15.4307 N   0  0  0  0  0  0  0  0  0  0  0  0
   21.8770   -7.3822  -14.8076 C   0  0  0  0  0  0  0  0  0  0  0  0
   21.1663   -6.1852  -14.9971 O   0  0  0  0  0  0  0  0  0  0  0  0
   19.6179   -9.1973  -15.9306 C   0  0  0  0  0  0  0  0  0  0  0  0
   18.7205  -10.1829  -15.6030 C   0  0  0  0  0  0  0  0  0  0  0  0
   21.8241   -7.9045  -13.6831 O   0  0  0  0  0  0  0  0  0  0  0  0
  2  1  1  6
  2  4  1  0
  3  2  1  0
  4  6  1  0
  4  5  2  0
  6  7  1  0
  7 10  1  0
  7  8  1  6
  8  9  1  0
 10 11  2  0
 12 13  1  0
 13 23  2  0
 14 13  1  0
 14 15  2  0
 15 16  1  0
 16 22  2  0
 16 17  1  0
 18 17  1  6
 18 20  1  0
 19 10  1  0
 19 18  1  0
 20 21  1  0
 23 22  1  0
 24 20  2  0
M  END
$$$$
