ACY.pdb
     RDKit          3D

 24 24  0  0  1  0  0  0  0  0999 V2000
   14.8748  -13.5979  -14.0007 C   0  0  0  0  0  0  0  0  0  0  0  0
   15.5936  -14.3139  -15.1284 C   0  0  2  0  0  0  0  0  0  0  0  0
   15.8997  -15.6691  -14.6952 N   0  0  0  0  0  0  0  0  0  0  0  0
   16.8340  -13.5797  -15.4980 C   0  0  0  0  0  0  0  0  0  0  0  0
   17.8766  -13.7247  -14.8410 O   0  0  0  0  0  0  0  0  0  0  0  0
   16.8235  -12.7062  -16.6125 N   0  0  0  0  0  0  0  0  0  0  0  0
   17.9719  -12.0225  -17.1134 C   0  0  1  0  0  0  0  0  0  0  0  0
   17.8286  -11.6697  -18.5860 C   0  0  0  0  0  0  0  0  0  0  0  0
   18.2656  -13.1924  -19.5137 S   0  0  0  0  0  0  0  0  0  0  0  0
   18.2485  -10.7485  -16.4047 C   0  0  0  0  0  0  0  0  0  0  0  0
   17.2866  -10.0309  -16.0180 O   0  0  0  0  0  0  0  0  0  0  0  0
   22.8556   -3.5352  -13.7167 O   0  0  0  0  0  0  0  0  0  0  0  0
   22.4634   -4.8189  -14.1039 C   0  0  0  0  0  0  0  0  0  0  0  0
   21.9449   -5.7261  -13.2080 C   0  0  0  0  0  0  0  0  0  0  0  0
   21.5541   -6.9966  -13.5780 C   0  0  0  0  0  0  0  0  0  0  0  0
   21.6701   -7.4178  -14.8892 C   0  0  0  0  0  0  0  0  0  0  0  0
   21.2628   -8.7638  -15.2713 C   0  0  0  0  0  0  0  0  0  0  0  0
   19.8194   -8.9385  -15.5798 C   0  0  2  0  0  0  0  0  0  0  0  0
   19.5599  -10.2734  -16.1268 N   0  0  0  0  0  0  0  0  0  0  0  0
   19.3656   -7.8895  -16.5164 C   0  0  0  0  0  0  0  0  0  0  0  0
   18.7097   -6.7400  -16.0452 O   0  0  0  0  0  0  0  0  0  0  0  0
   22.1950   -6.4940  -15.7869 C   0  0  0  0  0  0  0  0  0  0  0  0
   22.5816   -5.2316  -15.4117 C   0  0  0  0  0  0  0  0  0  0  0  0
   19.5440   -7.9822  -17.7410 O   0  0  0  0  0  0  0  0  0  0  0  0
  2  1  1  1
  2  4  1  0
  3  2  1  0
  4  6  1  0
  4  5  2  0
  6  7  1  0
  7 10  1  0
  7  8  1  6
  8  9  1  0
 10 11  2  0
 12 13  1  0
 13 23  2  0
 14 13  1  0
 14 15  2  0
 15 16  1  0
 16 22  2  0
 16 17  1  0
 18 17  1  6
 18 20  1  0
 19 10  1  0
 19 18  1  0
 20 21  1  0
 23 22  1  0
 24 20  2  0
M  END
$$$$
