ACY.pdb
     RDKit          3D

 24 24  0  0  1  0  0  0  0  0999 V2000
   22.9209   -3.6823  -15.5380 C   0  0  0  0  0  0  0  0  0  0  0  0
   21.5446   -3.9642  -14.9657 C   0  0  2  0  0  0  0  0  0  0  0  0
   21.6335   -3.9395  -13.5134 N   0  0  0  0  0  0  0  0  0  0  0  0
   21.0455   -5.2809  -15.4468 C   0  0  0  0  0  0  0  0  0  0  0  0
   21.2313   -5.6395  -16.6201 O   0  0  0  0  0  0  0  0  0  0  0  0
   20.3511   -6.1336  -14.5547 N   0  0  0  0  0  0  0  0  0  0  0  0
   20.2701   -7.5521  -14.6918 C   0  0  1  0  0  0  0  0  0  0  0  0
   21.6295   -8.2181  -14.5437 C   0  0  0  0  0  0  0  0  0  0  0  0
   21.3222  -10.0236  -14.6694 S   0  0  0  0  0  0  0  0  0  0  0  0
   19.3834   -8.1864  -13.6852 C   0  0  0  0  0  0  0  0  0  0  0  0
   19.7621   -8.2655  -12.4851 O   0  0  0  0  0  0  0  0  0  0  0  0
   12.2098  -10.6625   -9.1307 O   0  0  0  0  0  0  0  0  0  0  0  0
   13.1300  -10.1530  -10.0503 C   0  0  0  0  0  0  0  0  0  0  0  0
   14.2808   -9.5109   -9.6532 C   0  0  0  0  0  0  0  0  0  0  0  0
   15.1971   -9.0035  -10.5514 C   0  0  0  0  0  0  0  0  0  0  0  0
   14.9919   -9.1218  -11.9131 C   0  0  0  0  0  0  0  0  0  0  0  0
   15.9600   -8.5764  -12.8559 C   0  0  0  0  0  0  0  0  0  0  0  0
   17.2341   -9.3313  -12.9823 C   0  0  2  0  0  0  0  0  0  0  0  0
   18.1033   -8.7236  -13.9941 N   0  0  0  0  0  0  0  0  0  0  0  0
   16.9604  -10.7468  -13.3063 C   0  0  0  0  0  0  0  0  0  0  0  0
   16.9096  -11.1819  -14.6411 O   0  0  0  0  0  0  0  0  0  0  0  0
   13.8264   -9.7723  -12.3042 C   0  0  0  0  0  0  0  0  0  0  0  0
   12.9193  -10.2747  -11.4050 C   0  0  0  0  0  0  0  0  0  0  0  0
   16.7671  -11.5962  -12.4223 O   0  0  0  0  0  0  0  0  0  0  0  0
  2  1  1  6
  2  4  1  0
  3  2  1  0
  4  6  1  0
  4  5  2  0
  6  7  1  0
  7 10  1  0
  7  8  1  1
  8  9  1  0
 10 11  2  0
 12 13  1  0
 13 23  2  0
 14 13  1  0
 14 15  2  0
 15 16  1  0
 16 22  2  0
 16 17  1  0
 18 17  1  6
 18 20  1  0
 19 10  1  0
 19 18  1  0
 20 21  1  0
 23 22  1  0
 24 20  2  0
M  END
$$$$
