ACY.pdb
     RDKit          3D

 24 24  0  0  1  0  0  0  0  0999 V2000
   17.1001  -12.2547  -17.1365 C   0  0  0  0  0  0  0  0  0  0  0  0
   18.4065  -13.0251  -17.1039 C   0  0  2  0  0  0  0  0  0  0  0  0
   18.1403  -14.3663  -16.6057 N   0  0  0  0  0  0  0  0  0  0  0  0
   19.3977  -12.3240  -16.2434 C   0  0  0  0  0  0  0  0  0  0  0  0
   19.2016  -12.1961  -15.0248 O   0  0  0  0  0  0  0  0  0  0  0  0
   20.5777  -11.7975  -16.8227 N   0  0  0  0  0  0  0  0  0  0  0  0
   21.5458  -11.0205  -16.1182 C   0  0  1  0  0  0  0  0  0  0  0  0
   22.9663  -11.3513  -16.5496 C   0  0  0  0  0  0  0  0  0  0  0  0
   23.8996  -11.6771  -15.0026 S   0  0  0  0  0  0  0  0  0  0  0  0
   21.3793   -9.5596  -16.3177 C   0  0  0  0  0  0  0  0  0  0  0  0
   21.1621   -9.1111  -17.4759 O   0  0  0  0  0  0  0  0  0  0  0  0
   19.5268   -0.9721  -14.9118 O   0  0  0  0  0  0  0  0  0  0  0  0
   19.7873   -2.3379  -14.7755 C   0  0  0  0  0  0  0  0  0  0  0  0
   18.9858   -3.2960  -15.3537 C   0  0  0  0  0  0  0  0  0  0  0  0
   19.2324   -4.6476  -15.2264 C   0  0  0  0  0  0  0  0  0  0  0  0
   20.3156   -5.1028  -14.4986 C   0  0  0  0  0  0  0  0  0  0  0  0
   20.5654   -6.5319  -14.3618 C   0  0  0  0  0  0  0  0  0  0  0  0
   21.3074   -7.1678  -15.4817 C   0  0  2  0  0  0  0  0  0  0  0  0
   21.4506   -8.6099  -15.2614 N   0  0  0  0  0  0  0  0  0  0  0  0
   22.6288   -6.5280  -15.6489 C   0  0  0  0  0  0  0  0  0  0  0  0
   23.7812   -7.1008  -15.0855 O   0  0  0  0  0  0  0  0  0  0  0  0
   21.1194   -4.1271  -13.9185 C   0  0  0  0  0  0  0  0  0  0  0  0
   20.8680   -2.7841  -14.0494 C   0  0  0  0  0  0  0  0  0  0  0  0
   22.7701   -5.4723  -16.2859 O   0  0  0  0  0  0  0  0  0  0  0  0
  2  1  1  1
  2  4  1  0
  3  2  1  0
  4  6  1  0
  4  5  2  0
  6  7  1  0
  7 10  1  0
  7  8  1  6
  8  9  1  0
 10 11  2  0
 12 13  1  0
 13 23  2  0
 14 13  1  0
 14 15  2  0
 15 16  1  0
 16 22  2  0
 16 17  1  0
 18 17  1  1
 18 20  1  0
 19 10  1  0
 19 18  1  0
 20 21  1  0
 23 22  1  0
 24 20  2  0
M  END
$$$$
