ACY.pdb
     RDKit          3D

 24 24  0  0  1  0  0  0  0  0999 V2000
   16.4408  -12.2709  -16.5498 C   0  0  0  0  0  0  0  0  0  0  0  0
   17.4730  -13.1677  -17.2067 C   0  0  2  0  0  0  0  0  0  0  0  0
   17.1498  -14.5516  -16.8936 N   0  0  0  0  0  0  0  0  0  0  0  0
   18.8386  -12.8183  -16.7296 C   0  0  0  0  0  0  0  0  0  0  0  0
   19.0798  -12.7160  -15.5167 O   0  0  0  0  0  0  0  0  0  0  0  0
   19.8736  -12.6005  -17.6711 N   0  0  0  0  0  0  0  0  0  0  0  0
   21.1952  -12.1789  -17.3352 C   0  0  1  0  0  0  0  0  0  0  0  0
   22.2330  -12.7318  -18.2999 C   0  0  0  0  0  0  0  0  0  0  0  0
   23.8673  -12.3273  -17.5679 S   0  0  0  0  0  0  0  0  0  0  0  0
   21.3586  -10.7041  -17.3477 C   0  0  0  0  0  0  0  0  0  0  0  0
   20.9049  -10.0366  -18.3164 O   0  0  0  0  0  0  0  0  0  0  0  0
   22.4833   -2.3580  -14.4043 O   0  0  0  0  0  0  0  0  0  0  0  0
   22.5241   -3.7452  -14.5647 C   0  0  0  0  0  0  0  0  0  0  0  0
   21.5206   -4.5645  -14.0997 C   0  0  0  0  0  0  0  0  0  0  0  0
   21.5493   -5.9355  -14.2519 C   0  0  0  0  0  0  0  0  0  0  0  0
   22.6081   -6.5537  -14.8899 C   0  0  0  0  0  0  0  0  0  0  0  0
   22.6356   -8.0029  -15.0400 C   0  0  0  0  0  0  0  0  0  0  0  0
   22.1922   -8.5239  -16.3595 C   0  0  2  0  0  0  0  0  0  0  0  0
   22.0094   -9.9775  -16.3126 N   0  0  0  0  0  0  0  0  0  0  0  0
   23.1621   -8.1498  -17.4096 C   0  0  0  0  0  0  0  0  0  0  0  0
   22.9178   -7.0566  -18.2574 O   0  0  0  0  0  0  0  0  0  0  0  0
   23.6169   -5.7174  -15.3563 C   0  0  0  0  0  0  0  0  0  0  0  0
   23.5816   -4.3540  -15.2014 C   0  0  0  0  0  0  0  0  0  0  0  0
   24.2177   -8.7795  -17.5815 O   0  0  0  0  0  0  0  0  0  0  0  0
  2  1  1  1
  2  4  1  0
  3  2  1  0
  4  6  1  0
  4  5  2  0
  6  7  1  0
  7 10  1  0
  7  8  1  6
  8  9  1  0
 10 11  2  0
 12 13  1  0
 13 23  2  0
 14 13  1  0
 14 15  2  0
 15 16  1  0
 16 22  2  0
 16 17  1  0
 18 17  1  1
 18 20  1  0
 19 10  1  0
 19 18  1  0
 20 21  1  0
 23 22  1  0
 24 20  2  0
M  END
$$$$
