ACY.pdb
     RDKit          3D

 24 24  0  0  1  0  0  0  0  0999 V2000
   16.5740  -14.7216  -14.1546 C   0  0  0  0  0  0  0  0  0  0  0  0
   17.3980  -14.0711  -15.2497 C   0  0  2  0  0  0  0  0  0  0  0  0
   18.3760  -15.0366  -15.7282 N   0  0  0  0  0  0  0  0  0  0  0  0
   18.0669  -12.8461  -14.7334 C   0  0  0  0  0  0  0  0  0  0  0  0
   19.1119  -12.9262  -14.0692 O   0  0  0  0  0  0  0  0  0  0  0  0
   17.5038  -11.5754  -15.0041 N   0  0  0  0  0  0  0  0  0  0  0  0
   18.0975  -10.3327  -14.6292 C   0  0  1  0  0  0  0  0  0  0  0  0
   19.0624   -9.8193  -15.6869 C   0  0  0  0  0  0  0  0  0  0  0  0
   18.1566   -9.9091  -17.2812 S   0  0  0  0  0  0  0  0  0  0  0  0
   17.1034   -9.2525  -14.4125 C   0  0  0  0  0  0  0  0  0  0  0  0
   16.1285   -9.1370  -15.2038 O   0  0  0  0  0  0  0  0  0  0  0  0
   12.1185  -11.3868  -10.2927 O   0  0  0  0  0  0  0  0  0  0  0  0
   13.0063  -10.3670  -10.6445 C   0  0  0  0  0  0  0  0  0  0  0  0
   12.5768   -9.1849  -11.2037 C   0  0  0  0  0  0  0  0  0  0  0  0
   13.4434   -8.1705  -11.5553 C   0  0  0  0  0  0  0  0  0  0  0  0
   14.8047   -8.3033  -11.3564 C   0  0  0  0  0  0  0  0  0  0  0  0
   15.7148   -7.2309  -11.7376 C   0  0  0  0  0  0  0  0  0  0  0  0
   16.1887   -7.2564  -13.1461 C   0  0  2  0  0  0  0  0  0  0  0  0
   17.1812   -8.3167  -13.3442 N   0  0  0  0  0  0  0  0  0  0  0  0
   16.7437   -5.9400  -13.5234 C   0  0  0  0  0  0  0  0  0  0  0  0
   15.9162   -4.8076  -13.6051 O   0  0  0  0  0  0  0  0  0  0  0  0
   15.2287   -9.5011  -10.7907 C   0  0  0  0  0  0  0  0  0  0  0  0
   14.3607  -10.5060  -10.4432 C   0  0  0  0  0  0  0  0  0  0  0  0
   17.9481   -5.7853  -13.7797 O   0  0  0  0  0  0  0  0  0  0  0  0
  2  1  1  1
  2  4  1  0
  3  2  1  0
  4  6  1  0
  4  5  2  0
  6  7  1  0
  7 10  1  0
  7  8  1  6
  8  9  1  0
 10 11  2  0
 12 13  1  0
 13 23  2  0
 14 13  1  0
 14 15  2  0
 15 16  1  0
 16 22  2  0
 16 17  1  0
 18 17  1  1
 18 20  1  0
 19 10  1  0
 19 18  1  0
 20 21  1  0
 23 22  1  0
 24 20  2  0
M  END
$$$$
