ACY.pdb
     RDKit          3D

 24 24  0  0  1  0  0  0  0  0999 V2000
   16.8965  -10.2347  -17.6886 C   0  0  0  0  0  0  0  0  0  0  0  0
   18.1092  -11.1248  -17.4933 C   0  0  2  0  0  0  0  0  0  0  0  0
   17.6530  -12.4945  -17.3100 N   0  0  0  0  0  0  0  0  0  0  0  0
   18.9026  -10.6660  -16.3209 C   0  0  0  0  0  0  0  0  0  0  0  0
   18.6485  -11.0837  -15.1805 O   0  0  0  0  0  0  0  0  0  0  0  0
   19.9593   -9.7425  -16.5102 N   0  0  0  0  0  0  0  0  0  0  0  0
   20.7487   -9.1918  -15.4563 C   0  0  1  0  0  0  0  0  0  0  0  0
   22.0167   -9.9957  -15.2132 C   0  0  0  0  0  0  0  0  0  0  0  0
   22.8321  -10.1576  -16.8501 S   0  0  0  0  0  0  0  0  0  0  0  0
   21.1833   -7.7976  -15.7196 C   0  0  0  0  0  0  0  0  0  0  0  0
   21.6479   -7.4947  -16.8520 O   0  0  0  0  0  0  0  0  0  0  0  0
   21.7189    0.9904  -16.0592 O   0  0  0  0  0  0  0  0  0  0  0  0
   21.3939   -0.3476  -15.8228 C   0  0  0  0  0  0  0  0  0  0  0  0
   21.3076   -0.8650  -14.5502 C   0  0  0  0  0  0  0  0  0  0  0  0
   20.9876   -2.1843  -14.3039 C   0  0  0  0  0  0  0  0  0  0  0  0
   20.7361   -3.0569  -15.3458 C   0  0  0  0  0  0  0  0  0  0  0  0
   20.4066   -4.4509  -15.0783 C   0  0  0  0  0  0  0  0  0  0  0  0
   21.5588   -5.3884  -15.0272 C   0  0  2  0  0  0  0  0  0  0  0  0
   21.1079   -6.7561  -14.7540 N   0  0  0  0  0  0  0  0  0  0  0  0
   22.5354   -4.9443  -14.0111 C   0  0  0  0  0  0  0  0  0  0  0  0
   22.4042   -5.3361  -12.6684 O   0  0  0  0  0  0  0  0  0  0  0  0
   20.8256   -2.5247  -16.6277 C   0  0  0  0  0  0  0  0  0  0  0  0
   21.1444   -1.2109  -16.8653 C   0  0  0  0  0  0  0  0  0  0  0  0
   23.4979   -4.2165  -14.3009 O   0  0  0  0  0  0  0  0  0  0  0  0
  2  1  1  1
  2  4  1  0
  3  2  1  0
  4  6  1  0
  4  5  2  0
  6  7  1  0
  7 10  1  0
  7  8  1  6
  8  9  1  0
 10 11  2  0
 12 13  1  0
 13 23  2  0
 14 13  1  0
 14 15  2  0
 15 16  1  0
 16 22  2  0
 16 17  1  0
 18 17  1  1
 18 20  1  0
 19 10  1  0
 19 18  1  0
 20 21  1  0
 23 22  1  0
 24 20  2  0
M  END
$$$$
