LCH.pdb
     RDKit          3D

 25 25  0  0  1  0  0  0  0  0999 V2000
    9.2851  -12.5419   19.3861 C   0  0  0  0  0  0  0  0  0  0  0  0
    7.8778  -13.1187   19.5458 C   0  0  2  0  0  0  0  0  0  0  0  0
    7.0210  -12.0239   20.1258 C   0  0  0  0  0  0  0  0  0  0  0  0
    7.9374  -14.2399   20.5664 C   0  0  0  0  0  0  0  0  0  0  0  0
    8.8412  -15.3726   20.0959 C   0  0  2  0  0  0  0  0  0  0  0  0
    8.0699  -16.1438   19.1354 N   0  0  0  0  0  0  0  0  0  0  0  0
    9.1170  -16.2192   21.2809 C   0  0  0  0  0  0  0  0  0  0  0  0
    8.1851  -16.8961   21.7792 O   0  0  0  0  0  0  0  0  0  0  0  0
   10.3969  -16.3120   21.8978 N   0  0  0  0  0  0  0  0  0  0  0  0
   10.6107  -17.0915   23.0825 C   0  0  1  0  0  0  0  0  0  0  0  0
   12.0722  -17.5292   23.1559 C   0  0  0  0  0  0  0  0  0  0  0  0
   12.4039  -18.5897   21.7103 S   0  0  0  0  0  0  0  0  0  0  0  0
   10.2996  -16.3342   24.3265 C   0  0  0  0  0  0  0  0  0  0  0  0
   10.5012  -15.1112   24.4305 O   0  0  0  0  0  0  0  0  0  0  0  0
    9.7583  -17.0902   25.3896 N   0  0  0  0  0  0  0  0  0  0  0  0
    9.2857  -16.4377   26.6449 C   0  0  1  0  0  0  0  0  0  0  0  0
    7.8610  -16.1255   26.4161 C   0  0  0  0  0  0  0  0  0  0  0  0
    7.4628  -14.7276   26.3313 C   0  0  0  0  0  0  0  0  0  0  0  0
    8.2005  -13.5910   26.4015 C   0  0  0  0  0  0  0  0  0  0  0  0
    7.3686  -12.5177   26.1988 N   0  0  0  0  0  0  0  0  0  0  0  0
    6.1541  -13.0225   26.0104 C   0  0  0  0  0  0  0  0  0  0  0  0
    6.1885  -14.3431   26.0854 N   0  0  0  0  0  0  0  0  0  0  0  0
    9.5589  -17.3850   27.7609 C   0  0  0  0  0  0  0  0  0  0  0  0
    9.7415  -16.8526   29.0471 O   0  0  0  0  0  0  0  0  0  0  0  0
    9.6339  -18.6103   27.6305 O   0  0  0  0  0  0  0  0  0  0  0  0
  2  1  1  1
  2  3  1  0
  2  4  1  0
  5  4  1  0
  5  6  1  6
  5  7  1  0
  7  8  2  0
  9  7  1  0
  9 10  1  0
 10 13  1  0
 10 11  1  1
 12 11  1  0
 13 15  1  0
 13 14  2  0
 15 16  1  0
 16 23  1  0
 17 18  1  0
 16 17  1  6
 18 22  1  0
 18 19  2  0
 19 20  1  0
 21 20  1  0
 22 21  2  0
 23 25  2  0
 23 24  1  0
M  END
$$$$
