LCH.pdb
     RDKit          3D

 25 25  0  0  1  0  0  0  0  0999 V2000
    3.5841  -17.4205   20.5443 C   0  0  0  0  0  0  0  0  0  0  0  0
    4.4422  -18.5954   21.0154 C   0  0  2  0  0  0  0  0  0  0  0  0
    3.5049  -19.6001   21.6326 C   0  0  0  0  0  0  0  0  0  0  0  0
    5.3653  -18.0991   22.1126 C   0  0  0  0  0  0  0  0  0  0  0  0
    6.2704  -16.9797   21.6136 C   0  0  2  0  0  0  0  0  0  0  0  0
    7.0852  -17.5496   20.5537 N   0  0  0  0  0  0  0  0  0  0  0  0
    7.1497  -16.6045   22.7464 C   0  0  0  0  0  0  0  0  0  0  0  0
    8.2138  -17.2432   22.9323 O   0  0  0  0  0  0  0  0  0  0  0  0
    6.8543  -15.5454   23.6511 N   0  0  0  0  0  0  0  0  0  0  0  0
    7.6183  -15.3371   24.8469 C   0  0  1  0  0  0  0  0  0  0  0  0
    7.1675  -14.0473   25.5296 C   0  0  0  0  0  0  0  0  0  0  0  0
    6.7937  -12.8326   24.2224 S   0  0  0  0  0  0  0  0  0  0  0  0
    7.4599  -16.4490   25.8249 C   0  0  0  0  0  0  0  0  0  0  0  0
    6.3829  -17.0515   25.9806 O   0  0  0  0  0  0  0  0  0  0  0  0
    8.6116  -16.7825   26.5712 N   0  0  0  0  0  0  0  0  0  0  0  0
    8.7359  -18.0994   27.2608 C   0  0  1  0  0  0  0  0  0  0  0  0
    8.5476  -19.1166   26.2076 C   0  0  0  0  0  0  0  0  0  0  0  0
    8.7208  -20.5188   26.5594 C   0  0  0  0  0  0  0  0  0  0  0  0
    9.0024  -21.1045   27.7504 C   0  0  0  0  0  0  0  0  0  0  0  0
    8.9983  -22.4668   27.5785 N   0  0  0  0  0  0  0  0  0  0  0  0
    8.7154  -22.6762   26.2974 C   0  0  0  0  0  0  0  0  0  0  0  0
    8.5454  -21.5238   25.6698 N   0  0  0  0  0  0  0  0  0  0  0  0
   10.0640  -18.1179   27.9340 C   0  0  0  0  0  0  0  0  0  0  0  0
   10.1875  -18.8468   29.1275 O   0  0  0  0  0  0  0  0  0  0  0  0
   11.0666  -17.5351   27.5106 O   0  0  0  0  0  0  0  0  0  0  0  0
  2  1  1  1
  2  3  1  0
  2  4  1  0
  5  4  1  0
  5  6  1  6
  5  7  1  0
  7  8  2  0
  9  7  1  0
  9 10  1  0
 10 13  1  0
 10 11  1  1
 12 11  1  0
 13 15  1  0
 13 14  2  0
 15 16  1  0
 16 23  1  0
 17 18  1  0
 16 17  1  6
 18 22  1  0
 18 19  2  0
 19 20  1  0
 21 20  1  0
 22 21  2  0
 23 25  2  0
 23 24  1  0
M  END
$$$$
