LCH.pdb
     RDKit          3D

 25 25  0  0  1  0  0  0  0  0999 V2000
    9.4115  -12.4356   19.4273 C   0  0  0  0  0  0  0  0  0  0  0  0
    8.0793  -13.1555   19.2145 C   0  0  2  0  0  0  0  0  0  0  0  0
    6.9917  -12.1662   19.5424 C   0  0  0  0  0  0  0  0  0  0  0  0
    7.9850  -14.2869   20.2212 C   0  0  0  0  0  0  0  0  0  0  0  0
    9.0302  -15.3615   19.9494 C   0  0  2  0  0  0  0  0  0  0  0  0
    8.5526  -16.1218   18.8065 N   0  0  0  0  0  0  0  0  0  0  0  0
    9.0529  -16.2457   21.1389 C   0  0  0  0  0  0  0  0  0  0  0  0
    8.5222  -17.3806   21.0676 O   0  0  0  0  0  0  0  0  0  0  0  0
    9.6507  -15.8782   22.3778 N   0  0  0  0  0  0  0  0  0  0  0  0
    9.7362  -16.7950   23.4775 C   0  0  1  0  0  0  0  0  0  0  0  0
   10.6306  -17.9737   23.0987 C   0  0  0  0  0  0  0  0  0  0  0  0
   12.2806  -17.3086   22.6996 S   0  0  0  0  0  0  0  0  0  0  0  0
   10.3068  -16.1655   24.7007 C   0  0  0  0  0  0  0  0  0  0  0  0
   10.8433  -15.0435   24.6847 O   0  0  0  0  0  0  0  0  0  0  0  0
   10.2030  -16.9218   25.8890 N   0  0  0  0  0  0  0  0  0  0  0  0
    9.5198  -16.3782   27.0984 C   0  0  1  0  0  0  0  0  0  0  0  0
    8.1675  -15.9927   26.6489 C   0  0  0  0  0  0  0  0  0  0  0  0
    7.8437  -14.5758   26.5620 C   0  0  0  0  0  0  0  0  0  0  0  0
    8.5700  -13.4795   26.8960 C   0  0  0  0  0  0  0  0  0  0  0  0
    7.8486  -12.3599   26.5625 N   0  0  0  0  0  0  0  0  0  0  0  0
    6.7098  -12.7978   26.0365 C   0  0  0  0  0  0  0  0  0  0  0  0
    6.6868  -14.1208   26.0266 N   0  0  0  0  0  0  0  0  0  0  0  0
    9.5657  -17.4395   28.1419 C   0  0  0  0  0  0  0  0  0  0  0  0
    9.9274  -17.0661   29.4460 O   0  0  0  0  0  0  0  0  0  0  0  0
    9.3045  -18.6285   27.9366 O   0  0  0  0  0  0  0  0  0  0  0  0
  2  1  1  1
  2  3  1  0
  2  4  1  0
  5  4  1  0
  5  6  1  6
  5  7  1  0
  7  8  2  0
  9  7  1  0
  9 10  1  0
 10 13  1  0
 10 11  1  6
 12 11  1  0
 13 15  1  0
 13 14  2  0
 15 16  1  0
 16 23  1  0
 17 18  1  0
 16 17  1  6
 18 22  1  0
 18 19  2  0
 19 20  1  0
 21 20  1  0
 22 21  2  0
 23 25  2  0
 23 24  1  0
M  END
$$$$
