LCH.pdb
     RDKit          3D

 25 25  0  0  1  0  0  0  0  0999 V2000
    5.6084  -14.9946   19.7990 C   0  0  0  0  0  0  0  0  0  0  0  0
    6.7897  -15.9636   19.8638 C   0  0  2  0  0  0  0  0  0  0  0  0
    6.2275  -17.3493   19.6828 C   0  0  0  0  0  0  0  0  0  0  0  0
    7.3863  -15.8921   21.2571 C   0  0  0  0  0  0  0  0  0  0  0  0
    7.8258  -14.4746   21.6017 C   0  0  2  0  0  0  0  0  0  0  0  0
    8.8735  -14.1264   20.6566 N   0  0  0  0  0  0  0  0  0  0  0  0
    8.4062  -14.5269   22.9646 C   0  0  0  0  0  0  0  0  0  0  0  0
    9.5866  -14.9267   23.1117 O   0  0  0  0  0  0  0  0  0  0  0  0
    7.6930  -14.1442   24.1360 N   0  0  0  0  0  0  0  0  0  0  0  0
    8.2372  -14.3357   25.4490 C   0  0  1  0  0  0  0  0  0  0  0  0
    7.2908  -13.7437   26.4916 C   0  0  0  0  0  0  0  0  0  0  0  0
    7.1154  -11.9651   26.1309 S   0  0  0  0  0  0  0  0  0  0  0  0
    8.4353  -15.7743   25.7793 C   0  0  0  0  0  0  0  0  0  0  0  0
    7.5314  -16.6188   25.6491 O   0  0  0  0  0  0  0  0  0  0  0  0
    9.7184  -16.1273   26.2524 N   0  0  0  0  0  0  0  0  0  0  0  0
   10.0664  -17.5422   26.5718 C   0  0  1  0  0  0  0  0  0  0  0  0
   11.3135  -17.8193   25.8319 C   0  0  0  0  0  0  0  0  0  0  0  0
   11.2449  -17.9532   24.3837 C   0  0  0  0  0  0  0  0  0  0  0  0
   10.2000  -18.2488   23.5703 C   0  0  0  0  0  0  0  0  0  0  0  0
   10.6309  -18.1915   22.2679 N   0  0  0  0  0  0  0  0  0  0  0  0
   11.9175  -17.8638   22.3190 C   0  0  0  0  0  0  0  0  0  0  0  0
   12.3047  -17.7162   23.5756 N   0  0  0  0  0  0  0  0  0  0  0  0
   10.1690  -17.6445   28.0538 C   0  0  0  0  0  0  0  0  0  0  0  0
   10.1750  -16.4537   28.7975 O   0  0  0  0  0  0  0  0  0  0  0  0
   10.2476  -18.7092   28.6737 O   0  0  0  0  0  0  0  0  0  0  0  0
  2  1  1  1
  2  3  1  0
  2  4  1  0
  5  4  1  0
  5  6  1  6
  5  7  1  0
  7  8  2  0
  9  7  1  0
  9 10  1  0
 10 13  1  0
 10 11  1  1
 12 11  1  0
 13 15  1  0
 13 14  2  0
 15 16  1  0
 16 23  1  0
 17 18  1  0
 16 17  1  6
 18 22  1  0
 18 19  2  0
 19 20  1  0
 21 20  1  0
 22 21  2  0
 23 25  2  0
 23 24  1  0
M  END
$$$$
