LCH.pdb
     RDKit          3D

 25 25  0  0  1  0  0  0  0  0999 V2000
    7.8732  -12.5360   19.3690 C   0  0  0  0  0  0  0  0  0  0  0  0
    7.8703  -14.0547   19.5487 C   0  0  2  0  0  0  0  0  0  0  0  0
    6.5614  -14.5565   18.9973 C   0  0  0  0  0  0  0  0  0  0  0  0
    7.8844  -14.3568   21.0356 C   0  0  0  0  0  0  0  0  0  0  0  0
    9.1336  -13.7973   21.7047 C   0  0  2  0  0  0  0  0  0  0  0  0
   10.2681  -14.3117   20.9560 N   0  0  0  0  0  0  0  0  0  0  0  0
    9.1701  -14.3570   23.0768 C   0  0  0  0  0  0  0  0  0  0  0  0
   10.0132  -15.2445   23.3531 O   0  0  0  0  0  0  0  0  0  0  0  0
    8.2915  -13.9409   24.1171 N   0  0  0  0  0  0  0  0  0  0  0  0
    8.3687  -14.4935   25.4383 C   0  0  1  0  0  0  0  0  0  0  0  0
    7.3474  -13.8092   26.3448 C   0  0  0  0  0  0  0  0  0  0  0  0
    5.6889  -14.1731   25.6807 S   0  0  0  0  0  0  0  0  0  0  0  0
    8.0893  -15.9562   25.4611 C   0  0  0  0  0  0  0  0  0  0  0  0
    7.4289  -16.5227   24.5722 O   0  0  0  0  0  0  0  0  0  0  0  0
    8.6213  -16.6685   26.5585 N   0  0  0  0  0  0  0  0  0  0  0  0
    9.0319  -18.0970   26.4319 C   0  0  1  0  0  0  0  0  0  0  0  0
    9.9463  -18.1444   25.2739 C   0  0  0  0  0  0  0  0  0  0  0  0
    9.4003  -18.5082   23.9741 C   0  0  0  0  0  0  0  0  0  0  0  0
    8.1311  -18.8077   23.5992 C   0  0  0  0  0  0  0  0  0  0  0  0
    8.1154  -19.0200   22.2428 N   0  0  0  0  0  0  0  0  0  0  0  0
    9.3652  -18.8448   21.8273 C   0  0  0  0  0  0  0  0  0  0  0  0
   10.1500  -18.5377   22.8474 N   0  0  0  0  0  0  0  0  0  0  0  0
    9.6323  -18.4975   27.7344 C   0  0  0  0  0  0  0  0  0  0  0  0
    9.7505  -17.5189   28.7341 O   0  0  0  0  0  0  0  0  0  0  0  0
   10.0324  -19.6359   27.9950 O   0  0  0  0  0  0  0  0  0  0  0  0
  2  1  1  1
  2  3  1  0
  2  4  1  0
  5  4  1  0
  5  6  1  6
  5  7  1  0
  7  8  2  0
  9  7  1  0
  9 10  1  0
 10 13  1  0
 10 11  1  1
 12 11  1  0
 13 15  1  0
 13 14  2  0
 15 16  1  0
 16 23  1  0
 17 18  1  0
 16 17  1  6
 18 22  1  0
 18 19  2  0
 19 20  1  0
 21 20  1  0
 22 21  2  0
 23 25  2  0
 23 24  1  0
M  END
$$$$
