LCH.pdb
     RDKit          3D

 25 25  0  0  1  0  0  0  0  0999 V2000
    7.9074  -14.6915   18.3869 C   0  0  0  0  0  0  0  0  0  0  0  0
    7.6034  -13.7332   19.5392 C   0  0  2  0  0  0  0  0  0  0  0  0
    7.8065  -12.3373   19.0107 C   0  0  0  0  0  0  0  0  0  0  0  0
    8.6325  -13.9616   20.6306 C   0  0  0  0  0  0  0  0  0  0  0  0
    8.2718  -15.1656   21.4917 C   0  0  2  0  0  0  0  0  0  0  0  0
    6.8472  -15.3897   21.3114 N   0  0  0  0  0  0  0  0  0  0  0  0
    8.5221  -14.7743   22.8993 C   0  0  0  0  0  0  0  0  0  0  0  0
    9.7053  -14.6791   23.3064 O   0  0  0  0  0  0  0  0  0  0  0  0
    7.4834  -14.4955   23.8323 N   0  0  0  0  0  0  0  0  0  0  0  0
    7.7630  -14.1796   25.2031 C   0  0  1  0  0  0  0  0  0  0  0  0
    6.7284  -13.1844   25.7250 C   0  0  0  0  0  0  0  0  0  0  0  0
    7.1449  -12.8151   27.4612 S   0  0  0  0  0  0  0  0  0  0  0  0
    7.7241  -15.3800   26.0836 C   0  0  0  0  0  0  0  0  0  0  0  0
    6.8372  -16.2472   25.9898 O   0  0  0  0  0  0  0  0  0  0  0  0
    8.7599  -15.4780   27.0387 N   0  0  0  0  0  0  0  0  0  0  0  0
    9.1386  -16.7885   27.6422 C   0  0  1  0  0  0  0  0  0  0  0  0
    9.5804  -17.6308   26.5131 C   0  0  0  0  0  0  0  0  0  0  0  0
   10.2254  -18.9024   26.8080 C   0  0  0  0  0  0  0  0  0  0  0  0
   10.4688  -19.5182   27.9923 C   0  0  0  0  0  0  0  0  0  0  0  0
   11.0462  -20.7380   27.7393 N   0  0  0  0  0  0  0  0  0  0  0  0
   11.1387  -20.8355   26.4176 C   0  0  0  0  0  0  0  0  0  0  0  0
   10.6530  -19.7480   25.8412 N   0  0  0  0  0  0  0  0  0  0  0  0
   10.1754  -16.5123   28.6746 C   0  0  0  0  0  0  0  0  0  0  0  0
   10.8416  -15.2775   28.6255 O   0  0  0  0  0  0  0  0  0  0  0  0
   10.4878  -17.2980   29.5742 O   0  0  0  0  0  0  0  0  0  0  0  0
  2  1  1  6
  2  3  1  0
  2  4  1  0
  5  4  1  0
  5  6  1  1
  5  7  1  0
  7  8  2  0
  9  7  1  0
  9 10  1  0
 10 13  1  0
 10 11  1  1
 12 11  1  0
 13 15  1  0
 13 14  2  0
 15 16  1  0
 16 23  1  0
 17 18  1  0
 16 17  1  6
 18 22  1  0
 18 19  2  0
 19 20  1  0
 21 20  1  0
 22 21  2  0
 23 25  2  0
 23 24  1  0
M  END
$$$$
