LCH.pdb
     RDKit          3D

 25 25  0  0  1  0  0  0  0  0999 V2000
    8.4111  -14.3487   18.3482 C   0  0  0  0  0  0  0  0  0  0  0  0
    7.6201  -13.4481   19.2978 C   0  0  2  0  0  0  0  0  0  0  0  0
    7.7285  -12.0452   18.7599 C   0  0  0  0  0  0  0  0  0  0  0  0
    8.3028  -13.4708   20.6526 C   0  0  0  0  0  0  0  0  0  0  0  0
    8.1688  -14.8339   21.3199 C   0  0  2  0  0  0  0  0  0  0  0  0
    6.7485  -15.1409   21.3493 N   0  0  0  0  0  0  0  0  0  0  0  0
    8.6554  -14.6779   22.7113 C   0  0  0  0  0  0  0  0  0  0  0  0
    9.8817  -14.5051   22.9146 O   0  0  0  0  0  0  0  0  0  0  0  0
    7.8009  -14.7129   23.8496 N   0  0  0  0  0  0  0  0  0  0  0  0
    8.3119  -14.5814   25.1832 C   0  0  1  0  0  0  0  0  0  0  0  0
    7.4678  -13.5751   25.9628 C   0  0  0  0  0  0  0  0  0  0  0  0
    8.2146  -13.3917   27.6159 S   0  0  0  0  0  0  0  0  0  0  0  0
    8.2904  -15.8692   25.9309 C   0  0  0  0  0  0  0  0  0  0  0  0
    7.2594  -16.5550   26.0480 O   0  0  0  0  0  0  0  0  0  0  0  0
    9.5176  -16.2700   26.5039 N   0  0  0  0  0  0  0  0  0  0  0  0
    9.7247  -17.6607   27.0020 C   0  0  1  0  0  0  0  0  0  0  0  0
    9.8271  -18.5025   25.7935 C   0  0  0  0  0  0  0  0  0  0  0  0
   10.1251  -19.9181   25.9582 C   0  0  0  0  0  0  0  0  0  0  0  0
   10.2921  -20.6632   27.0798 C   0  0  0  0  0  0  0  0  0  0  0  0
   10.4928  -21.9701   26.7096 N   0  0  0  0  0  0  0  0  0  0  0  0
   10.4423  -21.9895   25.3821 C   0  0  0  0  0  0  0  0  0  0  0  0
   10.2230  -20.7720   24.9125 N   0  0  0  0  0  0  0  0  0  0  0  0
   10.9357  -17.6401   27.8683 C   0  0  0  0  0  0  0  0  0  0  0  0
   11.1363  -18.7173   28.7460 O   0  0  0  0  0  0  0  0  0  0  0  0
   11.7781  -16.7377   27.8648 O   0  0  0  0  0  0  0  0  0  0  0  0
  2  1  1  6
  2  3  1  0
  2  4  1  0
  5  4  1  0
  5  6  1  1
  5  7  1  0
  7  8  2  0
  9  7  1  0
  9 10  1  0
 10 13  1  0
 10 11  1  1
 12 11  1  0
 13 15  1  0
 13 14  2  0
 15 16  1  0
 16 23  1  0
 17 18  1  0
 16 17  1  6
 18 22  1  0
 18 19  2  0
 19 20  1  0
 21 20  1  0
 22 21  2  0
 23 25  2  0
 23 24  1  0
M  END
$$$$
