LCH.pdb
     RDKit          3D

 25 25  0  0  1  0  0  0  0  0999 V2000
    8.8170  -12.7663   19.0130 C   0  0  0  0  0  0  0  0  0  0  0  0
    7.4844  -13.4709   19.2706 C   0  0  2  0  0  0  0  0  0  0  0  0
    6.4051  -12.4308   19.1208 C   0  0  0  0  0  0  0  0  0  0  0  0
    7.4671  -13.9413   20.7131 C   0  0  0  0  0  0  0  0  0  0  0  0
    8.6553  -14.8450   21.0174 C   0  0  2  0  0  0  0  0  0  0  0  0
    8.2547  -16.1920   20.6467 N   0  0  0  0  0  0  0  0  0  0  0  0
    8.8667  -14.7932   22.4836 C   0  0  0  0  0  0  0  0  0  0  0  0
    8.8820  -13.6787   23.0603 O   0  0  0  0  0  0  0  0  0  0  0  0
    9.0566  -15.9512   23.2900 N   0  0  0  0  0  0  0  0  0  0  0  0
    9.2496  -15.8616   24.7084 C   0  0  1  0  0  0  0  0  0  0  0  0
    8.0102  -15.2521   25.3606 C   0  0  0  0  0  0  0  0  0  0  0  0
    6.5989  -16.3468   24.9943 S   0  0  0  0  0  0  0  0  0  0  0  0
    9.4866  -17.1912   25.3360 C   0  0  0  0  0  0  0  0  0  0  0  0
    8.6920  -18.1396   25.2088 O   0  0  0  0  0  0  0  0  0  0  0  0
   10.6747  -17.3142   26.0897 N   0  0  0  0  0  0  0  0  0  0  0  0
   11.2820  -18.6475   26.3703 C   0  0  1  0  0  0  0  0  0  0  0  0
   12.6939  -18.5343   25.9541 C   0  0  0  0  0  0  0  0  0  0  0  0
   12.9828  -18.1940   24.5682 C   0  0  0  0  0  0  0  0  0  0  0  0
   12.4497  -18.6626   23.4118 C   0  0  0  0  0  0  0  0  0  0  0  0
   13.0112  -17.9769   22.3631 N   0  0  0  0  0  0  0  0  0  0  0  0
   13.8650  -17.1132   22.9019 C   0  0  0  0  0  0  0  0  0  0  0  0
   13.8632  -17.2265   24.2202 N   0  0  0  0  0  0  0  0  0  0  0  0
   11.0650  -18.9325   27.8156 C   0  0  0  0  0  0  0  0  0  0  0  0
   10.3602  -17.9853   28.5753 O   0  0  0  0  0  0  0  0  0  0  0  0
   11.4628  -19.9495   28.3913 O   0  0  0  0  0  0  0  0  0  0  0  0
  2  1  1  1
  2  3  1  0
  2  4  1  0
  5  4  1  0
  5  6  1  1
  5  7  1  0
  7  8  2  0
  9  7  1  0
  9 10  1  0
 10 13  1  0
 10 11  1  1
 12 11  1  0
 13 15  1  0
 13 14  2  0
 15 16  1  0
 16 23  1  0
 17 18  1  0
 16 17  1  1
 18 22  1  0
 18 19  2  0
 19 20  1  0
 21 20  1  0
 22 21  2  0
 23 25  2  0
 23 24  1  0
M  END
$$$$
