LCH.pdb
     RDKit          3D

 25 25  0  0  1  0  0  0  0  0999 V2000
    9.6374  -12.6496   19.0122 C   0  0  0  0  0  0  0  0  0  0  0  0
    8.1790  -13.1093   19.0273 C   0  0  2  0  0  0  0  0  0  0  0  0
    7.3630  -11.9539   19.5454 C   0  0  0  0  0  0  0  0  0  0  0  0
    8.0490  -14.2436   20.0266 C   0  0  0  0  0  0  0  0  0  0  0  0
    8.9171  -15.4326   19.6340 C   0  0  2  0  0  0  0  0  0  0  0  0
    8.2023  -16.1356   18.5818 N   0  0  0  0  0  0  0  0  0  0  0  0
    9.0032  -16.3103   20.8254 C   0  0  0  0  0  0  0  0  0  0  0  0
    7.9795  -16.9298   21.2039 O   0  0  0  0  0  0  0  0  0  0  0  0
   10.1973  -16.4956   21.5784 N   0  0  0  0  0  0  0  0  0  0  0  0
   10.2701  -17.4317   22.6625 C   0  0  1  0  0  0  0  0  0  0  0  0
   11.4977  -18.3244   22.4924 C   0  0  0  0  0  0  0  0  0  0  0  0
   11.1016  -19.5713   21.2225 S   0  0  0  0  0  0  0  0  0  0  0  0
   10.3755  -16.7610   23.9880 C   0  0  0  0  0  0  0  0  0  0  0  0
   11.1056  -15.7722   24.1786 O   0  0  0  0  0  0  0  0  0  0  0  0
    9.5927  -17.3164   25.0242 N   0  0  0  0  0  0  0  0  0  0  0  0
    9.6427  -16.7727   26.4123 C   0  0  1  0  0  0  0  0  0  0  0  0
    8.2471  -16.4349   26.7551 C   0  0  0  0  0  0  0  0  0  0  0  0
    7.6884  -15.1925   26.2413 C   0  0  0  0  0  0  0  0  0  0  0  0
    8.2234  -14.2537   25.4206 C   0  0  0  0  0  0  0  0  0  0  0  0
    7.2712  -13.2957   25.1743 N   0  0  0  0  0  0  0  0  0  0  0  0
    6.1874  -13.6716   25.8446 C   0  0  0  0  0  0  0  0  0  0  0  0
    6.4156  -14.8042   26.4896 N   0  0  0  0  0  0  0  0  0  0  0  0
   10.2748  -17.8142   27.2685 C   0  0  0  0  0  0  0  0  0  0  0  0
   10.6602  -17.4529   28.5692 O   0  0  0  0  0  0  0  0  0  0  0  0
   10.4814  -18.9774   26.9105 O   0  0  0  0  0  0  0  0  0  0  0  0
  2  1  1  1
  2  3  1  0
  2  4  1  0
  5  4  1  0
  5  6  1  6
  5  7  1  0
  7  8  2  0
  9  7  1  0
  9 10  1  0
 10 13  1  0
 10 11  1  6
 12 11  1  0
 13 15  1  0
 13 14  2  0
 15 16  1  0
 16 23  1  0
 17 18  1  0
 16 17  1  1
 18 22  1  0
 18 19  2  0
 19 20  1  0
 21 20  1  0
 22 21  2  0
 23 25  2  0
 23 24  1  0
M  END
$$$$
