SAV.pdb
     RDKit          3D

 19 18  0  0  1  0  0  0  0  0999 V2000
    8.8149  -13.9486   19.3923 O   0  0  0  0  0  0  0  0  0  0  0  0
    9.1453  -15.1552   20.0276 C   0  0  0  0  0  0  0  0  0  0  0  0
    7.8306  -15.9331   20.1353 C   0  0  2  0  0  0  0  0  0  0  0  0
    6.9395  -15.4943   19.0881 N   0  0  0  0  0  0  0  0  0  0  0  0
    7.2767  -15.6367   21.4799 C   0  0  0  0  0  0  0  0  0  0  0  0
    6.4998  -14.6683   21.6003 O   0  0  0  0  0  0  0  0  0  0  0  0
    7.0794  -17.6349   24.5682 C   0  0  0  0  0  0  0  0  0  0  0  0
    7.0103  -16.2767   23.8991 C   0  0  2  0  0  0  0  0  0  0  0  0
    7.6341  -16.4434   22.5790 N   0  0  0  0  0  0  0  0  0  0  0  0
    7.7827  -15.2822   24.6474 C   0  0  0  0  0  0  0  0  0  0  0  0
    9.0096  -15.1011   24.4511 O   0  0  0  0  0  0  0  0  0  0  0  0
    5.8652  -12.7177   27.5369 C   0  0  0  0  0  0  0  0  0  0  0  0
    7.1379  -12.3053   26.8242 C   0  0  2  0  0  0  0  0  0  0  0  0
    6.6977  -11.5708   25.5560 C   0  0  0  0  0  0  0  0  0  0  0  0
    7.8965  -13.5463   26.4714 C   0  0  2  0  0  0  0  0  0  0  0  0
    7.1794  -14.4665   25.6400 N   0  0  0  0  0  0  0  0  0  0  0  0
    8.4242  -14.1996   27.6936 C   0  0  0  0  0  0  0  0  0  0  0  0
    7.9836  -15.3280   28.0217 O   0  0  0  0  0  0  0  0  0  0  0  0
    9.3892  -13.6235   28.5022 O   0  0  0  0  0  0  0  0  0  0  0  0
  1  2  1  0
  2  3  1  0
  3  5  1  0
  3  4  1  6
  5  6  2  0
  8  7  1  1
  8 10  1  0
  9  8  1  0
  9  5  1  0
 10 11  2  0
 13 12  1  6
 13 15  1  0
 14 13  1  0
 15 17  1  0
 15 16  1  1
 16 10  1  0
 17 18  2  0
 17 19  1  0
M  END
$$$$
