SAV.pdb
     RDKit          3D

 19 18  0  0  1  0  0  0  0  0999 V2000
   11.1792  -13.5562   19.0513 O   0  0  0  0  0  0  0  0  0  0  0  0
   10.1237  -13.0935   19.8515 C   0  0  0  0  0  0  0  0  0  0  0  0
    8.9028  -13.9184   19.4337 C   0  0  2  0  0  0  0  0  0  0  0  0
    8.1607  -13.1847   18.4367 N   0  0  0  0  0  0  0  0  0  0  0  0
    8.0989  -14.1301   20.6631 C   0  0  0  0  0  0  0  0  0  0  0  0
    7.3732  -13.1983   21.0641 O   0  0  0  0  0  0  0  0  0  0  0  0
    7.3329  -17.1290   22.7085 C   0  0  0  0  0  0  0  0  0  0  0  0
    7.3898  -15.6216   22.5621 C   0  0  2  0  0  0  0  0  0  0  0  0
    8.1699  -15.3622   21.3440 N   0  0  0  0  0  0  0  0  0  0  0  0
    8.0913  -15.0097   23.6931 C   0  0  0  0  0  0  0  0  0  0  0  0
    9.3433  -14.9264   23.7387 O   0  0  0  0  0  0  0  0  0  0  0  0
    5.8932  -12.9899   26.7560 C   0  0  0  0  0  0  0  0  0  0  0  0
    7.3379  -12.6452   26.4530 C   0  0  2  0  0  0  0  0  0  0  0  0
    7.3006  -11.5711   25.3637 C   0  0  0  0  0  0  0  0  0  0  0  0
    8.0141  -13.8799   25.9450 C   0  0  2  0  0  0  0  0  0  0  0  0
    7.3864  -14.4758   24.8033 N   0  0  0  0  0  0  0  0  0  0  0  0
    8.2081  -14.8571   27.0433 C   0  0  0  0  0  0  0  0  0  0  0  0
    7.5705  -15.9379   27.0190 O   0  0  0  0  0  0  0  0  0  0  0  0
    9.0661  -14.6378   28.1077 O   0  0  0  0  0  0  0  0  0  0  0  0
  1  2  1  0
  2  3  1  0
  3  5  1  0
  3  4  1  6
  5  6  2  0
  8  7  1  1
  8 10  1  0
  9  8  1  0
  9  5  1  0
 10 11  2  0
 13 12  1  6
 13 15  1  0
 14 13  1  0
 15 17  1  0
 15 16  1  6
 16 10  1  0
 17 18  2  0
 17 19  1  0
M  END
$$$$
