SAV.pdb
     RDKit          3D

 19 18  0  0  1  0  0  0  0  0999 V2000
    3.6231  -17.3093   20.5186 O   0  0  0  0  0  0  0  0  0  0  0  0
    4.5984  -16.3056   20.4181 C   0  0  0  0  0  0  0  0  0  0  0  0
    5.9281  -17.0446   20.2420 C   0  0  2  0  0  0  0  0  0  0  0  0
    5.6833  -18.2934   19.5609 N   0  0  0  0  0  0  0  0  0  0  0  0
    6.4686  -17.2665   21.6063 C   0  0  0  0  0  0  0  0  0  0  0  0
    5.9446  -18.1492   22.3148 O   0  0  0  0  0  0  0  0  0  0  0  0
    9.5468  -17.4999   22.8821 C   0  0  0  0  0  0  0  0  0  0  0  0
    8.2653  -16.8124   23.3088 C   0  0  2  0  0  0  0  0  0  0  0  0
    7.5480  -16.4867   22.0683 N   0  0  0  0  0  0  0  0  0  0  0  0
    8.5501  -15.5606   24.0142 C   0  0  0  0  0  0  0  0  0  0  0  0
    9.2090  -14.6303   23.4880 O   0  0  0  0  0  0  0  0  0  0  0  0
    6.3670  -12.9297   25.1960 C   0  0  0  0  0  0  0  0  0  0  0  0
    7.0573  -13.3990   26.4613 C   0  0  2  0  0  0  0  0  0  0  0  0
    7.3968  -12.1358   27.2555 C   0  0  0  0  0  0  0  0  0  0  0  0
    8.3085  -14.1201   26.0685 C   0  0  2  0  0  0  0  0  0  0  0  0
    8.0923  -15.3337   25.3384 N   0  0  0  0  0  0  0  0  0  0  0  0
    9.1802  -14.3321   27.2492 C   0  0  0  0  0  0  0  0  0  0  0  0
    9.2405  -15.4738   27.7669 O   0  0  0  0  0  0  0  0  0  0  0  0
    9.9407  -13.3245   27.8182 O   0  0  0  0  0  0  0  0  0  0  0  0
  1  2  1  0
  2  3  1  0
  3  5  1  0
  3  4  1  1
  5  6  2  0
  8  7  1  6
  8 10  1  0
  9  8  1  0
  9  5  1  0
 10 11  2  0
 13 12  1  6
 13 15  1  0
 14 13  1  0
 15 17  1  0
 15 16  1  1
 16 10  1  0
 17 18  2  0
 17 19  1  0
M  END
$$$$
