SAV.pdb
     RDKit          3D

 19 18  0  0  1  0  0  0  0  0999 V2000
   10.7014  -16.0513   20.9098 O   0  0  0  0  0  0  0  0  0  0  0  0
   10.1646  -17.3439   20.8121 C   0  0  0  0  0  0  0  0  0  0  0  0
    8.6913  -17.1472   20.4431 C   0  0  2  0  0  0  0  0  0  0  0  0
    8.6096  -16.3009   19.2768 N   0  0  0  0  0  0  0  0  0  0  0  0
    8.0449  -16.5148   21.6199 C   0  0  0  0  0  0  0  0  0  0  0  0
    7.8191  -15.2886   21.5840 O   0  0  0  0  0  0  0  0  0  0  0  0
    6.5217  -17.9485   24.7056 C   0  0  0  0  0  0  0  0  0  0  0  0
    6.9251  -16.7567   23.8606 C   0  0  2  0  0  0  0  0  0  0  0  0
    7.7036  -17.3006   22.7391 N   0  0  0  0  0  0  0  0  0  0  0  0
    7.7873  -15.8446   24.6157 C   0  0  0  0  0  0  0  0  0  0  0  0
    9.0382  -15.9535   24.6181 O   0  0  0  0  0  0  0  0  0  0  0  0
    6.1113  -12.7232   27.1297 C   0  0  0  0  0  0  0  0  0  0  0  0
    7.4180  -12.5349   26.3849 C   0  0  2  0  0  0  0  0  0  0  0  0
    7.0546  -11.9038   25.0390 C   0  0  0  0  0  0  0  0  0  0  0  0
    8.0347  -13.8830   26.1792 C   0  0  2  0  0  0  0  0  0  0  0  0
    7.2487  -14.7831   25.3890 N   0  0  0  0  0  0  0  0  0  0  0  0
    8.4234  -14.4819   27.4788 C   0  0  0  0  0  0  0  0  0  0  0  0
    7.8175  -15.5026   27.8866 O   0  0  0  0  0  0  0  0  0  0  0  0
    9.4319  -13.9684   28.2765 O   0  0  0  0  0  0  0  0  0  0  0  0
  1  2  1  0
  2  3  1  0
  3  5  1  0
  3  4  1  6
  5  6  2  0
  8  7  1  1
  8 10  1  0
  9  8  1  0
  9  5  1  0
 10 11  2  0
 13 12  1  1
 13 15  1  0
 14 13  1  0
 15 17  1  0
 15 16  1  1
 16 10  1  0
 17 18  2  0
 17 19  1  0
M  END
$$$$
