SAV.pdb
     RDKit          3D

 19 18  0  0  1  0  0  0  0  0999 V2000
   13.5985  -18.0946   22.1021 O   0  0  0  0  0  0  0  0  0  0  0  0
   12.4331  -18.7116   21.6226 C   0  0  0  0  0  0  0  0  0  0  0  0
   11.6605  -17.6109   20.8898 C   0  0  2  0  0  0  0  0  0  0  0  0
   12.5854  -16.8401   20.0937 N   0  0  0  0  0  0  0  0  0  0  0  0
   11.0208  -16.7780   21.9385 C   0  0  0  0  0  0  0  0  0  0  0  0
   11.4563  -15.6244   22.1262 O   0  0  0  0  0  0  0  0  0  0  0  0
    7.8637  -17.1777   23.8402 C   0  0  0  0  0  0  0  0  0  0  0  0
    9.1875  -16.4688   23.6345 C   0  0  2  0  0  0  0  0  0  0  0  0
    9.9491  -17.2992   22.6911 N   0  0  0  0  0  0  0  0  0  0  0  0
    9.9423  -16.3908   24.8873 C   0  0  0  0  0  0  0  0  0  0  0  0
   10.8461  -17.2129   25.1769 O   0  0  0  0  0  0  0  0  0  0  0  0
   10.9767  -13.9736   29.0820 C   0  0  0  0  0  0  0  0  0  0  0  0
   10.1891  -13.9418   27.7873 C   0  0  2  0  0  0  0  0  0  0  0  0
    8.7230  -13.7562   28.1845 C   0  0  0  0  0  0  0  0  0  0  0  0
   10.3795  -15.2547   27.0945 C   0  0  2  0  0  0  0  0  0  0  0  0
    9.6888  -15.3745   25.8451 N   0  0  0  0  0  0  0  0  0  0  0  0
   10.0657  -16.3776   28.0106 C   0  0  0  0  0  0  0  0  0  0  0  0
    8.9200  -16.8891   27.9798 O   0  0  0  0  0  0  0  0  0  0  0  0
   10.9809  -16.8984   28.9096 O   0  0  0  0  0  0  0  0  0  0  0  0
  1  2  1  0
  2  3  1  0
  3  5  1  0
  3  4  1  1
  5  6  2  0
  8  7  1  1
  8 10  1  0
  9  8  1  0
  9  5  1  0
 10 11  2  0
 13 12  1  1
 13 15  1  0
 14 13  1  0
 15 17  1  0
 15 16  1  6
 16 10  1  0
 17 18  2  0
 17 19  1  0
M  END
$$$$
