SAV.pdb
     RDKit          3D

 19 18  0  0  1  0  0  0  0  0999 V2000
   11.0712  -13.3776   18.8448 O   0  0  0  0  0  0  0  0  0  0  0  0
   10.1083  -13.0418   19.8085 C   0  0  0  0  0  0  0  0  0  0  0  0
    8.8680  -13.8658   19.4506 C   0  0  2  0  0  0  0  0  0  0  0  0
    8.1192  -13.1673   18.4334 N   0  0  0  0  0  0  0  0  0  0  0  0
    8.0831  -14.0076   20.7022 C   0  0  0  0  0  0  0  0  0  0  0  0
    7.3392  -13.0668   21.0448 O   0  0  0  0  0  0  0  0  0  0  0  0
    7.2308  -16.9163   22.7970 C   0  0  0  0  0  0  0  0  0  0  0  0
    7.3672  -15.4127   22.6634 C   0  0  2  0  0  0  0  0  0  0  0  0
    8.1918  -15.1856   21.4684 N   0  0  0  0  0  0  0  0  0  0  0  0
    8.0677  -14.8438   23.8172 C   0  0  0  0  0  0  0  0  0  0  0  0
    9.3204  -14.7796   23.8751 O   0  0  0  0  0  0  0  0  0  0  0  0
    5.8594  -13.0624   27.0476 C   0  0  0  0  0  0  0  0  0  0  0  0
    7.2721  -12.6263   26.7135 C   0  0  2  0  0  0  0  0  0  0  0  0
    7.1388  -11.4930   25.6939 C   0  0  0  0  0  0  0  0  0  0  0  0
    7.9877  -13.7923   26.1066 C   0  0  2  0  0  0  0  0  0  0  0  0
    7.3611  -14.3323   24.9368 N   0  0  0  0  0  0  0  0  0  0  0  0
    8.2447  -14.8354   27.1287 C   0  0  0  0  0  0  0  0  0  0  0  0
    7.6567  -15.9402   27.0352 O   0  0  0  0  0  0  0  0  0  0  0  0
    9.1098  -14.6529   28.1942 O   0  0  0  0  0  0  0  0  0  0  0  0
  1  2  1  0
  2  3  1  0
  3  5  1  0
  3  4  1  6
  5  6  2  0
  8  7  1  1
  8 10  1  0
  9  8  1  0
  9  5  1  0
 10 11  2  0
 13 12  1  6
 13 15  1  0
 14 13  1  0
 15 17  1  0
 15 16  1  6
 16 10  1  0
 17 18  2  0
 17 19  1  0
M  END
$$$$
