SAV.pdb
     RDKit          3D

 19 18  0  0  1  0  0  0  0  0999 V2000
    9.0685  -16.8430   21.3921 O   0  0  0  0  0  0  0  0  0  0  0  0
    7.6754  -16.6805   21.3528 C   0  0  0  0  0  0  0  0  0  0  0  0
    7.4443  -15.1736   21.2075 C   0  0  2  0  0  0  0  0  0  0  0  0
    8.1787  -14.6955   20.0606 N   0  0  0  0  0  0  0  0  0  0  0  0
    7.9323  -14.5513   22.4634 C   0  0  0  0  0  0  0  0  0  0  0  0
    9.0876  -14.0816   22.4819 O   0  0  0  0  0  0  0  0  0  0  0  0
    6.2498  -13.6927   25.6720 C   0  0  0  0  0  0  0  0  0  0  0  0
    7.5085  -13.8477   24.8422 C   0  0  2  0  0  0  0  0  0  0  0  0
    7.0929  -14.5038   23.5947 N   0  0  0  0  0  0  0  0  0  0  0  0
    8.4778  -14.7160   25.5145 C   0  0  0  0  0  0  0  0  0  0  0  0
    8.6704  -15.9051   25.1601 O   0  0  0  0  0  0  0  0  0  0  0  0
   11.9972  -15.2697   28.9637 C   0  0  0  0  0  0  0  0  0  0  0  0
   11.0120  -14.3034   28.3365 C   0  0  2  0  0  0  0  0  0  0  0  0
   10.0675  -13.8686   29.4593 C   0  0  0  0  0  0  0  0  0  0  0  0
   10.2554  -15.0356   27.2728 C   0  0  2  0  0  0  0  0  0  0  0  0
    9.2545  -14.2544   26.6090 N   0  0  0  0  0  0  0  0  0  0  0  0
    9.7041  -16.3048   27.8055 C   0  0  0  0  0  0  0  0  0  0  0  0
    8.5155  -16.3335   28.2073 O   0  0  0  0  0  0  0  0  0  0  0  0
   10.4403  -17.4749   27.8840 O   0  0  0  0  0  0  0  0  0  0  0  0
  1  2  1  0
  2  3  1  0
  3  5  1  0
  3  4  1  6
  5  6  2  0
  8  7  1  1
  8 10  1  0
  9  8  1  0
  9  5  1  0
 10 11  2  0
 13 12  1  1
 13 15  1  0
 14 13  1  0
 15 17  1  0
 15 16  1  1
 16 10  1  0
 17 18  2  0
 17 19  1  0
M  END
$$$$
