SAV.pdb
     RDKit          3D

 19 18  0  0  1  0  0  0  0  0999 V2000
   12.2461  -16.3952   21.3690 O   0  0  0  0  0  0  0  0  0  0  0  0
   11.7135  -17.6288   21.7727 C   0  0  0  0  0  0  0  0  0  0  0  0
   10.4032  -17.7819   20.9949 C   0  0  2  0  0  0  0  0  0  0  0  0
   10.5862  -17.2598   19.6618 N   0  0  0  0  0  0  0  0  0  0  0  0
    9.3784  -17.0129   21.7439 C   0  0  0  0  0  0  0  0  0  0  0  0
    9.1942  -15.8177   21.4385 O   0  0  0  0  0  0  0  0  0  0  0  0
    6.8363  -18.0267   24.2765 C   0  0  0  0  0  0  0  0  0  0  0  0
    7.5335  -16.9611   23.4547 C   0  0  2  0  0  0  0  0  0  0  0  0
    8.6438  -17.6389   22.7710 N   0  0  0  0  0  0  0  0  0  0  0  0
    8.0955  -15.9175   24.3152 C   0  0  0  0  0  0  0  0  0  0  0  0
    9.2782  -15.9603   24.7346 O   0  0  0  0  0  0  0  0  0  0  0  0
    7.6158  -11.5965   26.6598 C   0  0  0  0  0  0  0  0  0  0  0  0
    6.9439  -12.5729   25.7148 C   0  0  2  0  0  0  0  0  0  0  0  0
    5.5606  -12.8545   26.3052 C   0  0  0  0  0  0  0  0  0  0  0  0
    7.7618  -13.8259   25.6817 C   0  0  2  0  0  0  0  0  0  0  0  0
    7.3262  -14.7962   24.7220 N   0  0  0  0  0  0  0  0  0  0  0  0
    7.8811  -14.4063   27.0410 C   0  0  0  0  0  0  0  0  0  0  0  0
    7.0868  -15.3132   27.3898 O   0  0  0  0  0  0  0  0  0  0  0  0
    8.8342  -13.9955   27.9575 O   0  0  0  0  0  0  0  0  0  0  0  0
  1  2  1  0
  2  3  1  0
  3  5  1  0
  3  4  1  6
  5  6  2  0
  8  7  1  1
  8 10  1  0
  9  8  1  0
  9  5  1  0
 10 11  2  0
 13 12  1  1
 13 15  1  0
 14 13  1  0
 15 17  1  0
 15 16  1  6
 16 10  1  0
 17 18  2  0
 17 19  1  0
M  END
$$$$
