GRR.pdb
     RDKit          3D

 27 26  0  0  1  0  0  0  0  0999 V2000
    2.9646  -20.4496   21.8882 N   0  0  0  0  0  0  0  0  0  0  0  0
    3.1273  -19.0734   22.2735 C   0  0  0  0  0  0  0  0  0  0  0  0
    4.5254  -18.6042   22.1307 C   0  0  0  0  0  0  0  0  0  0  0  0
    5.4164  -19.4646   21.9384 O   0  0  0  0  0  0  0  0  0  0  0  0
    8.0155  -12.5699   18.0928 N   0  0  0  0  0  0  0  0  0  0  0  0
    9.1288  -12.8068   18.9791 C   0  0  0  0  0  0  0  0  0  0  0  0
   10.3059  -12.8731   18.5073 N   0  0  0  0  0  0  0  0  0  0  0  0
    8.9272  -12.9704   20.3780 N   0  0  0  0  0  0  0  0  0  0  0  0
    7.6535  -13.3529   20.9372 C   0  0  0  0  0  0  0  0  0  0  0  0
    7.6610  -14.7426   21.5385 C   0  0  0  0  0  0  0  0  0  0  0  0
    6.2883  -15.3090   21.6745 C   0  0  0  0  0  0  0  0  0  0  0  0
    6.2014  -16.7224   22.1297 C   0  0  2  0  0  0  0  0  0  0  0  0
    4.8735  -17.2545   22.2028 N   0  0  0  0  0  0  0  0  0  0  0  0
    6.9075  -16.7870   23.4489 C   0  0  0  0  0  0  0  0  0  0  0  0
    6.2730  -16.3585   24.4426 O   0  0  0  0  0  0  0  0  0  0  0  0
   11.1021  -13.1175   19.1253 N   0  0  0  0  0  0  0  0  0  0  0  0
    7.6498  -23.2813   28.3596 C   0  0  0  0  0  0  0  0  0  0  0  0
    8.4519  -22.1523   28.7095 N   0  0  0  0  0  0  0  0  0  0  0  0
    8.3274  -21.6009   29.8619 N   0  0  0  0  0  0  0  0  0  0  0  0
    9.3905  -21.6527   27.7563 C   0  0  0  0  0  0  0  0  0  0  0  0
    8.9155  -21.1901   26.4800 C   0  0  0  0  0  0  0  0  0  0  0  0
    9.0072  -19.6743   26.4078 C   0  0  0  0  0  0  0  0  0  0  0  0
    8.5511  -19.1611   25.0807 C   0  0  1  0  0  0  0  0  0  0  0  0
    8.6345  -17.6589   24.9659 N   0  0  0  0  0  0  0  0  0  0  0  0
    8.1959  -17.2874   23.6137 C   0  0  0  0  0  0  0  0  0  0  0  0
   10.0149  -17.1748   25.1236 O   0  0  0  0  0  0  0  0  0  0  0  0
   10.6090  -17.3264   26.2126 O   0  0  0  0  0  0  0  0  0  0  0  0
  2  1  1  0
  3  2  1  0
  4  3  2  0
  6  8  1  0
  6  5  1  0
  7  6  2  0
  9  8  1  0
 10 11  1  0
 10  9  1  0
 12 11  1  1
 12 13  1  0
 13  3  1  0
 14 15  2  0
 14 12  1  0
 16 17  1  0
 17 18  2  0
 19 17  1  0
 19 20  1  0
 21 20  1  0
 22 21  1  0
 23 22  1  1
 23 24  1  0
 24 14  1  0
 25 27  1  0
 25 23  1  0
 26 25  2  0
M  END
$$$$
