GRR.pdb
     RDKit          3D

 27 26  0  0  1  0  0  0  0  0999 V2000
    6.0393  -21.5245   22.8300 N   0  0  0  0  0  0  0  0  0  0  0  0
    5.8133  -20.1326   23.1128 C   0  0  0  0  0  0  0  0  0  0  0  0
    6.7467  -19.2446   22.3809 C   0  0  0  0  0  0  0  0  0  0  0  0
    7.7193  -19.7727   21.7924 O   0  0  0  0  0  0  0  0  0  0  0  0
    9.7665  -13.0804   19.7236 N   0  0  0  0  0  0  0  0  0  0  0  0
    8.7579  -12.6885   18.7696 C   0  0  0  0  0  0  0  0  0  0  0  0
    9.0989  -12.3679   17.5890 N   0  0  0  0  0  0  0  0  0  0  0  0
    7.3828  -12.6531   19.1330 N   0  0  0  0  0  0  0  0  0  0  0  0
    6.8559  -13.4079   20.2438 C   0  0  0  0  0  0  0  0  0  0  0  0
    7.5597  -14.7327   20.4500 C   0  0  0  0  0  0  0  0  0  0  0  0
    6.9074  -15.5634   21.5026 C   0  0  0  0  0  0  0  0  0  0  0  0
    7.4680  -16.9258   21.7074 C   0  0  2  0  0  0  0  0  0  0  0  0
    6.5774  -17.8601   22.3286 N   0  0  0  0  0  0  0  0  0  0  0  0
    8.7341  -16.7503   22.4880 C   0  0  0  0  0  0  0  0  0  0  0  0
    8.6237  -16.7537   23.7376 O   0  0  0  0  0  0  0  0  0  0  0  0
    8.3914  -12.0075   16.9220 N   0  0  0  0  0  0  0  0  0  0  0  0
   14.5529  -20.1488   26.2899 C   0  0  0  0  0  0  0  0  0  0  0  0
   13.3681  -20.9467   26.2973 N   0  0  0  0  0  0  0  0  0  0  0  0
   13.4365  -22.2065   26.5333 N   0  0  0  0  0  0  0  0  0  0  0  0
   12.1127  -20.3173   26.0387 C   0  0  0  0  0  0  0  0  0  0  0  0
   11.7260  -20.0555   24.6784 C   0  0  0  0  0  0  0  0  0  0  0  0
   11.6406  -18.5564   24.4400 C   0  0  0  0  0  0  0  0  0  0  0  0
   11.3376  -18.2461   23.0101 C   0  0  2  0  0  0  0  0  0  0  0  0
   11.1790  -16.7692   22.7452 N   0  0  0  0  0  0  0  0  0  0  0  0
    9.9875  -16.5899   21.9042 C   0  0  0  0  0  0  0  0  0  0  0  0
   12.3234  -16.2218   22.0000 O   0  0  0  0  0  0  0  0  0  0  0  0
   12.2770  -16.1442   20.7535 O   0  0  0  0  0  0  0  0  0  0  0  0
  2  1  1  0
  3  2  1  0
  4  3  2  0
  6  8  1  0
  6  5  1  0
  7  6  2  0
  9  8  1  0
 10 11  1  0
 10  9  1  0
 12 11  1  1
 12 13  1  0
 13  3  1  0
 14 15  2  0
 14 12  1  0
 16 17  1  0
 17 18  2  0
 19 17  1  0
 19 20  1  0
 21 20  1  0
 22 21  1  0
 23 22  1  1
 23 24  1  0
 24 14  1  0
 25 27  1  0
 25 23  1  0
 26 25  2  0
M  END
$$$$
