GRR.pdb
     RDKit          3D

 27 26  0  0  1  0  0  0  0  0999 V2000
    8.0870  -11.7155   19.1520 N   0  0  0  0  0  0  0  0  0  0  0  0
    8.8637  -12.9014   18.9090 C   0  0  0  0  0  0  0  0  0  0  0  0
    8.4778  -14.0254   19.7939 C   0  0  0  0  0  0  0  0  0  0  0  0
    7.7190  -13.7776   20.7603 O   0  0  0  0  0  0  0  0  0  0  0  0
    8.8037  -22.4178   22.0524 N   0  0  0  0  0  0  0  0  0  0  0  0
    8.0832  -22.4067   20.8027 C   0  0  0  0  0  0  0  0  0  0  0  0
    7.4781  -23.4539   20.4157 N   0  0  0  0  0  0  0  0  0  0  0  0
    8.0422  -21.2373   19.9933 N   0  0  0  0  0  0  0  0  0  0  0  0
    9.1115  -20.2690   19.9770 C   0  0  0  0  0  0  0  0  0  0  0  0
    8.7538  -18.9758   20.6790 C   0  0  0  0  0  0  0  0  0  0  0  0
    8.9491  -17.7835   19.8051 C   0  0  0  0  0  0  0  0  0  0  0  0
    8.6359  -16.4629   20.4136 C   0  0  2  0  0  0  0  0  0  0  0  0
    8.9270  -15.3305   19.5861 N   0  0  0  0  0  0  0  0  0  0  0  0
    9.3715  -16.4117   21.7172 C   0  0  0  0  0  0  0  0  0  0  0  0
   10.6143  -16.2552   21.6505 O   0  0  0  0  0  0  0  0  0  0  0  0
    6.9398  -23.4472   19.5293 N   0  0  0  0  0  0  0  0  0  0  0  0
    6.6341  -10.8198   26.5460 C   0  0  0  0  0  0  0  0  0  0  0  0
    5.9521  -12.0720   26.6316 N   0  0  0  0  0  0  0  0  0  0  0  0
    4.6822  -12.1073   26.8153 N   0  0  0  0  0  0  0  0  0  0  0  0
    6.7079  -13.2773   26.5088 C   0  0  0  0  0  0  0  0  0  0  0  0
    8.1320  -13.1967   26.3242 C   0  0  0  0  0  0  0  0  0  0  0  0
    8.7197  -14.5922   26.1875 C   0  0  0  0  0  0  0  0  0  0  0  0
    8.2382  -15.2695   24.9458 C   0  0  1  0  0  0  0  0  0  0  0  0
    9.3579  -15.8346   24.1070 N   0  0  0  0  0  0  0  0  0  0  0  0
    8.7539  -16.5257   22.9595 C   0  0  0  0  0  0  0  0  0  0  0  0
   10.1467  -16.8310   24.8485 O   0  0  0  0  0  0  0  0  0  0  0  0
   10.8396  -16.4765   25.8263 O   0  0  0  0  0  0  0  0  0  0  0  0
  2  1  1  0
  3  2  1  0
  4  3  2  0
  6  8  1  0
  6  5  1  0
  7  6  2  0
  9  8  1  0
 10 11  1  0
 10  9  1  0
 12 11  1  6
 12 13  1  0
 13  3  1  0
 14 15  2  0
 14 12  1  0
 16 17  1  0
 17 18  2  0
 19 17  1  0
 19 20  1  0
 21 20  1  0
 22 21  1  0
 23 22  1  6
 23 24  1  0
 24 14  1  0
 25 27  1  0
 25 23  1  0
 26 25  2  0
M  END
$$$$
