GRR.pdb
     RDKit          3D

 27 26  0  0  1  0  0  0  0  0999 V2000
   12.8792  -19.0199   19.1564 N   0  0  0  0  0  0  0  0  0  0  0  0
   11.6210  -19.3442   19.7733 C   0  0  0  0  0  0  0  0  0  0  0  0
   10.9969  -18.1775   20.4400 C   0  0  0  0  0  0  0  0  0  0  0  0
   11.6933  -17.5234   21.2514 O   0  0  0  0  0  0  0  0  0  0  0  0
    7.0966  -11.5363   18.8032 N   0  0  0  0  0  0  0  0  0  0  0  0
    7.4748  -12.8499   18.3422 C   0  0  0  0  0  0  0  0  0  0  0  0
    8.1418  -12.9723   17.2686 N   0  0  0  0  0  0  0  0  0  0  0  0
    7.1087  -14.0143   19.0732 N   0  0  0  0  0  0  0  0  0  0  0  0
    7.0561  -14.0388   20.5146 C   0  0  0  0  0  0  0  0  0  0  0  0
    6.8245  -15.4252   21.0780 C   0  0  0  0  0  0  0  0  0  0  0  0
    7.6068  -16.4689   20.3553 C   0  0  0  0  0  0  0  0  0  0  0  0
    8.9421  -16.8002   20.9208 C   0  0  2  0  0  0  0  0  0  0  0  0
    9.6780  -17.7918   20.1949 N   0  0  0  0  0  0  0  0  0  0  0  0
    8.7115  -17.2005   22.3454 C   0  0  0  0  0  0  0  0  0  0  0  0
    8.5109  -18.4208   22.5563 O   0  0  0  0  0  0  0  0  0  0  0  0
    8.4328  -13.9119   16.9400 N   0  0  0  0  0  0  0  0  0  0  0  0
   10.4292  -13.5830   30.3730 C   0  0  0  0  0  0  0  0  0  0  0  0
   10.6932  -14.9868   30.3791 N   0  0  0  0  0  0  0  0  0  0  0  0
   11.4462  -15.5009   31.2826 N   0  0  0  0  0  0  0  0  0  0  0  0
   10.1049  -15.8023   29.3652 C   0  0  0  0  0  0  0  0  0  0  0  0
   10.0857  -15.3288   28.0073 C   0  0  0  0  0  0  0  0  0  0  0  0
    9.3493  -16.3196   27.1200 C   0  0  0  0  0  0  0  0  0  0  0  0
    9.3563  -15.8845   25.6906 C   0  0  2  0  0  0  0  0  0  0  0  0
    8.6324  -16.8419   24.7763 N   0  0  0  0  0  0  0  0  0  0  0  0
    8.7117  -16.3048   23.4110 C   0  0  0  0  0  0  0  0  0  0  0  0
    7.2055  -16.9507   25.1185 O   0  0  0  0  0  0  0  0  0  0  0  0
    6.3666  -16.2340   24.5316 O   0  0  0  0  0  0  0  0  0  0  0  0
  2  1  1  0
  3  2  1  0
  4  3  2  0
  6  8  1  0
  6  5  1  0
  7  6  2  0
  9  8  1  0
 10 11  1  0
 10  9  1  0
 12 11  1  6
 12 13  1  0
 13  3  1  0
 14 15  2  0
 14 12  1  0
 16 17  1  0
 17 18  2  0
 19 17  1  0
 19 20  1  0
 21 20  1  0
 22 21  1  0
 23 22  1  6
 23 24  1  0
 24 14  1  0
 25 27  1  0
 25 23  1  0
 26 25  2  0
M  END
$$$$
