GRR.pdb
     RDKit          3D

 27 26  0  0  1  0  0  0  0  0999 V2000
    4.4930  -22.1043   23.0895 N   0  0  0  0  0  0  0  0  0  0  0  0
    4.4701  -20.6984   23.3920 C   0  0  0  0  0  0  0  0  0  0  0  0
    5.5171  -19.9430   22.6651 C   0  0  0  0  0  0  0  0  0  0  0  0
    6.3755  -20.5962   22.0265 O   0  0  0  0  0  0  0  0  0  0  0  0
    7.8770  -11.7858   21.2890 N   0  0  0  0  0  0  0  0  0  0  0  0
    8.1020  -12.3964   20.0016 C   0  0  0  0  0  0  0  0  0  0  0  0
    9.0521  -11.9841   19.2668 N   0  0  0  0  0  0  0  0  0  0  0  0
    7.2715  -13.4554   19.5399 N   0  0  0  0  0  0  0  0  0  0  0  0
    6.4213  -14.2143   20.4245 C   0  0  0  0  0  0  0  0  0  0  0  0
    7.0268  -15.5383   20.8408 C   0  0  0  0  0  0  0  0  0  0  0  0
    6.0768  -16.3725   21.6316 C   0  0  0  0  0  0  0  0  0  0  0  0
    6.5379  -17.7427   21.9813 C   0  0  2  0  0  0  0  0  0  0  0  0
    5.5745  -18.5484   22.6703 N   0  0  0  0  0  0  0  0  0  0  0  0
    7.8004  -17.5768   22.7697 C   0  0  0  0  0  0  0  0  0  0  0  0
    7.6723  -17.1637   23.9473 O   0  0  0  0  0  0  0  0  0  0  0  0
    9.2066  -12.4031   18.3308 N   0  0  0  0  0  0  0  0  0  0  0  0
   15.1515  -21.4366   20.8276 C   0  0  0  0  0  0  0  0  0  0  0  0
   14.4897  -22.0483   21.9359 N   0  0  0  0  0  0  0  0  0  0  0  0
   14.7772  -23.2512   22.2791 N   0  0  0  0  0  0  0  0  0  0  0  0
   13.5075  -21.2978   22.6508 C   0  0  0  0  0  0  0  0  0  0  0  0
   13.1013  -20.0136   22.1463 C   0  0  0  0  0  0  0  0  0  0  0  0
   11.9235  -19.4864   22.9501 C   0  0  0  0  0  0  0  0  0  0  0  0
   11.4486  -18.1702   22.4259 C   0  0  2  0  0  0  0  0  0  0  0  0
   10.2287  -17.6510   23.1463 N   0  0  0  0  0  0  0  0  0  0  0  0
    9.0687  -17.8538   22.2675 C   0  0  0  0  0  0  0  0  0  0  0  0
   10.3250  -16.2072   23.4129 O   0  0  0  0  0  0  0  0  0  0  0  0
    9.8570  -15.3885   22.5927 O   0  0  0  0  0  0  0  0  0  0  0  0
  2  1  1  0
  3  2  1  0
  4  3  2  0
  6  8  1  0
  6  5  1  0
  7  6  2  0
  9  8  1  0
 10 11  1  0
 10  9  1  0
 12 11  1  1
 12 13  1  0
 13  3  1  0
 14 15  2  0
 14 12  1  0
 16 17  1  0
 17 18  2  0
 19 17  1  0
 19 20  1  0
 21 20  1  0
 22 21  1  0
 23 22  1  1
 23 24  1  0
 24 14  1  0
 25 27  1  0
 25 23  1  0
 26 25  2  0
M  END
$$$$
