GRR.pdb
     RDKit          3D

 27 26  0  0  1  0  0  0  0  0999 V2000
    6.3166  -26.2177   29.4183 N   0  0  0  0  0  0  0  0  0  0  0  0
    7.6556  -26.7426   29.4031 C   0  0  0  0  0  0  0  0  0  0  0  0
    8.4948  -26.1920   30.4930 C   0  0  0  0  0  0  0  0  0  0  0  0
    8.3665  -24.9777   30.7762 O   0  0  0  0  0  0  0  0  0  0  0  0
    9.9047  -27.6665   38.3599 N   0  0  0  0  0  0  0  0  0  0  0  0
   11.2695  -27.3063   38.0621 C   0  0  0  0  0  0  0  0  0  0  0  0
   12.1341  -27.2923   38.9920 N   0  0  0  0  0  0  0  0  0  0  0  0
   11.6623  -26.9629   36.7384 N   0  0  0  0  0  0  0  0  0  0  0  0
   10.9163  -27.3807   35.5765 C   0  0  0  0  0  0  0  0  0  0  0  0
   11.6496  -27.1275   34.2760 C   0  0  0  0  0  0  0  0  0  0  0  0
   10.8708  -27.5818   33.0882 C   0  0  0  0  0  0  0  0  0  0  0  0
   10.2871  -26.5120   32.2354 C   0  0  2  0  0  0  0  0  0  0  0  0
    9.4090  -26.9731   31.2018 N   0  0  0  0  0  0  0  0  0  0  0  0
   11.4409  -25.7303   31.6870 C   0  0  0  0  0  0  0  0  0  0  0  0
   12.0026  -26.2041   30.6703 O   0  0  0  0  0  0  0  0  0  0  0  0
   13.0961  -26.9536   38.8041 N   0  0  0  0  0  0  0  0  0  0  0  0
   12.5770  -19.2814   26.7443 C   0  0  0  0  0  0  0  0  0  0  0  0
   13.8141  -19.9491   26.9978 N   0  0  0  0  0  0  0  0  0  0  0  0
   14.7000  -20.0453   26.0739 N   0  0  0  0  0  0  0  0  0  0  0  0
   14.0441  -20.5039   28.2933 C   0  0  0  0  0  0  0  0  0  0  0  0
   12.9773  -21.2052   28.9558 C   0  0  0  0  0  0  0  0  0  0  0  0
   13.4419  -21.6939   30.3184 C   0  0  0  0  0  0  0  0  0  0  0  0
   12.4128  -22.5601   30.9690 C   0  0  1  0  0  0  0  0  0  0  0  0
   12.9888  -23.8247   31.5569 N   0  0  0  0  0  0  0  0  0  0  0  0
   11.9006  -24.5382   32.2394 C   0  0  0  0  0  0  0  0  0  0  0  0
   14.0204  -23.5376   32.5659 O   0  0  0  0  0  0  0  0  0  0  0  0
   13.8222  -23.8355   33.7634 O   0  0  0  0  0  0  0  0  0  0  0  0
  2  1  1  0
  3  2  1  0
  4  3  2  0
  6  8  1  0
  6  5  1  0
  7  6  2  0
  9  8  1  0
 10 11  1  0
 10  9  1  0
 12 11  1  6
 12 13  1  0
 13  3  1  0
 14 15  2  0
 14 12  1  0
 16 17  1  0
 17 18  2  0
 19 17  1  0
 19 20  1  0
 21 20  1  0
 22 21  1  0
 23 22  1  6
 23 24  1  0
 24 14  1  0
 25 27  1  0
 25 23  1  0
 26 25  2  0
M  END
$$$$
