GRR.pdb
     RDKit          3D

 27 26  0  0  1  0  0  0  0  0999 V2000
    5.0291  -20.1848   23.0985 N   0  0  0  0  0  0  0  0  0  0  0  0
    5.0647  -18.8172   23.5425 C   0  0  0  0  0  0  0  0  0  0  0  0
    6.3467  -18.1478   23.2204 C   0  0  0  0  0  0  0  0  0  0  0  0
    7.3241  -18.8692   22.9118 O   0  0  0  0  0  0  0  0  0  0  0  0
    7.7218  -11.5340   18.6065 N   0  0  0  0  0  0  0  0  0  0  0  0
    7.9892  -12.9415   18.4380 C   0  0  0  0  0  0  0  0  0  0  0  0
    9.0470  -13.3143   17.8424 N   0  0  0  0  0  0  0  0  0  0  0  0
    7.0817  -13.9215   18.9281 N   0  0  0  0  0  0  0  0  0  0  0  0
    6.7374  -14.0280   20.3251 C   0  0  0  0  0  0  0  0  0  0  0  0
    7.9342  -14.2930   21.2142 C   0  0  0  0  0  0  0  0  0  0  0  0
    7.5388  -14.6221   22.6138 C   0  0  0  0  0  0  0  0  0  0  0  0
    7.7134  -16.0390   23.0313 C   0  0  2  0  0  0  0  0  0  0  0  0
    6.4953  -16.7603   23.2502 N   0  0  0  0  0  0  0  0  0  0  0  0
    8.5822  -16.0176   24.2510 C   0  0  0  0  0  0  0  0  0  0  0  0
    7.9922  -16.0679   25.3569 O   0  0  0  0  0  0  0  0  0  0  0  0
    9.2659  -14.3240   17.7521 N   0  0  0  0  0  0  0  0  0  0  0  0
    8.0399  -18.7443   28.4141 C   0  0  0  0  0  0  0  0  0  0  0  0
    7.8561  -20.0776   27.9354 N   0  0  0  0  0  0  0  0  0  0  0  0
    6.8847  -20.7946   28.3711 N   0  0  0  0  0  0  0  0  0  0  0  0
    8.7701  -20.5934   26.9671 C   0  0  0  0  0  0  0  0  0  0  0  0
   10.0792  -20.0082   26.8561 C   0  0  0  0  0  0  0  0  0  0  0  0
    9.9654  -18.4980   26.7224 C   0  0  0  0  0  0  0  0  0  0  0  0
   10.3134  -18.0432   25.3423 C   0  0  2  0  0  0  0  0  0  0  0  0
   10.7365  -16.5960   25.2846 N   0  0  0  0  0  0  0  0  0  0  0  0
    9.9718  -15.9476   24.2104 C   0  0  0  0  0  0  0  0  0  0  0  0
   12.1621  -16.4567   24.9484 O   0  0  0  0  0  0  0  0  0  0  0  0
   12.5135  -16.3419   23.7545 O   0  0  0  0  0  0  0  0  0  0  0  0
  2  1  1  0
  3  2  1  0
  4  3  2  0
  6  8  1  0
  6  5  1  0
  7  6  2  0
  9  8  1  0
 10 11  1  0
 10  9  1  0
 12 11  1  1
 12 13  1  0
 13  3  1  0
 14 15  2  0
 14 12  1  0
 16 17  1  0
 17 18  2  0
 19 17  1  0
 19 20  1  0
 21 20  1  0
 22 21  1  0
 23 22  1  1
 23 24  1  0
 24 14  1  0
 25 27  1  0
 25 23  1  0
 26 25  2  0
M  END
$$$$
