GRR.pdb
     RDKit          3D

 27 26  0  0  1  0  0  0  0  0999 V2000
    5.6703  -21.6005   23.7476 N   0  0  0  0  0  0  0  0  0  0  0  0
    5.7625  -20.2176   24.1321 C   0  0  0  0  0  0  0  0  0  0  0  0
    6.7141  -19.4554   23.2903 C   0  0  0  0  0  0  0  0  0  0  0  0
    7.3897  -20.0900   22.4464 O   0  0  0  0  0  0  0  0  0  0  0  0
    8.1703  -13.3735   17.7081 N   0  0  0  0  0  0  0  0  0  0  0  0
    7.9180  -12.7676   18.9927 C   0  0  0  0  0  0  0  0  0  0  0  0
    8.4309  -11.6389   19.2679 N   0  0  0  0  0  0  0  0  0  0  0  0
    7.1027  -13.4184   19.9602 N   0  0  0  0  0  0  0  0  0  0  0  0
    7.5327  -13.6258   21.3215 C   0  0  0  0  0  0  0  0  0  0  0  0
    8.1393  -14.9941   21.5519 C   0  0  0  0  0  0  0  0  0  0  0  0
    7.2795  -15.8581   22.4109 C   0  0  0  0  0  0  0  0  0  0  0  0
    7.7422  -17.2578   22.6087 C   0  0  2  0  0  0  0  0  0  0  0  0
    6.8776  -18.0742   23.4075 N   0  0  0  0  0  0  0  0  0  0  0  0
    9.1230  -17.1708   23.1821 C   0  0  0  0  0  0  0  0  0  0  0  0
    9.2036  -16.8900   24.4021 O   0  0  0  0  0  0  0  0  0  0  0  0
    8.3490  -11.2487   20.2253 N   0  0  0  0  0  0  0  0  0  0  0  0
   16.1211  -21.1807   24.1568 C   0  0  0  0  0  0  0  0  0  0  0  0
   15.0334  -21.9679   24.6444 N   0  0  0  0  0  0  0  0  0  0  0  0
   15.2476  -22.9329   25.4633 N   0  0  0  0  0  0  0  0  0  0  0  0
   13.7100  -21.6607   24.2049 C   0  0  0  0  0  0  0  0  0  0  0  0
   13.5237  -20.6719   23.1772 C   0  0  0  0  0  0  0  0  0  0  0  0
   12.7322  -19.4946   23.7237 C   0  0  0  0  0  0  0  0  0  0  0  0
   12.3967  -18.5139   22.6475 C   0  0  2  0  0  0  0  0  0  0  0  0
   11.5747  -17.3494   23.1424 N   0  0  0  0  0  0  0  0  0  0  0  0
   10.2831  -17.3827   22.4426 C   0  0  0  0  0  0  0  0  0  0  0  0
   12.2078  -16.0598   22.8251 O   0  0  0  0  0  0  0  0  0  0  0  0
   11.8572  -15.4261   21.8065 O   0  0  0  0  0  0  0  0  0  0  0  0
  2  1  1  0
  3  2  1  0
  4  3  2  0
  6  8  1  0
  6  5  1  0
  7  6  2  0
  9  8  1  0
 10 11  1  0
 10  9  1  0
 12 11  1  1
 12 13  1  0
 13  3  1  0
 14 15  2  0
 14 12  1  0
 16 17  1  0
 17 18  2  0
 19 17  1  0
 19 20  1  0
 21 20  1  0
 22 21  1  0
 23 22  1  1
 23 24  1  0
 24 14  1  0
 25 27  1  0
 25 23  1  0
 26 25  2  0
M  END
$$$$
