EKD.pdb
     RDKit          3D

 27 26  0  0  1  0  0  0  0  0999 V2000
    7.5727  -17.3351   19.5425 N   0  0  0  0  0  0  0  0  0  0  0  0
    8.9722  -17.0306   19.6110 C   0  0  1  0  0  0  0  0  0  0  0  0
    9.5015  -16.5016   18.3107 C   0  0  0  0  0  0  0  0  0  0  0  0
    8.3013  -16.3896   17.3616 C   0  0  0  0  0  0  0  0  0  0  0  0
    8.7399  -16.5030   15.9595 C   0  0  0  0  0  0  0  0  0  0  0  0
    7.9004  -16.4449   15.0434 O   0  0  0  0  0  0  0  0  0  0  0  0
    9.3100  -16.1960   20.7757 C   0  0  0  0  0  0  0  0  0  0  0  0
   10.4496  -15.7438   21.0265 O   0  0  0  0  0  0  0  0  0  0  0  0
   10.0781  -16.6728   15.6639 O   0  0  0  0  0  0  0  0  0  0  0  0
    8.2482  -15.8776   21.6942 N   0  0  0  0  0  0  0  0  0  0  0  0
    8.5546  -15.1761   22.9273 C   0  0  1  0  0  0  0  0  0  0  0  0
    7.3286  -14.6170   23.6133 C   0  0  0  0  0  0  0  0  0  0  0  0
    7.7687  -13.7830   24.7786 C   0  0  0  0  0  0  0  0  0  0  0  0
    6.6172  -13.1798   25.5514 C   0  0  0  0  0  0  0  0  0  0  0  0
    7.1196  -12.3583   26.6958 C   0  0  0  0  0  0  0  0  0  0  0  0
    6.0375  -11.7096   27.4080 N   0  0  0  0  0  0  0  0  0  0  0  0
    9.1966  -16.1201   23.8904 C   0  0  0  0  0  0  0  0  0  0  0  0
    8.5569  -17.1709   24.1776 O   0  0  0  0  0  0  0  0  0  0  0  0
   10.4574  -15.8791   24.4692 N   0  0  0  0  0  0  0  0  0  0  0  0
   11.0096  -16.8695   25.3662 C   0  0  1  0  0  0  0  0  0  0  0  0
   12.5378  -16.7873   25.3850 C   0  0  0  0  0  0  0  0  0  0  0  0
   13.0414  -16.9053   23.9976 C   0  0  0  0  0  0  0  0  0  0  0  0
   12.6569  -17.8056   23.2296 O   0  0  0  0  0  0  0  0  0  0  0  0
   10.4851  -16.6731   26.7266 C   0  0  0  0  0  0  0  0  0  0  0  0
   10.5078  -17.6245   27.5377 O   0  0  0  0  0  0  0  0  0  0  0  0
   13.9824  -15.9702   23.5377 O   0  0  0  0  0  0  0  0  0  0  0  0
    9.9770  -15.4623   27.1016 O   0  0  0  0  0  0  0  0  0  0  0  0
  2  1  1  6
  2  7  1  0
  2  3  1  0
  4  3  1  0
  4  5  1  0
  5  6  2  0
  7  8  2  0
  9  5  1  0
 10 11  1  0
 10  7  1  0
 11 12  1  1
 13 12  1  0
 14 15  1  0
 14 13  1  0
 16 15  1  0
 17 11  1  0
 18 17  2  0
 19 17  1  0
 20 24  1  0
 20 19  1  0
 20 21  1  1
 22 21  1  0
 23 22  2  0
 24 27  1  0
 25 24  2  0
 26 22  1  0
M  END
$$$$
