EKD.pdb
     RDKit          3D

 27 26  0  0  1  0  0  0  0  0999 V2000
   14.1420  -14.9532   15.9250 N   0  0  0  0  0  0  0  0  0  0  0  0
   13.2444  -15.7755   16.6828 C   0  0  1  0  0  0  0  0  0  0  0  0
   13.5608  -17.2356   16.5458 C   0  0  0  0  0  0  0  0  0  0  0  0
   14.7616  -17.5119   17.4599 C   0  0  0  0  0  0  0  0  0  0  0  0
   15.1252  -18.9392   17.4169 C   0  0  0  0  0  0  0  0  0  0  0  0
   14.3229  -19.7934   17.8342 O   0  0  0  0  0  0  0  0  0  0  0  0
   13.1087  -15.3233   18.0772 C   0  0  0  0  0  0  0  0  0  0  0  0
   14.0224  -14.7979   18.7520 O   0  0  0  0  0  0  0  0  0  0  0  0
   16.3518  -19.3267   16.9147 O   0  0  0  0  0  0  0  0  0  0  0  0
   11.8280  -15.5000   18.7104 N   0  0  0  0  0  0  0  0  0  0  0  0
   11.6103  -14.9727   20.0450 C   0  0  1  0  0  0  0  0  0  0  0  0
   10.1493  -14.7529   20.3662 C   0  0  0  0  0  0  0  0  0  0  0  0
    9.5755  -13.7976   19.3635 C   0  0  0  0  0  0  0  0  0  0  0  0
    8.0985  -13.5392   19.5603 C   0  0  0  0  0  0  0  0  0  0  0  0
    7.6071  -12.5100   18.5928 C   0  0  0  0  0  0  0  0  0  0  0  0
    6.1898  -12.2553   18.7524 N   0  0  0  0  0  0  0  0  0  0  0  0
   12.1341  -15.9415   21.0541 C   0  0  0  0  0  0  0  0  0  0  0  0
   11.9588  -17.1697   20.8162 O   0  0  0  0  0  0  0  0  0  0  0  0
   12.7985  -15.5360   22.2275 N   0  0  0  0  0  0  0  0  0  0  0  0
   13.2676  -16.5505   23.1447 C   0  0  1  0  0  0  0  0  0  0  0  0
   14.5673  -16.1069   23.8203 C   0  0  0  0  0  0  0  0  0  0  0  0
   15.5489  -15.7371   22.7753 C   0  0  0  0  0  0  0  0  0  0  0  0
   15.8660  -16.5188   21.8606 O   0  0  0  0  0  0  0  0  0  0  0  0
   12.2455  -16.8249   24.1666 C   0  0  0  0  0  0  0  0  0  0  0  0
   12.4738  -17.6790   25.0509 O   0  0  0  0  0  0  0  0  0  0  0  0
   16.1386  -14.4637   22.8212 O   0  0  0  0  0  0  0  0  0  0  0  0
   11.0566  -16.1532   24.1505 O   0  0  0  0  0  0  0  0  0  0  0  0
  2  1  1  1
  2  7  1  0
  2  3  1  0
  4  3  1  0
  4  5  1  0
  5  6  2  0
  7  8  2  0
  9  5  1  0
 10 11  1  0
 10  7  1  0
 11 12  1  1
 13 12  1  0
 14 15  1  0
 14 13  1  0
 16 15  1  0
 17 11  1  0
 18 17  2  0
 19 17  1  0
 20 24  1  0
 20 19  1  0
 20 21  1  1
 22 21  1  0
 23 22  2  0
 24 27  1  0
 25 24  2  0
 26 22  1  0
M  END
$$$$
