EKD.pdb
     RDKit          3D

 27 26  0  0  1  0  0  0  0  0999 V2000
    8.7719  -16.3454   18.2477 N   0  0  0  0  0  0  0  0  0  0  0  0
    7.8014  -16.3210   19.3030 C   0  0  1  0  0  0  0  0  0  0  0  0
    7.0805  -17.6295   19.4405 C   0  0  0  0  0  0  0  0  0  0  0  0
    8.1533  -18.6969   19.6929 C   0  0  0  0  0  0  0  0  0  0  0  0
    7.5288  -20.0112   19.9249 C   0  0  0  0  0  0  0  0  0  0  0  0
    6.6060  -20.3955   19.1847 O   0  0  0  0  0  0  0  0  0  0  0  0
    8.3575  -15.8112   20.5671 C   0  0  0  0  0  0  0  0  0  0  0  0
    9.5769  -15.7593   20.8438 O   0  0  0  0  0  0  0  0  0  0  0  0
    7.9670  -20.8132   20.9601 O   0  0  0  0  0  0  0  0  0  0  0  0
    7.4271  -15.3375   21.5582 N   0  0  0  0  0  0  0  0  0  0  0  0
    7.9273  -14.7171   22.7712 C   0  0  1  0  0  0  0  0  0  0  0  0
    6.8286  -14.1863   23.6639 C   0  0  0  0  0  0  0  0  0  0  0  0
    7.4548  -13.4677   24.8209 C   0  0  0  0  0  0  0  0  0  0  0  0
    6.4432  -12.9009   25.7917 C   0  0  0  0  0  0  0  0  0  0  0  0
    7.1282  -12.2138   26.9299 C   0  0  0  0  0  0  0  0  0  0  0  0
    6.1801  -11.7069   27.9011 N   0  0  0  0  0  0  0  0  0  0  0  0
    8.6843  -15.7266   23.5705 C   0  0  0  0  0  0  0  0  0  0  0  0
    8.1506  -16.8624   23.7150 O   0  0  0  0  0  0  0  0  0  0  0  0
    9.9390  -15.4559   24.1494 N   0  0  0  0  0  0  0  0  0  0  0  0
   10.7129  -16.5585   24.6748 C   0  0  1  0  0  0  0  0  0  0  0  0
   12.2085  -16.3217   24.4522 C   0  0  0  0  0  0  0  0  0  0  0  0
   12.9640  -17.4629   25.0172 C   0  0  0  0  0  0  0  0  0  0  0  0
   12.3951  -18.4752   25.4642 O   0  0  0  0  0  0  0  0  0  0  0  0
   10.4457  -16.7292   26.1114 C   0  0  0  0  0  0  0  0  0  0  0  0
   10.9860  -17.6724   26.7295 O   0  0  0  0  0  0  0  0  0  0  0  0
   14.3662  -17.3973   25.0479 O   0  0  0  0  0  0  0  0  0  0  0  0
    9.6143  -15.8657   26.7655 O   0  0  0  0  0  0  0  0  0  0  0  0
  2  1  1  6
  2  7  1  0
  2  3  1  0
  4  3  1  0
  4  5  1  0
  5  6  2  0
  7  8  2  0
  9  5  1  0
 10 11  1  0
 10  7  1  0
 11 12  1  1
 13 12  1  0
 14 15  1  0
 14 13  1  0
 16 15  1  0
 17 11  1  0
 18 17  2  0
 19 17  1  0
 20 24  1  0
 20 19  1  0
 20 21  1  1
 22 21  1  0
 23 22  2  0
 24 27  1  0
 25 24  2  0
 26 22  1  0
M  END
$$$$
