EKD.pdb
     RDKit          3D

 27 26  0  0  1  0  0  0  0  0999 V2000
    8.4163  -18.1195   18.2709 N   0  0  0  0  0  0  0  0  0  0  0  0
    9.8054  -17.7958   18.4186 C   0  0  1  0  0  0  0  0  0  0  0  0
   10.4201  -17.3350   17.1299 C   0  0  0  0  0  0  0  0  0  0  0  0
    9.4141  -17.6677   16.0204 C   0  0  0  0  0  0  0  0  0  0  0  0
    9.9152  -17.2057   14.7140 C   0  0  0  0  0  0  0  0  0  0  0  0
   10.2602  -16.0193   14.5696 O   0  0  0  0  0  0  0  0  0  0  0  0
   10.0551  -16.8931   19.5544 C   0  0  0  0  0  0  0  0  0  0  0  0
   11.1618  -16.3778   19.8299 O   0  0  0  0  0  0  0  0  0  0  0  0
   10.0019  -18.0869   13.6544 O   0  0  0  0  0  0  0  0  0  0  0  0
    8.9414  -16.5814   20.4115 N   0  0  0  0  0  0  0  0  0  0  0  0
    9.1519  -15.7579   21.5880 C   0  0  1  0  0  0  0  0  0  0  0  0
    7.8653  -15.3777   22.2852 C   0  0  0  0  0  0  0  0  0  0  0  0
    8.1892  -14.4542   23.4209 C   0  0  0  0  0  0  0  0  0  0  0  0
    6.9665  -13.9808   24.1745 C   0  0  0  0  0  0  0  0  0  0  0  0
    7.3446  -12.9895   25.2286 C   0  0  0  0  0  0  0  0  0  0  0  0
    6.1880  -12.5170   25.9621 N   0  0  0  0  0  0  0  0  0  0  0  0
    9.9759  -16.5104   22.5809 C   0  0  0  0  0  0  0  0  0  0  0  0
    9.6568  -17.7132   22.7984 O   0  0  0  0  0  0  0  0  0  0  0  0
   11.0663  -15.9340   23.2602 N   0  0  0  0  0  0  0  0  0  0  0  0
   11.9488  -16.7968   24.0135 C   0  0  1  0  0  0  0  0  0  0  0  0
   13.3561  -16.1994   24.0837 C   0  0  0  0  0  0  0  0  0  0  0  0
   14.2325  -17.1241   24.8381 C   0  0  0  0  0  0  0  0  0  0  0  0
   14.4986  -16.9485   26.0408 O   0  0  0  0  0  0  0  0  0  0  0  0
   11.4260  -16.9969   25.3740 C   0  0  0  0  0  0  0  0  0  0  0  0
   10.5864  -16.1930   25.8346 O   0  0  0  0  0  0  0  0  0  0  0  0
   14.7789  -18.2329   24.1720 O   0  0  0  0  0  0  0  0  0  0  0  0
   11.8539  -18.0514   26.1289 O   0  0  0  0  0  0  0  0  0  0  0  0
  2  1  1  6
  2  7  1  0
  2  3  1  0
  4  3  1  0
  4  5  1  0
  5  6  2  0
  7  8  2  0
  9  5  1  0
 10 11  1  0
 10  7  1  0
 11 12  1  1
 13 12  1  0
 14 15  1  0
 14 13  1  0
 16 15  1  0
 17 11  1  0
 18 17  2  0
 19 17  1  0
 20 24  1  0
 20 19  1  0
 20 21  1  1
 22 21  1  0
 23 22  2  0
 24 27  1  0
 25 24  2  0
 26 22  1  0
M  END
$$$$
