EKD.pdb
     RDKit          3D

 27 26  0  0  1  0  0  0  0  0999 V2000
    8.0844  -17.6782   20.2173 N   0  0  0  0  0  0  0  0  0  0  0  0
    9.4063  -17.1233   20.1903 C   0  0  1  0  0  0  0  0  0  0  0  0
    9.6489  -16.2962   18.9623 C   0  0  0  0  0  0  0  0  0  0  0  0
    9.2519  -17.1658   17.7623 C   0  0  0  0  0  0  0  0  0  0  0  0
    9.4124  -16.4143   16.5051 C   0  0  0  0  0  0  0  0  0  0  0  0
    8.4531  -15.7705   16.0438 O   0  0  0  0  0  0  0  0  0  0  0  0
    9.7559  -16.4410   21.4471 C   0  0  0  0  0  0  0  0  0  0  0  0
   10.8399  -15.8556   21.6668 O   0  0  0  0  0  0  0  0  0  0  0  0
   10.6235  -16.4246   15.8417 O   0  0  0  0  0  0  0  0  0  0  0  0
    8.7758  -16.4493   22.5014 N   0  0  0  0  0  0  0  0  0  0  0  0
    9.0965  -15.8460   23.7819 C   0  0  1  0  0  0  0  0  0  0  0  0
    7.8725  -15.5031   24.6006 C   0  0  0  0  0  0  0  0  0  0  0  0
    7.9190  -14.0452   24.9465 C   0  0  0  0  0  0  0  0  0  0  0  0
    6.7133  -13.5775   25.7304 C   0  0  0  0  0  0  0  0  0  0  0  0
    6.8370  -12.1282   26.0783 C   0  0  0  0  0  0  0  0  0  0  0  0
    5.6876  -11.6536   26.8217 N   0  0  0  0  0  0  0  0  0  0  0  0
    9.9059  -16.8033   24.5940 C   0  0  0  0  0  0  0  0  0  0  0  0
    9.5442  -18.0137   24.5843 O   0  0  0  0  0  0  0  0  0  0  0  0
   11.0276  -16.4064   25.3469 N   0  0  0  0  0  0  0  0  0  0  0  0
   11.7334  -17.4046   26.1188 C   0  0  1  0  0  0  0  0  0  0  0  0
   13.2448  -17.1759   26.0422 C   0  0  0  0  0  0  0  0  0  0  0  0
   13.6884  -17.3676   24.6426 C   0  0  0  0  0  0  0  0  0  0  0  0
   13.7108  -18.4893   24.1046 O   0  0  0  0  0  0  0  0  0  0  0  0
   11.2961  -17.3656   27.5229 C   0  0  0  0  0  0  0  0  0  0  0  0
   10.4822  -16.4900   27.8894 O   0  0  0  0  0  0  0  0  0  0  0  0
   14.0960  -16.2463   23.9024 O   0  0  0  0  0  0  0  0  0  0  0  0
   11.7747  -18.2774   28.4198 O   0  0  0  0  0  0  0  0  0  0  0  0
  2  1  1  1
  2  7  1  0
  2  3  1  0
  4  3  1  0
  4  5  1  0
  5  6  2  0
  7  8  2  0
  9  5  1  0
 10 11  1  0
 10  7  1  0
 11 12  1  1
 13 12  1  0
 14 15  1  0
 14 13  1  0
 16 15  1  0
 17 11  1  0
 18 17  2  0
 19 17  1  0
 20 24  1  0
 20 19  1  0
 20 21  1  1
 22 21  1  0
 23 22  2  0
 24 27  1  0
 25 24  2  0
 26 22  1  0
M  END
$$$$
