EKD.pdb
     RDKit          3D

 27 26  0  0  1  0  0  0  0  0999 V2000
    8.8211  -16.2581   18.1930 N   0  0  0  0  0  0  0  0  0  0  0  0
    7.9463  -16.4014   19.3202 C   0  0  1  0  0  0  0  0  0  0  0  0
    7.4556  -17.8100   19.4813 C   0  0  0  0  0  0  0  0  0  0  0  0
    8.6605  -18.7258   19.2298 C   0  0  0  0  0  0  0  0  0  0  0  0
    8.2888  -20.1363   19.4381 C   0  0  0  0  0  0  0  0  0  0  0  0
    9.0696  -20.8988   20.0350 O   0  0  0  0  0  0  0  0  0  0  0  0
    8.5136  -15.8236   20.5496 C   0  0  0  0  0  0  0  0  0  0  0  0
    9.7348  -15.6532   20.7637 O   0  0  0  0  0  0  0  0  0  0  0  0
    7.0780  -20.6096   18.9724 O   0  0  0  0  0  0  0  0  0  0  0  0
    7.5928  -15.4255   21.5819 N   0  0  0  0  0  0  0  0  0  0  0  0
    8.0946  -14.7669   22.7739 C   0  0  1  0  0  0  0  0  0  0  0  0
    6.9995  -14.1710   23.6294 C   0  0  0  0  0  0  0  0  0  0  0  0
    7.6304  -13.3652   24.7247 C   0  0  0  0  0  0  0  0  0  0  0  0
    6.6249  -12.6266   25.5794 C   0  0  0  0  0  0  0  0  0  0  0  0
    7.3168  -11.7309   26.5570 C   0  0  0  0  0  0  0  0  0  0  0  0
    6.3739  -11.0295   27.4044 N   0  0  0  0  0  0  0  0  0  0  0  0
    8.8160  -15.7601   23.6248 C   0  0  0  0  0  0  0  0  0  0  0  0
    8.2436  -16.8684   23.8248 O   0  0  0  0  0  0  0  0  0  0  0  0
   10.0788  -15.5037   24.1925 N   0  0  0  0  0  0  0  0  0  0  0  0
   10.6754  -16.5111   25.0409 C   0  0  1  0  0  0  0  0  0  0  0  0
   12.1841  -16.2859   25.1659 C   0  0  0  0  0  0  0  0  0  0  0  0
   12.8412  -16.7361   23.9178 C   0  0  0  0  0  0  0  0  0  0  0  0
   12.3078  -16.5950   22.8025 O   0  0  0  0  0  0  0  0  0  0  0  0
   10.0572  -16.4840   26.3756 C   0  0  0  0  0  0  0  0  0  0  0  0
    9.2210  -15.5951   26.6480 O   0  0  0  0  0  0  0  0  0  0  0  0
   14.1057  -17.3409   23.9991 O   0  0  0  0  0  0  0  0  0  0  0  0
   10.3933  -17.4210   27.3103 O   0  0  0  0  0  0  0  0  0  0  0  0
  2  1  1  6
  2  7  1  0
  2  3  1  0
  4  3  1  0
  4  5  1  0
  5  6  2  0
  7  8  2  0
  9  5  1  0
 10 11  1  0
 10  7  1  0
 11 12  1  1
 13 12  1  0
 14 15  1  0
 14 13  1  0
 16 15  1  0
 17 11  1  0
 18 17  2  0
 19 17  1  0
 20 24  1  0
 20 19  1  0
 20 21  1  1
 22 21  1  0
 23 22  2  0
 24 27  1  0
 25 24  2  0
 26 22  1  0
M  END
$$$$
