EKD.pdb
     RDKit          3D

 27 26  0  0  1  0  0  0  0  0999 V2000
    8.6586  -18.0273   20.9773 N   0  0  0  0  0  0  0  0  0  0  0  0
    9.9360  -18.0832   21.6265 C   0  0  1  0  0  0  0  0  0  0  0  0
   11.0714  -18.0636   20.6461 C   0  0  0  0  0  0  0  0  0  0  0  0
   11.5136  -16.6003   20.5161 C   0  0  0  0  0  0  0  0  0  0  0  0
   12.6444  -16.4843   19.5786 C   0  0  0  0  0  0  0  0  0  0  0  0
   13.7129  -15.9744   19.9603 O   0  0  0  0  0  0  0  0  0  0  0  0
   10.0627  -17.0895   22.7052 C   0  0  0  0  0  0  0  0  0  0  0  0
   11.1253  -16.8187   23.3084 O   0  0  0  0  0  0  0  0  0  0  0  0
   12.5182  -16.9404   18.2813 O   0  0  0  0  0  0  0  0  0  0  0  0
    8.8739  -16.3771   23.0943 N   0  0  0  0  0  0  0  0  0  0  0  0
    8.9406  -15.4078   24.1725 C   0  0  1  0  0  0  0  0  0  0  0  0
    7.6843  -14.5767   24.3031 C   0  0  0  0  0  0  0  0  0  0  0  0
    7.8791  -13.5819   25.4074 C   0  0  0  0  0  0  0  0  0  0  0  0
    6.6813  -12.6840   25.6222 C   0  0  0  0  0  0  0  0  0  0  0  0
    6.9290  -11.7300   26.7471 C   0  0  0  0  0  0  0  0  0  0  0  0
    5.7985  -10.8506   26.9652 N   0  0  0  0  0  0  0  0  0  0  0  0
    9.1245  -16.1210   25.4719 C   0  0  0  0  0  0  0  0  0  0  0  0
    8.2452  -16.9701   25.7906 O   0  0  0  0  0  0  0  0  0  0  0  0
   10.2183  -15.8811   26.3255 N   0  0  0  0  0  0  0  0  0  0  0  0
   10.3633  -16.6941   27.5124 C   0  0  1  0  0  0  0  0  0  0  0  0
   11.4927  -17.7115   27.3341 C   0  0  0  0  0  0  0  0  0  0  0  0
   11.5257  -18.6032   28.5157 C   0  0  0  0  0  0  0  0  0  0  0  0
   10.5269  -18.7831   29.2355 O   0  0  0  0  0  0  0  0  0  0  0  0
   10.6406  -15.8443   28.6809 C   0  0  0  0  0  0  0  0  0  0  0  0
   10.7972  -14.6139   28.5231 O   0  0  0  0  0  0  0  0  0  0  0  0
   12.7234  -19.2647   28.8308 O   0  0  0  0  0  0  0  0  0  0  0  0
   10.7269  -16.3938   29.9281 O   0  0  0  0  0  0  0  0  0  0  0  0
  2  1  1  6
  2  7  1  0
  2  3  1  0
  4  3  1  0
  4  5  1  0
  5  6  2  0
  7  8  2  0
  9  5  1  0
 10 11  1  0
 10  7  1  0
 11 12  1  1
 13 12  1  0
 14 15  1  0
 14 13  1  0
 16 15  1  0
 17 11  1  0
 18 17  2  0
 19 17  1  0
 20 24  1  0
 20 19  1  0
 20 21  1  6
 22 21  1  0
 23 22  2  0
 24 27  1  0
 25 24  2  0
 26 22  1  0
M  END
$$$$
