EKD.pdb
     RDKit          3D

 27 26  0  0  1  0  0  0  0  0999 V2000
    9.6637  -16.9158   17.0821 N   0  0  0  0  0  0  0  0  0  0  0  0
    8.9380  -17.2951   18.2592 C   0  0  1  0  0  0  0  0  0  0  0  0
    8.9025  -18.7829   18.4484 C   0  0  0  0  0  0  0  0  0  0  0  0
   10.3157  -19.2053   18.8706 C   0  0  0  0  0  0  0  0  0  0  0  0
   10.3961  -20.6698   19.0112 C   0  0  0  0  0  0  0  0  0  0  0  0
    9.3934  -21.3683   18.7783 O   0  0  0  0  0  0  0  0  0  0  0  0
    9.3750  -16.5527   19.4531 C   0  0  0  0  0  0  0  0  0  0  0  0
   10.5222  -16.0829   19.6243 O   0  0  0  0  0  0  0  0  0  0  0  0
   11.5803  -21.2645   19.3998 O   0  0  0  0  0  0  0  0  0  0  0  0
    8.4086  -16.3536   20.5012 N   0  0  0  0  0  0  0  0  0  0  0  0
    8.7572  -15.5399   21.6514 C   0  0  1  0  0  0  0  0  0  0  0  0
    7.5811  -15.2590   22.5591 C   0  0  0  0  0  0  0  0  0  0  0  0
    7.9956  -14.2450   23.5825 C   0  0  0  0  0  0  0  0  0  0  0  0
    6.8597  -13.7960   24.4742 C   0  0  0  0  0  0  0  0  0  0  0  0
    7.3233  -12.7488   25.4361 C   0  0  0  0  0  0  0  0  0  0  0  0
    6.3193  -12.4580   26.4393 N   0  0  0  0  0  0  0  0  0  0  0  0
    9.7783  -16.2541   22.4749 C   0  0  0  0  0  0  0  0  0  0  0  0
    9.5597  -17.4714   22.7321 O   0  0  0  0  0  0  0  0  0  0  0  0
   10.9433  -15.6274   22.9573 N   0  0  0  0  0  0  0  0  0  0  0  0
   11.9280  -16.4306   23.6471 C   0  0  1  0  0  0  0  0  0  0  0  0
   13.2836  -15.7202   23.6688 C   0  0  0  0  0  0  0  0  0  0  0  0
   14.3084  -16.6585   24.1803 C   0  0  0  0  0  0  0  0  0  0  0  0
   14.0413  -17.8419   24.4569 O   0  0  0  0  0  0  0  0  0  0  0  0
   11.4885  -16.7033   25.0243 C   0  0  0  0  0  0  0  0  0  0  0  0
   10.5771  -16.0106   25.5275 O   0  0  0  0  0  0  0  0  0  0  0  0
   15.6218  -16.1949   24.3577 O   0  0  0  0  0  0  0  0  0  0  0  0
   12.0705  -17.7041   25.7485 O   0  0  0  0  0  0  0  0  0  0  0  0
  2  1  1  6
  2  7  1  0
  2  3  1  0
  4  3  1  0
  4  5  1  0
  5  6  2  0
  7  8  2  0
  9  5  1  0
 10 11  1  0
 10  7  1  0
 11 12  1  1
 13 12  1  0
 14 15  1  0
 14 13  1  0
 16 15  1  0
 17 11  1  0
 18 17  2  0
 19 17  1  0
 20 24  1  0
 20 19  1  0
 20 21  1  1
 22 21  1  0
 23 22  2  0
 24 27  1  0
 25 24  2  0
 26 22  1  0
M  END
$$$$
