EKD.pdb
     RDKit          3D

 27 26  0  0  1  0  0  0  0  0999 V2000
    7.6164  -18.5521   19.1077 N   0  0  0  0  0  0  0  0  0  0  0  0
    8.9550  -18.0604   18.9571 C   0  0  1  0  0  0  0  0  0  0  0  0
    9.2555  -17.6587   17.5432 C   0  0  0  0  0  0  0  0  0  0  0  0
    8.1589  -16.6705   17.1254 C   0  0  0  0  0  0  0  0  0  0  0  0
    8.3326  -16.2720   15.7175 C   0  0  0  0  0  0  0  0  0  0  0  0
    7.5345  -15.4705   15.1999 O   0  0  0  0  0  0  0  0  0  0  0  0
    9.2915  -17.0305   19.9537 C   0  0  0  0  0  0  0  0  0  0  0  0
   10.3422  -16.3508   19.9545 O   0  0  0  0  0  0  0  0  0  0  0  0
    9.3778  -16.7863   14.9759 O   0  0  0  0  0  0  0  0  0  0  0  0
    8.3391  -16.7890   21.0057 N   0  0  0  0  0  0  0  0  0  0  0  0
    8.6241  -15.7830   22.0124 C   0  0  1  0  0  0  0  0  0  0  0  0
    7.3919  -15.3223   22.7578 C   0  0  0  0  0  0  0  0  0  0  0  0
    7.7910  -14.2559   23.7329 C   0  0  0  0  0  0  0  0  0  0  0  0
    6.6215  -13.6730   24.4940 C   0  0  0  0  0  0  0  0  0  0  0  0
    7.0871  -12.6430   25.4734 C   0  0  0  0  0  0  0  0  0  0  0  0
    5.9798  -12.0419   26.1887 N   0  0  0  0  0  0  0  0  0  0  0  0
    9.5591  -16.3490   23.0305 C   0  0  0  0  0  0  0  0  0  0  0  0
    9.2193  -17.4331   23.5827 O   0  0  0  0  0  0  0  0  0  0  0  0
   10.7728  -15.7268   23.3807 N   0  0  0  0  0  0  0  0  0  0  0  0
   11.7873  -16.5118   24.0479 C   0  0  1  0  0  0  0  0  0  0  0  0
   13.1681  -15.8784   23.8615 C   0  0  0  0  0  0  0  0  0  0  0  0
   14.1798  -16.7290   24.5288 C   0  0  0  0  0  0  0  0  0  0  0  0
   13.9939  -17.9429   24.7291 O   0  0  0  0  0  0  0  0  0  0  0  0
   11.4824  -16.6243   25.4827 C   0  0  0  0  0  0  0  0  0  0  0  0
   10.7275  -15.7839   26.0187 O   0  0  0  0  0  0  0  0  0  0  0  0
   15.3855  -16.1439   24.9477 O   0  0  0  0  0  0  0  0  0  0  0  0
   12.0191  -17.6376   26.2243 O   0  0  0  0  0  0  0  0  0  0  0  0
  2  1  1  6
  2  7  1  0
  2  3  1  0
  4  3  1  0
  4  5  1  0
  5  6  2  0
  7  8  2  0
  9  5  1  0
 10 11  1  0
 10  7  1  0
 11 12  1  1
 13 12  1  0
 14 15  1  0
 14 13  1  0
 16 15  1  0
 17 11  1  0
 18 17  2  0
 19 17  1  0
 20 24  1  0
 20 19  1  0
 20 21  1  1
 22 21  1  0
 23 22  2  0
 24 27  1  0
 25 24  2  0
 26 22  1  0
M  END
$$$$
