EKD.pdb
     RDKit          3D

 27 26  0  0  1  0  0  0  0  0999 V2000
    8.1604  -17.5174   20.1093 N   0  0  0  0  0  0  0  0  0  0  0  0
    9.5532  -17.2427   20.3114 C   0  0  1  0  0  0  0  0  0  0  0  0
   10.2035  -16.6774   19.0833 C   0  0  0  0  0  0  0  0  0  0  0  0
   11.2983  -17.6697   18.6705 C   0  0  0  0  0  0  0  0  0  0  0  0
   11.5515  -17.5852   17.2214 C   0  0  0  0  0  0  0  0  0  0  0  0
   10.8924  -16.7929   16.5247 O   0  0  0  0  0  0  0  0  0  0  0  0
    9.8004  -16.4576   21.5319 C   0  0  0  0  0  0  0  0  0  0  0  0
   10.9318  -16.1393   21.9619 O   0  0  0  0  0  0  0  0  0  0  0  0
   12.5171  -18.3824   16.6392 O   0  0  0  0  0  0  0  0  0  0  0  0
    8.6533  -16.0247   22.2862 N   0  0  0  0  0  0  0  0  0  0  0  0
    8.8428  -15.2177   23.4776 C   0  0  1  0  0  0  0  0  0  0  0  0
    7.5677  -14.5659   23.9629 C   0  0  0  0  0  0  0  0  0  0  0  0
    7.8898  -13.7011   25.1443 C   0  0  0  0  0  0  0  0  0  0  0  0
    6.7041  -12.9079   25.6462 C   0  0  0  0  0  0  0  0  0  0  0  0
    7.1047  -12.0141   26.7765 C   0  0  0  0  0  0  0  0  0  0  0  0
    6.0186  -11.1481   27.1880 N   0  0  0  0  0  0  0  0  0  0  0  0
    9.3373  -16.0824   24.5906 C   0  0  0  0  0  0  0  0  0  0  0  0
    8.6614  -17.1151   24.8596 O   0  0  0  0  0  0  0  0  0  0  0  0
   10.5016  -15.7878   25.3258 N   0  0  0  0  0  0  0  0  0  0  0  0
   10.9844  -16.7611   26.2797 C   0  0  1  0  0  0  0  0  0  0  0  0
   12.4998  -16.9341   26.1531 C   0  0  0  0  0  0  0  0  0  0  0  0
   12.8146  -18.3800   26.1009 C   0  0  0  0  0  0  0  0  0  0  0  0
   13.9203  -18.8284   26.4539 O   0  0  0  0  0  0  0  0  0  0  0  0
   10.6451  -16.3438   27.6491 C   0  0  0  0  0  0  0  0  0  0  0  0
   10.4135  -15.1379   27.8848 O   0  0  0  0  0  0  0  0  0  0  0  0
   11.8323  -19.2700   25.6380 O   0  0  0  0  0  0  0  0  0  0  0  0
   10.5839  -17.2648   28.6554 O   0  0  0  0  0  0  0  0  0  0  0  0
  2  1  1  6
  2  7  1  0
  2  3  1  0
  4  3  1  0
  4  5  1  0
  5  6  2  0
  7  8  2  0
  9  5  1  0
 10 11  1  0
 10  7  1  0
 11 12  1  1
 13 12  1  0
 14 15  1  0
 14 13  1  0
 16 15  1  0
 17 11  1  0
 18 17  2  0
 19 17  1  0
 20 24  1  0
 20 19  1  0
 20 21  1  1
 22 21  1  0
 23 22  2  0
 24 27  1  0
 25 24  2  0
 26 22  1  0
M  END
$$$$
