MDE.pdb
     RDKit          3D

 26 25  0  0  1  0  0  0  0  0999 V2000
   11.1545  -11.0571  -14.5472 C   0  0  0  0  0  0  0  0  0  0  0  0
   11.5429  -12.7887  -14.5278 S   0  0  0  0  0  0  0  0  0  0  0  0
   13.1713  -13.2755  -15.0091 C   0  0  0  0  0  0  0  0  0  0  0  0
   14.2730  -12.3660  -14.6332 C   0  0  0  0  0  0  0  0  0  0  0  0
   15.6011  -12.7115  -15.1557 C   0  0  2  0  0  0  0  0  0  0  0  0
   16.0093  -14.0477  -14.8959 N   0  0  0  0  0  0  0  0  0  0  0  0
   16.6283  -11.7642  -14.6248 C   0  0  0  0  0  0  0  0  0  0  0  0
   17.1009  -11.9620  -13.4928 O   0  0  0  0  0  0  0  0  0  0  0  0
   17.0546  -10.6698  -15.3883 N   0  0  0  0  0  0  0  0  0  0  0  0
   18.0899   -9.7767  -14.8040 C   0  0  1  0  0  0  0  0  0  0  0  0
   18.9683   -9.3484  -15.9419 C   0  0  0  0  0  0  0  0  0  0  0  0
   19.9602   -8.3410  -15.7390 C   0  0  0  0  0  0  0  0  0  0  0  0
   20.2796   -7.3704  -16.4466 O   0  0  0  0  0  0  0  0  0  0  0  0
   17.3298   -8.6858  -14.1568 C   0  0  0  0  0  0  0  0  0  0  0  0
   16.2905   -8.2463  -14.7729 O   0  0  0  0  0  0  0  0  0  0  0  0
   20.7347   -8.4217  -14.5413 O   0  0  0  0  0  0  0  0  0  0  0  0
   17.5943   -8.0590  -12.9355 N   0  0  0  0  0  0  0  0  0  0  0  0
   16.8184   -6.9088  -12.4798 C   0  0  1  0  0  0  0  0  0  0  0  0
   16.9084   -6.8665  -10.9833 C   0  0  0  0  0  0  0  0  0  0  0  0
   16.1912   -5.6684  -10.4246 C   0  0  0  0  0  0  0  0  0  0  0  0
   16.4739   -5.5879   -8.9717 C   0  0  0  0  0  0  0  0  0  0  0  0
   17.2529   -6.4044   -8.4421 O   0  0  0  0  0  0  0  0  0  0  0  0
   17.3114   -5.6553  -13.0683 C   0  0  0  0  0  0  0  0  0  0  0  0
   16.4650   -4.5883  -13.2760 O   0  0  0  0  0  0  0  0  0  0  0  0
   15.8953   -4.6250   -8.1722 O   0  0  0  0  0  0  0  0  0  0  0  0
   18.5132   -5.5541  -13.3852 O   0  0  0  0  0  0  0  0  0  0  0  0
  2  1  1  0
  3  2  1  0
  4  3  1  0
  4  5  1  0
  5  6  1  1
  5  7  1  0
  7  8  2  0
  9  7  1  0
  9 10  1  0
 11 12  1  0
 10 11  1  6
 12 16  1  0
 13 12  2  0
 14 10  1  0
 14 15  2  0
 17 14  1  0
 18 17  1  0
 18 23  1  0
 18 19  1  1
 20 19  1  0
 20 21  1  0
 21 25  1  0
 22 21  2  0
 23 24  1  0
 26 23  2  0
M  END
$$$$
