MDE.pdb
     RDKit          3D

 26 25  0  0  1  0  0  0  0  0999 V2000
   17.8635  -12.1633  -16.1377 C   0  0  0  0  0  0  0  0  0  0  0  0
   19.5912  -12.4481  -16.4271 S   0  0  0  0  0  0  0  0  0  0  0  0
   20.7010  -11.0924  -16.2015 C   0  0  0  0  0  0  0  0  0  0  0  0
   20.1311   -9.8592  -15.6212 C   0  0  0  0  0  0  0  0  0  0  0  0
   21.0682   -8.7454  -15.4268 C   0  0  2  0  0  0  0  0  0  0  0  0
   22.1371   -9.0215  -14.5322 N   0  0  0  0  0  0  0  0  0  0  0  0
   20.3348   -7.5269  -14.9664 C   0  0  0  0  0  0  0  0  0  0  0  0
   20.3918   -7.2080  -13.7668 O   0  0  0  0  0  0  0  0  0  0  0  0
   19.5942   -6.7537  -15.8698 N   0  0  0  0  0  0  0  0  0  0  0  0
   19.0365   -5.4635  -15.3848 C   0  0  1  0  0  0  0  0  0  0  0  0
   19.5836   -4.4005  -16.2908 C   0  0  0  0  0  0  0  0  0  0  0  0
   19.1655   -3.0438  -16.1346 C   0  0  0  0  0  0  0  0  0  0  0  0
   18.3466   -2.5385  -15.3478 O   0  0  0  0  0  0  0  0  0  0  0  0
   17.5692   -5.6380  -15.4416 C   0  0  0  0  0  0  0  0  0  0  0  0
   17.1124   -6.5209  -16.2569 O   0  0  0  0  0  0  0  0  0  0  0  0
   19.7588   -2.0756  -17.0014 O   0  0  0  0  0  0  0  0  0  0  0  0
   16.5924   -4.9594  -14.7070 N   0  0  0  0  0  0  0  0  0  0  0  0
   15.1780   -5.3092  -14.8050 C   0  0  1  0  0  0  0  0  0  0  0  0
   15.0253   -6.7181  -14.3137 C   0  0  0  0  0  0  0  0  0  0  0  0
   13.5966   -7.1790  -14.4057 C   0  0  0  0  0  0  0  0  0  0  0  0
   13.5277   -8.5873  -13.9484 C   0  0  0  0  0  0  0  0  0  0  0  0
   13.4829   -8.8454  -12.7297 O   0  0  0  0  0  0  0  0  0  0  0  0
   14.3371   -4.3900  -14.0249 C   0  0  0  0  0  0  0  0  0  0  0  0
   12.9628   -4.4703  -14.0753 O   0  0  0  0  0  0  0  0  0  0  0  0
   13.5112   -9.6395  -14.8393 O   0  0  0  0  0  0  0  0  0  0  0  0
   14.8738   -3.5238  -13.3062 O   0  0  0  0  0  0  0  0  0  0  0  0
  2  1  1  0
  3  2  1  0
  4  3  1  0
  4  5  1  0
  5  6  1  1
  5  7  1  0
  7  8  2  0
  9  7  1  0
  9 10  1  0
 11 12  1  0
 10 11  1  6
 12 16  1  0
 13 12  2  0
 14 10  1  0
 14 15  2  0
 17 14  1  0
 18 17  1  0
 18 23  1  0
 18 19  1  1
 20 19  1  0
 20 21  1  0
 21 25  1  0
 22 21  2  0
 23 24  1  0
 26 23  2  0
M  END
$$$$
