MDE.pdb
     RDKit          3D

 26 25  0  0  1  0  0  0  0  0999 V2000
   20.7069  -31.8394   -9.6803 C   0  0  0  0  0  0  0  0  0  0  0  0
   21.9664  -31.5886   -8.4553 S   0  0  0  0  0  0  0  0  0  0  0  0
   23.6038  -32.1348   -8.8304 C   0  0  0  0  0  0  0  0  0  0  0  0
   24.6064  -32.0121   -7.7523 C   0  0  0  0  0  0  0  0  0  0  0  0
   25.9668  -32.4549   -8.0836 C   0  0  2  0  0  0  0  0  0  0  0  0
   26.1151  -32.9769   -9.3970 N   0  0  0  0  0  0  0  0  0  0  0  0
   26.4382  -33.4662   -7.0889 C   0  0  0  0  0  0  0  0  0  0  0  0
   26.2320  -34.6710   -7.3123 O   0  0  0  0  0  0  0  0  0  0  0  0
   27.1026  -33.0664   -5.9223 N   0  0  0  0  0  0  0  0  0  0  0  0
   27.5591  -34.1268   -4.9852 C   0  0  1  0  0  0  0  0  0  0  0  0
   28.8622  -33.6521   -4.4138 C   0  0  0  0  0  0  0  0  0  0  0  0
   29.5155  -34.4124   -3.3964 C   0  0  0  0  0  0  0  0  0  0  0  0
   29.9749  -34.0598   -2.2966 O   0  0  0  0  0  0  0  0  0  0  0  0
   26.4610  -34.2663   -4.0047 C   0  0  0  0  0  0  0  0  0  0  0  0
   25.9046  -33.1856   -3.5860 O   0  0  0  0  0  0  0  0  0  0  0  0
   29.6907  -35.8093   -3.6387 O   0  0  0  0  0  0  0  0  0  0  0  0
   25.9332  -35.4429   -3.4649 N   0  0  0  0  0  0  0  0  0  0  0  0
   24.8591  -35.4184   -2.4757 C   0  0  1  0  0  0  0  0  0  0  0  0
   24.2338  -36.7816   -2.4530 C   0  0  0  0  0  0  0  0  0  0  0  0
   23.1266  -36.8600   -1.4382 C   0  0  0  0  0  0  0  0  0  0  0  0
   22.6286  -38.2554   -1.3941 C   0  0  0  0  0  0  0  0  0  0  0  0
   21.7908  -38.5914   -0.5344 O   0  0  0  0  0  0  0  0  0  0  0  0
   25.3582  -35.0504   -1.1430 C   0  0  0  0  0  0  0  0  0  0  0  0
   24.5722  -34.3394   -0.2629 O   0  0  0  0  0  0  0  0  0  0  0  0
   23.0674  -39.2109   -2.2862 O   0  0  0  0  0  0  0  0  0  0  0  0
   26.5098  -35.3856   -0.8021 O   0  0  0  0  0  0  0  0  0  0  0  0
  2  1  1  0
  3  2  1  0
  4  3  1  0
  4  5  1  0
  5  6  1  6
  5  7  1  0
  7  8  2  0
  9  7  1  0
  9 10  1  0
 11 12  1  0
 10 11  1  1
 12 16  1  0
 13 12  2  0
 14 10  1  0
 14 15  2  0
 17 14  1  0
 18 17  1  0
 18 23  1  0
 18 19  1  1
 20 19  1  0
 20 21  1  0
 21 25  1  0
 22 21  2  0
 23 24  1  0
 26 23  2  0
M  END
$$$$
