ACV.pdb
     RDKit          3D

 19 18  0  0  1  0  0  0  0  0999 V2000
    6.4241  -15.8725   21.6513 C   0  0  0  0  0  0  0  0  0  0  0  0
    7.0544  -14.5076   21.5656 C   0  0  2  0  0  0  0  0  0  0  0  0
    7.8438  -14.3432   20.3845 N   0  0  0  0  0  0  0  0  0  0  0  0
    7.8689  -14.2116   22.7938 C   0  0  0  0  0  0  0  0  0  0  0  0
    9.1183  -14.3366   22.7742 O   0  0  0  0  0  0  0  0  0  0  0  0
    7.2742  -13.7843   24.0119 N   0  0  0  0  0  0  0  0  0  0  0  0
    8.1033  -13.4556   25.1506 C   0  0  1  0  0  0  0  0  0  0  0  0
    7.3147  -12.4939   26.0166 C   0  0  0  0  0  0  0  0  0  0  0  0
    5.6970  -13.1282   26.4508 S   0  0  0  0  0  0  0  0  0  0  0  0
    8.3758  -14.6803   25.9819 C   0  0  0  0  0  0  0  0  0  0  0  0
    7.4626  -15.5292   26.1151 O   0  0  0  0  0  0  0  0  0  0  0  0
   12.2760  -16.0374   26.6916 C   0  0  0  0  0  0  0  0  0  0  0  0
   11.0365  -16.8775   26.7030 C   0  0  2  0  0  0  0  0  0  0  0  0
   10.6611  -17.3083   25.2992 C   0  0  0  0  0  0  0  0  0  0  0  0
    9.9176  -16.1002   27.3558 C   0  0  2  0  0  0  0  0  0  0  0  0
    9.6133  -14.8974   26.6073 N   0  0  0  0  0  0  0  0  0  0  0  0
   10.1956  -15.7465   28.7548 C   0  0  0  0  0  0  0  0  0  0  0  0
   10.4262  -16.7209   29.7133 O   0  0  0  0  0  0  0  0  0  0  0  0
   10.2332  -14.5475   29.1272 O   0  0  0  0  0  0  0  0  0  0  0  0
  2  1  1  1
  2  3  1  0
  4  2  1  0
  5  4  2  0
  6  4  1  0
  7  6  1  0
  7  8  1  1
  8  9  1  0
 10 16  1  0
 10  7  1  0
 11 10  2  0
 13 12  1  6
 13 14  1  0
 15 13  1  0
 15 16  1  6
 17 15  1  0
 17 18  1  0
 19 17  2  0
M  END
$$$$
