ACV.pdb
     RDKit          3D

 19 18  0  0  1  0  0  0  0  0999 V2000
    6.8820  -16.3536   21.5019 C   0  0  0  0  0  0  0  0  0  0  0  0
    7.1713  -14.8786   21.4104 C   0  0  2  0  0  0  0  0  0  0  0  0
    8.0167  -14.5550   20.3033 N   0  0  0  0  0  0  0  0  0  0  0  0
    7.7580  -14.3633   22.6947 C   0  0  0  0  0  0  0  0  0  0  0  0
    9.0023  -14.3429   22.8628 O   0  0  0  0  0  0  0  0  0  0  0  0
    6.9471  -13.8840   23.7591 N   0  0  0  0  0  0  0  0  0  0  0  0
    7.5556  -13.4308   24.9905 C   0  0  1  0  0  0  0  0  0  0  0  0
    6.4791  -12.7227   25.7883 C   0  0  0  0  0  0  0  0  0  0  0  0
    7.0293  -12.2652   27.4303 S   0  0  0  0  0  0  0  0  0  0  0  0
    8.0227  -14.5999   25.8152 C   0  0  0  0  0  0  0  0  0  0  0  0
    7.2288  -15.5507   26.0101 O   0  0  0  0  0  0  0  0  0  0  0  0
   12.1058  -15.4046   26.6172 C   0  0  0  0  0  0  0  0  0  0  0  0
   10.9899  -16.4020   26.6661 C   0  0  2  0  0  0  0  0  0  0  0  0
   10.7253  -16.9866   25.2931 C   0  0  0  0  0  0  0  0  0  0  0  0
    9.7548  -15.7359   27.2259 C   0  0  2  0  0  0  0  0  0  0  0  0
    9.3115  -14.6557   26.3679 N   0  0  0  0  0  0  0  0  0  0  0  0
    9.9377  -15.2289   28.5930 C   0  0  0  0  0  0  0  0  0  0  0  0
   10.2168  -16.0833   29.6482 O   0  0  0  0  0  0  0  0  0  0  0  0
    9.8468  -14.0027   28.8492 O   0  0  0  0  0  0  0  0  0  0  0  0
  2  1  1  1
  2  3  1  0
  4  2  1  0
  5  4  2  0
  6  4  1  0
  7  6  1  0
  7  8  1  1
  8  9  1  0
 10 16  1  0
 10  7  1  0
 11 10  2  0
 13 12  1  6
 13 14  1  0
 15 13  1  0
 15 16  1  6
 17 15  1  0
 17 18  1  0
 19 17  2  0
M  END
$$$$
