ACV.pdb
     RDKit          3D

 19 18  0  0  1  0  0  0  0  0999 V2000
    6.6379  -15.0287   20.5266 C   0  0  0  0  0  0  0  0  0  0  0  0
    7.0925  -13.6416   20.8966 C   0  0  2  0  0  0  0  0  0  0  0  0
    7.9264  -13.0541   19.8943 N   0  0  0  0  0  0  0  0  0  0  0  0
    7.7842  -13.6388   22.2311 C   0  0  0  0  0  0  0  0  0  0  0  0
    9.0301  -13.7785   22.3024 O   0  0  0  0  0  0  0  0  0  0  0  0
    7.0737  -13.4807   23.4519 N   0  0  0  0  0  0  0  0  0  0  0  0
    7.7793  -13.5134   24.7141 C   0  0  1  0  0  0  0  0  0  0  0  0
    6.9122  -12.7986   25.7310 C   0  0  0  0  0  0  0  0  0  0  0  0
    7.6008  -12.8566   27.3834 S   0  0  0  0  0  0  0  0  0  0  0  0
    7.9487  -14.9301   25.1928 C   0  0  0  0  0  0  0  0  0  0  0  0
    6.9369  -15.6688   25.2480 O   0  0  0  0  0  0  0  0  0  0  0  0
   11.6487  -16.9264   25.1028 C   0  0  0  0  0  0  0  0  0  0  0  0
   10.2965  -17.5697   25.0978 C   0  0  2  0  0  0  0  0  0  0  0  0
    9.7287  -17.6261   23.6937 C   0  0  0  0  0  0  0  0  0  0  0  0
    9.3824  -16.8080   26.0288 C   0  0  2  0  0  0  0  0  0  0  0  0
    9.1971  -15.4440   25.5761 N   0  0  0  0  0  0  0  0  0  0  0  0
    9.8489  -16.7999   27.4223 C   0  0  0  0  0  0  0  0  0  0  0  0
    9.9261  -17.9683   28.1642 O   0  0  0  0  0  0  0  0  0  0  0  0
   10.1933  -15.7319   27.9865 O   0  0  0  0  0  0  0  0  0  0  0  0
  2  1  1  6
  2  3  1  0
  4  2  1  0
  5  4  2  0
  6  4  1  0
  7  6  1  0
  7  8  1  1
  8  9  1  0
 10 16  1  0
 10  7  1  0
 11 10  2  0
 13 12  1  6
 13 14  1  0
 15 13  1  0
 15 16  1  6
 17 15  1  0
 17 18  1  0
 19 17  2  0
M  END
$$$$
