ACV.pdb
     RDKit          3D

 19 18  0  0  1  0  0  0  0  0999 V2000
    8.2698  -17.1734   21.1844 C   0  0  0  0  0  0  0  0  0  0  0  0
    8.2451  -15.6759   21.0276 C   0  0  2  0  0  0  0  0  0  0  0  0
    9.1851  -15.2125   20.0545 N   0  0  0  0  0  0  0  0  0  0  0  0
    8.4666  -14.9917   22.3475 C   0  0  0  0  0  0  0  0  0  0  0  0
    9.6237  -14.6612   22.7066 O   0  0  0  0  0  0  0  0  0  0  0  0
    7.3970  -14.6924   23.2342 N   0  0  0  0  0  0  0  0  0  0  0  0
    7.6566  -14.0141   24.4851 C   0  0  1  0  0  0  0  0  0  0  0  0
    6.3131  -13.6567   25.0885 C   0  0  0  0  0  0  0  0  0  0  0  0
    6.4691  -12.7227   26.6088 S   0  0  0  0  0  0  0  0  0  0  0  0
    8.3486  -14.9332   25.4554 C   0  0  0  0  0  0  0  0  0  0  0  0
    8.1791  -16.1697   25.3342 O   0  0  0  0  0  0  0  0  0  0  0  0
   11.7013  -15.4253   29.0649 C   0  0  0  0  0  0  0  0  0  0  0  0
   10.8867  -14.4956   28.2196 C   0  0  2  0  0  0  0  0  0  0  0  0
   10.0365  -13.5841   29.0818 C   0  0  0  0  0  0  0  0  0  0  0  0
   10.0340  -15.3066   27.2722 C   0  0  2  0  0  0  0  0  0  0  0  0
    9.1718  -14.4494   26.4839 N   0  0  0  0  0  0  0  0  0  0  0  0
    9.2204  -16.3251   27.9506 C   0  0  0  0  0  0  0  0  0  0  0  0
    9.7830  -17.4995   28.4255 O   0  0  0  0  0  0  0  0  0  0  0  0
    7.9866  -16.1634   28.1220 O   0  0  0  0  0  0  0  0  0  0  0  0
  2  1  1  1
  2  3  1  0
  4  2  1  0
  5  4  2  0
  6  4  1  0
  7  6  1  0
  7  8  1  1
  8  9  1  0
 10 16  1  0
 10  7  1  0
 11 10  2  0
 13 12  1  1
 13 14  1  0
 15 13  1  0
 15 16  1  1
 17 15  1  0
 17 18  1  0
 19 17  2  0
M  END
$$$$
