YST.pdb
     RDKit          3D

 26 26  0  0  1  0  0  0  0  0999 V2000
   19.8014  -23.4156   -6.7986 O   0  0  0  0  0  0  0  0  0  0  0  0
   20.6138  -22.6571   -7.6567 C   0  0  0  0  0  0  0  0  0  0  0  0
   20.5358  -22.7674   -9.0247 C   0  0  0  0  0  0  0  0  0  0  0  0
   21.3681  -21.9878   -9.8031 C   0  0  0  0  0  0  0  0  0  0  0  0
   22.2536  -21.1220   -9.2205 C   0  0  0  0  0  0  0  0  0  0  0  0
   23.1426  -20.2951  -10.0459 C   0  0  0  0  0  0  0  0  0  0  0  0
   24.3552  -21.1079  -10.4410 C   0  0  2  0  0  0  0  0  0  0  0  0
   25.2609  -21.1843   -9.2771 N   0  0  0  0  0  0  0  0  0  0  0  0
   25.0694  -20.4964  -11.5808 C   0  0  0  0  0  0  0  0  0  0  0  0
   25.8748  -19.5464  -11.4872 O   0  0  0  0  0  0  0  0  0  0  0  0
   22.3161  -21.0266   -7.8542 C   0  0  0  0  0  0  0  0  0  0  0  0
   21.5007  -21.7890   -7.0425 C   0  0  0  0  0  0  0  0  0  0  0  0
   25.6587  -22.6424  -14.7632 O   0  0  0  0  0  0  0  0  0  0  0  0
   26.3815  -21.4413  -14.6408 C   0  0  0  0  0  0  0  0  0  0  0  0
   25.3994  -20.4086  -14.0750 C   0  0  2  0  0  0  0  0  0  0  0  0
   24.8264  -21.0241  -12.8848 N   0  0  0  0  0  0  0  0  0  0  0  0
   24.3494  -20.1856  -15.0903 C   0  0  0  0  0  0  0  0  0  0  0  0
   23.2404  -20.7663  -15.0227 O   0  0  0  0  0  0  0  0  0  0  0  0
   22.6783  -17.1917  -18.5491 C   0  0  0  0  0  0  0  0  0  0  0  0
   23.7048  -17.5626  -17.4946 C   0  0  1  0  0  0  0  0  0  0  0  0
   23.4883  -16.7869  -16.3677 O   0  0  0  0  0  0  0  0  0  0  0  0
   23.5928  -19.0358  -17.1372 C   0  0  2  0  0  0  0  0  0  0  0  0
   24.6174  -19.2956  -16.1540 N   0  0  0  0  0  0  0  0  0  0  0  0
   23.7406  -19.8989  -18.3187 C   0  0  0  0  0  0  0  0  0  0  0  0
   22.6342  -20.4070  -18.9511 O   0  0  0  0  0  0  0  0  0  0  0  0
   24.8874  -20.1662  -18.7431 O   0  0  0  0  0  0  0  0  0  0  0  0
  2  3  2  0
  2  1  1  0
  4  3  1  0
  5  4  2  0
  6  5  1  0
  7  6  1  0
  7  9  1  0
  7  8  1  1
  9 16  1  0
  9 10  2  0
 11  5  1  0
 11 12  2  0
 12  2  1  0
 14 13  1  0
 15 14  1  6
 16 15  1  0
 17 15  1  0
 17 18  2  0
 20 19  1  6
 20 21  1  0
 20 22  1  0
 22 23  1  1
 23 17  1  0
 24 22  1  0
 25 24  1  0
 26 24  2  0
M  END
$$$$
