YST.pdb
     RDKit          3D

 26 26  0  0  1  0  0  0  0  0999 V2000
   22.2783  -16.8420  -19.7647 O   0  0  0  0  0  0  0  0  0  0  0  0
   22.6785  -15.6966  -19.0580 C   0  0  0  0  0  0  0  0  0  0  0  0
   23.7057  -15.7225  -18.1446 C   0  0  0  0  0  0  0  0  0  0  0  0
   24.0417  -14.5548  -17.4887 C   0  0  0  0  0  0  0  0  0  0  0  0
   23.3628  -13.3945  -17.7452 C   0  0  0  0  0  0  0  0  0  0  0  0
   23.7155  -12.1526  -17.0461 C   0  0  0  0  0  0  0  0  0  0  0  0
   24.5146  -11.2669  -17.9756 C   0  0  2  0  0  0  0  0  0  0  0  0
   25.7854  -11.9509  -18.2884 N   0  0  0  0  0  0  0  0  0  0  0  0
   24.8008   -9.9544  -17.3603 C   0  0  0  0  0  0  0  0  0  0  0  0
   25.9153   -9.6056  -16.9172 O   0  0  0  0  0  0  0  0  0  0  0  0
   22.3414  -13.3894  -18.6599 C   0  0  0  0  0  0  0  0  0  0  0  0
   21.9761  -14.5360  -19.3356 C   0  0  0  0  0  0  0  0  0  0  0  0
   23.8774   -6.8341  -18.9388 O   0  0  0  0  0  0  0  0  0  0  0  0
   24.7348   -6.9270  -17.8269 C   0  0  0  0  0  0  0  0  0  0  0  0
   23.9460   -7.6688  -16.7412 C   0  0  2  0  0  0  0  0  0  0  0  0
   23.7321   -9.0130  -17.2620 N   0  0  0  0  0  0  0  0  0  0  0  0
   22.6526   -6.9745  -16.5736 C   0  0  0  0  0  0  0  0  0  0  0  0
   21.5844   -7.4681  -17.0058 O   0  0  0  0  0  0  0  0  0  0  0  0
   20.8349   -7.5430  -14.8621 C   0  0  0  0  0  0  0  0  0  0  0  0
   20.8769   -6.1102  -14.3638 C   0  0  1  0  0  0  0  0  0  0  0  0
   21.7173   -6.0437  -13.2648 O   0  0  0  0  0  0  0  0  0  0  0  0
   21.3804   -5.1808  -15.4563 C   0  0  2  0  0  0  0  0  0  0  0  0
   22.6371   -5.7278  -15.9093 N   0  0  0  0  0  0  0  0  0  0  0  0
   21.5301   -3.7995  -14.9742 C   0  0  0  0  0  0  0  0  0  0  0  0
   20.4254   -3.0144  -14.7604 O   0  0  0  0  0  0  0  0  0  0  0  0
   22.6768   -3.3456  -14.7602 O   0  0  0  0  0  0  0  0  0  0  0  0
  2  3  2  0
  2  1  1  0
  4  3  1  0
  5  4  2  0
  6  5  1  0
  7  6  1  0
  7  9  1  0
  7  8  1  1
  9 16  1  0
  9 10  2  0
 11  5  1  0
 11 12  2  0
 12  2  1  0
 14 13  1  0
 15 14  1  6
 16 15  1  0
 17 15  1  0
 17 18  2  0
 20 19  1  6
 20 21  1  0
 20 22  1  0
 22 23  1  1
 23 17  1  0
 24 22  1  0
 25 24  1  0
 26 24  2  0
M  END
$$$$
