YST.pdb
     RDKit          3D

 26 26  0  0  1  0  0  0  0  0999 V2000
   17.6563  -17.1634  -19.8217 O   0  0  0  0  0  0  0  0  0  0  0  0
   17.8010  -16.0164  -19.0247 C   0  0  0  0  0  0  0  0  0  0  0  0
   17.5985  -16.0402  -17.6652 C   0  0  0  0  0  0  0  0  0  0  0  0
   17.7598  -14.8710  -16.9485 C   0  0  0  0  0  0  0  0  0  0  0  0
   18.1147  -13.7113  -17.5827 C   0  0  0  0  0  0  0  0  0  0  0  0
   18.2827  -12.4661  -16.8234 C   0  0  0  0  0  0  0  0  0  0  0  0
   19.7581  -12.1739  -16.6652 C   0  0  2  0  0  0  0  0  0  0  0  0
   20.3724  -13.2861  -15.9125 N   0  0  0  0  0  0  0  0  0  0  0  0
   19.9847  -10.9059  -15.9414 C   0  0  0  0  0  0  0  0  0  0  0  0
   19.5866  -10.6691  -14.7814 O   0  0  0  0  0  0  0  0  0  0  0  0
   18.3121  -13.7084  -18.9394 C   0  0  0  0  0  0  0  0  0  0  0  0
   18.1606  -14.8566  -19.6902 C   0  0  0  0  0  0  0  0  0  0  0  0
   22.9719   -8.8036  -17.2485 O   0  0  0  0  0  0  0  0  0  0  0  0
   22.5509   -8.5196  -15.9362 C   0  0  0  0  0  0  0  0  0  0  0  0
   21.0203   -8.6112  -15.9502 C   0  0  2  0  0  0  0  0  0  0  0  0
   20.7096   -9.8733  -16.6094 N   0  0  0  0  0  0  0  0  0  0  0  0
   20.5110   -7.4784  -16.7504 C   0  0  0  0  0  0  0  0  0  0  0  0
   20.6513   -7.4418  -17.9956 O   0  0  0  0  0  0  0  0  0  0  0  0
   17.1132   -6.1776  -17.0301 C   0  0  0  0  0  0  0  0  0  0  0  0
   17.9636   -5.0444  -16.4863 C   0  0  1  0  0  0  0  0  0  0  0  0
   17.8075   -4.9886  -15.1112 O   0  0  0  0  0  0  0  0  0  0  0  0
   19.4276   -5.2640  -16.8317 C   0  0  2  0  0  0  0  0  0  0  0  0
   19.8538   -6.4216  -16.0820 N   0  0  0  0  0  0  0  0  0  0  0  0
   20.2466   -4.0826  -16.5214 C   0  0  0  0  0  0  0  0  0  0  0  0
   21.1597   -4.1192  -15.4981 O   0  0  0  0  0  0  0  0  0  0  0  0
   20.1029   -3.0413  -17.2008 O   0  0  0  0  0  0  0  0  0  0  0  0
  2  3  2  0
  2  1  1  0
  4  3  1  0
  5  4  2  0
  6  5  1  0
  7  6  1  0
  7  9  1  0
  7  8  1  1
  9 16  1  0
  9 10  2  0
 11  5  1  0
 11 12  2  0
 12  2  1  0
 14 13  1  0
 15 14  1  6
 16 15  1  0
 17 15  1  0
 17 18  2  0
 20 19  1  1
 20 21  1  0
 20 22  1  0
 22 23  1  1
 23 17  1  0
 24 22  1  0
 25 24  1  0
 26 24  2  0
M  END
$$$$
