YST.pdb
     RDKit          3D

 26 26  0  0  1  0  0  0  0  0999 V2000
   31.5401  -21.9706  -11.4393 O   0  0  0  0  0  0  0  0  0  0  0  0
   30.3109  -21.4276  -11.8463 C   0  0  0  0  0  0  0  0  0  0  0  0
   30.0144  -20.0938  -11.6947 C   0  0  0  0  0  0  0  0  0  0  0  0
   28.7838  -19.6337  -12.1195 C   0  0  0  0  0  0  0  0  0  0  0  0
   27.8777  -20.4923  -12.6807 C   0  0  0  0  0  0  0  0  0  0  0  0
   26.5670  -20.0064  -13.1293 C   0  0  0  0  0  0  0  0  0  0  0  0
   26.3366  -20.4416  -14.5593 C   0  0  2  0  0  0  0  0  0  0  0  0
   27.2965  -19.7239  -15.4221 N   0  0  0  0  0  0  0  0  0  0  0  0
   24.9589  -20.1426  -15.0013 C   0  0  0  0  0  0  0  0  0  0  0  0
   24.4989  -18.9929  -15.1644 O   0  0  0  0  0  0  0  0  0  0  0  0
   28.1924  -21.8192  -12.8232 C   0  0  0  0  0  0  0  0  0  0  0  0
   29.4120  -22.3168  -12.4109 C   0  0  0  0  0  0  0  0  0  0  0  0
   22.5506  -23.2993  -16.2278 O   0  0  0  0  0  0  0  0  0  0  0  0
   22.3918  -22.0040  -16.7543 C   0  0  0  0  0  0  0  0  0  0  0  0
   22.6830  -21.0364  -15.6010 C   0  0  2  0  0  0  0  0  0  0  0  0
   24.0856  -21.2414  -15.2626 N   0  0  0  0  0  0  0  0  0  0  0  0
   21.8219  -21.4224  -14.4641 C   0  0  0  0  0  0  0  0  0  0  0  0
   22.2842  -22.0312  -13.4706 O   0  0  0  0  0  0  0  0  0  0  0  0
   17.2788  -21.0795  -12.5473 C   0  0  0  0  0  0  0  0  0  0  0  0
   18.2669  -20.7431  -13.6488 C   0  0  1  0  0  0  0  0  0  0  0  0
   18.4588  -19.3716  -13.6737 O   0  0  0  0  0  0  0  0  0  0  0  0
   19.5931  -21.4461  -13.4077 C   0  0  2  0  0  0  0  0  0  0  0  0
   20.4497  -21.0904  -14.5139 N   0  0  0  0  0  0  0  0  0  0  0  0
   19.4279  -22.9029  -13.2936 C   0  0  0  0  0  0  0  0  0  0  0  0
   19.3769  -23.5022  -12.0605 O   0  0  0  0  0  0  0  0  0  0  0  0
   19.3341  -23.5927  -14.3338 O   0  0  0  0  0  0  0  0  0  0  0  0
  2  3  2  0
  2  1  1  0
  4  3  1  0
  5  4  2  0
  6  5  1  0
  7  6  1  0
  7  9  1  0
  7  8  1  6
  9 16  1  0
  9 10  2  0
 11  5  1  0
 11 12  2  0
 12  2  1  0
 14 13  1  0
 15 14  1  6
 16 15  1  0
 17 15  1  0
 17 18  2  0
 20 19  1  1
 20 21  1  0
 20 22  1  0
 22 23  1  6
 23 17  1  0
 24 22  1  0
 25 24  1  0
 26 24  2  0
M  END
$$$$
