YST.pdb
     RDKit          3D

 26 26  0  0  1  0  0  0  0  0999 V2000
   20.0342  -15.2075  -16.4396 O   0  0  0  0  0  0  0  0  0  0  0  0
   19.9980  -16.2338  -15.4820 C   0  0  0  0  0  0  0  0  0  0  0  0
   20.7940  -16.2167  -14.3613 C   0  0  0  0  0  0  0  0  0  0  0  0
   20.7019  -17.2625  -13.4644 C   0  0  0  0  0  0  0  0  0  0  0  0
   19.8333  -18.2958  -13.6898 C   0  0  0  0  0  0  0  0  0  0  0  0
   19.7366  -19.4110  -12.7398 C   0  0  0  0  0  0  0  0  0  0  0  0
   21.0624  -20.1367  -12.6863 C   0  0  2  0  0  0  0  0  0  0  0  0
   21.3100  -20.7469  -14.0081 N   0  0  0  0  0  0  0  0  0  0  0  0
   21.0619  -21.1902  -11.6504 C   0  0  0  0  0  0  0  0  0  0  0  0
   20.7020  -22.3714  -11.8387 O   0  0  0  0  0  0  0  0  0  0  0  0
   19.0478  -18.2943  -14.8135 C   0  0  0  0  0  0  0  0  0  0  0  0
   19.1111  -17.2671  -15.7332 C   0  0  0  0  0  0  0  0  0  0  0  0
   21.5565  -19.9192   -7.8735 O   0  0  0  0  0  0  0  0  0  0  0  0
   22.2503  -21.1234   -8.0941 C   0  0  0  0  0  0  0  0  0  0  0  0
   21.5367  -21.8192   -9.2594 C   0  0  2  0  0  0  0  0  0  0  0  0
   21.5030  -20.8403  -10.3385 N   0  0  0  0  0  0  0  0  0  0  0  0
   20.1637  -22.1390   -8.8172 C   0  0  0  0  0  0  0  0  0  0  0  0
   19.1900  -21.4145   -9.1311 O   0  0  0  0  0  0  0  0  0  0  0  0
   16.7664  -25.2040   -8.1786 C   0  0  0  0  0  0  0  0  0  0  0  0
   18.1057  -24.6441   -8.6211 C   0  0  1  0  0  0  0  0  0  0  0  0
   17.9489  -24.0316   -9.8535 O   0  0  0  0  0  0  0  0  0  0  0  0
   18.6239  -23.6380   -7.6063 C   0  0  2  0  0  0  0  0  0  0  0  0
   19.9613  -23.2901   -8.0237 N   0  0  0  0  0  0  0  0  0  0  0  0
   18.6038  -24.1793   -6.2390 C   0  0  0  0  0  0  0  0  0  0  0  0
   17.5207  -23.9682   -5.4237 O   0  0  0  0  0  0  0  0  0  0  0  0
   19.5858  -24.8357   -5.8250 O   0  0  0  0  0  0  0  0  0  0  0  0
  2  3  2  0
  2  1  1  0
  4  3  1  0
  5  4  2  0
  6  5  1  0
  7  6  1  0
  7  9  1  0
  7  8  1  6
  9 16  1  0
  9 10  2  0
 11  5  1  0
 11 12  2  0
 12  2  1  0
 14 13  1  0
 15 14  1  1
 16 15  1  0
 17 15  1  0
 17 18  2  0
 20 19  1  1
 20 21  1  0
 20 22  1  0
 22 23  1  6
 23 17  1  0
 24 22  1  0
 25 24  1  0
 26 24  2  0
M  END
$$$$
