YST.pdb
     RDKit          3D

 26 26  0  0  1  0  0  0  0  0999 V2000
   16.9274  -24.2145   -8.8954 O   0  0  0  0  0  0  0  0  0  0  0  0
   17.9681  -23.6557   -9.6545 C   0  0  0  0  0  0  0  0  0  0  0  0
   19.2472  -23.5355   -9.1653 C   0  0  0  0  0  0  0  0  0  0  0  0
   20.2177  -22.9751   -9.9720 C   0  0  0  0  0  0  0  0  0  0  0  0
   19.9088  -22.5478  -11.2350 C   0  0  0  0  0  0  0  0  0  0  0  0
   20.9379  -21.9478  -12.0930 C   0  0  0  0  0  0  0  0  0  0  0  0
   21.6030  -20.8094  -11.3522 C   0  0  2  0  0  0  0  0  0  0  0  0
   20.5990  -19.7483  -11.1358 N   0  0  0  0  0  0  0  0  0  0  0  0
   22.7431  -20.2598  -12.1145 C   0  0  0  0  0  0  0  0  0  0  0  0
   22.6816  -19.2630  -12.8646 O   0  0  0  0  0  0  0  0  0  0  0  0
   18.6271  -22.6766  -11.7045 C   0  0  0  0  0  0  0  0  0  0  0  0
   17.6297  -23.2315  -10.9285 C   0  0  0  0  0  0  0  0  0  0  0  0
   26.3054  -22.3591  -12.0192 O   0  0  0  0  0  0  0  0  0  0  0  0
   26.3846  -20.9673  -11.8282 C   0  0  0  0  0  0  0  0  0  0  0  0
   25.2100  -20.3626  -12.6067 C   0  0  2  0  0  0  0  0  0  0  0  0
   24.0083  -20.9092  -11.9893 N   0  0  0  0  0  0  0  0  0  0  0  0
   25.3177  -20.8204  -14.0073 C   0  0  0  0  0  0  0  0  0  0  0  0
   24.9725  -21.9771  -14.3458 O   0  0  0  0  0  0  0  0  0  0  0  0
   23.9096  -19.0579  -17.0420 C   0  0  0  0  0  0  0  0  0  0  0  0
   25.4129  -19.1964  -17.1960 C   0  0  1  0  0  0  0  0  0  0  0  0
   26.0138  -18.0128  -16.8002 O   0  0  0  0  0  0  0  0  0  0  0  0
   25.9313  -20.3474  -16.3491 C   0  0  2  0  0  0  0  0  0  0  0  0
   25.8228  -19.9224  -14.9738 N   0  0  0  0  0  0  0  0  0  0  0  0
   27.3134  -20.7068  -16.7004 C   0  0  0  0  0  0  0  0  0  0  0  0
   28.3450  -20.4232  -15.8415 O   0  0  0  0  0  0  0  0  0  0  0  0
   27.5406  -21.2748  -17.7923 O   0  0  0  0  0  0  0  0  0  0  0  0
  2  3  2  0
  2  1  1  0
  4  3  1  0
  5  4  2  0
  6  5  1  0
  7  6  1  0
  7  9  1  0
  7  8  1  6
  9 16  1  0
  9 10  2  0
 11  5  1  0
 11 12  2  0
 12  2  1  0
 14 13  1  0
 15 14  1  1
 16 15  1  0
 17 15  1  0
 17 18  2  0
 20 19  1  1
 20 21  1  0
 20 22  1  0
 22 23  1  1
 23 17  1  0
 24 22  1  0
 25 24  1  0
 26 24  2  0
M  END
$$$$
