YST.pdb
     RDKit          3D

 26 26  0  0  1  0  0  0  0  0999 V2000
   17.2851  -13.6827  -17.7173 O   0  0  0  0  0  0  0  0  0  0  0  0
   17.3680  -12.4453  -17.0589 C   0  0  0  0  0  0  0  0  0  0  0  0
   16.4579  -12.0636  -16.1019 C   0  0  0  0  0  0  0  0  0  0  0  0
   16.6056  -10.8305  -15.4983 C   0  0  0  0  0  0  0  0  0  0  0  0
   17.6400  -10.0056  -15.8485 C   0  0  0  0  0  0  0  0  0  0  0  0
   17.7967   -8.6923  -15.2112 C   0  0  0  0  0  0  0  0  0  0  0  0
   18.9826   -8.7316  -14.2735 C   0  0  2  0  0  0  0  0  0  0  0  0
   18.6855   -9.6912  -13.1910 N   0  0  0  0  0  0  0  0  0  0  0  0
   19.2565   -7.4019  -13.6905 C   0  0  0  0  0  0  0  0  0  0  0  0
   18.9815   -7.0698  -12.5183 O   0  0  0  0  0  0  0  0  0  0  0  0
   18.5373  -10.4047  -16.8053 C   0  0  0  0  0  0  0  0  0  0  0  0
   18.4232  -11.6295  -17.4311 C   0  0  0  0  0  0  0  0  0  0  0  0
   22.5112   -5.9521  -13.9354 O   0  0  0  0  0  0  0  0  0  0  0  0
   21.5109   -5.4373  -13.0900 C   0  0  0  0  0  0  0  0  0  0  0  0
   20.3070   -5.1336  -13.9897 C   0  0  2  0  0  0  0  0  0  0  0  0
   19.8800   -6.4219  -14.5206 N   0  0  0  0  0  0  0  0  0  0  0  0
   20.7756   -4.2599  -15.0852 C   0  0  0  0  0  0  0  0  0  0  0  0
   21.4884   -4.7034  -16.0162 O   0  0  0  0  0  0  0  0  0  0  0  0
   18.2690   -2.0285  -16.7720 C   0  0  0  0  0  0  0  0  0  0  0  0
   19.4819   -1.1839  -16.4277 C   0  0  1  0  0  0  0  0  0  0  0  0
   19.2116   -0.4617  -15.2771 O   0  0  0  0  0  0  0  0  0  0  0  0
   20.7007   -2.0659  -16.2099 C   0  0  2  0  0  0  0  0  0  0  0  0
   20.4030   -2.8974  -15.0680 N   0  0  0  0  0  0  0  0  0  0  0  0
   21.9210   -1.2720  -16.0019 C   0  0  0  0  0  0  0  0  0  0  0  0
   22.5130   -0.6190  -17.0533 O   0  0  0  0  0  0  0  0  0  0  0  0
   22.4158   -1.1972  -14.8546 O   0  0  0  0  0  0  0  0  0  0  0  0
  2  3  2  0
  2  1  1  0
  4  3  1  0
  5  4  2  0
  6  5  1  0
  7  6  1  0
  7  9  1  0
  7  8  1  1
  9 16  1  0
  9 10  2  0
 11  5  1  0
 11 12  2  0
 12  2  1  0
 14 13  1  0
 15 14  1  1
 16 15  1  0
 17 15  1  0
 17 18  2  0
 20 19  1  1
 20 21  1  0
 20 22  1  0
 22 23  1  1
 23 17  1  0
 24 22  1  0
 25 24  1  0
 26 24  2  0
M  END
$$$$
