YST.pdb
     RDKit          3D

 26 26  0  0  1  0  0  0  0  0999 V2000
   18.3423  -25.3677   -8.0825 O   0  0  0  0  0  0  0  0  0  0  0  0
   19.0208  -24.8057   -9.1758 C   0  0  0  0  0  0  0  0  0  0  0  0
   19.5100  -23.5212   -9.1512 C   0  0  0  0  0  0  0  0  0  0  0  0
   20.1667  -23.0385  -10.2658 C   0  0  0  0  0  0  0  0  0  0  0  0
   20.3260  -23.8266  -11.3733 C   0  0  0  0  0  0  0  0  0  0  0  0
   21.0202  -23.3142  -12.5611 C   0  0  0  0  0  0  0  0  0  0  0  0
   20.1430  -22.2921  -13.2490 C   0  0  2  0  0  0  0  0  0  0  0  0
   18.8957  -22.9610  -13.6705 N   0  0  0  0  0  0  0  0  0  0  0  0
   20.8130  -21.7107  -14.4306 C   0  0  0  0  0  0  0  0  0  0  0  0
   20.4183  -21.8438  -15.6081 O   0  0  0  0  0  0  0  0  0  0  0  0
   19.8309  -25.1051  -11.3780 C   0  0  0  0  0  0  0  0  0  0  0  0
   19.1688  -25.6234  -10.2835 C   0  0  0  0  0  0  0  0  0  0  0  0
   22.2886  -18.3857  -16.7370 O   0  0  0  0  0  0  0  0  0  0  0  0
   21.6584  -19.1155  -15.7121 C   0  0  0  0  0  0  0  0  0  0  0  0
   22.6422  -20.2202  -15.3085 C   0  0  2  0  0  0  0  0  0  0  0  0
   21.9963  -20.9406  -14.2186 N   0  0  0  0  0  0  0  0  0  0  0  0
   23.8769  -19.5668  -14.8274 C   0  0  0  0  0  0  0  0  0  0  0  0
   23.8682  -18.8035  -13.8329 O   0  0  0  0  0  0  0  0  0  0  0  0
   26.8568  -21.0346  -13.5759 C   0  0  0  0  0  0  0  0  0  0  0  0
   27.3048  -20.2277  -14.7805 C   0  0  1  0  0  0  0  0  0  0  0  0
   27.4399  -21.0798  -15.8641 O   0  0  0  0  0  0  0  0  0  0  0  0
   26.2911  -19.1412  -15.1008 C   0  0  2  0  0  0  0  0  0  0  0  0
   25.0852  -19.8183  -15.5146 N   0  0  0  0  0  0  0  0  0  0  0  0
   26.7827  -18.2221  -16.1383 C   0  0  0  0  0  0  0  0  0  0  0  0
   27.8734  -17.4246  -15.9002 O   0  0  0  0  0  0  0  0  0  0  0  0
   26.1959  -18.1738  -17.2428 O   0  0  0  0  0  0  0  0  0  0  0  0
  2  3  2  0
  2  1  1  0
  4  3  1  0
  5  4  2  0
  6  5  1  0
  7  6  1  0
  7  9  1  0
  7  8  1  6
  9 16  1  0
  9 10  2  0
 11  5  1  0
 11 12  2  0
 12  2  1  0
 14 13  1  0
 15 14  1  1
 16 15  1  0
 17 15  1  0
 17 18  2  0
 20 19  1  1
 20 21  1  0
 20 22  1  0
 22 23  1  6
 23 17  1  0
 24 22  1  0
 25 24  1  0
 26 24  2  0
M  END
$$$$
