YST.pdb
     RDKit          3D

 26 26  0  0  1  0  0  0  0  0999 V2000
   24.1436   -5.2403  -16.6079 O   0  0  0  0  0  0  0  0  0  0  0  0
   22.8695   -5.5515  -16.1064 C   0  0  0  0  0  0  0  0  0  0  0  0
   22.4436   -5.1195  -14.8728 C   0  0  0  0  0  0  0  0  0  0  0  0
   21.1763   -5.4663  -14.4480 C   0  0  0  0  0  0  0  0  0  0  0  0
   20.3616   -6.2264  -15.2427 C   0  0  0  0  0  0  0  0  0  0  0  0
   19.0154   -6.6000  -14.7915 C   0  0  0  0  0  0  0  0  0  0  0  0
   19.1224   -7.7069  -13.7666 C   0  0  2  0  0  0  0  0  0  0  0  0
   19.4701   -8.9577  -14.4705 N   0  0  0  0  0  0  0  0  0  0  0  0
   17.8527   -7.8914  -13.0339 C   0  0  0  0  0  0  0  0  0  0  0  0
   16.9127   -8.6208  -13.4140 O   0  0  0  0  0  0  0  0  0  0  0  0
   20.8050   -6.6474  -16.4699 C   0  0  0  0  0  0  0  0  0  0  0  0
   22.0648   -6.3213  -16.9295 C   0  0  0  0  0  0  0  0  0  0  0  0
   17.9043   -7.6068   -9.2797 O   0  0  0  0  0  0  0  0  0  0  0  0
   16.7019   -8.0909   -9.8273 C   0  0  0  0  0  0  0  0  0  0  0  0
   16.4234   -7.2345  -11.0683 C   0  0  2  0  0  0  0  0  0  0  0  0
   17.6812   -7.1890  -11.8030 N   0  0  0  0  0  0  0  0  0  0  0  0
   16.0535   -5.8811  -10.6050 C   0  0  0  0  0  0  0  0  0  0  0  0
   16.9250   -5.0358  -10.2927 O   0  0  0  0  0  0  0  0  0  0  0  0
   12.3058   -2.7541   -9.8394 C   0  0  0  0  0  0  0  0  0  0  0  0
   12.8095   -4.1075  -10.3057 C   0  0  1  0  0  0  0  0  0  0  0  0
   12.5642   -4.2323  -11.6632 O   0  0  0  0  0  0  0  0  0  0  0  0
   14.2991   -4.2436  -10.0351 C   0  0  2  0  0  0  0  0  0  0  0  0
   14.6834   -5.5487  -10.5178 N   0  0  0  0  0  0  0  0  0  0  0  0
   14.6141   -4.0765   -8.6083 C   0  0  0  0  0  0  0  0  0  0  0  0
   15.0285   -2.8609   -8.1258 O   0  0  0  0  0  0  0  0  0  0  0  0
   14.5004   -5.0553   -7.8365 O   0  0  0  0  0  0  0  0  0  0  0  0
  2  3  2  0
  2  1  1  0
  4  3  1  0
  5  4  2  0
  6  5  1  0
  7  6  1  0
  7  9  1  0
  7  8  1  6
  9 16  1  0
  9 10  2  0
 11  5  1  0
 11 12  2  0
 12  2  1  0
 14 13  1  0
 15 14  1  1
 16 15  1  0
 17 15  1  0
 17 18  2  0
 20 19  1  6
 20 21  1  0
 20 22  1  0
 22 23  1  1
 23 17  1  0
 24 22  1  0
 25 24  1  0
 26 24  2  0
M  END
$$$$
