YST.pdb
     RDKit          3D

 26 26  0  0  1  0  0  0  0  0999 V2000
   15.7376  -15.1375  -17.7008 O   0  0  0  0  0  0  0  0  0  0  0  0
   16.6127  -14.1851  -17.1543 C   0  0  0  0  0  0  0  0  0  0  0  0
   16.9187  -14.1569  -15.8144 C   0  0  0  0  0  0  0  0  0  0  0  0
   17.7882  -13.1894  -15.3512 C   0  0  0  0  0  0  0  0  0  0  0  0
   18.3337  -12.2766  -16.2127 C   0  0  0  0  0  0  0  0  0  0  0  0
   19.2552  -11.2443  -15.7220 C   0  0  0  0  0  0  0  0  0  0  0  0
   20.5808  -11.3784  -16.4376 C   0  0  2  0  0  0  0  0  0  0  0  0
   21.1542  -12.6985  -16.1070 N   0  0  0  0  0  0  0  0  0  0  0  0
   21.5249  -10.3165  -16.0325 C   0  0  0  0  0  0  0  0  0  0  0  0
   22.2331  -10.3501  -15.0042 O   0  0  0  0  0  0  0  0  0  0  0  0
   18.0160  -12.3215  -17.5457 C   0  0  0  0  0  0  0  0  0  0  0  0
   17.1511  -13.2733  -18.0466 C   0  0  0  0  0  0  0  0  0  0  0  0
   22.2742   -7.6663  -18.8590 O   0  0  0  0  0  0  0  0  0  0  0  0
   23.2860   -7.7748  -17.8870 C   0  0  0  0  0  0  0  0  0  0  0  0
   22.5756   -8.0917  -16.5656 C   0  0  2  0  0  0  0  0  0  0  0  0
   21.6412   -9.1674  -16.8716 N   0  0  0  0  0  0  0  0  0  0  0  0
   21.8401   -6.8793  -16.1504 C   0  0  0  0  0  0  0  0  0  0  0  0
   20.8052   -6.5045  -16.7503 O   0  0  0  0  0  0  0  0  0  0  0  0
   20.2022   -6.2957  -13.0543 C   0  0  0  0  0  0  0  0  0  0  0  0
   21.2400   -5.1939  -13.1645 C   0  0  1  0  0  0  0  0  0  0  0  0
   22.3627   -5.5635  -12.4423 O   0  0  0  0  0  0  0  0  0  0  0  0
   21.6152   -4.9590  -14.6187 C   0  0  2  0  0  0  0  0  0  0  0  0
   22.3275   -6.1378  -15.0512 N   0  0  0  0  0  0  0  0  0  0  0  0
   22.4241   -3.7423  -14.7859 C   0  0  0  0  0  0  0  0  0  0  0  0
   21.8641   -2.5040  -14.5975 O   0  0  0  0  0  0  0  0  0  0  0  0
   23.6306   -3.8467  -15.1024 O   0  0  0  0  0  0  0  0  0  0  0  0
  2  3  2  0
  2  1  1  0
  4  3  1  0
  5  4  2  0
  6  5  1  0
  7  6  1  0
  7  9  1  0
  7  8  1  1
  9 16  1  0
  9 10  2  0
 11  5  1  0
 11 12  2  0
 12  2  1  0
 14 13  1  0
 15 14  1  6
 16 15  1  0
 17 15  1  0
 17 18  2  0
 20 19  1  6
 20 21  1  0
 20 22  1  0
 22 23  1  1
 23 17  1  0
 24 22  1  0
 25 24  1  0
 26 24  2  0
M  END
$$$$
