YST.pdb
     RDKit          3D

 26 26  0  0  1  0  0  0  0  0999 V2000
   19.9652  -23.1224   -6.8641 O   0  0  0  0  0  0  0  0  0  0  0  0
   20.8546  -22.4096   -7.6840 C   0  0  0  0  0  0  0  0  0  0  0  0
   20.7325  -22.3915   -9.0532 C   0  0  0  0  0  0  0  0  0  0  0  0
   21.6463  -21.6672   -9.7927 C   0  0  0  0  0  0  0  0  0  0  0  0
   22.6541  -20.9809   -9.1711 C   0  0  0  0  0  0  0  0  0  0  0  0
   23.6294  -20.2134   -9.9555 C   0  0  0  0  0  0  0  0  0  0  0  0
   24.6398  -21.1622  -10.5606 C   0  0  2  0  0  0  0  0  0  0  0  0
   25.5935  -21.5581   -9.5049 N   0  0  0  0  0  0  0  0  0  0  0  0
   25.3749  -20.5313  -11.6762 C   0  0  0  0  0  0  0  0  0  0  0  0
   26.2749  -19.6760  -11.5403 O   0  0  0  0  0  0  0  0  0  0  0  0
   22.7588  -21.0113   -7.8044 C   0  0  0  0  0  0  0  0  0  0  0  0
   21.8648  -21.7238   -7.0310 C   0  0  0  0  0  0  0  0  0  0  0  0
   25.7288  -22.5352  -14.9771 O   0  0  0  0  0  0  0  0  0  0  0  0
   26.5770  -21.4352  -14.7518 C   0  0  0  0  0  0  0  0  0  0  0  0
   25.6929  -20.3282  -14.1653 C   0  0  2  0  0  0  0  0  0  0  0  0
   25.0378  -20.9226  -13.0071 N   0  0  0  0  0  0  0  0  0  0  0  0
   24.6905  -19.9660  -15.1887 C   0  0  0  0  0  0  0  0  0  0  0  0
   23.5419  -20.4683  -15.1858 O   0  0  0  0  0  0  0  0  0  0  0  0
   23.4402  -16.6129  -18.5256 C   0  0  0  0  0  0  0  0  0  0  0  0
   24.4359  -17.1728  -17.5267 C   0  0  1  0  0  0  0  0  0  0  0  0
   24.4438  -16.3641  -16.4022 O   0  0  0  0  0  0  0  0  0  0  0  0
   24.0594  -18.5936  -17.1386 C   0  0  2  0  0  0  0  0  0  0  0  0
   25.0507  -19.0317  -16.1850 N   0  0  0  0  0  0  0  0  0  0  0  0
   23.9987  -19.4830  -18.3082 C   0  0  0  0  0  0  0  0  0  0  0  0
   22.8157  -19.6721  -18.9768 O   0  0  0  0  0  0  0  0  0  0  0  0
   25.0381  -20.0670  -18.6891 O   0  0  0  0  0  0  0  0  0  0  0  0
  2  3  2  0
  2  1  1  0
  4  3  1  0
  5  4  2  0
  6  5  1  0
  7  6  1  0
  7  9  1  0
  7  8  1  1
  9 16  1  0
  9 10  2  0
 11  5  1  0
 11 12  2  0
 12  2  1  0
 14 13  1  0
 15 14  1  6
 16 15  1  0
 17 15  1  0
 17 18  2  0
 20 19  1  6
 20 21  1  0
 20 22  1  0
 22 23  1  1
 23 17  1  0
 24 22  1  0
 25 24  1  0
 26 24  2  0
M  END
$$$$
