IDC.pdb
     RDKit          3D

 23 22  0  0  1  0  0  0  0  0999 V2000
   16.1765  -13.3094  -12.1219 C   0  0  0  0  0  0  0  0  0  0  0  0
   15.6922  -12.5099  -10.9505 C   0  0  0  0  0  0  0  0  0  0  0  0
   15.5815  -11.0455  -11.2440 C   0  0  2  0  0  0  0  0  0  0  0  0
   16.8751  -10.5281  -11.8350 C   0  0  0  0  0  0  0  0  0  0  0  0
   15.0740  -10.2080  -10.1226 C   0  0  2  0  0  0  0  0  0  0  0  0
   13.7054  -10.6598   -9.7497 N   0  0  0  0  0  0  0  0  0  0  0  0
   14.9706   -8.7650  -10.3879 C   0  0  0  0  0  0  0  0  0  0  0  0
   13.9954   -8.3428  -11.1091 O   0  0  0  0  0  0  0  0  0  0  0  0
   15.8354   -7.7513   -9.9324 N   0  0  0  0  0  0  0  0  0  0  0  0
   15.7224   -6.3624  -10.3271 C   0  0  1  0  0  0  0  0  0  0  0  0
   15.9195   -5.4715   -9.1227 C   0  0  0  0  0  0  0  0  0  0  0  0
   14.6538   -5.2169   -8.4078 C   0  0  0  0  0  0  0  0  0  0  0  0
   13.5868   -5.7110   -8.8650 O   0  0  0  0  0  0  0  0  0  0  0  0
   16.7462   -5.9688  -11.3239 C   0  0  0  0  0  0  0  0  0  0  0  0
   17.9809   -6.1294  -11.1801 O   0  0  0  0  0  0  0  0  0  0  0  0
   14.6423   -4.4490   -7.2558 O   0  0  0  0  0  0  0  0  0  0  0  0
   16.2674   -5.3672  -12.5220 N   0  0  0  0  0  0  0  0  0  0  0  0
   17.0939   -5.0048  -13.6369 C   0  0  1  0  0  0  0  0  0  0  0  0
   16.2277   -5.0634  -14.9040 C   0  0  0  0  0  0  0  0  0  0  0  0
   15.6067   -6.7684  -15.1391 S   0  0  0  0  0  0  0  0  0  0  0  0
   17.6084   -3.6302  -13.4430 C   0  0  0  0  0  0  0  0  0  0  0  0
   18.5829   -3.1551  -14.3049 O   0  0  0  0  0  0  0  0  0  0  0  0
   17.2242   -2.8476  -12.5422 O   0  0  0  0  0  0  0  0  0  0  0  0
  1  2  1  0
  2  3  1  0
  3  5  1  0
  3  4  1  1
  5  7  1  0
  5  6  1  6
  7  9  1  0
  7  8  2  0
  9 10  1  0
 10 14  1  0
 10 11  1  1
 12 11  1  0
 12 16  1  0
 13 12  2  0
 14 17  1  0
 15 14  2  0
 17 18  1  0
 18 21  1  0
 18 19  1  6
 19 20  1  0
 21 23  2  0
 21 22  1  0
M  END
$$$$
