IDC.pdb
     RDKit          3D

 23 22  0  0  1  0  0  0  0  0999 V2000
   10.1321  -11.3133  -11.9383 C   0  0  0  0  0  0  0  0  0  0  0  0
   11.1183  -12.2283  -12.5988 C   0  0  0  0  0  0  0  0  0  0  0  0
   12.4411  -11.5765  -12.8601 C   0  0  2  0  0  0  0  0  0  0  0  0
   12.2428  -10.2335  -13.5291 C   0  0  0  0  0  0  0  0  0  0  0  0
   13.4468  -12.4309  -13.5493 C   0  0  2  0  0  0  0  0  0  0  0  0
   13.6728  -13.6675  -12.7518 N   0  0  0  0  0  0  0  0  0  0  0  0
   14.7730  -11.8299  -13.7571 C   0  0  0  0  0  0  0  0  0  0  0  0
   15.7913  -12.3865  -13.2068 O   0  0  0  0  0  0  0  0  0  0  0  0
   15.0786  -10.6815  -14.5126 N   0  0  0  0  0  0  0  0  0  0  0  0
   16.4273  -10.2039  -14.7374 C   0  0  1  0  0  0  0  0  0  0  0  0
   17.2000  -11.2186  -15.5478 C   0  0  0  0  0  0  0  0  0  0  0  0
   18.6102  -10.8244  -15.7313 C   0  0  0  0  0  0  0  0  0  0  0  0
   19.4198  -11.0002  -14.7798 O   0  0  0  0  0  0  0  0  0  0  0  0
   16.4616   -8.9320  -15.4974 C   0  0  0  0  0  0  0  0  0  0  0  0
   15.7531   -8.6808  -16.5005 O   0  0  0  0  0  0  0  0  0  0  0  0
   19.0330  -10.2722  -16.9285 O   0  0  0  0  0  0  0  0  0  0  0  0
   17.3729   -7.9407  -15.0353 N   0  0  0  0  0  0  0  0  0  0  0  0
   17.4312   -6.5955  -15.5299 C   0  0  1  0  0  0  0  0  0  0  0  0
   16.0901   -5.9181  -15.2115 C   0  0  0  0  0  0  0  0  0  0  0  0
   16.2573   -4.1079  -15.4197 S   0  0  0  0  0  0  0  0  0  0  0  0
   18.5328   -5.8703  -14.8574 C   0  0  0  0  0  0  0  0  0  0  0  0
   18.7936   -4.5615  -15.2279 O   0  0  0  0  0  0  0  0  0  0  0  0
   19.2624   -6.3574  -13.9618 O   0  0  0  0  0  0  0  0  0  0  0  0
  1  2  1  0
  2  3  1  0
  3  5  1  0
  3  4  1  6
  5  7  1  0
  5  6  1  1
  7  9  1  0
  7  8  2  0
  9 10  1  0
 10 14  1  0
 10 11  1  6
 12 11  1  0
 12 16  1  0
 13 12  2  0
 14 17  1  0
 15 14  2  0
 17 18  1  0
 18 21  1  0
 18 19  1  1
 19 20  1  0
 21 23  2  0
 21 22  1  0
M  END
$$$$
