IDC.pdb
     RDKit          3D

 23 22  0  0  1  0  0  0  0  0999 V2000
   16.2067  -13.9767  -12.8799 C   0  0  0  0  0  0  0  0  0  0  0  0
   15.6283  -13.4230  -11.6131 C   0  0  0  0  0  0  0  0  0  0  0  0
   15.6691  -11.9272  -11.5531 C   0  0  2  0  0  0  0  0  0  0  0  0
   17.0877  -11.4319  -11.7335 C   0  0  0  0  0  0  0  0  0  0  0  0
   14.9808  -11.3180  -10.3819 C   0  0  2  0  0  0  0  0  0  0  0  0
   13.5717  -11.7959  -10.3344 N   0  0  0  0  0  0  0  0  0  0  0  0
   14.9156   -9.8488  -10.3617 C   0  0  0  0  0  0  0  0  0  0  0  0
   14.1734   -9.2563  -11.2264 O   0  0  0  0  0  0  0  0  0  0  0  0
   15.5863   -8.9786   -9.4808 N   0  0  0  0  0  0  0  0  0  0  0  0
   15.5784   -7.5367   -9.6160 C   0  0  1  0  0  0  0  0  0  0  0  0
   15.6445   -6.8952   -8.2495 C   0  0  0  0  0  0  0  0  0  0  0  0
   15.5593   -5.4237   -8.3227 C   0  0  0  0  0  0  0  0  0  0  0  0
   16.4022   -4.7330   -7.6869 O   0  0  0  0  0  0  0  0  0  0  0  0
   16.7406   -7.0306  -10.3840 C   0  0  0  0  0  0  0  0  0  0  0  0
   17.9395   -7.2104  -10.0654 O   0  0  0  0  0  0  0  0  0  0  0  0
   14.5703   -4.8162   -9.0775 O   0  0  0  0  0  0  0  0  0  0  0  0
   16.4479   -6.2901  -11.5642 N   0  0  0  0  0  0  0  0  0  0  0  0
   17.4356   -5.6911  -12.4146 C   0  0  1  0  0  0  0  0  0  0  0  0
   17.2869   -6.3056  -13.8144 C   0  0  0  0  0  0  0  0  0  0  0  0
   17.7093   -8.0847  -13.7468 S   0  0  0  0  0  0  0  0  0  0  0  0
   17.2084   -4.2297  -12.4807 C   0  0  0  0  0  0  0  0  0  0  0  0
   18.1214   -3.4430  -13.1631 O   0  0  0  0  0  0  0  0  0  0  0  0
   16.2359   -3.6368  -11.9568 O   0  0  0  0  0  0  0  0  0  0  0  0
  1  2  1  0
  2  3  1  0
  3  5  1  0
  3  4  1  1
  5  7  1  0
  5  6  1  6
  7  9  1  0
  7  8  2  0
  9 10  1  0
 10 14  1  0
 10 11  1  1
 12 11  1  0
 12 16  1  0
 13 12  2  0
 14 17  1  0
 15 14  2  0
 17 18  1  0
 18 21  1  0
 18 19  1  6
 19 20  1  0
 21 23  2  0
 21 22  1  0
M  END
$$$$
