IDC.pdb
     RDKit          3D

 23 22  0  0  1  0  0  0  0  0999 V2000
   15.7910  -13.3568  -11.6329 C   0  0  0  0  0  0  0  0  0  0  0  0
   15.0758  -12.6113  -10.5472 C   0  0  0  0  0  0  0  0  0  0  0  0
   15.2652  -11.1280  -10.6298 C   0  0  2  0  0  0  0  0  0  0  0  0
   16.7393  -10.7852  -10.6326 C   0  0  0  0  0  0  0  0  0  0  0  0
   14.4807  -10.3303   -9.6477 C   0  0  2  0  0  0  0  0  0  0  0  0
   13.0430  -10.7045   -9.7446 N   0  0  0  0  0  0  0  0  0  0  0  0
   14.5353   -8.8695   -9.8095 C   0  0  0  0  0  0  0  0  0  0  0  0
   13.8839   -8.3355  -10.7790 O   0  0  0  0  0  0  0  0  0  0  0  0
   15.2346   -7.9491   -9.0052 N   0  0  0  0  0  0  0  0  0  0  0  0
   15.2812   -6.5259   -9.2690 C   0  0  1  0  0  0  0  0  0  0  0  0
   15.4089   -5.7690   -7.9674 C   0  0  0  0  0  0  0  0  0  0  0  0
   15.1737   -4.3225   -8.1413 C   0  0  0  0  0  0  0  0  0  0  0  0
   14.9109   -3.8832   -9.2944 O   0  0  0  0  0  0  0  0  0  0  0  0
   16.4423   -6.1396  -10.1053 C   0  0  0  0  0  0  0  0  0  0  0  0
   17.6048   -6.5859   -9.9620 O   0  0  0  0  0  0  0  0  0  0  0  0
   15.2409   -3.4665   -7.0552 O   0  0  0  0  0  0  0  0  0  0  0  0
   16.1934   -5.1925  -11.1386 N   0  0  0  0  0  0  0  0  0  0  0  0
   17.1153   -4.8754  -12.1908 C   0  0  1  0  0  0  0  0  0  0  0  0
   17.3339   -6.1467  -13.0244 C   0  0  0  0  0  0  0  0  0  0  0  0
   18.3557   -5.7470  -14.4886 S   0  0  0  0  0  0  0  0  0  0  0  0
   16.5431   -3.8082  -13.0426 C   0  0  0  0  0  0  0  0  0  0  0  0
   17.3818   -2.8155  -13.5213 O   0  0  0  0  0  0  0  0  0  0  0  0
   15.3355   -3.7308  -13.3704 O   0  0  0  0  0  0  0  0  0  0  0  0
  1  2  1  0
  2  3  1  0
  3  5  1  0
  3  4  1  1
  5  7  1  0
  5  6  1  6
  7  9  1  0
  7  8  2  0
  9 10  1  0
 10 14  1  0
 10 11  1  1
 12 11  1  0
 12 16  1  0
 13 12  2  0
 14 17  1  0
 15 14  2  0
 17 18  1  0
 18 21  1  0
 18 19  1  6
 19 20  1  0
 21 23  2  0
 21 22  1  0
M  END
$$$$
