IDC.pdb
     RDKit          3D

 23 22  0  0  1  0  0  0  0  0999 V2000
   10.7734   -8.9313   -7.9517 C   0  0  0  0  0  0  0  0  0  0  0  0
   11.4157   -9.7626   -9.0205 C   0  0  0  0  0  0  0  0  0  0  0  0
   12.6696   -9.1518   -9.5659 C   0  0  2  0  0  0  0  0  0  0  0  0
   12.4423   -7.6933   -9.8998 C   0  0  0  0  0  0  0  0  0  0  0  0
   13.3196   -9.9105  -10.6697 C   0  0  2  0  0  0  0  0  0  0  0  0
   13.6947  -11.2662  -10.1822 N   0  0  0  0  0  0  0  0  0  0  0  0
   14.5473   -9.3210  -11.2250 C   0  0  0  0  0  0  0  0  0  0  0  0
   15.6048   -9.3077  -10.4962 O   0  0  0  0  0  0  0  0  0  0  0  0
   14.7165   -8.7511  -12.5016 N   0  0  0  0  0  0  0  0  0  0  0  0
   15.9650   -8.1850  -12.9688 C   0  0  1  0  0  0  0  0  0  0  0  0
   16.5432   -9.0548  -14.0608 C   0  0  0  0  0  0  0  0  0  0  0  0
   17.8635   -8.5741  -14.5122 C   0  0  0  0  0  0  0  0  0  0  0  0
   18.7554   -8.3459  -13.6497 O   0  0  0  0  0  0  0  0  0  0  0  0
   15.7954   -6.8299  -13.5446 C   0  0  0  0  0  0  0  0  0  0  0  0
   14.7703   -6.4340  -14.1477 O   0  0  0  0  0  0  0  0  0  0  0  0
   18.1144   -8.3790  -15.8598 O   0  0  0  0  0  0  0  0  0  0  0  0
   16.8892   -5.9322  -13.3884 N   0  0  0  0  0  0  0  0  0  0  0  0
   16.9283   -4.5983  -13.9141 C   0  0  1  0  0  0  0  0  0  0  0  0
   16.3056   -3.6614  -12.8684 C   0  0  0  0  0  0  0  0  0  0  0  0
   16.5867   -1.9226  -13.3639 S   0  0  0  0  0  0  0  0  0  0  0  0
   18.3343   -4.2080  -14.1645 C   0  0  0  0  0  0  0  0  0  0  0  0
   18.5923   -3.1782  -15.0539 O   0  0  0  0  0  0  0  0  0  0  0  0
   19.3289   -4.7473  -13.6245 O   0  0  0  0  0  0  0  0  0  0  0  0
  1  2  1  0
  2  3  1  0
  3  5  1  0
  3  4  1  6
  5  7  1  0
  5  6  1  1
  7  9  1  0
  7  8  2  0
  9 10  1  0
 10 14  1  0
 10 11  1  6
 12 11  1  0
 12 16  1  0
 13 12  2  0
 14 17  1  0
 15 14  2  0
 17 18  1  0
 18 21  1  0
 18 19  1  1
 19 20  1  0
 21 23  2  0
 21 22  1  0
M  END
$$$$
