IDC.pdb
     RDKit          3D

 23 22  0  0  1  0  0  0  0  0999 V2000
   18.0338  -16.7208  -17.9764 C   0  0  0  0  0  0  0  0  0  0  0  0
   18.9323  -15.6942  -17.3561 C   0  0  0  0  0  0  0  0  0  0  0  0
   18.4693  -14.2894  -17.5905 C   0  0  2  0  0  0  0  0  0  0  0  0
   18.2481  -14.0480  -19.0680 C   0  0  0  0  0  0  0  0  0  0  0  0
   19.2911  -13.2314  -16.9411 C   0  0  2  0  0  0  0  0  0  0  0  0
   19.3815  -13.5042  -15.4804 N   0  0  0  0  0  0  0  0  0  0  0  0
   18.7922  -11.8539  -17.0701 C   0  0  0  0  0  0  0  0  0  0  0  0
   18.6604  -11.3576  -18.2473 O   0  0  0  0  0  0  0  0  0  0  0  0
   18.4251  -10.9800  -16.0287 N   0  0  0  0  0  0  0  0  0  0  0  0
   17.8374   -9.6743  -16.2461 C   0  0  1  0  0  0  0  0  0  0  0  0
   17.1795   -9.1921  -14.9742 C   0  0  0  0  0  0  0  0  0  0  0  0
   15.9495   -9.9469  -14.6652 C   0  0  0  0  0  0  0  0  0  0  0  0
   15.1740  -10.2595  -15.6099 O   0  0  0  0  0  0  0  0  0  0  0  0
   18.8433   -8.6529  -16.6225 C   0  0  0  0  0  0  0  0  0  0  0  0
   20.0332   -8.6441  -16.2286 O   0  0  0  0  0  0  0  0  0  0  0  0
   15.6563  -10.3039  -13.3600 O   0  0  0  0  0  0  0  0  0  0  0  0
   18.4016   -7.6181  -17.4947 N   0  0  0  0  0  0  0  0  0  0  0  0
   19.2367   -6.5653  -17.9964 C   0  0  1  0  0  0  0  0  0  0  0  0
   18.9436   -6.4055  -19.4956 C   0  0  0  0  0  0  0  0  0  0  0  0
   19.8960   -4.9890  -20.1550 S   0  0  0  0  0  0  0  0  0  0  0  0
   18.9220   -5.3053  -17.2857 C   0  0  0  0  0  0  0  0  0  0  0  0
   19.9568   -4.4393  -16.9735 O   0  0  0  0  0  0  0  0  0  0  0  0
   17.7702   -4.9541  -16.9370 O   0  0  0  0  0  0  0  0  0  0  0  0
  1  2  1  0
  2  3  1  0
  3  5  1  0
  3  4  1  6
  5  7  1  0
  5  6  1  1
  7  9  1  0
  7  8  2  0
  9 10  1  0
 10 14  1  0
 10 11  1  1
 12 11  1  0
 12 16  1  0
 13 12  2  0
 14 17  1  0
 15 14  2  0
 17 18  1  0
 18 21  1  0
 18 19  1  6
 19 20  1  0
 21 23  2  0
 21 22  1  0
M  END
$$$$
