NNN.pdb
     RDKit          3D

 25 24  0  0  1  0  0  0  0  0999 V2000
   24.8315  -18.8885  -20.5052 N   0  0  0  0  0  0  0  0  0  0  0  0
   24.8045  -18.8659  -19.0916 C   0  0  0  0  0  0  0  0  0  0  0  0
   25.2884  -17.8500  -18.5088 O   0  0  0  0  0  0  0  0  0  0  0  0
   24.2467  -19.9549  -18.2701 C   0  0  0  0  0  0  0  0  0  0  0  0
   25.1407  -20.0908  -17.0390 C   0  0  2  0  0  0  0  0  0  0  0  0
   26.2275  -20.9494  -17.4164 N   0  0  0  0  0  0  0  0  0  0  0  0
   24.3296  -20.6832  -15.9272 C   0  0  0  0  0  0  0  0  0  0  0  0
   23.4284  -21.5243  -16.1440 O   0  0  0  0  0  0  0  0  0  0  0  0
   25.9252  -22.8531  -11.6093 N   0  0  0  0  0  0  0  0  0  0  0  0
   25.8967  -21.5095  -12.1422 C   0  0  0  0  0  0  0  0  0  0  0  0
   26.9898  -21.0529  -12.4703 O   0  0  0  0  0  0  0  0  0  0  0  0
   24.6373  -20.8276  -12.2465 C   0  0  0  0  0  0  0  0  0  0  0  0
   23.8006  -20.9632  -13.4817 C   0  0  2  0  0  0  0  0  0  0  0  0
   24.5633  -20.3033  -14.5852 N   0  0  0  0  0  0  0  0  0  0  0  0
   22.4789  -20.3428  -13.4422 C   0  0  0  0  0  0  0  0  0  0  0  0
   22.3642  -19.0808  -13.7110 O   0  0  0  0  0  0  0  0  0  0  0  0
   18.0916  -20.1109  -16.7185 N   0  0  0  0  0  0  0  0  0  0  0  0
   18.6747  -19.6013  -15.4877 C   0  0  0  0  0  0  0  0  0  0  0  0
   17.9948  -18.7022  -14.9502 O   0  0  0  0  0  0  0  0  0  0  0  0
   19.9518  -20.1502  -14.9916 C   0  0  0  0  0  0  0  0  0  0  0  0
   20.0010  -20.4386  -13.5395 C   0  0  2  0  0  0  0  0  0  0  0  0
   21.2869  -21.0166  -13.1368 N   0  0  0  0  0  0  0  0  0  0  0  0
   18.9675  -21.3662  -13.0814 C   0  0  0  0  0  0  0  0  0  0  0  0
   19.1263  -22.7617  -13.1130 O   0  0  0  0  0  0  0  0  0  0  0  0
   17.8821  -20.9659  -12.6347 O   0  0  0  0  0  0  0  0  0  0  0  0
  1  2  1  0
  2  3  2  0
  4  2  1  0
  5  6  1  6
  5  4  1  0
  7  5  1  0
  8  7  2  0
  9 10  1  0
 10 12  1  0
 11 10  2  0
 13 12  1  1
 13 15  1  0
 13 14  1  0
 14  7  1  0
 15 16  2  0
 17 18  1  0
 18 19  2  0
 21 20  1  6
 20 18  1  0
 21 23  1  0
 22 15  1  0
 22 21  1  0
 23 25  2  0
 23 24  1  0
M  END
$$$$
