NNN.pdb
     RDKit          3D

 25 24  0  0  1  0  0  0  0  0999 V2000
   15.9946  -17.0818  -16.4218 N   0  0  0  0  0  0  0  0  0  0  0  0
   17.1414  -17.1616  -15.5984 C   0  0  0  0  0  0  0  0  0  0  0  0
   17.1997  -18.1091  -14.7589 O   0  0  0  0  0  0  0  0  0  0  0  0
   18.2616  -16.2064  -15.6673 C   0  0  0  0  0  0  0  0  0  0  0  0
   17.9224  -15.1960  -16.7617 C   0  0  2  0  0  0  0  0  0  0  0  0
   18.1044  -15.8742  -18.0139 N   0  0  0  0  0  0  0  0  0  0  0  0
   18.8473  -14.0248  -16.6287 C   0  0  0  0  0  0  0  0  0  0  0  0
   19.2170  -13.6000  -15.5108 O   0  0  0  0  0  0  0  0  0  0  0  0
   22.6921  -14.1436  -19.4976 N   0  0  0  0  0  0  0  0  0  0  0  0
   22.3932  -13.1599  -18.4814 C   0  0  0  0  0  0  0  0  0  0  0  0
   23.1457  -13.1657  -17.5094 O   0  0  0  0  0  0  0  0  0  0  0  0
   21.2774  -12.2765  -18.6730 C   0  0  0  0  0  0  0  0  0  0  0  0
   20.2133  -12.1593  -17.6251 C   0  0  2  0  0  0  0  0  0  0  0  0
   19.3342  -13.3590  -17.7773 N   0  0  0  0  0  0  0  0  0  0  0  0
   19.3516  -10.9826  -17.7033 C   0  0  0  0  0  0  0  0  0  0  0  0
   18.4281  -10.9340  -18.6103 O   0  0  0  0  0  0  0  0  0  0  0  0
   16.8179   -6.4664  -17.1666 N   0  0  0  0  0  0  0  0  0  0  0  0
   17.2006   -6.9771  -15.8600 C   0  0  0  0  0  0  0  0  0  0  0  0
   16.7261   -6.3193  -14.9104 O   0  0  0  0  0  0  0  0  0  0  0  0
   18.0703   -8.1650  -15.7558 C   0  0  0  0  0  0  0  0  0  0  0  0
   18.5256   -8.7372  -17.0440 C   0  0  2  0  0  0  0  0  0  0  0  0
   19.4349   -9.8711  -16.8513 N   0  0  0  0  0  0  0  0  0  0  0  0
   19.2267   -7.7846  -17.9039 C   0  0  0  0  0  0  0  0  0  0  0  0
   18.8789   -7.5706  -19.2481 O   0  0  0  0  0  0  0  0  0  0  0  0
   20.1775   -7.1061  -17.4876 O   0  0  0  0  0  0  0  0  0  0  0  0
  1  2  1  0
  2  3  2  0
  4  2  1  0
  5  6  1  6
  5  4  1  0
  7  5  1  0
  8  7  2  0
  9 10  1  0
 10 12  1  0
 11 10  2  0
 13 12  1  6
 13 15  1  0
 13 14  1  0
 14  7  1  0
 15 16  2  0
 17 18  1  0
 18 19  2  0
 21 20  1  1
 20 18  1  0
 21 23  1  0
 22 15  1  0
 22 21  1  0
 23 25  2  0
 23 24  1  0
M  END
$$$$
