NNN.pdb
     RDKit          3D

 25 24  0  0  1  0  0  0  0  0999 V2000
   15.5912  -13.6107  -10.5349 N   0  0  0  0  0  0  0  0  0  0  0  0
   16.0949  -12.9628  -11.6864 C   0  0  0  0  0  0  0  0  0  0  0  0
   16.4227  -13.6862  -12.6739 O   0  0  0  0  0  0  0  0  0  0  0  0
   16.2560  -11.5019  -11.7940 C   0  0  0  0  0  0  0  0  0  0  0  0
   15.1233  -10.8656  -10.9905 C   0  0  2  0  0  0  0  0  0  0  0  0
   13.9004  -11.2364  -11.6446 N   0  0  0  0  0  0  0  0  0  0  0  0
   15.3199   -9.3802  -10.9884 C   0  0  0  0  0  0  0  0  0  0  0  0
   14.9733   -8.6677  -11.9573 O   0  0  0  0  0  0  0  0  0  0  0  0
   14.6368   -4.6770   -7.6581 N   0  0  0  0  0  0  0  0  0  0  0  0
   15.7919   -5.4087   -8.1276 C   0  0  0  0  0  0  0  0  0  0  0  0
   16.8400   -4.7674   -8.1612 O   0  0  0  0  0  0  0  0  0  0  0  0
   15.6381   -6.7848   -8.5081 C   0  0  0  0  0  0  0  0  0  0  0  0
   16.0534   -7.2465   -9.8713 C   0  0  2  0  0  0  0  0  0  0  0  0
   15.9100   -8.7346   -9.8771 N   0  0  0  0  0  0  0  0  0  0  0  0
   17.4264   -6.9458  -10.2686 C   0  0  0  0  0  0  0  0  0  0  0  0
   18.3927   -7.6740   -9.8060 O   0  0  0  0  0  0  0  0  0  0  0  0
   21.9317   -6.2255  -12.6060 N   0  0  0  0  0  0  0  0  0  0  0  0
   20.9324   -7.2712  -12.7550 C   0  0  0  0  0  0  0  0  0  0  0  0
   21.2494   -8.1473  -13.5866 O   0  0  0  0  0  0  0  0  0  0  0  0
   19.6894   -7.2252  -11.9604 C   0  0  0  0  0  0  0  0  0  0  0  0
   19.1625   -5.8699  -11.6783 C   0  0  2  0  0  0  0  0  0  0  0  0
   17.7997   -5.9109  -11.1392 N   0  0  0  0  0  0  0  0  0  0  0  0
   19.1201   -4.9923  -12.8472 C   0  0  0  0  0  0  0  0  0  0  0  0
   17.9918   -4.8801  -13.6766 O   0  0  0  0  0  0  0  0  0  0  0  0
   20.0897   -4.2913  -13.1731 O   0  0  0  0  0  0  0  0  0  0  0  0
  1  2  1  0
  2  3  2  0
  4  2  1  0
  5  6  1  6
  5  4  1  0
  7  5  1  0
  8  7  2  0
  9 10  1  0
 10 12  1  0
 11 10  2  0
 13 12  1  1
 13 15  1  0
 13 14  1  0
 14  7  1  0
 15 16  2  0
 17 18  1  0
 18 19  2  0
 21 20  1  6
 20 18  1  0
 21 23  1  0
 22 15  1  0
 22 21  1  0
 23 25  2  0
 23 24  1  0
M  END
$$$$
