NNN.pdb
     RDKit          3D

 25 24  0  0  1  0  0  0  0  0999 V2000
   26.9852  -20.6927   -9.5083 N   0  0  0  0  0  0  0  0  0  0  0  0
   27.5857  -20.6216  -10.7865 C   0  0  0  0  0  0  0  0  0  0  0  0
   28.8515  -20.6018  -10.8429 O   0  0  0  0  0  0  0  0  0  0  0  0
   26.8197  -20.5699  -12.0446 C   0  0  0  0  0  0  0  0  0  0  0  0
   25.3487  -20.7652  -11.6820 C   0  0  2  0  0  0  0  0  0  0  0  0
   25.2935  -21.8908  -10.7927 N   0  0  0  0  0  0  0  0  0  0  0  0
   24.5796  -21.0193  -12.9425 C   0  0  0  0  0  0  0  0  0  0  0  0
   24.5923  -20.2100  -13.8973 O   0  0  0  0  0  0  0  0  0  0  0  0
   25.4772  -25.0426  -15.0214 N   0  0  0  0  0  0  0  0  0  0  0  0
   24.7017  -23.8958  -15.4377 C   0  0  0  0  0  0  0  0  0  0  0  0
   25.2570  -23.1530  -16.2446 O   0  0  0  0  0  0  0  0  0  0  0  0
   23.3838  -23.7121  -14.8979 C   0  0  0  0  0  0  0  0  0  0  0  0
   22.9783  -22.3920  -14.3174 C   0  0  2  0  0  0  0  0  0  0  0  0
   23.8087  -22.1956  -13.0897 N   0  0  0  0  0  0  0  0  0  0  0  0
   21.5802  -22.2610  -13.9159 C   0  0  0  0  0  0  0  0  0  0  0  0
   21.2009  -22.7477  -12.7769 O   0  0  0  0  0  0  0  0  0  0  0  0
   17.5325  -19.3974  -12.6155 N   0  0  0  0  0  0  0  0  0  0  0  0
   18.9299  -19.2388  -12.2460 C   0  0  0  0  0  0  0  0  0  0  0  0
   19.1096  -18.4207  -11.3196 O   0  0  0  0  0  0  0  0  0  0  0  0
   19.9733  -20.0097  -12.9498 C   0  0  0  0  0  0  0  0  0  0  0  0
   19.4849  -20.9337  -13.9995 C   0  0  2  0  0  0  0  0  0  0  0  0
   20.5848  -21.6285  -14.6757 N   0  0  0  0  0  0  0  0  0  0  0  0
   18.6989  -20.2829  -15.0469 C   0  0  0  0  0  0  0  0  0  0  0  0
   18.4185  -20.8930  -16.2809 O   0  0  0  0  0  0  0  0  0  0  0  0
   18.2319  -19.1436  -14.9003 O   0  0  0  0  0  0  0  0  0  0  0  0
  1  2  1  0
  2  3  2  0
  4  2  1  0
  5  6  1  1
  5  4  1  0
  7  5  1  0
  8  7  2  0
  9 10  1  0
 10 12  1  0
 11 10  2  0
 13 12  1  1
 13 15  1  0
 13 14  1  0
 14  7  1  0
 15 16  2  0
 17 18  1  0
 18 19  2  0
 21 20  1  1
 20 18  1  0
 21 23  1  0
 22 15  1  0
 22 21  1  0
 23 25  2  0
 23 24  1  0
M  END
$$$$
