NNN.pdb
     RDKit          3D

 25 24  0  0  1  0  0  0  0  0999 V2000
   29.4724  -31.7289  -15.3059 N   0  0  0  0  0  0  0  0  0  0  0  0
   29.4631  -31.5782  -16.7118 C   0  0  0  0  0  0  0  0  0  0  0  0
   30.5583  -31.7377  -17.3291 O   0  0  0  0  0  0  0  0  0  0  0  0
   28.2544  -31.2479  -17.4876 C   0  0  0  0  0  0  0  0  0  0  0  0
   27.0920  -31.1797  -16.4988 C   0  0  2  0  0  0  0  0  0  0  0  0
   26.8394  -32.5269  -16.0721 N   0  0  0  0  0  0  0  0  0  0  0  0
   25.9062  -30.5916  -17.2011 C   0  0  0  0  0  0  0  0  0  0  0  0
   25.9543  -29.4663  -17.7470 O   0  0  0  0  0  0  0  0  0  0  0  0
   21.5292  -32.0435  -20.7624 N   0  0  0  0  0  0  0  0  0  0  0  0
   21.5921  -31.5908  -19.3909 C   0  0  0  0  0  0  0  0  0  0  0  0
   20.5846  -31.0174  -18.9820 O   0  0  0  0  0  0  0  0  0  0  0  0
   22.7854  -31.8345  -18.6303 C   0  0  0  0  0  0  0  0  0  0  0  0
   23.5130  -30.7007  -17.9753 C   0  0  2  0  0  0  0  0  0  0  0  0
   24.6849  -31.3013  -17.2674 N   0  0  0  0  0  0  0  0  0  0  0  0
   22.7618  -29.9317  -16.9865 C   0  0  0  0  0  0  0  0  0  0  0  0
   23.1685  -29.9141  -15.7568 O   0  0  0  0  0  0  0  0  0  0  0  0
   19.9668  -27.0802  -13.8882 N   0  0  0  0  0  0  0  0  0  0  0  0
   21.2904  -26.7416  -14.3862 C   0  0  0  0  0  0  0  0  0  0  0  0
   21.8611  -25.8540  -13.7183 O   0  0  0  0  0  0  0  0  0  0  0  0
   21.8322  -27.4299  -15.5741 C   0  0  0  0  0  0  0  0  0  0  0  0
   20.9433  -28.4461  -16.1833 C   0  0  2  0  0  0  0  0  0  0  0  0
   21.6084  -29.1823  -17.2628 N   0  0  0  0  0  0  0  0  0  0  0  0
   19.7131  -27.8970  -16.7521 C   0  0  0  0  0  0  0  0  0  0  0  0
   19.6937  -26.7530  -17.5673 O   0  0  0  0  0  0  0  0  0  0  0  0
   18.6075  -28.4182  -16.5430 O   0  0  0  0  0  0  0  0  0  0  0  0
  1  2  1  0
  2  3  2  0
  4  2  1  0
  5  6  1  6
  5  4  1  0
  7  5  1  0
  8  7  2  0
  9 10  1  0
 10 12  1  0
 11 10  2  0
 13 12  1  1
 13 15  1  0
 13 14  1  0
 14  7  1  0
 15 16  2  0
 17 18  1  0
 18 19  2  0
 21 20  1  6
 20 18  1  0
 21 23  1  0
 22 15  1  0
 22 21  1  0
 23 25  2  0
 23 24  1  0
M  END
$$$$
