NNN.pdb
     RDKit          3D

 25 24  0  0  1  0  0  0  0  0999 V2000
   28.9779  -22.4176  -16.3593 N   0  0  0  0  0  0  0  0  0  0  0  0
   27.7069  -21.9144  -16.7210 C   0  0  0  0  0  0  0  0  0  0  0  0
   27.3020  -22.1296  -17.9024 O   0  0  0  0  0  0  0  0  0  0  0  0
   26.8379  -21.1592  -15.8009 C   0  0  0  0  0  0  0  0  0  0  0  0
   26.3360  -19.9339  -16.5627 C   0  0  2  0  0  0  0  0  0  0  0  0
   27.4435  -19.0244  -16.6479 N   0  0  0  0  0  0  0  0  0  0  0  0
   25.1904  -19.3392  -15.8019 C   0  0  0  0  0  0  0  0  0  0  0  0
   25.3294  -18.8976  -14.6390 O   0  0  0  0  0  0  0  0  0  0  0  0
   20.6169  -15.7475  -17.0420 N   0  0  0  0  0  0  0  0  0  0  0  0
   21.2542  -16.6074  -16.0702 C   0  0  0  0  0  0  0  0  0  0  0  0
   20.7845  -16.5536  -14.9355 O   0  0  0  0  0  0  0  0  0  0  0  0
   22.3523  -17.4344  -16.4850 C   0  0  0  0  0  0  0  0  0  0  0  0
   22.7914  -18.5924  -15.6421 C   0  0  2  0  0  0  0  0  0  0  0  0
   23.9044  -19.2595  -16.3846 N   0  0  0  0  0  0  0  0  0  0  0  0
   21.7848  -19.6145  -15.3677 C   0  0  0  0  0  0  0  0  0  0  0  0
   21.5704  -20.5429  -16.2453 O   0  0  0  0  0  0  0  0  0  0  0  0
   18.1583  -22.8543  -13.6092 N   0  0  0  0  0  0  0  0  0  0  0  0
   19.4368  -22.8825  -12.9171 C   0  0  0  0  0  0  0  0  0  0  0  0
   19.5744  -23.8712  -12.1665 O   0  0  0  0  0  0  0  0  0  0  0  0
   20.4213  -21.8052  -13.1378 C   0  0  0  0  0  0  0  0  0  0  0  0
   19.9932  -20.7293  -14.0614 C   0  0  2  0  0  0  0  0  0  0  0  0
   21.0126  -19.6844  -14.1985 N   0  0  0  0  0  0  0  0  0  0  0  0
   18.7595  -20.0551  -13.6591 C   0  0  0  0  0  0  0  0  0  0  0  0
   17.5166  -20.7076  -13.6035 O   0  0  0  0  0  0  0  0  0  0  0  0
   18.7440  -18.8566  -13.3414 O   0  0  0  0  0  0  0  0  0  0  0  0
  1  2  1  0
  2  3  2  0
  4  2  1  0
  5  6  1  1
  5  4  1  0
  7  5  1  0
  8  7  2  0
  9 10  1  0
 10 12  1  0
 11 10  2  0
 13 12  1  6
 13 15  1  0
 13 14  1  0
 14  7  1  0
 15 16  2  0
 17 18  1  0
 18 19  2  0
 21 20  1  1
 20 18  1  0
 21 23  1  0
 22 15  1  0
 22 21  1  0
 23 25  2  0
 23 24  1  0
M  END
$$$$
