NNN.pdb
     RDKit          3D

 25 24  0  0  1  0  0  0  0  0999 V2000
   30.7699  -21.0262  -10.3994 N   0  0  0  0  0  0  0  0  0  0  0  0
   29.8739  -21.3764  -11.4358 C   0  0  0  0  0  0  0  0  0  0  0  0
   30.2965  -21.3083  -12.6286 O   0  0  0  0  0  0  0  0  0  0  0  0
   28.4861  -21.8127  -11.1998 C   0  0  0  0  0  0  0  0  0  0  0  0
   27.5885  -20.9503  -12.0854 C   0  0  2  0  0  0  0  0  0  0  0  0
   27.8647  -19.5847  -11.7396 N   0  0  0  0  0  0  0  0  0  0  0  0
   26.1611  -21.3122  -11.8086 C   0  0  0  0  0  0  0  0  0  0  0  0
   25.7307  -22.4752  -11.9783 O   0  0  0  0  0  0  0  0  0  0  0  0
   21.8331  -21.0835   -8.1840 N   0  0  0  0  0  0  0  0  0  0  0  0
   22.0205  -20.3446   -9.4123 C   0  0  0  0  0  0  0  0  0  0  0  0
   20.9865  -19.9671   -9.9594 O   0  0  0  0  0  0  0  0  0  0  0  0
   23.3548  -20.1122   -9.8895 C   0  0  0  0  0  0  0  0  0  0  0  0
   23.8010  -20.6789  -11.2025 C   0  0  2  0  0  0  0  0  0  0  0  0
   25.2497  -20.3369  -11.3417 N   0  0  0  0  0  0  0  0  0  0  0  0
   23.1235  -20.1714  -12.3928 C   0  0  0  0  0  0  0  0  0  0  0  0
   23.7185  -19.2892  -13.1315 O   0  0  0  0  0  0  0  0  0  0  0  0
   22.8890  -21.2995  -17.5444 N   0  0  0  0  0  0  0  0  0  0  0  0
   23.0451  -20.7641  -16.2015 C   0  0  0  0  0  0  0  0  0  0  0  0
   23.7898  -19.7629  -16.1488 O   0  0  0  0  0  0  0  0  0  0  0  0
   22.3540  -21.4038  -15.0650 C   0  0  0  0  0  0  0  0  0  0  0  0
   21.5072  -20.5057  -14.2461 C   0  0  2  0  0  0  0  0  0  0  0  0
   21.8500  -20.5740  -12.8222 N   0  0  0  0  0  0  0  0  0  0  0  0
   20.0753  -20.7863  -14.3421 C   0  0  0  0  0  0  0  0  0  0  0  0
   19.1664  -19.9125  -14.9618 O   0  0  0  0  0  0  0  0  0  0  0  0
   19.5803  -21.8233  -13.8759 O   0  0  0  0  0  0  0  0  0  0  0  0
  1  2  1  0
  2  3  2  0
  4  2  1  0
  5  6  1  1
  5  4  1  0
  7  5  1  0
  8  7  2  0
  9 10  1  0
 10 12  1  0
 11 10  2  0
 13 12  1  1
 13 15  1  0
 13 14  1  0
 14  7  1  0
 15 16  2  0
 17 18  1  0
 18 19  2  0
 21 20  1  6
 20 18  1  0
 21 23  1  0
 22 15  1  0
 22 21  1  0
 23 25  2  0
 23 24  1  0
M  END
$$$$
