RAR.pdb
     RDKit          3D

 28 27  0  0  1  0  0  0  0  0999 V2000
   19.3388  -22.2243  -10.5542 N   0  0  0  0  0  0  0  0  0  0  0  0
   18.2277  -23.0359  -10.8780 C   0  0  0  0  0  0  0  0  0  0  0  0
   17.7684  -23.0854  -12.0938 N   0  0  0  0  0  0  0  0  0  0  0  0
   17.6191  -23.7994   -9.8492 N   0  0  0  0  0  0  0  0  0  0  0  0
   18.2980  -23.9468   -8.5811 C   0  0  0  0  0  0  0  0  0  0  0  0
   17.3688  -24.7413   -7.6476 C   0  0  0  0  0  0  0  0  0  0  0  0
   18.0516  -24.8029   -6.3027 C   0  0  0  0  0  0  0  0  0  0  0  0
   18.5941  -26.1363   -5.9344 C   0  0  2  0  0  0  0  0  0  0  0  0
   18.2449  -27.0998   -6.9882 N   0  0  0  0  0  0  0  0  0  0  0  0
   18.1099  -26.7160   -4.6812 C   0  0  0  0  0  0  0  0  0  0  0  0
   16.8557  -26.8594   -4.5522 O   0  0  0  0  0  0  0  0  0  0  0  0
   16.9162  -23.6296  -12.3089 C   0  0  0  0  0  0  0  0  0  0  0  0
   19.4387  -28.1501   -1.4372 C   0  0  2  0  0  0  0  0  0  0  0  0
   18.3544  -27.6458   -2.3988 N   0  0  0  0  0  0  0  0  0  0  0  0
   18.9173  -27.1287   -3.6054 C   0  0  0  0  0  0  0  0  0  0  0  0
   17.5834  -26.6248   -1.6374 O   0  0  0  0  0  0  0  0  0  0  0  0
   17.9717  -25.4290   -1.6887 N   0  0  0  0  0  0  0  0  0  0  0  0
   10.1362  -27.9114    2.5776 C   0  0  0  0  0  0  0  0  0  0  0  0
   10.3675  -27.8187    1.1727 N   0  0  0  0  0  0  0  0  0  0  0  0
    9.6154  -28.4701    0.3361 N   0  0  0  0  0  0  0  0  0  0  0  0
   11.4090  -27.0264    0.6370 C   0  0  0  0  0  0  0  0  0  0  0  0
   12.2533  -26.2248    1.5572 C   0  0  0  0  0  0  0  0  0  0  0  0
   13.2654  -25.5678    0.7135 C   0  0  0  0  0  0  0  0  0  0  0  0
   14.2879  -26.2843   -0.0281 C   0  0  1  0  0  0  0  0  0  0  0  0
   15.7025  -25.8707   -0.1013 N   0  0  0  0  0  0  0  0  0  0  0  0
   16.4474  -26.9304   -0.8673 C   0  0  0  0  0  0  0  0  0  0  0  0
   16.3488  -25.8916    1.2329 O   0  0  0  0  0  0  0  0  0  0  0  0
   17.0414  -26.7840    1.7276 O   0  0  0  0  0  0  0  0  0  0  0  0
  2  1  1  0
  3  2  2  0
  4  2  1  0
  5  4  1  0
  6  5  1  0
  7  6  1  0
  8  9  1  6
  8  7  1  0
 10  8  1  0
 11 10  2  0
 13 12  1  6
 13 15  1  0
 13 14  1  0
 14 10  1  0
 15 16  2  0
 18 17  1  0
 18 19  2  0
 20 18  1  0
 21 22  1  0
 21 20  1  0
 23 22  1  0
 24 23  1  6
 25 24  1  0
 25 15  1  0
 26 28  1  0
 26 24  1  0
 27 26  2  0
M  END
$$$$
