RAR.pdb
     RDKit          3D

 28 27  0  0  1  0  0  0  0  0999 V2000
   11.4433  -13.3899   -9.8333 N   0  0  0  0  0  0  0  0  0  0  0  0
   10.3562  -12.6000   -9.3948 C   0  0  0  0  0  0  0  0  0  0  0  0
    9.4650  -13.0835   -8.5804 N   0  0  0  0  0  0  0  0  0  0  0  0
   10.2534  -11.2641   -9.8604 N   0  0  0  0  0  0  0  0  0  0  0  0
   11.4324  -10.5988  -10.3683 C   0  0  0  0  0  0  0  0  0  0  0  0
   11.8061   -9.4908   -9.3689 C   0  0  0  0  0  0  0  0  0  0  0  0
   12.9962   -8.7651   -9.9482 C   0  0  0  0  0  0  0  0  0  0  0  0
   14.2778   -9.5149   -9.8911 C   0  0  2  0  0  0  0  0  0  0  0  0
   14.6771   -9.6684   -8.4847 N   0  0  0  0  0  0  0  0  0  0  0  0
   15.4220   -8.9075  -10.5714 C   0  0  0  0  0  0  0  0  0  0  0  0
   15.9205   -7.8625  -10.0522 O   0  0  0  0  0  0  0  0  0  0  0  0
    8.6892  -12.4898   -8.2421 C   0  0  0  0  0  0  0  0  0  0  0  0
   17.5826   -9.4181  -13.6420 C   0  0  1  0  0  0  0  0  0  0  0  0
   17.0537   -8.6589  -12.4177 N   0  0  0  0  0  0  0  0  0  0  0  0
   16.0175   -9.3838  -11.7538 C   0  0  0  0  0  0  0  0  0  0  0  0
   16.5975   -7.3372  -12.9290 O   0  0  0  0  0  0  0  0  0  0  0  0
   15.4895   -7.2817  -13.5227 N   0  0  0  0  0  0  0  0  0  0  0  0
   15.9481    0.1823   -9.0468 C   0  0  0  0  0  0  0  0  0  0  0  0
   15.3255   -1.0831   -9.2639 N   0  0  0  0  0  0  0  0  0  0  0  0
   14.5084   -1.5762   -8.3814 N   0  0  0  0  0  0  0  0  0  0  0  0
   15.5665   -1.8447  -10.4307 C   0  0  0  0  0  0  0  0  0  0  0  0
   16.6858   -1.4601  -11.3260 C   0  0  0  0  0  0  0  0  0  0  0  0
   16.6767   -2.4331  -12.4309 C   0  0  0  0  0  0  0  0  0  0  0  0
   16.8216   -3.8664  -12.2468 C   0  0  1  0  0  0  0  0  0  0  0  0
   16.8658   -4.8440  -13.3512 N   0  0  0  0  0  0  0  0  0  0  0  0
   17.3412   -6.1531  -12.7813 C   0  0  0  0  0  0  0  0  0  0  0  0
   17.9114   -4.5008  -14.3448 O   0  0  0  0  0  0  0  0  0  0  0  0
   18.9557   -5.1094  -14.5896 O   0  0  0  0  0  0  0  0  0  0  0  0
  2  1  1  0
  3  2  2  0
  4  2  1  0
  5  4  1  0
  6  5  1  0
  7  6  1  0
  8  9  1  1
  8  7  1  0
 10  8  1  0
 11 10  2  0
 13 12  1  1
 13 15  1  0
 13 14  1  0
 14 10  1  0
 15 16  2  0
 18 17  1  0
 18 19  2  0
 20 18  1  0
 21 22  1  0
 21 20  1  0
 23 22  1  0
 24 23  1  1
 25 24  1  0
 25 15  1  0
 26 28  1  0
 26 24  1  0
 27 26  2  0
M  END
$$$$
