RAR.pdb
     RDKit          3D

 28 27  0  0  1  0  0  0  0  0999 V2000
   13.0202  -21.6288  -10.5496 N   0  0  0  0  0  0  0  0  0  0  0  0
   13.5624  -22.5909  -11.4319 C   0  0  0  0  0  0  0  0  0  0  0  0
   14.3714  -22.2397  -12.3878 N   0  0  0  0  0  0  0  0  0  0  0  0
   13.2075  -23.9529  -11.2561 N   0  0  0  0  0  0  0  0  0  0  0  0
   13.7654  -24.6921  -10.1457 C   0  0  0  0  0  0  0  0  0  0  0  0
   14.4424  -25.9487  -10.7190 C   0  0  0  0  0  0  0  0  0  0  0  0
   15.0346  -26.6966   -9.5490 C   0  0  0  0  0  0  0  0  0  0  0  0
   14.7635  -26.0954   -8.2175 C   0  0  2  0  0  0  0  0  0  0  0  0
   14.7089  -24.6332   -8.3576 N   0  0  0  0  0  0  0  0  0  0  0  0
   15.7456  -26.3637   -7.1665 C   0  0  0  0  0  0  0  0  0  0  0  0
   16.3068  -27.5018   -7.1708 O   0  0  0  0  0  0  0  0  0  0  0  0
   14.7661  -22.9507  -13.0262 C   0  0  0  0  0  0  0  0  0  0  0  0
   17.9674  -24.5515   -4.8191 C   0  0  2  0  0  0  0  0  0  0  0  0
   17.1432  -25.7870   -5.2050 N   0  0  0  0  0  0  0  0  0  0  0  0
   16.1214  -25.4664   -6.1501 C   0  0  0  0  0  0  0  0  0  0  0  0
   16.5999  -26.3244   -3.9273 O   0  0  0  0  0  0  0  0  0  0  0  0
   15.4193  -26.7598   -3.9218 N   0  0  0  0  0  0  0  0  0  0  0  0
   14.7007  -23.3389    2.0598 C   0  0  0  0  0  0  0  0  0  0  0  0
   14.7623  -22.2661    1.1211 N   0  0  0  0  0  0  0  0  0  0  0  0
   15.0061  -21.0533    1.5205 N   0  0  0  0  0  0  0  0  0  0  0  0
   14.5636  -22.4719   -0.2637 C   0  0  0  0  0  0  0  0  0  0  0  0
   14.1642  -23.8180   -0.7440 C   0  0  0  0  0  0  0  0  0  0  0  0
   15.4117  -24.5872   -0.8845 C   0  0  0  0  0  0  0  0  0  0  0  0
   15.4599  -25.9837   -1.2802 C   0  0  2  0  0  0  0  0  0  0  0  0
   16.7050  -26.7623   -1.4246 N   0  0  0  0  0  0  0  0  0  0  0  0
   17.3386  -26.3690   -2.7317 C   0  0  0  0  0  0  0  0  0  0  0  0
   16.4294  -28.2089   -1.5968 O   0  0  0  0  0  0  0  0  0  0  0  0
   15.5856  -28.7404   -2.3223 O   0  0  0  0  0  0  0  0  0  0  0  0
  2  1  1  0
  3  2  2  0
  4  2  1  0
  5  4  1  0
  6  5  1  0
  7  6  1  0
  8  9  1  6
  8  7  1  0
 10  8  1  0
 11 10  2  0
 13 12  1  6
 13 15  1  0
 13 14  1  0
 14 10  1  0
 15 16  2  0
 18 17  1  0
 18 19  2  0
 20 18  1  0
 21 22  1  0
 21 20  1  0
 23 22  1  0
 24 23  1  1
 25 24  1  0
 25 15  1  0
 26 28  1  0
 26 24  1  0
 27 26  2  0
M  END
$$$$
