RAR.pdb
     RDKit          3D

 28 27  0  0  1  0  0  0  0  0999 V2000
   20.8484  -22.8971  -13.7696 N   0  0  0  0  0  0  0  0  0  0  0  0
   20.2288  -23.2884  -12.5609 C   0  0  0  0  0  0  0  0  0  0  0  0
   19.7062  -24.4722  -12.4309 N   0  0  0  0  0  0  0  0  0  0  0  0
   20.1868  -22.3633  -11.4865 N   0  0  0  0  0  0  0  0  0  0  0  0
   21.0992  -21.2417  -11.4820 C   0  0  0  0  0  0  0  0  0  0  0  0
   22.5291  -21.8076  -11.4461 C   0  0  0  0  0  0  0  0  0  0  0  0
   23.4602  -20.6293  -11.2937 C   0  0  0  0  0  0  0  0  0  0  0  0
   24.9060  -20.9710  -11.2647 C   0  0  2  0  0  0  0  0  0  0  0  0
   25.4368  -20.6814   -9.9249 N   0  0  0  0  0  0  0  0  0  0  0  0
   25.7671  -20.2518  -12.2041 C   0  0  0  0  0  0  0  0  0  0  0  0
   25.6542  -18.9887  -12.2473 O   0  0  0  0  0  0  0  0  0  0  0  0
   19.2647  -24.7537  -11.5394 C   0  0  0  0  0  0  0  0  0  0  0  0
   28.6075  -20.6928  -14.6127 C   0  0  1  0  0  0  0  0  0  0  0  0
   27.2368  -20.1442  -14.1945 N   0  0  0  0  0  0  0  0  0  0  0  0
   26.7108  -20.8420  -13.0646 C   0  0  0  0  0  0  0  0  0  0  0  0
   26.3708  -20.2612  -15.3998 O   0  0  0  0  0  0  0  0  0  0  0  0
   25.4999  -21.1692  -15.4180 N   0  0  0  0  0  0  0  0  0  0  0  0
   20.2084  -16.4566  -18.0227 C   0  0  0  0  0  0  0  0  0  0  0  0
   19.9501  -17.3933  -16.9778 N   0  0  0  0  0  0  0  0  0  0  0  0
   18.7878  -17.9669  -16.8786 N   0  0  0  0  0  0  0  0  0  0  0  0
   20.9321  -17.7334  -16.0189 C   0  0  0  0  0  0  0  0  0  0  0  0
   22.1961  -16.9571  -15.9728 C   0  0  0  0  0  0  0  0  0  0  0  0
   23.1308  -17.6464  -16.8777 C   0  0  0  0  0  0  0  0  0  0  0  0
   24.3268  -18.3382  -16.4303 C   0  0  1  0  0  0  0  0  0  0  0  0
   25.2758  -19.0207  -17.3307 N   0  0  0  0  0  0  0  0  0  0  0  0
   26.4782  -19.4102  -16.5139 C   0  0  0  0  0  0  0  0  0  0  0  0
   25.8335  -18.0926  -18.3437 O   0  0  0  0  0  0  0  0  0  0  0  0
   26.6219  -17.1608  -18.1679 O   0  0  0  0  0  0  0  0  0  0  0  0
  2  1  1  0
  3  2  2  0
  4  2  1  0
  5  4  1  0
  6  5  1  0
  7  6  1  0
  8  9  1  1
  8  7  1  0
 10  8  1  0
 11 10  2  0
 13 12  1  1
 13 15  1  0
 13 14  1  0
 14 10  1  0
 15 16  2  0
 18 17  1  0
 18 19  2  0
 20 18  1  0
 21 22  1  0
 21 20  1  0
 23 22  1  0
 24 23  1  1
 25 24  1  0
 25 15  1  0
 26 28  1  0
 26 24  1  0
 27 26  2  0
M  END
$$$$
