RAR.pdb
     RDKit          3D

 28 27  0  0  1  0  0  0  0  0999 V2000
   32.6869  -26.2019  -18.9421 N   0  0  0  0  0  0  0  0  0  0  0  0
   31.8680  -27.3401  -18.7635 C   0  0  0  0  0  0  0  0  0  0  0  0
   32.3905  -28.5208  -18.6068 N   0  0  0  0  0  0  0  0  0  0  0  0
   30.4597  -27.1719  -18.7579 N   0  0  0  0  0  0  0  0  0  0  0  0
   29.9033  -25.8717  -18.4570 C   0  0  0  0  0  0  0  0  0  0  0  0
   28.7584  -26.0791  -17.4509 C   0  0  0  0  0  0  0  0  0  0  0  0
   28.0542  -24.7510  -17.3127 C   0  0  0  0  0  0  0  0  0  0  0  0
   28.9210  -23.6221  -16.8858 C   0  0  2  0  0  0  0  0  0  0  0  0
   30.0010  -24.1458  -16.0373 N   0  0  0  0  0  0  0  0  0  0  0  0
   28.2780  -22.5604  -16.1110 C   0  0  0  0  0  0  0  0  0  0  0  0
   27.9108  -22.8425  -14.9296 O   0  0  0  0  0  0  0  0  0  0  0  0
   31.7891  -29.3345  -18.3945 C   0  0  0  0  0  0  0  0  0  0  0  0
   27.2618  -18.9257  -16.4480 C   0  0  2  0  0  0  0  0  0  0  0  0
   27.3431  -20.2943  -15.7587 N   0  0  0  0  0  0  0  0  0  0  0  0
   28.0316  -21.2515  -16.5647 C   0  0  0  0  0  0  0  0  0  0  0  0
   25.9355  -20.6860  -15.4727 O   0  0  0  0  0  0  0  0  0  0  0  0
   25.3858  -21.5211  -16.2366 N   0  0  0  0  0  0  0  0  0  0  0  0
   20.2177  -22.3546   -8.7576 C   0  0  0  0  0  0  0  0  0  0  0  0
   20.3575  -21.3260   -9.7366 N   0  0  0  0  0  0  0  0  0  0  0  0
   19.3307  -20.9298  -10.4283 N   0  0  0  0  0  0  0  0  0  0  0  0
   21.6002  -20.7021   -9.9935 C   0  0  0  0  0  0  0  0  0  0  0  0
   21.6590  -19.5825  -10.9658 C   0  0  0  0  0  0  0  0  0  0  0  0
   22.0520  -20.1805  -12.2525 C   0  0  0  0  0  0  0  0  0  0  0  0
   23.3959  -20.1120  -12.7987 C   0  0  1  0  0  0  0  0  0  0  0  0
   23.7683  -20.5834  -14.1464 N   0  0  0  0  0  0  0  0  0  0  0  0
   25.1939  -20.1704  -14.3951 C   0  0  0  0  0  0  0  0  0  0  0  0
   23.0133  -19.8697  -15.2042 O   0  0  0  0  0  0  0  0  0  0  0  0
   23.2755  -18.7817  -15.7220 O   0  0  0  0  0  0  0  0  0  0  0  0
  2  1  1  0
  3  2  2  0
  4  2  1  0
  5  4  1  0
  6  5  1  0
  7  6  1  0
  8  9  1  1
  8  7  1  0
 10  8  1  0
 11 10  2  0
 13 12  1  1
 13 15  1  0
 13 14  1  0
 14 10  1  0
 15 16  2  0
 18 17  1  0
 18 19  2  0
 20 18  1  0
 21 22  1  0
 21 20  1  0
 23 22  1  0
 24 23  1  1
 25 24  1  0
 25 15  1  0
 26 28  1  0
 26 24  1  0
 27 26  2  0
M  END
$$$$
