RAR.pdb
     RDKit          3D

 28 27  0  0  1  0  0  0  0  0999 V2000
   27.7302  -22.5571  -14.9752 N   0  0  0  0  0  0  0  0  0  0  0  0
   26.9842  -22.2686  -16.1406 C   0  0  0  0  0  0  0  0  0  0  0  0
   26.9711  -23.0929  -17.1464 N   0  0  0  0  0  0  0  0  0  0  0  0
   26.2461  -21.0585  -16.1946 N   0  0  0  0  0  0  0  0  0  0  0  0
   25.6040  -20.5669  -14.9960 C   0  0  0  0  0  0  0  0  0  0  0  0
   26.6895  -20.4181  -13.9164 C   0  0  0  0  0  0  0  0  0  0  0  0
   26.0121  -19.8495  -12.6931 C   0  0  0  0  0  0  0  0  0  0  0  0
   25.6899  -20.8420  -11.6353 C   0  0  2  0  0  0  0  0  0  0  0  0
   26.3677  -22.1082  -11.9484 N   0  0  0  0  0  0  0  0  0  0  0  0
   24.2758  -21.1742  -11.4588 C   0  0  0  0  0  0  0  0  0  0  0  0
   23.8182  -22.1480  -12.1314 O   0  0  0  0  0  0  0  0  0  0  0  0
   26.4472  -22.8597  -18.0066 C   0  0  0  0  0  0  0  0  0  0  0  0
   21.2323  -20.0325   -9.5175 C   0  0  1  0  0  0  0  0  0  0  0  0
   21.9722  -20.7472  -10.6562 N   0  0  0  0  0  0  0  0  0  0  0  0
   23.3790  -20.5051  -10.6059 C   0  0  0  0  0  0  0  0  0  0  0  0
   21.3464  -20.2560  -11.9145 O   0  0  0  0  0  0  0  0  0  0  0  0
   22.0851  -19.6931  -12.7635 N   0  0  0  0  0  0  0  0  0  0  0  0
   17.9570  -25.8252  -16.2079 C   0  0  0  0  0  0  0  0  0  0  0  0
   19.3369  -25.8221  -16.5711 N   0  0  0  0  0  0  0  0  0  0  0  0
   19.7337  -26.4116  -17.6596 N   0  0  0  0  0  0  0  0  0  0  0  0
   20.3182  -25.1875  -15.7750 C   0  0  0  0  0  0  0  0  0  0  0  0
   19.9992  -24.8539  -14.3646 C   0  0  0  0  0  0  0  0  0  0  0  0
   19.5093  -23.4655  -14.3750 C   0  0  0  0  0  0  0  0  0  0  0  0
   19.9756  -22.4371  -13.4618 C   0  0  1  0  0  0  0  0  0  0  0  0
   19.4912  -21.0433  -13.4653 N   0  0  0  0  0  0  0  0  0  0  0  0
   19.9760  -20.3899  -12.1993 C   0  0  0  0  0  0  0  0  0  0  0  0
   18.0150  -20.9763  -13.3441 O   0  0  0  0  0  0  0  0  0  0  0  0
   17.1906  -20.7312  -14.2278 O   0  0  0  0  0  0  0  0  0  0  0  0
  2  1  1  0
  3  2  2  0
  4  2  1  0
  5  4  1  0
  6  5  1  0
  7  6  1  0
  8  9  1  6
  8  7  1  0
 10  8  1  0
 11 10  2  0
 13 12  1  1
 13 15  1  0
 13 14  1  0
 14 10  1  0
 15 16  2  0
 18 17  1  0
 18 19  2  0
 20 18  1  0
 21 22  1  0
 21 20  1  0
 23 22  1  0
 24 23  1  6
 25 24  1  0
 25 15  1  0
 26 28  1  0
 26 24  1  0
 27 26  2  0
M  END
$$$$
