RAR.pdb
     RDKit          3D

 28 27  0  0  1  0  0  0  0  0999 V2000
   31.0423  -25.6537  -15.4403 N   0  0  0  0  0  0  0  0  0  0  0  0
   31.1712  -25.3601  -16.8169 C   0  0  0  0  0  0  0  0  0  0  0  0
   31.8158  -26.1612  -17.6132 N   0  0  0  0  0  0  0  0  0  0  0  0
   30.5824  -24.1708  -17.3178 N   0  0  0  0  0  0  0  0  0  0  0  0
   29.5272  -23.5315  -16.5639 C   0  0  0  0  0  0  0  0  0  0  0  0
   28.2627  -24.3945  -16.7132 C   0  0  0  0  0  0  0  0  0  0  0  0
   27.1672  -23.6990  -15.9418 C   0  0  0  0  0  0  0  0  0  0  0  0
   25.8431  -24.3719  -15.9867 C   0  0  2  0  0  0  0  0  0  0  0  0
   25.4649  -24.5847  -17.3911 N   0  0  0  0  0  0  0  0  0  0  0  0
   24.7247  -23.6565  -15.3715 C   0  0  0  0  0  0  0  0  0  0  0  0
   24.8356  -23.3459  -14.1462 O   0  0  0  0  0  0  0  0  0  0  0  0
   31.9210  -25.9293  -18.6152 C   0  0  0  0  0  0  0  0  0  0  0  0
   21.7664  -21.6098  -16.3195 C   0  0  2  0  0  0  0  0  0  0  0  0
   22.5136  -22.5411  -15.3556 N   0  0  0  0  0  0  0  0  0  0  0  0
   23.5351  -23.2831  -16.0235 C   0  0  0  0  0  0  0  0  0  0  0  0
   21.4710  -23.4125  -14.7473 O   0  0  0  0  0  0  0  0  0  0  0  0
   21.2260  -24.5168  -15.2985 N   0  0  0  0  0  0  0  0  0  0  0  0
   16.8607  -26.0893   -8.4372 C   0  0  0  0  0  0  0  0  0  0  0  0
   18.2316  -25.8940   -8.0930 N   0  0  0  0  0  0  0  0  0  0  0  0
   18.8686  -26.7834   -7.3908 N   0  0  0  0  0  0  0  0  0  0  0  0
   18.9465  -24.7418   -8.4944 C   0  0  0  0  0  0  0  0  0  0  0  0
   18.2675  -23.7284   -9.3394 C   0  0  0  0  0  0  0  0  0  0  0  0
   18.4837  -24.1492  -10.7336 C   0  0  0  0  0  0  0  0  0  0  0  0
   19.4786  -23.5584  -11.6112 C   0  0  1  0  0  0  0  0  0  0  0  0
   19.6988  -23.9699  -13.0110 N   0  0  0  0  0  0  0  0  0  0  0  0
   20.7500  -23.0631  -13.5919 C   0  0  0  0  0  0  0  0  0  0  0  0
   18.5089  -23.7022  -13.8540 O   0  0  0  0  0  0  0  0  0  0  0  0
   18.1761  -22.6389  -14.3827 O   0  0  0  0  0  0  0  0  0  0  0  0
  2  1  1  0
  3  2  2  0
  4  2  1  0
  5  4  1  0
  6  5  1  0
  7  6  1  0
  8  9  1  6
  8  7  1  0
 10  8  1  0
 11 10  2  0
 13 12  1  1
 13 15  1  0
 13 14  1  0
 14 10  1  0
 15 16  2  0
 18 17  1  0
 18 19  2  0
 20 18  1  0
 21 22  1  0
 21 20  1  0
 23 22  1  0
 24 23  1  1
 25 24  1  0
 25 15  1  0
 26 28  1  0
 26 24  1  0
 27 26  2  0
M  END
$$$$
