RAR.pdb
     RDKit          3D

 28 27  0  0  1  0  0  0  0  0999 V2000
   26.8791  -16.9032  -18.9341 N   0  0  0  0  0  0  0  0  0  0  0  0
   27.3965  -16.4439  -17.7014 C   0  0  0  0  0  0  0  0  0  0  0  0
   27.9121  -17.2735  -16.8428 N   0  0  0  0  0  0  0  0  0  0  0  0
   27.3435  -15.0556  -17.4155 N   0  0  0  0  0  0  0  0  0  0  0  0
   26.1264  -14.3232  -17.6854 C   0  0  0  0  0  0  0  0  0  0  0  0
   25.6941  -13.6437  -16.3749 C   0  0  0  0  0  0  0  0  0  0  0  0
   24.2876  -14.1095  -16.0862 C   0  0  0  0  0  0  0  0  0  0  0  0
   23.3250  -13.9305  -17.2039 C   0  0  2  0  0  0  0  0  0  0  0  0
   22.4407  -12.7980  -16.8936 N   0  0  0  0  0  0  0  0  0  0  0  0
   22.4443  -15.0619  -17.4962 C   0  0  0  0  0  0  0  0  0  0  0  0
   21.3989  -15.1842  -16.7875 O   0  0  0  0  0  0  0  0  0  0  0  0
   28.3016  -16.9269  -15.9501 C   0  0  0  0  0  0  0  0  0  0  0  0
   21.8460  -17.6691  -20.1285 C   0  0  1  0  0  0  0  0  0  0  0  0
   21.7498  -17.1102  -18.7026 N   0  0  0  0  0  0  0  0  0  0  0  0
   22.6579  -16.0270  -18.4974 C   0  0  0  0  0  0  0  0  0  0  0  0
   22.0131  -18.2636  -17.7988 O   0  0  0  0  0  0  0  0  0  0  0  0
   23.1784  -18.4084  -17.3468 N   0  0  0  0  0  0  0  0  0  0  0  0
   17.7345  -22.7705  -12.7132 C   0  0  0  0  0  0  0  0  0  0  0  0
   18.9033  -23.5884  -12.6834 N   0  0  0  0  0  0  0  0  0  0  0  0
   18.8313  -24.8280  -12.2988 N   0  0  0  0  0  0  0  0  0  0  0  0
   20.1719  -23.0939  -13.0650 C   0  0  0  0  0  0  0  0  0  0  0  0
   20.2597  -21.7768  -13.7432 C   0  0  0  0  0  0  0  0  0  0  0  0
   19.9169  -22.0213  -15.1541 C   0  0  0  0  0  0  0  0  0  0  0  0
   20.0684  -21.0314  -16.2058 C   0  0  2  0  0  0  0  0  0  0  0  0
   21.3445  -20.3748  -16.5490 N   0  0  0  0  0  0  0  0  0  0  0  0
   21.0272  -19.1947  -17.4274 C   0  0  0  0  0  0  0  0  0  0  0  0
   22.1862  -21.2334  -17.4165 O   0  0  0  0  0  0  0  0  0  0  0  0
   22.1665  -21.3219  -18.6464 O   0  0  0  0  0  0  0  0  0  0  0  0
  2  1  1  0
  3  2  2  0
  4  2  1  0
  5  4  1  0
  6  5  1  0
  7  6  1  0
  8  9  1  1
  8  7  1  0
 10  8  1  0
 11 10  2  0
 13 12  1  6
 13 15  1  0
 13 14  1  0
 14 10  1  0
 15 16  2  0
 18 17  1  0
 18 19  2  0
 20 18  1  0
 21 22  1  0
 21 20  1  0
 23 22  1  0
 24 23  1  1
 25 24  1  0
 25 15  1  0
 26 28  1  0
 26 24  1  0
 27 26  2  0
M  END
$$$$
