GAG.pdb
     RDKit          3D

 14 13  0  0  1  0  0  0  0  0999 V2000
    9.0061  -14.4047   16.2802 N   0  0  0  0  0  0  0  0  0  0  0  0
    8.0321  -14.6939   17.2866 C   0  0  0  0  0  0  0  0  0  0  0  0
    8.5192  -14.1789   18.6142 C   0  0  0  0  0  0  0  0  0  0  0  0
    9.6456  -13.6320   18.7272 O   0  0  0  0  0  0  0  0  0  0  0  0
    6.9381  -13.4376   21.9315 C   0  0  0  0  0  0  0  0  0  0  0  0
    8.1524  -13.7979   21.0833 C   0  0  2  0  0  0  0  0  0  0  0  0
    7.7303  -14.2877   19.7949 N   0  0  0  0  0  0  0  0  0  0  0  0
    8.9885  -14.8204   21.7199 C   0  0  0  0  0  0  0  0  0  0  0  0
    9.5036  -14.6323   22.8450 O   0  0  0  0  0  0  0  0  0  0  0  0
    9.2731  -16.0883   21.1126 N   0  0  0  0  0  0  0  0  0  0  0  0
    9.9175  -17.1467   21.8224 C   0  0  0  0  0  0  0  0  0  0  0  0
   11.3651  -17.0383   21.9124 C   0  0  0  0  0  0  0  0  0  0  0  0
   11.9011  -16.3110   22.7740 O   0  0  0  0  0  0  0  0  0  0  0  0
   12.1790  -17.7374   21.0472 O   0  0  0  0  0  0  0  0  0  0  0  0
  2  1  1  0
  3  2  1  0
  4  3  2  0
  6  5  1  1
  6  7  1  0
  7  3  1  0
  8  9  2  0
  8  6  1  0
 10  8  1  0
 11 10  1  0
 12 11  1  0
 12 14  1  0
 13 12  2  0
M  END
$$$$
