GAG.pdb
     RDKit          3D

 14 13  0  0  1  0  0  0  0  0999 V2000
    9.0153  -13.5416   16.8532 N   0  0  0  0  0  0  0  0  0  0  0  0
    8.2683  -14.4328   17.6857 C   0  0  0  0  0  0  0  0  0  0  0  0
    8.4579  -14.0446   19.1274 C   0  0  0  0  0  0  0  0  0  0  0  0
    9.4379  -13.3455   19.4903 O   0  0  0  0  0  0  0  0  0  0  0  0
    6.2922  -14.1310   22.2016 C   0  0  0  0  0  0  0  0  0  0  0  0
    7.6544  -14.0565   21.5212 C   0  0  2  0  0  0  0  0  0  0  0  0
    7.5409  -14.4496   20.1389 N   0  0  0  0  0  0  0  0  0  0  0  0
    8.6459  -14.9189   22.1716 C   0  0  0  0  0  0  0  0  0  0  0  0
    8.9884  -14.7347   23.3612 O   0  0  0  0  0  0  0  0  0  0  0  0
    9.2851  -16.0169   21.5058 N   0  0  0  0  0  0  0  0  0  0  0  0
   10.1797  -16.9019   22.1808 C   0  0  0  0  0  0  0  0  0  0  0  0
   11.5928  -16.6474   21.9485 C   0  0  0  0  0  0  0  0  0  0  0  0
   12.3346  -17.5339   21.4768 O   0  0  0  0  0  0  0  0  0  0  0  0
   12.1454  -15.4199   22.2443 O   0  0  0  0  0  0  0  0  0  0  0  0
  2  1  1  0
  3  2  1  0
  4  3  2  0
  6  5  1  1
  6  7  1  0
  7  3  1  0
  8  9  2  0
  8  6  1  0
 10  8  1  0
 11 10  1  0
 12 11  1  0
 12 14  1  0
 13 12  2  0
M  END
$$$$
