GAG.pdb
     RDKit          3D

 14 13  0  0  1  0  0  0  0  0999 V2000
    6.6622  -17.2960   23.2621 N   0  0  0  0  0  0  0  0  0  0  0  0
    6.0593  -16.5662   24.3341 C   0  0  0  0  0  0  0  0  0  0  0  0
    6.9105  -15.3693   24.6629 C   0  0  0  0  0  0  0  0  0  0  0  0
    8.0238  -15.1893   24.1070 O   0  0  0  0  0  0  0  0  0  0  0  0
    6.3930  -12.1401   26.5236 C   0  0  0  0  0  0  0  0  0  0  0  0
    7.2884  -13.2449   25.9745 C   0  0  2  0  0  0  0  0  0  0  0  0
    6.4951  -14.3930   25.6128 N   0  0  0  0  0  0  0  0  0  0  0  0
    8.3046  -13.6667   26.9436 C   0  0  0  0  0  0  0  0  0  0  0  0
    9.1924  -12.8788   27.3405 O   0  0  0  0  0  0  0  0  0  0  0  0
    8.3563  -14.9884   27.4984 N   0  0  0  0  0  0  0  0  0  0  0  0
    9.3165  -15.3640   28.4864 C   0  0  0  0  0  0  0  0  0  0  0  0
   10.5367  -15.9610   27.9665 C   0  0  0  0  0  0  0  0  0  0  0  0
   10.7308  -16.0549   26.7369 O   0  0  0  0  0  0  0  0  0  0  0  0
   11.5076  -16.4371   28.8212 O   0  0  0  0  0  0  0  0  0  0  0  0
  2  1  1  0
  3  2  1  0
  4  3  2  0
  6  5  1  1
  6  7  1  0
  7  3  1  0
  8  9  2  0
  8  6  1  0
 10  8  1  0
 11 10  1  0
 12 11  1  0
 12 14  1  0
 13 12  2  0
M  END
$$$$
