GAG.pdb
     RDKit          3D

 14 13  0  0  1  0  0  0  0  0999 V2000
    2.9389  -21.0700   20.7166 N   0  0  0  0  0  0  0  0  0  0  0  0
    1.9736  -21.8899   20.0525 C   0  0  0  0  0  0  0  0  0  0  0  0
    0.6064  -21.2822   20.2163 C   0  0  0  0  0  0  0  0  0  0  0  0
    0.4245  -20.2749   20.9464 O   0  0  0  0  0  0  0  0  0  0  0  0
   -2.5022  -21.0444   18.3515 C   0  0  0  0  0  0  0  0  0  0  0  0
   -1.8685  -21.2932   19.7155 C   0  0  2  0  0  0  0  0  0  0  0  0
   -0.5355  -21.8181   19.5553 N   0  0  0  0  0  0  0  0  0  0  0  0
   -2.6472  -22.2365   20.5238 C   0  0  0  0  0  0  0  0  0  0  0  0
   -3.8552  -22.0318   20.7799 O   0  0  0  0  0  0  0  0  0  0  0  0
   -2.0936  -23.4413   21.0711 N   0  0  0  0  0  0  0  0  0  0  0  0
   -2.8609  -24.3359   21.8773 C   0  0  0  0  0  0  0  0  0  0  0  0
   -2.7288  -24.1417   23.3127 C   0  0  0  0  0  0  0  0  0  0  0  0
   -1.7070  -24.5237   23.9198 O   0  0  0  0  0  0  0  0  0  0  0  0
   -3.7304  -23.5304   24.0359 O   0  0  0  0  0  0  0  0  0  0  0  0
  2  1  1  0
  3  2  1  0
  4  3  2  0
  6  5  1  6
  6  7  1  0
  7  3  1  0
  8  9  2  0
  8  6  1  0
 10  8  1  0
 11 10  1  0
 12 11  1  0
 12 14  1  0
 13 12  2  0
M  END
$$$$
