GAG.pdb
     RDKit          3D

 14 13  0  0  1  0  0  0  0  0999 V2000
    1.6401  -20.5429   18.4104 N   0  0  0  0  0  0  0  0  0  0  0  0
    0.5924  -20.9913   19.2744 C   0  0  0  0  0  0  0  0  0  0  0  0
    0.9566  -20.6820   20.7016 C   0  0  0  0  0  0  0  0  0  0  0  0
    2.0552  -20.1436   20.9915 O   0  0  0  0  0  0  0  0  0  0  0  0
   -0.8499  -20.2547   23.9077 C   0  0  0  0  0  0  0  0  0  0  0  0
    0.3950  -20.7235   23.1631 C   0  0  2  0  0  0  0  0  0  0  0  0
    0.0782  -20.9838   21.7811 N   0  0  0  0  0  0  0  0  0  0  0  0
    0.9643  -21.9413   23.7485 C   0  0  0  0  0  0  0  0  0  0  0  0
    0.5960  -23.0774   23.3739 O   0  0  0  0  0  0  0  0  0  0  0  0
    1.9667  -21.9221   24.7743 N   0  0  0  0  0  0  0  0  0  0  0  0
    2.5117  -23.1189   25.3308 C   0  0  0  0  0  0  0  0  0  0  0  0
    3.8014  -23.5196   24.7910 C   0  0  0  0  0  0  0  0  0  0  0  0
    4.4507  -22.7551   24.0477 O   0  0  0  0  0  0  0  0  0  0  0  0
    4.3366  -24.7545   25.0884 O   0  0  0  0  0  0  0  0  0  0  0  0
  2  1  1  0
  3  2  1  0
  4  3  2  0
  6  5  1  1
  6  7  1  0
  7  3  1  0
  8  9  2  0
  8  6  1  0
 10  8  1  0
 11 10  1  0
 12 11  1  0
 12 14  1  0
 13 12  2  0
M  END
$$$$
