GAG.pdb
     RDKit          3D

 14 13  0  0  1  0  0  0  0  0999 V2000
    8.5304  -14.3815   16.3084 N   0  0  0  0  0  0  0  0  0  0  0  0
    7.6123  -14.0206   17.3437 C   0  0  0  0  0  0  0  0  0  0  0  0
    8.3418  -13.9632   18.6590 C   0  0  0  0  0  0  0  0  0  0  0  0
    9.5430  -14.3221   18.7538 O   0  0  0  0  0  0  0  0  0  0  0  0
    7.5933  -12.4088   22.0173 C   0  0  0  0  0  0  0  0  0  0  0  0
    8.3965  -13.3256   21.1016 C   0  0  2  0  0  0  0  0  0  0  0  0
    7.7074  -13.5024   19.8478 N   0  0  0  0  0  0  0  0  0  0  0  0
    8.6227  -14.6450   21.6996 C   0  0  0  0  0  0  0  0  0  0  0  0
    7.7041  -15.4918   21.7749 O   0  0  0  0  0  0  0  0  0  0  0  0
    9.8893  -15.0562   22.2326 N   0  0  0  0  0  0  0  0  0  0  0  0
   10.1011  -16.3590   22.7774 C   0  0  0  0  0  0  0  0  0  0  0  0
   11.4322  -16.5955   23.3137 C   0  0  0  0  0  0  0  0  0  0  0  0
   12.3206  -15.7222   23.2320 O   0  0  0  0  0  0  0  0  0  0  0  0
   11.7432  -17.7910   23.9250 O   0  0  0  0  0  0  0  0  0  0  0  0
  2  1  1  0
  3  2  1  0
  4  3  2  0
  6  5  1  1
  6  7  1  0
  7  3  1  0
  8  9  2  0
  8  6  1  0
 10  8  1  0
 11 10  1  0
 12 11  1  0
 12 14  1  0
 13 12  2  0
M  END
$$$$
