GAG.pdb
     RDKit          3D

 14 13  0  0  1  0  0  0  0  0999 V2000
   -4.2926  -26.9760   27.1308 N   0  0  0  0  0  0  0  0  0  0  0  0
   -4.9359  -25.7801   26.6823 C   0  0  0  0  0  0  0  0  0  0  0  0
   -4.5428  -24.6366   27.5784 C   0  0  0  0  0  0  0  0  0  0  0  0
   -4.0186  -24.8407   28.7029 O   0  0  0  0  0  0  0  0  0  0  0  0
   -3.8961  -21.0017   27.1676 C   0  0  0  0  0  0  0  0  0  0  0  0
   -4.3985  -22.1559   28.0274 C   0  0  2  0  0  0  0  0  0  0  0  0
   -4.7460  -23.2803   27.1948 N   0  0  0  0  0  0  0  0  0  0  0  0
   -5.5729  -21.7836   28.8223 C   0  0  0  0  0  0  0  0  0  0  0  0
   -5.5122  -20.8855   29.6920 O   0  0  0  0  0  0  0  0  0  0  0  0
   -6.8543  -22.4088   28.6659 N   0  0  0  0  0  0  0  0  0  0  0  0
   -7.9959  -22.0089   29.4247 C   0  0  0  0  0  0  0  0  0  0  0  0
   -8.2178  -22.7608   30.6498 C   0  0  0  0  0  0  0  0  0  0  0  0
   -9.2246  -22.5508   31.3574 O   0  0  0  0  0  0  0  0  0  0  0  0
   -7.3198  -23.7237   31.0577 O   0  0  0  0  0  0  0  0  0  0  0  0
  2  1  1  0
  3  2  1  0
  4  3  2  0
  6  5  1  6
  6  7  1  0
  7  3  1  0
  8  9  2  0
  8  6  1  0
 10  8  1  0
 11 10  1  0
 12 11  1  0
 12 14  1  0
 13 12  2  0
M  END
$$$$
