GAG.pdb
     RDKit          3D

 14 13  0  0  1  0  0  0  0  0999 V2000
    5.0408  -19.1052   20.3255 N   0  0  0  0  0  0  0  0  0  0  0  0
    4.8058  -17.9244   21.0973 C   0  0  0  0  0  0  0  0  0  0  0  0
    6.0791  -17.1272   21.1887 C   0  0  0  0  0  0  0  0  0  0  0  0
    7.1891  -17.6360   20.8891 O   0  0  0  0  0  0  0  0  0  0  0  0
    6.9420  -13.4959   21.5063 C   0  0  0  0  0  0  0  0  0  0  0  0
    7.2779  -14.9681   21.7154 C   0  0  2  0  0  0  0  0  0  0  0  0
    6.0832  -15.7688   21.6162 N   0  0  0  0  0  0  0  0  0  0  0  0
    7.8974  -15.2144   23.0213 C   0  0  0  0  0  0  0  0  0  0  0  0
    9.0442  -14.7898   23.2883 O   0  0  0  0  0  0  0  0  0  0  0  0
    7.2482  -15.9464   24.0701 N   0  0  0  0  0  0  0  0  0  0  0  0
    7.8343  -16.1101   25.3619 C   0  0  0  0  0  0  0  0  0  0  0  0
    8.4892  -17.3894   25.5856 C   0  0  0  0  0  0  0  0  0  0  0  0
    8.7210  -18.1655   24.6356 O   0  0  0  0  0  0  0  0  0  0  0  0
    8.8691  -17.7742   26.8534 O   0  0  0  0  0  0  0  0  0  0  0  0
  2  1  1  0
  3  2  1  0
  4  3  2  0
  6  5  1  1
  6  7  1  0
  7  3  1  0
  8  9  2  0
  8  6  1  0
 10  8  1  0
 11 10  1  0
 12 11  1  0
 12 14  1  0
 13 12  2  0
M  END
$$$$
