GAG.pdb
     RDKit          3D

 14 13  0  0  1  0  0  0  0  0999 V2000
   -3.4516  -27.5822   26.1195 N   0  0  0  0  0  0  0  0  0  0  0  0
   -4.8240  -27.1831   26.1687 C   0  0  0  0  0  0  0  0  0  0  0  0
   -4.9035  -25.7024   26.4266 C   0  0  0  0  0  0  0  0  0  0  0  0
   -4.0384  -25.1156   27.1252 O   0  0  0  0  0  0  0  0  0  0  0  0
   -7.0388  -22.8509   25.1696 C   0  0  0  0  0  0  0  0  0  0  0  0
   -6.1338  -23.5085   26.2052 C   0  0  2  0  0  0  0  0  0  0  0  0
   -5.9561  -24.9048   25.8939 N   0  0  0  0  0  0  0  0  0  0  0  0
   -6.6756  -23.3986   27.5631 C   0  0  0  0  0  0  0  0  0  0  0  0
   -7.4013  -24.2953   28.0490 O   0  0  0  0  0  0  0  0  0  0  0  0
   -6.4195  -22.2771   28.4198 N   0  0  0  0  0  0  0  0  0  0  0  0
   -6.9263  -22.2039   29.7528 C   0  0  0  0  0  0  0  0  0  0  0  0
   -8.3451  -21.9019   29.8585 C   0  0  0  0  0  0  0  0  0  0  0  0
   -8.9004  -21.8142   30.9732 O   0  0  0  0  0  0  0  0  0  0  0  0
   -9.1096  -21.7056   28.7286 O   0  0  0  0  0  0  0  0  0  0  0  0
  2  1  1  0
  3  2  1  0
  4  3  2  0
  6  5  1  6
  6  7  1  0
  7  3  1  0
  8  9  2  0
  8  6  1  0
 10  8  1  0
 11 10  1  0
 12 11  1  0
 12 14  1  0
 13 12  2  0
M  END
$$$$
