GAG.pdb
     RDKit          3D

 14 13  0  0  1  0  0  0  0  0999 V2000
    7.5054  -17.9795   17.9715 N   0  0  0  0  0  0  0  0  0  0  0  0
    7.0800  -16.9151   18.8267 C   0  0  0  0  0  0  0  0  0  0  0  0
    8.0307  -15.7563   18.6908 C   0  0  0  0  0  0  0  0  0  0  0  0
    9.0569  -15.8368   17.9687 O   0  0  0  0  0  0  0  0  0  0  0  0
    7.9585  -12.1036   19.5584 C   0  0  0  0  0  0  0  0  0  0  0  0
    8.7134  -13.4018   19.2961 C   0  0  2  0  0  0  0  0  0  0  0  0
    7.8116  -14.5240   19.3702 N   0  0  0  0  0  0  0  0  0  0  0  0
    9.8011  -13.6132   20.2563 C   0  0  0  0  0  0  0  0  0  0  0  0
   10.8165  -12.8814   20.2614 O   0  0  0  0  0  0  0  0  0  0  0  0
    9.7832  -14.6545   21.2426 N   0  0  0  0  0  0  0  0  0  0  0  0
   10.7492  -14.7283   22.2917 C   0  0  0  0  0  0  0  0  0  0  0  0
   11.9292  -15.5234   21.9900 C   0  0  0  0  0  0  0  0  0  0  0  0
   12.2575  -15.7606   20.8091 O   0  0  0  0  0  0  0  0  0  0  0  0
   12.7127  -16.0335   23.0028 O   0  0  0  0  0  0  0  0  0  0  0  0
  2  1  1  0
  3  2  1  0
  4  3  2  0
  6  5  1  1
  6  7  1  0
  7  3  1  0
  8  9  2  0
  8  6  1  0
 10  8  1  0
 11 10  1  0
 12 11  1  0
 12 14  1  0
 13 12  2  0
M  END
$$$$
