GRQ.pdb
     RDKit          3D

 25 24  0  0  1  0  0  0  0  0999 V2000
   29.0065  -22.7795  -17.2967 N   0  0  0  0  0  0  0  0  0  0  0  0
   28.6124  -21.5470  -16.6183 C   0  0  0  0  0  0  0  0  0  0  0  0
   27.3825  -21.7749  -15.8162 C   0  0  0  0  0  0  0  0  0  0  0  0
   26.5643  -22.6610  -16.1686 O   0  0  0  0  0  0  0  0  0  0  0  0
   22.6113  -21.2374   -8.2542 N   0  0  0  0  0  0  0  0  0  0  0  0
   23.5886  -20.7569   -9.1887 C   0  0  0  0  0  0  0  0  0  0  0  0
   23.2942  -19.7910   -9.9908 N   0  0  0  0  0  0  0  0  0  0  0  0
   24.8878  -21.3119   -9.2659 N   0  0  0  0  0  0  0  0  0  0  0  0
   25.9143  -20.7185  -10.0964 C   0  0  0  0  0  0  0  0  0  0  0  0
   25.8511  -21.4386  -11.4350 C   0  0  0  0  0  0  0  0  0  0  0  0
   26.0042  -20.5072  -12.5891 C   0  0  0  0  0  0  0  0  0  0  0  0
   25.8250  -21.2338  -13.8986 C   0  0  2  0  0  0  0  0  0  0  0  0
   27.0784  -21.0311  -14.6523 N   0  0  0  0  0  0  0  0  0  0  0  0
   24.6808  -20.6883  -14.6806 C   0  0  0  0  0  0  0  0  0  0  0  0
   24.7331  -19.5617  -15.2191 O   0  0  0  0  0  0  0  0  0  0  0  0
   23.9770  -19.5133  -10.7232 N   0  0  0  0  0  0  0  0  0  0  0  0
   21.0778  -23.4450  -18.6914 C   0  0  0  0  0  0  0  0  0  0  0  0
   20.4909  -22.1757  -18.6447 O   0  0  0  0  0  0  0  0  0  0  0  0
   19.6384  -21.8181  -19.4629 C   0  0  0  0  0  0  0  0  0  0  0  0
   20.9175  -21.2260  -17.5623 C   0  0  0  0  0  0  0  0  0  0  0  0
   21.9893  -21.8149  -16.7139 C   0  0  2  0  0  0  0  0  0  0  0  0
   22.4094  -20.8650  -15.6293 N   0  0  0  0  0  0  0  0  0  0  0  0
   23.4894  -21.4437  -14.8352 C   0  0  0  0  0  0  0  0  0  0  0  0
   21.2675  -20.4925  -14.7870 O   0  0  0  0  0  0  0  0  0  0  0  0
   21.0506  -20.8703  -13.4869 O   0  0  0  0  0  0  0  0  0  0  0  0
  1  2  1  0
  2  3  1  0
  3 13  1  0
  4  3  2  0
  5  6  1  0
  6  7  2  0
  6  8  1  0
  8  9  1  0
  9 10  1  0
 12 11  1  1
 11 10  1  0
 12 14  1  0
 13 12  1  0
 14 15  2  0
 16 17  1  0
 17 18  2  0
 17 19  1  0
 19 20  1  0
 21 20  1  6
 21 23  1  0
 22 21  1  0
 22 14  1  0
 23 25  2  0
 23 24  1  0
M  END
$$$$
