GRQ.pdb
     RDKit          3D

 25 24  0  0  1  0  0  0  0  0999 V2000
   28.7646  -23.9265  -16.9900 N   0  0  0  0  0  0  0  0  0  0  0  0
   28.2047  -22.5820  -16.8743 C   0  0  0  0  0  0  0  0  0  0  0  0
   26.8690  -22.6379  -16.2255 C   0  0  0  0  0  0  0  0  0  0  0  0
   26.1375  -23.6459  -16.3916 O   0  0  0  0  0  0  0  0  0  0  0  0
   25.8953  -20.4569   -8.3990 N   0  0  0  0  0  0  0  0  0  0  0  0
   24.7897  -20.8204   -9.2386 C   0  0  0  0  0  0  0  0  0  0  0  0
   23.5836  -20.7353   -8.7901 N   0  0  0  0  0  0  0  0  0  0  0  0
   24.9746  -21.2772  -10.5649 N   0  0  0  0  0  0  0  0  0  0  0  0
   26.2957  -21.4023  -11.1432 C   0  0  0  0  0  0  0  0  0  0  0  0
   26.0983  -21.9594  -12.5450 C   0  0  0  0  0  0  0  0  0  0  0  0
   25.2228  -21.0914  -13.3835 C   0  0  0  0  0  0  0  0  0  0  0  0
   25.0445  -21.6742  -14.7631 C   0  0  2  0  0  0  0  0  0  0  0  0
   26.3675  -21.5939  -15.4138 N   0  0  0  0  0  0  0  0  0  0  0  0
   24.0498  -20.9063  -15.5626 C   0  0  0  0  0  0  0  0  0  0  0  0
   24.3277  -19.7945  -16.0610 O   0  0  0  0  0  0  0  0  0  0  0  0
   22.7926  -21.0106   -9.4052 N   0  0  0  0  0  0  0  0  0  0  0  0
   18.2539  -21.3577  -20.0177 C   0  0  0  0  0  0  0  0  0  0  0  0
   19.0608  -21.8470  -18.9846 O   0  0  0  0  0  0  0  0  0  0  0  0
   18.9473  -22.9987  -18.5548 C   0  0  0  0  0  0  0  0  0  0  0  0
   20.0938  -20.9357  -18.3863 C   0  0  0  0  0  0  0  0  0  0  0  0
   20.8885  -21.6299  -17.3366 C   0  0  2  0  0  0  0  0  0  0  0  0
   21.8590  -20.6919  -16.6783 N   0  0  0  0  0  0  0  0  0  0  0  0
   22.7468  -21.4249  -15.7804 C   0  0  0  0  0  0  0  0  0  0  0  0
   21.1528  -19.6176  -15.9717 O   0  0  0  0  0  0  0  0  0  0  0  0
   20.6716  -18.4558  -16.5181 O   0  0  0  0  0  0  0  0  0  0  0  0
  1  2  1  0
  2  3  1  0
  3 13  1  0
  4  3  2  0
  5  6  1  0
  6  7  2  0
  6  8  1  0
  8  9  1  0
  9 10  1  0
 12 11  1  1
 11 10  1  0
 12 14  1  0
 13 12  1  0
 14 15  2  0
 16 17  1  0
 17 18  2  0
 17 19  1  0
 19 20  1  0
 21 20  1  6
 21 23  1  0
 22 21  1  0
 22 14  1  0
 23 25  2  0
 23 24  1  0
M  END
$$$$
