GRQ.pdb
     RDKit          3D

 25 24  0  0  1  0  0  0  0  0999 V2000
   22.8821  -17.0627  -16.5897 N   0  0  0  0  0  0  0  0  0  0  0  0
   21.6397  -16.5026  -16.0631 C   0  0  0  0  0  0  0  0  0  0  0  0
   21.5444  -15.0592  -16.4030 C   0  0  0  0  0  0  0  0  0  0  0  0
   22.4592  -14.5147  -17.0704 O   0  0  0  0  0  0  0  0  0  0  0  0
   14.7725   -9.0261  -15.8951 N   0  0  0  0  0  0  0  0  0  0  0  0
   15.9455   -8.4593  -16.4970 C   0  0  0  0  0  0  0  0  0  0  0  0
   15.9442   -7.2271  -16.8774 N   0  0  0  0  0  0  0  0  0  0  0  0
   17.1262   -9.2139  -16.6930 N   0  0  0  0  0  0  0  0  0  0  0  0
   17.2417  -10.5741  -16.2114 C   0  0  0  0  0  0  0  0  0  0  0  0
   18.6523  -11.0305  -16.5523 C   0  0  0  0  0  0  0  0  0  0  0  0
   18.8997  -12.4491  -16.1658 C   0  0  0  0  0  0  0  0  0  0  0  0
   20.3327  -12.8395  -16.4279 C   0  0  2  0  0  0  0  0  0  0  0  0
   20.4550  -14.2493  -16.0062 N   0  0  0  0  0  0  0  0  0  0  0  0
   21.2848  -12.0024  -15.6461 C   0  0  0  0  0  0  0  0  0  0  0  0
   21.3582  -12.0829  -14.4011 O   0  0  0  0  0  0  0  0  0  0  0  0
   16.7831   -6.8424  -17.3549 N   0  0  0  0  0  0  0  0  0  0  0  0
   27.7854  -10.8331  -14.6202 C   0  0  0  0  0  0  0  0  0  0  0  0
   26.9068  -10.2317  -15.5280 O   0  0  0  0  0  0  0  0  0  0  0  0
   27.2519   -9.9375  -16.6762 C   0  0  0  0  0  0  0  0  0  0  0  0
   25.5027   -9.9388  -15.0827 C   0  0  0  0  0  0  0  0  0  0  0  0
   24.5038  -10.6177  -15.9526 C   0  0  2  0  0  0  0  0  0  0  0  0
   23.1018  -10.3394  -15.4922 N   0  0  0  0  0  0  0  0  0  0  0  0
   22.1420  -11.0823  -16.3039 C   0  0  0  0  0  0  0  0  0  0  0  0
   22.8186   -8.9002  -15.5138 O   0  0  0  0  0  0  0  0  0  0  0  0
   21.9902   -8.2411  -16.3852 O   0  0  0  0  0  0  0  0  0  0  0  0
  1  2  1  0
  2  3  1  0
  3 13  1  0
  4  3  2  0
  5  6  1  0
  6  7  2  0
  6  8  1  0
  8  9  1  0
  9 10  1  0
 12 11  1  1
 11 10  1  0
 12 14  1  0
 13 12  1  0
 14 15  2  0
 16 17  1  0
 17 18  2  0
 17 19  1  0
 19 20  1  0
 21 20  1  1
 21 23  1  0
 22 21  1  0
 22 14  1  0
 23 25  2  0
 23 24  1  0
M  END
$$$$
