GRQ.pdb
     RDKit          3D

 25 24  0  0  1  0  0  0  0  0999 V2000
   27.3892  -20.3572  -19.8684 N   0  0  0  0  0  0  0  0  0  0  0  0
   27.3917  -19.2989  -18.8610 C   0  0  0  0  0  0  0  0  0  0  0  0
   26.8625  -19.8172  -17.5728 C   0  0  0  0  0  0  0  0  0  0  0  0
   26.0114  -20.7416  -17.5759 O   0  0  0  0  0  0  0  0  0  0  0  0
   26.2866  -20.7399   -9.2871 N   0  0  0  0  0  0  0  0  0  0  0  0
   25.3821  -21.1277  -10.3315 C   0  0  0  0  0  0  0  0  0  0  0  0
   24.1262  -21.2716  -10.0769 N   0  0  0  0  0  0  0  0  0  0  0  0
   25.8228  -21.3627  -11.6553 N   0  0  0  0  0  0  0  0  0  0  0  0
   27.0929  -20.8555  -12.1297 C   0  0  0  0  0  0  0  0  0  0  0  0
   26.8328  -19.4379  -12.6165 C   0  0  0  0  0  0  0  0  0  0  0  0
   27.4559  -19.1696  -13.9442 C   0  0  0  0  0  0  0  0  0  0  0  0
   26.5755  -19.6633  -15.0649 C   0  0  2  0  0  0  0  0  0  0  0  0
   27.2753  -19.3139  -16.3173 N   0  0  0  0  0  0  0  0  0  0  0  0
   25.2371  -19.0101  -15.0444 C   0  0  0  0  0  0  0  0  0  0  0  0
   25.1077  -17.7767  -15.1984 O   0  0  0  0  0  0  0  0  0  0  0  0
   23.4794  -21.5363  -10.8460 N   0  0  0  0  0  0  0  0  0  0  0  0
   21.8676  -17.1601  -18.2309 C   0  0  0  0  0  0  0  0  0  0  0  0
   20.8004  -17.2776  -17.3337 O   0  0  0  0  0  0  0  0  0  0  0  0
   19.7812  -16.5883  -17.4348 C   0  0  0  0  0  0  0  0  0  0  0  0
   20.9071  -18.2757  -16.2166 C   0  0  0  0  0  0  0  0  0  0  0  0
   22.2317  -18.9546  -16.2189 C   0  0  1  0  0  0  0  0  0  0  0  0
   22.7800  -19.0844  -14.8269 N   0  0  0  0  0  0  0  0  0  0  0  0
   24.0625  -19.7818  -14.8474 C   0  0  0  0  0  0  0  0  0  0  0  0
   21.8197  -19.7578  -13.9457 O   0  0  0  0  0  0  0  0  0  0  0  0
   20.6177  -19.2610  -13.5119 O   0  0  0  0  0  0  0  0  0  0  0  0
  1  2  1  0
  2  3  1  0
  3 13  1  0
  4  3  2  0
  5  6  1  0
  6  7  2  0
  6  8  1  0
  8  9  1  0
  9 10  1  0
 12 11  1  1
 11 10  1  0
 12 14  1  0
 13 12  1  0
 14 15  2  0
 16 17  1  0
 17 18  2  0
 17 19  1  0
 19 20  1  0
 21 20  1  6
 21 23  1  0
 22 21  1  0
 22 14  1  0
 23 25  2  0
 23 24  1  0
M  END
$$$$
