GRQ.pdb
     RDKit          3D

 25 24  0  0  1  0  0  0  0  0999 V2000
   28.3222  -22.3170  -17.0088 N   0  0  0  0  0  0  0  0  0  0  0  0
   27.9697  -21.1625  -16.1857 C   0  0  0  0  0  0  0  0  0  0  0  0
   26.8667  -21.5154  -15.2546 C   0  0  0  0  0  0  0  0  0  0  0  0
   26.0378  -22.4024  -15.5785 O   0  0  0  0  0  0  0  0  0  0  0  0
   22.4533  -19.7475   -9.3732 N   0  0  0  0  0  0  0  0  0  0  0  0
   22.9397  -20.7540   -8.4734 C   0  0  0  0  0  0  0  0  0  0  0  0
   22.1251  -21.3499   -7.6707 N   0  0  0  0  0  0  0  0  0  0  0  0
   24.3043  -21.1255   -8.4317 N   0  0  0  0  0  0  0  0  0  0  0  0
   25.2727  -20.5459   -9.3383 C   0  0  0  0  0  0  0  0  0  0  0  0
   24.9155  -21.0529  -10.7274 C   0  0  0  0  0  0  0  0  0  0  0  0
   25.9264  -20.6634  -11.7518 C   0  0  0  0  0  0  0  0  0  0  0  0
   25.5644  -21.2171  -13.1073 C   0  0  2  0  0  0  0  0  0  0  0  0
   26.6975  -20.8919  -13.9964 N   0  0  0  0  0  0  0  0  0  0  0  0
   24.3194  -20.5985  -13.6419 C   0  0  0  0  0  0  0  0  0  0  0  0
   24.2678  -19.3872  -13.9452 O   0  0  0  0  0  0  0  0  0  0  0  0
   22.4972  -22.0445   -6.9933 N   0  0  0  0  0  0  0  0  0  0  0  0
   21.6031  -22.4729  -18.4152 C   0  0  0  0  0  0  0  0  0  0  0  0
   20.7000  -21.4616  -18.0695 O   0  0  0  0  0  0  0  0  0  0  0  0
   19.8227  -21.0737  -18.8465 C   0  0  0  0  0  0  0  0  0  0  0  0
   20.8093  -20.8346  -16.7092 C   0  0  0  0  0  0  0  0  0  0  0  0
   21.9438  -21.4088  -15.9356 C   0  0  1  0  0  0  0  0  0  0  0  0
   22.0410  -20.7904  -14.5706 N   0  0  0  0  0  0  0  0  0  0  0  0
   23.1479  -21.3789  -13.8221 C   0  0  0  0  0  0  0  0  0  0  0  0
   20.7740  -20.9231  -13.8432 O   0  0  0  0  0  0  0  0  0  0  0  0
   19.6762  -20.1093  -13.9546 O   0  0  0  0  0  0  0  0  0  0  0  0
  1  2  1  0
  2  3  1  0
  3 13  1  0
  4  3  2  0
  5  6  1  0
  6  7  2  0
  6  8  1  0
  8  9  1  0
  9 10  1  0
 12 11  1  1
 11 10  1  0
 12 14  1  0
 13 12  1  0
 14 15  2  0
 16 17  1  0
 17 18  2  0
 17 19  1  0
 19 20  1  0
 21 20  1  6
 21 23  1  0
 22 21  1  0
 22 14  1  0
 23 25  2  0
 23 24  1  0
M  END
$$$$
