GRQ.pdb
     RDKit          3D

 25 24  0  0  1  0  0  0  0  0999 V2000
   20.2489  -21.3938  -10.7771 N   0  0  0  0  0  0  0  0  0  0  0  0
   21.3904  -21.9646  -11.4884 C   0  0  0  0  0  0  0  0  0  0  0  0
   22.1896  -20.8849  -12.1238 C   0  0  0  0  0  0  0  0  0  0  0  0
   21.7781  -19.6985  -12.0820 O   0  0  0  0  0  0  0  0  0  0  0  0
   30.4915  -22.0688  -11.8904 N   0  0  0  0  0  0  0  0  0  0  0  0
   29.6630  -21.5346  -10.8476 C   0  0  0  0  0  0  0  0  0  0  0  0
   30.1533  -21.3371   -9.6713 N   0  0  0  0  0  0  0  0  0  0  0  0
   28.3030  -21.2095  -11.0636 N   0  0  0  0  0  0  0  0  0  0  0  0
   27.7169  -21.2536  -12.3865 C   0  0  0  0  0  0  0  0  0  0  0  0
   26.2956  -20.7308  -12.2426 C   0  0  0  0  0  0  0  0  0  0  0  0
   25.6062  -20.5896  -13.5571 C   0  0  0  0  0  0  0  0  0  0  0  0
   24.2136  -20.0377  -13.3813 C   0  0  2  0  0  0  0  0  0  0  0  0
   23.4148  -21.1281  -12.7870 N   0  0  0  0  0  0  0  0  0  0  0  0
   23.6119  -19.6327  -14.6822 C   0  0  0  0  0  0  0  0  0  0  0  0
   23.1419  -20.4749  -15.4771 O   0  0  0  0  0  0  0  0  0  0  0  0
   29.5517  -20.9194   -8.9341 N   0  0  0  0  0  0  0  0  0  0  0  0
   21.8022  -13.8242  -16.4333 C   0  0  0  0  0  0  0  0  0  0  0  0
   21.4274  -14.6073  -17.5307 O   0  0  0  0  0  0  0  0  0  0  0  0
   20.8593  -14.1256  -18.5151 C   0  0  0  0  0  0  0  0  0  0  0  0
   21.7298  -16.0781  -17.5008 C   0  0  0  0  0  0  0  0  0  0  0  0
   22.4835  -16.4532  -16.2734 C   0  0  2  0  0  0  0  0  0  0  0  0
   22.8294  -17.9145  -16.2715 N   0  0  0  0  0  0  0  0  0  0  0  0
   23.5568  -18.2645  -15.0549 C   0  0  0  0  0  0  0  0  0  0  0  0
   23.5918  -18.2745  -17.4721 O   0  0  0  0  0  0  0  0  0  0  0  0
   23.0859  -18.7713  -18.6456 O   0  0  0  0  0  0  0  0  0  0  0  0
  1  2  1  0
  2  3  1  0
  3 13  1  0
  4  3  2  0
  5  6  1  0
  6  7  2  0
  6  8  1  0
  8  9  1  0
  9 10  1  0
 12 11  1  6
 11 10  1  0
 12 14  1  0
 13 12  1  0
 14 15  2  0
 16 17  1  0
 17 18  2  0
 17 19  1  0
 19 20  1  0
 21 20  1  1
 21 23  1  0
 22 21  1  0
 22 14  1  0
 23 25  2  0
 23 24  1  0
M  END
$$$$
