GRQ.pdb
     RDKit          3D

 25 24  0  0  1  0  0  0  0  0999 V2000
   29.3359  -16.2622  -20.4081 N   0  0  0  0  0  0  0  0  0  0  0  0
   28.6566  -15.7756  -19.2097 C   0  0  0  0  0  0  0  0  0  0  0  0
   27.7369  -16.8177  -18.6839 C   0  0  0  0  0  0  0  0  0  0  0  0
   27.3159  -17.7207  -19.4495 O   0  0  0  0  0  0  0  0  0  0  0  0
   26.8420  -21.4731  -11.1825 N   0  0  0  0  0  0  0  0  0  0  0  0
   25.7255  -21.7095  -12.0525 C   0  0  0  0  0  0  0  0  0  0  0  0
   24.8622  -22.6220  -11.7609 N   0  0  0  0  0  0  0  0  0  0  0  0
   25.5308  -20.9662  -13.2406 N   0  0  0  0  0  0  0  0  0  0  0  0
   26.4462  -19.9154  -13.6325 C   0  0  0  0  0  0  0  0  0  0  0  0
   25.9560  -19.4004  -14.9773 C   0  0  0  0  0  0  0  0  0  0  0  0
   26.8540  -18.3555  -15.5473 C   0  0  0  0  0  0  0  0  0  0  0  0
   26.3151  -17.8338  -16.8558 C   0  0  2  0  0  0  0  0  0  0  0  0
   27.3015  -16.8468  -17.3386 N   0  0  0  0  0  0  0  0  0  0  0  0
   24.9924  -17.1713  -16.6833 C   0  0  0  0  0  0  0  0  0  0  0  0
   24.8665  -16.1248  -16.0118 O   0  0  0  0  0  0  0  0  0  0  0  0
   24.1003  -22.8340  -12.4349 N   0  0  0  0  0  0  0  0  0  0  0  0
   19.5872  -18.2260  -19.8316 C   0  0  0  0  0  0  0  0  0  0  0  0
   19.3209  -17.0733  -19.0846 O   0  0  0  0  0  0  0  0  0  0  0  0
   18.2931  -16.4095  -19.2490 C   0  0  0  0  0  0  0  0  0  0  0  0
   20.3222  -16.6379  -18.0533 C   0  0  0  0  0  0  0  0  0  0  0  0
   21.5493  -17.4790  -18.0980 C   0  0  2  0  0  0  0  0  0  0  0  0
   22.5633  -17.0176  -17.0910 N   0  0  0  0  0  0  0  0  0  0  0  0
   23.8293  -17.7186  -17.2847 C   0  0  0  0  0  0  0  0  0  0  0  0
   22.0607  -17.1904  -15.7237 O   0  0  0  0  0  0  0  0  0  0  0  0
   21.3267  -16.2861  -15.0002 O   0  0  0  0  0  0  0  0  0  0  0  0
  1  2  1  0
  2  3  1  0
  3 13  1  0
  4  3  2  0
  5  6  1  0
  6  7  2  0
  6  8  1  0
  8  9  1  0
  9 10  1  0
 12 11  1  1
 11 10  1  0
 12 14  1  0
 13 12  1  0
 14 15  2  0
 16 17  1  0
 17 18  2  0
 17 19  1  0
 19 20  1  0
 21 20  1  6
 21 23  1  0
 22 21  1  0
 22 14  1  0
 23 25  2  0
 23 24  1  0
M  END
$$$$
