GRQ.pdb
     RDKit          3D

 25 24  0  0  1  0  0  0  0  0999 V2000
   26.0162  -26.3211  -17.0230 N   0  0  0  0  0  0  0  0  0  0  0  0
   26.2367  -24.8832  -17.1595 C   0  0  0  0  0  0  0  0  0  0  0  0
   25.5840  -24.1567  -16.0396 C   0  0  0  0  0  0  0  0  0  0  0  0
   24.6522  -24.7057  -15.4000 O   0  0  0  0  0  0  0  0  0  0  0  0
   26.5824  -19.8342  -10.1275 N   0  0  0  0  0  0  0  0  0  0  0  0
   25.4804  -20.5953   -9.6122 C   0  0  0  0  0  0  0  0  0  0  0  0
   25.2863  -20.6691   -8.3394 N   0  0  0  0  0  0  0  0  0  0  0  0
   24.5808  -21.2810  -10.4621 N   0  0  0  0  0  0  0  0  0  0  0  0
   24.6720  -21.1729  -11.9028 C   0  0  0  0  0  0  0  0  0  0  0  0
   26.0695  -21.6413  -12.2796 C   0  0  0  0  0  0  0  0  0  0  0  0
   26.3494  -21.4813  -13.7353 C   0  0  0  0  0  0  0  0  0  0  0  0
   25.2687  -22.1242  -14.5681 C   0  0  2  0  0  0  0  0  0  0  0  0
   25.9648  -22.8522  -15.6478 N   0  0  0  0  0  0  0  0  0  0  0  0
   24.3529  -21.1108  -15.1620 C   0  0  0  0  0  0  0  0  0  0  0  0
   24.7822  -20.1750  -15.8704 O   0  0  0  0  0  0  0  0  0  0  0  0
   24.4986  -21.2425   -7.9784 N   0  0  0  0  0  0  0  0  0  0  0  0
   19.9175  -21.5435  -14.3275 C   0  0  0  0  0  0  0  0  0  0  0  0
   19.2482  -20.3487  -14.6145 O   0  0  0  0  0  0  0  0  0  0  0  0
   18.0324  -20.3138  -14.8258 C   0  0  0  0  0  0  0  0  0  0  0  0
   20.0417  -19.0746  -14.6650 C   0  0  0  0  0  0  0  0  0  0  0  0
   21.4846  -19.3219  -14.3963 C   0  0  2  0  0  0  0  0  0  0  0  0
   22.1127  -20.1303  -15.4950 N   0  0  0  0  0  0  0  0  0  0  0  0
   22.9539  -21.1842  -14.9351 C   0  0  0  0  0  0  0  0  0  0  0  0
   22.8715  -19.2709  -16.4104 O   0  0  0  0  0  0  0  0  0  0  0  0
   23.7428  -18.2711  -16.0626 O   0  0  0  0  0  0  0  0  0  0  0  0
  1  2  1  0
  2  3  1  0
  3 13  1  0
  4  3  2  0
  5  6  1  0
  6  7  2  0
  6  8  1  0
  8  9  1  0
  9 10  1  0
 12 11  1  1
 11 10  1  0
 12 14  1  0
 13 12  1  0
 14 15  2  0
 16 17  1  0
 17 18  2  0
 17 19  1  0
 19 20  1  0
 21 20  1  1
 21 23  1  0
 22 21  1  0
 22 14  1  0
 23 25  2  0
 23 24  1  0
M  END
$$$$
