GRQ.pdb
     RDKit          3D

 25 24  0  0  1  0  0  0  0  0999 V2000
   26.8289  -24.8402  -15.8058 N   0  0  0  0  0  0  0  0  0  0  0  0
   26.5429  -23.6254  -16.5654 C   0  0  0  0  0  0  0  0  0  0  0  0
   25.5555  -22.7869  -15.8373 C   0  0  0  0  0  0  0  0  0  0  0  0
   25.0244  -23.2222  -14.7850 O   0  0  0  0  0  0  0  0  0  0  0  0
   20.6079  -18.8697  -13.3735 N   0  0  0  0  0  0  0  0  0  0  0  0
   20.2900  -17.8869  -14.3697 C   0  0  0  0  0  0  0  0  0  0  0  0
   19.0610  -17.5623  -14.5866 N   0  0  0  0  0  0  0  0  0  0  0  0
   21.2915  -17.2476  -15.1379 N   0  0  0  0  0  0  0  0  0  0  0  0
   22.6729  -17.6770  -15.0851 C   0  0  0  0  0  0  0  0  0  0  0  0
   22.8444  -18.7043  -16.1940 C   0  0  0  0  0  0  0  0  0  0  0  0
   24.2012  -19.3225  -16.1912 C   0  0  0  0  0  0  0  0  0  0  0  0
   24.1720  -20.6890  -15.5535 C   0  0  2  0  0  0  0  0  0  0  0  0
   25.1743  -21.4976  -16.2760 N   0  0  0  0  0  0  0  0  0  0  0  0
   22.8328  -21.3286  -15.6794 C   0  0  0  0  0  0  0  0  0  0  0  0
   22.4059  -21.7440  -16.7781 O   0  0  0  0  0  0  0  0  0  0  0  0
   18.8477  -16.8109  -15.2720 N   0  0  0  0  0  0  0  0  0  0  0  0
   20.8087  -26.0223  -12.9831 C   0  0  0  0  0  0  0  0  0  0  0  0
   19.5464  -25.4463  -13.1643 O   0  0  0  0  0  0  0  0  0  0  0  0
   18.5103  -26.0141  -12.8065 C   0  0  0  0  0  0  0  0  0  0  0  0
   19.4595  -24.0956  -13.8150 C   0  0  0  0  0  0  0  0  0  0  0  0
   20.8088  -23.5705  -14.1598 C   0  0  1  0  0  0  0  0  0  0  0  0
   20.7262  -22.1772  -14.7139 N   0  0  0  0  0  0  0  0  0  0  0  0
   21.9994  -21.4838  -14.5413 C   0  0  0  0  0  0  0  0  0  0  0  0
   19.6239  -21.4317  -14.0964 O   0  0  0  0  0  0  0  0  0  0  0  0
   18.3103  -21.4361  -14.4894 O   0  0  0  0  0  0  0  0  0  0  0  0
  1  2  1  0
  2  3  1  0
  3 13  1  0
  4  3  2  0
  5  6  1  0
  6  7  2  0
  6  8  1  0
  8  9  1  0
  9 10  1  0
 12 11  1  6
 11 10  1  0
 12 14  1  0
 13 12  1  0
 14 15  2  0
 16 17  1  0
 17 18  2  0
 17 19  1  0
 19 20  1  0
 21 20  1  6
 21 23  1  0
 22 21  1  0
 22 14  1  0
 23 25  2  0
 23 24  1  0
M  END
$$$$
