ISG.pdb
     RDKit          3D

 19 18  0  0  1  0  0  0  0  0999 V2000
    6.6679  -11.5433   27.2875 C   0  0  0  0  0  0  0  0  0  0  0  0
    6.0447  -12.7283   26.6007 C   0  0  0  0  0  0  0  0  0  0  0  0
    7.1163  -13.5464   25.9396 C   0  0  2  0  0  0  0  0  0  0  0  0
    7.9456  -12.6712   24.9912 C   0  0  0  0  0  0  0  0  0  0  0  0
    6.6480  -14.7830   25.2378 C   0  0  2  0  0  0  0  0  0  0  0  0
    6.0047  -15.6322   26.2755 N   0  0  0  0  0  0  0  0  0  0  0  0
    7.6198  -15.5971   24.5517 C   0  0  0  0  0  0  0  0  0  0  0  0
    8.2923  -16.4247   25.2729 O   0  0  0  0  0  0  0  0  0  0  0  0
    8.8724  -15.3387   20.5407 O   0  0  0  0  0  0  0  0  0  0  0  0
    8.9650  -16.5855   21.1622 C   0  0  0  0  0  0  0  0  0  0  0  0
    9.0298  -16.4575   22.6620 C   0  0  2  0  0  0  0  0  0  0  0  0
    7.9589  -15.6347   23.1882 N   0  0  0  0  0  0  0  0  0  0  0  0
   10.3345  -15.8487   23.0237 C   0  0  0  0  0  0  0  0  0  0  0  0
   10.4792  -14.6035   23.1901 O   0  0  0  0  0  0  0  0  0  0  0  0
   11.4808  -16.6951   23.1935 N   0  0  0  0  0  0  0  0  0  0  0  0
   12.7414  -16.1856   23.6557 C   0  0  0  0  0  0  0  0  0  0  0  0
   13.6467  -15.8397   22.5309 C   0  0  0  0  0  0  0  0  0  0  0  0
   14.9001  -15.2978   22.7706 O   0  0  0  0  0  0  0  0  0  0  0  0
   13.3087  -16.0255   21.3375 O   0  0  0  0  0  0  0  0  0  0  0  0
  2  1  1  0
  3  2  1  0
  3  4  1  6
  5  3  1  0
  5  7  1  0
  5  6  1  1
  7  8  2  0
 10  9  1  0
 11 10  1  6
 12 11  1  0
 12  7  1  0
 13 11  1  0
 13 15  1  0
 14 13  2  0
 16 15  1  0
 16 17  1  0
 17 18  1  0
 19 17  2  0
M  END
$$$$
