ISG.pdb
     RDKit          3D

 19 18  0  0  1  0  0  0  0  0999 V2000
    6.4220  -11.6174   27.1285 C   0  0  0  0  0  0  0  0  0  0  0  0
    5.9136  -12.9078   26.5450 C   0  0  0  0  0  0  0  0  0  0  0  0
    7.0246  -13.5974   25.8070 C   0  0  2  0  0  0  0  0  0  0  0  0
    7.6330  -12.6561   24.7597 C   0  0  0  0  0  0  0  0  0  0  0  0
    6.6725  -14.9140   25.1878 C   0  0  2  0  0  0  0  0  0  0  0  0
    6.2173  -15.7891   26.3009 N   0  0  0  0  0  0  0  0  0  0  0  0
    7.6917  -15.6298   24.4618 C   0  0  0  0  0  0  0  0  0  0  0  0
    8.5420  -16.2943   25.1638 O   0  0  0  0  0  0  0  0  0  0  0  0
    8.5407  -15.5464   20.3178 O   0  0  0  0  0  0  0  0  0  0  0  0
    8.8518  -16.7039   21.0339 C   0  0  0  0  0  0  0  0  0  0  0  0
    9.0451  -16.4174   22.5003 C   0  0  2  0  0  0  0  0  0  0  0  0
    7.9113  -15.7224   23.0767 N   0  0  0  0  0  0  0  0  0  0  0  0
   10.2608  -15.5799   22.6573 C   0  0  0  0  0  0  0  0  0  0  0  0
   10.2175  -14.3161   22.6662 O   0  0  0  0  0  0  0  0  0  0  0  0
   11.5378  -16.2176   22.8053 N   0  0  0  0  0  0  0  0  0  0  0  0
   12.7499  -15.4650   22.9688 C   0  0  0  0  0  0  0  0  0  0  0  0
   13.9430  -16.3448   23.0517 C   0  0  0  0  0  0  0  0  0  0  0  0
   15.2216  -15.8096   23.0244 O   0  0  0  0  0  0  0  0  0  0  0  0
   13.8325  -17.5904   23.1484 O   0  0  0  0  0  0  0  0  0  0  0  0
  2  1  1  0
  3  2  1  0
  3  4  1  6
  5  3  1  0
  5  7  1  0
  5  6  1  1
  7  8  2  0
 10  9  1  0
 11 10  1  6
 12 11  1  0
 12  7  1  0
 13 11  1  0
 13 15  1  0
 14 13  2  0
 16 15  1  0
 16 17  1  0
 17 18  1  0
 19 17  2  0
M  END
$$$$
