ISG.pdb
     RDKit          3D

 19 18  0  0  1  0  0  0  0  0999 V2000
    7.6210  -11.5394   19.8876 C   0  0  0  0  0  0  0  0  0  0  0  0
    7.5501  -12.9893   19.4915 C   0  0  0  0  0  0  0  0  0  0  0  0
    8.7498  -13.7156   20.0279 C   0  0  2  0  0  0  0  0  0  0  0  0
   10.0403  -13.0326   19.5576 C   0  0  0  0  0  0  0  0  0  0  0  0
    8.7995  -15.1844   19.7430 C   0  0  2  0  0  0  0  0  0  0  0  0
    7.5481  -15.7599   20.3039 N   0  0  0  0  0  0  0  0  0  0  0  0
    9.9025  -15.9517   20.2652 C   0  0  0  0  0  0  0  0  0  0  0  0
    9.8523  -16.2585   21.5145 O   0  0  0  0  0  0  0  0  0  0  0  0
   13.4698  -17.2083   18.3175 O   0  0  0  0  0  0  0  0  0  0  0  0
   12.9497  -17.9674   19.3676 C   0  0  0  0  0  0  0  0  0  0  0  0
   12.1189  -17.1287   20.3038 C   0  0  2  0  0  0  0  0  0  0  0  0
   11.0516  -16.4320   19.6138 N   0  0  0  0  0  0  0  0  0  0  0  0
   13.0081  -16.1345   20.9554 C   0  0  0  0  0  0  0  0  0  0  0  0
   13.1211  -14.9472   20.5351 O   0  0  0  0  0  0  0  0  0  0  0  0
   13.7725  -16.5242   22.1056 N   0  0  0  0  0  0  0  0  0  0  0  0
   14.6600  -15.6141   22.7738 C   0  0  0  0  0  0  0  0  0  0  0  0
   15.4368  -16.2835   23.8475 C   0  0  0  0  0  0  0  0  0  0  0  0
   16.3860  -15.5842   24.5769 O   0  0  0  0  0  0  0  0  0  0  0  0
   15.2601  -17.4935   24.1263 O   0  0  0  0  0  0  0  0  0  0  0  0
  2  1  1  0
  3  2  1  0
  3  4  1  6
  5  3  1  0
  5  7  1  0
  5  6  1  1
  7  8  2  0
 10  9  1  0
 11 10  1  6
 12 11  1  0
 12  7  1  0
 13 11  1  0
 13 15  1  0
 14 13  2  0
 16 15  1  0
 16 17  1  0
 17 18  1  0
 19 17  2  0
M  END
$$$$
