ISG.pdb
     RDKit          3D

 19 18  0  0  1  0  0  0  0  0999 V2000
    7.4807  -11.8198   20.0874 C   0  0  0  0  0  0  0  0  0  0  0  0
    7.4786  -13.2807   19.7271 C   0  0  0  0  0  0  0  0  0  0  0  0
    7.8264  -14.0972   20.9383 C   0  0  2  0  0  0  0  0  0  0  0  0
    9.1588  -13.6252   21.5342 C   0  0  0  0  0  0  0  0  0  0  0  0
    7.8367  -15.5808   20.7392 C   0  0  2  0  0  0  0  0  0  0  0  0
    6.4582  -15.9548   20.3247 N   0  0  0  0  0  0  0  0  0  0  0  0
    8.1995  -16.4237   21.8509 C   0  0  0  0  0  0  0  0  0  0  0  0
    7.2886  -16.6372   22.7353 O   0  0  0  0  0  0  0  0  0  0  0  0
   11.4282  -19.0393   22.1180 O   0  0  0  0  0  0  0  0  0  0  0  0
   10.2515  -19.2649   22.8349 C   0  0  0  0  0  0  0  0  0  0  0  0
    9.5942  -17.9737   23.2481 C   0  0  2  0  0  0  0  0  0  0  0  0
    9.4173  -17.0672   22.1311 N   0  0  0  0  0  0  0  0  0  0  0  0
   10.4466  -17.3220   24.2740 C   0  0  0  0  0  0  0  0  0  0  0  0
   11.2503  -16.3868   23.9938 O   0  0  0  0  0  0  0  0  0  0  0  0
   10.3636  -17.7615   25.6375 N   0  0  0  0  0  0  0  0  0  0  0  0
   11.2020  -17.2129   26.6664 C   0  0  0  0  0  0  0  0  0  0  0  0
   11.4900  -18.2029   27.7347 C   0  0  0  0  0  0  0  0  0  0  0  0
   12.2479  -17.8515   28.8411 O   0  0  0  0  0  0  0  0  0  0  0  0
   11.0599  -19.3793   27.6705 O   0  0  0  0  0  0  0  0  0  0  0  0
  2  1  1  0
  3  2  1  0
  3  4  1  6
  5  3  1  0
  5  7  1  0
  5  6  1  1
  7  8  2  0
 10  9  1  0
 11 10  1  6
 12 11  1  0
 12  7  1  0
 13 11  1  0
 13 15  1  0
 14 13  2  0
 16 15  1  0
 16 17  1  0
 17 18  1  0
 19 17  2  0
M  END
$$$$
