ISG.pdb
     RDKit          3D

 19 18  0  0  1  0  0  0  0  0999 V2000
    8.5309  -11.6672   19.2320 C   0  0  0  0  0  0  0  0  0  0  0  0
    7.4818  -12.7438   19.1641 C   0  0  0  0  0  0  0  0  0  0  0  0
    7.9876  -13.9817   19.8470 C   0  0  2  0  0  0  0  0  0  0  0  0
    8.3447  -13.6763   21.3072 C   0  0  0  0  0  0  0  0  0  0  0  0
    9.1215  -14.6814   19.1647 C   0  0  2  0  0  0  0  0  0  0  0  0
    8.5910  -15.1599   17.8603 N   0  0  0  0  0  0  0  0  0  0  0  0
    9.7342  -15.8077   19.8237 C   0  0  0  0  0  0  0  0  0  0  0  0
    8.9864  -16.8363   20.0241 O   0  0  0  0  0  0  0  0  0  0  0  0
   13.5501  -17.1726   19.7620 O   0  0  0  0  0  0  0  0  0  0  0  0
   12.4854  -17.9560   20.2112 C   0  0  0  0  0  0  0  0  0  0  0  0
   11.4953  -17.1471   21.0084 C   0  0  2  0  0  0  0  0  0  0  0  0
   11.0492  -15.9681   20.2931 N   0  0  0  0  0  0  0  0  0  0  0  0
   12.1446  -16.7306   22.2767 C   0  0  0  0  0  0  0  0  0  0  0  0
   12.7816  -15.6439   22.3878 O   0  0  0  0  0  0  0  0  0  0  0  0
   12.0525  -17.5853   23.4258 N   0  0  0  0  0  0  0  0  0  0  0  0
   12.5744  -17.1978   24.7064 C   0  0  0  0  0  0  0  0  0  0  0  0
   13.9785  -17.6431   24.8917 C   0  0  0  0  0  0  0  0  0  0  0  0
   14.4230  -18.0914   26.1260 O   0  0  0  0  0  0  0  0  0  0  0  0
   14.8007  -17.6278   23.9447 O   0  0  0  0  0  0  0  0  0  0  0  0
  2  1  1  0
  3  2  1  0
  3  4  1  1
  5  3  1  0
  5  7  1  0
  5  6  1  6
  7  8  2  0
 10  9  1  0
 11 10  1  6
 12 11  1  0
 12  7  1  0
 13 11  1  0
 13 15  1  0
 14 13  2  0
 16 15  1  0
 16 17  1  0
 17 18  1  0
 19 17  2  0
M  END
$$$$
