ISG.pdb
     RDKit          3D

 19 18  0  0  1  0  0  0  0  0999 V2000
    7.1533  -11.7479   27.0361 C   0  0  0  0  0  0  0  0  0  0  0  0
    6.6098  -13.1409   26.8677 C   0  0  0  0  0  0  0  0  0  0  0  0
    7.3042  -13.8155   25.7199 C   0  0  2  0  0  0  0  0  0  0  0  0
    7.2156  -12.9466   24.4588 C   0  0  0  0  0  0  0  0  0  0  0  0
    6.8607  -15.2146   25.4256 C   0  0  2  0  0  0  0  0  0  0  0  0
    7.0066  -15.9736   26.6962 N   0  0  0  0  0  0  0  0  0  0  0  0
    7.5479  -15.9543   24.3966 C   0  0  0  0  0  0  0  0  0  0  0  0
    8.3557  -16.8764   24.7899 O   0  0  0  0  0  0  0  0  0  0  0  0
    7.4868  -15.4078   20.2125 O   0  0  0  0  0  0  0  0  0  0  0  0
    7.4186  -16.7108   20.7095 C   0  0  0  0  0  0  0  0  0  0  0  0
    8.0208  -16.8145   22.0867 C   0  0  2  0  0  0  0  0  0  0  0  0
    7.4753  -15.8289   22.9987 N   0  0  0  0  0  0  0  0  0  0  0  0
    9.4872  -16.6134   21.9726 C   0  0  0  0  0  0  0  0  0  0  0  0
   10.2103  -17.3132   21.2067 O   0  0  0  0  0  0  0  0  0  0  0  0
   10.1182  -15.5898   22.7558 N   0  0  0  0  0  0  0  0  0  0  0  0
   11.5027  -15.2476   22.5877 C   0  0  0  0  0  0  0  0  0  0  0  0
   12.3948  -16.1442   23.3653 C   0  0  0  0  0  0  0  0  0  0  0  0
   12.2899  -17.5219   23.2506 O   0  0  0  0  0  0  0  0  0  0  0  0
   13.2648  -15.6870   24.1445 O   0  0  0  0  0  0  0  0  0  0  0  0
  2  1  1  0
  3  2  1  0
  3  4  1  6
  5  3  1  0
  5  7  1  0
  5  6  1  1
  7  8  2  0
 10  9  1  0
 11 10  1  6
 12 11  1  0
 12  7  1  0
 13 11  1  0
 13 15  1  0
 14 13  2  0
 16 15  1  0
 16 17  1  0
 17 18  1  0
 19 17  2  0
M  END
$$$$
