HTY.pdb
     RDKit          3D

 30 31  0  0  1  0  0  0  0  0999 V2000
   25.6212  -21.0370  -18.8897 N   0  0  0  0  0  0  0  0  0  0  0  0
   24.9423  -21.3919  -17.6715 C   0  0  1  0  0  0  0  0  0  0  0  0
   24.1070  -22.6363  -17.9868 C   0  0  0  0  0  0  0  0  0  0  0  0
   22.9912  -22.1837  -18.8570 C   0  0  0  0  0  0  0  0  0  0  0  0
   22.5663  -22.7273  -20.0515 C   0  0  0  0  0  0  0  0  0  0  0  0
   21.5283  -22.0184  -20.5147 N   0  0  0  0  0  0  0  0  0  0  0  0
   21.2916  -21.0294  -19.6231 C   0  0  0  0  0  0  0  0  0  0  0  0
   22.1753  -21.1280  -18.6202 N   0  0  0  0  0  0  0  0  0  0  0  0
   25.9072  -21.6607  -16.5772 C   0  0  0  0  0  0  0  0  0  0  0  0
   26.9596  -22.2750  -16.8497 O   0  0  0  0  0  0  0  0  0  0  0  0
   28.3725  -19.7884  -15.6454 C   0  0  0  0  0  0  0  0  0  0  0  0
   27.4945  -19.7841  -14.3980 C   0  0  1  0  0  0  0  0  0  0  0  0
   26.7595  -18.6211  -14.2869 O   0  0  0  0  0  0  0  0  0  0  0  0
   26.6952  -21.0323  -14.2634 C   0  0  2  0  0  0  0  0  0  0  0  0
   25.7001  -21.2620  -15.2554 N   0  0  0  0  0  0  0  0  0  0  0  0
   26.0635  -21.0393  -12.9165 C   0  0  0  0  0  0  0  0  0  0  0  0
   24.8828  -20.6567  -12.7204 O   0  0  0  0  0  0  0  0  0  0  0  0
   26.3623  -19.2736   -4.2341 O   0  0  0  0  0  0  0  0  0  0  0  0
   26.6474  -19.7110   -5.5277 C   0  0  0  0  0  0  0  0  0  0  0  0
   26.2543  -20.9536   -5.9525 C   0  0  0  0  0  0  0  0  0  0  0  0
   26.5242  -21.4061   -7.2237 C   0  0  0  0  0  0  0  0  0  0  0  0
   27.2108  -20.6192   -8.1375 C   0  0  0  0  0  0  0  0  0  0  0  0
   27.5300  -21.0744   -9.4965 C   0  0  0  0  0  0  0  0  0  0  0  0
   26.3480  -21.1401  -10.4304 C   0  0  2  0  0  0  0  0  0  0  0  0
   26.7835  -21.4879  -11.7772 N   0  0  0  0  0  0  0  0  0  0  0  0
   25.6254  -19.8660  -10.4260 C   0  0  0  0  0  0  0  0  0  0  0  0
   26.2293  -18.7579  -11.0201 O   0  0  0  0  0  0  0  0  0  0  0  0
   27.6095  -19.3614   -7.7089 C   0  0  0  0  0  0  0  0  0  0  0  0
   27.3294  -18.9363   -6.4435 C   0  0  0  0  0  0  0  0  0  0  0  0
   24.4961  -19.7076   -9.9212 O   0  0  0  0  0  0  0  0  0  0  0  0
  2  1  1  6
  2  3  1  0
  4  3  1  0
  4  8  1  0
  5  4  2  0
  6  5  1  0
  6  7  1  0
  7  8  2  0
  9 10  2  0
  9  2  1  0
 12 11  1  6
 12 14  1  0
 13 12  1  0
 14 15  1  6
 15  9  1  0
 16 25  1  0
 16 14  1  0
 17 16  2  0
 18 19  1  0
 19 29  2  0
 20 19  1  0
 20 21  2  0
 21 22  1  0
 22 28  2  0
 22 23  1  0
 24 23  1  1
 24 25  1  0
 24 26  1  0
 26 27  1  0
 29 28  1  0
 30 26  2  0
M  END
$$$$
