HTY.pdb
     RDKit          3D

 30 31  0  0  1  0  0  0  0  0999 V2000
   14.6117  -17.2286    1.7917 N   0  0  0  0  0  0  0  0  0  0  0  0
   14.7966  -18.0676    2.9462 C   0  0  1  0  0  0  0  0  0  0  0  0
   14.7306  -19.5139    2.4468 C   0  0  0  0  0  0  0  0  0  0  0  0
   13.3154  -19.7639    2.0702 C   0  0  0  0  0  0  0  0  0  0  0  0
   12.2162  -18.9641    2.3045 C   0  0  0  0  0  0  0  0  0  0  0  0
   11.1244  -19.5563    1.8027 N   0  0  0  0  0  0  0  0  0  0  0  0
   11.5227  -20.7255    1.2520 C   0  0  0  0  0  0  0  0  0  0  0  0
   12.8473  -20.8526    1.4128 N   0  0  0  0  0  0  0  0  0  0  0  0
   16.0948  -17.7912    3.6090 C   0  0  0  0  0  0  0  0  0  0  0  0
   17.0963  -17.5843    2.8926 O   0  0  0  0  0  0  0  0  0  0  0  0
   17.4144  -14.8805    5.4251 C   0  0  0  0  0  0  0  0  0  0  0  0
   17.3835  -16.0511    6.4027 C   0  0  1  0  0  0  0  0  0  0  0  0
   16.3676  -15.9251    7.3285 O   0  0  0  0  0  0  0  0  0  0  0  0
   17.4260  -17.3683    5.7111 C   0  0  2  0  0  0  0  0  0  0  0  0
   16.2561  -17.7501    4.9952 N   0  0  0  0  0  0  0  0  0  0  0  0
   17.7548  -18.4136    6.7173 C   0  0  0  0  0  0  0  0  0  0  0  0
   17.0334  -19.4257    6.9027 O   0  0  0  0  0  0  0  0  0  0  0  0
   21.2403  -25.4503    9.8848 O   0  0  0  0  0  0  0  0  0  0  0  0
   20.8696  -24.2581    9.2625 C   0  0  0  0  0  0  0  0  0  0  0  0
   19.5820  -23.7945    9.3413 C   0  0  0  0  0  0  0  0  0  0  0  0
   19.1935  -22.6215    8.7359 C   0  0  0  0  0  0  0  0  0  0  0  0
   20.0943  -21.8511    8.0141 C   0  0  0  0  0  0  0  0  0  0  0  0
   19.7124  -20.6027    7.3421 C   0  0  0  0  0  0  0  0  0  0  0  0
   19.4197  -19.4530    8.2728 C   0  0  2  0  0  0  0  0  0  0  0  0
   18.9197  -18.3073    7.5231 N   0  0  0  0  0  0  0  0  0  0  0  0
   20.6195  -19.0975    9.0344 C   0  0  0  0  0  0  0  0  0  0  0  0
   20.7165  -19.5254   10.3585 O   0  0  0  0  0  0  0  0  0  0  0  0
   21.3978  -22.3191    7.9332 C   0  0  0  0  0  0  0  0  0  0  0  0
   21.7575  -23.4851    8.5426 C   0  0  0  0  0  0  0  0  0  0  0  0
   21.5667  -18.4318    8.5710 O   0  0  0  0  0  0  0  0  0  0  0  0
  2  1  1  6
  2  3  1  0
  4  3  1  0
  4  8  1  0
  5  4  2  0
  6  5  1  0
  6  7  1  0
  7  8  2  0
  9 10  2  0
  9  2  1  0
 12 11  1  6
 12 14  1  0
 13 12  1  0
 14 15  1  1
 15  9  1  0
 16 25  1  0
 16 14  1  0
 17 16  2  0
 18 19  1  0
 19 29  2  0
 20 19  1  0
 20 21  2  0
 21 22  1  0
 22 28  2  0
 22 23  1  0
 24 23  1  6
 24 25  1  0
 24 26  1  0
 26 27  1  0
 29 28  1  0
 30 26  2  0
M  END
$$$$
