HTY.pdb
     RDKit          3D

 30 31  0  0  1  0  0  0  0  0999 V2000
   17.3212  -15.7714  -18.6023 N   0  0  0  0  0  0  0  0  0  0  0  0
   18.5780  -15.8370  -17.9044 C   0  0  1  0  0  0  0  0  0  0  0  0
   18.4348  -14.9447  -16.6678 C   0  0  0  0  0  0  0  0  0  0  0  0
   18.4612  -13.5421  -17.1568 C   0  0  0  0  0  0  0  0  0  0  0  0
   19.5594  -12.7680  -17.4691 C   0  0  0  0  0  0  0  0  0  0  0  0
   19.1469  -11.5592  -17.8731 N   0  0  0  0  0  0  0  0  0  0  0  0
   17.7956  -11.5607  -17.8193 C   0  0  0  0  0  0  0  0  0  0  0  0
   17.3794  -12.7589  -17.3864 N   0  0  0  0  0  0  0  0  0  0  0  0
   18.9073  -17.2316  -17.5203 C   0  0  0  0  0  0  0  0  0  0  0  0
   17.9959  -17.9546  -17.0667 O   0  0  0  0  0  0  0  0  0  0  0  0
   20.1410  -20.2888  -19.4700 C   0  0  0  0  0  0  0  0  0  0  0  0
   21.1712  -19.9193  -18.4074 C   0  0  1  0  0  0  0  0  0  0  0  0
   22.3179  -19.3873  -18.9616 O   0  0  0  0  0  0  0  0  0  0  0  0
   20.5844  -19.1056  -17.3080 C   0  0  2  0  0  0  0  0  0  0  0  0
   20.1858  -17.7796  -17.6395 N   0  0  0  0  0  0  0  0  0  0  0  0
   21.5602  -19.0641  -16.1858 C   0  0  0  0  0  0  0  0  0  0  0  0
   22.1650  -18.0141  -15.8529 O   0  0  0  0  0  0  0  0  0  0  0  0
   26.2797  -21.0645   -8.9878 O   0  0  0  0  0  0  0  0  0  0  0  0
   25.3166  -20.9712   -9.9926 C   0  0  0  0  0  0  0  0  0  0  0  0
   25.3097  -21.8509  -11.0438 C   0  0  0  0  0  0  0  0  0  0  0  0
   24.3696  -21.7783  -12.0461 C   0  0  0  0  0  0  0  0  0  0  0  0
   23.3807  -20.8048  -12.0366 C   0  0  0  0  0  0  0  0  0  0  0  0
   22.3712  -20.6872  -13.0963 C   0  0  0  0  0  0  0  0  0  0  0  0
   22.9100  -20.2317  -14.4289 C   0  0  2  0  0  0  0  0  0  0  0  0
   21.8519  -20.2317  -15.4314 N   0  0  0  0  0  0  0  0  0  0  0  0
   24.0257  -21.0850  -14.8446 C   0  0  0  0  0  0  0  0  0  0  0  0
   25.3262  -20.6215  -14.6459 O   0  0  0  0  0  0  0  0  0  0  0  0
   23.3866  -19.9136  -10.9734 C   0  0  0  0  0  0  0  0  0  0  0  0
   24.3295  -20.0071   -9.9923 C   0  0  0  0  0  0  0  0  0  0  0  0
   23.8859  -22.2080  -15.3686 O   0  0  0  0  0  0  0  0  0  0  0  0
  2  1  1  1
  2  3  1  0
  4  3  1  0
  4  8  1  0
  5  4  2  0
  6  5  1  0
  6  7  1  0
  7  8  2  0
  9 10  2  0
  9  2  1  0
 12 11  1  6
 12 14  1  0
 13 12  1  0
 14 15  1  6
 15  9  1  0
 16 25  1  0
 16 14  1  0
 17 16  2  0
 18 19  1  0
 19 29  2  0
 20 19  1  0
 20 21  2  0
 21 22  1  0
 22 28  2  0
 22 23  1  0
 24 23  1  1
 24 25  1  0
 24 26  1  0
 26 27  1  0
 29 28  1  0
 30 26  2  0
M  END
$$$$
