HTY.pdb
     RDKit          3D

 30 31  0  0  1  0  0  0  0  0999 V2000
   28.4929  -17.5276  -19.7706 N   0  0  0  0  0  0  0  0  0  0  0  0
   27.6471  -18.3967  -18.9959 C   0  0  1  0  0  0  0  0  0  0  0  0
   28.5787  -19.3525  -18.2447 C   0  0  0  0  0  0  0  0  0  0  0  0
   29.1032  -20.3077  -19.2544 C   0  0  0  0  0  0  0  0  0  0  0  0
   30.3764  -20.3796  -19.7803 C   0  0  0  0  0  0  0  0  0  0  0  0
   30.4332  -21.3854  -20.6633 N   0  0  0  0  0  0  0  0  0  0  0  0
   29.2058  -21.9520  -20.7014 C   0  0  0  0  0  0  0  0  0  0  0  0
   28.4004  -21.3016  -19.8501 N   0  0  0  0  0  0  0  0  0  0  0  0
   26.8027  -17.6237  -18.0523 C   0  0  0  0  0  0  0  0  0  0  0  0
   27.3515  -16.7684  -17.3267 O   0  0  0  0  0  0  0  0  0  0  0  0
   24.9172  -14.7579  -18.0101 C   0  0  0  0  0  0  0  0  0  0  0  0
   23.9025  -15.8585  -17.7173 C   0  0  1  0  0  0  0  0  0  0  0  0
   23.1001  -16.1257  -18.8082 O   0  0  0  0  0  0  0  0  0  0  0  0
   24.5314  -17.0612  -17.1067 C   0  0  2  0  0  0  0  0  0  0  0  0
   25.4234  -17.8026  -17.9324 N   0  0  0  0  0  0  0  0  0  0  0  0
   23.4488  -17.9567  -16.6173 C   0  0  0  0  0  0  0  0  0  0  0  0
   23.1494  -19.0336  -17.1916 O   0  0  0  0  0  0  0  0  0  0  0  0
   16.7804  -20.9922  -11.5048 O   0  0  0  0  0  0  0  0  0  0  0  0
   17.8550  -20.2721  -12.0270 C   0  0  0  0  0  0  0  0  0  0  0  0
   19.1396  -20.7321  -11.8960 C   0  0  0  0  0  0  0  0  0  0  0  0
   20.2150  -20.0391  -12.4029 C   0  0  0  0  0  0  0  0  0  0  0  0
   20.0450  -18.8361  -13.0734 C   0  0  0  0  0  0  0  0  0  0  0  0
   21.1694  -18.0617  -13.6139 C   0  0  0  0  0  0  0  0  0  0  0  0
   21.6275  -18.4930  -14.9842 C   0  0  2  0  0  0  0  0  0  0  0  0
   22.6967  -17.6238  -15.4593 N   0  0  0  0  0  0  0  0  0  0  0  0
   20.5001  -18.4960  -15.9195 C   0  0  0  0  0  0  0  0  0  0  0  0
   19.8244  -19.6959  -16.1414 O   0  0  0  0  0  0  0  0  0  0  0  0
   18.7454  -18.3691  -13.2065 C   0  0  0  0  0  0  0  0  0  0  0  0
   17.6965  -19.0752  -12.6950 C   0  0  0  0  0  0  0  0  0  0  0  0
   20.1028  -17.4864  -16.5345 O   0  0  0  0  0  0  0  0  0  0  0  0
  2  1  1  1
  2  3  1  0
  4  3  1  0
  4  8  1  0
  5  4  2  0
  6  5  1  0
  6  7  1  0
  7  8  2  0
  9 10  2  0
  9  2  1  0
 12 11  1  6
 12 14  1  0
 13 12  1  0
 14 15  1  6
 15  9  1  0
 16 25  1  0
 16 14  1  0
 17 16  2  0
 18 19  1  0
 19 29  2  0
 20 19  1  0
 20 21  2  0
 21 22  1  0
 22 28  2  0
 22 23  1  0
 24 23  1  1
 24 25  1  0
 24 26  1  0
 26 27  1  0
 29 28  1  0
 30 26  2  0
M  END
$$$$
