HTY.pdb
     RDKit          3D

 30 31  0  0  1  0  0  0  0  0999 V2000
   20.4781  -14.2961  -17.7804 N   0  0  0  0  0  0  0  0  0  0  0  0
   19.8096  -13.3032  -16.9815 C   0  0  1  0  0  0  0  0  0  0  0  0
   19.3736  -14.0052  -15.6920 C   0  0  0  0  0  0  0  0  0  0  0  0
   18.2072  -14.8532  -16.0492 C   0  0  0  0  0  0  0  0  0  0  0  0
   18.1692  -16.2206  -16.2273 C   0  0  0  0  0  0  0  0  0  0  0  0
   16.9209  -16.5900  -16.5432 N   0  0  0  0  0  0  0  0  0  0  0  0
   16.1670  -15.4675  -16.5668 C   0  0  0  0  0  0  0  0  0  0  0  0
   16.9433  -14.4164  -16.2684 N   0  0  0  0  0  0  0  0  0  0  0  0
   20.7051  -12.1574  -16.6881 C   0  0  0  0  0  0  0  0  0  0  0  0
   21.8807  -12.3950  -16.3407 O   0  0  0  0  0  0  0  0  0  0  0  0
   22.4765   -9.6608  -18.6338 C   0  0  0  0  0  0  0  0  0  0  0  0
   21.5130   -8.8871  -17.7395 C   0  0  1  0  0  0  0  0  0  0  0  0
   20.4659   -8.3432  -18.4558 O   0  0  0  0  0  0  0  0  0  0  0  0
   21.0992   -9.6688  -16.5425 C   0  0  2  0  0  0  0  0  0  0  0  0
   20.3017  -10.8241  -16.7803 N   0  0  0  0  0  0  0  0  0  0  0  0
   20.3829   -8.7548  -15.6126 C   0  0  0  0  0  0  0  0  0  0  0  0
   19.1411   -8.8125  -15.4290 O   0  0  0  0  0  0  0  0  0  0  0  0
   18.7262   -3.2669   -8.8813 O   0  0  0  0  0  0  0  0  0  0  0  0
   19.3465   -4.0781   -9.8317 C   0  0  0  0  0  0  0  0  0  0  0  0
   19.9491   -3.5330  -10.9356 C   0  0  0  0  0  0  0  0  0  0  0  0
   20.5671   -4.3132  -11.8859 C   0  0  0  0  0  0  0  0  0  0  0  0
   20.6076   -5.6953  -11.7675 C   0  0  0  0  0  0  0  0  0  0  0  0
   21.2441   -6.5603  -12.7688 C   0  0  0  0  0  0  0  0  0  0  0  0
   20.3882   -6.8617  -13.9731 C   0  0  2  0  0  0  0  0  0  0  0  0
   21.0878   -7.7621  -14.8810 N   0  0  0  0  0  0  0  0  0  0  0  0
   20.0124   -5.6198  -14.6531 C   0  0  0  0  0  0  0  0  0  0  0  0
   18.8067   -5.0109  -14.3052 O   0  0  0  0  0  0  0  0  0  0  0  0
   19.9979   -6.2484  -10.6508 C   0  0  0  0  0  0  0  0  0  0  0  0
   19.3921   -5.4529   -9.7232 C   0  0  0  0  0  0  0  0  0  0  0  0
   20.7069   -5.0682  -15.5298 O   0  0  0  0  0  0  0  0  0  0  0  0
  2  1  1  6
  2  3  1  0
  4  3  1  0
  4  8  1  0
  5  4  2  0
  6  5  1  0
  6  7  1  0
  7  8  2  0
  9 10  2  0
  9  2  1  0
 12 11  1  6
 12 14  1  0
 13 12  1  0
 14 15  1  6
 15  9  1  0
 16 25  1  0
 16 14  1  0
 17 16  2  0
 18 19  1  0
 19 29  2  0
 20 19  1  0
 20 21  2  0
 21 22  1  0
 22 28  2  0
 22 23  1  0
 24 23  1  1
 24 25  1  0
 24 26  1  0
 26 27  1  0
 29 28  1  0
 30 26  2  0
M  END
$$$$
