HTY.pdb
     RDKit          3D

 30 31  0  0  1  0  0  0  0  0999 V2000
   21.6194  -16.9218  -18.4263 N   0  0  0  0  0  0  0  0  0  0  0  0
   22.0876  -16.6511  -17.0927 C   0  0  1  0  0  0  0  0  0  0  0  0
   21.0655  -15.7034  -16.4578 C   0  0  0  0  0  0  0  0  0  0  0  0
   21.2036  -14.4032  -17.1634 C   0  0  0  0  0  0  0  0  0  0  0  0
   20.2351  -13.6947  -17.8436 C   0  0  0  0  0  0  0  0  0  0  0  0
   20.7737  -12.5709  -18.3351 N   0  0  0  0  0  0  0  0  0  0  0  0
   22.0763  -12.5613  -17.9718 C   0  0  0  0  0  0  0  0  0  0  0  0
   22.3379  -13.6686  -17.2632 N   0  0  0  0  0  0  0  0  0  0  0  0
   22.2169  -17.9011  -16.3044 C   0  0  0  0  0  0  0  0  0  0  0  0
   21.2152  -18.6376  -16.1884 O   0  0  0  0  0  0  0  0  0  0  0  0
   23.5081  -20.9438  -17.2843 C   0  0  0  0  0  0  0  0  0  0  0  0
   24.4044  -20.5216  -16.1244 C   0  0  1  0  0  0  0  0  0  0  0  0
   25.6389  -20.0820  -16.5581 O   0  0  0  0  0  0  0  0  0  0  0  0
   23.7164  -19.5947  -15.1849 C   0  0  2  0  0  0  0  0  0  0  0  0
   23.4027  -18.2986  -15.6838 N   0  0  0  0  0  0  0  0  0  0  0  0
   24.5517  -19.4658  -13.9606 C   0  0  0  0  0  0  0  0  0  0  0  0
   24.7871  -18.3587  -13.4149 O   0  0  0  0  0  0  0  0  0  0  0  0
   27.3477  -19.3367   -5.9011 O   0  0  0  0  0  0  0  0  0  0  0  0
   26.7629  -19.4774   -7.1597 C   0  0  0  0  0  0  0  0  0  0  0  0
   26.9520  -18.5305   -8.1327 C   0  0  0  0  0  0  0  0  0  0  0  0
   26.3854  -18.6481   -9.3812 C   0  0  0  0  0  0  0  0  0  0  0  0
   25.5924  -19.7377   -9.7123 C   0  0  0  0  0  0  0  0  0  0  0  0
   24.9592  -19.8891  -11.0284 C   0  0  0  0  0  0  0  0  0  0  0  0
   25.8435  -20.5046  -12.0833 C   0  0  2  0  0  0  0  0  0  0  0  0
   25.1266  -20.6112  -13.3480 N   0  0  0  0  0  0  0  0  0  0  0  0
   26.3245  -21.8158  -11.6416 C   0  0  0  0  0  0  0  0  0  0  0  0
   27.6689  -21.9474  -11.2939 O   0  0  0  0  0  0  0  0  0  0  0  0
   25.3999  -20.6968   -8.7285 C   0  0  0  0  0  0  0  0  0  0  0  0
   25.9729  -20.5567   -7.4987 C   0  0  0  0  0  0  0  0  0  0  0  0
   25.6032  -22.8295  -11.5559 O   0  0  0  0  0  0  0  0  0  0  0  0
  2  1  1  6
  2  3  1  0
  4  3  1  0
  4  8  1  0
  5  4  2  0
  6  5  1  0
  6  7  1  0
  7  8  2  0
  9 10  2  0
  9  2  1  0
 12 11  1  6
 12 14  1  0
 13 12  1  0
 14 15  1  6
 15  9  1  0
 16 25  1  0
 16 14  1  0
 17 16  2  0
 18 19  1  0
 19 29  2  0
 20 19  1  0
 20 21  2  0
 21 22  1  0
 22 28  2  0
 22 23  1  0
 24 23  1  1
 24 25  1  0
 24 26  1  0
 26 27  1  0
 29 28  1  0
 30 26  2  0
M  END
$$$$
