HTY.pdb
     RDKit          3D

 30 31  0  0  1  0  0  0  0  0999 V2000
   17.8466  -12.4214  -16.1311 N   0  0  0  0  0  0  0  0  0  0  0  0
   18.0480  -11.0411  -16.4852 C   0  0  1  0  0  0  0  0  0  0  0  0
   16.6750  -10.3674  -16.4039 C   0  0  0  0  0  0  0  0  0  0  0  0
   15.8665  -10.9260  -17.5182 C   0  0  0  0  0  0  0  0  0  0  0  0
   15.8502  -10.5337  -18.8405 C   0  0  0  0  0  0  0  0  0  0  0  0
   14.9806  -11.2962  -19.5165 N   0  0  0  0  0  0  0  0  0  0  0  0
   14.4453  -12.1690  -18.6330 C   0  0  0  0  0  0  0  0  0  0  0  0
   14.9799  -11.9466  -17.4243 N   0  0  0  0  0  0  0  0  0  0  0  0
   19.0173  -10.3879  -15.5718 C   0  0  0  0  0  0  0  0  0  0  0  0
   18.9552  -10.6498  -14.3525 O   0  0  0  0  0  0  0  0  0  0  0  0
   22.5698  -10.7154  -14.7575 C   0  0  0  0  0  0  0  0  0  0  0  0
   22.3769   -9.3168  -15.3351 C   0  0  1  0  0  0  0  0  0  0  0  0
   22.8998   -9.2061  -16.6077 O   0  0  0  0  0  0  0  0  0  0  0  0
   20.9742   -8.8374  -15.2023 C   0  0  2  0  0  0  0  0  0  0  0  0
   19.9979   -9.4934  -16.0046 N   0  0  0  0  0  0  0  0  0  0  0  0
   20.9507   -7.3775  -15.4875 C   0  0  0  0  0  0  0  0  0  0  0  0
   20.7499   -6.9156  -16.6387 O   0  0  0  0  0  0  0  0  0  0  0  0
   15.7064   -5.1221  -17.9794 O   0  0  0  0  0  0  0  0  0  0  0  0
   16.7615   -4.9167  -17.0901 C   0  0  0  0  0  0  0  0  0  0  0  0
   17.5514   -3.8002  -17.1823 C   0  0  0  0  0  0  0  0  0  0  0  0
   18.5973   -3.5764  -16.3164 C   0  0  0  0  0  0  0  0  0  0  0  0
   18.9002   -4.4773  -15.3052 C   0  0  0  0  0  0  0  0  0  0  0  0
   20.0174   -4.2795  -14.3731 C   0  0  0  0  0  0  0  0  0  0  0  0
   21.2834   -5.0084  -14.7469 C   0  0  2  0  0  0  0  0  0  0  0  0
   21.1576   -6.4298  -14.4498 N   0  0  0  0  0  0  0  0  0  0  0  0
   22.4307   -4.4262  -14.0465 C   0  0  0  0  0  0  0  0  0  0  0  0
   22.8134   -3.1237  -14.3670 O   0  0  0  0  0  0  0  0  0  0  0  0
   18.1017   -5.6079  -15.2109 C   0  0  0  0  0  0  0  0  0  0  0  0
   17.0708   -5.8062  -16.0817 C   0  0  0  0  0  0  0  0  0  0  0  0
   23.0921   -5.0254  -13.1754 O   0  0  0  0  0  0  0  0  0  0  0  0
  2  1  1  1
  2  3  1  0
  4  3  1  0
  4  8  1  0
  5  4  2  0
  6  5  1  0
  6  7  1  0
  7  8  2  0
  9 10  2  0
  9  2  1  0
 12 11  1  6
 12 14  1  0
 13 12  1  0
 14 15  1  6
 15  9  1  0
 16 25  1  0
 16 14  1  0
 17 16  2  0
 18 19  1  0
 19 29  2  0
 20 19  1  0
 20 21  2  0
 21 22  1  0
 22 28  2  0
 22 23  1  0
 24 23  1  1
 24 25  1  0
 24 26  1  0
 26 27  1  0
 29 28  1  0
 30 26  2  0
M  END
$$$$
