RDQ.pdb
     RDKit          3D

 29 28  0  0  1  0  0  0  0  0999 V2000
   28.1607  -22.0096  -16.0850 N   0  0  0  0  0  0  0  0  0  0  0  0
   27.0223  -22.5032  -16.7743 C   0  0  0  0  0  0  0  0  0  0  0  0
   27.0542  -23.7033  -17.2282 N   0  0  0  0  0  0  0  0  0  0  0  0
   25.8517  -21.7392  -16.9871 N   0  0  0  0  0  0  0  0  0  0  0  0
   25.5549  -20.5137  -16.2719 C   0  0  0  0  0  0  0  0  0  0  0  0
   25.4459  -20.8642  -14.8091 C   0  0  0  0  0  0  0  0  0  0  0  0
   24.0954  -20.5004  -14.2265 C   0  0  0  0  0  0  0  0  0  0  0  0
   23.4034  -21.8150  -13.8950 C   0  0  2  0  0  0  0  0  0  0  0  0
   22.9814  -22.4953  -15.0916 N   0  0  0  0  0  0  0  0  0  0  0  0
   22.1653  -21.5510  -13.0851 C   0  0  0  0  0  0  0  0  0  0  0  0
   22.2576  -20.9610  -11.9626 O   0  0  0  0  0  0  0  0  0  0  0  0
   26.2928  -24.1545  -17.7385 N   0  0  0  0  0  0  0  0  0  0  0  0
   20.8763  -21.9440  -13.5370 C   0  0  2  0  0  0  0  0  0  0  0  0
   19.7105  -21.7373  -12.7257 C   0  0  0  0  0  0  0  0  0  0  0  0
   18.6376  -20.9666  -13.4206 C   0  0  0  0  0  0  0  0  0  0  0  0
   18.5177  -19.5695  -13.0002 O   0  0  0  0  0  0  0  0  0  0  0  0
   18.9815  -19.2598  -11.8632 C   0  0  0  0  0  0  0  0  0  0  0  0
   19.2264  -23.0784  -12.2591 O   0  0  0  0  0  0  0  0  0  0  0  0
   19.2662  -24.0768  -13.0212 O   0  0  0  0  0  0  0  0  0  0  0  0
   17.9180  -18.6448  -13.8286 N   0  0  0  0  0  0  0  0  0  0  0  0
   18.0709  -24.5433   -6.2945 C   0  0  0  0  0  0  0  0  0  0  0  0
   17.8589  -25.8129   -6.9022 O   0  0  0  0  0  0  0  0  0  0  0  0
   17.6419  -26.7711   -6.1085 C   0  0  0  0  0  0  0  0  0  0  0  0
   17.9030  -25.9226   -8.3705 C   0  0  0  0  0  0  0  0  0  0  0  0
   18.2967  -24.6009   -8.9669 C   0  0  2  0  0  0  0  0  0  0  0  0
   18.3068  -24.5870  -10.4547 N   0  0  0  0  0  0  0  0  0  0  0  0
   18.7102  -23.2662  -10.9508 C   0  0  0  0  0  0  0  0  0  0  0  0
   16.9858  -24.9281  -11.0426 O   0  0  0  0  0  0  0  0  0  0  0  0
   16.0777  -24.0667  -11.1937 O   0  0  0  0  0  0  0  0  0  0  0  0
  2  3  2  0
  2  1  1  0
  4  2  1  0
  5  4  1  0
  6  5  1  0
  7  6  1  0
  8  7  1  0
  8  9  1  6
 10 12  1  0
 10  8  1  0
 11 10  2  0
 13 14  1  1
 13 12  1  0
 14 15  1  0
 15 16  2  0
 15 19  1  0
 17 13  1  0
 17 18  2  0
 20 21  1  0
 21 22  2  0
 23 21  1  0
 23 24  1  0
 25 24  1  1
 25 26  1  0
 25 27  1  0
 26 17  1  0
 27 28  2  0
 27 29  1  0
M  END
$$$$
