RDQ.pdb
     RDKit          3D

 29 28  0  0  1  0  0  0  0  0999 V2000
   28.5184  -22.6309  -16.3542 N   0  0  0  0  0  0  0  0  0  0  0  0
   28.0017  -23.8086  -16.9547 C   0  0  0  0  0  0  0  0  0  0  0  0
   28.8190  -24.6065  -17.5401 N   0  0  0  0  0  0  0  0  0  0  0  0
   26.6294  -24.1493  -16.9410 N   0  0  0  0  0  0  0  0  0  0  0  0
   25.6260  -23.3997  -16.2112 C   0  0  0  0  0  0  0  0  0  0  0  0
   26.1292  -23.2353  -14.7990 C   0  0  0  0  0  0  0  0  0  0  0  0
   25.1659  -22.4535  -13.9294 C   0  0  0  0  0  0  0  0  0  0  0  0
   24.0555  -21.9671  -14.8499 C   0  0  2  0  0  0  0  0  0  0  0  0
   24.5539  -21.0106  -15.8036 N   0  0  0  0  0  0  0  0  0  0  0  0
   22.9948  -21.2683  -14.0467 C   0  0  0  0  0  0  0  0  0  0  0  0
   23.2435  -20.1398  -13.5166 O   0  0  0  0  0  0  0  0  0  0  0  0
   28.5543  -25.4818  -17.9958 N   0  0  0  0  0  0  0  0  0  0  0  0
   21.7048  -21.8338  -13.8564 C   0  0  1  0  0  0  0  0  0  0  0  0
   20.6779  -21.1196  -13.1525 C   0  0  0  0  0  0  0  0  0  0  0  0
   20.2998  -19.8328  -13.8076 C   0  0  0  0  0  0  0  0  0  0  0  0
   19.2549  -19.0772  -13.1144 O   0  0  0  0  0  0  0  0  0  0  0  0
   18.9783  -19.4179  -11.9265 C   0  0  0  0  0  0  0  0  0  0  0  0
   19.5009  -22.0361  -12.9936 O   0  0  0  0  0  0  0  0  0  0  0  0
   18.9120  -22.5059  -13.9994 O   0  0  0  0  0  0  0  0  0  0  0  0
   18.6109  -18.0384  -13.7525 N   0  0  0  0  0  0  0  0  0  0  0  0
   18.8773  -25.1673   -7.7497 C   0  0  0  0  0  0  0  0  0  0  0  0
   17.6655  -24.4293   -7.8634 O   0  0  0  0  0  0  0  0  0  0  0  0
   16.9642  -24.3621   -6.8150 C   0  0  0  0  0  0  0  0  0  0  0  0
   17.3203  -23.8100   -9.1545 C   0  0  0  0  0  0  0  0  0  0  0  0
   18.3561  -24.1677  -10.1825 C   0  0  1  0  0  0  0  0  0  0  0  0
   18.1230  -23.5518  -11.5167 N   0  0  0  0  0  0  0  0  0  0  0  0
   19.0144  -22.4026  -11.7120 C   0  0  0  0  0  0  0  0  0  0  0  0
   16.7209  -23.0979  -11.7042 O   0  0  0  0  0  0  0  0  0  0  0  0
   16.3837  -21.8910  -11.5666 O   0  0  0  0  0  0  0  0  0  0  0  0
  2  3  2  0
  2  1  1  0
  4  2  1  0
  5  4  1  0
  6  5  1  0
  7  6  1  0
  8  7  1  0
  8  9  1  6
 10 12  1  0
 10  8  1  0
 11 10  2  0
 13 14  1  1
 13 12  1  0
 14 15  1  0
 15 16  2  0
 15 19  1  0
 17 13  1  0
 17 18  2  0
 20 21  1  0
 21 22  2  0
 23 21  1  0
 23 24  1  0
 25 24  1  6
 25 26  1  0
 25 27  1  0
 26 17  1  0
 27 28  2  0
 27 29  1  0
M  END
$$$$
