RDQ.pdb
     RDKit          3D

 29 28  0  0  1  0  0  0  0  0999 V2000
   18.3438  -25.8976   -5.8783 N   0  0  0  0  0  0  0  0  0  0  0  0
   17.0686  -25.2746   -5.9065 C   0  0  0  0  0  0  0  0  0  0  0  0
   16.1479  -25.7296   -5.1369 N   0  0  0  0  0  0  0  0  0  0  0  0
   16.7598  -24.1754   -6.7406 N   0  0  0  0  0  0  0  0  0  0  0  0
   16.3872  -24.3089   -8.1351 C   0  0  0  0  0  0  0  0  0  0  0  0
   17.2257  -23.3302   -8.9183 C   0  0  0  0  0  0  0  0  0  0  0  0
   16.9050  -23.3493  -10.3989 C   0  0  0  0  0  0  0  0  0  0  0  0
   18.1426  -23.8931  -11.0986 C   0  0  2  0  0  0  0  0  0  0  0  0
   19.2528  -23.9912  -10.1873 N   0  0  0  0  0  0  0  0  0  0  0  0
   18.5623  -22.9565  -12.1964 C   0  0  0  0  0  0  0  0  0  0  0  0
   17.7409  -22.6545  -13.1187 O   0  0  0  0  0  0  0  0  0  0  0  0
   15.1984  -25.3568   -5.0794 N   0  0  0  0  0  0  0  0  0  0  0  0
   19.8646  -22.3887  -12.2398 C   0  0  1  0  0  0  0  0  0  0  0  0
   20.2398  -21.4710  -13.2776 C   0  0  0  0  0  0  0  0  0  0  0  0
   20.8929  -20.2321  -12.7613 C   0  0  0  0  0  0  0  0  0  0  0  0
   19.9951  -19.3155  -12.0564 O   0  0  0  0  0  0  0  0  0  0  0  0
   20.5211  -18.3461  -11.4340 C   0  0  0  0  0  0  0  0  0  0  0  0
   21.1155  -22.2038  -14.2506 O   0  0  0  0  0  0  0  0  0  0  0  0
   21.3787  -23.4217  -14.0873 O   0  0  0  0  0  0  0  0  0  0  0  0
   18.6321  -19.5216  -12.0838 N   0  0  0  0  0  0  0  0  0  0  0  0
   22.0603  -27.0146  -17.9894 C   0  0  0  0  0  0  0  0  0  0  0  0
   21.5161  -25.7278  -17.7177 O   0  0  0  0  0  0  0  0  0  0  0  0
   20.3052  -25.5660  -18.0384 C   0  0  0  0  0  0  0  0  0  0  0  0
   22.3726  -24.7021  -17.0980 C   0  0  0  0  0  0  0  0  0  0  0  0
   21.5923  -23.4309  -16.9163 C   0  0  2  0  0  0  0  0  0  0  0  0
   22.4049  -22.2874  -16.4204 N   0  0  0  0  0  0  0  0  0  0  0  0
   21.6735  -21.5532  -15.3815 C   0  0  0  0  0  0  0  0  0  0  0  0
   22.7761  -21.3347  -17.4981 O   0  0  0  0  0  0  0  0  0  0  0  0
   22.0925  -20.3048  -17.7461 O   0  0  0  0  0  0  0  0  0  0  0  0
  2  3  2  0
  2  1  1  0
  4  2  1  0
  5  4  1  0
  6  5  1  0
  7  6  1  0
  8  7  1  0
  8  9  1  1
 10 12  1  0
 10  8  1  0
 11 10  2  0
 13 14  1  6
 13 12  1  0
 14 15  1  0
 15 16  2  0
 15 19  1  0
 17 13  1  0
 17 18  2  0
 20 21  1  0
 21 22  2  0
 23 21  1  0
 23 24  1  0
 25 24  1  1
 25 26  1  0
 25 27  1  0
 26 17  1  0
 27 28  2  0
 27 29  1  0
M  END
$$$$
