RDQ.pdb
     RDKit          3D

 29 28  0  0  1  0  0  0  0  0999 V2000
   22.1362  -19.8771   -9.8311 N   0  0  0  0  0  0  0  0  0  0  0  0
   23.4183  -20.4415  -10.0601 C   0  0  0  0  0  0  0  0  0  0  0  0
   24.1288  -20.7785   -9.0458 N   0  0  0  0  0  0  0  0  0  0  0  0
   23.9545  -20.6525  -11.3514 N   0  0  0  0  0  0  0  0  0  0  0  0
   25.2294  -21.2987  -11.5927 C   0  0  0  0  0  0  0  0  0  0  0  0
   25.9826  -20.4472  -12.5837 C   0  0  0  0  0  0  0  0  0  0  0  0
   27.2991  -21.0713  -12.9993 C   0  0  0  0  0  0  0  0  0  0  0  0
   27.9443  -20.0996  -13.9773 C   0  0  2  0  0  0  0  0  0  0  0  0
   27.7844  -18.7380  -13.5375 N   0  0  0  0  0  0  0  0  0  0  0  0
   27.2752  -20.2048  -15.3189 C   0  0  0  0  0  0  0  0  0  0  0  0
   26.5164  -19.2679  -15.7225 O   0  0  0  0  0  0  0  0  0  0  0  0
   25.0676  -21.1782   -9.0979 N   0  0  0  0  0  0  0  0  0  0  0  0
   27.4641  -21.3318  -16.1640 C   0  0  1  0  0  0  0  0  0  0  0  0
   26.8436  -21.4026  -17.4563 C   0  0  0  0  0  0  0  0  0  0  0  0
   27.6418  -22.1769  -18.4520 C   0  0  0  0  0  0  0  0  0  0  0  0
   28.9181  -21.5634  -18.8232 O   0  0  0  0  0  0  0  0  0  0  0  0
   28.9034  -20.3426  -19.1594 C   0  0  0  0  0  0  0  0  0  0  0  0
   25.4656  -21.9686  -17.2789 O   0  0  0  0  0  0  0  0  0  0  0  0
   25.2774  -22.9939  -16.5772 O   0  0  0  0  0  0  0  0  0  0  0  0
   30.0783  -22.3080  -18.8000 N   0  0  0  0  0  0  0  0  0  0  0  0
   22.8352  -20.4269  -13.3544 C   0  0  0  0  0  0  0  0  0  0  0  0
   21.6374  -20.9991  -13.8681 O   0  0  0  0  0  0  0  0  0  0  0  0
   20.6789  -21.0899  -13.0506 C   0  0  0  0  0  0  0  0  0  0  0  0
   21.5945  -21.4323  -15.2753 C   0  0  0  0  0  0  0  0  0  0  0  0
   22.9279  -21.1873  -15.9231 C   0  0  2  0  0  0  0  0  0  0  0  0
   22.9765  -21.5511  -17.3650 N   0  0  0  0  0  0  0  0  0  0  0  0
   24.3341  -21.3709  -17.8921 C   0  0  0  0  0  0  0  0  0  0  0  0
   22.0392  -20.7493  -18.1930 O   0  0  0  0  0  0  0  0  0  0  0  0
   20.7881  -20.8457  -18.0714 O   0  0  0  0  0  0  0  0  0  0  0  0
  2  3  2  0
  2  1  1  0
  4  2  1  0
  5  4  1  0
  6  5  1  0
  7  6  1  0
  8  7  1  0
  8  9  1  1
 10 12  1  0
 10  8  1  0
 11 10  2  0
 13 14  1  6
 13 12  1  0
 14 15  1  0
 15 16  2  0
 15 19  1  0
 17 13  1  0
 17 18  2  0
 20 21  1  0
 21 22  2  0
 23 21  1  0
 23 24  1  0
 25 24  1  1
 25 26  1  0
 25 27  1  0
 26 17  1  0
 27 28  2  0
 27 29  1  0
M  END
$$$$
