RDQ.pdb
     RDKit          3D

 29 28  0  0  1  0  0  0  0  0999 V2000
   29.4187  -21.6613  -10.5682 N   0  0  0  0  0  0  0  0  0  0  0  0
   28.7711  -20.6673  -11.3475 C   0  0  0  0  0  0  0  0  0  0  0  0
   29.4777  -19.9719  -12.1626 N   0  0  0  0  0  0  0  0  0  0  0  0
   27.3841  -20.4030  -11.2721 N   0  0  0  0  0  0  0  0  0  0  0  0
   26.4515  -21.2276  -10.5293 C   0  0  0  0  0  0  0  0  0  0  0  0
   25.8878  -22.2434  -11.4910 C   0  0  0  0  0  0  0  0  0  0  0  0
   24.6980  -21.7107  -12.2630 C   0  0  0  0  0  0  0  0  0  0  0  0
   25.0771  -21.7788  -13.7355 C   0  0  2  0  0  0  0  0  0  0  0  0
   26.5011  -21.9145  -13.8990 N   0  0  0  0  0  0  0  0  0  0  0  0
   24.6796  -20.5041  -14.4253 C   0  0  0  0  0  0  0  0  0  0  0  0
   25.4055  -19.4672  -14.3055 O   0  0  0  0  0  0  0  0  0  0  0  0
   29.1149  -19.2267  -12.7600 N   0  0  0  0  0  0  0  0  0  0  0  0
   23.5032  -20.4166  -15.2182 C   0  0  1  0  0  0  0  0  0  0  0  0
   23.1653  -19.2074  -15.9136 C   0  0  0  0  0  0  0  0  0  0  0  0
   24.2348  -18.7452  -16.8466 C   0  0  0  0  0  0  0  0  0  0  0  0
   23.9197  -17.5170  -17.5783 O   0  0  0  0  0  0  0  0  0  0  0  0
   22.9038  -16.8593  -17.2054 C   0  0  0  0  0  0  0  0  0  0  0  0
   21.8604  -19.4278  -16.6201 O   0  0  0  0  0  0  0  0  0  0  0  0
   21.8226  -20.0082  -17.7340 O   0  0  0  0  0  0  0  0  0  0  0  0
   24.7142  -17.1131  -18.6302 N   0  0  0  0  0  0  0  0  0  0  0  0
   18.1049  -21.0859  -12.9959 C   0  0  0  0  0  0  0  0  0  0  0  0
   17.0799  -21.1360  -13.9823 O   0  0  0  0  0  0  0  0  0  0  0  0
   16.1431  -21.9531  -13.7584 C   0  0  0  0  0  0  0  0  0  0  0  0
   17.1743  -20.2581  -15.1613 C   0  0  0  0  0  0  0  0  0  0  0  0
   18.4518  -19.4691  -15.1060 C   0  0  2  0  0  0  0  0  0  0  0  0
   19.3864  -19.7505  -16.2290 N   0  0  0  0  0  0  0  0  0  0  0  0
   20.6314  -18.9923  -16.0602 C   0  0  0  0  0  0  0  0  0  0  0  0
   18.8082  -19.4178  -17.5564 O   0  0  0  0  0  0  0  0  0  0  0  0
   17.8008  -20.0192  -18.0177 O   0  0  0  0  0  0  0  0  0  0  0  0
  2  3  2  0
  2  1  1  0
  4  2  1  0
  5  4  1  0
  6  5  1  0
  7  6  1  0
  8  7  1  0
  8  9  1  1
 10 12  1  0
 10  8  1  0
 11 10  2  0
 13 14  1  1
 13 12  1  0
 14 15  1  0
 15 16  2  0
 15 19  1  0
 17 13  1  0
 17 18  2  0
 20 21  1  0
 21 22  2  0
 23 21  1  0
 23 24  1  0
 25 24  1  1
 25 26  1  0
 25 27  1  0
 26 17  1  0
 27 28  2  0
 27 29  1  0
M  END
$$$$
