RDQ.pdb
     RDKit          3D

 29 28  0  0  1  0  0  0  0  0999 V2000
   16.8003  -18.5441  -14.9098 N   0  0  0  0  0  0  0  0  0  0  0  0
   16.5149  -18.2417  -16.2669 C   0  0  0  0  0  0  0  0  0  0  0  0
   16.6031  -19.1826  -17.1353 N   0  0  0  0  0  0  0  0  0  0  0  0
   16.1371  -16.9541  -16.7127 N   0  0  0  0  0  0  0  0  0  0  0  0
   16.2156  -15.7660  -15.8857 C   0  0  0  0  0  0  0  0  0  0  0  0
   17.5402  -15.1057  -16.1753 C   0  0  0  0  0  0  0  0  0  0  0  0
   17.7569  -13.8564  -15.3458 C   0  0  0  0  0  0  0  0  0  0  0  0
   17.7427  -12.6872  -16.3203 C   0  0  2  0  0  0  0  0  0  0  0  0
   18.7360  -12.8567  -17.3486 N   0  0  0  0  0  0  0  0  0  0  0  0
   18.0791  -11.4140  -15.5961 C   0  0  0  0  0  0  0  0  0  0  0  0
   17.3550  -11.0285  -14.6249 O   0  0  0  0  0  0  0  0  0  0  0  0
   16.4520  -19.0662  -18.1391 N   0  0  0  0  0  0  0  0  0  0  0  0
   19.1949  -10.6145  -15.9651 C   0  0  1  0  0  0  0  0  0  0  0  0
   19.4838   -9.3843  -15.2846 C   0  0  0  0  0  0  0  0  0  0  0  0
   20.9330   -9.0275  -15.3013 C   0  0  0  0  0  0  0  0  0  0  0  0
   21.2841   -7.8561  -14.4966 O   0  0  0  0  0  0  0  0  0  0  0  0
   20.3477   -7.2725  -13.8750 C   0  0  0  0  0  0  0  0  0  0  0  0
   18.6333   -8.3077  -15.8913 O   0  0  0  0  0  0  0  0  0  0  0  0
   18.6451   -8.1014  -17.1308 O   0  0  0  0  0  0  0  0  0  0  0  0
   22.5919   -7.4239  -14.4343 N   0  0  0  0  0  0  0  0  0  0  0  0
   13.1541   -6.4912  -13.9996 C   0  0  0  0  0  0  0  0  0  0  0  0
   13.4267   -5.3818  -14.8488 O   0  0  0  0  0  0  0  0  0  0  0  0
   12.4998   -4.5301  -14.9525 C   0  0  0  0  0  0  0  0  0  0  0  0
   14.7314   -5.3009  -15.5278 C   0  0  0  0  0  0  0  0  0  0  0  0
   15.5986   -6.4511  -15.1005 C   0  0  1  0  0  0  0  0  0  0  0  0
   16.9724   -6.4182  -15.6710 N   0  0  0  0  0  0  0  0  0  0  0  0
   17.7914   -7.4901  -15.0936 C   0  0  0  0  0  0  0  0  0  0  0  0
   17.6610   -5.1223  -15.4396 O   0  0  0  0  0  0  0  0  0  0  0  0
   18.5942   -5.0003  -14.6009 O   0  0  0  0  0  0  0  0  0  0  0  0
  2  3  2  0
  2  1  1  0
  4  2  1  0
  5  4  1  0
  6  5  1  0
  7  6  1  0
  8  7  1  0
  8  9  1  6
 10 12  1  0
 10  8  1  0
 11 10  2  0
 13 14  1  1
 13 12  1  0
 14 15  1  0
 15 16  2  0
 15 19  1  0
 17 13  1  0
 17 18  2  0
 20 21  1  0
 21 22  2  0
 23 21  1  0
 23 24  1  0
 25 24  1  6
 25 26  1  0
 25 27  1  0
 26 17  1  0
 27 28  2  0
 27 29  1  0
M  END
$$$$
