MNP.pdb
     RDKit          3D

 24 24  0  0  1  0  0  0  0  0999 V2000
    6.3429  -11.5979   26.9329 C   0  0  0  0  0  0  0  0  0  0  0  0
    7.2780  -12.7994   27.9488 S   0  0  0  0  0  0  0  0  0  0  0  0
    7.5125  -14.2947   26.9486 C   0  0  0  0  0  0  0  0  0  0  0  0
    6.2339  -14.7282   26.2878 C   0  0  0  0  0  0  0  0  0  0  0  0
    6.4396  -15.9440   25.3937 C   0  0  2  0  0  0  0  0  0  0  0  0
    7.1790  -16.9611   26.0970 N   0  0  0  0  0  0  0  0  0  0  0  0
    7.2365  -15.4660   24.2229 C   0  0  0  0  0  0  0  0  0  0  0  0
    6.7520  -14.5107   23.5650 O   0  0  0  0  0  0  0  0  0  0  0  0
   11.6324  -14.5523   23.8427 N   0  0  0  0  0  0  0  0  0  0  0  0
   11.4461  -15.9266   23.5812 C   0  0  0  0  0  0  0  0  0  0  0  0
   12.1431  -16.7680   24.1958 O   0  0  0  0  0  0  0  0  0  0  0  0
   10.4429  -16.4020   22.5940 C   0  0  0  0  0  0  0  0  0  0  0  0
    9.1670  -15.5945   22.7134 C   0  0  2  0  0  0  0  0  0  0  0  0
    8.4708  -16.0634   23.8802 N   0  0  0  0  0  0  0  0  0  0  0  0
    8.2950  -15.6477   21.5382 C   0  0  0  0  0  0  0  0  0  0  0  0
    7.4023  -16.5359   21.4936 O   0  0  0  0  0  0  0  0  0  0  0  0
    8.3928  -14.7492   20.4316 N   0  0  0  0  0  0  0  0  0  0  0  0
    9.2358  -13.5890   20.2371 C   0  0  0  0  0  0  0  0  0  0  0  0
    8.4986  -12.6772   19.2791 C   0  0  0  0  0  0  0  0  0  0  0  0
    7.1595  -13.3633   19.1280 C   0  0  0  0  0  0  0  0  0  0  0  0
    7.6124  -14.8198   19.1995 C   0  0  1  0  0  0  0  0  0  0  0  0
    8.4307  -15.2133   18.0453 C   0  0  0  0  0  0  0  0  0  0  0  0
    7.7880  -15.5140   16.8617 O   0  0  0  0  0  0  0  0  0  0  0  0
    9.6846  -15.2974   18.0546 O   0  0  0  0  0  0  0  0  0  0  0  0
  1  2  1  0
  2  3  1  0
  4  3  1  0
  5  4  1  0
  5  6  1  1
  7  8  2  0
  7  5  1  0
  9 10  1  0
 10 12  1  0
 11 10  2  0
 13 12  1  6
 13 14  1  0
 14  7  1  0
 15 17  1  0
 15 13  1  0
 16 15  2  0
 17 18  1  0
 18 19  1  0
 20 19  1  0
 21 17  1  0
 21 20  1  0
 21 22  1  6
 22 23  1  0
 24 22  2  0
M  END
$$$$
