MNP.pdb
     RDKit          3D

 24 24  0  0  1  0  0  0  0  0999 V2000
    5.4334  -11.7439   26.7538 C   0  0  0  0  0  0  0  0  0  0  0  0
    7.1967  -12.1813   26.9767 S   0  0  0  0  0  0  0  0  0  0  0  0
    7.3026  -13.9897   27.0751 C   0  0  0  0  0  0  0  0  0  0  0  0
    6.5666  -14.6525   25.9443 C   0  0  0  0  0  0  0  0  0  0  0  0
    7.3902  -15.7612   25.3022 C   0  0  2  0  0  0  0  0  0  0  0  0
    8.7851  -15.5960   25.6226 N   0  0  0  0  0  0  0  0  0  0  0  0
    7.1958  -15.6191   23.8270 C   0  0  0  0  0  0  0  0  0  0  0  0
    6.0218  -15.7552   23.3986 O   0  0  0  0  0  0  0  0  0  0  0  0
    6.9941  -13.0055   19.1638 N   0  0  0  0  0  0  0  0  0  0  0  0
    8.1630  -13.5568   19.7308 C   0  0  0  0  0  0  0  0  0  0  0  0
    9.1112  -13.8882   18.9807 O   0  0  0  0  0  0  0  0  0  0  0  0
    8.2982  -13.7546   21.1970 C   0  0  0  0  0  0  0  0  0  0  0  0
    8.0300  -15.2011   21.5574 C   0  0  2  0  0  0  0  0  0  0  0  0
    8.2821  -15.3458   22.9650 N   0  0  0  0  0  0  0  0  0  0  0  0
    8.8074  -16.1784   20.7925 C   0  0  0  0  0  0  0  0  0  0  0  0
    9.9583  -16.4839   21.2047 O   0  0  0  0  0  0  0  0  0  0  0  0
    8.3398  -16.8120   19.6004 N   0  0  0  0  0  0  0  0  0  0  0  0
    7.1932  -16.5156   18.7684 C   0  0  0  0  0  0  0  0  0  0  0  0
    6.8016  -17.8148   18.0967 C   0  0  0  0  0  0  0  0  0  0  0  0
    7.7110  -18.8230   18.7626 C   0  0  0  0  0  0  0  0  0  0  0  0
    8.9575  -17.9594   18.9415 C   0  0  1  0  0  0  0  0  0  0  0  0
    9.5803  -17.5962   17.6621 C   0  0  0  0  0  0  0  0  0  0  0  0
    9.3101  -16.3496   17.1352 O   0  0  0  0  0  0  0  0  0  0  0  0
   10.3485  -18.3425   17.0046 O   0  0  0  0  0  0  0  0  0  0  0  0
  1  2  1  0
  2  3  1  0
  4  3  1  0
  5  4  1  0
  5  6  1  6
  7  8  2  0
  7  5  1  0
  9 10  1  0
 10 12  1  0
 11 10  2  0
 13 12  1  6
 13 14  1  0
 14  7  1  0
 15 17  1  0
 15 13  1  0
 16 15  2  0
 17 18  1  0
 18 19  1  0
 20 19  1  0
 21 17  1  0
 21 20  1  0
 21 22  1  6
 22 23  1  0
 24 22  2  0
M  END
$$$$
