MNP.pdb
     RDKit          3D

 24 24  0  0  1  0  0  0  0  0999 V2000
    7.5121  -11.4852   26.6128 C   0  0  0  0  0  0  0  0  0  0  0  0
    6.0437  -12.4906   27.0406 S   0  0  0  0  0  0  0  0  0  0  0  0
    6.5986  -14.2045   27.2544 C   0  0  0  0  0  0  0  0  0  0  0  0
    7.2451  -14.7397   26.0074 C   0  0  0  0  0  0  0  0  0  0  0  0
    6.2827  -15.5891   25.1876 C   0  0  2  0  0  0  0  0  0  0  0  0
    6.1538  -16.9004   25.7706 N   0  0  0  0  0  0  0  0  0  0  0  0
    6.8897  -15.7046   23.8265 C   0  0  0  0  0  0  0  0  0  0  0  0
    7.2926  -16.8455   23.4853 O   0  0  0  0  0  0  0  0  0  0  0  0
    7.3522  -13.6550   18.4620 N   0  0  0  0  0  0  0  0  0  0  0  0
    8.1477  -13.5216   19.6200 C   0  0  0  0  0  0  0  0  0  0  0  0
    9.3958  -13.4911   19.5067 O   0  0  0  0  0  0  0  0  0  0  0  0
    7.5420  -13.4163   20.9725 C   0  0  0  0  0  0  0  0  0  0  0  0
    7.6037  -14.7543   21.6797 C   0  0  2  0  0  0  0  0  0  0  0  0
    7.0011  -14.5833   22.9733 N   0  0  0  0  0  0  0  0  0  0  0  0
    8.9489  -15.3183   21.8095 C   0  0  0  0  0  0  0  0  0  0  0  0
    9.6600  -14.9548   22.7842 O   0  0  0  0  0  0  0  0  0  0  0  0
    9.5095  -16.2617   20.8946 N   0  0  0  0  0  0  0  0  0  0  0  0
    9.0143  -16.7432   19.6228 C   0  0  0  0  0  0  0  0  0  0  0  0
    9.5944  -18.1286   19.4317 C   0  0  0  0  0  0  0  0  0  0  0  0
   10.2783  -18.3902   20.7548 C   0  0  0  0  0  0  0  0  0  0  0  0
   10.7694  -16.9789   21.0688 C   0  0  1  0  0  0  0  0  0  0  0  0
   11.8037  -16.5203   20.1324 C   0  0  0  0  0  0  0  0  0  0  0  0
   13.1075  -16.9135   20.3563 O   0  0  0  0  0  0  0  0  0  0  0  0
   11.5886  -15.7897   19.1327 O   0  0  0  0  0  0  0  0  0  0  0  0
  1  2  1  0
  2  3  1  0
  4  3  1  0
  5  4  1  0
  5  6  1  1
  7  8  2  0
  7  5  1  0
  9 10  1  0
 10 12  1  0
 11 10  2  0
 13 12  1  1
 13 14  1  0
 14  7  1  0
 15 17  1  0
 15 13  1  0
 16 15  2  0
 17 18  1  0
 18 19  1  0
 20 19  1  0
 21 17  1  0
 21 20  1  0
 21 22  1  6
 22 23  1  0
 24 22  2  0
M  END
$$$$
