MNP.pdb
     RDKit          3D

 24 24  0  0  1  0  0  0  0  0999 V2000
    8.8315  -11.7170   20.0753 C   0  0  0  0  0  0  0  0  0  0  0  0
    7.9878  -12.6082   18.7173 S   0  0  0  0  0  0  0  0  0  0  0  0
    7.6161  -14.2819   19.3104 C   0  0  0  0  0  0  0  0  0  0  0  0
    8.8283  -14.9441   19.9032 C   0  0  0  0  0  0  0  0  0  0  0  0
    8.5146  -16.3390   20.4282 C   0  0  2  0  0  0  0  0  0  0  0  0
    7.7371  -17.0726   19.4622 N   0  0  0  0  0  0  0  0  0  0  0  0
    7.7094  -16.1413   21.6719 C   0  0  0  0  0  0  0  0  0  0  0  0
    6.5325  -15.7264   21.5199 O   0  0  0  0  0  0  0  0  0  0  0  0
    6.7015  -19.1342   23.1858 N   0  0  0  0  0  0  0  0  0  0  0  0
    6.2122  -18.1070   24.0207 C   0  0  0  0  0  0  0  0  0  0  0  0
    4.9791  -17.8849   24.0617 O   0  0  0  0  0  0  0  0  0  0  0  0
    7.1234  -17.2808   24.8539 C   0  0  0  0  0  0  0  0  0  0  0  0
    7.5069  -16.0159   24.1142 C   0  0  2  0  0  0  0  0  0  0  0  0
    8.2513  -16.4096   22.9494 N   0  0  0  0  0  0  0  0  0  0  0  0
    8.2671  -15.0478   24.9075 C   0  0  0  0  0  0  0  0  0  0  0  0
    9.4835  -14.8693   24.6309 O   0  0  0  0  0  0  0  0  0  0  0  0
    7.7126  -14.2872   25.9823 N   0  0  0  0  0  0  0  0  0  0  0  0
    6.3376  -14.1205   26.4018 C   0  0  0  0  0  0  0  0  0  0  0  0
    6.2573  -12.7735   27.0885 C   0  0  0  0  0  0  0  0  0  0  0  0
    7.6325  -12.1926   26.8470 C   0  0  0  0  0  0  0  0  0  0  0  0
    8.4646  -13.4702   26.9306 C   0  0  1  0  0  0  0  0  0  0  0  0
    8.4728  -14.0507   28.2795 C   0  0  0  0  0  0  0  0  0  0  0  0
    7.7248  -15.1883   28.5050 O   0  0  0  0  0  0  0  0  0  0  0  0
    9.1161  -13.5849   29.2535 O   0  0  0  0  0  0  0  0  0  0  0  0
  1  2  1  0
  2  3  1  0
  4  3  1  0
  5  4  1  0
  5  6  1  6
  7  8  2  0
  7  5  1  0
  9 10  1  0
 10 12  1  0
 11 10  2  0
 13 12  1  1
 13 14  1  0
 14  7  1  0
 15 17  1  0
 15 13  1  0
 16 15  2  0
 17 18  1  0
 18 19  1  0
 20 19  1  0
 21 17  1  0
 21 20  1  0
 21 22  1  1
 22 23  1  0
 24 22  2  0
M  END
$$$$
