MNP.pdb
     RDKit          3D

 24 24  0  0  1  0  0  0  0  0999 V2000
    6.8680  -11.2201   26.7844 C   0  0  0  0  0  0  0  0  0  0  0  0
    6.6614  -12.5963   27.9733 S   0  0  0  0  0  0  0  0  0  0  0  0
    7.2028  -14.1180   27.1469 C   0  0  0  0  0  0  0  0  0  0  0  0
    6.1865  -14.6018   26.1507 C   0  0  0  0  0  0  0  0  0  0  0  0
    6.6708  -15.8334   25.3967 C   0  0  2  0  0  0  0  0  0  0  0  0
    7.3225  -16.7471   26.3002 N   0  0  0  0  0  0  0  0  0  0  0  0
    7.6569  -15.3394   24.3878 C   0  0  0  0  0  0  0  0  0  0  0  0
    7.9760  -14.1256   24.4607 O   0  0  0  0  0  0  0  0  0  0  0  0
   11.1742  -14.7832   23.9469 N   0  0  0  0  0  0  0  0  0  0  0  0
   11.2672  -16.0490   23.3298 C   0  0  0  0  0  0  0  0  0  0  0  0
   12.1995  -16.8221   23.6533 O   0  0  0  0  0  0  0  0  0  0  0  0
   10.2863  -16.4890   22.3045 C   0  0  0  0  0  0  0  0  0  0  0  0
    9.0340  -15.6402   22.3792 C   0  0  2  0  0  0  0  0  0  0  0  0
    8.1978  -16.1998   23.4056 N   0  0  0  0  0  0  0  0  0  0  0  0
    8.2953  -15.5244   21.1201 C   0  0  0  0  0  0  0  0  0  0  0  0
    7.3495  -16.3284   20.9037 O   0  0  0  0  0  0  0  0  0  0  0  0
    8.5809  -14.5500   20.1150 N   0  0  0  0  0  0  0  0  0  0  0  0
    9.5494  -13.4747   20.0993 C   0  0  0  0  0  0  0  0  0  0  0  0
    8.9956  -12.4102   19.1759 C   0  0  0  0  0  0  0  0  0  0  0  0
    7.6136  -12.9329   18.8538 C   0  0  0  0  0  0  0  0  0  0  0  0
    7.9108  -14.4304   18.8232 C   0  0  1  0  0  0  0  0  0  0  0  0
    8.7859  -14.8090   17.7063 C   0  0  0  0  0  0  0  0  0  0  0  0
    8.2237  -14.9427   16.4530 O   0  0  0  0  0  0  0  0  0  0  0  0
   10.0203  -15.0224   17.8069 O   0  0  0  0  0  0  0  0  0  0  0  0
  1  2  1  0
  2  3  1  0
  4  3  1  0
  5  4  1  0
  5  6  1  1
  7  8  2  0
  7  5  1  0
  9 10  1  0
 10 12  1  0
 11 10  2  0
 13 12  1  6
 13 14  1  0
 14  7  1  0
 15 17  1  0
 15 13  1  0
 16 15  2  0
 17 18  1  0
 18 19  1  0
 20 19  1  0
 21 17  1  0
 21 20  1  0
 21 22  1  6
 22 23  1  0
 24 22  2  0
M  END
$$$$
