MNP.pdb
     RDKit          3D

 24 24  0  0  1  0  0  0  0  0999 V2000
    6.0331  -22.5321   28.3137 C   0  0  0  0  0  0  0  0  0  0  0  0
    5.9145  -23.3584   26.6848 S   0  0  0  0  0  0  0  0  0  0  0  0
    6.1795  -22.0945   25.4106 C   0  0  0  0  0  0  0  0  0  0  0  0
    6.1100  -20.7058   25.9815 C   0  0  0  0  0  0  0  0  0  0  0  0
    6.3534  -19.6415   24.9195 C   0  0  2  0  0  0  0  0  0  0  0  0
    7.5453  -19.9478   24.1702 N   0  0  0  0  0  0  0  0  0  0  0  0
    6.5438  -18.3561   25.6584 C   0  0  0  0  0  0  0  0  0  0  0  0
    5.5057  -17.8032   26.1020 O   0  0  0  0  0  0  0  0  0  0  0  0
    8.9200  -18.1741   28.2487 N   0  0  0  0  0  0  0  0  0  0  0  0
    9.8118  -17.2085   27.7348 C   0  0  0  0  0  0  0  0  0  0  0  0
   10.9941  -17.1825   28.1506 O   0  0  0  0  0  0  0  0  0  0  0  0
    9.3837  -16.2204   26.7113 C   0  0  0  0  0  0  0  0  0  0  0  0
    7.9350  -16.4510   26.3342 C   0  0  2  0  0  0  0  0  0  0  0  0
    7.8290  -17.7980   25.8441 N   0  0  0  0  0  0  0  0  0  0  0  0
    7.3975  -15.5037   25.3553 C   0  0  0  0  0  0  0  0  0  0  0  0
    6.9478  -15.9553   24.2683 O   0  0  0  0  0  0  0  0  0  0  0  0
    7.3501  -14.0901   25.5568 N   0  0  0  0  0  0  0  0  0  0  0  0
    7.7722  -13.2888   26.6856 C   0  0  0  0  0  0  0  0  0  0  0  0
    6.9218  -12.0362   26.6662 C   0  0  0  0  0  0  0  0  0  0  0  0
    5.9300  -12.3224   25.5612 C   0  0  0  0  0  0  0  0  0  0  0  0
    6.8309  -13.1070   24.6101 C   0  0  1  0  0  0  0  0  0  0  0  0
    7.8955  -12.2785   24.0297 C   0  0  0  0  0  0  0  0  0  0  0  0
    7.5846  -11.4798   22.9480 O   0  0  0  0  0  0  0  0  0  0  0  0
    9.0800  -12.2418   24.4480 O   0  0  0  0  0  0  0  0  0  0  0  0
  1  2  1  0
  2  3  1  0
  4  3  1  0
  5  4  1  0
  5  6  1  1
  7  8  2  0
  7  5  1  0
  9 10  1  0
 10 12  1  0
 11 10  2  0
 13 12  1  6
 13 14  1  0
 14  7  1  0
 15 17  1  0
 15 13  1  0
 16 15  2  0
 17 18  1  0
 18 19  1  0
 20 19  1  0
 21 17  1  0
 21 20  1  0
 21 22  1  1
 22 23  1  0
 24 22  2  0
M  END
$$$$
