MNP.pdb
     RDKit          3D

 24 24  0  0  1  0  0  0  0  0999 V2000
    8.5352  -11.9446   20.2109 C   0  0  0  0  0  0  0  0  0  0  0  0
    8.2596  -13.0168   18.7533 S   0  0  0  0  0  0  0  0  0  0  0  0
    7.3924  -14.5041   19.3254 C   0  0  0  0  0  0  0  0  0  0  0  0
    8.3504  -15.5497   19.8237 C   0  0  0  0  0  0  0  0  0  0  0  0
    7.6256  -16.7262   20.4642 C   0  0  2  0  0  0  0  0  0  0  0  0
    6.5581  -17.1796   19.6094 N   0  0  0  0  0  0  0  0  0  0  0  0
    7.0552  -16.2118   21.7465 C   0  0  0  0  0  0  0  0  0  0  0  0
    5.9219  -15.6717   21.6814 O   0  0  0  0  0  0  0  0  0  0  0  0
    7.2765  -18.4003   26.6328 N   0  0  0  0  0  0  0  0  0  0  0  0
    7.2613  -18.0075   25.2773 C   0  0  0  0  0  0  0  0  0  0  0  0
    8.0289  -18.5756   24.4653 O   0  0  0  0  0  0  0  0  0  0  0  0
    6.3566  -16.9355   24.7878 C   0  0  0  0  0  0  0  0  0  0  0  0
    7.1622  -15.8138   24.1655 C   0  0  2  0  0  0  0  0  0  0  0  0
    7.7607  -16.3309   22.9654 N   0  0  0  0  0  0  0  0  0  0  0  0
    8.1829  -15.2330   25.0403 C   0  0  0  0  0  0  0  0  0  0  0  0
    9.3940  -15.3659   24.7190 O   0  0  0  0  0  0  0  0  0  0  0  0
    7.8899  -14.5197   26.2430 N   0  0  0  0  0  0  0  0  0  0  0  0
    6.6472  -14.3796   26.9716 C   0  0  0  0  0  0  0  0  0  0  0  0
    6.7287  -13.0616   27.7122 C   0  0  0  0  0  0  0  0  0  0  0  0
    8.0137  -12.4618   27.1870 C   0  0  0  0  0  0  0  0  0  0  0  0
    8.8402  -13.7357   27.0269 C   0  0  1  0  0  0  0  0  0  0  0  0
    9.1548  -14.3692   28.3139 C   0  0  0  0  0  0  0  0  0  0  0  0
    8.5360  -15.5637   28.6219 O   0  0  0  0  0  0  0  0  0  0  0  0
    9.9530  -13.9009   29.1642 O   0  0  0  0  0  0  0  0  0  0  0  0
  1  2  1  0
  2  3  1  0
  4  3  1  0
  5  4  1  0
  5  6  1  6
  7  8  2  0
  7  5  1  0
  9 10  1  0
 10 12  1  0
 11 10  2  0
 13 12  1  1
 13 14  1  0
 14  7  1  0
 15 17  1  0
 15 13  1  0
 16 15  2  0
 17 18  1  0
 18 19  1  0
 20 19  1  0
 21 17  1  0
 21 20  1  0
 21 22  1  1
 22 23  1  0
 24 22  2  0
M  END
$$$$
