MNP.pdb
     RDKit          3D

 24 24  0  0  1  0  0  0  0  0999 V2000
    7.3604  -11.5970   19.3889 C   0  0  0  0  0  0  0  0  0  0  0  0
    8.5670  -12.5529   18.3986 S   0  0  0  0  0  0  0  0  0  0  0  0
    8.3021  -14.3103   18.7628 C   0  0  0  0  0  0  0  0  0  0  0  0
    7.8295  -14.5210   20.1740 C   0  0  0  0  0  0  0  0  0  0  0  0
    7.5356  -15.9874   20.4624 C   0  0  2  0  0  0  0  0  0  0  0  0
    6.4567  -16.4533   19.6288 N   0  0  0  0  0  0  0  0  0  0  0  0
    7.1223  -16.0518   21.8974 C   0  0  0  0  0  0  0  0  0  0  0  0
    5.9193  -15.7874   22.1487 O   0  0  0  0  0  0  0  0  0  0  0  0
    7.9827  -18.5344   27.0002 N   0  0  0  0  0  0  0  0  0  0  0  0
    7.0856  -17.8201   26.1776 C   0  0  0  0  0  0  0  0  0  0  0  0
    6.1122  -17.2281   26.7006 O   0  0  0  0  0  0  0  0  0  0  0  0
    7.2662  -17.7520   24.7045 C   0  0  0  0  0  0  0  0  0  0  0  0
    7.6146  -16.3391   24.2842 C   0  0  2  0  0  0  0  0  0  0  0  0
    8.0435  -16.3934   22.9135 N   0  0  0  0  0  0  0  0  0  0  0  0
    8.6274  -15.6840   25.1146 C   0  0  0  0  0  0  0  0  0  0  0  0
    9.8425  -15.9039   24.8634 O   0  0  0  0  0  0  0  0  0  0  0  0
    8.3225  -14.8047   26.1985 N   0  0  0  0  0  0  0  0  0  0  0  0
    7.0509  -14.4597   26.7974 C   0  0  0  0  0  0  0  0  0  0  0  0
    7.2145  -13.0747   27.3870 C   0  0  0  0  0  0  0  0  0  0  0  0
    8.5901  -12.6679   26.9085 C   0  0  0  0  0  0  0  0  0  0  0  0
    9.2890  -14.0243   26.9661 C   0  0  1  0  0  0  0  0  0  0  0  0
    9.4403  -14.5229   28.3392 C   0  0  0  0  0  0  0  0  0  0  0  0
    8.7105  -15.6324   28.7148 O   0  0  0  0  0  0  0  0  0  0  0  0
   10.1918  -14.0102   29.2063 O   0  0  0  0  0  0  0  0  0  0  0  0
  1  2  1  0
  2  3  1  0
  4  3  1  0
  5  4  1  0
  5  6  1  6
  7  8  2  0
  7  5  1  0
  9 10  1  0
 10 12  1  0
 11 10  2  0
 13 12  1  1
 13 14  1  0
 14  7  1  0
 15 17  1  0
 15 13  1  0
 16 15  2  0
 17 18  1  0
 18 19  1  0
 20 19  1  0
 21 17  1  0
 21 20  1  0
 21 22  1  1
 22 23  1  0
 24 22  2  0
M  END
$$$$
