MNP.pdb
     RDKit          3D

 24 24  0  0  1  0  0  0  0  0999 V2000
    7.6735  -12.0081   20.0527 C   0  0  0  0  0  0  0  0  0  0  0  0
    8.1350  -13.0831   18.6450 S   0  0  0  0  0  0  0  0  0  0  0  0
    7.7319  -14.7906   19.1067 C   0  0  0  0  0  0  0  0  0  0  0  0
    7.9968  -15.0504   20.5633 C   0  0  0  0  0  0  0  0  0  0  0  0
    7.5268  -16.4353   20.9886 C   0  0  2  0  0  0  0  0  0  0  0  0
    6.5063  -16.9133   20.0908 N   0  0  0  0  0  0  0  0  0  0  0  0
    6.9516  -16.2740   22.3588 C   0  0  0  0  0  0  0  0  0  0  0  0
    5.8538  -15.6668   22.4400 O   0  0  0  0  0  0  0  0  0  0  0  0
    6.3714  -18.5542   23.4235 N   0  0  0  0  0  0  0  0  0  0  0  0
    6.4873  -18.6675   24.8254 C   0  0  0  0  0  0  0  0  0  0  0  0
    6.1765  -19.7471   25.3814 O   0  0  0  0  0  0  0  0  0  0  0  0
    6.9695  -17.5372   25.6603 C   0  0  0  0  0  0  0  0  0  0  0  0
    7.2130  -16.3158   24.7983 C   0  0  2  0  0  0  0  0  0  0  0  0
    7.6146  -16.7814   23.4992 N   0  0  0  0  0  0  0  0  0  0  0  0
    8.1974  -15.3732   25.3339 C   0  0  0  0  0  0  0  0  0  0  0  0
    9.3639  -15.3893   24.8576 O   0  0  0  0  0  0  0  0  0  0  0  0
    7.9165  -14.4295   26.3692 N   0  0  0  0  0  0  0  0  0  0  0  0
    6.6616  -14.0662   26.9920 C   0  0  0  0  0  0  0  0  0  0  0  0
    6.8213  -12.6431   27.4837 C   0  0  0  0  0  0  0  0  0  0  0  0
    8.1708  -12.2468   26.9282 C   0  0  0  0  0  0  0  0  0  0  0  0
    8.8960  -13.5853   27.0474 C   0  0  1  0  0  0  0  0  0  0  0  0
    9.1067  -13.9902   28.4432 C   0  0  0  0  0  0  0  0  0  0  0  0
    8.3644  -15.0441   28.9362 O   0  0  0  0  0  0  0  0  0  0  0  0
    9.9200  -13.4439   29.2303 O   0  0  0  0  0  0  0  0  0  0  0  0
  1  2  1  0
  2  3  1  0
  4  3  1  0
  5  4  1  0
  5  6  1  6
  7  8  2  0
  7  5  1  0
  9 10  1  0
 10 12  1  0
 11 10  2  0
 13 12  1  1
 13 14  1  0
 14  7  1  0
 15 17  1  0
 15 13  1  0
 16 15  2  0
 17 18  1  0
 18 19  1  0
 20 19  1  0
 21 17  1  0
 21 20  1  0
 21 22  1  1
 22 23  1  0
 24 22  2  0
M  END
$$$$
