GFR.pdb
     RDKit          3D

 27 27  0  0  1  0  0  0  0  0999 V2000
   28.6883  -22.4327  -15.2681 N   0  0  0  0  0  0  0  0  0  0  0  0
   29.3224  -21.5077  -14.3571 C   0  0  0  0  0  0  0  0  0  0  0  0
   28.6699  -21.5559  -13.0076 C   0  0  0  0  0  0  0  0  0  0  0  0
   27.7433  -22.3866  -12.8296 O   0  0  0  0  0  0  0  0  0  0  0  0
   29.0708  -20.7024  -11.9572 N   0  0  0  0  0  0  0  0  0  0  0  0
   28.4626  -20.7629  -10.6337 C   0  0  1  0  0  0  0  0  0  0  0  0
   29.3683  -20.2050   -9.5929 C   0  0  0  0  0  0  0  0  0  0  0  0
   28.7109  -20.0593   -8.2754 C   0  0  0  0  0  0  0  0  0  0  0  0
   29.0076  -20.9662   -7.2681 C   0  0  0  0  0  0  0  0  0  0  0  0
   28.4282  -20.8611   -6.0222 C   0  0  0  0  0  0  0  0  0  0  0  0
   27.5435  -19.8597   -5.7416 C   0  0  0  0  0  0  0  0  0  0  0  0
   27.2621  -18.9668   -6.7599 C   0  0  0  0  0  0  0  0  0  0  0  0
   27.8265  -19.0535   -8.0038 C   0  0  0  0  0  0  0  0  0  0  0  0
   27.0952  -20.1790  -10.6550 C   0  0  0  0  0  0  0  0  0  0  0  0
   26.9020  -19.0302  -11.1264 O   0  0  0  0  0  0  0  0  0  0  0  0
   20.2574  -19.0143  -12.5318 N   0  0  0  0  0  0  0  0  0  0  0  0
   20.7511  -19.1698  -13.8661 C   0  0  0  0  0  0  0  0  0  0  0  0
   19.8999  -19.2345  -14.8206 N   0  0  0  0  0  0  0  0  0  0  0  0
   22.1232  -19.2536  -14.1591 N   0  0  0  0  0  0  0  0  0  0  0  0
   23.1408  -19.3532  -13.0715 C   0  0  0  0  0  0  0  0  0  0  0  0
   23.1620  -20.7557  -12.6242 C   0  0  0  0  0  0  0  0  0  0  0  0
   24.1479  -21.2844  -11.6854 C   0  0  0  0  0  0  0  0  0  0  0  0
   24.5863  -20.5961  -10.4798 C   0  0  2  0  0  0  0  0  0  0  0  0
   25.9867  -20.8962  -10.1493 N   0  0  0  0  0  0  0  0  0  0  0  0
   23.7466  -20.6030   -9.2886 C   0  0  0  0  0  0  0  0  0  0  0  0
   22.5925  -19.7308   -9.3779 O   0  0  0  0  0  0  0  0  0  0  0  0
   23.8682  -21.2250   -8.2412 O   0  0  0  0  0  0  0  0  0  0  0  0
  2  1  1  0
  2  3  1  0
  3  4  2  0
  5  3  1  0
  5  6  1  0
  6 14  1  0
  6  7  1  1
  8  7  1  0
  9  8  2  0
 10  9  1  0
 11 10  2  0
 11 12  1  0
 12 13  2  0
 13  8  1  0
 14 15  2  0
 16 17  1  0
 17 18  2  0
 17 19  1  0
 19 20  1  0
 20 21  1  0
 21 22  1  0
 23 22  1  6
 23 25  1  0
 24 23  1  0
 24 14  1  0
 25 27  2  0
 25 26  1  0
M  END
$$$$
