GFR.pdb
     RDKit          3D

 27 27  0  0  1  0  0  0  0  0999 V2000
   22.2447  -22.0318   -6.6739 N   0  0  0  0  0  0  0  0  0  0  0  0
   23.6586  -22.2509   -6.4731 C   0  0  0  0  0  0  0  0  0  0  0  0
   24.4689  -21.3752   -7.3818 C   0  0  0  0  0  0  0  0  0  0  0  0
   23.8786  -20.4413   -7.9818 O   0  0  0  0  0  0  0  0  0  0  0  0
   25.8530  -21.5782   -7.5701 N   0  0  0  0  0  0  0  0  0  0  0  0
   26.6436  -20.7464   -8.4691 C   0  0  1  0  0  0  0  0  0  0  0  0
   28.0584  -20.6502   -8.0178 C   0  0  0  0  0  0  0  0  0  0  0  0
   28.1933  -20.0628   -6.6665 C   0  0  0  0  0  0  0  0  0  0  0  0
   27.8603  -18.7299   -6.4727 C   0  0  0  0  0  0  0  0  0  0  0  0
   27.9588  -18.1451   -5.2289 C   0  0  0  0  0  0  0  0  0  0  0  0
   28.3879  -18.8613   -4.1484 C   0  0  0  0  0  0  0  0  0  0  0  0
   28.7146  -20.1879   -4.3640 C   0  0  0  0  0  0  0  0  0  0  0  0
   28.6238  -20.7877   -5.5909 C   0  0  0  0  0  0  0  0  0  0  0  0
   26.4624  -21.1765   -9.8809 C   0  0  0  0  0  0  0  0  0  0  0  0
   26.6076  -22.3830  -10.2013 O   0  0  0  0  0  0  0  0  0  0  0  0
   21.1100  -18.3347  -14.9364 N   0  0  0  0  0  0  0  0  0  0  0  0
   20.8836  -19.7416  -14.8026 C   0  0  0  0  0  0  0  0  0  0  0  0
   20.1675  -20.3245  -15.6898 N   0  0  0  0  0  0  0  0  0  0  0  0
   21.4147  -20.4947  -13.7414 N   0  0  0  0  0  0  0  0  0  0  0  0
   22.4702  -19.9330  -12.8477 C   0  0  0  0  0  0  0  0  0  0  0  0
   23.7506  -20.0423  -13.5663 C   0  0  0  0  0  0  0  0  0  0  0  0
   25.0348  -19.6673  -12.9805 C   0  0  0  0  0  0  0  0  0  0  0  0
   25.9320  -20.5940  -12.3055 C   0  0  2  0  0  0  0  0  0  0  0  0
   26.1247  -20.2461  -10.8904 N   0  0  0  0  0  0  0  0  0  0  0  0
   27.1892  -20.9810  -12.9329 C   0  0  0  0  0  0  0  0  0  0  0  0
   27.0413  -21.9619  -13.9895 O   0  0  0  0  0  0  0  0  0  0  0  0
   28.3326  -20.6077  -12.7046 O   0  0  0  0  0  0  0  0  0  0  0  0
  2  1  1  0
  2  3  1  0
  3  4  2  0
  5  3  1  0
  5  6  1  0
  6 14  1  0
  6  7  1  1
  8  7  1  0
  9  8  2  0
 10  9  1  0
 11 10  2  0
 11 12  1  0
 12 13  2  0
 13  8  1  0
 14 15  2  0
 16 17  1  0
 17 18  2  0
 17 19  1  0
 19 20  1  0
 20 21  1  0
 21 22  1  0
 23 22  1  6
 23 25  1  0
 24 23  1  0
 24 14  1  0
 25 27  2  0
 25 26  1  0
M  END
$$$$
