GFR.pdb
     RDKit          3D

 27 27  0  0  1  0  0  0  0  0999 V2000
   21.9422  -21.8436   -6.6013 N   0  0  0  0  0  0  0  0  0  0  0  0
   23.3029  -22.3107   -6.7345 C   0  0  0  0  0  0  0  0  0  0  0  0
   24.1351  -21.3209   -7.4940 C   0  0  0  0  0  0  0  0  0  0  0  0
   23.5550  -20.3260   -7.9979 O   0  0  0  0  0  0  0  0  0  0  0  0
   25.5285  -21.4848   -7.6486 N   0  0  0  0  0  0  0  0  0  0  0  0
   26.3428  -20.5357   -8.3980 C   0  0  1  0  0  0  0  0  0  0  0  0
   27.7554  -20.5426   -7.9300 C   0  0  0  0  0  0  0  0  0  0  0  0
   27.9070  -20.0347   -6.5486 C   0  0  0  0  0  0  0  0  0  0  0  0
   28.3208  -20.9048   -5.5502 C   0  0  0  0  0  0  0  0  0  0  0  0
   28.4871  -20.4720   -4.2525 C   0  0  0  0  0  0  0  0  0  0  0  0
   28.2492  -19.1717   -3.9102 C   0  0  0  0  0  0  0  0  0  0  0  0
   27.8377  -18.3216   -4.9208 C   0  0  0  0  0  0  0  0  0  0  0  0
   27.6665  -18.7313   -6.2155 C   0  0  0  0  0  0  0  0  0  0  0  0
   26.1648  -20.7291   -9.8615 C   0  0  0  0  0  0  0  0  0  0  0  0
   25.8560  -21.8576  -10.3205 O   0  0  0  0  0  0  0  0  0  0  0  0
   28.9413  -19.7658  -17.4577 N   0  0  0  0  0  0  0  0  0  0  0  0
   28.4949  -18.6714  -16.6504 C   0  0  0  0  0  0  0  0  0  0  0  0
   29.0220  -17.5213  -16.8485 N   0  0  0  0  0  0  0  0  0  0  0  0
   27.5095  -18.8165  -15.6589 N   0  0  0  0  0  0  0  0  0  0  0  0
   26.6651  -17.6612  -15.2338 C   0  0  0  0  0  0  0  0  0  0  0  0
   25.7135  -18.1653  -14.2298 C   0  0  0  0  0  0  0  0  0  0  0  0
   26.0740  -18.4184  -12.8374 C   0  0  0  0  0  0  0  0  0  0  0  0
   26.0290  -19.7274  -12.2019 C   0  0  2  0  0  0  0  0  0  0  0  0
   26.3372  -19.6567  -10.7664 N   0  0  0  0  0  0  0  0  0  0  0  0
   26.6852  -20.8672  -12.8301 C   0  0  0  0  0  0  0  0  0  0  0  0
   25.8319  -21.6113  -13.7349 O   0  0  0  0  0  0  0  0  0  0  0  0
   27.8303  -21.2831  -12.7098 O   0  0  0  0  0  0  0  0  0  0  0  0
  2  1  1  0
  2  3  1  0
  3  4  2  0
  5  3  1  0
  5  6  1  0
  6 14  1  0
  6  7  1  6
  8  7  1  0
  9  8  2  0
 10  9  1  0
 11 10  2  0
 11 12  1  0
 12 13  2  0
 13  8  1  0
 14 15  2  0
 16 17  1  0
 17 18  2  0
 17 19  1  0
 19 20  1  0
 20 21  1  0
 21 22  1  0
 23 22  1  6
 23 25  1  0
 24 23  1  0
 24 14  1  0
 25 27  2  0
 25 26  1  0
M  END
$$$$
