GFR.pdb
     RDKit          3D

 27 27  0  0  1  0  0  0  0  0999 V2000
   31.5913  -21.6731   -9.9934 N   0  0  0  0  0  0  0  0  0  0  0  0
   30.9220  -20.5292   -9.4182 C   0  0  0  0  0  0  0  0  0  0  0  0
   29.4619  -20.8089   -9.2203 C   0  0  0  0  0  0  0  0  0  0  0  0
   29.0158  -21.9183   -9.6084 O   0  0  0  0  0  0  0  0  0  0  0  0
   28.5995  -19.8672   -8.6186 N   0  0  0  0  0  0  0  0  0  0  0  0
   27.1790  -20.1305   -8.4230 C   0  0  1  0  0  0  0  0  0  0  0  0
   26.6515  -19.4109   -7.2320 C   0  0  0  0  0  0  0  0  0  0  0  0
   27.4078  -19.7107   -5.9962 C   0  0  0  0  0  0  0  0  0  0  0  0
   28.3148  -18.7771   -5.5156 C   0  0  0  0  0  0  0  0  0  0  0  0
   29.0316  -19.0093   -4.3619 C   0  0  0  0  0  0  0  0  0  0  0  0
   28.8703  -20.1670   -3.6562 C   0  0  0  0  0  0  0  0  0  0  0  0
   27.9614  -21.0837   -4.1529 C   0  0  0  0  0  0  0  0  0  0  0  0
   27.2396  -20.8725   -5.2965 C   0  0  0  0  0  0  0  0  0  0  0  0
   26.4222  -19.9005   -9.6821 C   0  0  0  0  0  0  0  0  0  0  0  0
   26.6035  -18.8514  -10.3500 O   0  0  0  0  0  0  0  0  0  0  0  0
   22.3122  -24.2978  -14.3483 N   0  0  0  0  0  0  0  0  0  0  0  0
   23.4628  -24.9201  -14.9291 C   0  0  0  0  0  0  0  0  0  0  0  0
   23.3415  -26.1134  -15.3775 N   0  0  0  0  0  0  0  0  0  0  0  0
   24.7066  -24.2721  -15.0215 N   0  0  0  0  0  0  0  0  0  0  0  0
   24.8774  -22.8597  -14.5692 C   0  0  0  0  0  0  0  0  0  0  0  0
   25.1579  -22.8977  -13.1243 C   0  0  0  0  0  0  0  0  0  0  0  0
   25.7285  -21.7734  -12.3872 C   0  0  0  0  0  0  0  0  0  0  0  0
   24.9634  -20.8803  -11.5291 C   0  0  2  0  0  0  0  0  0  0  0  0
   25.4870  -20.8490  -10.1560 N   0  0  0  0  0  0  0  0  0  0  0  0
   23.5067  -20.9265  -11.5408 C   0  0  0  0  0  0  0  0  0  0  0  0
   22.9192  -20.6181  -12.8293 O   0  0  0  0  0  0  0  0  0  0  0  0
   22.7183  -21.1827  -10.6400 O   0  0  0  0  0  0  0  0  0  0  0  0
  2  1  1  0
  2  3  1  0
  3  4  2  0
  5  3  1  0
  5  6  1  0
  6 14  1  0
  6  7  1  1
  8  7  1  0
  9  8  2  0
 10  9  1  0
 11 10  2  0
 11 12  1  0
 12 13  2  0
 13  8  1  0
 14 15  2  0
 16 17  1  0
 17 18  2  0
 17 19  1  0
 19 20  1  0
 20 21  1  0
 21 22  1  0
 23 22  1  1
 23 25  1  0
 24 23  1  0
 24 14  1  0
 25 27  2  0
 25 26  1  0
M  END
$$$$
