GFR.pdb
     RDKit          3D

 27 27  0  0  1  0  0  0  0  0999 V2000
   18.1975   -8.4608  -18.8153 N   0  0  0  0  0  0  0  0  0  0  0  0
   18.2019   -7.5737  -17.6749 C   0  0  0  0  0  0  0  0  0  0  0  0
   18.0955   -8.3488  -16.3954 C   0  0  0  0  0  0  0  0  0  0  0  0
   17.9768   -9.5981  -16.4706 O   0  0  0  0  0  0  0  0  0  0  0  0
   18.1258   -7.7122  -15.1359 N   0  0  0  0  0  0  0  0  0  0  0  0
   18.1439   -8.4641  -13.8871 C   0  0  1  0  0  0  0  0  0  0  0  0
   19.4940   -9.0253  -13.6096 C   0  0  0  0  0  0  0  0  0  0  0  0
   20.5272   -7.9807  -13.4351 C   0  0  0  0  0  0  0  0  0  0  0  0
   21.5823   -8.2125  -12.5644 C   0  0  0  0  0  0  0  0  0  0  0  0
   22.5732   -7.2728  -12.3804 C   0  0  0  0  0  0  0  0  0  0  0  0
   22.5461   -6.0835  -13.0507 C   0  0  0  0  0  0  0  0  0  0  0  0
   21.4856   -5.8732  -13.9135 C   0  0  0  0  0  0  0  0  0  0  0  0
   20.4916   -6.7932  -14.1105 C   0  0  0  0  0  0  0  0  0  0  0  0
   17.5573   -7.6624  -12.7807 C   0  0  0  0  0  0  0  0  0  0  0  0
   17.6447   -6.4086  -12.7888 O   0  0  0  0  0  0  0  0  0  0  0  0
   10.2830   -7.8616   -7.5903 N   0  0  0  0  0  0  0  0  0  0  0  0
   11.3267   -7.0400   -7.0573 C   0  0  0  0  0  0  0  0  0  0  0  0
   11.0017   -6.0981   -6.2530 N   0  0  0  0  0  0  0  0  0  0  0  0
   12.6801   -7.2307   -7.3848 N   0  0  0  0  0  0  0  0  0  0  0  0
   13.0804   -7.8837   -8.6661 C   0  0  0  0  0  0  0  0  0  0  0  0
   14.5522   -7.9075   -8.6997 C   0  0  0  0  0  0  0  0  0  0  0  0
   15.3217   -8.3712   -9.8511 C   0  0  0  0  0  0  0  0  0  0  0  0
   16.2991   -7.5628  -10.5657 C   0  0  2  0  0  0  0  0  0  0  0  0
   16.8918   -8.2855  -11.7002 N   0  0  0  0  0  0  0  0  0  0  0  0
   17.3086   -6.8150   -9.8269 C   0  0  0  0  0  0  0  0  0  0  0  0
   16.8710   -5.5013   -9.3991 O   0  0  0  0  0  0  0  0  0  0  0  0
   18.4520   -7.1255   -9.5188 O   0  0  0  0  0  0  0  0  0  0  0  0
  2  1  1  0
  2  3  1  0
  3  4  2  0
  5  3  1  0
  5  6  1  0
  6 14  1  0
  6  7  1  1
  8  7  1  0
  9  8  2  0
 10  9  1  0
 11 10  2  0
 11 12  1  0
 12 13  2  0
 13  8  1  0
 14 15  2  0
 16 17  1  0
 17 18  2  0
 17 19  1  0
 19 20  1  0
 20 21  1  0
 21 22  1  0
 23 22  1  1
 23 25  1  0
 24 23  1  0
 24 14  1  0
 25 27  2  0
 25 26  1  0
M  END
$$$$
