GFR.pdb
     RDKit          3D

 27 27  0  0  1  0  0  0  0  0999 V2000
   31.3238  -22.4353   -9.8687 N   0  0  0  0  0  0  0  0  0  0  0  0
   30.7665  -21.1131   -9.6992 C   0  0  0  0  0  0  0  0  0  0  0  0
   29.3830  -21.1866   -9.1250 C   0  0  0  0  0  0  0  0  0  0  0  0
   28.8052  -22.3031   -9.1192 O   0  0  0  0  0  0  0  0  0  0  0  0
   28.7335  -20.0474   -8.6025 N   0  0  0  0  0  0  0  0  0  0  0  0
   27.3784  -20.1042   -8.0680 C   0  0  1  0  0  0  0  0  0  0  0  0
   27.2284  -19.2313   -6.8721 C   0  0  0  0  0  0  0  0  0  0  0  0
   28.1733  -19.5745   -5.7864 C   0  0  0  0  0  0  0  0  0  0  0  0
   27.9277  -20.6949   -5.0058 C   0  0  0  0  0  0  0  0  0  0  0  0
   28.7872  -21.0588   -3.9921 C   0  0  0  0  0  0  0  0  0  0  0  0
   29.9082  -20.3261   -3.7253 C   0  0  0  0  0  0  0  0  0  0  0  0
   30.1338  -19.2134   -4.5155 C   0  0  0  0  0  0  0  0  0  0  0  0
   29.2928  -18.8349   -5.5269 C   0  0  0  0  0  0  0  0  0  0  0  0
   26.3777  -19.8737   -9.1434 C   0  0  0  0  0  0  0  0  0  0  0  0
   26.4449  -18.8466   -9.8646 O   0  0  0  0  0  0  0  0  0  0  0  0
   22.7936  -22.1723  -16.1809 N   0  0  0  0  0  0  0  0  0  0  0  0
   22.9215  -20.7805  -15.8723 C   0  0  0  0  0  0  0  0  0  0  0  0
   22.1356  -19.9576  -16.4596 N   0  0  0  0  0  0  0  0  0  0  0  0
   23.8707  -20.2936  -14.9572 N   0  0  0  0  0  0  0  0  0  0  0  0
   24.8143  -21.2157  -14.2587 C   0  0  0  0  0  0  0  0  0  0  0  0
   24.2120  -21.5485  -12.9571 C   0  0  0  0  0  0  0  0  0  0  0  0
   24.9243  -21.4268  -11.6880 C   0  0  0  0  0  0  0  0  0  0  0  0
   24.4090  -20.7267  -10.5203 C   0  0  2  0  0  0  0  0  0  0  0  0
   25.3336  -20.7972   -9.3799 N   0  0  0  0  0  0  0  0  0  0  0  0
   23.0288  -20.9287  -10.0978 C   0  0  0  0  0  0  0  0  0  0  0  0
   22.8967  -21.6369   -8.8403 O   0  0  0  0  0  0  0  0  0  0  0  0
   21.9817  -20.5952  -10.6374 O   0  0  0  0  0  0  0  0  0  0  0  0
  2  1  1  0
  2  3  1  0
  3  4  2  0
  5  3  1  0
  5  6  1  0
  6 14  1  0
  6  7  1  1
  8  7  1  0
  9  8  2  0
 10  9  1  0
 11 10  2  0
 11 12  1  0
 12 13  2  0
 13  8  1  0
 14 15  2  0
 16 17  1  0
 17 18  2  0
 17 19  1  0
 19 20  1  0
 20 21  1  0
 21 22  1  0
 23 22  1  6
 23 25  1  0
 24 23  1  0
 24 14  1  0
 25 27  2  0
 25 26  1  0
M  END
$$$$
