GLK.pdb
     RDKit          3D

 22 21  0  0  1  0  0  0  0  0999 V2000
    7.2412  -19.8993   17.9176 N   0  0  0  0  0  0  0  0  0  0  0  0
    6.7421  -19.1848   19.0659 C   0  0  0  0  0  0  0  0  0  0  0  0
    7.6810  -18.0602   19.3767 C   0  0  0  0  0  0  0  0  0  0  0  0
    8.8957  -18.1901   19.1050 O   0  0  0  0  0  0  0  0  0  0  0  0
    6.8839  -12.2880   21.1323 C   0  0  0  0  0  0  0  0  0  0  0  0
    8.0258  -13.2916   20.8330 C   0  0  2  0  0  0  0  0  0  0  0  0
    8.7795  -12.6768   19.6785 C   0  0  0  0  0  0  0  0  0  0  0  0
    7.3521  -14.5738   20.5216 C   0  0  0  0  0  0  0  0  0  0  0  0
    8.1823  -15.7916   20.3793 C   0  0  2  0  0  0  0  0  0  0  0  0
    7.2415  -16.8579   19.9663 N   0  0  0  0  0  0  0  0  0  0  0  0
    8.9603  -16.2255   21.5399 C   0  0  0  0  0  0  0  0  0  0  0  0
    8.4038  -16.5886   22.6385 O   0  0  0  0  0  0  0  0  0  0  0  0
   10.3703  -16.2820   21.5371 N   0  0  0  0  0  0  0  0  0  0  0  0
   11.1001  -16.7747   22.7745 C   0  0  1  0  0  0  0  0  0  0  0  0
   11.2374  -18.2245   22.5372 C   0  0  0  0  0  0  0  0  0  0  0  0
   11.7905  -19.1859   23.4650 C   0  0  0  0  0  0  0  0  0  0  0  0
   11.8847  -20.6203   23.1080 C   0  0  0  0  0  0  0  0  0  0  0  0
   12.3641  -21.4252   24.3482 C   0  0  0  0  0  0  0  0  0  0  0  0
   12.2626  -22.8370   24.0464 N   0  0  0  0  0  0  0  0  0  0  0  0
   12.3692  -16.0384   22.8013 C   0  0  0  0  0  0  0  0  0  0  0  0
   13.1070  -16.1190   23.8629 O   0  0  0  0  0  0  0  0  0  0  0  0
   12.8911  -15.2602   21.8165 O   0  0  0  0  0  0  0  0  0  0  0  0
  2  1  1  0
  2  3  1  0
  3 10  1  0
  3  4  2  0
  6  5  1  6
  7  6  1  0
  8  6  1  0
  9  8  1  1
 10  9  1  0
 11  9  1  0
 11 13  1  0
 12 11  2  0
 14 20  1  0
 14 13  1  0
 14 15  1  6
 16 15  1  0
 17 18  1  0
 17 16  1  0
 18 19  1  0
 20 22  1  0
 21 20  2  0
M  END
$$$$
