GLK.pdb
     RDKit          3D

 22 21  0  0  1  0  0  0  0  0999 V2000
    4.6919  -18.9224   21.5886 N   0  0  0  0  0  0  0  0  0  0  0  0
    4.8835  -17.5994   22.1281 C   0  0  0  0  0  0  0  0  0  0  0  0
    6.2843  -17.1593   21.8337 C   0  0  0  0  0  0  0  0  0  0  0  0
    7.0803  -17.9732   21.3139 O   0  0  0  0  0  0  0  0  0  0  0  0
    8.2525  -13.8041   19.2067 C   0  0  0  0  0  0  0  0  0  0  0  0
    7.3170  -13.4723   20.3964 C   0  0  2  0  0  0  0  0  0  0  0  0
    7.1335  -11.9754   20.3300 C   0  0  0  0  0  0  0  0  0  0  0  0
    8.0265  -13.9576   21.6031 C   0  0  0  0  0  0  0  0  0  0  0  0
    8.1205  -15.4181   21.8276 C   0  0  2  0  0  0  0  0  0  0  0  0
    6.7373  -15.8564   22.1229 N   0  0  0  0  0  0  0  0  0  0  0  0
    9.0335  -15.8902   22.8688 C   0  0  0  0  0  0  0  0  0  0  0  0
    8.7757  -15.7493   24.1188 O   0  0  0  0  0  0  0  0  0  0  0  0
   10.2546  -16.5357   22.5796 N   0  0  0  0  0  0  0  0  0  0  0  0
   11.1484  -16.9882   23.7209 C   0  0  1  0  0  0  0  0  0  0  0  0
   11.2346  -18.4489   23.5307 C   0  0  0  0  0  0  0  0  0  0  0  0
   11.7608  -19.3978   24.4865 C   0  0  0  0  0  0  0  0  0  0  0  0
   11.8827  -20.8338   24.1444 C   0  0  0  0  0  0  0  0  0  0  0  0
   12.4376  -21.6066   25.3735 C   0  0  0  0  0  0  0  0  0  0  0  0
   12.4516  -23.0194   25.0593 N   0  0  0  0  0  0  0  0  0  0  0  0
   12.4162  -16.2733   23.5341 C   0  0  0  0  0  0  0  0  0  0  0  0
   12.9482  -15.6828   24.5570 O   0  0  0  0  0  0  0  0  0  0  0  0
   13.1326  -16.1529   22.3852 O   0  0  0  0  0  0  0  0  0  0  0  0
  2  1  1  0
  2  3  1  0
  3 10  1  0
  3  4  2  0
  6  5  1  6
  7  6  1  0
  8  6  1  0
  9  8  1  1
 10  9  1  0
 11  9  1  0
 11 13  1  0
 12 11  2  0
 14 20  1  0
 14 13  1  0
 14 15  1  6
 16 15  1  0
 17 18  1  0
 17 16  1  0
 18 19  1  0
 20 22  1  0
 21 20  2  0
M  END
$$$$
