GLK.pdb
     RDKit          3D

 22 21  0  0  1  0  0  0  0  0999 V2000
    7.7366  -19.0818   17.5812 N   0  0  0  0  0  0  0  0  0  0  0  0
    7.0826  -18.4253   18.6855 C   0  0  0  0  0  0  0  0  0  0  0  0
    8.0898  -17.5862   19.4096 C   0  0  0  0  0  0  0  0  0  0  0  0
    9.3068  -17.8416   19.2694 O   0  0  0  0  0  0  0  0  0  0  0  0
    8.5387  -13.0502   19.3947 C   0  0  0  0  0  0  0  0  0  0  0  0
    7.3627  -13.6560   20.2015 C   0  0  2  0  0  0  0  0  0  0  0  0
    6.5568  -12.4622   20.6533 C   0  0  0  0  0  0  0  0  0  0  0  0
    7.9930  -14.4295   21.2965 C   0  0  0  0  0  0  0  0  0  0  0  0
    8.7070  -15.6813   20.9568 C   0  0  2  0  0  0  0  0  0  0  0  0
    7.7121  -16.5162   20.2455 N   0  0  0  0  0  0  0  0  0  0  0  0
    9.3124  -16.4394   22.0520 C   0  0  0  0  0  0  0  0  0  0  0  0
    8.6092  -16.9701   22.9861 O   0  0  0  0  0  0  0  0  0  0  0  0
   10.7040  -16.6470   22.1602 N   0  0  0  0  0  0  0  0  0  0  0  0
   11.2474  -17.4803   23.3077 C   0  0  1  0  0  0  0  0  0  0  0  0
   12.1432  -18.4430   22.6382 C   0  0  0  0  0  0  0  0  0  0  0  0
   12.7738  -19.5863   23.2596 C   0  0  0  0  0  0  0  0  0  0  0  0
   13.7211  -20.4371   22.5028 C   0  0  0  0  0  0  0  0  0  0  0  0
   14.2021  -21.6013   23.4133 C   0  0  0  0  0  0  0  0  0  0  0  0
   15.0588  -22.4695   22.6342 N   0  0  0  0  0  0  0  0  0  0  0  0
   11.9276  -16.5303   24.1954 C   0  0  0  0  0  0  0  0  0  0  0  0
   12.3878  -16.9634   25.3262 O   0  0  0  0  0  0  0  0  0  0  0  0
   12.1501  -15.2082   23.9717 O   0  0  0  0  0  0  0  0  0  0  0  0
  2  1  1  0
  2  3  1  0
  3 10  1  0
  3  4  2  0
  6  5  1  6
  7  6  1  0
  8  6  1  0
  9  8  1  1
 10  9  1  0
 11  9  1  0
 11 13  1  0
 12 11  2  0
 14 20  1  0
 14 13  1  0
 14 15  1  6
 16 15  1  0
 17 18  1  0
 17 16  1  0
 18 19  1  0
 20 22  1  0
 21 20  2  0
M  END
$$$$
