GLK.pdb
     RDKit          3D

 22 21  0  0  1  0  0  0  0  0999 V2000
   28.8140   41.9793  -44.8033 N   0  0  0  0  0  0  0  0  0  0  0  0
   29.8941   41.0459  -45.0038 C   0  0  0  0  0  0  0  0  0  0  0  0
   31.0958   41.7989  -45.4856 C   0  0  0  0  0  0  0  0  0  0  0  0
   32.2021   41.2154  -45.5266 O   0  0  0  0  0  0  0  0  0  0  0  0
   31.5759   46.3414  -49.3015 C   0  0  0  0  0  0  0  0  0  0  0  0
   32.3827   45.1277  -48.7754 C   0  0  2  0  0  0  0  0  0  0  0  0
   32.6676   44.2989  -50.0046 C   0  0  0  0  0  0  0  0  0  0  0  0
   31.5055   44.4745  -47.7762 C   0  0  0  0  0  0  0  0  0  0  0  0
   32.1336   43.8149  -46.6087 C   0  0  2  0  0  0  0  0  0  0  0  0
   31.0222   43.1453  -45.8953 N   0  0  0  0  0  0  0  0  0  0  0  0
   32.8975   44.6514  -45.6827 C   0  0  0  0  0  0  0  0  0  0  0  0
   32.6155   44.7192  -44.4319 O   0  0  0  0  0  0  0  0  0  0  0  0
   33.9966   45.4366  -46.0910 N   0  0  0  0  0  0  0  0  0  0  0  0
   35.3893   44.8310  -46.0865 C   0  0  1  0  0  0  0  0  0  0  0  0
   36.1549   45.7381  -45.2100 C   0  0  0  0  0  0  0  0  0  0  0  0
   36.7117   47.0163  -45.5935 C   0  0  0  0  0  0  0  0  0  0  0  0
   37.8925   47.5724  -44.8933 C   0  0  0  0  0  0  0  0  0  0  0  0
   38.2464   48.9556  -45.5076 C   0  0  0  0  0  0  0  0  0  0  0  0
   37.3683   49.1964  -46.6326 N   0  0  0  0  0  0  0  0  0  0  0  0
   35.2245   43.4708  -45.5612 C   0  0  0  0  0  0  0  0  0  0  0  0
   36.2665   42.7041  -45.4958 O   0  0  0  0  0  0  0  0  0  0  0  0
   34.0783   42.8943  -45.1122 O   0  0  0  0  0  0  0  0  0  0  0  0
  2  1  1  0
  2  3  1  0
  3 10  1  0
  3  4  2  0
  6  5  1  6
  7  6  1  0
  8  6  1  0
  9  8  1  6
 10  9  1  0
 11  9  1  0
 11 13  1  0
 12 11  2  0
 14 20  1  0
 14 13  1  0
 14 15  1  1
 16 15  1  0
 17 18  1  0
 17 16  1  0
 18 19  1  0
 20 22  1  0
 21 20  2  0
M  END
$$$$
