GLK.pdb
     RDKit          3D

 22 21  0  0  1  0  0  0  0  0999 V2000
    7.0512  -14.5770   20.1155 N   0  0  0  0  0  0  0  0  0  0  0  0
    6.3700  -14.9153   21.3401 C   0  0  0  0  0  0  0  0  0  0  0  0
    7.3186  -14.7298   22.4840 C   0  0  0  0  0  0  0  0  0  0  0  0
    8.5485  -14.7010   22.2547 O   0  0  0  0  0  0  0  0  0  0  0  0
    7.9493  -11.4560   25.5082 C   0  0  0  0  0  0  0  0  0  0  0  0
    6.6365  -12.2693   25.6334 C   0  0  2  0  0  0  0  0  0  0  0  0
    5.8575  -11.5690   26.7205 C   0  0  0  0  0  0  0  0  0  0  0  0
    7.0583  -13.6505   25.9639 C   0  0  0  0  0  0  0  0  0  0  0  0
    7.8090  -14.4220   24.9473 C   0  0  2  0  0  0  0  0  0  0  0  0
    6.8716  -14.5864   23.8128 N   0  0  0  0  0  0  0  0  0  0  0  0
    8.3556  -15.7201   25.3434 C   0  0  0  0  0  0  0  0  0  0  0  0
    7.6025  -16.7181   25.6356 O   0  0  0  0  0  0  0  0  0  0  0  0
    9.7415  -15.9721   25.4284 N   0  0  0  0  0  0  0  0  0  0  0  0
   10.2253  -17.3406   25.8752 C   0  0  1  0  0  0  0  0  0  0  0  0
   11.4875  -17.5177   25.1317 C   0  0  0  0  0  0  0  0  0  0  0  0
   12.2814  -18.7254   25.0866 C   0  0  0  0  0  0  0  0  0  0  0  0
   13.5488  -18.7743   24.3216 C   0  0  0  0  0  0  0  0  0  0  0  0
   14.2472  -20.1393   24.5764 C   0  0  0  0  0  0  0  0  0  0  0  0
   15.5404  -20.1215   23.9268 N   0  0  0  0  0  0  0  0  0  0  0  0
   10.3835  -17.2452   27.3310 C   0  0  0  0  0  0  0  0  0  0  0  0
   10.4510  -16.0686   27.8686 O   0  0  0  0  0  0  0  0  0  0  0  0
   10.4646  -18.2705   28.2197 O   0  0  0  0  0  0  0  0  0  0  0  0
  2  1  1  0
  2  3  1  0
  3 10  1  0
  3  4  2  0
  6  5  1  1
  7  6  1  0
  8  6  1  0
  9  8  1  1
 10  9  1  0
 11  9  1  0
 11 13  1  0
 12 11  2  0
 14 20  1  0
 14 13  1  0
 14 15  1  6
 16 15  1  0
 17 18  1  0
 17 16  1  0
 18 19  1  0
 20 22  1  0
 21 20  2  0
M  END
$$$$
