GLK.pdb
     RDKit          3D

 22 21  0  0  1  0  0  0  0  0999 V2000
    7.5428  -14.1843   20.0781 N   0  0  0  0  0  0  0  0  0  0  0  0
    6.6624  -14.3622   21.2056 C   0  0  0  0  0  0  0  0  0  0  0  0
    7.4872  -14.4180   22.4544 C   0  0  0  0  0  0  0  0  0  0  0  0
    8.7306  -14.5211   22.3571 O   0  0  0  0  0  0  0  0  0  0  0  0
    7.7450  -11.4831   26.0059 C   0  0  0  0  0  0  0  0  0  0  0  0
    6.4513  -12.3171   25.8277 C   0  0  2  0  0  0  0  0  0  0  0  0
    5.5130  -11.7949   26.8886 C   0  0  0  0  0  0  0  0  0  0  0  0
    6.8647  -13.7286   26.0051 C   0  0  0  0  0  0  0  0  0  0  0  0
    7.7267  -14.3473   24.9725 C   0  0  2  0  0  0  0  0  0  0  0  0
    6.9088  -14.3583   23.7381 N   0  0  0  0  0  0  0  0  0  0  0  0
    8.2572  -15.6845   25.2392 C   0  0  0  0  0  0  0  0  0  0  0  0
    7.5018  -16.7215   25.2909 O   0  0  0  0  0  0  0  0  0  0  0  0
    9.6296  -15.9337   25.4531 N   0  0  0  0  0  0  0  0  0  0  0  0
   10.0983  -17.3541   25.7159 C   0  0  1  0  0  0  0  0  0  0  0  0
   11.2209  -17.5247   24.7736 C   0  0  0  0  0  0  0  0  0  0  0  0
   11.7962  -18.7856   24.3612 C   0  0  0  0  0  0  0  0  0  0  0  0
   12.9123  -18.8304   23.3883 C   0  0  0  0  0  0  0  0  0  0  0  0
   13.2051  -20.3103   23.0144 C   0  0  0  0  0  0  0  0  0  0  0  0
   14.4006  -20.3499   22.1996 N   0  0  0  0  0  0  0  0  0  0  0  0
   10.4809  -17.3859   27.1322 C   0  0  0  0  0  0  0  0  0  0  0  0
   10.5339  -16.2667   27.7822 O   0  0  0  0  0  0  0  0  0  0  0  0
   10.7913  -18.4796   27.8773 O   0  0  0  0  0  0  0  0  0  0  0  0
  2  1  1  0
  2  3  1  0
  3 10  1  0
  3  4  2  0
  6  5  1  1
  7  6  1  0
  8  6  1  0
  9  8  1  1
 10  9  1  0
 11  9  1  0
 11 13  1  0
 12 11  2  0
 14 20  1  0
 14 13  1  0
 14 15  1  6
 16 15  1  0
 17 18  1  0
 17 16  1  0
 18 19  1  0
 20 22  1  0
 21 20  2  0
M  END
$$$$
