GLK.pdb
     RDKit          3D

 22 21  0  0  1  0  0  0  0  0999 V2000
    7.7589  -19.4279   18.3406 N   0  0  0  0  0  0  0  0  0  0  0  0
    7.1541  -18.5759   19.3337 C   0  0  0  0  0  0  0  0  0  0  0  0
    8.1558  -17.5461   19.7569 C   0  0  0  0  0  0  0  0  0  0  0  0
    9.3307  -17.6319   19.3346 O   0  0  0  0  0  0  0  0  0  0  0  0
    8.4418  -12.9682   19.5339 C   0  0  0  0  0  0  0  0  0  0  0  0
    7.3635  -13.6402   20.4206 C   0  0  2  0  0  0  0  0  0  0  0  0
    6.4845  -12.5018   20.8790 C   0  0  0  0  0  0  0  0  0  0  0  0
    8.1115  -14.3212   21.5029 C   0  0  0  0  0  0  0  0  0  0  0  0
    8.8400  -15.5694   21.1809 C   0  0  2  0  0  0  0  0  0  0  0  0
    7.8189  -16.4815   20.6167 N   0  0  0  0  0  0  0  0  0  0  0  0
    9.5672  -16.2327   22.2634 C   0  0  0  0  0  0  0  0  0  0  0  0
    8.9711  -16.7054   23.2977 O   0  0  0  0  0  0  0  0  0  0  0  0
   10.9676  -16.4060   22.2495 N   0  0  0  0  0  0  0  0  0  0  0  0
   11.6442  -17.1109   23.4121 C   0  0  1  0  0  0  0  0  0  0  0  0
   12.4122  -18.1888   22.7596 C   0  0  0  0  0  0  0  0  0  0  0  0
   11.8713  -19.4376   22.2709 C   0  0  0  0  0  0  0  0  0  0  0  0
   12.7446  -20.4421   21.6210 C   0  0  0  0  0  0  0  0  0  0  0  0
   11.8793  -21.6457   21.1538 C   0  0  0  0  0  0  0  0  0  0  0  0
   12.7566  -22.6532   20.5972 N   0  0  0  0  0  0  0  0  0  0  0  0
   12.4663  -16.0873   24.0675 C   0  0  0  0  0  0  0  0  0  0  0  0
   13.0722  -16.3954   25.1702 O   0  0  0  0  0  0  0  0  0  0  0  0
   12.6865  -14.8137   23.6466 O   0  0  0  0  0  0  0  0  0  0  0  0
  2  1  1  0
  2  3  1  0
  3 10  1  0
  3  4  2  0
  6  5  1  6
  7  6  1  0
  8  6  1  0
  9  8  1  1
 10  9  1  0
 11  9  1  0
 11 13  1  0
 12 11  2  0
 14 20  1  0
 14 13  1  0
 14 15  1  6
 16 15  1  0
 17 18  1  0
 17 16  1  0
 18 19  1  0
 20 22  1  0
 21 20  2  0
M  END
$$$$
