CQD.pdb
     RDKit          3D

 24 23  0  0  1  0  0  0  0  0999 V2000
   19.9980  -13.8702  -16.8947 N   0  0  0  0  0  0  0  0  0  0  0  0
   19.1617  -12.7857  -16.4523 C   0  0  1  0  0  0  0  0  0  0  0  0
   19.0235  -12.8179  -14.9471 C   0  0  0  0  0  0  0  0  0  0  0  0
   17.9977  -14.2364  -14.4712 S   0  0  0  0  0  0  0  0  0  0  0  0
   19.5591  -11.4697  -16.9635 C   0  0  0  0  0  0  0  0  0  0  0  0
   20.8034  -11.2350  -17.0552 O   0  0  0  0  0  0  0  0  0  0  0  0
   18.6980   -8.9211  -21.6547 N   0  0  0  0  0  0  0  0  0  0  0  0
   19.0049   -7.6661  -21.0674 C   0  0  0  0  0  0  0  0  0  0  0  0
   19.4282   -6.7694  -21.8700 O   0  0  0  0  0  0  0  0  0  0  0  0
   18.8460   -7.4032  -19.6083 C   0  0  0  0  0  0  0  0  0  0  0  0
   18.3091   -8.6416  -18.9819 C   0  0  0  0  0  0  0  0  0  0  0  0
   19.1911   -9.2026  -17.8871 C   0  0  2  0  0  0  0  0  0  0  0  0
   18.6905  -10.4419  -17.3623 N   0  0  0  0  0  0  0  0  0  0  0  0
   19.4697   -8.1783  -16.8486 C   0  0  0  0  0  0  0  0  0  0  0  0
   19.1021   -8.4575  -15.6783 O   0  0  0  0  0  0  0  0  0  0  0  0
   20.0993   -6.9462  -17.0665 N   0  0  0  0  0  0  0  0  0  0  0  0
   20.4531   -6.0163  -16.0018 C   0  0  1  0  0  0  0  0  0  0  0  0
   21.3867   -6.6277  -15.0143 C   0  0  0  0  0  0  0  0  0  0  0  0
   21.6854   -5.6659  -13.9353 C   0  0  0  0  0  0  0  0  0  0  0  0
   20.7698   -5.2294  -13.1954 O   0  0  0  0  0  0  0  0  0  0  0  0
   21.0320   -4.7971  -16.6014 C   0  0  0  0  0  0  0  0  0  0  0  0
   21.3719   -4.8235  -17.8210 O   0  0  0  0  0  0  0  0  0  0  0  0
   22.9704   -5.1963  -13.6795 O   0  0  0  0  0  0  0  0  0  0  0  0
   21.2426   -3.6029  -15.9474 O   0  0  0  0  0  0  0  0  0  0  0  0
  2  1  1  1
  3  2  1  0
  4  3  1  0
  5  2  1  0
  5  6  2  0
  7  8  1  0
  8 10  1  0
  8  9  2  0
 10 11  1  0
 12 11  1  6
 12 13  1  0
 13  5  1  0
 14 12  1  0
 15 14  2  0
 16 14  1  0
 17 16  1  0
 17 21  1  0
 17 18  1  1
 19 23  1  0
 19 18  1  0
 20 19  2  0
 21 24  1  0
 22 21  2  0
M  END
$$$$
