CQD.pdb
     RDKit          3D

 24 23  0  0  1  0  0  0  0  0999 V2000
   25.3932  -17.4519  -17.8165 N   0  0  0  0  0  0  0  0  0  0  0  0
   25.2450  -16.1580  -17.2043 C   0  0  1  0  0  0  0  0  0  0  0  0
   26.3142  -15.2178  -17.7129 C   0  0  0  0  0  0  0  0  0  0  0  0
   27.9443  -15.8456  -17.2233 S   0  0  0  0  0  0  0  0  0  0  0  0
   23.8938  -15.5956  -17.3012 C   0  0  0  0  0  0  0  0  0  0  0  0
   23.3741  -15.5317  -18.4577 O   0  0  0  0  0  0  0  0  0  0  0  0
   18.8129  -16.5316  -14.2750 N   0  0  0  0  0  0  0  0  0  0  0  0
   18.4126  -15.4410  -15.0901 C   0  0  0  0  0  0  0  0  0  0  0  0
   17.1631  -15.1832  -15.0934 O   0  0  0  0  0  0  0  0  0  0  0  0
   19.3819  -14.6423  -15.8938 C   0  0  0  0  0  0  0  0  0  0  0  0
   20.7408  -15.1936  -15.6409 C   0  0  0  0  0  0  0  0  0  0  0  0
   21.8304  -14.5245  -16.4508 C   0  0  2  0  0  0  0  0  0  0  0  0
   23.1187  -15.1199  -16.2323 N   0  0  0  0  0  0  0  0  0  0  0  0
   21.8085  -13.0517  -16.2615 C   0  0  0  0  0  0  0  0  0  0  0  0
   22.3630  -12.6158  -15.2198 O   0  0  0  0  0  0  0  0  0  0  0  0
   21.2282  -12.1254  -17.1374 N   0  0  0  0  0  0  0  0  0  0  0  0
   21.1743  -10.6916  -16.8828 C   0  0  1  0  0  0  0  0  0  0  0  0
   20.9673   -9.9099  -18.1344 C   0  0  0  0  0  0  0  0  0  0  0  0
   20.9514   -8.4650  -17.8337 C   0  0  0  0  0  0  0  0  0  0  0  0
   21.8181   -7.9586  -17.0796 O   0  0  0  0  0  0  0  0  0  0  0  0
   20.1076  -10.4181  -15.8987 C   0  0  0  0  0  0  0  0  0  0  0  0
   19.0645  -11.1359  -15.9195 O   0  0  0  0  0  0  0  0  0  0  0  0
   19.9966   -7.5975  -18.3562 O   0  0  0  0  0  0  0  0  0  0  0  0
   20.1375   -9.4341  -14.9348 O   0  0  0  0  0  0  0  0  0  0  0  0
  2  1  1  6
  3  2  1  0
  4  3  1  0
  5  2  1  0
  5  6  2  0
  7  8  1  0
  8 10  1  0
  8  9  2  0
 10 11  1  0
 12 11  1  1
 12 13  1  0
 13  5  1  0
 14 12  1  0
 15 14  2  0
 16 14  1  0
 17 16  1  0
 17 21  1  0
 17 18  1  6
 19 23  1  0
 19 18  1  0
 20 19  2  0
 21 24  1  0
 22 21  2  0
M  END
$$$$
