CQD.pdb
     RDKit          3D

 24 23  0  0  1  0  0  0  0  0999 V2000
   28.1356  -20.7628  -16.0082 N   0  0  0  0  0  0  0  0  0  0  0  0
   27.4928  -19.8998  -15.0525 C   0  0  1  0  0  0  0  0  0  0  0  0
   27.0713  -18.6101  -15.7194 C   0  0  0  0  0  0  0  0  0  0  0  0
   28.5457  -17.6240  -16.0994 S   0  0  0  0  0  0  0  0  0  0  0  0
   26.4079  -20.5365  -14.2983 C   0  0  0  0  0  0  0  0  0  0  0  0
   25.7380  -21.4357  -14.8938 O   0  0  0  0  0  0  0  0  0  0  0  0
   25.0208  -20.4421   -8.1576 N   0  0  0  0  0  0  0  0  0  0  0  0
   26.2514  -20.6705   -8.8265 C   0  0  0  0  0  0  0  0  0  0  0  0
   27.2946  -20.6307   -8.0932 O   0  0  0  0  0  0  0  0  0  0  0  0
   26.3301  -20.9405  -10.2909 C   0  0  0  0  0  0  0  0  0  0  0  0
   24.9573  -20.8069  -10.8494 C   0  0  0  0  0  0  0  0  0  0  0  0
   24.9049  -20.8740  -12.3606 C   0  0  2  0  0  0  0  0  0  0  0  0
   26.0393  -20.2446  -12.9760 N   0  0  0  0  0  0  0  0  0  0  0  0
   23.5974  -20.3892  -12.8714 C   0  0  0  0  0  0  0  0  0  0  0  0
   23.5916  -19.2413  -13.3861 O   0  0  0  0  0  0  0  0  0  0  0  0
   22.3903  -21.0982  -12.8257 N   0  0  0  0  0  0  0  0  0  0  0  0
   21.1581  -20.6440  -13.4572 C   0  0  1  0  0  0  0  0  0  0  0  0
   21.3287  -20.4265  -14.9215 C   0  0  0  0  0  0  0  0  0  0  0  0
   20.0788  -19.9022  -15.5058 C   0  0  0  0  0  0  0  0  0  0  0  0
   19.2394  -19.3032  -14.7897 O   0  0  0  0  0  0  0  0  0  0  0  0
   20.0881  -21.6243  -13.1832 C   0  0  0  0  0  0  0  0  0  0  0  0
   18.9242  -21.1962  -12.9267 O   0  0  0  0  0  0  0  0  0  0  0  0
   19.7634  -20.0377  -16.8546 O   0  0  0  0  0  0  0  0  0  0  0  0
   20.2357  -22.9942  -13.1805 O   0  0  0  0  0  0  0  0  0  0  0  0
  2  1  1  6
  3  2  1  0
  4  3  1  0
  5  2  1  0
  5  6  2  0
  7  8  1  0
  8 10  1  0
  8  9  2  0
 10 11  1  0
 12 11  1  1
 12 13  1  0
 13  5  1  0
 14 12  1  0
 15 14  2  0
 16 14  1  0
 17 16  1  0
 17 21  1  0
 17 18  1  6
 19 23  1  0
 19 18  1  0
 20 19  2  0
 21 24  1  0
 22 21  2  0
M  END
$$$$
