CQD.pdb
     RDKit          3D

 24 23  0  0  1  0  0  0  0  0999 V2000
   27.6534  -22.8279  -16.7080 N   0  0  0  0  0  0  0  0  0  0  0  0
   27.3734  -21.5475  -16.1136 C   0  0  1  0  0  0  0  0  0  0  0  0
   27.1091  -20.5215  -17.1921 C   0  0  0  0  0  0  0  0  0  0  0  0
   28.6306  -20.2457  -18.1406 S   0  0  0  0  0  0  0  0  0  0  0  0
   26.3314  -21.5760  -15.0818 C   0  0  0  0  0  0  0  0  0  0  0  0
   25.4443  -22.4790  -15.1785 O   0  0  0  0  0  0  0  0  0  0  0  0
   25.8745  -21.7397   -9.7621 N   0  0  0  0  0  0  0  0  0  0  0  0
   24.6036  -21.1093   -9.8000 C   0  0  0  0  0  0  0  0  0  0  0  0
   23.7804  -21.4709   -8.8949 O   0  0  0  0  0  0  0  0  0  0  0  0
   24.2446  -20.0895  -10.8268 C   0  0  0  0  0  0  0  0  0  0  0  0
   25.3678  -20.0132  -11.7999 C   0  0  0  0  0  0  0  0  0  0  0  0
   25.1077  -20.7598  -13.0907 C   0  0  2  0  0  0  0  0  0  0  0  0
   26.2223  -20.6962  -13.9938 N   0  0  0  0  0  0  0  0  0  0  0  0
   23.8175  -20.3440  -13.6973 C   0  0  0  0  0  0  0  0  0  0  0  0
   23.8724  -19.4078  -14.5357 O   0  0  0  0  0  0  0  0  0  0  0  0
   22.5651  -20.9034  -13.4134 N   0  0  0  0  0  0  0  0  0  0  0  0
   21.3676  -20.6563  -14.2063 C   0  0  1  0  0  0  0  0  0  0  0  0
   21.4924  -21.1975  -15.5890 C   0  0  0  0  0  0  0  0  0  0  0  0
   20.8891  -20.2608  -16.5570 C   0  0  0  0  0  0  0  0  0  0  0  0
   20.3983  -19.1710  -16.1726 O   0  0  0  0  0  0  0  0  0  0  0  0
   20.2017  -21.2349  -13.5086 C   0  0  0  0  0  0  0  0  0  0  0  0
   20.4011  -21.9390  -12.4750 O   0  0  0  0  0  0  0  0  0  0  0  0
   20.8297  -20.5236  -17.9225 O   0  0  0  0  0  0  0  0  0  0  0  0
   18.8844  -21.0784  -13.8808 O   0  0  0  0  0  0  0  0  0  0  0  0
  2  1  1  6
  3  2  1  0
  4  3  1  0
  5  2  1  0
  5  6  2  0
  7  8  1  0
  8 10  1  0
  8  9  2  0
 10 11  1  0
 12 11  1  1
 12 13  1  0
 13  5  1  0
 14 12  1  0
 15 14  2  0
 16 14  1  0
 17 16  1  0
 17 21  1  0
 17 18  1  6
 19 23  1  0
 19 18  1  0
 20 19  2  0
 21 24  1  0
 22 21  2  0
M  END
$$$$
