CQD.pdb
     RDKit          3D

 24 23  0  0  1  0  0  0  0  0999 V2000
   19.0771   -9.2100  -13.1206 N   0  0  0  0  0  0  0  0  0  0  0  0
   19.2499   -8.4025  -11.9419 C   0  0  1  0  0  0  0  0  0  0  0  0
   20.4528   -7.5008  -12.1025 C   0  0  0  0  0  0  0  0  0  0  0  0
   21.9606   -8.5095  -12.0999 S   0  0  0  0  0  0  0  0  0  0  0  0
   18.0441   -7.6804  -11.5228 C   0  0  0  0  0  0  0  0  0  0  0  0
   17.3708   -7.1010  -12.4300 O   0  0  0  0  0  0  0  0  0  0  0  0
   13.1924   -8.8373   -8.0298 N   0  0  0  0  0  0  0  0  0  0  0  0
   13.7119   -9.4072   -9.2211 C   0  0  0  0  0  0  0  0  0  0  0  0
   13.1509  -10.4859   -9.6078 O   0  0  0  0  0  0  0  0  0  0  0  0
   14.8396   -8.7926   -9.9787 C   0  0  0  0  0  0  0  0  0  0  0  0
   15.3339   -7.6315   -9.1902 C   0  0  0  0  0  0  0  0  0  0  0  0
   16.3822   -6.8090   -9.9083 C   0  0  2  0  0  0  0  0  0  0  0  0
   17.5626   -7.5691  -10.2092 N   0  0  0  0  0  0  0  0  0  0  0  0
   16.6519   -5.5397   -9.1860 C   0  0  0  0  0  0  0  0  0  0  0  0
   17.4694   -5.6048   -8.2320 O   0  0  0  0  0  0  0  0  0  0  0  0
   16.0768   -4.2966   -9.4789 N   0  0  0  0  0  0  0  0  0  0  0  0
   16.4271   -3.0590   -8.7941 C   0  0  1  0  0  0  0  0  0  0  0  0
   16.9555   -2.0310   -9.7346 C   0  0  0  0  0  0  0  0  0  0  0  0
   17.2351   -0.7759   -9.0099 C   0  0  0  0  0  0  0  0  0  0  0  0
   16.3305    0.0767   -8.8340 O   0  0  0  0  0  0  0  0  0  0  0  0
   15.2424   -2.5602   -8.0670 C   0  0  0  0  0  0  0  0  0  0  0  0
   14.0986   -2.9839   -8.4077 O   0  0  0  0  0  0  0  0  0  0  0  0
   18.4895   -0.4697   -8.4904 O   0  0  0  0  0  0  0  0  0  0  0  0
   15.2602   -1.6569   -7.0268 O   0  0  0  0  0  0  0  0  0  0  0  0
  2  1  1  6
  3  2  1  0
  4  3  1  0
  5  2  1  0
  5  6  2  0
  7  8  1  0
  8 10  1  0
  8  9  2  0
 10 11  1  0
 12 11  1  1
 12 13  1  0
 13  5  1  0
 14 12  1  0
 15 14  2  0
 16 14  1  0
 17 16  1  0
 17 21  1  0
 17 18  1  6
 19 23  1  0
 19 18  1  0
 20 19  2  0
 21 24  1  0
 22 21  2  0
M  END
$$$$
