CQD.pdb
     RDKit          3D

 24 23  0  0  1  0  0  0  0  0999 V2000
   27.3195  -11.8154  -18.1215 N   0  0  0  0  0  0  0  0  0  0  0  0
   26.5447  -11.6584  -16.9188 C   0  0  1  0  0  0  0  0  0  0  0  0
   27.4252  -11.1591  -15.7959 C   0  0  0  0  0  0  0  0  0  0  0  0
   28.6412  -12.4381  -15.3758 S   0  0  0  0  0  0  0  0  0  0  0  0
   25.3238  -10.8633  -17.0868 C   0  0  0  0  0  0  0  0  0  0  0  0
   25.3465   -9.9442  -17.9623 O   0  0  0  0  0  0  0  0  0  0  0  0
   19.3470  -12.2539  -16.2699 N   0  0  0  0  0  0  0  0  0  0  0  0
   19.2783  -10.8540  -16.4924 C   0  0  0  0  0  0  0  0  0  0  0  0
   18.1030  -10.3668  -16.5879 O   0  0  0  0  0  0  0  0  0  0  0  0
   20.4949   -9.9997  -16.6083 C   0  0  0  0  0  0  0  0  0  0  0  0
   21.6821  -10.8752  -16.4125 C   0  0  0  0  0  0  0  0  0  0  0  0
   23.0036  -10.1586  -16.5886 C   0  0  2  0  0  0  0  0  0  0  0  0
   24.1286  -11.0233  -16.3687 N   0  0  0  0  0  0  0  0  0  0  0  0
   23.0424   -8.9064  -15.7912 C   0  0  0  0  0  0  0  0  0  0  0  0
   24.0767   -8.7179  -15.1004 O   0  0  0  0  0  0  0  0  0  0  0  0
   22.0341   -7.9350  -15.7487 N   0  0  0  0  0  0  0  0  0  0  0  0
   22.2012   -6.6178  -15.1481 C   0  0  1  0  0  0  0  0  0  0  0  0
   23.3705   -5.8896  -15.7165 C   0  0  0  0  0  0  0  0  0  0  0  0
   23.5251   -4.5807  -15.0521 C   0  0  0  0  0  0  0  0  0  0  0  0
   22.8297   -4.2858  -14.0493 O   0  0  0  0  0  0  0  0  0  0  0  0
   20.9538   -5.8474  -15.3249 C   0  0  0  0  0  0  0  0  0  0  0  0
   20.8658   -4.7037  -14.7883 O   0  0  0  0  0  0  0  0  0  0  0  0
   24.4303   -3.6174  -15.4878 O   0  0  0  0  0  0  0  0  0  0  0  0
   19.8484   -6.2612  -16.0358 O   0  0  0  0  0  0  0  0  0  0  0  0
  2  1  1  6
  3  2  1  0
  4  3  1  0
  5  2  1  0
  5  6  2  0
  7  8  1  0
  8 10  1  0
  8  9  2  0
 10 11  1  0
 12 11  1  1
 12 13  1  0
 13  5  1  0
 14 12  1  0
 15 14  2  0
 16 14  1  0
 17 16  1  0
 17 21  1  0
 17 18  1  6
 19 23  1  0
 19 18  1  0
 20 19  2  0
 21 24  1  0
 22 21  2  0
M  END
$$$$
