YFH.pdb
     RDKit          3D

 34 36  0  0  1  0  0  0  0  0999 V2000
   25.2407  -17.8053   15.7972 O   0  0  0  0  0  0  0  0  0  0  0  0
   25.7614  -18.6999   14.8696 C   0  0  0  0  0  0  0  0  0  0  0  0
   25.0625  -19.0467   13.7396 C   0  0  0  0  0  0  0  0  0  0  0  0
   25.5609  -19.9296   12.8110 C   0  0  0  0  0  0  0  0  0  0  0  0
   26.8126  -20.4784   13.0394 C   0  0  0  0  0  0  0  0  0  0  0  0
   27.4021  -21.4432   12.0633 C   0  0  0  0  0  0  0  0  0  0  0  0
   28.3799  -20.6827   11.1931 C   0  0  2  0  0  0  0  0  0  0  0  0
   27.7072  -19.6816   10.4265 N   0  0  0  0  0  0  0  0  0  0  0  0
   29.0980  -21.6686   10.3142 C   0  0  0  0  0  0  0  0  0  0  0  0
   28.4680  -22.2977    9.4268 O   0  0  0  0  0  0  0  0  0  0  0  0
   27.5431  -20.1551   14.1605 C   0  0  0  0  0  0  0  0  0  0  0  0
   26.9962  -19.2550   15.0740 C   0  0  0  0  0  0  0  0  0  0  0  0
   30.4768  -21.9227   10.4461 N   0  0  0  0  0  0  0  0  0  0  0  0
   31.1917  -22.9018    9.6141 C   0  0  1  0  0  0  0  0  0  0  0  0
   32.4947  -22.3022    9.1305 C   0  0  0  0  0  0  0  0  0  0  0  0
   32.3698  -21.5048    7.9073 C   0  0  0  0  0  0  0  0  0  0  0  0
   32.8381  -21.9974    6.7085 C   0  0  0  0  0  0  0  0  0  0  0  0
   32.7396  -21.2708    5.5279 C   0  0  0  0  0  0  0  0  0  0  0  0
   32.1637  -20.0193    5.5161 C   0  0  0  0  0  0  0  0  0  0  0  0
   31.6926  -19.5184    6.7098 C   0  0  0  0  0  0  0  0  0  0  0  0
   31.7986  -20.2560    7.8790 C   0  0  0  0  0  0  0  0  0  0  0  0
   31.3507  -24.1801   10.3100 C   0  0  0  0  0  0  0  0  0  0  0  0
   30.7695  -24.3587   11.4210 O   0  0  0  0  0  0  0  0  0  0  0  0
   32.1169  -25.2686    9.8361 N   0  0  0  0  0  0  0  0  0  0  0  0
   32.0431  -26.5725   10.4588 C   0  0  1  0  0  0  0  0  0  0  0  0
   30.5982  -27.0612   10.5114 C   0  0  0  0  0  0  0  0  0  0  0  0
   30.6196  -28.3848   11.1898 C   0  0  0  0  0  0  0  0  0  0  0  0
   31.7365  -28.9812   11.7451 C   0  0  0  0  0  0  0  0  0  0  0  0
   31.3710  -30.1671   12.2664 N   0  0  0  0  0  0  0  0  0  0  0  0
   30.0628  -30.3349   12.0569 C   0  0  0  0  0  0  0  0  0  0  0  0
   29.6155  -29.2517   11.4047 N   0  0  0  0  0  0  0  0  0  0  0  0
   32.8953  -27.4966    9.6994 C   0  0  0  0  0  0  0  0  0  0  0  0
   33.6429  -28.2859   10.3182 O   0  0  0  0  0  0  0  0  0  0  0  0
   32.8934  -27.5187    8.3253 O   0  0  0  0  0  0  0  0  0  0  0  0
  2  1  1  0
  3  2  2  0
  4  3  1  0
  5  4  2  0
  5 11  1  0
  6  5  1  0
  7  6  1  0
  7  8  1  6
  9  7  1  0
  9 10  2  0
 11 12  2  0
 12  2  1  0
 13  9  1  0
 14 13  1  0
 14 15  1  1
 16 15  1  0
 16 17  2  0
 17 18  1  0
 19 18  2  0
 20 19  1  0
 21 20  2  0
 21 16  1  0
 22 14  1  0
 23 22  2  0
 24 22  1  0
 25 26  1  6
 25 24  1  0
 26 27  1  0
 27 28  2  0
 28 29  1  0
 30 29  1  0
 31 27  1  0
 31 30  2  0
 32 34  1  0
 32 25  1  0
 33 32  2  0
M  END
$$$$
