YFH.pdb
     RDKit          3D

 34 36  0  0  1  0  0  0  0  0999 V2000
   23.9617  -17.8732  -17.9557 O   0  0  0  0  0  0  0  0  0  0  0  0
   24.0536  -18.4770  -16.7072 C   0  0  0  0  0  0  0  0  0  0  0  0
   23.6811  -19.7847  -16.5156 C   0  0  0  0  0  0  0  0  0  0  0  0
   23.7649  -20.3990  -15.2884 C   0  0  0  0  0  0  0  0  0  0  0  0
   24.2437  -19.6581  -14.2199 C   0  0  0  0  0  0  0  0  0  0  0  0
   24.3555  -20.2755  -12.8644 C   0  0  0  0  0  0  0  0  0  0  0  0
   25.8198  -20.5569  -12.6027 C   0  0  2  0  0  0  0  0  0  0  0  0
   26.2995  -21.5957  -13.4589 N   0  0  0  0  0  0  0  0  0  0  0  0
   25.9819  -20.9121  -11.1510 C   0  0  0  0  0  0  0  0  0  0  0  0
   25.6275  -22.0443  -10.7355 O   0  0  0  0  0  0  0  0  0  0  0  0
   24.6268  -18.3446  -14.3729 C   0  0  0  0  0  0  0  0  0  0  0  0
   24.5238  -17.7647  -15.6365 C   0  0  0  0  0  0  0  0  0  0  0  0
   26.5259  -20.0100  -10.2163 N   0  0  0  0  0  0  0  0  0  0  0  0
   26.6832  -20.3349   -8.7909 C   0  0  1  0  0  0  0  0  0  0  0  0
   27.7914  -19.4921   -8.1972 C   0  0  0  0  0  0  0  0  0  0  0  0
   27.9500  -19.6451   -6.7484 C   0  0  0  0  0  0  0  0  0  0  0  0
   27.7109  -18.5788   -5.9088 C   0  0  0  0  0  0  0  0  0  0  0  0
   27.8521  -18.6842   -4.5303 C   0  0  0  0  0  0  0  0  0  0  0  0
   28.2403  -19.8717   -3.9499 C   0  0  0  0  0  0  0  0  0  0  0  0
   28.4816  -20.9436   -4.7812 C   0  0  0  0  0  0  0  0  0  0  0  0
   28.3362  -20.8219   -6.1546 C   0  0  0  0  0  0  0  0  0  0  0  0
   25.4105  -20.2290   -8.0748 C   0  0  0  0  0  0  0  0  0  0  0  0
   24.5874  -19.3237   -8.4019 O   0  0  0  0  0  0  0  0  0  0  0  0
   25.0040  -21.0758   -7.0193 N   0  0  0  0  0  0  0  0  0  0  0  0
   23.6051  -21.3207   -6.7430 C   0  0  1  0  0  0  0  0  0  0  0  0
   22.9468  -22.0494   -7.9113 C   0  0  0  0  0  0  0  0  0  0  0  0
   21.5118  -22.2158   -7.5568 C   0  0  0  0  0  0  0  0  0  0  0  0
   20.9420  -21.8710   -6.3452 C   0  0  0  0  0  0  0  0  0  0  0  0
   19.6295  -22.1657   -6.3929 N   0  0  0  0  0  0  0  0  0  0  0  0
   19.3567  -22.6836   -7.5932 C   0  0  0  0  0  0  0  0  0  0  0  0
   20.5014  -22.7105   -8.2917 N   0  0  0  0  0  0  0  0  0  0  0  0
   23.5083  -22.0992   -5.5014 C   0  0  0  0  0  0  0  0  0  0  0  0
   24.4160  -22.9121   -5.2182 O   0  0  0  0  0  0  0  0  0  0  0  0
   22.4467  -21.9583   -4.6402 O   0  0  0  0  0  0  0  0  0  0  0  0
  2  1  1  0
  3  2  2  0
  4  3  1  0
  5  4  2  0
  5 11  1  0
  6  5  1  0
  7  6  1  0
  7  8  1  6
  9  7  1  0
  9 10  2  0
 11 12  2  0
 12  2  1  0
 13  9  1  0
 14 13  1  0
 14 15  1  1
 16 15  1  0
 16 17  2  0
 17 18  1  0
 19 18  2  0
 20 19  1  0
 21 20  2  0
 21 16  1  0
 22 14  1  0
 23 22  2  0
 24 22  1  0
 25 26  1  6
 25 24  1  0
 26 27  1  0
 27 28  2  0
 28 29  1  0
 30 29  1  0
 31 27  1  0
 31 30  2  0
 32 34  1  0
 32 25  1  0
 33 32  2  0
M  END
$$$$
