YFH.pdb
     RDKit          3D

 34 36  0  0  1  0  0  0  0  0999 V2000
   34.5054  -29.5304  -18.8023 O   0  0  0  0  0  0  0  0  0  0  0  0
   35.7635  -30.0030  -19.1568 C   0  0  0  0  0  0  0  0  0  0  0  0
   35.9825  -31.3347  -19.4101 C   0  0  0  0  0  0  0  0  0  0  0  0
   37.2195  -31.8207  -19.7619 C   0  0  0  0  0  0  0  0  0  0  0  0
   38.2695  -30.9218  -19.8594 C   0  0  0  0  0  0  0  0  0  0  0  0
   39.6346  -31.3955  -20.2378 C   0  0  0  0  0  0  0  0  0  0  0  0
   40.5196  -31.2836  -19.0147 C   0  0  2  0  0  0  0  0  0  0  0  0
   41.8766  -31.5938  -19.3379 N   0  0  0  0  0  0  0  0  0  0  0  0
   39.9768  -32.1981  -17.9521 C   0  0  0  0  0  0  0  0  0  0  0  0
   40.1398  -33.4410  -18.0465 O   0  0  0  0  0  0  0  0  0  0  0  0
   38.0889  -29.5795  -19.6130 C   0  0  0  0  0  0  0  0  0  0  0  0
   36.8162  -29.1335  -19.2594 C   0  0  0  0  0  0  0  0  0  0  0  0
   39.2781  -31.7104  -16.8308 N   0  0  0  0  0  0  0  0  0  0  0  0
   38.7475  -32.5877  -15.7767 C   0  0  1  0  0  0  0  0  0  0  0  0
   38.7972  -31.8693  -14.4454 C   0  0  0  0  0  0  0  0  0  0  0  0
   38.3742  -32.6886  -13.3064 C   0  0  0  0  0  0  0  0  0  0  0  0
   37.1834  -32.4224  -12.6659 C   0  0  0  0  0  0  0  0  0  0  0  0
   36.7491  -33.1753  -11.5816 C   0  0  0  0  0  0  0  0  0  0  0  0
   37.5029  -34.2253  -11.1048 C   0  0  0  0  0  0  0  0  0  0  0  0
   38.6951  -34.4991  -11.7387 C   0  0  0  0  0  0  0  0  0  0  0  0
   39.1142  -33.7382  -12.8193 C   0  0  0  0  0  0  0  0  0  0  0  0
   37.4203  -33.0987  -16.1244 C   0  0  0  0  0  0  0  0  0  0  0  0
   36.5430  -32.2990  -16.5659 O   0  0  0  0  0  0  0  0  0  0  0  0
   37.0186  -34.4486  -16.0106 N   0  0  0  0  0  0  0  0  0  0  0  0
   35.7554  -34.9087  -16.5454 C   0  0  1  0  0  0  0  0  0  0  0  0
   35.6925  -34.6727  -18.0520 C   0  0  0  0  0  0  0  0  0  0  0  0
   34.3637  -35.1636  -18.5060 C   0  0  0  0  0  0  0  0  0  0  0  0
   33.2516  -35.3223  -17.7001 C   0  0  0  0  0  0  0  0  0  0  0  0
   32.2393  -35.7837  -18.4579 N   0  0  0  0  0  0  0  0  0  0  0  0
   32.6787  -35.9198  -19.7115 C   0  0  0  0  0  0  0  0  0  0  0  0
   33.9656  -35.5424  -19.7322 N   0  0  0  0  0  0  0  0  0  0  0  0
   35.6059  -36.3327  -16.2183 C   0  0  0  0  0  0  0  0  0  0  0  0
   36.6187  -37.0669  -16.2105 O   0  0  0  0  0  0  0  0  0  0  0  0
   34.3820  -36.8815  -15.9190 O   0  0  0  0  0  0  0  0  0  0  0  0
  2  1  1  0
  3  2  2  0
  4  3  1  0
  5  4  2  0
  5 11  1  0
  6  5  1  0
  7  6  1  0
  7  8  1  6
  9  7  1  0
  9 10  2  0
 11 12  2  0
 12  2  1  0
 13  9  1  0
 14 13  1  0
 14 15  1  1
 16 15  1  0
 16 17  2  0
 17 18  1  0
 19 18  2  0
 20 19  1  0
 21 20  2  0
 21 16  1  0
 22 14  1  0
 23 22  2  0
 24 22  1  0
 25 26  1  6
 25 24  1  0
 26 27  1  0
 27 28  2  0
 28 29  1  0
 30 29  1  0
 31 27  1  0
 31 30  2  0
 32 34  1  0
 32 25  1  0
 33 32  2  0
M  END
$$$$
