YFH.pdb
     RDKit          3D

 34 36  0  0  1  0  0  0  0  0999 V2000
   19.4302  -18.3974  -20.1042 O   0  0  0  0  0  0  0  0  0  0  0  0
   19.6919  -17.1958  -19.4565 C   0  0  0  0  0  0  0  0  0  0  0  0
   20.0568  -16.0711  -20.1548 C   0  0  0  0  0  0  0  0  0  0  0  0
   20.3196  -14.8740  -19.5318 C   0  0  0  0  0  0  0  0  0  0  0  0
   20.2074  -14.8188  -18.1518 C   0  0  0  0  0  0  0  0  0  0  0  0
   20.4815  -13.5437  -17.4237 C   0  0  0  0  0  0  0  0  0  0  0  0
   21.9823  -13.4040  -17.2827 C   0  0  2  0  0  0  0  0  0  0  0  0
   22.5465  -14.5653  -16.6701 N   0  0  0  0  0  0  0  0  0  0  0  0
   22.2697  -12.1601  -16.4890 C   0  0  0  0  0  0  0  0  0  0  0  0
   22.2452  -12.1941  -15.2326 O   0  0  0  0  0  0  0  0  0  0  0  0
   19.8441  -15.9252  -17.4175 C   0  0  0  0  0  0  0  0  0  0  0  0
   19.5876  -17.1171  -18.0935 C   0  0  0  0  0  0  0  0  0  0  0  0
   22.5719  -10.9313  -17.1072 N   0  0  0  0  0  0  0  0  0  0  0  0
   22.9209   -9.7205  -16.3494 C   0  0  1  0  0  0  0  0  0  0  0  0
   24.3004   -9.2477  -16.7548 C   0  0  0  0  0  0  0  0  0  0  0  0
   25.3820  -10.1619  -16.3778 C   0  0  0  0  0  0  0  0  0  0  0  0
   25.8591  -10.1749  -15.0850 C   0  0  0  0  0  0  0  0  0  0  0  0
   26.8843  -11.0258  -14.6897 C   0  0  0  0  0  0  0  0  0  0  0  0
   27.4649  -11.8949  -15.5872 C   0  0  0  0  0  0  0  0  0  0  0  0
   26.9946  -11.8892  -16.8821 C   0  0  0  0  0  0  0  0  0  0  0  0
   25.9711  -11.0341  -17.2604 C   0  0  0  0  0  0  0  0  0  0  0  0
   21.8836   -8.6947  -16.4731 C   0  0  0  0  0  0  0  0  0  0  0  0
   21.4761   -8.3594  -17.6245 O   0  0  0  0  0  0  0  0  0  0  0  0
   21.2744   -8.0260  -15.3876 N   0  0  0  0  0  0  0  0  0  0  0  0
   20.2844   -6.9919  -15.5967 C   0  0  1  0  0  0  0  0  0  0  0  0
   19.1224   -7.1562  -14.6210 C   0  0  0  0  0  0  0  0  0  0  0  0
   18.2524   -8.2305  -15.1700 C   0  0  0  0  0  0  0  0  0  0  0  0
   18.4644   -8.9015  -16.3601 C   0  0  0  0  0  0  0  0  0  0  0  0
   17.4751   -9.7993  -16.5246 N   0  0  0  0  0  0  0  0  0  0  0  0
   16.6498   -9.7142  -15.4782 C   0  0  0  0  0  0  0  0  0  0  0  0
   17.1273   -8.7623  -14.6629 N   0  0  0  0  0  0  0  0  0  0  0  0
   20.9386   -5.6865  -15.4379 C   0  0  0  0  0  0  0  0  0  0  0  0
   20.2533   -4.6445  -15.5348 O   0  0  0  0  0  0  0  0  0  0  0  0
   22.2849   -5.5782  -15.1844 O   0  0  0  0  0  0  0  0  0  0  0  0
  2  1  1  0
  3  2  2  0
  4  3  1  0
  5  4  2  0
  5 11  1  0
  6  5  1  0
  7  6  1  0
  7  8  1  1
  9  7  1  0
  9 10  2  0
 11 12  2  0
 12  2  1  0
 13  9  1  0
 14 13  1  0
 14 15  1  6
 16 15  1  0
 16 17  2  0
 17 18  1  0
 19 18  2  0
 20 19  1  0
 21 20  2  0
 21 16  1  0
 22 14  1  0
 23 22  2  0
 24 22  1  0
 25 26  1  1
 25 24  1  0
 26 27  1  0
 27 28  2  0
 28 29  1  0
 30 29  1  0
 31 27  1  0
 31 30  2  0
 32 34  1  0
 32 25  1  0
 33 32  2  0
M  END
$$$$
