YFH.pdb
     RDKit          3D

 34 36  0  0  1  0  0  0  0  0999 V2000
   29.5186  -14.6424  -17.2676 O   0  0  0  0  0  0  0  0  0  0  0  0
   28.7314  -15.6332  -16.6928 C   0  0  0  0  0  0  0  0  0  0  0  0
   28.1365  -15.4540  -15.4683 C   0  0  0  0  0  0  0  0  0  0  0  0
   27.3546  -16.4222  -14.8839 C   0  0  0  0  0  0  0  0  0  0  0  0
   27.1716  -17.6131  -15.5681 C   0  0  0  0  0  0  0  0  0  0  0  0
   26.3320  -18.6993  -14.9797 C   0  0  0  0  0  0  0  0  0  0  0  0
   27.2216  -19.5433  -14.0920 C   0  0  2  0  0  0  0  0  0  0  0  0
   28.2172  -20.2185  -14.8635 N   0  0  0  0  0  0  0  0  0  0  0  0
   26.3545  -20.5092  -13.3336 C   0  0  0  0  0  0  0  0  0  0  0  0
   26.0668  -21.6256  -13.8346 O   0  0  0  0  0  0  0  0  0  0  0  0
   27.7518  -17.8296  -16.7977 C   0  0  0  0  0  0  0  0  0  0  0  0
   28.5363  -16.8183  -17.3503 C   0  0  0  0  0  0  0  0  0  0  0  0
   25.8397  -20.2095  -12.0575 N   0  0  0  0  0  0  0  0  0  0  0  0
   24.7307  -20.9580  -11.4476 C   0  0  1  0  0  0  0  0  0  0  0  0
   25.0054  -21.1614   -9.9731 C   0  0  0  0  0  0  0  0  0  0  0  0
   26.3594  -20.7843   -9.5584 C   0  0  0  0  0  0  0  0  0  0  0  0
   26.5439  -19.8651   -8.5484 C   0  0  0  0  0  0  0  0  0  0  0  0
   27.8117  -19.4808   -8.1284 C   0  0  0  0  0  0  0  0  0  0  0  0
   28.9398  -20.0120   -8.7142 C   0  0  0  0  0  0  0  0  0  0  0  0
   28.7655  -20.9318   -9.7249 C   0  0  0  0  0  0  0  0  0  0  0  0
   27.4937  -21.3045  -10.1323 C   0  0  0  0  0  0  0  0  0  0  0  0
   23.4406  -20.3248  -11.7275 C   0  0  0  0  0  0  0  0  0  0  0  0
   22.7852  -19.8040  -10.7770 O   0  0  0  0  0  0  0  0  0  0  0  0
   22.8434  -20.2370  -13.0051 N   0  0  0  0  0  0  0  0  0  0  0  0
   21.5319  -20.7895  -13.2657 C   0  0  1  0  0  0  0  0  0  0  0  0
   21.6436  -22.2344  -13.7444 C   0  0  0  0  0  0  0  0  0  0  0  0
   21.9925  -22.1798  -15.1893 C   0  0  0  0  0  0  0  0  0  0  0  0
   22.7961  -21.2239  -15.7826 C   0  0  0  0  0  0  0  0  0  0  0  0
   22.8844  -21.4985  -17.0974 N   0  0  0  0  0  0  0  0  0  0  0  0
   22.1634  -22.5941  -17.3489 C   0  0  0  0  0  0  0  0  0  0  0  0
   21.6268  -23.0003  -16.1887 N   0  0  0  0  0  0  0  0  0  0  0  0
   20.7359  -20.6914  -12.0353 C   0  0  0  0  0  0  0  0  0  0  0  0
   19.6962  -19.9957  -12.0347 O   0  0  0  0  0  0  0  0  0  0  0  0
   21.1018  -21.3447  -10.8830 O   0  0  0  0  0  0  0  0  0  0  0  0
  2  1  1  0
  3  2  2  0
  4  3  1  0
  5  4  2  0
  5 11  1  0
  6  5  1  0
  7  6  1  0
  7  8  1  6
  9  7  1  0
  9 10  2  0
 11 12  2  0
 12  2  1  0
 13  9  1  0
 14 13  1  0
 14 15  1  1
 16 15  1  0
 16 17  2  0
 17 18  1  0
 19 18  2  0
 20 19  1  0
 21 20  2  0
 21 16  1  0
 22 14  1  0
 23 22  2  0
 24 22  1  0
 25 26  1  1
 25 24  1  0
 26 27  1  0
 27 28  2  0
 28 29  1  0
 30 29  1  0
 31 27  1  0
 31 30  2  0
 32 34  1  0
 32 25  1  0
 33 32  2  0
M  END
$$$$
