YFH.pdb
     RDKit          3D

 34 36  0  0  1  0  0  0  0  0999 V2000
   27.9933  -14.5009  -26.7832 O   0  0  0  0  0  0  0  0  0  0  0  0
   27.2626  -14.5406  -25.6016 C   0  0  0  0  0  0  0  0  0  0  0  0
   26.5491  -15.6563  -25.2386 C   0  0  0  0  0  0  0  0  0  0  0  0
   25.8205  -15.7144  -24.0741 C   0  0  0  0  0  0  0  0  0  0  0  0
   25.8174  -14.5998  -23.2509 C   0  0  0  0  0  0  0  0  0  0  0  0
   25.0428  -14.6081  -21.9738 C   0  0  0  0  0  0  0  0  0  0  0  0
   26.0159  -14.8663  -20.8432 C   0  0  2  0  0  0  0  0  0  0  0  0
   26.4676  -16.2220  -20.8597 N   0  0  0  0  0  0  0  0  0  0  0  0
   25.3382  -14.5206  -19.5467 C   0  0  0  0  0  0  0  0  0  0  0  0
   24.9127  -15.4336  -18.7945 O   0  0  0  0  0  0  0  0  0  0  0  0
   26.5203  -13.4631  -23.5810 C   0  0  0  0  0  0  0  0  0  0  0  0
   27.2445  -13.4514  -24.7722 C   0  0  0  0  0  0  0  0  0  0  0  0
   25.1558  -13.1878  -19.1299 N   0  0  0  0  0  0  0  0  0  0  0  0
   24.4091  -12.8256  -17.9160 C   0  0  1  0  0  0  0  0  0  0  0  0
   24.9990  -11.5689  -17.3130 C   0  0  0  0  0  0  0  0  0  0  0  0
   26.3889  -11.7118  -16.8708 C   0  0  0  0  0  0  0  0  0  0  0  0
   26.7413  -12.7302  -16.0118 C   0  0  0  0  0  0  0  0  0  0  0  0
   28.0479  -12.8973  -15.5689 C   0  0  0  0  0  0  0  0  0  0  0  0
   29.0463  -12.0409  -15.9782 C   0  0  0  0  0  0  0  0  0  0  0  0
   28.7036  -11.0196  -16.8370 C   0  0  0  0  0  0  0  0  0  0  0  0
   27.3954  -10.8665  -17.2696 C   0  0  0  0  0  0  0  0  0  0  0  0
   22.9715  -12.7374  -18.1790 C   0  0  0  0  0  0  0  0  0  0  0  0
   22.5708  -12.3396  -19.3127 O   0  0  0  0  0  0  0  0  0  0  0  0
   21.9583  -13.0702  -17.2521 N   0  0  0  0  0  0  0  0  0  0  0  0
   20.8658  -13.9486  -17.6098 C   0  0  1  0  0  0  0  0  0  0  0  0
   21.3962  -15.2943  -18.0966 C   0  0  0  0  0  0  0  0  0  0  0  0
   20.2158  -16.0840  -18.5387 C   0  0  0  0  0  0  0  0  0  0  0  0
   19.0505  -16.2544  -17.8144 C   0  0  0  0  0  0  0  0  0  0  0  0
   18.2126  -17.0262  -18.5314 N   0  0  0  0  0  0  0  0  0  0  0  0
   18.8128  -17.3458  -19.6808 C   0  0  0  0  0  0  0  0  0  0  0  0
   20.0249  -16.7715  -19.6774 N   0  0  0  0  0  0  0  0  0  0  0  0
   19.9962  -14.1066  -16.4368 C   0  0  0  0  0  0  0  0  0  0  0  0
   20.5083  -14.3882  -15.3308 O   0  0  0  0  0  0  0  0  0  0  0  0
   18.6333  -13.9523  -16.5207 O   0  0  0  0  0  0  0  0  0  0  0  0
  2  1  1  0
  3  2  2  0
  4  3  1  0
  5  4  2  0
  5 11  1  0
  6  5  1  0
  7  6  1  0
  7  8  1  1
  9  7  1  0
  9 10  2  0
 11 12  2  0
 12  2  1  0
 13  9  1  0
 14 13  1  0
 14 15  1  6
 16 15  1  0
 16 17  2  0
 17 18  1  0
 19 18  2  0
 20 19  1  0
 21 20  2  0
 21 16  1  0
 22 14  1  0
 23 22  2  0
 24 22  1  0
 25 26  1  1
 25 24  1  0
 26 27  1  0
 27 28  2  0
 28 29  1  0
 30 29  1  0
 31 27  1  0
 31 30  2  0
 32 34  1  0
 32 25  1  0
 33 32  2  0
M  END
$$$$
