YFH.pdb
     RDKit          3D

 34 36  0  0  1  0  0  0  0  0999 V2000
   20.6654  -12.6318  -27.7980 O   0  0  0  0  0  0  0  0  0  0  0  0
   20.1129  -12.2684  -26.5755 C   0  0  0  0  0  0  0  0  0  0  0  0
   18.8064  -12.5571  -26.2666 C   0  0  0  0  0  0  0  0  0  0  0  0
   18.2424  -12.2057  -25.0630 C   0  0  0  0  0  0  0  0  0  0  0  0
   19.0340  -11.5382  -24.1423 C   0  0  0  0  0  0  0  0  0  0  0  0
   18.4724  -11.1327  -22.8189 C   0  0  0  0  0  0  0  0  0  0  0  0
   18.9579  -12.1266  -21.7854 C   0  0  2  0  0  0  0  0  0  0  0  0
   18.4505  -13.4343  -22.0588 N   0  0  0  0  0  0  0  0  0  0  0  0
   18.5390  -11.6394  -20.4263 C   0  0  0  0  0  0  0  0  0  0  0  0
   17.3340  -11.7098  -20.0750 O   0  0  0  0  0  0  0  0  0  0  0  0
   20.3479  -11.2313  -24.4158 C   0  0  0  0  0  0  0  0  0  0  0  0
   20.8758  -11.6080  -25.6500 C   0  0  0  0  0  0  0  0  0  0  0  0
   19.4596  -11.0955  -19.5099 N   0  0  0  0  0  0  0  0  0  0  0  0
   19.0862  -10.6943  -18.1454 C   0  0  1  0  0  0  0  0  0  0  0  0
   19.9772  -11.4011  -17.1466 C   0  0  0  0  0  0  0  0  0  0  0  0
   19.7710  -12.8505  -17.0803 C   0  0  0  0  0  0  0  0  0  0  0  0
   18.9051  -13.3853  -16.1513 C   0  0  0  0  0  0  0  0  0  0  0  0
   18.6846  -14.7542  -16.0564 C   0  0  0  0  0  0  0  0  0  0  0  0
   19.3316  -15.6327  -16.8975 C   0  0  0  0  0  0  0  0  0  0  0  0
   20.1993  -15.1074  -17.8297 C   0  0  0  0  0  0  0  0  0  0  0  0
   20.4083  -13.7392  -17.9114 C   0  0  0  0  0  0  0  0  0  0  0  0
   19.0744   -9.2374  -18.0009 C   0  0  0  0  0  0  0  0  0  0  0  0
   19.6807   -8.5238  -18.8536 O   0  0  0  0  0  0  0  0  0  0  0  0
   18.4232   -8.5334  -16.9632 N   0  0  0  0  0  0  0  0  0  0  0  0
   18.3178   -7.0905  -16.9793 C   0  0  1  0  0  0  0  0  0  0  0  0
   17.7460   -6.6089  -18.3099 C   0  0  0  0  0  0  0  0  0  0  0  0
   17.8091   -5.1229  -18.2890 C   0  0  0  0  0  0  0  0  0  0  0  0
   18.4435   -4.3627  -17.3241 C   0  0  0  0  0  0  0  0  0  0  0  0
   18.2898   -3.0627  -17.6373 N   0  0  0  0  0  0  0  0  0  0  0  0
   17.5805   -2.9817  -18.7659 C   0  0  0  0  0  0  0  0  0  0  0  0
   17.2935   -4.2331  -19.1539 N   0  0  0  0  0  0  0  0  0  0  0  0
   17.4744   -6.6757  -15.8507 C   0  0  0  0  0  0  0  0  0  0  0  0
   16.3668   -7.2314  -15.6798 O   0  0  0  0  0  0  0  0  0  0  0  0
   17.8697   -5.6930  -14.9752 O   0  0  0  0  0  0  0  0  0  0  0  0
  2  1  1  0
  3  2  2  0
  4  3  1  0
  5  4  2  0
  5 11  1  0
  6  5  1  0
  7  6  1  0
  7  8  1  6
  9  7  1  0
  9 10  2  0
 11 12  2  0
 12  2  1  0
 13  9  1  0
 14 13  1  0
 14 15  1  1
 16 15  1  0
 16 17  2  0
 17 18  1  0
 19 18  2  0
 20 19  1  0
 21 20  2  0
 21 16  1  0
 22 14  1  0
 23 22  2  0
 24 22  1  0
 25 26  1  6
 25 24  1  0
 26 27  1  0
 27 28  2  0
 28 29  1  0
 30 29  1  0
 31 27  1  0
 31 30  2  0
 32 34  1  0
 32 25  1  0
 33 32  2  0
M  END
$$$$
