VIC.pdb
     RDKit          3D

 22 21  0  0  1  0  0  0  0  0999 V2000
   20.0583  -20.5568  -12.0823 C   0  0  0  0  0  0  0  0  0  0  0  0
   20.1845  -19.9427  -13.4555 C   0  0  2  0  0  0  0  0  0  0  0  0
   18.9237  -20.2124  -14.2468 C   0  0  0  0  0  0  0  0  0  0  0  0
   21.3308  -20.4756  -14.2379 C   0  0  2  0  0  0  0  0  0  0  0  0
   21.3515  -21.9111  -14.3524 N   0  0  0  0  0  0  0  0  0  0  0  0
   22.6603  -19.9961  -13.7825 C   0  0  0  0  0  0  0  0  0  0  0  0
   22.9077  -18.7633  -13.6249 O   0  0  0  0  0  0  0  0  0  0  0  0
   25.1670  -21.0464   -9.3702 C   0  0  0  0  0  0  0  0  0  0  0  0
   24.6708  -20.4910  -10.6871 C   0  0  0  0  0  0  0  0  0  0  0  0
   25.5797  -20.9218  -11.8523 C   0  0  2  0  0  0  0  0  0  0  0  0
   26.9983  -20.5335  -11.5082 C   0  0  0  0  0  0  0  0  0  0  0  0
   25.0822  -20.4688  -13.1533 C   0  0  2  0  0  0  0  0  0  0  0  0
   23.7393  -20.8812  -13.4979 N   0  0  0  0  0  0  0  0  0  0  0  0
   26.0010  -20.4481  -14.3019 C   0  0  0  0  0  0  0  0  0  0  0  0
   26.1799  -21.3610  -15.1353 O   0  0  0  0  0  0  0  0  0  0  0  0
   26.8135  -19.2775  -14.5402 N   0  0  0  0  0  0  0  0  0  0  0  0
   27.6654  -19.1275  -15.6773 C   0  0  1  0  0  0  0  0  0  0  0  0
   28.2332  -17.7700  -15.9098 C   0  0  0  0  0  0  0  0  0  0  0  0
   27.1702  -16.4089  -15.4693 S   0  0  0  0  0  0  0  0  0  0  0  0
   28.6698  -20.2153  -15.8197 C   0  0  0  0  0  0  0  0  0  0  0  0
   28.9808  -21.0550  -14.9658 O   0  0  0  0  0  0  0  0  0  0  0  0
   29.3273  -20.2966  -17.0419 O   0  0  0  0  0  0  0  0  0  0  0  0
  2  1  1  1
  2  3  1  0
  4  2  1  0
  4  6  1  0
  4  5  1  1
  6 13  1  0
  6  7  2  0
  8  9  1  0
  9 10  1  0
 10 12  1  0
 10 11  1  1
 12 14  1  0
 12 13  1  6
 14 15  2  0
 16 14  1  0
 16 17  1  0
 17 20  1  0
 17 18  1  1
 19 18  1  0
 20 22  1  0
 21 20  2  0
M  END
$$$$
