VIC.pdb
     RDKit          3D

 22 21  0  0  1  0  0  0  0  0999 V2000
   23.8551  -20.6861  -14.2485 C   0  0  0  0  0  0  0  0  0  0  0  0
   24.9423  -19.7494  -13.7799 C   0  0  2  0  0  0  0  0  0  0  0  0
   25.6693  -19.1804  -14.9783 C   0  0  0  0  0  0  0  0  0  0  0  0
   25.9527  -20.4057  -12.9090 C   0  0  2  0  0  0  0  0  0  0  0  0
   26.7264  -21.4264  -13.5675 N   0  0  0  0  0  0  0  0  0  0  0  0
   25.4096  -20.9408  -11.6348 C   0  0  0  0  0  0  0  0  0  0  0  0
   25.0203  -22.1419  -11.5266 O   0  0  0  0  0  0  0  0  0  0  0  0
   27.5598  -19.4268   -6.9626 C   0  0  0  0  0  0  0  0  0  0  0  0
   26.9054  -20.1923   -8.0916 C   0  0  0  0  0  0  0  0  0  0  0  0
   25.3706  -20.1309   -7.9913 C   0  0  2  0  0  0  0  0  0  0  0  0
   24.9573  -20.8116   -6.7077 C   0  0  0  0  0  0  0  0  0  0  0  0
   24.7064  -20.5935   -9.2120 C   0  0  2  0  0  0  0  0  0  0  0  0
   25.2871  -20.1463  -10.4590 N   0  0  0  0  0  0  0  0  0  0  0  0
   23.2375  -20.6654   -9.2428 C   0  0  0  0  0  0  0  0  0  0  0  0
   22.4459  -19.7277   -9.4751 O   0  0  0  0  0  0  0  0  0  0  0  0
   22.5826  -21.9257   -8.9788 N   0  0  0  0  0  0  0  0  0  0  0  0
   21.1630  -22.0852   -8.9481 C   0  0  1  0  0  0  0  0  0  0  0  0
   20.5062  -22.4539  -10.2333 C   0  0  0  0  0  0  0  0  0  0  0  0
   18.7487  -22.7362  -10.1425 S   0  0  0  0  0  0  0  0  0  0  0  0
   20.6757  -22.8824   -7.7907 C   0  0  0  0  0  0  0  0  0  0  0  0
   21.3659  -23.5161   -6.9827 O   0  0  0  0  0  0  0  0  0  0  0  0
   19.2996  -22.9177   -7.5971 O   0  0  0  0  0  0  0  0  0  0  0  0
  2  1  1  6
  2  3  1  0
  4  2  1  0
  4  6  1  0
  4  5  1  6
  6 13  1  0
  6  7  2  0
  8  9  1  0
  9 10  1  0
 10 12  1  0
 10 11  1  1
 12 14  1  0
 12 13  1  6
 14 15  2  0
 16 14  1  0
 16 17  1  0
 17 20  1  0
 17 18  1  6
 19 18  1  0
 20 22  1  0
 21 20  2  0
M  END
$$$$
