VIC.pdb
     RDKit          3D

 22 21  0  0  1  0  0  0  0  0999 V2000
   20.8253  -13.3658  -19.2972 C   0  0  0  0  0  0  0  0  0  0  0  0
   22.1759  -13.7808  -19.8285 C   0  0  2  0  0  0  0  0  0  0  0  0
   22.0056  -14.9293  -20.7983 C   0  0  0  0  0  0  0  0  0  0  0  0
   23.1181  -14.2227  -18.7668 C   0  0  2  0  0  0  0  0  0  0  0  0
   22.7708  -15.4792  -18.1544 N   0  0  0  0  0  0  0  0  0  0  0  0
   23.3709  -13.2102  -17.7105 C   0  0  0  0  0  0  0  0  0  0  0  0
   22.6277  -13.1107  -16.6889 O   0  0  0  0  0  0  0  0  0  0  0  0
   28.0987  -12.2682  -15.4523 C   0  0  0  0  0  0  0  0  0  0  0  0
   26.6410  -12.4135  -15.8306 C   0  0  0  0  0  0  0  0  0  0  0  0
   26.0612  -11.0817  -16.3400 C   0  0  2  0  0  0  0  0  0  0  0  0
   26.2890  -10.0341  -15.2759 C   0  0  0  0  0  0  0  0  0  0  0  0
   24.6885  -11.2156  -16.8329 C   0  0  2  0  0  0  0  0  0  0  0  0
   24.4542  -12.2878  -17.7751 N   0  0  0  0  0  0  0  0  0  0  0  0
   23.9122  -10.0005  -17.1240 C   0  0  0  0  0  0  0  0  0  0  0  0
   23.7338   -9.4751  -18.2429 O   0  0  0  0  0  0  0  0  0  0  0  0
   23.2690   -9.2926  -16.0413 N   0  0  0  0  0  0  0  0  0  0  0  0
   22.4011   -8.1745  -16.2362 C   0  0  1  0  0  0  0  0  0  0  0  0
   21.3178   -8.3401  -17.2453 C   0  0  0  0  0  0  0  0  0  0  0  0
   20.1263   -7.0163  -17.3151 S   0  0  0  0  0  0  0  0  0  0  0  0
   21.9317   -7.5536  -14.9687 C   0  0  0  0  0  0  0  0  0  0  0  0
   22.0452   -8.0187  -13.8278 O   0  0  0  0  0  0  0  0  0  0  0  0
   21.2996   -6.3204  -15.0787 O   0  0  0  0  0  0  0  0  0  0  0  0
  2  1  1  1
  2  3  1  0
  4  2  1  0
  4  6  1  0
  4  5  1  1
  6 13  1  0
  6  7  2  0
  8  9  1  0
  9 10  1  0
 10 12  1  0
 10 11  1  1
 12 14  1  0
 12 13  1  6
 14 15  2  0
 16 14  1  0
 16 17  1  0
 17 20  1  0
 17 18  1  1
 19 18  1  0
 20 22  1  0
 21 20  2  0
M  END
$$$$
