VIC.pdb
     RDKit          3D

 22 21  0  0  1  0  0  0  0  0999 V2000
   20.7343  -14.6012  -15.4322 C   0  0  0  0  0  0  0  0  0  0  0  0
   19.7659  -14.1027  -16.4775 C   0  0  2  0  0  0  0  0  0  0  0  0
   19.3170  -15.2599  -17.3424 C   0  0  0  0  0  0  0  0  0  0  0  0
   20.3452  -13.0677  -17.3737 C   0  0  2  0  0  0  0  0  0  0  0  0
   21.3996  -13.5494  -18.2284 N   0  0  0  0  0  0  0  0  0  0  0  0
   20.7958  -11.8359  -16.6777 C   0  0  0  0  0  0  0  0  0  0  0  0
   20.1587  -11.3532  -15.6943 O   0  0  0  0  0  0  0  0  0  0  0  0
   25.8418  -11.0679  -15.0951 C   0  0  0  0  0  0  0  0  0  0  0  0
   24.3453  -11.0955  -15.3155 C   0  0  0  0  0  0  0  0  0  0  0  0
   23.8784   -9.8746  -16.1285 C   0  0  2  0  0  0  0  0  0  0  0  0
   24.3824   -8.6302  -15.4362 C   0  0  0  0  0  0  0  0  0  0  0  0
   22.4457   -9.9120  -16.4304 C   0  0  2  0  0  0  0  0  0  0  0  0
   21.9624  -11.1175  -17.0670 N   0  0  0  0  0  0  0  0  0  0  0  0
   21.7852   -8.6896  -16.9138 C   0  0  0  0  0  0  0  0  0  0  0  0
   21.8683   -8.1951  -18.0576 O   0  0  0  0  0  0  0  0  0  0  0  0
   20.9429   -7.9348  -16.0150 N   0  0  0  0  0  0  0  0  0  0  0  0
   20.3148   -6.7021  -16.3718 C   0  0  1  0  0  0  0  0  0  0  0  0
   18.8268   -6.6703  -16.3100 C   0  0  0  0  0  0  0  0  0  0  0  0
   18.0011   -8.1012  -16.9789 S   0  0  0  0  0  0  0  0  0  0  0  0
   20.9528   -5.5065  -15.7587 C   0  0  0  0  0  0  0  0  0  0  0  0
   21.8295   -5.4985  -14.8858 O   0  0  0  0  0  0  0  0  0  0  0  0
   20.5177   -4.2679  -16.2161 O   0  0  0  0  0  0  0  0  0  0  0  0
  2  1  1  1
  2  3  1  0
  4  2  1  0
  4  6  1  0
  4  5  1  1
  6 13  1  0
  6  7  2  0
  8  9  1  0
  9 10  1  0
 10 12  1  0
 10 11  1  1
 12 14  1  0
 12 13  1  6
 14 15  2  0
 16 14  1  0
 16 17  1  0
 17 20  1  0
 17 18  1  1
 19 18  1  0
 20 22  1  0
 21 20  2  0
M  END
$$$$
