VIC.pdb
     RDKit          3D

 22 21  0  0  1  0  0  0  0  0999 V2000
   26.6987  -17.3663  -14.8368 C   0  0  0  0  0  0  0  0  0  0  0  0
   27.4706  -18.4091  -15.6085 C   0  0  2  0  0  0  0  0  0  0  0  0
   26.6283  -18.9105  -16.7608 C   0  0  0  0  0  0  0  0  0  0  0  0
   27.8575  -19.5861  -14.7868 C   0  0  2  0  0  0  0  0  0  0  0  0
   28.6826  -20.5433  -15.4775 N   0  0  0  0  0  0  0  0  0  0  0  0
   26.7171  -20.2876  -14.1447 C   0  0  0  0  0  0  0  0  0  0  0  0
   26.0899  -21.2192  -14.7316 O   0  0  0  0  0  0  0  0  0  0  0  0
   26.5530  -20.8464   -8.6638 C   0  0  0  0  0  0  0  0  0  0  0  0
   26.3864  -21.2045  -10.1242 C   0  0  0  0  0  0  0  0  0  0  0  0
   25.1280  -20.5477  -10.7198 C   0  0  2  0  0  0  0  0  0  0  0  0
   23.9204  -21.1405  -10.0328 C   0  0  0  0  0  0  0  0  0  0  0  0
   25.1172  -20.5739  -12.1842 C   0  0  2  0  0  0  0  0  0  0  0  0
   26.2526  -19.9613  -12.8384 N   0  0  0  0  0  0  0  0  0  0  0  0
   23.8466  -20.3581  -12.8933 C   0  0  0  0  0  0  0  0  0  0  0  0
   23.3344  -19.2601  -13.1964 O   0  0  0  0  0  0  0  0  0  0  0  0
   23.0599  -21.4983  -13.3034 N   0  0  0  0  0  0  0  0  0  0  0  0
   21.7595  -21.3905  -13.8855 C   0  0  1  0  0  0  0  0  0  0  0  0
   21.4515  -22.3235  -15.0053 C   0  0  0  0  0  0  0  0  0  0  0  0
   19.7893  -22.2341  -15.6422 S   0  0  0  0  0  0  0  0  0  0  0  0
   20.6629  -21.2926  -12.8854 C   0  0  0  0  0  0  0  0  0  0  0  0
   20.7109  -21.6294  -11.6958 O   0  0  0  0  0  0  0  0  0  0  0  0
   19.4576  -20.7663  -13.3358 O   0  0  0  0  0  0  0  0  0  0  0  0
  2  1  1  1
  2  3  1  0
  4  2  1  0
  4  6  1  0
  4  5  1  6
  6 13  1  0
  6  7  2  0
  8  9  1  0
  9 10  1  0
 10 12  1  0
 10 11  1  1
 12 14  1  0
 12 13  1  6
 14 15  2  0
 16 14  1  0
 16 17  1  0
 17 20  1  0
 17 18  1  1
 19 18  1  0
 20 22  1  0
 21 20  2  0
M  END
$$$$
