VIC.pdb
     RDKit          3D

 22 21  0  0  1  0  0  0  0  0999 V2000
   25.3817  -22.2602  -17.8105 C   0  0  0  0  0  0  0  0  0  0  0  0
   26.5186  -21.4537  -17.2310 C   0  0  2  0  0  0  0  0  0  0  0  0
   27.6540  -21.3925  -18.2288 C   0  0  0  0  0  0  0  0  0  0  0  0
   27.0592  -22.0185  -15.9665 C   0  0  2  0  0  0  0  0  0  0  0  0
   27.7625  -23.2647  -16.1293 N   0  0  0  0  0  0  0  0  0  0  0  0
   26.0587  -22.1531  -14.8776 C   0  0  0  0  0  0  0  0  0  0  0  0
   25.3707  -23.2068  -14.7291 O   0  0  0  0  0  0  0  0  0  0  0  0
   26.6083  -21.0359   -9.5568 C   0  0  0  0  0  0  0  0  0  0  0  0
   26.4369  -21.3279  -11.0313 C   0  0  0  0  0  0  0  0  0  0  0  0
   25.1830  -20.6356  -11.5952 C   0  0  2  0  0  0  0  0  0  0  0  0
   24.1180  -20.6505  -10.5242 C   0  0  0  0  0  0  0  0  0  0  0  0
   24.7905  -21.1591  -12.9056 C   0  0  2  0  0  0  0  0  0  0  0  0
   25.8042  -21.1147  -13.9365 N   0  0  0  0  0  0  0  0  0  0  0  0
   23.4342  -20.8878  -13.4063 C   0  0  0  0  0  0  0  0  0  0  0  0
   22.9867  -19.7909  -13.8017 O   0  0  0  0  0  0  0  0  0  0  0  0
   22.4710  -21.9629  -13.4657 N   0  0  0  0  0  0  0  0  0  0  0  0
   21.1234  -21.7903  -13.9079 C   0  0  1  0  0  0  0  0  0  0  0  0
   20.5364  -22.9032  -14.7055 C   0  0  0  0  0  0  0  0  0  0  0  0
   18.7907  -23.1762  -14.4713 S   0  0  0  0  0  0  0  0  0  0  0  0
   20.2084  -21.2793  -12.8524 C   0  0  0  0  0  0  0  0  0  0  0  0
   20.3912  -21.3179  -11.6293 O   0  0  0  0  0  0  0  0  0  0  0  0
   19.0237  -20.6964  -13.2873 O   0  0  0  0  0  0  0  0  0  0  0  0
  2  1  1  6
  2  3  1  0
  4  2  1  0
  4  6  1  0
  4  5  1  6
  6 13  1  0
  6  7  2  0
  8  9  1  0
  9 10  1  0
 10 12  1  0
 10 11  1  1
 12 14  1  0
 12 13  1  6
 14 15  2  0
 16 14  1  0
 16 17  1  0
 17 20  1  0
 17 18  1  1
 19 18  1  0
 20 22  1  0
 21 20  2  0
M  END
$$$$
