VIC.pdb
     RDKit          3D

 22 21  0  0  1  0  0  0  0  0999 V2000
   28.4609  -18.8269  -14.2192 C   0  0  0  0  0  0  0  0  0  0  0  0
   27.4425  -19.9099  -14.4818 C   0  0  2  0  0  0  0  0  0  0  0  0
   26.0724  -19.2875  -14.6363 C   0  0  0  0  0  0  0  0  0  0  0  0
   27.3594  -20.9193  -13.3936 C   0  0  2  0  0  0  0  0  0  0  0  0
   26.5098  -22.0428  -13.6936 N   0  0  0  0  0  0  0  0  0  0  0  0
   26.9936  -20.3622  -12.0667 C   0  0  0  0  0  0  0  0  0  0  0  0
   27.1162  -19.1288  -11.8031 O   0  0  0  0  0  0  0  0  0  0  0  0
   22.9209  -21.0281  -11.2913 C   0  0  0  0  0  0  0  0  0  0  0  0
   23.7443  -20.0572  -10.4739 C   0  0  0  0  0  0  0  0  0  0  0  0
   24.6159  -20.7957   -9.4421 C   0  0  2  0  0  0  0  0  0  0  0  0
   24.1677  -20.3738   -8.0626 C   0  0  0  0  0  0  0  0  0  0  0  0
   26.0482  -20.6735   -9.7227 C   0  0  2  0  0  0  0  0  0  0  0  0
   26.4878  -21.1699  -11.0082 N   0  0  0  0  0  0  0  0  0  0  0  0
   27.0121  -20.9202   -8.6392 C   0  0  0  0  0  0  0  0  0  0  0  0
   27.6910  -21.9532   -8.4606 O   0  0  0  0  0  0  0  0  0  0  0  0
   27.2365  -19.8990   -7.6423 N   0  0  0  0  0  0  0  0  0  0  0  0
   28.1201  -20.0624   -6.5314 C   0  0  1  0  0  0  0  0  0  0  0  0
   29.1615  -19.0130   -6.3487 C   0  0  0  0  0  0  0  0  0  0  0  0
   28.7344  -17.6966   -5.2257 S   0  0  0  0  0  0  0  0  0  0  0  0
   27.4290  -20.4290   -5.2664 C   0  0  0  0  0  0  0  0  0  0  0  0
   26.2137  -20.3727   -5.0412 O   0  0  0  0  0  0  0  0  0  0  0  0
   28.2345  -20.8836   -4.2286 O   0  0  0  0  0  0  0  0  0  0  0  0
  2  1  1  1
  2  3  1  0
  4  2  1  0
  4  6  1  0
  4  5  1  6
  6 13  1  0
  6  7  2  0
  8  9  1  0
  9 10  1  0
 10 12  1  0
 10 11  1  1
 12 14  1  0
 12 13  1  6
 14 15  2  0
 16 14  1  0
 16 17  1  0
 17 20  1  0
 17 18  1  1
 19 18  1  0
 20 22  1  0
 21 20  2  0
M  END
$$$$
