VIC.pdb
     RDKit          3D

 22 21  0  0  1  0  0  0  0  0999 V2000
   15.4600  -11.1045  -14.5906 C   0  0  0  0  0  0  0  0  0  0  0  0
   16.1269  -10.9494  -15.9360 C   0  0  2  0  0  0  0  0  0  0  0  0
   15.4796  -11.8871  -16.9312 C   0  0  0  0  0  0  0  0  0  0  0  0
   17.5823  -11.2514  -15.9124 C   0  0  2  0  0  0  0  0  0  0  0  0
   17.8950  -12.6318  -15.6458 N   0  0  0  0  0  0  0  0  0  0  0  0
   18.3750  -10.3806  -15.0078 C   0  0  0  0  0  0  0  0  0  0  0  0
   18.5584  -10.6746  -13.7889 O   0  0  0  0  0  0  0  0  0  0  0  0
   23.1164   -8.0468  -16.2547 C   0  0  0  0  0  0  0  0  0  0  0  0
   21.8720   -8.6934  -15.6870 C   0  0  0  0  0  0  0  0  0  0  0  0
   20.8917   -7.6372  -15.1457 C   0  0  2  0  0  0  0  0  0  0  0  0
   21.6592   -6.7094  -14.2337 C   0  0  0  0  0  0  0  0  0  0  0  0
   19.6738   -8.2305  -14.5891 C   0  0  2  0  0  0  0  0  0  0  0  0
   18.9747   -9.1646  -15.4441 N   0  0  0  0  0  0  0  0  0  0  0  0
   18.7755   -7.3918  -13.7807 C   0  0  0  0  0  0  0  0  0  0  0  0
   17.8119   -6.7123  -14.1924 O   0  0  0  0  0  0  0  0  0  0  0  0
   18.9827   -7.2999  -12.3539 N   0  0  0  0  0  0  0  0  0  0  0  0
   18.1366   -6.5488  -11.4812 C   0  0  1  0  0  0  0  0  0  0  0  0
   17.9818   -7.0682  -10.0936 C   0  0  0  0  0  0  0  0  0  0  0  0
   17.2103   -5.9513   -8.9387 S   0  0  0  0  0  0  0  0  0  0  0  0
   18.3739   -5.0815  -11.5349 C   0  0  0  0  0  0  0  0  0  0  0  0
   19.4196   -4.5104  -11.8685 O   0  0  0  0  0  0  0  0  0  0  0  0
   17.3073   -4.2668  -11.1726 O   0  0  0  0  0  0  0  0  0  0  0  0
  2  1  1  1
  2  3  1  0
  4  2  1  0
  4  6  1  0
  4  5  1  1
  6 13  1  0
  6  7  2  0
  8  9  1  0
  9 10  1  0
 10 12  1  0
 10 11  1  1
 12 14  1  0
 12 13  1  6
 14 15  2  0
 16 14  1  0
 16 17  1  0
 17 20  1  0
 17 18  1  1
 19 18  1  0
 20 22  1  0
 21 20  2  0
M  END
$$$$
