NDP.pdb
     RDKit          3D

 24 24  0  0  1  0  0  0  0  0999 V2000
    9.0884  -12.4144   18.2255 N   0  0  0  0  0  0  0  0  0  0  0  0
    8.3637  -13.6211   18.3506 C   0  0  0  0  0  0  0  0  0  0  0  0
    8.5343  -14.4935   17.4588 O   0  0  0  0  0  0  0  0  0  0  0  0
    7.4427  -13.8296   19.4979 C   0  0  0  0  0  0  0  0  0  0  0  0
    8.0516  -14.8812   20.4022 C   0  0  2  0  0  0  0  0  0  0  0  0
    7.8881  -16.1901   19.7863 N   0  0  0  0  0  0  0  0  0  0  0  0
    7.3497  -14.9314   21.7179 C   0  0  0  0  0  0  0  0  0  0  0  0
    6.1456  -14.5668   21.8586 O   0  0  0  0  0  0  0  0  0  0  0  0
    8.0615  -15.4013   22.8303 N   0  0  0  0  0  0  0  0  0  0  0  0
    7.4132  -15.6018   24.1548 C   0  0  1  0  0  0  0  0  0  0  0  0
    7.5342  -17.1213   24.3262 C   0  0  0  0  0  0  0  0  0  0  0  0
    6.4684  -17.9012   23.7285 C   0  0  0  0  0  0  0  0  0  0  0  0
    5.2778  -17.4613   23.8899 O   0  0  0  0  0  0  0  0  0  0  0  0
    8.2026  -14.8488   25.1480 C   0  0  0  0  0  0  0  0  0  0  0  0
    9.4691  -15.0584   25.1809 O   0  0  0  0  0  0  0  0  0  0  0  0
    6.5931  -19.0718   23.0007 O   0  0  0  0  0  0  0  0  0  0  0  0
    7.7041  -13.9083   26.0721 N   0  0  0  0  0  0  0  0  0  0  0  0
    6.3876  -13.3037   26.0169 C   0  0  0  0  0  0  0  0  0  0  0  0
    6.6121  -11.9220   26.6566 C   0  0  0  0  0  0  0  0  0  0  0  0
    7.4982  -12.3641   27.8314 C   0  0  0  0  0  0  0  0  0  0  0  0
    8.4042  -13.3479   27.1833 C   0  0  1  0  0  0  0  0  0  0  0  0
    8.9246  -14.3721   28.1210 C   0  0  0  0  0  0  0  0  0  0  0  0
    8.5893  -15.5623   28.1190 O   0  0  0  0  0  0  0  0  0  0  0  0
    9.8586  -13.9463   29.0671 O   0  0  0  0  0  0  0  0  0  0  0  0
  2  4  1  0
  2  1  1  0
  3  2  2  0
  4  5  1  0
  5  7  1  0
  5  6  1  6
  7  8  2  0
  9 10  1  0
  9  7  1  0
 10 14  1  0
 10 11  1  1
 12 11  1  0
 12 13  2  0
 14 15  2  0
 14 17  1  0
 16 12  1  0
 17 21  1  0
 17 18  1  0
 18 19  1  0
 19 20  1  0
 21 20  1  0
 21 22  1  1
 23 22  2  0
 24 22  1  0
M  END
$$$$
