NDP.pdb
     RDKit          3D

 24 24  0  0  1  0  0  0  0  0999 V2000
    7.8826  -12.5947   17.5425 N   0  0  0  0  0  0  0  0  0  0  0  0
    8.4891  -13.1030   18.7133 C   0  0  0  0  0  0  0  0  0  0  0  0
    9.7165  -13.3786   18.6561 O   0  0  0  0  0  0  0  0  0  0  0  0
    7.6899  -13.2961   19.9510 C   0  0  0  0  0  0  0  0  0  0  0  0
    7.7395  -14.7654   20.3161 C   0  0  2  0  0  0  0  0  0  0  0  0
    7.0072  -15.5286   19.3158 N   0  0  0  0  0  0  0  0  0  0  0  0
    7.0720  -15.0172   21.6266 C   0  0  0  0  0  0  0  0  0  0  0  0
    5.8194  -14.9177   21.7798 O   0  0  0  0  0  0  0  0  0  0  0  0
    7.8733  -15.3758   22.7193 N   0  0  0  0  0  0  0  0  0  0  0  0
    7.2937  -15.6879   24.0541 C   0  0  1  0  0  0  0  0  0  0  0  0
    7.5395  -17.1992   24.1470 C   0  0  0  0  0  0  0  0  0  0  0  0
    7.1532  -17.8159   25.4007 C   0  0  0  0  0  0  0  0  0  0  0  0
    6.4263  -17.1126   26.1843 O   0  0  0  0  0  0  0  0  0  0  0  0
    8.0593  -14.9206   25.0550 C   0  0  0  0  0  0  0  0  0  0  0  0
    9.3274  -15.1156   25.1084 O   0  0  0  0  0  0  0  0  0  0  0  0
    7.4827  -19.0837   25.8476 O   0  0  0  0  0  0  0  0  0  0  0  0
    7.5361  -13.9808   25.9661 N   0  0  0  0  0  0  0  0  0  0  0  0
    6.2320  -13.3562   25.8614 C   0  0  0  0  0  0  0  0  0  0  0  0
    6.4495  -11.9836   26.5228 C   0  0  0  0  0  0  0  0  0  0  0  0
    7.2789  -12.4490   27.7295 C   0  0  0  0  0  0  0  0  0  0  0  0
    8.1970  -13.4406   27.1108 C   0  0  1  0  0  0  0  0  0  0  0  0
    8.6626  -14.4805   28.0599 C   0  0  0  0  0  0  0  0  0  0  0  0
    8.3165  -15.6672   28.0281 O   0  0  0  0  0  0  0  0  0  0  0  0
    9.5548  -14.0748   29.0539 O   0  0  0  0  0  0  0  0  0  0  0  0
  2  4  1  0
  2  1  1  0
  3  2  2  0
  4  5  1  0
  5  7  1  0
  5  6  1  6
  7  8  2  0
  9 10  1  0
  9  7  1  0
 10 14  1  0
 10 11  1  1
 12 11  1  0
 12 13  2  0
 14 15  2  0
 14 17  1  0
 16 12  1  0
 17 21  1  0
 17 18  1  0
 18 19  1  0
 19 20  1  0
 21 20  1  0
 21 22  1  1
 23 22  2  0
 24 22  1  0
M  END
$$$$
