NDP.pdb
     RDKit          3D

 24 24  0  0  1  0  0  0  0  0999 V2000
    8.6955  -12.4026   17.6967 N   0  0  0  0  0  0  0  0  0  0  0  0
    8.1801  -13.6558   18.0976 C   0  0  0  0  0  0  0  0  0  0  0  0
    8.4200  -14.6443   17.3554 O   0  0  0  0  0  0  0  0  0  0  0  0
    7.3891  -13.7778   19.3495 C   0  0  0  0  0  0  0  0  0  0  0  0
    8.3360  -14.1674   20.4658 C   0  0  2  0  0  0  0  0  0  0  0  0
    8.9403  -15.4534   20.1493 N   0  0  0  0  0  0  0  0  0  0  0  0
    7.6060  -14.3381   21.7558 C   0  0  0  0  0  0  0  0  0  0  0  0
    6.7677  -13.4888   22.1782 O   0  0  0  0  0  0  0  0  0  0  0  0
    7.8679  -15.4852   22.5177 N   0  0  0  0  0  0  0  0  0  0  0  0
    7.2284  -15.7161   23.8416 C   0  0  1  0  0  0  0  0  0  0  0  0
    7.3269  -17.2419   23.9653 C   0  0  0  0  0  0  0  0  0  0  0  0
    6.9378  -17.7879   25.2506 C   0  0  0  0  0  0  0  0  0  0  0  0
    5.8602  -17.3281   25.7650 O   0  0  0  0  0  0  0  0  0  0  0  0
    8.0386  -15.0064   24.8498 C   0  0  0  0  0  0  0  0  0  0  0  0
    9.2971  -15.2594   24.8841 O   0  0  0  0  0  0  0  0  0  0  0  0
    7.6020  -18.7534   25.9869 O   0  0  0  0  0  0  0  0  0  0  0  0
    7.5683  -14.0644   25.7870 N   0  0  0  0  0  0  0  0  0  0  0  0
    6.2427  -13.4776   25.7846 C   0  0  0  0  0  0  0  0  0  0  0  0
    6.4762  -12.0875   26.4025 C   0  0  0  0  0  0  0  0  0  0  0  0
    7.4185  -12.5077   27.5410 C   0  0  0  0  0  0  0  0  0  0  0  0
    8.3086  -13.4853   26.8620 C   0  0  1  0  0  0  0  0  0  0  0  0
    8.8831  -14.4944   27.7844 C   0  0  0  0  0  0  0  0  0  0  0  0
    8.4616  -15.6496   27.9135 O   0  0  0  0  0  0  0  0  0  0  0  0
    9.9771  -14.0960   28.5546 O   0  0  0  0  0  0  0  0  0  0  0  0
  2  4  1  0
  2  1  1  0
  3  2  2  0
  4  5  1  0
  5  7  1  0
  5  6  1  6
  7  8  2  0
  9 10  1  0
  9  7  1  0
 10 14  1  0
 10 11  1  1
 12 11  1  0
 12 13  2  0
 14 15  2  0
 14 17  1  0
 16 12  1  0
 17 21  1  0
 17 18  1  0
 18 19  1  0
 19 20  1  0
 21 20  1  0
 21 22  1  1
 23 22  2  0
 24 22  1  0
M  END
$$$$
