NDP.pdb
     RDKit          3D

 24 24  0  0  1  0  0  0  0  0999 V2000
    8.0673  -13.0980   16.8053 N   0  0  0  0  0  0  0  0  0  0  0  0
    8.6192  -13.4561   18.0559 C   0  0  0  0  0  0  0  0  0  0  0  0
    9.8163  -13.8466   18.0696 O   0  0  0  0  0  0  0  0  0  0  0  0
    7.8002  -13.3670   19.2925 C   0  0  0  0  0  0  0  0  0  0  0  0
    8.5971  -13.9772   20.4271 C   0  0  2  0  0  0  0  0  0  0  0  0
    8.9857  -15.3314   20.0604 N   0  0  0  0  0  0  0  0  0  0  0  0
    7.7735  -14.0841   21.6667 C   0  0  0  0  0  0  0  0  0  0  0  0
    6.9796  -13.1691   22.0344 O   0  0  0  0  0  0  0  0  0  0  0  0
    7.8933  -15.2451   22.4428 N   0  0  0  0  0  0  0  0  0  0  0  0
    7.1530  -15.4190   23.7221 C   0  0  1  0  0  0  0  0  0  0  0  0
    6.9759  -16.9420   23.7669 C   0  0  0  0  0  0  0  0  0  0  0  0
    6.0066  -17.4829   22.8345 C   0  0  0  0  0  0  0  0  0  0  0  0
    4.7731  -17.3216   23.1336 O   0  0  0  0  0  0  0  0  0  0  0  0
    8.0195  -14.9112   24.8028 C   0  0  0  0  0  0  0  0  0  0  0  0
    9.2355  -15.3230   24.8307 O   0  0  0  0  0  0  0  0  0  0  0  0
    6.2652  -18.1563   21.6532 O   0  0  0  0  0  0  0  0  0  0  0  0
    7.6465  -14.0060   25.8169 N   0  0  0  0  0  0  0  0  0  0  0  0
    6.4351  -13.2097   25.8182 C   0  0  0  0  0  0  0  0  0  0  0  0
    6.8480  -11.9492   26.5988 C   0  0  0  0  0  0  0  0  0  0  0  0
    7.6350  -12.6356   27.7259 C   0  0  0  0  0  0  0  0  0  0  0  0
    8.3989  -13.6722   26.9837 C   0  0  1  0  0  0  0  0  0  0  0  0
    8.7433  -14.8525   27.8128 C   0  0  0  0  0  0  0  0  0  0  0  0
    8.2290  -15.9706   27.6923 O   0  0  0  0  0  0  0  0  0  0  0  0
    9.7192  -14.6721   28.7945 O   0  0  0  0  0  0  0  0  0  0  0  0
  2  4  1  0
  2  1  1  0
  3  2  2  0
  4  5  1  0
  5  7  1  0
  5  6  1  6
  7  8  2  0
  9 10  1  0
  9  7  1  0
 10 14  1  0
 10 11  1  1
 12 11  1  0
 12 13  2  0
 14 15  2  0
 14 17  1  0
 16 12  1  0
 17 21  1  0
 17 18  1  0
 18 19  1  0
 19 20  1  0
 21 20  1  0
 21 22  1  1
 23 22  2  0
 24 22  1  0
M  END
$$$$
