NDP.pdb
     RDKit          3D

 24 24  0  0  1  0  0  0  0  0999 V2000
    7.9485  -13.2492   17.0394 N   0  0  0  0  0  0  0  0  0  0  0  0
    8.5795  -13.4786   18.2829 C   0  0  0  0  0  0  0  0  0  0  0  0
    9.8178  -13.7066   18.2700 O   0  0  0  0  0  0  0  0  0  0  0  0
    7.7922  -13.4468   19.5427 C   0  0  0  0  0  0  0  0  0  0  0  0
    8.5261  -14.2781   20.5746 C   0  0  2  0  0  0  0  0  0  0  0  0
    8.6719  -15.6372   20.0737 N   0  0  0  0  0  0  0  0  0  0  0  0
    7.7496  -14.3664   21.8457 C   0  0  0  0  0  0  0  0  0  0  0  0
    7.0291  -13.4149   22.2678 O   0  0  0  0  0  0  0  0  0  0  0  0
    7.8301  -15.5518   22.5895 N   0  0  0  0  0  0  0  0  0  0  0  0
    7.1748  -15.6959   23.9179 C   0  0  1  0  0  0  0  0  0  0  0  0
    7.0584  -17.2208   24.0362 C   0  0  0  0  0  0  0  0  0  0  0  0
    6.1527  -17.8500   23.0954 C   0  0  0  0  0  0  0  0  0  0  0  0
    4.9023  -17.6650   23.2937 O   0  0  0  0  0  0  0  0  0  0  0  0
    8.0847  -15.1114   24.9215 C   0  0  0  0  0  0  0  0  0  0  0  0
    9.3086  -15.4999   24.9097 O   0  0  0  0  0  0  0  0  0  0  0  0
    6.4885  -18.6310   22.0031 O   0  0  0  0  0  0  0  0  0  0  0  0
    7.7454  -14.1555   25.9004 N   0  0  0  0  0  0  0  0  0  0  0  0
    6.5238  -13.3752   25.9143 C   0  0  0  0  0  0  0  0  0  0  0  0
    6.9535  -12.0681   26.6039 C   0  0  0  0  0  0  0  0  0  0  0  0
    7.8016  -12.6808   27.7291 C   0  0  0  0  0  0  0  0  0  0  0  0
    8.5457  -13.7479   27.0105 C   0  0  1  0  0  0  0  0  0  0  0  0
    8.9452  -14.8758   27.8865 C   0  0  0  0  0  0  0  0  0  0  0  0
    8.4038  -15.9875   27.8923 O   0  0  0  0  0  0  0  0  0  0  0  0
   10.0099  -14.6504   28.7608 O   0  0  0  0  0  0  0  0  0  0  0  0
  2  4  1  0
  2  1  1  0
  3  2  2  0
  4  5  1  0
  5  7  1  0
  5  6  1  6
  7  8  2  0
  9 10  1  0
  9  7  1  0
 10 14  1  0
 10 11  1  1
 12 11  1  0
 12 13  2  0
 14 15  2  0
 14 17  1  0
 16 12  1  0
 17 21  1  0
 17 18  1  0
 18 19  1  0
 19 20  1  0
 21 20  1  0
 21 22  1  1
 23 22  2  0
 24 22  1  0
M  END
$$$$
