NDP.pdb
     RDKit          3D

 24 24  0  0  1  0  0  0  0  0999 V2000
    8.7596  -12.6445   17.4894 N   0  0  0  0  0  0  0  0  0  0  0  0
    8.1548  -13.8281   17.9691 C   0  0  0  0  0  0  0  0  0  0  0  0
    8.2921  -14.8702   17.2756 O   0  0  0  0  0  0  0  0  0  0  0  0
    7.3919  -13.8192   19.2442 C   0  0  0  0  0  0  0  0  0  0  0  0
    8.3580  -14.1246   20.3702 C   0  0  2  0  0  0  0  0  0  0  0  0
    9.0281  -15.3868   20.0922 N   0  0  0  0  0  0  0  0  0  0  0  0
    7.6381  -14.2932   21.6662 C   0  0  0  0  0  0  0  0  0  0  0  0
    6.8028  -13.4434   22.0935 O   0  0  0  0  0  0  0  0  0  0  0  0
    7.9063  -15.4388   22.4281 N   0  0  0  0  0  0  0  0  0  0  0  0
    7.2698  -15.6721   23.7530 C   0  0  1  0  0  0  0  0  0  0  0  0
    7.3236  -17.2020   23.8514 C   0  0  0  0  0  0  0  0  0  0  0  0
    6.8671  -17.7605   25.1088 C   0  0  0  0  0  0  0  0  0  0  0  0
    5.7702  -17.2965   25.5764 O   0  0  0  0  0  0  0  0  0  0  0  0
    8.1081  -15.0033   24.7661 C   0  0  0  0  0  0  0  0  0  0  0  0
    9.3433  -15.3475   24.8347 O   0  0  0  0  0  0  0  0  0  0  0  0
    7.4854  -18.7422   25.8636 O   0  0  0  0  0  0  0  0  0  0  0  0
    7.6884  -14.0100   25.6740 N   0  0  0  0  0  0  0  0  0  0  0  0
    6.4309  -13.2923   25.6006 C   0  0  0  0  0  0  0  0  0  0  0  0
    6.7724  -11.9273   26.2241 C   0  0  0  0  0  0  0  0  0  0  0  0
    7.6080  -12.4299   27.4115 C   0  0  0  0  0  0  0  0  0  0  0  0
    8.4278  -13.4985   26.7833 C   0  0  1  0  0  0  0  0  0  0  0  0
    8.8493  -14.5518   27.7383 C   0  0  0  0  0  0  0  0  0  0  0  0
    8.3493  -15.6807   27.8059 O   0  0  0  0  0  0  0  0  0  0  0  0
    9.8856  -14.2303   28.6167 O   0  0  0  0  0  0  0  0  0  0  0  0
  2  4  1  0
  2  1  1  0
  3  2  2  0
  4  5  1  0
  5  7  1  0
  5  6  1  6
  7  8  2  0
  9 10  1  0
  9  7  1  0
 10 14  1  0
 10 11  1  1
 12 11  1  0
 12 13  2  0
 14 15  2  0
 14 17  1  0
 16 12  1  0
 17 21  1  0
 17 18  1  0
 18 19  1  0
 19 20  1  0
 21 20  1  0
 21 22  1  1
 23 22  2  0
 24 22  1  0
M  END
$$$$
