KCM.pdb
     RDKit          3D

 24 23  0  0  1  0  0  0  0  0999 V2000
    9.4701  -15.2823   18.9672 N   0  0  0  0  0  0  0  0  0  0  0  0
    8.8262  -14.3664   19.8447 C   0  0  1  0  0  0  0  0  0  0  0  0
    7.6075  -13.7943   19.2147 C   0  0  0  0  0  0  0  0  0  0  0  0
    7.8073  -13.1833   17.8623 C   0  0  0  0  0  0  0  0  0  0  0  0
    7.4395  -14.0489   16.7091 C   0  0  0  0  0  0  0  0  0  0  0  0
    7.7811  -13.2837   15.4145 C   0  0  0  0  0  0  0  0  0  0  0  0
    7.3686  -14.0873   14.2874 N   0  0  0  0  0  0  0  0  0  0  0  0
    8.5813  -14.9139   21.2003 C   0  0  0  0  0  0  0  0  0  0  0  0
    7.8677  -14.2448   21.9905 O   0  0  0  0  0  0  0  0  0  0  0  0
    9.1035  -16.1512   21.6646 N   0  0  0  0  0  0  0  0  0  0  0  0
    8.8491  -16.6905   22.9855 C   0  0  1  0  0  0  0  0  0  0  0  0
    9.1400  -18.1548   23.0778 C   0  0  0  0  0  0  0  0  0  0  0  0
   10.8906  -18.5400   22.9146 S   0  0  0  0  0  0  0  0  0  0  0  0
    9.5569  -15.9660   24.0517 C   0  0  0  0  0  0  0  0  0  0  0  0
   10.6580  -15.3938   23.9142 O   0  0  0  0  0  0  0  0  0  0  0  0
    5.5004  -12.6585   26.2903 C   0  0  0  0  0  0  0  0  0  0  0  0
    7.0793  -12.0344   26.9423 S   0  0  0  0  0  0  0  0  0  0  0  0
    8.4437  -13.0348   26.3396 C   0  0  0  0  0  0  0  0  0  0  0  0
    8.6381  -14.3211   27.0827 C   0  0  0  0  0  0  0  0  0  0  0  0
    9.6180  -15.2651   26.4607 C   0  0  2  0  0  0  0  0  0  0  0  0
    8.9456  -15.9110   25.3334 N   0  0  0  0  0  0  0  0  0  0  0  0
    9.9849  -16.3137   27.4281 C   0  0  0  0  0  0  0  0  0  0  0  0
    9.6635  -17.6582   27.2407 O   0  0  0  0  0  0  0  0  0  0  0  0
   10.6158  -16.0278   28.4874 O   0  0  0  0  0  0  0  0  0  0  0  0
  2  1  1  6
  3  2  1  0
  4  3  1  0
  5  6  1  0
  5  4  1  0
  7  6  1  0
  8  2  1  0
  8  9  2  0
 10 11  1  0
 10  8  1  0
 11 12  1  6
 12 13  1  0
 14 11  1  0
 15 14  2  0
 16 17  1  0
 18 19  1  0
 18 17  1  0
 20 19  1  1
 20 21  1  0
 21 14  1  0
 22 20  1  0
 22 23  1  0
 24 22  2  0
M  END
$$$$
