KCM.pdb
     RDKit          3D

 24 23  0  0  1  0  0  0  0  0999 V2000
    8.8673  -17.7543   18.4662 N   0  0  0  0  0  0  0  0  0  0  0  0
    9.1502  -16.6420   19.3066 C   0  0  1  0  0  0  0  0  0  0  0  0
    8.4233  -15.4299   18.8465 C   0  0  0  0  0  0  0  0  0  0  0  0
    8.6723  -15.0295   17.4253 C   0  0  0  0  0  0  0  0  0  0  0  0
    7.9418  -13.8174   16.9652 C   0  0  0  0  0  0  0  0  0  0  0  0
    8.4293  -13.4825   15.5410 C   0  0  0  0  0  0  0  0  0  0  0  0
    7.2862  -13.0978   14.7463 N   0  0  0  0  0  0  0  0  0  0  0  0
    8.9618  -16.9240   20.7496 C   0  0  0  0  0  0  0  0  0  0  0  0
    7.7944  -17.1391   21.1648 O   0  0  0  0  0  0  0  0  0  0  0  0
   10.0205  -16.9667   21.6965 N   0  0  0  0  0  0  0  0  0  0  0  0
    9.8408  -17.3035   23.0945 C   0  0  1  0  0  0  0  0  0  0  0  0
   10.6919  -18.4556   23.5255 C   0  0  0  0  0  0  0  0  0  0  0  0
   12.4551  -18.1300   23.3691 S   0  0  0  0  0  0  0  0  0  0  0  0
   10.0444  -16.1593   23.9955 C   0  0  0  0  0  0  0  0  0  0  0  0
   10.8731  -15.2443   23.8085 O   0  0  0  0  0  0  0  0  0  0  0  0
    5.9716  -11.9879   25.7487 C   0  0  0  0  0  0  0  0  0  0  0  0
    6.5746  -12.3137   27.4332 S   0  0  0  0  0  0  0  0  0  0  0  0
    8.0916  -13.2738   27.3794 C   0  0  0  0  0  0  0  0  0  0  0  0
    8.1254  -14.3100   26.2978 C   0  0  0  0  0  0  0  0  0  0  0  0
    9.4344  -15.0182   26.1458 C   0  0  2  0  0  0  0  0  0  0  0  0
    9.2407  -16.0864   25.1652 N   0  0  0  0  0  0  0  0  0  0  0  0
    9.8159  -15.6430   27.4241 C   0  0  0  0  0  0  0  0  0  0  0  0
    9.7623  -17.0208   27.6355 O   0  0  0  0  0  0  0  0  0  0  0  0
   10.2122  -14.9388   28.3982 O   0  0  0  0  0  0  0  0  0  0  0  0
  2  1  1  6
  3  2  1  0
  4  3  1  0
  5  6  1  0
  5  4  1  0
  7  6  1  0
  8  2  1  0
  8  9  2  0
 10 11  1  0
 10  8  1  0
 11 12  1  1
 12 13  1  0
 14 11  1  0
 15 14  2  0
 16 17  1  0
 18 19  1  0
 18 17  1  0
 20 19  1  1
 20 21  1  0
 21 14  1  0
 22 20  1  0
 22 23  1  0
 24 22  2  0
M  END
$$$$
