KCM.pdb
     RDKit          3D

 24 23  0  0  1  0  0  0  0  0999 V2000
    9.1020  -18.8202   19.7584 N   0  0  0  0  0  0  0  0  0  0  0  0
   10.1751  -17.8947   19.8821 C   0  0  1  0  0  0  0  0  0  0  0  0
   10.3657  -17.1304   18.6215 C   0  0  0  0  0  0  0  0  0  0  0  0
   10.8110  -17.9359   17.4404 C   0  0  0  0  0  0  0  0  0  0  0  0
   12.0997  -17.5134   16.8277 C   0  0  0  0  0  0  0  0  0  0  0  0
   12.2586  -18.2671   15.4917 C   0  0  0  0  0  0  0  0  0  0  0  0
   11.4932  -17.5728   14.4826 N   0  0  0  0  0  0  0  0  0  0  0  0
   10.0784  -17.0289   21.0814 C   0  0  0  0  0  0  0  0  0  0  0  0
   10.9503  -16.1369   21.2414 O   0  0  0  0  0  0  0  0  0  0  0  0
    9.0594  -17.1437   22.0651 N   0  0  0  0  0  0  0  0  0  0  0  0
    9.0401  -16.3862   23.3005 C   0  0  1  0  0  0  0  0  0  0  0  0
    7.6611  -16.2215   23.8560 C   0  0  0  0  0  0  0  0  0  0  0  0
    6.9152  -17.7766   24.3704 S   0  0  0  0  0  0  0  0  0  0  0  0
    9.9374  -16.9341   24.3285 C   0  0  0  0  0  0  0  0  0  0  0  0
   10.2576  -18.1369   24.4267 O   0  0  0  0  0  0  0  0  0  0  0  0
    9.5628  -12.5209   29.6434 C   0  0  0  0  0  0  0  0  0  0  0  0
   11.0502  -13.3288   28.9783 S   0  0  0  0  0  0  0  0  0  0  0  0
   10.5934  -14.7099   27.9249 C   0  0  0  0  0  0  0  0  0  0  0  0
   11.7401  -15.3177   27.1763 C   0  0  0  0  0  0  0  0  0  0  0  0
   11.3842  -16.5010   26.3329 C   0  0  2  0  0  0  0  0  0  0  0  0
   10.4821  -16.0314   25.2814 N   0  0  0  0  0  0  0  0  0  0  0  0
   10.6549  -17.4913   27.1438 C   0  0  0  0  0  0  0  0  0  0  0  0
   11.3014  -18.4523   27.9214 O   0  0  0  0  0  0  0  0  0  0  0  0
    9.3895  -17.5090   27.1637 O   0  0  0  0  0  0  0  0  0  0  0  0
  2  1  1  6
  3  2  1  0
  4  3  1  0
  5  6  1  0
  5  4  1  0
  7  6  1  0
  8  2  1  0
  8  9  2  0
 10 11  1  0
 10  8  1  0
 11 12  1  1
 12 13  1  0
 14 11  1  0
 15 14  2  0
 16 17  1  0
 18 19  1  0
 18 17  1  0
 20 19  1  1
 20 21  1  0
 21 14  1  0
 22 20  1  0
 22 23  1  0
 24 22  2  0
M  END
$$$$
