KCM.pdb
     RDKit          3D

 24 23  0  0  1  0  0  0  0  0999 V2000
   12.5518  -17.7172   18.0967 N   0  0  0  0  0  0  0  0  0  0  0  0
   12.6317  -18.5224   19.2666 C   0  0  1  0  0  0  0  0  0  0  0  0
   14.0453  -18.8442   19.5947 C   0  0  0  0  0  0  0  0  0  0  0  0
   14.9334  -17.6649   19.8451 C   0  0  0  0  0  0  0  0  0  0  0  0
   16.3372  -17.9895   20.2175 C   0  0  0  0  0  0  0  0  0  0  0  0
   17.0936  -16.6605   20.4177 C   0  0  0  0  0  0  0  0  0  0  0  0
   18.4787  -16.9615   20.6952 N   0  0  0  0  0  0  0  0  0  0  0  0
   11.8745  -17.9756   20.4177 C   0  0  0  0  0  0  0  0  0  0  0  0
   11.6517  -16.7383   20.4477 O   0  0  0  0  0  0  0  0  0  0  0  0
   11.3829  -18.7638   21.4930 N   0  0  0  0  0  0  0  0  0  0  0  0
   10.5227  -18.2531   22.5416 C   0  0  1  0  0  0  0  0  0  0  0  0
    9.3818  -19.1697   22.8509 C   0  0  0  0  0  0  0  0  0  0  0  0
    8.1867  -18.4525   23.9896 S   0  0  0  0  0  0  0  0  0  0  0  0
   11.2508  -17.9180   23.7744 C   0  0  0  0  0  0  0  0  0  0  0  0
   12.2972  -18.4803   24.1588 O   0  0  0  0  0  0  0  0  0  0  0  0
    8.4387  -13.5478   27.9496 C   0  0  0  0  0  0  0  0  0  0  0  0
   10.1843  -13.5313   28.4597 S   0  0  0  0  0  0  0  0  0  0  0  0
   11.0360  -14.9780   27.8214 C   0  0  0  0  0  0  0  0  0  0  0  0
   10.5589  -15.4277   26.4742 C   0  0  0  0  0  0  0  0  0  0  0  0
   11.3945  -16.4904   25.8335 C   0  0  2  0  0  0  0  0  0  0  0  0
   10.7282  -16.8783   24.5902 N   0  0  0  0  0  0  0  0  0  0  0  0
   11.4489  -17.6766   26.7051 C   0  0  0  0  0  0  0  0  0  0  0  0
   10.4211  -18.6182   26.7620 O   0  0  0  0  0  0  0  0  0  0  0  0
   12.4488  -17.8887   27.4515 O   0  0  0  0  0  0  0  0  0  0  0  0
  2  1  1  6
  3  2  1  0
  4  3  1  0
  5  6  1  0
  5  4  1  0
  7  6  1  0
  8  2  1  0
  8  9  2  0
 10 11  1  0
 10  8  1  0
 11 12  1  1
 12 13  1  0
 14 11  1  0
 15 14  2  0
 16 17  1  0
 18 19  1  0
 18 17  1  0
 20 19  1  1
 20 21  1  0
 21 14  1  0
 22 20  1  0
 22 23  1  0
 24 22  2  0
M  END
$$$$
