KCM.pdb
     RDKit          3D

 24 23  0  0  1  0  0  0  0  0999 V2000
    7.4608  -21.3252   21.4428 N   0  0  0  0  0  0  0  0  0  0  0  0
    7.5398  -20.3050   22.4310 C   0  0  1  0  0  0  0  0  0  0  0  0
    7.3564  -20.8699   23.7937 C   0  0  0  0  0  0  0  0  0  0  0  0
    6.1734  -21.7719   23.9637 C   0  0  0  0  0  0  0  0  0  0  0  0
    4.8454  -21.1035   23.8997 C   0  0  0  0  0  0  0  0  0  0  0  0
    3.7647  -22.1699   24.1698 C   0  0  0  0  0  0  0  0  0  0  0  0
    2.4715  -21.5275   24.1359 N   0  0  0  0  0  0  0  0  0  0  0  0
    8.7456  -19.4516   22.3096 C   0  0  0  0  0  0  0  0  0  0  0  0
    9.8611  -19.9559   22.5970 O   0  0  0  0  0  0  0  0  0  0  0  0
    8.7205  -18.0949   21.8874 N   0  0  0  0  0  0  0  0  0  0  0  0
    9.9050  -17.2733   21.7383 C   0  0  1  0  0  0  0  0  0  0  0  0
    9.9068  -16.4874   20.4657 C   0  0  0  0  0  0  0  0  0  0  0  0
    9.6248  -17.5028   19.0066 S   0  0  0  0  0  0  0  0  0  0  0  0
   10.1377  -16.3813   22.8840 C   0  0  0  0  0  0  0  0  0  0  0  0
    9.2606  -15.6816   23.4315 O   0  0  0  0  0  0  0  0  0  0  0  0
   10.3905  -14.2492   29.6759 C   0  0  0  0  0  0  0  0  0  0  0  0
   10.2323  -15.4668   28.3343 S   0  0  0  0  0  0  0  0  0  0  0  0
   11.2066  -14.9610   26.9128 C   0  0  0  0  0  0  0  0  0  0  0  0
   10.9536  -15.7674   25.6757 C   0  0  0  0  0  0  0  0  0  0  0  0
   11.7843  -15.3818   24.4927 C   0  0  2  0  0  0  0  0  0  0  0  0
   11.4562  -16.3083   23.4092 N   0  0  0  0  0  0  0  0  0  0  0  0
   13.2132  -15.5469   24.8103 C   0  0  0  0  0  0  0  0  0  0  0  0
   13.9433  -14.5924   25.5188 O   0  0  0  0  0  0  0  0  0  0  0  0
   13.8448  -16.5803   24.4428 O   0  0  0  0  0  0  0  0  0  0  0  0
  2  1  1  6
  3  2  1  0
  4  3  1  0
  5  6  1  0
  5  4  1  0
  7  6  1  0
  8  2  1  0
  8  9  2  0
 10 11  1  0
 10  8  1  0
 11 12  1  6
 12 13  1  0
 14 11  1  0
 15 14  2  0
 16 17  1  0
 18 19  1  0
 18 17  1  0
 20 19  1  1
 20 21  1  0
 21 14  1  0
 22 20  1  0
 22 23  1  0
 24 22  2  0
M  END
$$$$
