KCM.pdb
     RDKit          3D

 24 23  0  0  1  0  0  0  0  0999 V2000
    5.8212  -18.0039   20.9038 N   0  0  0  0  0  0  0  0  0  0  0  0
    5.7505  -17.6736   22.2856 C   0  0  1  0  0  0  0  0  0  0  0  0
    5.6415  -18.8990   23.1199 C   0  0  0  0  0  0  0  0  0  0  0  0
    6.9412  -19.4848   23.5777 C   0  0  0  0  0  0  0  0  0  0  0  0
    6.8450  -20.8127   24.2425 C   0  0  0  0  0  0  0  0  0  0  0  0
    8.2589  -21.2111   24.7119 C   0  0  0  0  0  0  0  0  0  0  0  0
    8.1864  -22.5203   25.3176 N   0  0  0  0  0  0  0  0  0  0  0  0
    6.8246  -16.7554   22.7332 C   0  0  0  0  0  0  0  0  0  0  0  0
    7.9457  -16.8337   22.1689 O   0  0  0  0  0  0  0  0  0  0  0  0
    6.6669  -15.7892   23.7631 N   0  0  0  0  0  0  0  0  0  0  0  0
    7.7418  -14.9516   24.2565 C   0  0  1  0  0  0  0  0  0  0  0  0
    7.2464  -13.7730   25.0327 C   0  0  0  0  0  0  0  0  0  0  0  0
    5.7584  -14.1256   25.9818 S   0  0  0  0  0  0  0  0  0  0  0  0
    8.7377  -15.6936   25.0440 C   0  0  0  0  0  0  0  0  0  0  0  0
    8.4733  -16.4171   26.0266 O   0  0  0  0  0  0  0  0  0  0  0  0
    9.2409  -13.8072   29.4434 C   0  0  0  0  0  0  0  0  0  0  0  0
   11.0415  -14.0595   29.4859 S   0  0  0  0  0  0  0  0  0  0  0  0
   11.5686  -15.0421   28.0780 C   0  0  0  0  0  0  0  0  0  0  0  0
   10.6820  -14.9197   26.8764 C   0  0  0  0  0  0  0  0  0  0  0  0
   11.1703  -15.6386   25.6586 C   0  0  2  0  0  0  0  0  0  0  0  0
   10.1017  -15.5815   24.6611 N   0  0  0  0  0  0  0  0  0  0  0  0
   11.4134  -17.0557   25.9787 C   0  0  0  0  0  0  0  0  0  0  0  0
   10.4457  -18.0451   25.8031 O   0  0  0  0  0  0  0  0  0  0  0  0
   12.5306  -17.4356   26.4363 O   0  0  0  0  0  0  0  0  0  0  0  0
  2  1  1  6
  3  2  1  0
  4  3  1  0
  5  6  1  0
  5  4  1  0
  7  6  1  0
  8  2  1  0
  8  9  2  0
 10 11  1  0
 10  8  1  0
 11 12  1  1
 12 13  1  0
 14 11  1  0
 15 14  2  0
 16 17  1  0
 18 19  1  0
 18 17  1  0
 20 19  1  1
 20 21  1  0
 21 14  1  0
 22 20  1  0
 22 23  1  0
 24 22  2  0
M  END
$$$$
