KCM.pdb
     RDKit          3D

 24 23  0  0  1  0  0  0  0  0999 V2000
    6.5832  -17.0380   18.8082 N   0  0  0  0  0  0  0  0  0  0  0  0
    7.3576  -16.2555   19.7089 C   0  0  1  0  0  0  0  0  0  0  0  0
    6.7538  -14.9105   19.8987 C   0  0  0  0  0  0  0  0  0  0  0  0
    7.2910  -13.8316   19.0101 C   0  0  0  0  0  0  0  0  0  0  0  0
    8.4622  -13.0862   19.5459 C   0  0  0  0  0  0  0  0  0  0  0  0
    8.7630  -11.9204   18.5823 C   0  0  0  0  0  0  0  0  0  0  0  0
    9.8133  -11.1127   19.1574 N   0  0  0  0  0  0  0  0  0  0  0  0
    7.6618  -16.9448   20.9854 C   0  0  0  0  0  0  0  0  0  0  0  0
    6.6988  -17.3494   21.6856 O   0  0  0  0  0  0  0  0  0  0  0  0
    8.9773  -17.1782   21.4694 N   0  0  0  0  0  0  0  0  0  0  0  0
    9.2785  -17.5788   22.8292 C   0  0  1  0  0  0  0  0  0  0  0  0
   10.4859  -18.4571   22.9191 C   0  0  0  0  0  0  0  0  0  0  0  0
   10.9353  -18.8711   24.6120 S   0  0  0  0  0  0  0  0  0  0  0  0
    9.4111  -16.4408   23.7510 C   0  0  0  0  0  0  0  0  0  0  0  0
   10.1973  -15.4839   23.5927 O   0  0  0  0  0  0  0  0  0  0  0  0
    6.4025  -10.9370   27.7221 C   0  0  0  0  0  0  0  0  0  0  0  0
    6.5546  -12.1855   26.4084 S   0  0  0  0  0  0  0  0  0  0  0  0
    7.0935  -13.7545   27.0965 C   0  0  0  0  0  0  0  0  0  0  0  0
    7.2382  -14.8516   26.0865 C   0  0  0  0  0  0  0  0  0  0  0  0
    8.6422  -15.3153   25.8582 C   0  0  2  0  0  0  0  0  0  0  0  0
    8.5853  -16.4257   24.9075 N   0  0  0  0  0  0  0  0  0  0  0  0
    9.2099  -15.8279   27.1171 C   0  0  0  0  0  0  0  0  0  0  0  0
    9.7621  -14.9943   28.0898 O   0  0  0  0  0  0  0  0  0  0  0  0
    9.2203  -17.0686   27.3670 O   0  0  0  0  0  0  0  0  0  0  0  0
  2  1  1  6
  3  2  1  0
  4  3  1  0
  5  6  1  0
  5  4  1  0
  7  6  1  0
  8  2  1  0
  8  9  2  0
 10 11  1  0
 10  8  1  0
 11 12  1  6
 12 13  1  0
 14 11  1  0
 15 14  2  0
 16 17  1  0
 18 19  1  0
 18 17  1  0
 20 19  1  1
 20 21  1  0
 21 14  1  0
 22 20  1  0
 22 23  1  0
 24 22  2  0
M  END
$$$$
