KCM.pdb
     RDKit          3D

 24 23  0  0  1  0  0  0  0  0999 V2000
    6.2649  -18.4278   22.4941 N   0  0  0  0  0  0  0  0  0  0  0  0
    7.5174  -18.0852   21.9134 C   0  0  1  0  0  0  0  0  0  0  0  0
    7.5020  -18.3124   20.4445 C   0  0  0  0  0  0  0  0  0  0  0  0
    6.2439  -18.9132   19.8983 C   0  0  0  0  0  0  0  0  0  0  0  0
    6.1820  -19.0292   18.4160 C   0  0  0  0  0  0  0  0  0  0  0  0
    4.8061  -19.6181   18.0440 C   0  0  0  0  0  0  0  0  0  0  0  0
    4.7100  -19.6781   16.6041 N   0  0  0  0  0  0  0  0  0  0  0  0
    7.9984  -16.7349   22.2909 C   0  0  0  0  0  0  0  0  0  0  0  0
    9.0376  -16.2977   21.7337 O   0  0  0  0  0  0  0  0  0  0  0  0
    7.3573  -15.9004   23.2458 N   0  0  0  0  0  0  0  0  0  0  0  0
    7.8472  -14.5929   23.6343 C   0  0  1  0  0  0  0  0  0  0  0  0
    6.7742  -13.7187   24.2015 C   0  0  0  0  0  0  0  0  0  0  0  0
    6.1167  -14.3279   25.7623 S   0  0  0  0  0  0  0  0  0  0  0  0
    8.9900  -14.6549   24.5577 C   0  0  0  0  0  0  0  0  0  0  0  0
    9.6333  -13.6643   24.9623 O   0  0  0  0  0  0  0  0  0  0  0  0
    9.5039  -13.0272   29.1515 C   0  0  0  0  0  0  0  0  0  0  0  0
   10.7782  -14.2658   29.5385 S   0  0  0  0  0  0  0  0  0  0  0  0
   10.4745  -15.7817   28.6245 C   0  0  0  0  0  0  0  0  0  0  0  0
    9.6804  -15.5935   27.3680 C   0  0  0  0  0  0  0  0  0  0  0  0
   10.3567  -16.0656   26.1198 C   0  0  2  0  0  0  0  0  0  0  0  0
    9.3940  -15.9344   25.0262 N   0  0  0  0  0  0  0  0  0  0  0  0
   10.7025  -17.4918   26.2477 C   0  0  0  0  0  0  0  0  0  0  0  0
   11.8350  -17.9347   26.9313 O   0  0  0  0  0  0  0  0  0  0  0  0
    9.9718  -18.3861   25.7297 O   0  0  0  0  0  0  0  0  0  0  0  0
  2  1  1  6
  3  2  1  0
  4  3  1  0
  5  6  1  0
  5  4  1  0
  7  6  1  0
  8  2  1  0
  8  9  2  0
 10 11  1  0
 10  8  1  0
 11 12  1  1
 12 13  1  0
 14 11  1  0
 15 14  2  0
 16 17  1  0
 18 19  1  0
 18 17  1  0
 20 19  1  1
 20 21  1  0
 21 14  1  0
 22 20  1  0
 22 23  1  0
 24 22  2  0
M  END
$$$$
