KCM.pdb
     RDKit          3D

 24 23  0  0  1  0  0  0  0  0999 V2000
    4.0286  -19.6545   20.6984 N   0  0  0  0  0  0  0  0  0  0  0  0
    4.1286  -19.2387   22.0550 C   0  0  1  0  0  0  0  0  0  0  0  0
    3.5533  -20.2611   22.9679 C   0  0  0  0  0  0  0  0  0  0  0  0
    2.2265  -20.8196   22.5558 C   0  0  0  0  0  0  0  0  0  0  0  0
    1.0650  -19.9068   22.7355 C   0  0  0  0  0  0  0  0  0  0  0  0
   -0.2132  -20.6893   22.3718 C   0  0  0  0  0  0  0  0  0  0  0  0
   -1.3366  -19.7840   22.4386 N   0  0  0  0  0  0  0  0  0  0  0  0
    5.4918  -18.8072   22.4459 C   0  0  0  0  0  0  0  0  0  0  0  0
    5.7972  -18.8378   23.6654 O   0  0  0  0  0  0  0  0  0  0  0  0
    6.4785  -18.3597   21.5265 N   0  0  0  0  0  0  0  0  0  0  0  0
    7.8289  -17.9943   21.9051 C   0  0  1  0  0  0  0  0  0  0  0  0
    8.8008  -18.1229   20.7754 C   0  0  0  0  0  0  0  0  0  0  0  0
    8.8039  -19.7601   20.0278 S   0  0  0  0  0  0  0  0  0  0  0  0
    7.9193  -16.6525   22.4999 C   0  0  0  0  0  0  0  0  0  0  0  0
    7.4278  -15.6183   22.0022 O   0  0  0  0  0  0  0  0  0  0  0  0
    6.1372  -11.4930   27.3783 C   0  0  0  0  0  0  0  0  0  0  0  0
    6.0101  -13.1275   26.5908 S   0  0  0  0  0  0  0  0  0  0  0  0
    7.5783  -13.5857   25.8449 C   0  0  0  0  0  0  0  0  0  0  0  0
    7.5435  -14.8756   25.0836 C   0  0  0  0  0  0  0  0  0  0  0  0
    8.8049  -15.2081   24.3513 C   0  0  2  0  0  0  0  0  0  0  0  0
    8.6162  -16.5196   23.7313 N   0  0  0  0  0  0  0  0  0  0  0  0
    9.9225  -15.3165   25.3047 C   0  0  0  0  0  0  0  0  0  0  0  0
   10.5509  -14.2016   25.8598 O   0  0  0  0  0  0  0  0  0  0  0  0
   10.3645  -16.4476   25.6611 O   0  0  0  0  0  0  0  0  0  0  0  0
  2  1  1  6
  3  2  1  0
  4  3  1  0
  5  6  1  0
  5  4  1  0
  7  6  1  0
  8  2  1  0
  8  9  2  0
 10 11  1  0
 10  8  1  0
 11 12  1  6
 12 13  1  0
 14 11  1  0
 15 14  2  0
 16 17  1  0
 18 19  1  0
 18 17  1  0
 20 19  1  1
 20 21  1  0
 21 14  1  0
 22 20  1  0
 22 23  1  0
 24 22  2  0
M  END
$$$$
