RVI.pdb
     RDKit          3D

 27 26  0  0  1  0  0  0  0  0999 V2000
    9.1777  -17.7218   13.8237 N   0  0  0  0  0  0  0  0  0  0  0  0
    9.0182  -16.4442   14.4323 C   0  0  0  0  0  0  0  0  0  0  0  0
    9.7291  -15.4195   14.0582 N   0  0  0  0  0  0  0  0  0  0  0  0
    8.0786  -16.2119   15.4671 N   0  0  0  0  0  0  0  0  0  0  0  0
    8.4305  -16.2938   16.8581 C   0  0  0  0  0  0  0  0  0  0  0  0
    8.3350  -17.6365   17.4680 C   0  0  0  0  0  0  0  0  0  0  0  0
    9.3236  -18.0687   18.4644 C   0  0  0  0  0  0  0  0  0  0  0  0
    9.0622  -17.9029   19.9050 C   0  0  2  0  0  0  0  0  0  0  0  0
    7.6877  -18.1785   20.2558 N   0  0  0  0  0  0  0  0  0  0  0  0
    9.3666  -16.4722   20.2821 C   0  0  0  0  0  0  0  0  0  0  0  0
   10.4105  -15.9013   19.9428 O   0  0  0  0  0  0  0  0  0  0  0  0
   10.3537  -15.5503   13.2425 C   0  0  0  0  0  0  0  0  0  0  0  0
    6.8199  -13.9641   19.7489 C   0  0  1  0  0  0  0  0  0  0  0  0
    7.2514  -13.7425   21.1741 C   0  0  0  0  0  0  0  0  0  0  0  0
    7.2037  -12.2886   21.5677 C   0  0  2  0  0  0  0  0  0  0  0  0
    8.5591  -14.4028   21.5312 N   0  0  0  0  0  0  0  0  0  0  0  0
    8.4327  -15.7714   21.0414 C   0  0  0  0  0  0  0  0  0  0  0  0
    8.8358  -14.4873   22.9774 O   0  0  0  0  0  0  0  0  0  0  0  0
   10.0702  -14.4599   23.3119 C   0  0  0  0  0  0  0  0  0  0  0  0
    5.7976  -11.6153   26.1232 C   0  0  0  0  0  0  0  0  0  0  0  0
    6.9612  -12.3370   25.5504 C   0  0  2  0  0  0  0  0  0  0  0  0
    7.3587  -13.6300   26.1402 C   0  0  0  0  0  0  0  0  0  0  0  0
    7.7698  -13.3591   27.5890 C   0  0  2  0  0  0  0  0  0  0  0  0
    8.3267  -14.4381   25.4073 N   0  0  0  0  0  0  0  0  0  0  0  0
    7.8839  -14.5940   23.9943 C   0  0  0  0  0  0  0  0  0  0  0  0
    8.7429  -15.7549   25.8997 O   0  0  0  0  0  0  0  0  0  0  0  0
    8.0942  -16.7837   25.4709 O   0  0  0  0  0  0  0  0  0  0  0  0
  2  1  1  0
  3  2  2  0
  4  2  1  0
  5  6  1  0
  5  4  1  0
  7  6  1  0
  8  9  1  6
  8  7  1  0
 10  8  1  0
 11 10  2  0
 13 12  1  1
 13 14  1  0
 15 13  1  0
 15 16  1  6
 16 10  1  0
 17 15  1  0
 18 17  2  0
 20 19  1  0
 20 21  1  0
 21 23  1  0
 21 22  1  6
 23 24  1  6
 24 17  1  0
 25 23  1  0
 25 27  1  0
 26 25  2  0
M  END
$$$$
