RVI.pdb
     RDKit          3D

 27 26  0  0  1  0  0  0  0  0999 V2000
   14.8424  -20.1191   21.1318 N   0  0  0  0  0  0  0  0  0  0  0  0
   14.0699  -19.5171   22.1657 C   0  0  0  0  0  0  0  0  0  0  0  0
   13.9800  -20.0551   23.3480 N   0  0  0  0  0  0  0  0  0  0  0  0
   13.3655  -18.3028   21.9736 N   0  0  0  0  0  0  0  0  0  0  0  0
   13.3982  -17.5831   20.7301 C   0  0  0  0  0  0  0  0  0  0  0  0
   12.2885  -17.8630   19.7952 C   0  0  0  0  0  0  0  0  0  0  0  0
   10.9950  -17.1870   19.9585 C   0  0  0  0  0  0  0  0  0  0  0  0
    9.7376  -17.9552   19.9485 C   0  0  2  0  0  0  0  0  0  0  0  0
    9.1573  -18.0541   18.6287 N   0  0  0  0  0  0  0  0  0  0  0  0
    8.7457  -17.2560   20.8479 C   0  0  0  0  0  0  0  0  0  0  0  0
    8.0551  -16.3036   20.4648 O   0  0  0  0  0  0  0  0  0  0  0  0
   13.3520  -19.5939   24.0303 C   0  0  0  0  0  0  0  0  0  0  0  0
    8.0641  -19.4592   24.3747 C   0  0  1  0  0  0  0  0  0  0  0  0
    7.0343  -18.6535   23.6286 C   0  0  0  0  0  0  0  0  0  0  0  0
    6.3166  -19.4679   22.5832 C   0  0  1  0  0  0  0  0  0  0  0  0
    7.5481  -17.3397   23.0958 N   0  0  0  0  0  0  0  0  0  0  0  0
    8.6057  -17.7043   22.1590 C   0  0  0  0  0  0  0  0  0  0  0  0
    8.1560  -16.4560   24.1081 O   0  0  0  0  0  0  0  0  0  0  0  0
    9.4213  -16.2910   24.0173 C   0  0  0  0  0  0  0  0  0  0  0  0
    5.6456  -12.0524   25.8031 C   0  0  0  0  0  0  0  0  0  0  0  0
    6.7750  -12.9390   25.4272 C   0  0  2  0  0  0  0  0  0  0  0  0
    7.3919  -13.7866   26.4658 C   0  0  0  0  0  0  0  0  0  0  0  0
    8.0701  -12.8511   27.4691 C   0  0  2  0  0  0  0  0  0  0  0  0
    8.2510  -14.8793   26.0241 N   0  0  0  0  0  0  0  0  0  0  0  0
    7.4819  -15.7969   25.1390 C   0  0  0  0  0  0  0  0  0  0  0  0
    8.9945  -15.6967   26.9879 O   0  0  0  0  0  0  0  0  0  0  0  0
    8.4578  -16.8063   27.3671 O   0  0  0  0  0  0  0  0  0  0  0  0
  2  1  1  0
  3  2  2  0
  4  2  1  0
  5  6  1  0
  5  4  1  0
  7  6  1  0
  8  9  1  6
  8  7  1  0
 10  8  1  0
 11 10  2  0
 13 12  1  1
 13 14  1  0
 15 13  1  0
 15 16  1  6
 16 10  1  0
 17 15  1  0
 18 17  2  0
 20 19  1  0
 20 21  1  0
 21 23  1  0
 21 22  1  1
 23 24  1  6
 24 17  1  0
 25 23  1  0
 25 27  1  0
 26 25  2  0
M  END
$$$$
