RVI.pdb
     RDKit          3D

 27 26  0  0  1  0  0  0  0  0999 V2000
    7.7208  -12.8118   15.9562 N   0  0  0  0  0  0  0  0  0  0  0  0
    8.3517  -14.0836   16.0689 C   0  0  0  0  0  0  0  0  0  0  0  0
    9.3204  -14.4348   15.2729 N   0  0  0  0  0  0  0  0  0  0  0  0
    7.9714  -15.0316   17.0509 N   0  0  0  0  0  0  0  0  0  0  0  0
    6.9121  -14.7837   17.9899 C   0  0  0  0  0  0  0  0  0  0  0  0
    7.1840  -13.7475   19.0079 C   0  0  0  0  0  0  0  0  0  0  0  0
    7.1506  -14.0867   20.4364 C   0  0  0  0  0  0  0  0  0  0  0  0
    8.2316  -14.8802   21.0471 C   0  0  2  0  0  0  0  0  0  0  0  0
    8.4272  -16.1520   20.3892 N   0  0  0  0  0  0  0  0  0  0  0  0
    7.8695  -15.1469   22.4892 C   0  0  0  0  0  0  0  0  0  0  0  0
    7.3698  -14.2838   23.2213 O   0  0  0  0  0  0  0  0  0  0  0  0
    9.7558  -15.3599   15.4383 C   0  0  0  0  0  0  0  0  0  0  0  0
    6.1756  -18.6083   23.2353 C   0  0  2  0  0  0  0  0  0  0  0  0
    7.3812  -18.3667   24.1040 C   0  0  0  0  0  0  0  0  0  0  0  0
    7.3286  -19.1526   25.3888 C   0  0  2  0  0  0  0  0  0  0  0  0
    7.7006  -16.9092   24.3223 N   0  0  0  0  0  0  0  0  0  0  0  0
    8.1089  -16.4157   23.0113 C   0  0  0  0  0  0  0  0  0  0  0  0
    8.8207  -16.6522   25.2467 O   0  0  0  0  0  0  0  0  0  0  0  0
    9.9930  -16.8238   24.7642 C   0  0  0  0  0  0  0  0  0  0  0  0
    8.7165  -12.4708   28.4046 C   0  0  0  0  0  0  0  0  0  0  0  0
    9.2711  -13.5505   27.5504 C   0  0  2  0  0  0  0  0  0  0  0  0
    9.7555  -14.7884   28.1912 C   0  0  0  0  0  0  0  0  0  0  0  0
   10.9896  -14.4175   29.0165 C   0  0  2  0  0  0  0  0  0  0  0  0
    9.9600  -15.9548   27.3399 N   0  0  0  0  0  0  0  0  0  0  0  0
    8.7138  -16.2465   26.5791 C   0  0  0  0  0  0  0  0  0  0  0  0
   10.4605  -17.2178   27.8913 O   0  0  0  0  0  0  0  0  0  0  0  0
   11.7253  -17.4505   27.7943 O   0  0  0  0  0  0  0  0  0  0  0  0
  2  1  1  0
  3  2  2  0
  4  2  1  0
  5  6  1  0
  5  4  1  0
  7  6  1  0
  8  9  1  6
  8  7  1  0
 10  8  1  0
 11 10  2  0
 13 12  1  6
 13 14  1  0
 15 13  1  0
 15 16  1  1
 16 10  1  0
 17 15  1  0
 18 17  2  0
 20 19  1  0
 20 21  1  0
 21 23  1  0
 21 22  1  1
 23 24  1  6
 24 17  1  0
 25 23  1  0
 25 27  1  0
 26 25  2  0
M  END
$$$$
