RVI.pdb
     RDKit          3D

 27 26  0  0  1  0  0  0  0  0999 V2000
    9.8098  -22.0311   19.9427 N   0  0  0  0  0  0  0  0  0  0  0  0
   10.9571  -22.7672   20.3549 C   0  0  0  0  0  0  0  0  0  0  0  0
   11.1060  -24.0232   20.0457 N   0  0  0  0  0  0  0  0  0  0  0  0
   12.0000  -22.1796   21.1129 N   0  0  0  0  0  0  0  0  0  0  0  0
   11.9514  -20.8144   21.5593 C   0  0  0  0  0  0  0  0  0  0  0  0
   12.0399  -19.7876   20.5002 C   0  0  0  0  0  0  0  0  0  0  0  0
   11.9133  -18.3638   20.8374 C   0  0  0  0  0  0  0  0  0  0  0  0
   11.1528  -17.4491   19.9679 C   0  0  2  0  0  0  0  0  0  0  0  0
   11.9152  -17.0097   18.8215 N   0  0  0  0  0  0  0  0  0  0  0  0
   10.7730  -16.2306   20.7758 C   0  0  0  0  0  0  0  0  0  0  0  0
   11.6048  -15.3974   21.1560 O   0  0  0  0  0  0  0  0  0  0  0  0
   11.9613  -24.4959   20.3886 C   0  0  0  0  0  0  0  0  0  0  0  0
    7.6457  -14.0248   19.9603 C   0  0  2  0  0  0  0  0  0  0  0  0
    7.5494  -14.6505   21.3262 C   0  0  0  0  0  0  0  0  0  0  0  0
    6.6532  -13.8695   22.2525 C   0  0  2  0  0  0  0  0  0  0  0  0
    8.8830  -14.9843   21.9459 N   0  0  0  0  0  0  0  0  0  0  0  0
    9.4326  -16.0411   21.1032 C   0  0  0  0  0  0  0  0  0  0  0  0
    8.8116  -15.5213   23.3177 O   0  0  0  0  0  0  0  0  0  0  0  0
    8.9912  -16.7826   23.4332 C   0  0  0  0  0  0  0  0  0  0  0  0
    9.9934  -13.5728   29.0696 C   0  0  0  0  0  0  0  0  0  0  0  0
    9.8191  -14.6356   28.0484 C   0  0  2  0  0  0  0  0  0  0  0  0
    9.2769  -14.2707   26.7253 C   0  0  0  0  0  0  0  0  0  0  0  0
    8.0772  -13.3517   26.9659 C   0  0  2  0  0  0  0  0  0  0  0  0
    8.9962  -15.3524   25.7882 N   0  0  0  0  0  0  0  0  0  0  0  0
    8.5679  -14.7853   24.4798 C   0  0  0  0  0  0  0  0  0  0  0  0
    8.0728  -16.4369   26.1362 O   0  0  0  0  0  0  0  0  0  0  0  0
    6.8628  -16.3526   25.6979 O   0  0  0  0  0  0  0  0  0  0  0  0
  2  1  1  0
  3  2  2  0
  4  2  1  0
  5  6  1  0
  5  4  1  0
  7  6  1  0
  8  9  1  6
  8  7  1  0
 10  8  1  0
 11 10  2  0
 13 12  1  6
 13 14  1  0
 15 13  1  0
 15 16  1  1
 16 10  1  0
 17 15  1  0
 18 17  2  0
 20 19  1  0
 20 21  1  0
 21 23  1  0
 21 22  1  6
 23 24  1  1
 24 17  1  0
 25 23  1  0
 25 27  1  0
 26 25  2  0
M  END
$$$$
