RVI.pdb
     RDKit          3D

 27 26  0  0  1  0  0  0  0  0999 V2000
   11.1909  -23.0285   23.6393 N   0  0  0  0  0  0  0  0  0  0  0  0
   12.5100  -22.8480   23.1339 C   0  0  0  0  0  0  0  0  0  0  0  0
   13.5354  -23.4294   23.6871 N   0  0  0  0  0  0  0  0  0  0  0  0
   12.7823  -22.0382   22.0035 N   0  0  0  0  0  0  0  0  0  0  0  0
   12.4162  -20.6496   21.9460 C   0  0  0  0  0  0  0  0  0  0  0  0
   11.0361  -20.3300   22.3667 C   0  0  0  0  0  0  0  0  0  0  0  0
   10.6174  -18.9320   22.5307 C   0  0  0  0  0  0  0  0  0  0  0  0
   10.5253  -18.0324   21.3674 C   0  0  2  0  0  0  0  0  0  0  0  0
   11.6921  -18.1013   20.5177 N   0  0  0  0  0  0  0  0  0  0  0  0
   10.3932  -16.6146   21.8717 C   0  0  0  0  0  0  0  0  0  0  0  0
   11.3699  -15.9322   22.2051 O   0  0  0  0  0  0  0  0  0  0  0  0
   14.4725  -23.1816   23.3224 C   0  0  0  0  0  0  0  0  0  0  0  0
    8.3558  -14.0522   19.9570 C   0  0  1  0  0  0  0  0  0  0  0  0
    7.7903  -14.2198   21.3421 C   0  0  0  0  0  0  0  0  0  0  0  0
    7.0196  -13.0073   21.7970 C   0  0  2  0  0  0  0  0  0  0  0  0
    8.7937  -14.6926   22.3637 N   0  0  0  0  0  0  0  0  0  0  0  0
    9.1201  -16.0571   21.9631 C   0  0  0  0  0  0  0  0  0  0  0  0
    8.2850  -14.7602   23.7464 O   0  0  0  0  0  0  0  0  0  0  0  0
    7.5967  -15.7984   24.0377 C   0  0  0  0  0  0  0  0  0  0  0  0
   11.0468  -13.6396   28.2285 C   0  0  0  0  0  0  0  0  0  0  0  0
   10.0550  -14.2099   27.2831 C   0  0  2  0  0  0  0  0  0  0  0  0
    8.7506  -13.5376   27.1271 C   0  0  0  0  0  0  0  0  0  0  0  0
    8.0945  -13.4968   28.5089 C   0  0  2  0  0  0  0  0  0  0  0  0
    7.8601  -14.0248   26.0798 N   0  0  0  0  0  0  0  0  0  0  0  0
    8.4852  -13.8054   24.7463 C   0  0  0  0  0  0  0  0  0  0  0  0
    6.4644  -13.5821   26.0044 O   0  0  0  0  0  0  0  0  0  0  0  0
    6.2053  -12.5499   25.2760 O   0  0  0  0  0  0  0  0  0  0  0  0
  2  1  1  0
  3  2  2  0
  4  2  1  0
  5  6  1  0
  5  4  1  0
  7  6  1  0
  8  9  1  6
  8  7  1  0
 10  8  1  0
 11 10  2  0
 13 12  1  6
 13 14  1  0
 15 13  1  0
 15 16  1  1
 16 10  1  0
 17 15  1  0
 18 17  2  0
 20 19  1  0
 20 21  1  0
 21 23  1  0
 21 22  1  6
 23 24  1  1
 24 17  1  0
 25 23  1  0
 25 27  1  0
 26 25  2  0
M  END
$$$$
