IEQ.pdb
     RDKit          3D

 27 26  0  0  1  0  0  0  0  0999 V2000
   26.4334  -14.2400  -15.8176 C   0  0  0  0  0  0  0  0  0  0  0  0
   24.9473  -14.1674  -15.6460 C   0  0  0  0  0  0  0  0  0  0  0  0
   24.3984  -12.7722  -15.8168 C   0  0  2  0  0  0  0  0  0  0  0  0
   25.1151  -11.8575  -14.8322 C   0  0  0  0  0  0  0  0  0  0  0  0
   22.9091  -12.7079  -15.7131 C   0  0  2  0  0  0  0  0  0  0  0  0
   22.3910  -13.5464  -16.8080 N   0  0  0  0  0  0  0  0  0  0  0  0
   22.3104  -11.3916  -15.8763 C   0  0  0  0  0  0  0  0  0  0  0  0
   22.7229  -10.5743  -16.7713 O   0  0  0  0  0  0  0  0  0  0  0  0
   21.2244  -10.8563  -15.0924 N   0  0  0  0  0  0  0  0  0  0  0  0
   20.7691   -9.5052  -15.2296 C   0  0  1  0  0  0  0  0  0  0  0  0
   19.3223   -9.4044  -14.9085 C   0  0  0  0  0  0  0  0  0  0  0  0
   18.6607   -8.0914  -15.0236 C   0  0  0  0  0  0  0  0  0  0  0  0
   17.2061   -8.0499  -14.7928 C   0  0  0  0  0  0  0  0  0  0  0  0
   16.6860   -7.2444  -13.9696 O   0  0  0  0  0  0  0  0  0  0  0  0
   21.5232   -8.5396  -14.4230 C   0  0  0  0  0  0  0  0  0  0  0  0
   21.9976   -8.8211  -13.3007 O   0  0  0  0  0  0  0  0  0  0  0  0
   16.3577   -8.9012  -15.4784 O   0  0  0  0  0  0  0  0  0  0  0  0
   25.7369   -5.2734  -16.6306 N   0  0  0  0  0  0  0  0  0  0  0  0
   24.5120   -4.8211  -17.1768 C   0  0  0  0  0  0  0  0  0  0  0  0
   24.5175   -4.2408  -18.2814 O   0  0  0  0  0  0  0  0  0  0  0  0
   23.2664   -5.0747  -16.3746 C   0  0  0  0  0  0  0  0  0  0  0  0
   23.6293   -5.8615  -15.1478 C   0  0  0  0  0  0  0  0  0  0  0  0
   22.4476   -6.1874  -14.2705 C   0  0  2  0  0  0  0  0  0  0  0  0
   21.7126   -7.2378  -14.9519 N   0  0  0  0  0  0  0  0  0  0  0  0
   21.5275   -5.0433  -14.0873 C   0  0  0  0  0  0  0  0  0  0  0  0
   20.4320   -5.0057  -14.6980 O   0  0  0  0  0  0  0  0  0  0  0  0
   21.8224   -3.9801  -13.2506 O   0  0  0  0  0  0  0  0  0  0  0  0
  2  1  1  0
  2  3  1  0
  3  4  1  1
  5  3  1  0
  5  6  1  6
  7  8  2  0
  7  5  1  0
  9  7  1  0
 10  9  1  0
 10 11  1  1
 12 11  1  0
 12 13  1  0
 13 14  2  0
 15 10  1  0
 16 15  2  0
 17 13  1  0
 19 18  1  0
 20 19  2  0
 21 19  1  0
 22 21  1  0
 23 22  1  6
 23 24  1  0
 24 15  1  0
 25 23  1  0
 26 25  2  0
 27 25  1  0
M  END
$$$$
