IEQ.pdb
     RDKit          3D

 27 26  0  0  1  0  0  0  0  0999 V2000
   24.9467  -12.5416  -16.1768 C   0  0  0  0  0  0  0  0  0  0  0  0
   23.5354  -12.5979  -15.6785 C   0  0  0  0  0  0  0  0  0  0  0  0
   22.9276  -11.2334  -15.4644 C   0  0  2  0  0  0  0  0  0  0  0  0
   23.8358  -10.4528  -14.5233 C   0  0  0  0  0  0  0  0  0  0  0  0
   21.5049  -11.2865  -15.0107 C   0  0  2  0  0  0  0  0  0  0  0  0
   20.7590  -11.9477  -16.0955 N   0  0  0  0  0  0  0  0  0  0  0  0
   20.8565  -10.0043  -14.7794 C   0  0  0  0  0  0  0  0  0  0  0  0
   20.5397   -9.2295  -15.7482 O   0  0  0  0  0  0  0  0  0  0  0  0
   20.4991   -9.4603  -13.4923 N   0  0  0  0  0  0  0  0  0  0  0  0
   19.9659   -8.1402  -13.3359 C   0  0  1  0  0  0  0  0  0  0  0  0
   19.0986   -8.0643  -12.1323 C   0  0  0  0  0  0  0  0  0  0  0  0
   18.5221   -6.7603  -11.7554 C   0  0  0  0  0  0  0  0  0  0  0  0
   17.6675   -6.7256  -10.5556 C   0  0  0  0  0  0  0  0  0  0  0  0
   17.5093   -7.7423   -9.8220 O   0  0  0  0  0  0  0  0  0  0  0  0
   20.9882   -7.0900  -13.2757 C   0  0  0  0  0  0  0  0  0  0  0  0
   21.9823   -7.1572  -12.5200 O   0  0  0  0  0  0  0  0  0  0  0  0
   17.0060   -5.5655  -10.1932 O   0  0  0  0  0  0  0  0  0  0  0  0
   23.8743   -5.4078  -17.7171 N   0  0  0  0  0  0  0  0  0  0  0  0
   24.2882   -4.2656  -16.9910 C   0  0  0  0  0  0  0  0  0  0  0  0
   25.2266   -3.5723  -17.4333 O   0  0  0  0  0  0  0  0  0  0  0  0
   23.5566   -3.9607  -15.7138 C   0  0  0  0  0  0  0  0  0  0  0  0
   22.5278   -5.0286  -15.4753 C   0  0  0  0  0  0  0  0  0  0  0  0
   21.7741   -4.8598  -14.1809 C   0  0  2  0  0  0  0  0  0  0  0  0
   20.8275   -5.9587  -14.1151 N   0  0  0  0  0  0  0  0  0  0  0  0
   21.0019   -3.5992  -14.1187 C   0  0  0  0  0  0  0  0  0  0  0  0
   19.8121   -3.5634  -14.5155 O   0  0  0  0  0  0  0  0  0  0  0  0
   21.5416   -2.4215  -13.6295 O   0  0  0  0  0  0  0  0  0  0  0  0
  2  1  1  0
  2  3  1  0
  3  4  1  1
  5  3  1  0
  5  6  1  6
  7  8  2  0
  7  5  1  0
  9  7  1  0
 10  9  1  0
 10 11  1  1
 12 11  1  0
 12 13  1  0
 13 14  2  0
 15 10  1  0
 16 15  2  0
 17 13  1  0
 19 18  1  0
 20 19  2  0
 21 19  1  0
 22 21  1  0
 23 22  1  6
 23 24  1  0
 24 15  1  0
 25 23  1  0
 26 25  2  0
 27 25  1  0
M  END
$$$$
