IEQ.pdb
     RDKit          3D

 27 26  0  0  1  0  0  0  0  0999 V2000
   24.3593  -18.9795  -17.8819 C   0  0  0  0  0  0  0  0  0  0  0  0
   24.1653  -20.1153  -16.9249 C   0  0  0  0  0  0  0  0  0  0  0  0
   23.2414  -19.7754  -15.7813 C   0  0  2  0  0  0  0  0  0  0  0  0
   23.7246  -18.4751  -15.1525 C   0  0  0  0  0  0  0  0  0  0  0  0
   23.0854  -20.8899  -14.7983 C   0  0  2  0  0  0  0  0  0  0  0  0
   23.0133  -22.1260  -15.5967 N   0  0  0  0  0  0  0  0  0  0  0  0
   21.8871  -20.8554  -13.9733 C   0  0  0  0  0  0  0  0  0  0  0  0
   21.7481  -20.0018  -13.0293 O   0  0  0  0  0  0  0  0  0  0  0  0
   20.7497  -21.7331  -14.1017 N   0  0  0  0  0  0  0  0  0  0  0  0
   19.6605  -21.7222  -13.1716 C   0  0  1  0  0  0  0  0  0  0  0  0
   18.4005  -21.3142  -13.8445 C   0  0  0  0  0  0  0  0  0  0  0  0
   18.1486  -19.8782  -14.0663 C   0  0  0  0  0  0  0  0  0  0  0  0
   16.8907  -19.5137  -14.7414 C   0  0  0  0  0  0  0  0  0  0  0  0
   16.2550  -18.4634  -14.4415 O   0  0  0  0  0  0  0  0  0  0  0  0
   19.4594  -22.9987  -12.4775 C   0  0  0  0  0  0  0  0  0  0  0  0
   19.6642  -24.1047  -13.0241 O   0  0  0  0  0  0  0  0  0  0  0  0
   16.3631  -20.3196  -15.7347 O   0  0  0  0  0  0  0  0  0  0  0  0
   19.1422  -24.3645   -6.4063 N   0  0  0  0  0  0  0  0  0  0  0  0
   17.8145  -24.6296   -6.8189 C   0  0  0  0  0  0  0  0  0  0  0  0
   17.0188  -25.1465   -6.0086 O   0  0  0  0  0  0  0  0  0  0  0  0
   17.4473  -24.2643   -8.2300 C   0  0  0  0  0  0  0  0  0  0  0  0
   18.6336  -23.6228   -8.8911 C   0  0  0  0  0  0  0  0  0  0  0  0
   18.8942  -24.1329  -10.2854 C   0  0  2  0  0  0  0  0  0  0  0  0
   19.0139  -22.9595  -11.1320 N   0  0  0  0  0  0  0  0  0  0  0  0
   17.7879  -24.9584  -10.8180 C   0  0  0  0  0  0  0  0  0  0  0  0
   17.8468  -26.2106  -10.7628 O   0  0  0  0  0  0  0  0  0  0  0  0
   16.6565  -24.4028  -11.3911 O   0  0  0  0  0  0  0  0  0  0  0  0
  2  1  1  0
  2  3  1  0
  3  4  1  1
  5  3  1  0
  5  6  1  6
  7  8  2  0
  7  5  1  0
  9  7  1  0
 10  9  1  0
 10 11  1  6
 12 11  1  0
 12 13  1  0
 13 14  2  0
 15 10  1  0
 16 15  2  0
 17 13  1  0
 19 18  1  0
 20 19  2  0
 21 19  1  0
 22 21  1  0
 23 22  1  1
 23 24  1  0
 24 15  1  0
 25 23  1  0
 26 25  2  0
 27 25  1  0
M  END
$$$$
