IEQ.pdb
     RDKit          3D

 27 26  0  0  1  0  0  0  0  0999 V2000
   29.4893  -20.2291  -11.7828 C   0  0  0  0  0  0  0  0  0  0  0  0
   28.4101  -21.2495  -11.9768 C   0  0  0  0  0  0  0  0  0  0  0  0
   27.0327  -20.7236  -11.6555 C   0  0  2  0  0  0  0  0  0  0  0  0
   27.0441  -20.2109  -10.2213 C   0  0  0  0  0  0  0  0  0  0  0  0
   25.9462  -21.7133  -11.9251 C   0  0  2  0  0  0  0  0  0  0  0  0
   26.2946  -22.3580  -13.2032 N   0  0  0  0  0  0  0  0  0  0  0  0
   24.6062  -21.1683  -12.0843 C   0  0  0  0  0  0  0  0  0  0  0  0
   23.8747  -20.8828  -11.0731 O   0  0  0  0  0  0  0  0  0  0  0  0
   23.9536  -20.8883  -13.3397 N   0  0  0  0  0  0  0  0  0  0  0  0
   22.6030  -20.4178  -13.4169 C   0  0  1  0  0  0  0  0  0  0  0  0
   22.4126  -19.5654  -14.6185 C   0  0  0  0  0  0  0  0  0  0  0  0
   21.0678  -19.0311  -14.9024 C   0  0  0  0  0  0  0  0  0  0  0  0
   20.9082  -18.2315  -16.1296 C   0  0  0  0  0  0  0  0  0  0  0  0
   19.8285  -18.2295  -16.7865 O   0  0  0  0  0  0  0  0  0  0  0  0
   21.5997  -21.4879  -13.4057 C   0  0  0  0  0  0  0  0  0  0  0  0
   21.5581  -22.3842  -14.2768 O   0  0  0  0  0  0  0  0  0  0  0  0
   21.9475  -17.4508  -16.6040 O   0  0  0  0  0  0  0  0  0  0  0  0
   19.6444  -23.4492   -8.1486 N   0  0  0  0  0  0  0  0  0  0  0  0
   18.5749  -24.0465   -8.8575 C   0  0  0  0  0  0  0  0  0  0  0  0
   17.7503  -24.7465   -8.2355 O   0  0  0  0  0  0  0  0  0  0  0  0
   18.5044  -23.7926  -10.3374 C   0  0  0  0  0  0  0  0  0  0  0  0
   19.6280  -22.8758  -10.7281 C   0  0  0  0  0  0  0  0  0  0  0  0
   19.6300  -22.5161  -12.1918 C   0  0  2  0  0  0  0  0  0  0  0  0
   20.6449  -21.4913  -12.3576 N   0  0  0  0  0  0  0  0  0  0  0  0
   18.3428  -21.9503  -12.6525 C   0  0  0  0  0  0  0  0  0  0  0  0
   17.5813  -22.6224  -13.3892 O   0  0  0  0  0  0  0  0  0  0  0  0
   17.9230  -20.6784  -12.3011 O   0  0  0  0  0  0  0  0  0  0  0  0
  2  1  1  0
  2  3  1  0
  3  4  1  1
  5  3  1  0
  5  6  1  6
  7  8  2  0
  7  5  1  0
  9  7  1  0
 10  9  1  0
 10 11  1  6
 12 11  1  0
 12 13  1  0
 13 14  2  0
 15 10  1  0
 16 15  2  0
 17 13  1  0
 19 18  1  0
 20 19  2  0
 21 19  1  0
 22 21  1  0
 23 22  1  1
 23 24  1  0
 24 15  1  0
 25 23  1  0
 26 25  2  0
 27 25  1  0
M  END
$$$$
