IEQ.pdb
     RDKit          3D

 27 26  0  0  1  0  0  0  0  0999 V2000
   16.9893  -10.6983  -10.7086 C   0  0  0  0  0  0  0  0  0  0  0  0
   16.7262  -10.7384  -12.1825 C   0  0  0  0  0  0  0  0  0  0  0  0
   17.2914   -9.5482  -12.9180 C   0  0  2  0  0  0  0  0  0  0  0  0
   16.7130   -8.2860  -12.2917 C   0  0  0  0  0  0  0  0  0  0  0  0
   17.0954   -9.6220  -14.3975 C   0  0  2  0  0  0  0  0  0  0  0  0
   17.8211  -10.8247  -14.8419 N   0  0  0  0  0  0  0  0  0  0  0  0
   17.6216   -8.5074  -15.1713 C   0  0  0  0  0  0  0  0  0  0  0  0
   18.8771   -8.3719  -15.3823 O   0  0  0  0  0  0  0  0  0  0  0  0
   16.8393   -7.4576  -15.7764 N   0  0  0  0  0  0  0  0  0  0  0  0
   17.4353   -6.2971  -16.3678 C   0  0  1  0  0  0  0  0  0  0  0  0
   16.4491   -5.5730  -17.2103 C   0  0  0  0  0  0  0  0  0  0  0  0
   15.9812   -6.2068  -18.4569 C   0  0  0  0  0  0  0  0  0  0  0  0
   16.9549   -6.3255  -19.5563 C   0  0  0  0  0  0  0  0  0  0  0  0
   17.5688   -7.4057  -19.7874 O   0  0  0  0  0  0  0  0  0  0  0  0
   18.0281   -5.3728  -15.3953 C   0  0  0  0  0  0  0  0  0  0  0  0
   17.6004   -5.2567  -14.2258 O   0  0  0  0  0  0  0  0  0  0  0  0
   17.2285   -5.2456  -20.3770 O   0  0  0  0  0  0  0  0  0  0  0  0
   21.5420   -6.1712  -11.9908 N   0  0  0  0  0  0  0  0  0  0  0  0
   21.9324   -6.5335  -13.3021 C   0  0  0  0  0  0  0  0  0  0  0  0
   22.7285   -7.4816  -13.4583 O   0  0  0  0  0  0  0  0  0  0  0  0
   21.3516   -5.7372  -14.4370 C   0  0  0  0  0  0  0  0  0  0  0  0
   20.4849   -4.6476  -13.8735 C   0  0  0  0  0  0  0  0  0  0  0  0
   19.9029   -3.7375  -14.9247 C   0  0  2  0  0  0  0  0  0  0  0  0
   19.1302   -4.5856  -15.8145 N   0  0  0  0  0  0  0  0  0  0  0  0
   20.9339   -3.0564  -15.7386 C   0  0  0  0  0  0  0  0  0  0  0  0
   21.0104   -3.2682  -16.9730 O   0  0  0  0  0  0  0  0  0  0  0  0
   21.8459   -2.1700  -15.1909 O   0  0  0  0  0  0  0  0  0  0  0  0
  2  1  1  0
  2  3  1  0
  3  4  1  1
  5  3  1  0
  5  6  1  6
  7  8  2  0
  7  5  1  0
  9  7  1  0
 10  9  1  0
 10 11  1  1
 12 11  1  0
 12 13  1  0
 13 14  2  0
 15 10  1  0
 16 15  2  0
 17 13  1  0
 19 18  1  0
 20 19  2  0
 21 19  1  0
 22 21  1  0
 23 22  1  1
 23 24  1  0
 24 15  1  0
 25 23  1  0
 26 25  2  0
 27 25  1  0
M  END
$$$$
