IEQ.pdb
     RDKit          3D

 27 26  0  0  1  0  0  0  0  0999 V2000
   17.0505  -10.8750  -17.9458 C   0  0  0  0  0  0  0  0  0  0  0  0
   17.2648  -11.7061  -16.7183 C   0  0  0  0  0  0  0  0  0  0  0  0
   17.2112  -10.9028  -15.4420 C   0  0  2  0  0  0  0  0  0  0  0  0
   15.8500  -10.2238  -15.3665 C   0  0  0  0  0  0  0  0  0  0  0  0
   18.3576   -9.9560  -15.2928 C   0  0  2  0  0  0  0  0  0  0  0  0
   19.5742  -10.7863  -15.3232 N   0  0  0  0  0  0  0  0  0  0  0  0
   18.4036   -9.1934  -14.0542 C   0  0  0  0  0  0  0  0  0  0  0  0
   18.1359   -9.7335  -12.9247 O   0  0  0  0  0  0  0  0  0  0  0  0
   18.7415   -7.7962  -13.9365 N   0  0  0  0  0  0  0  0  0  0  0  0
   18.7840   -7.1183  -12.6755 C   0  0  1  0  0  0  0  0  0  0  0  0
   19.7001   -5.9506  -12.7386 C   0  0  0  0  0  0  0  0  0  0  0  0
   21.1280   -6.1848  -13.0235 C   0  0  0  0  0  0  0  0  0  0  0  0
   22.0208   -5.0132  -12.9876 C   0  0  0  0  0  0  0  0  0  0  0  0
   23.2743   -5.1285  -13.0989 O   0  0  0  0  0  0  0  0  0  0  0  0
   17.4691   -6.6893  -12.1871 C   0  0  0  0  0  0  0  0  0  0  0  0
   16.5762   -6.2519  -12.9458 O   0  0  0  0  0  0  0  0  0  0  0  0
   21.5068   -3.7383  -12.8294 O   0  0  0  0  0  0  0  0  0  0  0  0
   14.4083  -10.0121   -8.7441 N   0  0  0  0  0  0  0  0  0  0  0  0
   13.6417   -8.8840   -8.3660 C   0  0  0  0  0  0  0  0  0  0  0  0
   12.5964   -9.0540   -7.7062 O   0  0  0  0  0  0  0  0  0  0  0  0
   14.1479   -7.5346   -8.7928 C   0  0  0  0  0  0  0  0  0  0  0  0
   15.4418   -7.7123   -9.5343 C   0  0  0  0  0  0  0  0  0  0  0  0
   15.9436   -6.4465  -10.1809 C   0  0  2  0  0  0  0  0  0  0  0  0
   17.2162   -6.7802  -10.7950 N   0  0  0  0  0  0  0  0  0  0  0  0
   16.1868   -5.3559   -9.2110 C   0  0  0  0  0  0  0  0  0  0  0  0
   15.2235   -4.7591   -8.6722 O   0  0  0  0  0  0  0  0  0  0  0  0
   17.4619   -4.9484   -8.8565 O   0  0  0  0  0  0  0  0  0  0  0  0
  2  1  1  0
  2  3  1  0
  3  4  1  6
  5  3  1  0
  5  6  1  1
  7  8  2  0
  7  5  1  0
  9  7  1  0
 10  9  1  0
 10 11  1  6
 12 11  1  0
 12 13  1  0
 13 14  2  0
 15 10  1  0
 16 15  2  0
 17 13  1  0
 19 18  1  0
 20 19  2  0
 21 19  1  0
 22 21  1  0
 23 22  1  1
 23 24  1  0
 24 15  1  0
 25 23  1  0
 26 25  2  0
 27 25  1  0
M  END
$$$$
