IEQ.pdb
     RDKit          3D

 27 26  0  0  1  0  0  0  0  0999 V2000
   15.9431  -12.4655  -18.9364 C   0  0  0  0  0  0  0  0  0  0  0  0
   17.0130  -12.3197  -17.8984 C   0  0  0  0  0  0  0  0  0  0  0  0
   17.0996  -10.9251  -17.3286 C   0  0  2  0  0  0  0  0  0  0  0  0
   17.3862   -9.9626  -18.4736 C   0  0  0  0  0  0  0  0  0  0  0  0
   18.0690  -10.8097  -16.1973 C   0  0  2  0  0  0  0  0  0  0  0  0
   17.5847  -11.7309  -15.1545 N   0  0  0  0  0  0  0  0  0  0  0  0
   18.1787   -9.4978  -15.5770 C   0  0  0  0  0  0  0  0  0  0  0  0
   17.1633   -8.9143  -15.0598 O   0  0  0  0  0  0  0  0  0  0  0  0
   19.3861   -8.7167  -15.4650 N   0  0  0  0  0  0  0  0  0  0  0  0
   19.3852   -7.3604  -15.0047 C   0  0  1  0  0  0  0  0  0  0  0  0
   20.6646   -7.0375  -14.3223 C   0  0  0  0  0  0  0  0  0  0  0  0
   20.8357   -5.6954  -13.7356 C   0  0  0  0  0  0  0  0  0  0  0  0
   22.1152   -5.4158  -13.0607 C   0  0  0  0  0  0  0  0  0  0  0  0
   22.5768   -4.2429  -12.9696 O   0  0  0  0  0  0  0  0  0  0  0  0
   19.1252   -6.3752  -16.0599 C   0  0  0  0  0  0  0  0  0  0  0  0
   19.5920   -6.4832  -17.2151 O   0  0  0  0  0  0  0  0  0  0  0  0
   22.8570   -6.4408  -12.5005 O   0  0  0  0  0  0  0  0  0  0  0  0
   13.7664   -2.4688  -18.7275 N   0  0  0  0  0  0  0  0  0  0  0  0
   14.4340   -3.3255  -17.8201 C   0  0  0  0  0  0  0  0  0  0  0  0
   13.7871   -4.2261  -17.2478 O   0  0  0  0  0  0  0  0  0  0  0  0
   15.9023   -3.0877  -17.6037 C   0  0  0  0  0  0  0  0  0  0  0  0
   16.4499   -4.1832  -16.7343 C   0  0  0  0  0  0  0  0  0  0  0  0
   17.9561   -4.2191  -16.6885 C   0  0  2  0  0  0  0  0  0  0  0  0
   18.3096   -5.2603  -15.7405 N   0  0  0  0  0  0  0  0  0  0  0  0
   18.5528   -2.9536  -16.2070 C   0  0  0  0  0  0  0  0  0  0  0  0
   18.4612   -1.9071  -16.8932 O   0  0  0  0  0  0  0  0  0  0  0  0
   19.2271   -2.8626  -15.0010 O   0  0  0  0  0  0  0  0  0  0  0  0
  2  1  1  0
  2  3  1  0
  3  4  1  6
  5  3  1  0
  5  6  1  1
  7  8  2  0
  7  5  1  0
  9  7  1  0
 10  9  1  0
 10 11  1  6
 12 11  1  0
 12 13  1  0
 13 14  2  0
 15 10  1  0
 16 15  2  0
 17 13  1  0
 19 18  1  0
 20 19  2  0
 21 19  1  0
 22 21  1  0
 23 22  1  1
 23 24  1  0
 24 15  1  0
 25 23  1  0
 26 25  2  0
 27 25  1  0
M  END
$$$$
