VEH.pdb
     RDKit          3D

 27 27  0  0  1  0  0  0  0  0999 V2000
   17.0485  -12.0947  -18.9763 C   0  0  0  0  0  0  0  0  0  0  0  0
   17.7251  -13.3252  -18.4054 C   0  0  1  0  0  0  0  0  0  0  0  0
   17.6843  -14.4493  -19.4020 C   0  0  0  0  0  0  0  0  0  0  0  0
   19.1314  -12.9611  -17.9875 C   0  0  2  0  0  0  0  0  0  0  0  0
   19.8499  -14.1197  -17.5215 N   0  0  0  0  0  0  0  0  0  0  0  0
   19.1972  -11.8119  -17.0956 C   0  0  0  0  0  0  0  0  0  0  0  0
   19.2757  -12.0040  -15.8407 O   0  0  0  0  0  0  0  0  0  0  0  0
   19.1826  -10.4275  -17.4846 N   0  0  0  0  0  0  0  0  0  0  0  0
   19.2637   -9.3562  -16.5642 C   0  0  1  0  0  0  0  0  0  0  0  0
   20.5241   -8.6202  -16.3752 C   0  0  0  0  0  0  0  0  0  0  0  0
   20.5780   -7.5261  -15.3792 C   0  0  0  0  0  0  0  0  0  0  0  0
   21.8897   -6.8601  -15.2950 C   0  0  0  0  0  0  0  0  0  0  0  0
   22.1386   -5.7101  -15.6911 O   0  0  0  0  0  0  0  0  0  0  0  0
   18.1581   -8.3735  -16.8069 C   0  0  0  0  0  0  0  0  0  0  0  0
   18.4489   -7.2256  -17.2848 O   0  0  0  0  0  0  0  0  0  0  0  0
   22.9671   -7.5699  -14.7200 O   0  0  0  0  0  0  0  0  0  0  0  0
   16.8194   -8.7356  -16.5031 N   0  0  0  0  0  0  0  0  0  0  0  0
   16.2677   -8.5314  -15.1660 C   0  0  1  0  0  0  0  0  0  0  0  0
   16.7416   -9.7058  -14.3439 C   0  0  0  0  0  0  0  0  0  0  0  0
   16.2284   -9.6352  -12.9778 C   0  0  0  0  0  0  0  0  0  0  0  0
   15.4255   -8.6420  -12.4678 C   0  0  0  0  0  0  0  0  0  0  0  0
   15.1828   -8.9321  -11.1828 N   0  0  0  0  0  0  0  0  0  0  0  0
   15.8077  -10.0755  -10.8693 C   0  0  0  0  0  0  0  0  0  0  0  0
   16.4454  -10.4991  -11.9738 N   0  0  0  0  0  0  0  0  0  0  0  0
   16.6293   -7.2206  -14.6335 C   0  0  0  0  0  0  0  0  0  0  0  0
   17.8261   -6.8884  -14.4943 O   0  0  0  0  0  0  0  0  0  0  0  0
   15.6458   -6.3206  -14.2734 O   0  0  0  0  0  0  0  0  0  0  0  0
  2  4  1  0
  2  1  1  6
  3  2  1  0
  4  6  1  0
  4  5  1  1
  6  7  2  0
  8  9  1  0
  8  6  1  0
  9 10  1  6
 11 10  1  0
 12 13  2  0
 12 11  1  0
 14 15  2  0
 14  9  1  0
 16 12  1  0
 17 14  1  0
 18 17  1  0
 18 25  1  0
 18 19  1  1
 20 19  1  0
 20 24  1  0
 21 22  1  0
 21 20  2  0
 22 23  1  0
 23 24  2  0
 25 27  1  0
 26 25  2  0
M  END
$$$$
