VEH.pdb
     RDKit          3D

 27 27  0  0  1  0  0  0  0  0999 V2000
   18.8970  -15.5424  -16.0003 C   0  0  0  0  0  0  0  0  0  0  0  0
   18.5119  -14.0883  -15.8128 C   0  0  1  0  0  0  0  0  0  0  0  0
   19.5191  -13.1945  -16.4800 C   0  0  0  0  0  0  0  0  0  0  0  0
   17.1077  -13.8828  -16.3335 C   0  0  2  0  0  0  0  0  0  0  0  0
   16.9493  -14.4665  -17.6411 N   0  0  0  0  0  0  0  0  0  0  0  0
   16.6399  -12.5079  -16.2262 C   0  0  0  0  0  0  0  0  0  0  0  0
   16.7567  -11.7329  -17.2280 O   0  0  0  0  0  0  0  0  0  0  0  0
   16.0367  -11.8991  -15.0715 N   0  0  0  0  0  0  0  0  0  0  0  0
   15.6576  -10.5373  -15.0143 C   0  0  1  0  0  0  0  0  0  0  0  0
   14.3787  -10.1371  -14.4058 C   0  0  0  0  0  0  0  0  0  0  0  0
   13.1346  -10.8208  -14.8265 C   0  0  0  0  0  0  0  0  0  0  0  0
   12.4350  -11.5139  -13.7305 C   0  0  0  0  0  0  0  0  0  0  0  0
   12.2564  -12.7402  -13.6537 O   0  0  0  0  0  0  0  0  0  0  0  0
   16.7588   -9.7125  -14.4192 C   0  0  0  0  0  0  0  0  0  0  0  0
   17.5649  -10.2640  -13.5965 O   0  0  0  0  0  0  0  0  0  0  0  0
   11.9164  -10.7392  -12.6693 O   0  0  0  0  0  0  0  0  0  0  0  0
   16.8831   -8.3450  -14.7792 N   0  0  0  0  0  0  0  0  0  0  0  0
   18.1807   -7.6742  -14.7583 C   0  0  1  0  0  0  0  0  0  0  0  0
   19.1284   -8.5933  -15.4908 C   0  0  0  0  0  0  0  0  0  0  0  0
   20.4745   -8.0280  -15.5464 C   0  0  0  0  0  0  0  0  0  0  0  0
   20.8731   -6.8366  -14.9869 C   0  0  0  0  0  0  0  0  0  0  0  0
   22.1721   -6.6681  -15.2667 N   0  0  0  0  0  0  0  0  0  0  0  0
   22.6022   -7.7153  -15.9840 C   0  0  0  0  0  0  0  0  0  0  0  0
   21.5567   -8.5429  -16.1507 N   0  0  0  0  0  0  0  0  0  0  0  0
   18.0914   -6.3215  -15.3010 C   0  0  0  0  0  0  0  0  0  0  0  0
   17.4468   -6.0866  -16.3457 O   0  0  0  0  0  0  0  0  0  0  0  0
   18.7227   -5.2725  -14.6621 O   0  0  0  0  0  0  0  0  0  0  0  0
  2  4  1  0
  2  1  1  6
  3  2  1  0
  4  6  1  0
  4  5  1  6
  6  7  2  0
  8  9  1  0
  8  6  1  0
  9 10  1  1
 11 10  1  0
 12 13  2  0
 12 11  1  0
 14 15  2  0
 14  9  1  0
 16 12  1  0
 17 14  1  0
 18 17  1  0
 18 25  1  0
 18 19  1  6
 20 19  1  0
 20 24  1  0
 21 22  1  0
 21 20  2  0
 22 23  1  0
 23 24  2  0
 25 27  1  0
 26 25  2  0
M  END
$$$$
