VEH.pdb
     RDKit          3D

 27 27  0  0  1  0  0  0  0  0999 V2000
   11.9608   -9.4408  -10.6595 C   0  0  0  0  0  0  0  0  0  0  0  0
   11.9701  -10.7394   -9.8775 C   0  0  1  0  0  0  0  0  0  0  0  0
   10.5798  -11.0792   -9.4191 C   0  0  0  0  0  0  0  0  0  0  0  0
   12.5877  -11.8217  -10.7332 C   0  0  2  0  0  0  0  0  0  0  0  0
   12.5942  -13.0868  -10.0439 N   0  0  0  0  0  0  0  0  0  0  0  0
   13.8681  -11.4463  -11.3166 C   0  0  0  0  0  0  0  0  0  0  0  0
   14.9398  -11.7165  -10.6871 O   0  0  0  0  0  0  0  0  0  0  0  0
   14.0702  -10.7776  -12.5735 N   0  0  0  0  0  0  0  0  0  0  0  0
   15.3466  -10.5356  -13.1336 C   0  0  1  0  0  0  0  0  0  0  0  0
   15.9368  -11.4786  -14.0971 C   0  0  0  0  0  0  0  0  0  0  0  0
   16.8186  -12.5594  -13.6006 C   0  0  0  0  0  0  0  0  0  0  0  0
   17.2382  -13.5129  -14.6427 C   0  0  0  0  0  0  0  0  0  0  0  0
   18.1400  -13.3185  -15.4737 O   0  0  0  0  0  0  0  0  0  0  0  0
   15.4129   -9.1511  -13.7047 C   0  0  0  0  0  0  0  0  0  0  0  0
   14.3507   -8.6338  -14.1891 O   0  0  0  0  0  0  0  0  0  0  0  0
   16.5734  -14.7567  -14.7213 O   0  0  0  0  0  0  0  0  0  0  0  0
   16.6460   -8.4478  -13.6958 N   0  0  0  0  0  0  0  0  0  0  0  0
   16.7426   -7.0878  -14.2204 C   0  0  1  0  0  0  0  0  0  0  0  0
   15.8724   -6.2404  -13.3237 C   0  0  0  0  0  0  0  0  0  0  0  0
   15.9757   -4.8253  -13.6719 C   0  0  0  0  0  0  0  0  0  0  0  0
   16.7753   -4.2928  -14.6560 C   0  0  0  0  0  0  0  0  0  0  0  0
   16.5958   -2.9654  -14.6546 N   0  0  0  0  0  0  0  0  0  0  0  0
   15.7092   -2.6471  -13.7013 C   0  0  0  0  0  0  0  0  0  0  0  0
   15.3348   -3.7915  -13.1046 N   0  0  0  0  0  0  0  0  0  0  0  0
   18.1326   -6.6516  -14.3210 C   0  0  0  0  0  0  0  0  0  0  0  0
   19.0505   -7.2867  -13.7586 O   0  0  0  0  0  0  0  0  0  0  0  0
   18.4564   -5.5217  -15.0458 O   0  0  0  0  0  0  0  0  0  0  0  0
  2  4  1  0
  2  1  1  6
  3  2  1  0
  4  6  1  0
  4  5  1  1
  6  7  2  0
  8  9  1  0
  8  6  1  0
  9 10  1  6
 11 10  1  0
 12 13  2  0
 12 11  1  0
 14 15  2  0
 14  9  1  0
 16 12  1  0
 17 14  1  0
 18 17  1  0
 18 25  1  0
 18 19  1  1
 20 19  1  0
 20 24  1  0
 21 22  1  0
 21 20  2  0
 22 23  1  0
 23 24  2  0
 25 27  1  0
 26 25  2  0
M  END
$$$$
