VEH.pdb
     RDKit          3D

 27 27  0  0  1  0  0  0  0  0999 V2000
   17.8700   -7.7586  -22.3593 C   0  0  0  0  0  0  0  0  0  0  0  0
   19.0565   -7.7080  -23.3014 C   0  0  1  0  0  0  0  0  0  0  0  0
   18.5850   -7.6433  -24.7269 C   0  0  0  0  0  0  0  0  0  0  0  0
   19.9353   -6.5388  -22.9195 C   0  0  2  0  0  0  0  0  0  0  0  0
   21.1266   -6.4997  -23.7288 N   0  0  0  0  0  0  0  0  0  0  0  0
   20.1756   -6.4316  -21.4872 C   0  0  0  0  0  0  0  0  0  0  0  0
   21.0744   -7.1558  -20.9530 O   0  0  0  0  0  0  0  0  0  0  0  0
   19.4862   -5.5665  -20.5684 N   0  0  0  0  0  0  0  0  0  0  0  0
   19.7337   -5.5494  -19.1756 C   0  0  1  0  0  0  0  0  0  0  0  0
   19.7180   -4.2843  -18.4239 C   0  0  0  0  0  0  0  0  0  0  0  0
   20.7326   -3.2505  -18.7306 C   0  0  0  0  0  0  0  0  0  0  0  0
   20.6078   -2.0311  -17.9129 C   0  0  0  0  0  0  0  0  0  0  0  0
   19.7396   -1.8313  -17.0482 O   0  0  0  0  0  0  0  0  0  0  0  0
   18.8548   -6.5420  -18.4761 C   0  0  0  0  0  0  0  0  0  0  0  0
   17.6185   -6.5984  -18.7908 O   0  0  0  0  0  0  0  0  0  0  0  0
   21.5421   -0.9906  -18.1126 O   0  0  0  0  0  0  0  0  0  0  0  0
   19.4099   -7.3935  -17.4851 N   0  0  0  0  0  0  0  0  0  0  0  0
   18.5909   -8.3942  -16.8055 C   0  0  1  0  0  0  0  0  0  0  0  0
   19.4653   -9.6178  -16.6735 C   0  0  0  0  0  0  0  0  0  0  0  0
   18.7282  -10.7321  -16.0822 C   0  0  0  0  0  0  0  0  0  0  0  0
   17.4058  -10.7152  -15.7053 C   0  0  0  0  0  0  0  0  0  0  0  0
   17.1100  -11.9192  -15.1982 N   0  0  0  0  0  0  0  0  0  0  0  0
   18.2042  -12.6917  -15.2445 C   0  0  0  0  0  0  0  0  0  0  0  0
   19.1901  -11.9572  -15.7869 N   0  0  0  0  0  0  0  0  0  0  0  0
   18.0553   -7.8811  -15.5476 C   0  0  0  0  0  0  0  0  0  0  0  0
   18.7343   -7.1285  -14.8164 O   0  0  0  0  0  0  0  0  0  0  0  0
   16.7794   -8.2221  -15.1441 O   0  0  0  0  0  0  0  0  0  0  0  0
  2  4  1  0
  2  1  1  1
  3  2  1  0
  4  6  1  0
  4  5  1  6
  6  7  2  0
  8  9  1  0
  8  6  1  0
  9 10  1  1
 11 10  1  0
 12 13  2  0
 12 11  1  0
 14 15  2  0
 14  9  1  0
 16 12  1  0
 17 14  1  0
 18 17  1  0
 18 25  1  0
 18 19  1  1
 20 19  1  0
 20 24  1  0
 21 22  1  0
 21 20  2  0
 22 23  1  0
 23 24  2  0
 25 27  1  0
 26 25  2  0
M  END
$$$$
