VEH.pdb
     RDKit          3D

 27 27  0  0  1  0  0  0  0  0999 V2000
   12.0519   -7.7720  -13.6838 C   0  0  0  0  0  0  0  0  0  0  0  0
   13.5510   -7.9867  -13.7507 C   0  0  1  0  0  0  0  0  0  0  0  0
   14.2649   -6.9017  -12.9946 C   0  0  0  0  0  0  0  0  0  0  0  0
   13.8708   -9.3709  -13.2344 C   0  0  2  0  0  0  0  0  0  0  0  0
   13.3422   -9.5642  -11.9081 N   0  0  0  0  0  0  0  0  0  0  0  0
   15.2708   -9.7422  -13.3855 C   0  0  0  0  0  0  0  0  0  0  0  0
   16.0425   -9.6763  -12.3766 O   0  0  0  0  0  0  0  0  0  0  0  0
   15.9088  -10.1930  -14.5928 N   0  0  0  0  0  0  0  0  0  0  0  0
   17.2865  -10.5025  -14.6800 C   0  0  1  0  0  0  0  0  0  0  0  0
   17.7532  -11.6357  -15.4948 C   0  0  0  0  0  0  0  0  0  0  0  0
   19.1925  -11.9830  -15.4902 C   0  0  0  0  0  0  0  0  0  0  0  0
   19.5321  -13.1305  -16.3498 C   0  0  0  0  0  0  0  0  0  0  0  0
   20.6827  -13.4923  -16.6444 O   0  0  0  0  0  0  0  0  0  0  0  0
   18.0743   -9.2814  -15.0481 C   0  0  0  0  0  0  0  0  0  0  0  0
   17.5606   -8.4388  -15.8586 O   0  0  0  0  0  0  0  0  0  0  0  0
   18.4775  -13.8962  -16.8946 O   0  0  0  0  0  0  0  0  0  0  0  0
   19.3662   -9.0872  -14.4926 N   0  0  0  0  0  0  0  0  0  0  0  0
   20.1587   -7.9048  -14.8213 C   0  0  1  0  0  0  0  0  0  0  0  0
   19.3430   -6.7228  -14.3555 C   0  0  0  0  0  0  0  0  0  0  0  0
   20.0677   -5.4700  -14.5547 C   0  0  0  0  0  0  0  0  0  0  0  0
   20.7483   -5.1035  -15.6922 C   0  0  0  0  0  0  0  0  0  0  0  0
   21.2844   -3.8952  -15.4762 N   0  0  0  0  0  0  0  0  0  0  0  0
   20.9625   -3.4909  -14.2397 C   0  0  0  0  0  0  0  0  0  0  0  0
   20.2178   -4.4609  -13.6825 N   0  0  0  0  0  0  0  0  0  0  0  0
   21.5021   -7.9880  -14.2548 C   0  0  0  0  0  0  0  0  0  0  0  0
   21.8826   -9.0096  -13.6436 O   0  0  0  0  0  0  0  0  0  0  0  0
   22.3798   -6.9302  -14.3877 O   0  0  0  0  0  0  0  0  0  0  0  0
  2  4  1  0
  2  1  1  1
  3  2  1  0
  4  6  1  0
  4  5  1  1
  6  7  2  0
  8  9  1  0
  8  6  1  0
  9 10  1  6
 11 10  1  0
 12 13  2  0
 12 11  1  0
 14 15  2  0
 14  9  1  0
 16 12  1  0
 17 14  1  0
 18 17  1  0
 18 25  1  0
 18 19  1  1
 20 19  1  0
 20 24  1  0
 21 22  1  0
 21 20  2  0
 22 23  1  0
 23 24  2  0
 25 27  1  0
 26 25  2  0
M  END
$$$$
