VEH.pdb
     RDKit          3D

 27 27  0  0  1  0  0  0  0  0999 V2000
   20.2912  -13.2219  -17.5626 C   0  0  0  0  0  0  0  0  0  0  0  0
   18.7926  -13.1709  -17.3399 C   0  0  1  0  0  0  0  0  0  0  0  0
   18.2487  -14.5589  -17.1497 C   0  0  0  0  0  0  0  0  0  0  0  0
   18.5025  -12.2604  -16.1686 C   0  0  2  0  0  0  0  0  0  0  0  0
   17.6162  -12.8947  -15.2263 N   0  0  0  0  0  0  0  0  0  0  0  0
   18.1050  -10.9149  -16.5586 C   0  0  0  0  0  0  0  0  0  0  0  0
   18.9135  -10.1995  -17.2311 O   0  0  0  0  0  0  0  0  0  0  0  0
   16.8530  -10.2740  -16.2589 N   0  0  0  0  0  0  0  0  0  0  0  0
   16.5657   -8.9282  -16.5870 C   0  0  1  0  0  0  0  0  0  0  0  0
   15.1787   -8.4362  -16.5993 C   0  0  0  0  0  0  0  0  0  0  0  0
   14.1923   -9.0820  -17.4950 C   0  0  0  0  0  0  0  0  0  0  0  0
   12.8217   -8.5619  -17.3467 C   0  0  0  0  0  0  0  0  0  0  0  0
   11.8741   -9.1715  -16.8252 O   0  0  0  0  0  0  0  0  0  0  0  0
   17.4045   -7.9986  -15.7627 C   0  0  0  0  0  0  0  0  0  0  0  0
   17.9344   -8.4381  -14.6872 O   0  0  0  0  0  0  0  0  0  0  0  0
   12.5399   -7.2652  -17.8308 O   0  0  0  0  0  0  0  0  0  0  0  0
   17.5918   -6.6581  -16.1908 N   0  0  0  0  0  0  0  0  0  0  0  0
   18.5101   -5.7638  -15.4900 C   0  0  1  0  0  0  0  0  0  0  0  0
   19.8416   -6.4752  -15.4737 C   0  0  0  0  0  0  0  0  0  0  0  0
   20.8698   -5.6563  -14.8359 C   0  0  0  0  0  0  0  0  0  0  0  0
   21.2451   -5.7172  -13.5142 C   0  0  0  0  0  0  0  0  0  0  0  0
   22.2047   -4.8032  -13.3194 N   0  0  0  0  0  0  0  0  0  0  0  0
   22.4442   -4.1702  -14.4761 C   0  0  0  0  0  0  0  0  0  0  0  0
   21.6226   -4.6984  -15.3991 N   0  0  0  0  0  0  0  0  0  0  0  0
   18.5287   -4.4354  -16.0964 C   0  0  0  0  0  0  0  0  0  0  0  0
   18.2163   -4.2688  -17.2950 O   0  0  0  0  0  0  0  0  0  0  0  0
   18.8941   -3.3341  -15.3478 O   0  0  0  0  0  0  0  0  0  0  0  0
  2  4  1  0
  2  1  1  1
  3  2  1  0
  4  6  1  0
  4  5  1  6
  6  7  2  0
  8  9  1  0
  8  6  1  0
  9 10  1  1
 11 10  1  0
 12 13  2  0
 12 11  1  0
 14 15  2  0
 14  9  1  0
 16 12  1  0
 17 14  1  0
 18 17  1  0
 18 25  1  0
 18 19  1  6
 20 19  1  0
 20 24  1  0
 21 22  1  0
 21 20  2  0
 22 23  1  0
 23 24  2  0
 25 27  1  0
 26 25  2  0
M  END
$$$$
