VEH.pdb
     RDKit          3D

 27 27  0  0  1  0  0  0  0  0999 V2000
   18.3062  -11.1381  -15.2795 C   0  0  0  0  0  0  0  0  0  0  0  0
   16.9285  -11.7672  -15.3445 C   0  0  1  0  0  0  0  0  0  0  0  0
   17.0359  -13.2116  -15.7453 C   0  0  0  0  0  0  0  0  0  0  0  0
   16.2401  -11.5766  -14.0123 C   0  0  2  0  0  0  0  0  0  0  0  0
   14.9676  -12.2517  -13.9852 N   0  0  0  0  0  0  0  0  0  0  0  0
   16.1963  -10.1898  -13.5700 C   0  0  0  0  0  0  0  0  0  0  0  0
   15.5585   -9.3367  -14.2652 O   0  0  0  0  0  0  0  0  0  0  0  0
   16.8163   -9.6502  -12.3900 N   0  0  0  0  0  0  0  0  0  0  0  0
   16.7205   -8.2912  -12.0087 C   0  0  1  0  0  0  0  0  0  0  0  0
   16.3649   -7.9197  -10.6298 C   0  0  0  0  0  0  0  0  0  0  0  0
   16.3514   -6.4890  -10.2490 C   0  0  0  0  0  0  0  0  0  0  0  0
   15.9406   -6.2466   -8.8549 C   0  0  0  0  0  0  0  0  0  0  0  0
   15.6614   -7.1264   -8.0245 O   0  0  0  0  0  0  0  0  0  0  0  0
   17.9588   -7.5473  -12.4092 C   0  0  0  0  0  0  0  0  0  0  0  0
   19.0943   -8.1068  -12.2410 O   0  0  0  0  0  0  0  0  0  0  0  0
   15.8500   -4.9109   -8.4044 O   0  0  0  0  0  0  0  0  0  0  0  0
   17.8457   -6.2453  -12.9635 N   0  0  0  0  0  0  0  0  0  0  0  0
   19.0197   -5.5327  -13.4614 C   0  0  1  0  0  0  0  0  0  0  0  0
   19.6533   -6.4495  -14.4801 C   0  0  0  0  0  0  0  0  0  0  0  0
   20.8424   -5.8401  -15.0712 C   0  0  0  0  0  0  0  0  0  0  0  0
   21.7436   -5.0316  -14.4191 C   0  0  0  0  0  0  0  0  0  0  0  0
   22.6813   -4.6681  -15.3039 N   0  0  0  0  0  0  0  0  0  0  0  0
   22.3978   -5.2223  -16.4908 C   0  0  0  0  0  0  0  0  0  0  0  0
   21.2705   -5.9379  -16.3395 N   0  0  0  0  0  0  0  0  0  0  0  0
   18.6674   -4.2065  -13.9609 C   0  0  0  0  0  0  0  0  0  0  0  0
   17.4772   -3.8274  -14.0014 O   0  0  0  0  0  0  0  0  0  0  0  0
   19.6527   -3.3438  -14.3989 O   0  0  0  0  0  0  0  0  0  0  0  0
  2  4  1  0
  2  1  1  1
  3  2  1  0
  4  6  1  0
  4  5  1  6
  6  7  2  0
  8  9  1  0
  8  6  1  0
  9 10  1  1
 11 10  1  0
 12 13  2  0
 12 11  1  0
 14 15  2  0
 14  9  1  0
 16 12  1  0
 17 14  1  0
 18 17  1  0
 18 25  1  0
 18 19  1  6
 20 19  1  0
 20 24  1  0
 21 22  1  0
 21 20  2  0
 22 23  1  0
 23 24  2  0
 25 27  1  0
 26 25  2  0
M  END
$$$$
