VEH.pdb
     RDKit          3D

 27 27  0  0  1  0  0  0  0  0999 V2000
   33.1943  -11.9593  -18.2886 C   0  0  0  0  0  0  0  0  0  0  0  0
   32.9445  -13.2215  -19.0901 C   0  0  1  0  0  0  0  0  0  0  0  0
   33.8169  -14.3369  -18.5868 C   0  0  0  0  0  0  0  0  0  0  0  0
   31.4714  -13.5552  -19.0312 C   0  0  2  0  0  0  0  0  0  0  0  0
   31.1836  -14.7615  -19.7646 N   0  0  0  0  0  0  0  0  0  0  0  0
   30.6039  -12.4313  -19.3550 C   0  0  0  0  0  0  0  0  0  0  0  0
   30.5062  -12.0514  -20.5650 O   0  0  0  0  0  0  0  0  0  0  0  0
   29.8124  -11.6690  -18.4275 N   0  0  0  0  0  0  0  0  0  0  0  0
   28.9459  -10.6206  -18.8169 C   0  0  1  0  0  0  0  0  0  0  0  0
   27.4888  -10.7493  -18.6554 C   0  0  0  0  0  0  0  0  0  0  0  0
   26.6132   -9.6411  -19.0997 C   0  0  0  0  0  0  0  0  0  0  0  0
   25.1777   -9.8904  -18.8805 C   0  0  0  0  0  0  0  0  0  0  0  0
   24.4995   -9.4186  -17.9537 O   0  0  0  0  0  0  0  0  0  0  0  0
   29.3900   -9.3232  -18.2112 C   0  0  0  0  0  0  0  0  0  0  0  0
   30.0847   -9.3500  -17.1402 O   0  0  0  0  0  0  0  0  0  0  0  0
   24.4967  -10.7328  -19.7871 O   0  0  0  0  0  0  0  0  0  0  0  0
   29.0321   -8.0996  -18.8357 N   0  0  0  0  0  0  0  0  0  0  0  0
   29.8207   -6.8876  -18.6277 C   0  0  1  0  0  0  0  0  0  0  0  0
   31.2282   -7.2383  -19.0464 C   0  0  0  0  0  0  0  0  0  0  0  0
   32.0951   -7.4192  -17.8844 C   0  0  0  0  0  0  0  0  0  0  0  0
   33.1061   -8.3441  -17.7680 C   0  0  0  0  0  0  0  0  0  0  0  0
   33.6539   -8.2003  -16.5542 N   0  0  0  0  0  0  0  0  0  0  0  0
   33.0193   -7.2148  -15.9043 C   0  0  0  0  0  0  0  0  0  0  0  0
   32.0665   -6.7423  -16.7257 N   0  0  0  0  0  0  0  0  0  0  0  0
   29.2373   -5.7447  -19.3247 C   0  0  0  0  0  0  0  0  0  0  0  0
   28.6896   -5.8799  -20.4399 O   0  0  0  0  0  0  0  0  0  0  0  0
   29.2817   -4.4868  -18.7566 O   0  0  0  0  0  0  0  0  0  0  0  0
  2  4  1  0
  2  1  1  1
  3  2  1  0
  4  6  1  0
  4  5  1  6
  6  7  2  0
  8  9  1  0
  8  6  1  0
  9 10  1  1
 11 10  1  0
 12 13  2  0
 12 11  1  0
 14 15  2  0
 14  9  1  0
 16 12  1  0
 17 14  1  0
 18 17  1  0
 18 25  1  0
 18 19  1  6
 20 19  1  0
 20 24  1  0
 21 22  1  0
 21 20  2  0
 22 23  1  0
 23 24  2  0
 25 27  1  0
 26 25  2  0
M  END
$$$$
