CWD.pdb
     RDKit          3D

 29 30  0  0  1  0  0  0  0  0999 V2000
    7.2895  -17.1097   21.1096 N   0  0  0  0  0  0  0  0  0  0  0  0
    7.9214  -15.8341   20.8222 C   0  0  1  0  0  0  0  0  0  0  0  0
    6.8674  -14.7725   20.5204 C   0  0  0  0  0  0  0  0  0  0  0  0
    5.7046  -15.4918   19.3205 S   0  0  0  0  0  0  0  0  0  0  0  0
    8.7527  -15.4420   21.9836 C   0  0  0  0  0  0  0  0  0  0  0  0
    9.4187  -14.3658   21.9667 O   0  0  0  0  0  0  0  0  0  0  0  0
    8.8683  -16.2042   23.1599 N   0  0  0  0  0  0  0  0  0  0  0  0
    9.6524  -15.8892   24.3065 C   0  0  1  0  0  0  0  0  0  0  0  0
    8.9639  -16.0170   25.6190 C   0  0  0  0  0  0  0  0  0  0  0  0
    7.7719  -15.1767   25.7928 C   0  0  0  0  0  0  0  0  0  0  0  0
    6.4769  -15.6306   25.6783 C   0  0  0  0  0  0  0  0  0  0  0  0
    5.6496  -14.5993   25.8978 N   0  0  0  0  0  0  0  0  0  0  0  0
    6.3863  -13.5036   26.1485 C   0  0  0  0  0  0  0  0  0  0  0  0
    6.0101  -12.1972   26.4335 C   0  0  0  0  0  0  0  0  0  0  0  0
    7.0175  -11.2565   26.6528 C   0  0  0  0  0  0  0  0  0  0  0  0
    8.3527  -11.6056   26.5898 C   0  0  0  0  0  0  0  0  0  0  0  0
    8.7269  -12.8960   26.3083 C   0  0  0  0  0  0  0  0  0  0  0  0
    7.7148  -13.8349   26.0896 C   0  0  0  0  0  0  0  0  0  0  0  0
   10.8144  -16.8175   24.3263 C   0  0  0  0  0  0  0  0  0  0  0  0
   10.6642  -18.0203   23.9927 O   0  0  0  0  0  0  0  0  0  0  0  0
   12.1129  -16.4333   24.7043 N   0  0  0  0  0  0  0  0  0  0  0  0
   13.2001  -17.4241   24.7880 C   0  0  1  0  0  0  0  0  0  0  0  0
   14.5312  -16.7776   24.6109 C   0  0  0  0  0  0  0  0  0  0  0  0
   14.6523  -16.1473   23.2803 C   0  0  0  0  0  0  0  0  0  0  0  0
   14.0158  -16.5228   22.2511 O   0  0  0  0  0  0  0  0  0  0  0  0
   13.1328  -18.1514   26.0538 C   0  0  0  0  0  0  0  0  0  0  0  0
   12.3202  -17.8565   26.9425 O   0  0  0  0  0  0  0  0  0  0  0  0
   15.5107  -15.0527   23.0615 O   0  0  0  0  0  0  0  0  0  0  0  0
   14.0139  -19.2187   26.2755 O   0  0  0  0  0  0  0  0  0  0  0  0
  2  1  1  1
  2  5  1  0
  3  2  1  0
  4  3  1  0
  5  7  1  0
  5  6  2  0
  7  8  1  0
  8  9  1  1
  9 10  1  0
 10 11  2  0
 11 12  1  0
 13 12  1  0
 14 13  2  0
 15 14  1  0
 16 17  1  0
 16 15  2  0
 17 18  2  0
 18 10  1  0
 18 13  1  0
 19  8  1  0
 19 21  1  0
 20 19  2  0
 22 23  1  1
 22 21  1  0
 22 26  1  0
 23 24  1  0
 24 28  1  0
 24 25  2  0
 26 29  1  0
 27 26  2  0
M  END
$$$$
