CWD.pdb
     RDKit          3D

 29 30  0  0  1  0  0  0  0  0999 V2000
    6.9815  -15.4290   19.5524 N   0  0  0  0  0  0  0  0  0  0  0  0
    7.3853  -16.4341   20.5199 C   0  0  1  0  0  0  0  0  0  0  0  0
    8.1038  -17.5865   19.8238 C   0  0  0  0  0  0  0  0  0  0  0  0
    6.8422  -18.8185   19.3770 S   0  0  0  0  0  0  0  0  0  0  0  0
    8.2592  -15.7970   21.5318 C   0  0  0  0  0  0  0  0  0  0  0  0
    8.9960  -14.8154   21.2222 O   0  0  0  0  0  0  0  0  0  0  0  0
    8.3416  -16.2134   22.8726 N   0  0  0  0  0  0  0  0  0  0  0  0
    9.2013  -15.6856   23.8781 C   0  0  1  0  0  0  0  0  0  0  0  0
    8.7248  -15.8285   25.2802 C   0  0  0  0  0  0  0  0  0  0  0  0
    7.5391  -15.0354   25.6296 C   0  0  0  0  0  0  0  0  0  0  0  0
    6.2616  -15.5426   25.7151 C   0  0  0  0  0  0  0  0  0  0  0  0
    5.4351  -14.5433   26.0535 N   0  0  0  0  0  0  0  0  0  0  0  0
    6.1550  -13.4161   26.1847 C   0  0  0  0  0  0  0  0  0  0  0  0
    5.7724  -12.1231   26.5181 C   0  0  0  0  0  0  0  0  0  0  0  0
    6.7614  -11.1401   26.5778 C   0  0  0  0  0  0  0  0  0  0  0  0
    8.0850  -11.4356   26.3141 C   0  0  0  0  0  0  0  0  0  0  0  0
    8.4655  -12.7126   25.9844 C   0  0  0  0  0  0  0  0  0  0  0  0
    7.4719  -13.6940   25.9260 C   0  0  0  0  0  0  0  0  0  0  0  0
   10.5016  -16.4008   23.7797 C   0  0  0  0  0  0  0  0  0  0  0  0
   10.5310  -17.6065   23.4249 O   0  0  0  0  0  0  0  0  0  0  0  0
   11.7427  -15.8049   24.0646 N   0  0  0  0  0  0  0  0  0  0  0  0
   13.0020  -16.5348   23.8360 C   0  0  1  0  0  0  0  0  0  0  0  0
   14.0604  -15.6281   23.3079 C   0  0  0  0  0  0  0  0  0  0  0  0
   15.3122  -16.3627   23.0325 C   0  0  0  0  0  0  0  0  0  0  0  0
   15.3721  -17.4637   22.4083 O   0  0  0  0  0  0  0  0  0  0  0  0
   13.4400  -17.1960   25.0635 C   0  0  0  0  0  0  0  0  0  0  0  0
   12.9712  -16.9050   26.1737 O   0  0  0  0  0  0  0  0  0  0  0  0
   16.5610  -15.8717   23.4594 O   0  0  0  0  0  0  0  0  0  0  0  0
   14.4225  -18.1928   24.9886 O   0  0  0  0  0  0  0  0  0  0  0  0
  2  1  1  6
  2  5  1  0
  3  2  1  0
  4  3  1  0
  5  7  1  0
  5  6  2  0
  7  8  1  0
  8  9  1  1
  9 10  1  0
 10 11  2  0
 11 12  1  0
 13 12  1  0
 14 13  2  0
 15 14  1  0
 16 17  1  0
 16 15  2  0
 17 18  2  0
 18 10  1  0
 18 13  1  0
 19  8  1  0
 19 21  1  0
 20 19  2  0
 22 23  1  1
 22 21  1  0
 22 26  1  0
 23 24  1  0
 24 28  1  0
 24 25  2  0
 26 29  1  0
 27 26  2  0
M  END
$$$$
