CWD.pdb
     RDKit          3D

 29 30  0  0  1  0  0  0  0  0999 V2000
    7.5539  -14.4005   19.8734 N   0  0  0  0  0  0  0  0  0  0  0  0
    7.7416  -15.5965   20.6757 C   0  0  1  0  0  0  0  0  0  0  0  0
    8.3179  -16.7247   19.8248 C   0  0  0  0  0  0  0  0  0  0  0  0
    7.9390  -16.3389   18.0879 S   0  0  0  0  0  0  0  0  0  0  0  0
    8.6394  -15.2738   21.8086 C   0  0  0  0  0  0  0  0  0  0  0  0
    9.4972  -14.3484   21.7091 O   0  0  0  0  0  0  0  0  0  0  0  0
    8.6159  -15.9437   23.0450 N   0  0  0  0  0  0  0  0  0  0  0  0
    9.4093  -15.6479   24.1903 C   0  0  1  0  0  0  0  0  0  0  0  0
    8.7129  -15.7331   25.5022 C   0  0  0  0  0  0  0  0  0  0  0  0
    7.4866  -14.9336   25.6208 C   0  0  0  0  0  0  0  0  0  0  0  0
    6.2122  -15.4422   25.5042 C   0  0  0  0  0  0  0  0  0  0  0  0
    5.3422  -14.4358   25.6664 N   0  0  0  0  0  0  0  0  0  0  0  0
    6.0316  -13.3027   25.8829 C   0  0  0  0  0  0  0  0  0  0  0  0
    5.6005  -12.0013   26.1065 C   0  0  0  0  0  0  0  0  0  0  0  0
    6.5668  -11.0137   26.3025 C   0  0  0  0  0  0  0  0  0  0  0  0
    7.9154  -11.3127   26.2763 C   0  0  0  0  0  0  0  0  0  0  0  0
    8.3439  -12.5979   26.0555 C   0  0  0  0  0  0  0  0  0  0  0  0
    7.3727  -13.5840   25.8599 C   0  0  0  0  0  0  0  0  0  0  0  0
   10.5326  -16.6222   24.2237 C   0  0  0  0  0  0  0  0  0  0  0  0
   10.3127  -17.8429   24.0188 O   0  0  0  0  0  0  0  0  0  0  0  0
   11.8684  -16.2637   24.4767 N   0  0  0  0  0  0  0  0  0  0  0  0
   12.9132  -17.2927   24.6187 C   0  0  1  0  0  0  0  0  0  0  0  0
   14.2703  -16.7129   24.4105 C   0  0  0  0  0  0  0  0  0  0  0  0
   14.3905  -16.0854   23.0784 C   0  0  0  0  0  0  0  0  0  0  0  0
   13.9778  -16.6102   22.0016 O   0  0  0  0  0  0  0  0  0  0  0  0
   12.8144  -17.9453   25.9226 C   0  0  0  0  0  0  0  0  0  0  0  0
   13.5727  -18.8667   26.2591 O   0  0  0  0  0  0  0  0  0  0  0  0
   14.9911  -14.8226   22.9130 O   0  0  0  0  0  0  0  0  0  0  0  0
   11.8315  -17.5192   26.8265 O   0  0  0  0  0  0  0  0  0  0  0  0
  2  1  1  6
  2  5  1  0
  3  2  1  0
  4  3  1  0
  5  7  1  0
  5  6  2  0
  7  8  1  0
  8  9  1  1
  9 10  1  0
 10 11  2  0
 11 12  1  0
 13 12  1  0
 14 13  2  0
 15 14  1  0
 16 17  1  0
 16 15  2  0
 17 18  2  0
 18 10  1  0
 18 13  1  0
 19  8  1  0
 19 21  1  0
 20 19  2  0
 22 23  1  1
 22 21  1  0
 22 26  1  0
 23 24  1  0
 24 28  1  0
 24 25  2  0
 26 29  1  0
 27 26  2  0
M  END
$$$$
