CWD.pdb
     RDKit          3D

 29 30  0  0  1  0  0  0  0  0999 V2000
    6.8106  -16.9862   20.7678 N   0  0  0  0  0  0  0  0  0  0  0  0
    7.6910  -15.9078   20.3541 C   0  0  1  0  0  0  0  0  0  0  0  0
    6.8835  -14.6536   20.0319 C   0  0  0  0  0  0  0  0  0  0  0  0
    8.0069  -13.4854   19.2058 S   0  0  0  0  0  0  0  0  0  0  0  0
    8.6668  -15.6476   21.4374 C   0  0  0  0  0  0  0  0  0  0  0  0
    9.6900  -14.9328   21.2265 O   0  0  0  0  0  0  0  0  0  0  0  0
    8.5440  -16.1540   22.7437 N   0  0  0  0  0  0  0  0  0  0  0  0
    9.3645  -15.8337   23.8630 C   0  0  1  0  0  0  0  0  0  0  0  0
    8.7687  -16.0956   25.2008 C   0  0  0  0  0  0  0  0  0  0  0  0
    7.5834  -15.2948   25.5334 C   0  0  0  0  0  0  0  0  0  0  0  0
    6.2896  -15.7643   25.4876 C   0  0  0  0  0  0  0  0  0  0  0  0
    5.4688  -14.7692   25.8513 N   0  0  0  0  0  0  0  0  0  0  0  0
    6.2083  -13.6813   26.1266 C   0  0  0  0  0  0  0  0  0  0  0  0
    5.8386  -12.4081   26.5409 C   0  0  0  0  0  0  0  0  0  0  0  0
    6.8474  -11.4670   26.7513 C   0  0  0  0  0  0  0  0  0  0  0  0
    8.1778  -11.7838   26.5554 C   0  0  0  0  0  0  0  0  0  0  0  0
    8.5456  -13.0413   26.1461 C   0  0  0  0  0  0  0  0  0  0  0  0
    7.5321  -13.9808   25.9367 C   0  0  0  0  0  0  0  0  0  0  0  0
   10.6017  -16.6533   23.7637 C   0  0  0  0  0  0  0  0  0  0  0  0
   10.5502  -17.8144   23.2843 O   0  0  0  0  0  0  0  0  0  0  0  0
   11.8679  -16.2076   24.1817 N   0  0  0  0  0  0  0  0  0  0  0  0
   13.0975  -16.8449   23.6790 C   0  0  1  0  0  0  0  0  0  0  0  0
   13.8360  -15.9356   22.7577 C   0  0  0  0  0  0  0  0  0  0  0  0
   15.1030  -16.5429   22.3008 C   0  0  0  0  0  0  0  0  0  0  0  0
   15.2296  -17.7542   21.9516 O   0  0  0  0  0  0  0  0  0  0  0  0
   13.9454  -17.2686   24.7914 C   0  0  0  0  0  0  0  0  0  0  0  0
   15.0086  -17.8815   24.6151 O   0  0  0  0  0  0  0  0  0  0  0  0
   16.2909  -15.7910   22.2211 O   0  0  0  0  0  0  0  0  0  0  0  0
   13.5481  -16.9749   26.1030 O   0  0  0  0  0  0  0  0  0  0  0  0
  2  1  1  1
  2  5  1  0
  3  2  1  0
  4  3  1  0
  5  7  1  0
  5  6  2  0
  7  8  1  0
  8  9  1  1
  9 10  1  0
 10 11  2  0
 11 12  1  0
 13 12  1  0
 14 13  2  0
 15 14  1  0
 16 17  1  0
 16 15  2  0
 17 18  2  0
 18 10  1  0
 18 13  1  0
 19  8  1  0
 19 21  1  0
 20 19  2  0
 22 23  1  6
 22 21  1  0
 22 26  1  0
 23 24  1  0
 24 28  1  0
 24 25  2  0
 26 29  1  0
 27 26  2  0
M  END
$$$$
