CWD.pdb
     RDKit          3D

 29 30  0  0  1  0  0  0  0  0999 V2000
    7.4768  -17.3890   20.4737 N   0  0  0  0  0  0  0  0  0  0  0  0
    8.0210  -16.0753   20.1783 C   0  0  1  0  0  0  0  0  0  0  0  0
    6.9008  -15.1004   19.8266 C   0  0  0  0  0  0  0  0  0  0  0  0
    5.7321  -15.0950   21.2206 S   0  0  0  0  0  0  0  0  0  0  0  0
    8.7874  -15.6020   21.3540 C   0  0  0  0  0  0  0  0  0  0  0  0
    9.5304  -14.5804   21.2716 O   0  0  0  0  0  0  0  0  0  0  0  0
    8.7559  -16.2244   22.6148 N   0  0  0  0  0  0  0  0  0  0  0  0
    9.4742  -15.8287   23.7793 C   0  0  1  0  0  0  0  0  0  0  0  0
    8.8522  -16.1927   25.0808 C   0  0  0  0  0  0  0  0  0  0  0  0
    7.7193  -15.3559   25.4968 C   0  0  0  0  0  0  0  0  0  0  0  0
    6.4228  -15.8049   25.6151 C   0  0  0  0  0  0  0  0  0  0  0  0
    5.6578  -14.7788   26.0127 N   0  0  0  0  0  0  0  0  0  0  0  0
    6.4354  -13.6911   26.1496 C   0  0  0  0  0  0  0  0  0  0  0  0
    6.1275  -12.3925   26.5342 C   0  0  0  0  0  0  0  0  0  0  0  0
    7.1640  -11.4593   26.5854 C   0  0  0  0  0  0  0  0  0  0  0  0
    8.4616  -11.8084   26.2643 C   0  0  0  0  0  0  0  0  0  0  0  0
    8.7683  -13.0911   25.8839 C   0  0  0  0  0  0  0  0  0  0  0  0
    7.7272  -14.0225   25.8341 C   0  0  0  0  0  0  0  0  0  0  0  0
   10.8084  -16.4842   23.7299 C   0  0  0  0  0  0  0  0  0  0  0  0
   10.9206  -17.6480   23.2677 O   0  0  0  0  0  0  0  0  0  0  0  0
   11.9935  -15.8751   24.1784 N   0  0  0  0  0  0  0  0  0  0  0  0
   13.2946  -16.5493   24.0253 C   0  0  1  0  0  0  0  0  0  0  0  0
   14.3808  -15.5656   23.7537 C   0  0  0  0  0  0  0  0  0  0  0  0
   15.6949  -16.2308   23.6384 C   0  0  0  0  0  0  0  0  0  0  0  0
   16.1110  -16.8148   22.5938 O   0  0  0  0  0  0  0  0  0  0  0  0
   13.5965  -17.3530   25.2081 C   0  0  0  0  0  0  0  0  0  0  0  0
   14.4340  -18.2670   25.1892 O   0  0  0  0  0  0  0  0  0  0  0  0
   16.6001  -16.2604   24.7166 O   0  0  0  0  0  0  0  0  0  0  0  0
   12.9195  -17.0857   26.4059 O   0  0  0  0  0  0  0  0  0  0  0  0
  2  1  1  1
  2  5  1  0
  3  2  1  0
  4  3  1  0
  5  7  1  0
  5  6  2  0
  7  8  1  0
  8  9  1  1
  9 10  1  0
 10 11  2  0
 11 12  1  0
 13 12  1  0
 14 13  2  0
 15 14  1  0
 16 17  1  0
 16 15  2  0
 17 18  2  0
 18 10  1  0
 18 13  1  0
 19  8  1  0
 19 21  1  0
 20 19  2  0
 22 23  1  1
 22 21  1  0
 22 26  1  0
 23 24  1  0
 24 28  1  0
 24 25  2  0
 26 29  1  0
 27 26  2  0
M  END
$$$$
