CWD.pdb
     RDKit          3D

 29 30  0  0  1  0  0  0  0  0999 V2000
    6.9011  -15.2865   19.5292 N   0  0  0  0  0  0  0  0  0  0  0  0
    7.1077  -16.2798   20.5683 C   0  0  1  0  0  0  0  0  0  0  0  0
    7.6154  -17.5862   19.9643 C   0  0  0  0  0  0  0  0  0  0  0  0
    9.2087  -17.2273   19.1630 S   0  0  0  0  0  0  0  0  0  0  0  0
    8.0709  -15.7419   21.5566 C   0  0  0  0  0  0  0  0  0  0  0  0
    8.8255  -14.7700   21.2595 O   0  0  0  0  0  0  0  0  0  0  0  0
    8.2232  -16.2469   22.8604 N   0  0  0  0  0  0  0  0  0  0  0  0
    9.1076  -15.7605   23.8652 C   0  0  1  0  0  0  0  0  0  0  0  0
    8.6028  -15.8291   25.2630 C   0  0  0  0  0  0  0  0  0  0  0  0
    7.4493  -14.9707   25.5621 C   0  0  0  0  0  0  0  0  0  0  0  0
    6.1414  -15.4016   25.5737 C   0  0  0  0  0  0  0  0  0  0  0  0
    5.3586  -14.3588   25.8834 N   0  0  0  0  0  0  0  0  0  0  0  0
    6.1359  -13.2781   26.0684 C   0  0  0  0  0  0  0  0  0  0  0  0
    5.8132  -11.9686   26.4005 C   0  0  0  0  0  0  0  0  0  0  0  0
    6.8540  -11.0472   26.5258 C   0  0  0  0  0  0  0  0  0  0  0  0
    8.1699  -11.4181   26.3268 C   0  0  0  0  0  0  0  0  0  0  0  0
    8.4912  -12.7116   25.9986 C   0  0  0  0  0  0  0  0  0  0  0  0
    7.4458  -13.6312   25.8742 C   0  0  0  0  0  0  0  0  0  0  0  0
   10.3499  -16.5762   23.8050 C   0  0  0  0  0  0  0  0  0  0  0  0
   10.2890  -17.7927   23.4934 O   0  0  0  0  0  0  0  0  0  0  0  0
   11.6311  -16.0671   24.0808 N   0  0  0  0  0  0  0  0  0  0  0  0
   12.8182  -16.9382   24.0275 C   0  0  1  0  0  0  0  0  0  0  0  0
   14.0438  -16.1566   23.6986 C   0  0  0  0  0  0  0  0  0  0  0  0
   14.5991  -16.5501   22.3873 C   0  0  0  0  0  0  0  0  0  0  0  0
   13.9287  -16.5999   21.3133 O   0  0  0  0  0  0  0  0  0  0  0  0
   12.9782  -17.6623   25.2868 C   0  0  0  0  0  0  0  0  0  0  0  0
   12.2723  -17.4265   26.2784 O   0  0  0  0  0  0  0  0  0  0  0  0
   15.9533  -16.9070   22.2405 O   0  0  0  0  0  0  0  0  0  0  0  0
   13.9607  -18.6573   25.3820 O   0  0  0  0  0  0  0  0  0  0  0  0
  2  1  1  6
  2  5  1  0
  3  2  1  0
  4  3  1  0
  5  7  1  0
  5  6  2  0
  7  8  1  0
  8  9  1  1
  9 10  1  0
 10 11  2  0
 11 12  1  0
 13 12  1  0
 14 13  2  0
 15 14  1  0
 16 17  1  0
 16 15  2  0
 17 18  2  0
 18 10  1  0
 18 13  1  0
 19  8  1  0
 19 21  1  0
 20 19  2  0
 22 23  1  1
 22 21  1  0
 22 26  1  0
 23 24  1  0
 24 28  1  0
 24 25  2  0
 26 29  1  0
 27 26  2  0
M  END
$$$$
