CWD.pdb
     RDKit          3D

 29 30  0  0  1  0  0  0  0  0999 V2000
    7.4130  -17.4898   20.7274 N   0  0  0  0  0  0  0  0  0  0  0  0
    7.9074  -16.1735   20.3641 C   0  0  1  0  0  0  0  0  0  0  0  0
    6.7466  -15.2420   20.0266 C   0  0  0  0  0  0  0  0  0  0  0  0
    5.5176  -15.4064   21.3576 S   0  0  0  0  0  0  0  0  0  0  0  0
    8.7079  -15.6382   21.4894 C   0  0  0  0  0  0  0  0  0  0  0  0
    9.3700  -14.5673   21.3585 O   0  0  0  0  0  0  0  0  0  0  0  0
    8.7972  -16.2518   22.7517 N   0  0  0  0  0  0  0  0  0  0  0  0
    9.5476  -15.7926   23.8719 C   0  0  1  0  0  0  0  0  0  0  0  0
    8.9548  -16.0695   25.2080 C   0  0  0  0  0  0  0  0  0  0  0  0
    7.7514  -15.2956   25.5392 C   0  0  0  0  0  0  0  0  0  0  0  0
    6.4803  -15.8219   25.5992 C   0  0  0  0  0  0  0  0  0  0  0  0
    5.6330  -14.8365   25.9268 N   0  0  0  0  0  0  0  0  0  0  0  0
    6.3337  -13.6994   26.0760 C   0  0  0  0  0  0  0  0  0  0  0  0
    5.9260  -12.4137   26.4080 C   0  0  0  0  0  0  0  0  0  0  0  0
    6.8991  -11.4166   26.4898 C   0  0  0  0  0  0  0  0  0  0  0  0
    8.2315  -11.6913   26.2490 C   0  0  0  0  0  0  0  0  0  0  0  0
    8.6367  -12.9611   25.9208 C   0  0  0  0  0  0  0  0  0  0  0  0
    7.6590  -13.9567   25.8401 C   0  0  0  0  0  0  0  0  0  0  0  0
   10.8743  -16.4636   23.8308 C   0  0  0  0  0  0  0  0  0  0  0  0
   10.9523  -17.6863   23.5485 O   0  0  0  0  0  0  0  0  0  0  0  0
   12.0890  -15.8064   24.0942 N   0  0  0  0  0  0  0  0  0  0  0  0
   13.3765  -16.5045   23.9334 C   0  0  1  0  0  0  0  0  0  0  0  0
   14.4987  -15.5349   23.7860 C   0  0  0  0  0  0  0  0  0  0  0  0
   15.7850  -16.2276   23.5662 C   0  0  0  0  0  0  0  0  0  0  0  0
   16.6063  -16.5182   24.4862 O   0  0  0  0  0  0  0  0  0  0  0  0
   13.6095  -17.4122   25.0548 C   0  0  0  0  0  0  0  0  0  0  0  0
   14.2918  -18.4411   24.9407 O   0  0  0  0  0  0  0  0  0  0  0  0
   16.1956  -16.6228   22.2786 O   0  0  0  0  0  0  0  0  0  0  0  0
   13.0452  -17.1144   26.3028 O   0  0  0  0  0  0  0  0  0  0  0  0
  2  1  1  1
  2  5  1  0
  3  2  1  0
  4  3  1  0
  5  7  1  0
  5  6  2  0
  7  8  1  0
  8  9  1  1
  9 10  1  0
 10 11  2  0
 11 12  1  0
 13 12  1  0
 14 13  2  0
 15 14  1  0
 16 17  1  0
 16 15  2  0
 17 18  2  0
 18 10  1  0
 18 13  1  0
 19  8  1  0
 19 21  1  0
 20 19  2  0
 22 23  1  1
 22 21  1  0
 22 26  1  0
 23 24  1  0
 24 28  1  0
 24 25  2  0
 26 29  1  0
 27 26  2  0
M  END
$$$$
