CWD.pdb
     RDKit          3D

 29 30  0  0  1  0  0  0  0  0999 V2000
    7.5826  -16.7513   20.4763 N   0  0  0  0  0  0  0  0  0  0  0  0
    8.2486  -15.4631   20.3965 C   0  0  1  0  0  0  0  0  0  0  0  0
    7.2508  -14.3685   20.0283 C   0  0  0  0  0  0  0  0  0  0  0  0
    6.6978  -14.6923   18.3258 S   0  0  0  0  0  0  0  0  0  0  0  0
    8.8925  -15.1784   21.6995 C   0  0  0  0  0  0  0  0  0  0  0  0
    9.5348  -14.1028   21.8807 O   0  0  0  0  0  0  0  0  0  0  0  0
    8.8468  -16.0469   22.8048 N   0  0  0  0  0  0  0  0  0  0  0  0
    9.4099  -15.8181   24.0929 C   0  0  1  0  0  0  0  0  0  0  0  0
    8.5445  -16.1678   25.2513 C   0  0  0  0  0  0  0  0  0  0  0  0
    7.3980  -15.2779   25.4762 C   0  0  0  0  0  0  0  0  0  0  0  0
    6.0818  -15.6485   25.3123 C   0  0  0  0  0  0  0  0  0  0  0  0
    5.3092  -14.5923   25.6016 N   0  0  0  0  0  0  0  0  0  0  0  0
    6.1010  -13.5620   25.9446 C   0  0  0  0  0  0  0  0  0  0  0  0
    5.7928  -12.2623   26.3256 C   0  0  0  0  0  0  0  0  0  0  0  0
    6.8469  -11.3990   26.6282 C   0  0  0  0  0  0  0  0  0  0  0  0
    8.1617  -11.8166   26.5535 C   0  0  0  0  0  0  0  0  0  0  0  0
    8.4687  -13.1004   26.1772 C   0  0  0  0  0  0  0  0  0  0  0  0
    7.4101  -13.9618   25.8751 C   0  0  0  0  0  0  0  0  0  0  0  0
   10.6425  -16.6437   24.1986 C   0  0  0  0  0  0  0  0  0  0  0  0
   10.6671  -17.8025   23.7114 O   0  0  0  0  0  0  0  0  0  0  0  0
   11.8224  -16.2065   24.8258 N   0  0  0  0  0  0  0  0  0  0  0  0
   13.0345  -17.0442   24.8239 C   0  0  1  0  0  0  0  0  0  0  0  0
   14.2664  -16.2067   24.7790 C   0  0  0  0  0  0  0  0  0  0  0  0
   15.3115  -16.8285   23.9401 C   0  0  0  0  0  0  0  0  0  0  0  0
   15.1049  -17.3262   22.7934 O   0  0  0  0  0  0  0  0  0  0  0  0
   13.0442  -17.9323   25.9845 C   0  0  0  0  0  0  0  0  0  0  0  0
   12.3820  -17.6927   27.0049 O   0  0  0  0  0  0  0  0  0  0  0  0
   16.6485  -16.9114   24.3738 O   0  0  0  0  0  0  0  0  0  0  0  0
   13.8263  -19.0948   25.9479 O   0  0  0  0  0  0  0  0  0  0  0  0
  2  1  1  1
  2  5  1  0
  3  2  1  0
  4  3  1  0
  5  7  1  0
  5  6  2  0
  7  8  1  0
  8  9  1  1
  9 10  1  0
 10 11  2  0
 11 12  1  0
 13 12  1  0
 14 13  2  0
 15 14  1  0
 16 17  1  0
 16 15  2  0
 17 18  2  0
 18 10  1  0
 18 13  1  0
 19  8  1  0
 19 21  1  0
 20 19  2  0
 22 23  1  1
 22 21  1  0
 22 26  1  0
 23 24  1  0
 24 28  1  0
 24 25  2  0
 26 29  1  0
 27 26  2  0
M  END
$$$$
