CWD.pdb
     RDKit          3D

 29 30  0  0  1  0  0  0  0  0999 V2000
    7.4604  -15.1613   19.2630 N   0  0  0  0  0  0  0  0  0  0  0  0
    7.3181  -16.0687   20.3880 C   0  0  1  0  0  0  0  0  0  0  0  0
    7.5904  -17.5057   19.9522 C   0  0  0  0  0  0  0  0  0  0  0  0
    9.2908  -17.5618   19.3083 S   0  0  0  0  0  0  0  0  0  0  0  0
    8.2540  -15.6517   21.4575 C   0  0  0  0  0  0  0  0  0  0  0  0
    9.0921  -14.7247   21.2565 O   0  0  0  0  0  0  0  0  0  0  0  0
    8.2895  -16.2290   22.7395 N   0  0  0  0  0  0  0  0  0  0  0  0
    9.1685  -15.8844   23.8058 C   0  0  1  0  0  0  0  0  0  0  0  0
    8.6559  -16.1413   25.1786 C   0  0  0  0  0  0  0  0  0  0  0  0
    7.5125  -15.3173   25.5917 C   0  0  0  0  0  0  0  0  0  0  0  0
    6.2266  -15.7881   25.7368 C   0  0  0  0  0  0  0  0  0  0  0  0
    5.4472  -14.7682   26.1225 N   0  0  0  0  0  0  0  0  0  0  0  0
    6.2054  -13.6634   26.2258 C   0  0  0  0  0  0  0  0  0  0  0  0
    5.8776  -12.3627   26.5866 C   0  0  0  0  0  0  0  0  0  0  0  0
    6.8966  -11.4092   26.6040 C   0  0  0  0  0  0  0  0  0  0  0  0
    8.1964  -11.7405   26.2732 C   0  0  0  0  0  0  0  0  0  0  0  0
    8.5227  -13.0251   25.9163 C   0  0  0  0  0  0  0  0  0  0  0  0
    7.4992  -13.9770   25.9003 C   0  0  0  0  0  0  0  0  0  0  0  0
   10.4108  -16.6858   23.6423 C   0  0  0  0  0  0  0  0  0  0  0  0
   10.3540  -17.8401   23.1473 O   0  0  0  0  0  0  0  0  0  0  0  0
   11.6876  -16.2295   24.0142 N   0  0  0  0  0  0  0  0  0  0  0  0
   12.8779  -17.0770   23.8249 C   0  0  1  0  0  0  0  0  0  0  0  0
   14.1004  -16.2489   23.6230 C   0  0  0  0  0  0  0  0  0  0  0  0
   15.3025  -17.0921   23.4595 C   0  0  0  0  0  0  0  0  0  0  0  0
   15.5391  -17.8095   22.4423 O   0  0  0  0  0  0  0  0  0  0  0  0
   13.0411  -17.9893   24.9548 C   0  0  0  0  0  0  0  0  0  0  0  0
   13.7139  -19.0275   24.8734 O   0  0  0  0  0  0  0  0  0  0  0  0
   16.2957  -17.1559   24.4556 O   0  0  0  0  0  0  0  0  0  0  0  0
   12.4186  -17.6852   26.1732 O   0  0  0  0  0  0  0  0  0  0  0  0
  2  1  1  6
  2  5  1  0
  3  2  1  0
  4  3  1  0
  5  7  1  0
  5  6  2  0
  7  8  1  0
  8  9  1  1
  9 10  1  0
 10 11  2  0
 11 12  1  0
 13 12  1  0
 14 13  2  0
 15 14  1  0
 16 17  1  0
 16 15  2  0
 17 18  2  0
 18 10  1  0
 18 13  1  0
 19  8  1  0
 19 21  1  0
 20 19  2  0
 22 23  1  1
 22 21  1  0
 22 26  1  0
 23 24  1  0
 24 28  1  0
 24 25  2  0
 26 29  1  0
 27 26  2  0
M  END
$$$$
