LTN.pdb
     RDKit          3D

 24 23  0  0  1  0  0  0  0  0999 V2000
    9.8536  -12.5558   19.5879 C   0  0  0  0  0  0  0  0  0  0  0  0
    8.5182  -13.2231   19.3144 C   0  0  2  0  0  0  0  0  0  0  0  0
    7.4458  -12.1880   19.4166 C   0  0  0  0  0  0  0  0  0  0  0  0
    8.2916  -14.3301   20.3370 C   0  0  0  0  0  0  0  0  0  0  0  0
    9.4195  -15.3353   20.2138 C   0  0  2  0  0  0  0  0  0  0  0  0
    9.3227  -16.0112   18.9492 N   0  0  0  0  0  0  0  0  0  0  0  0
    9.4532  -16.2558   21.3637 C   0  0  0  0  0  0  0  0  0  0  0  0
    8.7383  -17.2883   21.3150 O   0  0  0  0  0  0  0  0  0  0  0  0
    9.9276  -18.8999   21.9343 C   0  0  0  0  0  0  0  0  0  0  0  0
   10.8236  -18.3793   23.0392 C   0  0  1  0  0  0  0  0  0  0  0  0
   12.0841  -18.1509   22.4850 O   0  0  0  0  0  0  0  0  0  0  0  0
   10.3284  -17.0639   23.5862 C   0  0  2  0  0  0  0  0  0  0  0  0
   10.2421  -16.0598   22.5346 N   0  0  0  0  0  0  0  0  0  0  0  0
   11.1397  -16.5333   24.6738 C   0  0  0  0  0  0  0  0  0  0  0  0
   11.9492  -15.5883   24.4709 O   0  0  0  0  0  0  0  0  0  0  0  0
    8.8323  -13.1441   28.0669 N   0  0  0  0  0  0  0  0  0  0  0  0
    9.8287  -14.1542   28.0070 C   0  0  0  0  0  0  0  0  0  0  0  0
   10.6903  -14.2245   28.9198 O   0  0  0  0  0  0  0  0  0  0  0  0
    9.8966  -15.1397   26.9030 C   0  0  0  0  0  0  0  0  0  0  0  0
   11.0387  -16.1193   27.1445 C   0  0  2  0  0  0  0  0  0  0  0  0
   11.0937  -17.0176   26.0172 N   0  0  0  0  0  0  0  0  0  0  0  0
   10.8334  -16.8322   28.4229 C   0  0  0  0  0  0  0  0  0  0  0  0
    9.8866  -17.6499   28.5522 O   0  0  0  0  0  0  0  0  0  0  0  0
   11.6625  -16.6316   29.5142 O   0  0  0  0  0  0  0  0  0  0  0  0
  2  1  1  1
  2  3  1  0
  4  2  1  0
  4  5  1  0
  5  6  1  6
  5  7  1  0
  7  8  2  0
 10  9  1  6
 11 10  1  0
 12 10  1  0
 13  7  1  0
 12 13  1  6
 14 12  1  0
 14 15  2  0
 16 17  1  0
 17 18  2  0
 17 19  1  0
 20 19  1  6
 20 21  1  0
 21 14  1  0
 22 20  1  0
 22 24  1  0
 23 22  2  0
M  END
$$$$
