LTN.pdb
     RDKit          3D

 24 23  0  0  1  0  0  0  0  0999 V2000
    9.4286  -12.7314   18.8337 C   0  0  0  0  0  0  0  0  0  0  0  0
    7.9948  -13.1809   19.0472 C   0  0  2  0  0  0  0  0  0  0  0  0
    7.0866  -12.0782   18.6101 C   0  0  0  0  0  0  0  0  0  0  0  0
    7.7819  -13.4953   20.5231 C   0  0  0  0  0  0  0  0  0  0  0  0
    8.8220  -14.5110   20.9522 C   0  0  2  0  0  0  0  0  0  0  0  0
    8.7155  -15.6832   20.1276 N   0  0  0  0  0  0  0  0  0  0  0  0
    8.7315  -14.8039   22.3933 C   0  0  0  0  0  0  0  0  0  0  0  0
    7.9899  -14.0748   23.0988 O   0  0  0  0  0  0  0  0  0  0  0  0
    6.7655  -15.5196   24.1816 C   0  0  0  0  0  0  0  0  0  0  0  0
    7.7089  -16.6245   24.6102 C   0  0  1  0  0  0  0  0  0  0  0  0
    7.4756  -17.7217   23.7796 O   0  0  0  0  0  0  0  0  0  0  0  0
    9.1526  -16.2258   24.4327 C   0  0  2  0  0  0  0  0  0  0  0  0
    9.4277  -15.8603   23.0499 N   0  0  0  0  0  0  0  0  0  0  0  0
   10.1034  -17.2504   24.8435 C   0  0  0  0  0  0  0  0  0  0  0  0
   10.1346  -18.3692   24.2630 O   0  0  0  0  0  0  0  0  0  0  0  0
   13.8276  -15.8171   24.4851 N   0  0  0  0  0  0  0  0  0  0  0  0
   13.7184  -17.1799   24.8692 C   0  0  0  0  0  0  0  0  0  0  0  0
   13.9257  -18.0791   24.0155 O   0  0  0  0  0  0  0  0  0  0  0  0
   13.3671  -17.5915   26.2482 C   0  0  0  0  0  0  0  0  0  0  0  0
   11.9489  -18.1482   26.2837 C   0  0  2  0  0  0  0  0  0  0  0  0
   11.0500  -17.0869   25.9012 N   0  0  0  0  0  0  0  0  0  0  0  0
   11.6478  -18.6836   27.6281 C   0  0  0  0  0  0  0  0  0  0  0  0
   12.3380  -19.6171   28.1119 O   0  0  0  0  0  0  0  0  0  0  0  0
   10.6090  -18.1871   28.3979 O   0  0  0  0  0  0  0  0  0  0  0  0
  2  1  1  1
  2  3  1  0
  4  2  1  0
  4  5  1  0
  5  6  1  6
  5  7  1  0
  7  8  2  0
 10  9  1  6
 11 10  1  0
 12 10  1  0
 13  7  1  0
 12 13  1  6
 14 12  1  0
 14 15  2  0
 16 17  1  0
 17 18  2  0
 17 19  1  0
 20 19  1  1
 20 21  1  0
 21 14  1  0
 22 20  1  0
 22 24  1  0
 23 22  2  0
M  END
$$$$
