LTN.pdb
     RDKit          3D

 24 23  0  0  1  0  0  0  0  0999 V2000
    9.0186  -12.3855   18.9446 C   0  0  0  0  0  0  0  0  0  0  0  0
    7.7338  -13.1921   18.8991 C   0  0  2  0  0  0  0  0  0  0  0  0
    6.6364  -12.3612   19.4796 C   0  0  0  0  0  0  0  0  0  0  0  0
    7.9168  -14.4734   19.7037 C   0  0  0  0  0  0  0  0  0  0  0  0
    9.0035  -15.3013   19.0469 C   0  0  2  0  0  0  0  0  0  0  0  0
    8.4536  -16.0082   17.9230 N   0  0  0  0  0  0  0  0  0  0  0  0
    9.6736  -16.1842   20.0176 C   0  0  0  0  0  0  0  0  0  0  0  0
    9.2156  -17.3438   20.1756 O   0  0  0  0  0  0  0  0  0  0  0  0
   10.7576  -18.5158   19.9515 C   0  0  0  0  0  0  0  0  0  0  0  0
   11.9397  -17.9836   20.7351 C   0  0  1  0  0  0  0  0  0  0  0  0
   12.8956  -17.5543   19.8132 O   0  0  0  0  0  0  0  0  0  0  0  0
   11.5600  -16.7911   21.5769 C   0  0  2  0  0  0  0  0  0  0  0  0
   10.8103  -15.8172   20.7953 N   0  0  0  0  0  0  0  0  0  0  0  0
   12.6950  -16.1197   22.1962 C   0  0  0  0  0  0  0  0  0  0  0  0
   13.6971  -15.7835   21.5091 O   0  0  0  0  0  0  0  0  0  0  0  0
   14.1109  -19.9868   25.6633 N   0  0  0  0  0  0  0  0  0  0  0  0
   13.9965  -18.5723   25.7174 C   0  0  0  0  0  0  0  0  0  0  0  0
   14.6985  -17.9284   26.5376 O   0  0  0  0  0  0  0  0  0  0  0  0
   13.0754  -17.8150   24.8384 C   0  0  0  0  0  0  0  0  0  0  0  0
   13.6895  -16.4695   24.4710 C   0  0  2  0  0  0  0  0  0  0  0  0
   12.7726  -15.7945   23.5854 N   0  0  0  0  0  0  0  0  0  0  0  0
   15.0195  -16.6697   23.8581 C   0  0  0  0  0  0  0  0  0  0  0  0
   16.0175  -16.0288   24.2766 O   0  0  0  0  0  0  0  0  0  0  0  0
   15.2180  -17.5574   22.8136 O   0  0  0  0  0  0  0  0  0  0  0  0
  2  1  1  1
  2  3  1  0
  4  2  1  0
  4  5  1  0
  5  6  1  6
  5  7  1  0
  7  8  2  0
 10  9  1  6
 11 10  1  0
 12 10  1  0
 13  7  1  0
 12 13  1  6
 14 12  1  0
 14 15  2  0
 16 17  1  0
 17 18  2  0
 17 19  1  0
 20 19  1  6
 20 21  1  0
 21 14  1  0
 22 20  1  0
 22 24  1  0
 23 22  2  0
M  END
$$$$
