LTN.pdb
     RDKit          3D

 24 23  0  0  1  0  0  0  0  0999 V2000
    5.5227  -11.8650   25.8099 C   0  0  0  0  0  0  0  0  0  0  0  0
    6.3662  -12.4951   26.9031 C   0  0  2  0  0  0  0  0  0  0  0  0
    7.1754  -11.4196   27.5512 C   0  0  0  0  0  0  0  0  0  0  0  0
    7.2763  -13.5518   26.2885 C   0  0  0  0  0  0  0  0  0  0  0  0
    6.4219  -14.5131   25.4863 C   0  0  2  0  0  0  0  0  0  0  0  0
    5.5474  -15.2307   26.3726 N   0  0  0  0  0  0  0  0  0  0  0  0
    7.2460  -15.3959   24.6423 C   0  0  0  0  0  0  0  0  0  0  0  0
    7.5273  -16.5392   25.0816 O   0  0  0  0  0  0  0  0  0  0  0  0
    6.9429  -15.4298   20.6676 C   0  0  0  0  0  0  0  0  0  0  0  0
    8.3853  -15.6496   21.0744 C   0  0  1  0  0  0  0  0  0  0  0  0
    9.0682  -14.4505   20.8650 O   0  0  0  0  0  0  0  0  0  0  0  0
    8.5069  -15.9857   22.5397 C   0  0  2  0  0  0  0  0  0  0  0  0
    7.7508  -15.0458   23.3560 N   0  0  0  0  0  0  0  0  0  0  0  0
    9.8801  -16.0266   23.0246 C   0  0  0  0  0  0  0  0  0  0  0  0
   10.4063  -15.0103   23.5535 O   0  0  0  0  0  0  0  0  0  0  0  0
   12.3321  -18.6522   26.3498 N   0  0  0  0  0  0  0  0  0  0  0  0
   11.7898  -18.9473   25.0710 C   0  0  0  0  0  0  0  0  0  0  0  0
   10.6900  -19.5512   24.9925 O   0  0  0  0  0  0  0  0  0  0  0  0
   12.4723  -18.5695   23.8116 C   0  0  0  0  0  0  0  0  0  0  0  0
   12.0878  -17.1497   23.4128 C   0  0  2  0  0  0  0  0  0  0  0  0
   10.7229  -17.1778   22.9470 N   0  0  0  0  0  0  0  0  0  0  0  0
   13.0223  -16.6405   22.3870 C   0  0  0  0  0  0  0  0  0  0  0  0
   12.6735  -16.5804   21.1803 O   0  0  0  0  0  0  0  0  0  0  0  0
   14.3010  -16.2158   22.7081 O   0  0  0  0  0  0  0  0  0  0  0  0
  2  1  1  6
  2  3  1  0
  4  2  1  0
  4  5  1  0
  5  6  1  1
  5  7  1  0
  7  8  2  0
 10  9  1  1
 11 10  1  0
 12 10  1  0
 13  7  1  0
 12 13  1  1
 14 12  1  0
 14 15  2  0
 16 17  1  0
 17 18  2  0
 17 19  1  0
 20 19  1  6
 20 21  1  0
 21 14  1  0
 22 20  1  0
 22 24  1  0
 23 22  2  0
M  END
$$$$
