LTN.pdb
     RDKit          3D

 24 23  0  0  1  0  0  0  0  0999 V2000
    5.8072  -12.2806   26.3735 C   0  0  0  0  0  0  0  0  0  0  0  0
    6.8186  -13.0725   27.1818 C   0  0  2  0  0  0  0  0  0  0  0  0
    7.6673  -12.1094   27.9459 C   0  0  0  0  0  0  0  0  0  0  0  0
    7.6752  -13.9057   26.2359 C   0  0  0  0  0  0  0  0  0  0  0  0
    6.7712  -14.8693   25.4931 C   0  0  2  0  0  0  0  0  0  0  0  0
    6.0765  -15.6995   26.4382 N   0  0  0  0  0  0  0  0  0  0  0  0
    7.5148  -15.6386   24.4801 C   0  0  0  0  0  0  0  0  0  0  0  0
    7.8893  -16.8006   24.7784 O   0  0  0  0  0  0  0  0  0  0  0  0
    6.7023  -15.3595   20.6015 C   0  0  0  0  0  0  0  0  0  0  0  0
    8.1929  -15.5509   20.7920 C   0  0  1  0  0  0  0  0  0  0  0  0
    8.8046  -14.3129   20.5885 O   0  0  0  0  0  0  0  0  0  0  0  0
    8.5242  -15.9902   22.1963 C   0  0  2  0  0  0  0  0  0  0  0  0
    7.8425  -15.1585   23.1786 N   0  0  0  0  0  0  0  0  0  0  0  0
    9.9504  -15.9916   22.4939 C   0  0  0  0  0  0  0  0  0  0  0  0
   10.4062  -15.3255   23.4624 O   0  0  0  0  0  0  0  0  0  0  0  0
   14.3265  -16.0955   24.9557 N   0  0  0  0  0  0  0  0  0  0  0  0
   13.9205  -15.6705   23.6630 C   0  0  0  0  0  0  0  0  0  0  0  0
   14.7858  -15.2557   22.8508 O   0  0  0  0  0  0  0  0  0  0  0  0
   12.5053  -15.6956   23.2258 C   0  0  0  0  0  0  0  0  0  0  0  0
   12.3192  -16.7182   22.1112 C   0  0  2  0  0  0  0  0  0  0  0  0
   10.9244  -16.7195   21.7437 N   0  0  0  0  0  0  0  0  0  0  0  0
   12.7843  -18.0475   22.5600 C   0  0  0  0  0  0  0  0  0  0  0  0
   11.9873  -18.8495   23.1107 O   0  0  0  0  0  0  0  0  0  0  0  0
   14.0970  -18.4577   22.3953 O   0  0  0  0  0  0  0  0  0  0  0  0
  2  1  1  6
  2  3  1  0
  4  2  1  0
  4  5  1  0
  5  6  1  1
  5  7  1  0
  7  8  2  0
 10  9  1  1
 11 10  1  0
 12 10  1  0
 13  7  1  0
 12 13  1  1
 14 12  1  0
 14 15  2  0
 16 17  1  0
 17 18  2  0
 17 19  1  0
 20 19  1  1
 20 21  1  0
 21 14  1  0
 22 20  1  0
 22 24  1  0
 23 22  2  0
M  END
$$$$
