LTN.pdb
     RDKit          3D

 24 23  0  0  1  0  0  0  0  0999 V2000
    8.4867  -19.1548   15.2219 C   0  0  0  0  0  0  0  0  0  0  0  0
    9.9565  -19.2776   15.5799 C   0  0  2  0  0  0  0  0  0  0  0  0
   10.2357  -20.7009   15.9377 C   0  0  0  0  0  0  0  0  0  0  0  0
   10.2646  -18.3603   16.7572 C   0  0  0  0  0  0  0  0  0  0  0  0
   10.0133  -16.9283   16.3284 C   0  0  2  0  0  0  0  0  0  0  0  0
   10.9005  -16.5886   15.2501 N   0  0  0  0  0  0  0  0  0  0  0  0
   10.1002  -15.9981   17.4676 C   0  0  0  0  0  0  0  0  0  0  0  0
   11.2164  -15.4805   17.7237 O   0  0  0  0  0  0  0  0  0  0  0  0
    7.9793  -13.0085   20.8345 C   0  0  0  0  0  0  0  0  0  0  0  0
    7.8460  -13.9935   19.6914 C   0  0  1  0  0  0  0  0  0  0  0  0
    7.5097  -13.2670   18.5481 O   0  0  0  0  0  0  0  0  0  0  0  0
    9.1485  -14.6992   19.4081 C   0  0  2  0  0  0  0  0  0  0  0  0
    9.0042  -15.6400   18.3057 N   0  0  0  0  0  0  0  0  0  0  0  0
    9.6997  -15.4059   20.5568 C   0  0  0  0  0  0  0  0  0  0  0  0
    9.3250  -16.5779   20.8316 O   0  0  0  0  0  0  0  0  0  0  0  0
   14.1889  -14.5881   21.0528 N   0  0  0  0  0  0  0  0  0  0  0  0
   13.4617  -15.5246   21.8344 C   0  0  0  0  0  0  0  0  0  0  0  0
   13.5934  -16.7534   21.6038 O   0  0  0  0  0  0  0  0  0  0  0  0
   12.5449  -15.1108   22.9219 C   0  0  0  0  0  0  0  0  0  0  0  0
   11.1248  -15.5694   22.6130 C   0  0  2  0  0  0  0  0  0  0  0  0
   10.6768  -14.8558   21.4423 N   0  0  0  0  0  0  0  0  0  0  0  0
   10.2513  -15.3370   23.7825 C   0  0  0  0  0  0  0  0  0  0  0  0
    9.3842  -14.4263   23.7598 O   0  0  0  0  0  0  0  0  0  0  0  0
   10.3507  -16.1008   24.9337 O   0  0  0  0  0  0  0  0  0  0  0  0
  2  1  1  1
  2  3  1  0
  4  2  1  0
  4  5  1  0
  5  6  1  6
  5  7  1  0
  7  8  2  0
 10  9  1  1
 11 10  1  0
 12 10  1  0
 13  7  1  0
 12 13  1  6
 14 12  1  0
 14 15  2  0
 16 17  1  0
 17 18  2  0
 17 19  1  0
 20 19  1  1
 20 21  1  0
 21 14  1  0
 22 20  1  0
 22 24  1  0
 23 22  2  0
M  END
$$$$
