LTN.pdb
     RDKit          3D

 24 23  0  0  1  0  0  0  0  0999 V2000
    9.7412  -12.5133   19.2547 C   0  0  0  0  0  0  0  0  0  0  0  0
    8.4191  -13.2569   19.2041 C   0  0  2  0  0  0  0  0  0  0  0  0
    7.3139  -12.2598   19.3308 C   0  0  0  0  0  0  0  0  0  0  0  0
    8.3650  -14.2628   20.3476 C   0  0  0  0  0  0  0  0  0  0  0  0
    9.5157  -15.2361   20.1853 C   0  0  2  0  0  0  0  0  0  0  0  0
    9.4038  -15.9027   18.9171 N   0  0  0  0  0  0  0  0  0  0  0  0
    9.6041  -16.1658   21.3249 C   0  0  0  0  0  0  0  0  0  0  0  0
    8.6964  -17.0246   21.4583 O   0  0  0  0  0  0  0  0  0  0  0  0
   11.2548  -19.0236   21.8330 C   0  0  0  0  0  0  0  0  0  0  0  0
   11.6752  -18.2436   23.0616 C   0  0  1  0  0  0  0  0  0  0  0  0
   12.9074  -17.6508   22.7815 O   0  0  0  0  0  0  0  0  0  0  0  0
   10.7041  -17.1335   23.3772 C   0  0  2  0  0  0  0  0  0  0  0  0
   10.6503  -16.1624   22.2930 N   0  0  0  0  0  0  0  0  0  0  0  0
   10.9935  -16.4310   24.6202 C   0  0  0  0  0  0  0  0  0  0  0  0
   11.6500  -15.3547   24.6133 O   0  0  0  0  0  0  0  0  0  0  0  0
   10.3979  -13.0891   28.8184 N   0  0  0  0  0  0  0  0  0  0  0  0
   10.2097  -14.4936   28.7247 C   0  0  0  0  0  0  0  0  0  0  0  0
   10.3107  -15.1992   29.7602 O   0  0  0  0  0  0  0  0  0  0  0  0
    9.8957  -15.1700   27.4447 C   0  0  0  0  0  0  0  0  0  0  0  0
   10.9732  -16.1965   27.1164 C   0  0  2  0  0  0  0  0  0  0  0  0
   10.5760  -16.8811   25.9104 N   0  0  0  0  0  0  0  0  0  0  0  0
   11.1558  -17.1216   28.2547 C   0  0  0  0  0  0  0  0  0  0  0  0
   11.8362  -16.7761   29.2543 O   0  0  0  0  0  0  0  0  0  0  0  0
   10.5940  -18.3876   28.2664 O   0  0  0  0  0  0  0  0  0  0  0  0
  2  1  1  1
  2  3  1  0
  4  2  1  0
  4  5  1  0
  5  6  1  6
  5  7  1  0
  7  8  2  0
 10  9  1  6
 11 10  1  0
 12 10  1  0
 13  7  1  0
 12 13  1  6
 14 12  1  0
 14 15  2  0
 16 17  1  0
 17 18  2  0
 17 19  1  0
 20 19  1  1
 20 21  1  0
 21 14  1  0
 22 20  1  0
 22 24  1  0
 23 22  2  0
M  END
$$$$
