LTN.pdb
     RDKit          3D

 24 23  0  0  1  0  0  0  0  0999 V2000
    5.5958  -12.0621   26.1545 C   0  0  0  0  0  0  0  0  0  0  0  0
    6.4078  -12.8137   27.1934 C   0  0  2  0  0  0  0  0  0  0  0  0
    7.1673  -11.8173   28.0071 C   0  0  0  0  0  0  0  0  0  0  0  0
    7.3641  -13.7683   26.4886 C   0  0  0  0  0  0  0  0  0  0  0  0
    6.5498  -14.7185   25.6332 C   0  0  2  0  0  0  0  0  0  0  0  0
    5.7447  -15.5549   26.4802 N   0  0  0  0  0  0  0  0  0  0  0  0
    7.4042  -15.4809   24.7062 C   0  0  0  0  0  0  0  0  0  0  0  0
    7.8560  -16.5877   25.0940 O   0  0  0  0  0  0  0  0  0  0  0  0
    6.8375  -15.4640   20.7469 C   0  0  0  0  0  0  0  0  0  0  0  0
    8.3185  -15.5180   21.0607 C   0  0  1  0  0  0  0  0  0  0  0  0
    8.8394  -14.2404   20.8493 O   0  0  0  0  0  0  0  0  0  0  0  0
    8.5703  -15.8724   22.5049 C   0  0  2  0  0  0  0  0  0  0  0  0
    7.7582  -15.0524   23.3936 N   0  0  0  0  0  0  0  0  0  0  0  0
    9.9658  -15.7565   22.9071 C   0  0  0  0  0  0  0  0  0  0  0  0
   10.3275  -14.8705   23.7278 O   0  0  0  0  0  0  0  0  0  0  0  0
   14.8849  -16.3000   24.0544 N   0  0  0  0  0  0  0  0  0  0  0  0
   13.8758  -17.0219   24.7452 C   0  0  0  0  0  0  0  0  0  0  0  0
   14.1581  -17.5897   25.8307 O   0  0  0  0  0  0  0  0  0  0  0  0
   12.4893  -17.1353   24.2358 C   0  0  0  0  0  0  0  0  0  0  0  0
   12.3733  -16.4560   22.8765 C   0  0  2  0  0  0  0  0  0  0  0  0
   11.0110  -16.6035   22.4258 N   0  0  0  0  0  0  0  0  0  0  0  0
   13.3457  -17.0438   21.9313 C   0  0  0  0  0  0  0  0  0  0  0  0
   14.3993  -16.4252   21.6333 O   0  0  0  0  0  0  0  0  0  0  0  0
   13.1392  -18.2810   21.3437 O   0  0  0  0  0  0  0  0  0  0  0  0
  2  1  1  6
  2  3  1  0
  4  2  1  0
  4  5  1  0
  5  6  1  1
  5  7  1  0
  7  8  2  0
 10  9  1  1
 11 10  1  0
 12 10  1  0
 13  7  1  0
 12 13  1  1
 14 12  1  0
 14 15  2  0
 16 17  1  0
 17 18  2  0
 17 19  1  0
 20 19  1  1
 20 21  1  0
 21 14  1  0
 22 20  1  0
 22 24  1  0
 23 22  2  0
M  END
$$$$
