LTN.pdb
     RDKit          3D

 24 23  0  0  1  0  0  0  0  0999 V2000
    9.4474  -12.8400   19.0908 C   0  0  0  0  0  0  0  0  0  0  0  0
    8.0265  -13.3725   19.1213 C   0  0  2  0  0  0  0  0  0  0  0  0
    7.0928  -12.2134   19.2489 C   0  0  0  0  0  0  0  0  0  0  0  0
    7.8700  -14.3177   20.3064 C   0  0  0  0  0  0  0  0  0  0  0  0
    8.8303  -15.4766   20.1259 C   0  0  2  0  0  0  0  0  0  0  0  0
    8.4046  -16.2827   19.0149 N   0  0  0  0  0  0  0  0  0  0  0  0
    8.9932  -16.2448   21.3726 C   0  0  0  0  0  0  0  0  0  0  0  0
    7.9774  -16.8002   21.8613 O   0  0  0  0  0  0  0  0  0  0  0  0
   10.9427  -19.2774   21.9606 C   0  0  0  0  0  0  0  0  0  0  0  0
   11.3505  -18.3304   23.0702 C   0  0  1  0  0  0  0  0  0  0  0  0
   12.5508  -17.7287   22.6889 O   0  0  0  0  0  0  0  0  0  0  0  0
   10.3381  -17.2296   23.2647 C   0  0  2  0  0  0  0  0  0  0  0  0
   10.2265  -16.4050   22.0693 N   0  0  0  0  0  0  0  0  0  0  0  0
   10.6161  -16.3656   24.4043 C   0  0  0  0  0  0  0  0  0  0  0  0
   11.2701  -15.2978   24.2578 O   0  0  0  0  0  0  0  0  0  0  0  0
   10.7372  -13.9813   28.9637 N   0  0  0  0  0  0  0  0  0  0  0  0
    9.5802  -13.8830   28.1463 C   0  0  0  0  0  0  0  0  0  0  0  0
    8.7433  -12.9721   28.3701 O   0  0  0  0  0  0  0  0  0  0  0  0
    9.3146  -14.8183   27.0285 C   0  0  0  0  0  0  0  0  0  0  0  0
   10.5034  -15.7515   26.8325 C   0  0  2  0  0  0  0  0  0  0  0  0
   10.1899  -16.6399   25.7402 N   0  0  0  0  0  0  0  0  0  0  0  0
   10.7881  -16.4801   28.0867 C   0  0  0  0  0  0  0  0  0  0  0  0
   11.1739  -15.8604   29.1107 O   0  0  0  0  0  0  0  0  0  0  0  0
   10.6442  -17.8543   28.1836 O   0  0  0  0  0  0  0  0  0  0  0  0
  2  1  1  1
  2  3  1  0
  4  2  1  0
  4  5  1  0
  5  6  1  6
  5  7  1  0
  7  8  2  0
 10  9  1  6
 11 10  1  0
 12 10  1  0
 13  7  1  0
 12 13  1  6
 14 12  1  0
 14 15  2  0
 16 17  1  0
 17 18  2  0
 17 19  1  0
 20 19  1  1
 20 21  1  0
 21 14  1  0
 22 20  1  0
 22 24  1  0
 23 22  2  0
M  END
$$$$
