LTN.pdb
     RDKit          3D

 24 23  0  0  1  0  0  0  0  0999 V2000
    5.4392  -12.2043   25.3511 C   0  0  0  0  0  0  0  0  0  0  0  0
    6.1200  -12.8198   26.5598 C   0  0  2  0  0  0  0  0  0  0  0  0
    6.7172  -11.7188   27.3742 C   0  0  0  0  0  0  0  0  0  0  0  0
    7.2023  -13.7840   26.0894 C   0  0  0  0  0  0  0  0  0  0  0  0
    6.5447  -14.8887   25.2864 C   0  0  2  0  0  0  0  0  0  0  0  0
    5.7033  -15.6718   26.1489 N   0  0  0  0  0  0  0  0  0  0  0  0
    7.5395  -15.6944   24.5569 C   0  0  0  0  0  0  0  0  0  0  0  0
    7.9083  -16.7818   25.0677 O   0  0  0  0  0  0  0  0  0  0  0  0
    9.8415  -16.9241   20.3333 C   0  0  0  0  0  0  0  0  0  0  0  0
    8.9866  -15.9408   21.1058 C   0  0  1  0  0  0  0  0  0  0  0  0
    7.6655  -16.1164   20.6910 O   0  0  0  0  0  0  0  0  0  0  0  0
    9.0308  -16.2081   22.5895 C   0  0  2  0  0  0  0  0  0  0  0  0
    8.1177  -15.3285   23.3064 N   0  0  0  0  0  0  0  0  0  0  0  0
   10.3592  -16.0797   23.1737 C   0  0  0  0  0  0  0  0  0  0  0  0
   10.8494  -14.9432   23.4139 O   0  0  0  0  0  0  0  0  0  0  0  0
   15.0092  -17.0045   25.2906 N   0  0  0  0  0  0  0  0  0  0  0  0
   14.2706  -18.2172   25.3133 C   0  0  0  0  0  0  0  0  0  0  0  0
   14.7756  -19.2362   25.8491 O   0  0  0  0  0  0  0  0  0  0  0  0
   12.9155  -18.3339   24.7264 C   0  0  0  0  0  0  0  0  0  0  0  0
   12.4885  -17.0005   24.1244 C   0  0  2  0  0  0  0  0  0  0  0  0
   11.1950  -17.1874   23.5139 N   0  0  0  0  0  0  0  0  0  0  0  0
   13.5044  -16.5319   23.1585 C   0  0  0  0  0  0  0  0  0  0  0  0
   14.4314  -15.7669   23.5288 O   0  0  0  0  0  0  0  0  0  0  0  0
   13.4771  -16.9101   21.8263 O   0  0  0  0  0  0  0  0  0  0  0  0
  2  1  1  6
  2  3  1  0
  4  2  1  0
  4  5  1  0
  5  6  1  1
  5  7  1  0
  7  8  2  0
 10  9  1  6
 11 10  1  0
 12 10  1  0
 13  7  1  0
 12 13  1  1
 14 12  1  0
 14 15  2  0
 16 17  1  0
 17 18  2  0
 17 19  1  0
 20 19  1  6
 20 21  1  0
 21 14  1  0
 22 20  1  0
 22 24  1  0
 23 22  2  0
M  END
$$$$
