LTN.pdb
     RDKit          3D

 24 23  0  0  1  0  0  0  0  0999 V2000
    8.2722  -13.1146   18.1440 C   0  0  0  0  0  0  0  0  0  0  0  0
    7.3712  -13.1755   19.3638 C   0  0  2  0  0  0  0  0  0  0  0  0
    7.2239  -11.7923   19.9088 C   0  0  0  0  0  0  0  0  0  0  0  0
    7.9972  -14.0960   20.4047 C   0  0  0  0  0  0  0  0  0  0  0  0
    8.0503  -15.4993   19.8341 C   0  0  2  0  0  0  0  0  0  0  0  0
    6.7156  -15.9541   19.5562 N   0  0  0  0  0  0  0  0  0  0  0  0
    8.8049  -16.4125   20.7101 C   0  0  0  0  0  0  0  0  0  0  0  0
    8.3055  -17.5383   20.9603 O   0  0  0  0  0  0  0  0  0  0  0  0
    9.9648  -18.8090   20.3941 C   0  0  0  0  0  0  0  0  0  0  0  0
   11.1909  -18.2724   21.1036 C   0  0  1  0  0  0  0  0  0  0  0  0
   12.0659  -17.7946   20.1268 O   0  0  0  0  0  0  0  0  0  0  0  0
   10.8505  -17.1138   22.0072 C   0  0  2  0  0  0  0  0  0  0  0  0
   10.0677  -16.1106   21.2983 N   0  0  0  0  0  0  0  0  0  0  0  0
   12.0126  -16.4662   22.6010 C   0  0  0  0  0  0  0  0  0  0  0  0
   12.2387  -15.2420   22.4021 O   0  0  0  0  0  0  0  0  0  0  0  0
   11.7942  -14.8440   27.4529 N   0  0  0  0  0  0  0  0  0  0  0  0
   12.2921  -16.0608   26.9160 C   0  0  0  0  0  0  0  0  0  0  0  0
   13.0065  -16.8046   27.6348 O   0  0  0  0  0  0  0  0  0  0  0  0
   12.0021  -16.4958   25.5299 C   0  0  0  0  0  0  0  0  0  0  0  0
   13.2999  -16.6446   24.7450 C   0  0  2  0  0  0  0  0  0  0  0  0
   12.9653  -17.1344   23.4302 N   0  0  0  0  0  0  0  0  0  0  0  0
   14.2258  -17.5461   25.4626 C   0  0  0  0  0  0  0  0  0  0  0  0
   15.3318  -17.1205   25.8837 O   0  0  0  0  0  0  0  0  0  0  0  0
   13.9180  -18.8761   25.6965 O   0  0  0  0  0  0  0  0  0  0  0  0
  2  1  1  6
  2  3  1  0
  4  2  1  0
  4  5  1  0
  5  6  1  1
  5  7  1  0
  7  8  2  0
 10  9  1  6
 11 10  1  0
 12 10  1  0
 13  7  1  0
 12 13  1  6
 14 12  1  0
 14 15  2  0
 16 17  1  0
 17 18  2  0
 17 19  1  0
 20 19  1  1
 20 21  1  0
 21 14  1  0
 22 20  1  0
 22 24  1  0
 23 22  2  0
M  END
$$$$
