LTN.pdb
     RDKit          3D

 24 23  0  0  1  0  0  0  0  0999 V2000
    1.9048  -18.3232   19.8533 C   0  0  0  0  0  0  0  0  0  0  0  0
    2.6121  -19.3305   20.7413 C   0  0  2  0  0  0  0  0  0  0  0  0
    1.6746  -19.7359   21.8315 C   0  0  0  0  0  0  0  0  0  0  0  0
    3.8662  -18.6912   21.3253 C   0  0  0  0  0  0  0  0  0  0  0  0
    4.7614  -18.2584   20.1813 C   0  0  2  0  0  0  0  0  0  0  0  0
    5.1149  -19.4047   19.3898 N   0  0  0  0  0  0  0  0  0  0  0  0
    5.9304  -17.5024   20.6637 C   0  0  0  0  0  0  0  0  0  0  0  0
    7.0180  -18.1178   20.7967 O   0  0  0  0  0  0  0  0  0  0  0  0
    8.3486  -13.2297   21.3567 C   0  0  0  0  0  0  0  0  0  0  0  0
    7.1208  -13.9902   20.8999 C   0  0  1  0  0  0  0  0  0  0  0  0
    7.1590  -14.0511   19.5060 O   0  0  0  0  0  0  0  0  0  0  0  0
    7.1207  -15.4090   21.4116 C   0  0  2  0  0  0  0  0  0  0  0  0
    5.9178  -16.1155   20.9928 N   0  0  0  0  0  0  0  0  0  0  0  0
    7.2451  -15.5150   22.8593 C   0  0  0  0  0  0  0  0  0  0  0  0
    6.2280  -15.4357   23.6000 O   0  0  0  0  0  0  0  0  0  0  0  0
    9.0693  -19.5555   26.1195 N   0  0  0  0  0  0  0  0  0  0  0  0
    8.0826  -18.5621   25.8828 C   0  0  0  0  0  0  0  0  0  0  0  0
    7.2358  -18.3094   26.7769 O   0  0  0  0  0  0  0  0  0  0  0  0
    8.0079  -17.8022   24.6133 C   0  0  0  0  0  0  0  0  0  0  0  0
    8.5468  -16.3910   24.8148 C   0  0  2  0  0  0  0  0  0  0  0  0
    8.4835  -15.7103   23.5446 N   0  0  0  0  0  0  0  0  0  0  0  0
    9.9211  -16.4456   25.3562 C   0  0  0  0  0  0  0  0  0  0  0  0
   10.1277  -16.2967   26.5878 O   0  0  0  0  0  0  0  0  0  0  0  0
   11.0208  -16.6595   24.5416 O   0  0  0  0  0  0  0  0  0  0  0  0
  2  1  1  6
  2  3  1  0
  4  2  1  0
  4  5  1  0
  5  6  1  1
  5  7  1  0
  7  8  2  0
 10  9  1  1
 11 10  1  0
 12 10  1  0
 13  7  1  0
 12 13  1  1
 14 12  1  0
 14 15  2  0
 16 17  1  0
 17 18  2  0
 17 19  1  0
 20 19  1  6
 20 21  1  0
 21 14  1  0
 22 20  1  0
 22 24  1  0
 23 22  2  0
M  END
$$$$
