STL.pdb
     RDKit          3D

 22 21  0  0  1  0  0  0  0  0999 V2000
   15.8389  -12.7226  -15.4596 O   0  0  0  0  0  0  0  0  0  0  0  0
   15.7623  -13.5379  -16.5701 C   0  0  0  0  0  0  0  0  0  0  0  0
   15.7157  -12.7780  -17.8775 C   0  0  2  0  0  0  0  0  0  0  0  0
   15.6798  -13.7564  -18.9334 N   0  0  0  0  0  0  0  0  0  0  0  0
   16.8597  -11.8602  -18.0407 C   0  0  0  0  0  0  0  0  0  0  0  0
   17.8931  -12.2914  -18.6075 O   0  0  0  0  0  0  0  0  0  0  0  0
   16.7147   -8.4960  -19.7175 C   0  0  0  0  0  0  0  0  0  0  0  0
   17.4221   -8.2769  -18.4004 C   0  0  1  0  0  0  0  0  0  0  0  0
   16.5548   -7.6697  -17.5171 O   0  0  0  0  0  0  0  0  0  0  0  0
   17.9442   -9.6041  -17.8742 C   0  0  2  0  0  0  0  0  0  0  0  0
   16.8560  -10.5171  -17.5923 N   0  0  0  0  0  0  0  0  0  0  0  0
   18.7988   -9.4096  -16.6769 C   0  0  0  0  0  0  0  0  0  0  0  0
   18.2984   -9.4915  -15.5297 O   0  0  0  0  0  0  0  0  0  0  0  0
   24.4677  -10.5134  -14.7519 C   0  0  0  0  0  0  0  0  0  0  0  0
   23.1929   -9.7883  -14.5522 C   0  0  2  0  0  0  0  0  0  0  0  0
   22.6283  -10.1086  -13.1571 C   0  0  0  0  0  0  0  0  0  0  0  0
   22.1400   -9.8730  -15.5832 C   0  0  0  0  0  0  0  0  0  0  0  0
   21.0287   -8.9235  -15.5622 C   0  0  2  0  0  0  0  0  0  0  0  0
   20.1817   -9.1300  -16.7774 N   0  0  0  0  0  0  0  0  0  0  0  0
   21.2530   -7.4879  -15.4161 C   0  0  0  0  0  0  0  0  0  0  0  0
   21.5188   -6.8516  -14.3735 O   0  0  0  0  0  0  0  0  0  0  0  0
   21.1748   -6.6414  -16.5630 O   0  0  0  0  0  0  0  0  0  0  0  0
  1  2  1  0
  3  2  1  0
  3  4  1  6
  5  3  1  0
  5 11  1  0
  6  5  2  0
  8  7  1  6
  9  8  1  0
 10 11  1  1
 10  8  1  0
 12 10  1  0
 12 19  1  0
 13 12  2  0
 15 16  1  1
 15 14  1  0
 17 15  1  0
 18 19  1  0
 18 17  1  6
 20 18  1  0
 21 20  2  0
 22 20  1  0
M  END
$$$$
