STL.pdb
     RDKit          3D

 22 21  0  0  1  0  0  0  0  0999 V2000
   14.7973  -17.1117  -13.6990 O   0  0  0  0  0  0  0  0  0  0  0  0
   15.1677  -15.9574  -14.3580 C   0  0  0  0  0  0  0  0  0  0  0  0
   14.3193  -15.6548  -15.5734 C   0  0  2  0  0  0  0  0  0  0  0  0
   14.6894  -16.6019  -16.5930 N   0  0  0  0  0  0  0  0  0  0  0  0
   14.4852  -14.2679  -16.0494 C   0  0  0  0  0  0  0  0  0  0  0  0
   15.2676  -14.0567  -17.0078 O   0  0  0  0  0  0  0  0  0  0  0  0
   12.8836   -9.6268  -16.4053 C   0  0  0  0  0  0  0  0  0  0  0  0
   12.7019  -10.9999  -15.8013 C   0  0  1  0  0  0  0  0  0  0  0  0
   11.6048  -11.6051  -16.3766 O   0  0  0  0  0  0  0  0  0  0  0  0
   13.9726  -11.8128  -15.9895 C   0  0  2  0  0  0  0  0  0  0  0  0
   13.8089  -13.1599  -15.4837 N   0  0  0  0  0  0  0  0  0  0  0  0
   15.1371  -11.1452  -15.3571 C   0  0  0  0  0  0  0  0  0  0  0  0
   15.2421  -11.1191  -14.1075 O   0  0  0  0  0  0  0  0  0  0  0  0
   19.4935  -11.9972  -15.1366 C   0  0  0  0  0  0  0  0  0  0  0  0
   19.1529  -11.2677  -16.3786 C   0  0  2  0  0  0  0  0  0  0  0  0
   20.3863  -11.2046  -17.2966 C   0  0  0  0  0  0  0  0  0  0  0  0
   18.4897   -9.9521  -16.2895 C   0  0  0  0  0  0  0  0  0  0  0  0
   17.2894   -9.8010  -15.4689 C   0  0  2  0  0  0  0  0  0  0  0  0
   16.1538  -10.5246  -16.1199 N   0  0  0  0  0  0  0  0  0  0  0  0
   16.8026   -8.4858  -15.0618 C   0  0  0  0  0  0  0  0  0  0  0  0
   15.9405   -7.7755  -15.6229 O   0  0  0  0  0  0  0  0  0  0  0  0
   17.3310   -7.8707  -13.8868 O   0  0  0  0  0  0  0  0  0  0  0  0
  1  2  1  0
  3  2  1  0
  3  4  1  6
  5  3  1  0
  5 11  1  0
  6  5  2  0
  8  7  1  6
  9  8  1  0
 10 11  1  1
 10  8  1  0
 12 10  1  0
 12 19  1  0
 13 12  2  0
 15 16  1  1
 15 14  1  0
 17 15  1  0
 18 19  1  0
 18 17  1  6
 20 18  1  0
 21 20  2  0
 22 20  1  0
M  END
$$$$
