STL.pdb
     RDKit          3D

 22 21  0  0  1  0  0  0  0  0999 V2000
   13.2126  -12.5582  -14.6152 O   0  0  0  0  0  0  0  0  0  0  0  0
   13.9824  -11.8994  -13.6785 C   0  0  0  0  0  0  0  0  0  0  0  0
   15.4172  -11.6922  -14.1109 C   0  0  2  0  0  0  0  0  0  0  0  0
   16.0665  -12.9760  -14.0483 N   0  0  0  0  0  0  0  0  0  0  0  0
   16.1221  -10.6980  -13.2787 C   0  0  0  0  0  0  0  0  0  0  0  0
   16.6533  -11.0853  -12.2097 O   0  0  0  0  0  0  0  0  0  0  0  0
   18.5475   -6.4768  -12.7862 C   0  0  0  0  0  0  0  0  0  0  0  0
   17.8632   -7.5031  -13.6588 C   0  0  1  0  0  0  0  0  0  0  0  0
   18.8193   -8.2315  -14.3344 O   0  0  0  0  0  0  0  0  0  0  0  0
   16.9661   -8.3837  -12.8039 C   0  0  2  0  0  0  0  0  0  0  0  0
   16.2324   -9.3283  -13.6205 N   0  0  0  0  0  0  0  0  0  0  0  0
   16.0440   -7.5686  -11.9751 C   0  0  0  0  0  0  0  0  0  0  0  0
   15.0494   -7.0161  -12.5031 O   0  0  0  0  0  0  0  0  0  0  0  0
   14.6940   -6.6134   -5.9638 C   0  0  0  0  0  0  0  0  0  0  0  0
   14.4313   -6.3715   -7.4001 C   0  0  2  0  0  0  0  0  0  0  0  0
   12.9289   -6.5398   -7.6872 C   0  0  0  0  0  0  0  0  0  0  0  0
   15.2467   -7.0674   -8.4148 C   0  0  0  0  0  0  0  0  0  0  0  0
   15.3289   -6.5282   -9.7711 C   0  0  2  0  0  0  0  0  0  0  0  0
   16.2438   -7.3851  -10.5870 N   0  0  0  0  0  0  0  0  0  0  0  0
   15.6877   -5.1345  -10.0188 C   0  0  0  0  0  0  0  0  0  0  0  0
   16.8310   -4.6367  -10.1052 O   0  0  0  0  0  0  0  0  0  0  0  0
   14.6578   -4.1614  -10.1939 O   0  0  0  0  0  0  0  0  0  0  0  0
  1  2  1  0
  3  2  1  0
  3  4  1  1
  5  3  1  0
  5 11  1  0
  6  5  2  0
  8  7  1  1
  9  8  1  0
 10 11  1  6
 10  8  1  0
 12 10  1  0
 12 19  1  0
 13 12  2  0
 15 16  1  6
 15 14  1  0
 17 15  1  0
 18 19  1  0
 18 17  1  1
 20 18  1  0
 21 20  2  0
 22 20  1  0
M  END
$$$$
