STL.pdb
     RDKit          3D

 22 21  0  0  1  0  0  0  0  0999 V2000
   18.8996  -20.0062  -12.3882 O   0  0  0  0  0  0  0  0  0  0  0  0
   19.0552  -19.9829  -13.7590 C   0  0  0  0  0  0  0  0  0  0  0  0
   19.1457  -21.3586  -14.3819 C   0  0  2  0  0  0  0  0  0  0  0  0
   17.9927  -22.0991  -13.9394 N   0  0  0  0  0  0  0  0  0  0  0  0
   20.3958  -22.0592  -14.0294 C   0  0  0  0  0  0  0  0  0  0  0  0
   20.3527  -22.9429  -13.1392 O   0  0  0  0  0  0  0  0  0  0  0  0
   24.6081  -24.0870  -14.9798 C   0  0  0  0  0  0  0  0  0  0  0  0
   23.2857  -23.4590  -15.3538 C   0  0  1  0  0  0  0  0  0  0  0  0
   22.3550  -24.4550  -15.5608 O   0  0  0  0  0  0  0  0  0  0  0  0
   22.8564  -22.4867  -14.2669 C   0  0  2  0  0  0  0  0  0  0  0  0
   21.6438  -21.7891  -14.6413 N   0  0  0  0  0  0  0  0  0  0  0  0
   23.9423  -21.5291  -13.9421 C   0  0  0  0  0  0  0  0  0  0  0  0
   24.0048  -20.4270  -14.5377 O   0  0  0  0  0  0  0  0  0  0  0  0
   24.7880  -19.5375  -10.1008 C   0  0  0  0  0  0  0  0  0  0  0  0
   25.5069  -20.8259  -10.2191 C   0  0  2  0  0  0  0  0  0  0  0  0
   26.1157  -21.2058   -8.8578 C   0  0  0  0  0  0  0  0  0  0  0  0
   26.4844  -21.0147  -11.3089 C   0  0  0  0  0  0  0  0  0  0  0  0
   26.0558  -20.8671  -12.6987 C   0  0  2  0  0  0  0  0  0  0  0  0
   24.9293  -21.8128  -12.9696 N   0  0  0  0  0  0  0  0  0  0  0  0
   27.0021  -20.9752  -13.8057 C   0  0  0  0  0  0  0  0  0  0  0  0
   27.2504  -21.9759  -14.5123 O   0  0  0  0  0  0  0  0  0  0  0  0
   27.7760  -19.8373  -14.1858 O   0  0  0  0  0  0  0  0  0  0  0  0
  1  2  1  0
  3  2  1  0
  3  4  1  1
  5  3  1  0
  5 11  1  0
  6  5  2  0
  8  7  1  1
  9  8  1  0
 10 11  1  6
 10  8  1  0
 12 10  1  0
 12 19  1  0
 13 12  2  0
 15 16  1  1
 15 14  1  0
 17 15  1  0
 18 19  1  0
 18 17  1  1
 20 18  1  0
 21 20  2  0
 22 20  1  0
M  END
$$$$
