STL.pdb
     RDKit          3D

 22 21  0  0  1  0  0  0  0  0999 V2000
   16.3979  -12.5036  -16.4232 O   0  0  0  0  0  0  0  0  0  0  0  0
   17.0032  -13.4735  -17.1959 C   0  0  0  0  0  0  0  0  0  0  0  0
   17.3334  -13.0121  -18.5982 C   0  0  2  0  0  0  0  0  0  0  0  0
   17.9520  -14.1233  -19.2736 N   0  0  0  0  0  0  0  0  0  0  0  0
   18.2103  -11.8252  -18.6127 C   0  0  0  0  0  0  0  0  0  0  0  0
   19.4504  -11.9998  -18.5305 O   0  0  0  0  0  0  0  0  0  0  0  0
   18.9214   -6.9529  -19.1668 C   0  0  0  0  0  0  0  0  0  0  0  0
   18.0121   -8.1474  -19.3383 C   0  0  1  0  0  0  0  0  0  0  0  0
   17.8281   -8.3857  -20.6839 O   0  0  0  0  0  0  0  0  0  0  0  0
   18.6037   -9.3475  -18.6167 C   0  0  2  0  0  0  0  0  0  0  0  0
   17.7289  -10.4975  -18.7145 N   0  0  0  0  0  0  0  0  0  0  0  0
   18.9057   -9.0280  -17.1996 C   0  0  0  0  0  0  0  0  0  0  0  0
   17.9905   -9.0545  -16.3424 O   0  0  0  0  0  0  0  0  0  0  0  0
   23.4522   -9.5827  -13.1296 C   0  0  0  0  0  0  0  0  0  0  0  0
   22.1416   -9.0070  -13.5058 C   0  0  2  0  0  0  0  0  0  0  0  0
   21.0658   -9.4745  -12.5099 C   0  0  0  0  0  0  0  0  0  0  0  0
   21.6663   -9.1315  -14.8977 C   0  0  0  0  0  0  0  0  0  0  0  0
   20.4988   -8.3679  -15.3346 C   0  0  2  0  0  0  0  0  0  0  0  0
   20.2086   -8.6883  -16.7665 N   0  0  0  0  0  0  0  0  0  0  0  0
   20.4339   -6.9171  -15.1824 C   0  0  0  0  0  0  0  0  0  0  0  0
   20.9476   -6.0419  -15.9122 O   0  0  0  0  0  0  0  0  0  0  0  0
   19.7120   -6.3543  -14.0867 O   0  0  0  0  0  0  0  0  0  0  0  0
  1  2  1  0
  3  2  1  0
  3  4  1  6
  5  3  1  0
  5 11  1  0
  6  5  2  0
  8  7  1  6
  9  8  1  0
 10 11  1  1
 10  8  1  0
 12 10  1  0
 12 19  1  0
 13 12  2  0
 15 16  1  1
 15 14  1  0
 17 15  1  0
 18 19  1  0
 18 17  1  6
 20 18  1  0
 21 20  2  0
 22 20  1  0
M  END
$$$$
