STL.pdb
     RDKit          3D

 22 21  0  0  1  0  0  0  0  0999 V2000
   16.8179  -15.1783  -13.7506 O   0  0  0  0  0  0  0  0  0  0  0  0
   17.4293  -14.2169  -14.5290 C   0  0  0  0  0  0  0  0  0  0  0  0
   16.4695  -13.4562  -15.4172 C   0  0  2  0  0  0  0  0  0  0  0  0
   15.8836  -14.4114  -16.3214 N   0  0  0  0  0  0  0  0  0  0  0  0
   17.1271  -12.3595  -16.1539 C   0  0  0  0  0  0  0  0  0  0  0  0
   17.8508  -12.6521  -17.1366 O   0  0  0  0  0  0  0  0  0  0  0  0
   16.0952   -9.5664  -18.3175 C   0  0  0  0  0  0  0  0  0  0  0  0
   16.7815   -8.9377  -17.1272 C   0  0  1  0  0  0  0  0  0  0  0  0
   15.8264   -8.4836  -16.2426 O   0  0  0  0  0  0  0  0  0  0  0  0
   17.7238   -9.9460  -16.4897 C   0  0  2  0  0  0  0  0  0  0  0  0
   16.9863  -10.9925  -15.8127 N   0  0  0  0  0  0  0  0  0  0  0  0
   18.6759   -9.2828  -15.5649 C   0  0  0  0  0  0  0  0  0  0  0  0
   18.3327   -9.0339  -14.3845 O   0  0  0  0  0  0  0  0  0  0  0  0
   22.6879  -10.3597  -13.4576 C   0  0  0  0  0  0  0  0  0  0  0  0
   22.7528  -10.0003  -14.8919 C   0  0  2  0  0  0  0  0  0  0  0  0
   24.1581  -10.3066  -15.4392 C   0  0  0  0  0  0  0  0  0  0  0  0
   22.2923   -8.6674  -15.3282 C   0  0  0  0  0  0  0  0  0  0  0  0
   20.9278   -8.2387  -15.0260 C   0  0  2  0  0  0  0  0  0  0  0  0
   19.9803   -8.9122  -15.9671 N   0  0  0  0  0  0  0  0  0  0  0  0
   20.5661   -6.8252  -14.9680 C   0  0  0  0  0  0  0  0  0  0  0  0
   20.0571   -6.1224  -15.8677 O   0  0  0  0  0  0  0  0  0  0  0  0
   20.7932   -6.0876  -13.7668 O   0  0  0  0  0  0  0  0  0  0  0  0
  1  2  1  0
  3  2  1  0
  3  4  1  6
  5  3  1  0
  5 11  1  0
  6  5  2  0
  8  7  1  6
  9  8  1  0
 10 11  1  1
 10  8  1  0
 12 10  1  0
 12 19  1  0
 13 12  2  0
 15 16  1  1
 15 14  1  0
 17 15  1  0
 18 19  1  0
 18 17  1  6
 20 18  1  0
 21 20  2  0
 22 20  1  0
M  END
$$$$
