STL.pdb
     RDKit          3D

 22 21  0  0  1  0  0  0  0  0999 V2000
   15.7865  -22.4181   -3.2251 O   0  0  0  0  0  0  0  0  0  0  0  0
   15.8227  -23.7953   -3.3010 C   0  0  0  0  0  0  0  0  0  0  0  0
   14.6469  -24.4701   -2.6295 C   0  0  2  0  0  0  0  0  0  0  0  0
   13.4527  -23.9195   -3.2161 N   0  0  0  0  0  0  0  0  0  0  0  0
   14.6517  -24.2915   -1.1646 C   0  0  0  0  0  0  0  0  0  0  0  0
   13.9160  -23.4028   -0.6705 O   0  0  0  0  0  0  0  0  0  0  0  0
   15.9231  -25.8863    3.3620 C   0  0  0  0  0  0  0  0  0  0  0  0
   16.0281  -26.0799    1.8672 C   0  0  1  0  0  0  0  0  0  0  0  0
   15.4310  -27.2742    1.5232 O   0  0  0  0  0  0  0  0  0  0  0  0
   15.3984  -24.8947    1.1532 C   0  0  2  0  0  0  0  0  0  0  0  0
   15.4420  -25.0690   -0.2838 N   0  0  0  0  0  0  0  0  0  0  0  0
   16.0438  -23.6202    1.5542 C   0  0  0  0  0  0  0  0  0  0  0  0
   17.2092  -23.3599    1.1703 O   0  0  0  0  0  0  0  0  0  0  0  0
   14.6681  -17.8187    2.4090 C   0  0  0  0  0  0  0  0  0  0  0  0
   15.6956  -18.8814    2.4838 C   0  0  2  0  0  0  0  0  0  0  0  0
   16.9600  -18.4330    1.7300 C   0  0  0  0  0  0  0  0  0  0  0  0
   15.3325  -20.2685    2.1332 C   0  0  0  0  0  0  0  0  0  0  0  0
   16.0455  -21.3825    2.7559 C   0  0  2  0  0  0  0  0  0  0  0  0
   15.3865  -22.6676    2.3673 N   0  0  0  0  0  0  0  0  0  0  0  0
   16.2879  -21.4254    4.1953 C   0  0  0  0  0  0  0  0  0  0  0  0
   16.9462  -20.6216    4.8903 O   0  0  0  0  0  0  0  0  0  0  0  0
   15.7363  -22.4887    4.9721 O   0  0  0  0  0  0  0  0  0  0  0  0
  1  2  1  0
  3  2  1  0
  3  4  1  6
  5  3  1  0
  5 11  1  0
  6  5  2  0
  8  7  1  1
  9  8  1  0
 10 11  1  6
 10  8  1  0
 12 10  1  0
 12 19  1  0
 13 12  2  0
 15 16  1  6
 15 14  1  0
 17 15  1  0
 18 19  1  0
 18 17  1  1
 20 18  1  0
 21 20  2  0
 22 20  1  0
M  END
$$$$
