MKE.pdb
     RDKit          3D

 27 26  0  0  1  0  0  0  0  0999 V2000
   19.5960  -15.3158  -20.9579 C   0  0  0  0  0  0  0  0  0  0  0  0
   20.4850  -15.9844  -19.5724 S   0  0  0  0  0  0  0  0  0  0  0  0
   20.9058  -14.8636  -18.2842 C   0  0  0  0  0  0  0  0  0  0  0  0
   20.0285  -13.6875  -18.1329 C   0  0  0  0  0  0  0  0  0  0  0  0
   20.3542  -12.6509  -17.1162 C   0  0  2  0  0  0  0  0  0  0  0  0
   20.7180  -13.1134  -15.8310 N   0  0  0  0  0  0  0  0  0  0  0  0
   19.3471  -11.5757  -17.1662 C   0  0  0  0  0  0  0  0  0  0  0  0
   19.0543  -11.0401  -18.2691 O   0  0  0  0  0  0  0  0  0  0  0  0
   18.6368  -11.0509  -16.0213 N   0  0  0  0  0  0  0  0  0  0  0  0
   17.6231  -10.0611  -16.1795 C   0  0  1  0  0  0  0  0  0  0  0  0
   16.3398  -10.1512  -15.4578 C   0  0  0  0  0  0  0  0  0  0  0  0
   15.4630  -11.3182  -15.5399 C   0  0  0  0  0  0  0  0  0  0  0  0
   14.2227  -11.2276  -14.7180 C   0  0  0  0  0  0  0  0  0  0  0  0
   13.4551  -12.5346  -14.9528 C   0  0  0  0  0  0  0  0  0  0  0  0
   12.3324  -12.6083  -14.0464 N   0  0  0  0  0  0  0  0  0  0  0  0
   18.2975   -8.7256  -15.9473 C   0  0  0  0  0  0  0  0  0  0  0  0
   19.1164   -8.5590  -15.0099 O   0  0  0  0  0  0  0  0  0  0  0  0
   18.0254   -7.6160  -16.7863 N   0  0  0  0  0  0  0  0  0  0  0  0
   18.6927   -6.3032  -16.5756 C   0  0  1  0  0  0  0  0  0  0  0  0
   18.5928   -5.4918  -17.8263 C   0  0  0  0  0  0  0  0  0  0  0  0
   19.6615   -5.8144  -18.8176 C   0  0  0  0  0  0  0  0  0  0  0  0
   19.1580   -5.8427  -20.2020 C   0  0  0  0  0  0  0  0  0  0  0  0
   18.2848   -6.7117  -20.5177 O   0  0  0  0  0  0  0  0  0  0  0  0
   18.0638   -5.7026  -15.3942 C   0  0  0  0  0  0  0  0  0  0  0  0
   18.7534   -4.8545  -14.5090 O   0  0  0  0  0  0  0  0  0  0  0  0
   19.6017   -4.9623  -21.1659 O   0  0  0  0  0  0  0  0  0  0  0  0
   16.8636   -5.9085  -15.0968 O   0  0  0  0  0  0  0  0  0  0  0  0
  1  2  1  0
  3  4  1  0
  3  2  1  0
  4  5  1  0
  5  6  1  1
  7  5  1  0
  7  8  2  0
  9  7  1  0
 10  9  1  0
 10 11  1  1
 12 11  1  0
 13 12  1  0
 13 14  1  0
 14 15  1  0
 16 10  1  0
 17 16  2  0
 18 16  1  0
 19 18  1  0
 19 20  1  6
 21 20  1  0
 22 21  1  0
 23 22  2  0
 24 19  1  0
 24 25  1  0
 26 22  1  0
 27 24  2  0
M  END
$$$$
