MKE.pdb
     RDKit          3D

 27 26  0  0  1  0  0  0  0  0999 V2000
   25.8456  -10.2915  -14.7196 C   0  0  0  0  0  0  0  0  0  0  0  0
   26.1209  -11.9522  -15.2878 S   0  0  0  0  0  0  0  0  0  0  0  0
   24.7062  -12.8562  -15.8115 C   0  0  0  0  0  0  0  0  0  0  0  0
   23.4913  -12.0643  -16.0808 C   0  0  0  0  0  0  0  0  0  0  0  0
   22.2443  -12.7516  -16.5135 C   0  0  2  0  0  0  0  0  0  0  0  0
   22.3625  -13.6692  -17.5821 N   0  0  0  0  0  0  0  0  0  0  0  0
   21.1470  -11.7718  -16.6077 C   0  0  0  0  0  0  0  0  0  0  0  0
   21.1827  -10.8716  -17.4892 O   0  0  0  0  0  0  0  0  0  0  0  0
   19.9871  -11.7405  -15.7449 N   0  0  0  0  0  0  0  0  0  0  0  0
   18.9678  -10.7600  -15.9243 C   0  0  1  0  0  0  0  0  0  0  0  0
   17.5405  -11.0945  -15.7612 C   0  0  0  0  0  0  0  0  0  0  0  0
   16.9161  -12.2471  -16.4086 C   0  0  0  0  0  0  0  0  0  0  0  0
   15.4774  -12.4486  -16.0748 C   0  0  0  0  0  0  0  0  0  0  0  0
   15.0210  -13.6805  -16.8663 C   0  0  0  0  0  0  0  0  0  0  0  0
   14.4597  -14.6582  -15.9627 N   0  0  0  0  0  0  0  0  0  0  0  0
   19.3626   -9.5788  -15.0633 C   0  0  0  0  0  0  0  0  0  0  0  0
   19.7311   -9.7299  -13.8723 O   0  0  0  0  0  0  0  0  0  0  0  0
   19.3299   -8.2585  -15.5780 N   0  0  0  0  0  0  0  0  0  0  0  0
   19.5971   -7.0811  -14.7086 C   0  0  1  0  0  0  0  0  0  0  0  0
   20.8822   -6.4420  -15.1239 C   0  0  0  0  0  0  0  0  0  0  0  0
   21.2194   -5.2322  -14.3166 C   0  0  0  0  0  0  0  0  0  0  0  0
   22.4918   -4.6144  -14.7290 C   0  0  0  0  0  0  0  0  0  0  0  0
   23.3594   -5.3348  -15.3169 O   0  0  0  0  0  0  0  0  0  0  0  0
   18.4151   -6.2176  -14.8042 C   0  0  0  0  0  0  0  0  0  0  0  0
   17.6010   -6.1602  -15.9498 O   0  0  0  0  0  0  0  0  0  0  0  0
   22.7746   -3.2847  -14.4983 O   0  0  0  0  0  0  0  0  0  0  0  0
   18.0530   -5.4713  -13.8644 O   0  0  0  0  0  0  0  0  0  0  0  0
  1  2  1  0
  3  4  1  0
  3  2  1  0
  4  5  1  0
  5  6  1  6
  7  5  1  0
  7  8  2  0
  9  7  1  0
 10  9  1  0
 10 11  1  1
 12 11  1  0
 13 12  1  0
 13 14  1  0
 14 15  1  0
 16 10  1  0
 17 16  2  0
 18 16  1  0
 19 18  1  0
 19 20  1  6
 21 20  1  0
 22 21  1  0
 23 22  2  0
 24 19  1  0
 24 25  1  0
 26 22  1  0
 27 24  2  0
M  END
$$$$
