MKE.pdb
     RDKit          3D

 27 26  0  0  1  0  0  0  0  0999 V2000
   28.5583  -17.3656   -5.9981 C   0  0  0  0  0  0  0  0  0  0  0  0
   28.5705  -19.1330   -5.8167 S   0  0  0  0  0  0  0  0  0  0  0  0
   27.2280  -20.0134   -6.5345 C   0  0  0  0  0  0  0  0  0  0  0  0
   26.7610  -19.5302   -7.8476 C   0  0  0  0  0  0  0  0  0  0  0  0
   25.6749  -20.2587   -8.5575 C   0  0  2  0  0  0  0  0  0  0  0  0
   25.4708  -21.6088   -8.1919 N   0  0  0  0  0  0  0  0  0  0  0  0
   25.7506  -19.9739  -10.0018 C   0  0  0  0  0  0  0  0  0  0  0  0
   25.7543  -18.7804  -10.4073 O   0  0  0  0  0  0  0  0  0  0  0  0
   25.8183  -20.9759  -11.0421 N   0  0  0  0  0  0  0  0  0  0  0  0
   25.8142  -20.6035  -12.4182 C   0  0  1  0  0  0  0  0  0  0  0  0
   26.8178  -21.1314  -13.3616 C   0  0  0  0  0  0  0  0  0  0  0  0
   26.8257  -20.7932  -14.7839 C   0  0  0  0  0  0  0  0  0  0  0  0
   27.8768  -21.4828  -15.5849 C   0  0  0  0  0  0  0  0  0  0  0  0
   27.7741  -20.9168  -17.0067 C   0  0  0  0  0  0  0  0  0  0  0  0
   28.8330  -21.4622  -17.8246 N   0  0  0  0  0  0  0  0  0  0  0  0
   24.4047  -20.8438  -12.9160 C   0  0  0  0  0  0  0  0  0  0  0  0
   23.7443  -21.8490  -12.5548 O   0  0  0  0  0  0  0  0  0  0  0  0
   23.7824  -19.9357  -13.8090 N   0  0  0  0  0  0  0  0  0  0  0  0
   22.3737  -20.1241  -14.2489 C   0  0  1  0  0  0  0  0  0  0  0  0
   21.6097  -18.8618  -14.0137 C   0  0  0  0  0  0  0  0  0  0  0  0
   20.1763  -18.9636  -14.4184 C   0  0  0  0  0  0  0  0  0  0  0  0
   19.3451  -19.6192  -13.3937 C   0  0  0  0  0  0  0  0  0  0  0  0
   19.1016  -18.9953  -12.3125 O   0  0  0  0  0  0  0  0  0  0  0  0
   22.4307  -20.5637  -15.6473 C   0  0  0  0  0  0  0  0  0  0  0  0
   21.4988  -21.4566  -16.2065 O   0  0  0  0  0  0  0  0  0  0  0  0
   18.8245  -20.8844  -13.5654 O   0  0  0  0  0  0  0  0  0  0  0  0
   23.3196  -20.1686  -16.4379 O   0  0  0  0  0  0  0  0  0  0  0  0
  1  2  1  0
  3  4  1  0
  3  2  1  0
  4  5  1  0
  5  6  1  6
  7  5  1  0
  7  8  2  0
  9  7  1  0
 10  9  1  0
 10 11  1  6
 12 11  1  0
 13 12  1  0
 13 14  1  0
 14 15  1  0
 16 10  1  0
 17 16  2  0
 18 16  1  0
 19 18  1  0
 19 20  1  6
 21 20  1  0
 22 21  1  0
 23 22  2  0
 24 19  1  0
 24 25  1  0
 26 22  1  0
 27 24  2  0
M  END
$$$$
