MKE.pdb
     RDKit          3D

 27 26  0  0  1  0  0  0  0  0999 V2000
   16.6087  -16.3335  -14.7547 C   0  0  0  0  0  0  0  0  0  0  0  0
   17.9124  -15.1274  -14.8061 S   0  0  0  0  0  0  0  0  0  0  0  0
   17.9511  -14.0603  -16.2035 C   0  0  0  0  0  0  0  0  0  0  0  0
   19.0520  -13.0794  -16.2425 C   0  0  0  0  0  0  0  0  0  0  0  0
   19.1411  -12.1161  -17.3732 C   0  0  2  0  0  0  0  0  0  0  0  0
   18.9318  -12.6373  -18.6703 N   0  0  0  0  0  0  0  0  0  0  0  0
   20.3227  -11.2529  -17.1953 C   0  0  0  0  0  0  0  0  0  0  0  0
   20.5210  -10.6793  -16.0905 O   0  0  0  0  0  0  0  0  0  0  0  0
   21.3153  -10.9860  -18.2123 N   0  0  0  0  0  0  0  0  0  0  0  0
   22.3904  -10.0825  -17.9665 C   0  0  1  0  0  0  0  0  0  0  0  0
   23.6562  -10.1694  -18.7187 C   0  0  0  0  0  0  0  0  0  0  0  0
   24.7793   -9.2616  -18.4907 C   0  0  0  0  0  0  0  0  0  0  0  0
   25.9190   -9.4266  -19.4370 C   0  0  0  0  0  0  0  0  0  0  0  0
   26.7766  -10.5706  -18.8817 C   0  0  0  0  0  0  0  0  0  0  0  0
   27.9552  -10.7363  -19.7008 N   0  0  0  0  0  0  0  0  0  0  0  0
   21.7971   -8.6914  -18.0379 C   0  0  0  0  0  0  0  0  0  0  0  0
   21.1757   -8.2952  -19.0548 O   0  0  0  0  0  0  0  0  0  0  0  0
   21.9237   -7.7885  -16.9527 N   0  0  0  0  0  0  0  0  0  0  0  0
   21.4294   -6.3885  -17.0477 C   0  0  1  0  0  0  0  0  0  0  0  0
   20.1373   -6.2695  -16.3069 C   0  0  0  0  0  0  0  0  0  0  0  0
   19.6288   -4.8672  -16.2428 C   0  0  0  0  0  0  0  0  0  0  0  0
   18.3700   -4.7568  -15.4853 C   0  0  0  0  0  0  0  0  0  0  0  0
   18.3527   -5.1309  -14.2699 O   0  0  0  0  0  0  0  0  0  0  0  0
   22.5112   -5.5315  -16.5505 C   0  0  0  0  0  0  0  0  0  0  0  0
   22.5347   -4.1389  -16.7465 O   0  0  0  0  0  0  0  0  0  0  0  0
   17.2116   -4.2643  -16.0481 O   0  0  0  0  0  0  0  0  0  0  0  0
   23.4898   -5.9893  -15.9148 O   0  0  0  0  0  0  0  0  0  0  0  0
  1  2  1  0
  3  4  1  0
  3  2  1  0
  4  5  1  0
  5  6  1  6
  7  5  1  0
  7  8  2  0
  9  7  1  0
 10  9  1  0
 10 11  1  6
 12 11  1  0
 13 12  1  0
 13 14  1  0
 14 15  1  0
 16 10  1  0
 17 16  2  0
 18 16  1  0
 19 18  1  0
 19 20  1  1
 21 20  1  0
 22 21  1  0
 23 22  2  0
 24 19  1  0
 24 25  1  0
 26 22  1  0
 27 24  2  0
M  END
$$$$
