MKE.pdb
     RDKit          3D

 27 26  0  0  1  0  0  0  0  0999 V2000
   28.6112  -22.1608   -4.2673 C   0  0  0  0  0  0  0  0  0  0  0  0
   28.4157  -20.4150   -4.0011 S   0  0  0  0  0  0  0  0  0  0  0  0
   28.4166  -19.3897   -5.4299 C   0  0  0  0  0  0  0  0  0  0  0  0
   27.5779  -19.8422   -6.5558 C   0  0  0  0  0  0  0  0  0  0  0  0
   27.5982  -19.0893   -7.8392 C   0  0  2  0  0  0  0  0  0  0  0  0
   27.4812  -17.6833   -7.7532 N   0  0  0  0  0  0  0  0  0  0  0  0
   26.7278  -19.7617   -8.8206 C   0  0  0  0  0  0  0  0  0  0  0  0
   25.5391  -19.3725   -8.9765 O   0  0  0  0  0  0  0  0  0  0  0  0
   27.1229  -20.8762   -9.6529 N   0  0  0  0  0  0  0  0  0  0  0  0
   26.7386  -20.9378  -11.0244 C   0  0  1  0  0  0  0  0  0  0  0  0
   27.4477  -21.8046  -11.9844 C   0  0  0  0  0  0  0  0  0  0  0  0
   27.0649  -21.9107  -13.3913 C   0  0  0  0  0  0  0  0  0  0  0  0
   27.4081  -20.7231  -14.2242 C   0  0  0  0  0  0  0  0  0  0  0  0
   26.9634  -21.0575  -15.6535 C   0  0  0  0  0  0  0  0  0  0  0  0
   27.2168  -19.9280  -16.5181 N   0  0  0  0  0  0  0  0  0  0  0  0
   25.2481  -21.2034  -11.0333 C   0  0  0  0  0  0  0  0  0  0  0  0
   24.7307  -22.0622  -10.2771 O   0  0  0  0  0  0  0  0  0  0  0  0
   24.3851  -20.4859  -11.8991 N   0  0  0  0  0  0  0  0  0  0  0  0
   22.9279  -20.7797  -11.9587 C   0  0  1  0  0  0  0  0  0  0  0  0
   22.1807  -19.5174  -12.2429 C   0  0  0  0  0  0  0  0  0  0  0  0
   20.7215  -19.7411  -12.4661 C   0  0  0  0  0  0  0  0  0  0  0  0
   20.0032  -18.4976  -12.7956 C   0  0  0  0  0  0  0  0  0  0  0  0
   18.8814  -18.2736  -12.2400 O   0  0  0  0  0  0  0  0  0  0  0  0
   22.7586  -21.8397  -12.9586 C   0  0  0  0  0  0  0  0  0  0  0  0
   21.6826  -22.7454  -12.9379 O   0  0  0  0  0  0  0  0  0  0  0  0
   20.5036  -17.5709  -13.6856 O   0  0  0  0  0  0  0  0  0  0  0  0
   23.5678  -22.0065  -13.9014 O   0  0  0  0  0  0  0  0  0  0  0  0
  1  2  1  0
  3  4  1  0
  3  2  1  0
  4  5  1  0
  5  6  1  1
  7  5  1  0
  7  8  2  0
  9  7  1  0
 10  9  1  0
 10 11  1  6
 12 11  1  0
 13 12  1  0
 13 14  1  0
 14 15  1  0
 16 10  1  0
 17 16  2  0
 18 16  1  0
 19 18  1  0
 19 20  1  6
 21 20  1  0
 22 21  1  0
 23 22  2  0
 24 19  1  0
 24 25  1  0
 26 22  1  0
 27 24  2  0
M  END
$$$$
