MKE.pdb
     RDKit          3D

 27 26  0  0  1  0  0  0  0  0999 V2000
   15.9967  -15.0907  -15.6231 C   0  0  0  0  0  0  0  0  0  0  0  0
   17.0846  -13.6884  -15.7076 S   0  0  0  0  0  0  0  0  0  0  0  0
   18.7450  -14.0009  -16.1955 C   0  0  0  0  0  0  0  0  0  0  0  0
   19.5984  -12.8146  -16.3956 C   0  0  0  0  0  0  0  0  0  0  0  0
   21.0051  -12.9866  -16.8494 C   0  0  2  0  0  0  0  0  0  0  0  0
   21.7546  -14.0082  -16.2229 N   0  0  0  0  0  0  0  0  0  0  0  0
   21.6547  -11.6677  -16.9569 C   0  0  0  0  0  0  0  0  0  0  0  0
   22.2966  -11.2019  -15.9772 O   0  0  0  0  0  0  0  0  0  0  0  0
   21.6194  -10.8190  -18.1271 N   0  0  0  0  0  0  0  0  0  0  0  0
   22.3638   -9.6040  -18.1727 C   0  0  1  0  0  0  0  0  0  0  0  0
   23.2110   -9.2632  -19.3311 C   0  0  0  0  0  0  0  0  0  0  0  0
   24.2167  -10.1746  -19.8747 C   0  0  0  0  0  0  0  0  0  0  0  0
   24.8883   -9.6961  -21.1164 C   0  0  0  0  0  0  0  0  0  0  0  0
   25.8853  -10.7914  -21.5151 C   0  0  0  0  0  0  0  0  0  0  0  0
   26.6504  -10.3582  -22.6616 N   0  0  0  0  0  0  0  0  0  0  0  0
   21.3817   -8.4954  -17.8586 C   0  0  0  0  0  0  0  0  0  0  0  0
   20.2893   -8.3948  -18.4699 O   0  0  0  0  0  0  0  0  0  0  0  0
   21.6653   -7.5322  -16.8581 N   0  0  0  0  0  0  0  0  0  0  0  0
   20.6775   -6.4818  -16.4915 C   0  0  1  0  0  0  0  0  0  0  0  0
   19.3985   -7.1311  -16.0730 C   0  0  0  0  0  0  0  0  0  0  0  0
   18.4147   -6.1655  -15.4996 C   0  0  0  0  0  0  0  0  0  0  0  0
   17.1534   -6.8140  -15.1004 C   0  0  0  0  0  0  0  0  0  0  0  0
   16.9581   -7.0662  -13.8693 O   0  0  0  0  0  0  0  0  0  0  0  0
   21.3166   -5.6509  -15.4654 C   0  0  0  0  0  0  0  0  0  0  0  0
   20.7977   -4.4098  -15.0543 O   0  0  0  0  0  0  0  0  0  0  0  0
   16.1799   -7.1579  -16.0143 O   0  0  0  0  0  0  0  0  0  0  0  0
   22.3729   -5.9967  -14.8858 O   0  0  0  0  0  0  0  0  0  0  0  0
  1  2  1  0
  3  4  1  0
  3  2  1  0
  4  5  1  0
  5  6  1  1
  7  5  1  0
  7  8  2  0
  9  7  1  0
 10  9  1  0
 10 11  1  6
 12 11  1  0
 13 12  1  0
 13 14  1  0
 14 15  1  0
 16 10  1  0
 17 16  2  0
 18 16  1  0
 19 18  1  0
 19 20  1  1
 21 20  1  0
 22 21  1  0
 23 22  2  0
 24 19  1  0
 24 25  1  0
 26 22  1  0
 27 24  2  0
M  END
$$$$
