MKE.pdb
     RDKit          3D

 27 26  0  0  1  0  0  0  0  0999 V2000
   26.6696  -18.6772   -6.9999 C   0  0  0  0  0  0  0  0  0  0  0  0
   27.8751  -19.7499   -7.7436 S   0  0  0  0  0  0  0  0  0  0  0  0
   27.2844  -20.9034   -8.9323 C   0  0  0  0  0  0  0  0  0  0  0  0
   26.1958  -20.4335   -9.8098 C   0  0  0  0  0  0  0  0  0  0  0  0
   25.6790  -21.3237  -10.8844 C   0  0  2  0  0  0  0  0  0  0  0  0
   26.5752  -22.2903  -11.3948 N   0  0  0  0  0  0  0  0  0  0  0  0
   24.9417  -20.5224  -11.8781 C   0  0  0  0  0  0  0  0  0  0  0  0
   24.0823  -19.6833  -11.4957 O   0  0  0  0  0  0  0  0  0  0  0  0
   25.1141  -20.6152  -13.3108 N   0  0  0  0  0  0  0  0  0  0  0  0
   24.3227  -19.8259  -14.1957 C   0  0  1  0  0  0  0  0  0  0  0  0
   24.9248  -19.1112  -15.3369 C   0  0  0  0  0  0  0  0  0  0  0  0
   24.2027  -18.1056  -16.1145 C   0  0  0  0  0  0  0  0  0  0  0  0
   23.0668  -18.6356  -16.9211 C   0  0  0  0  0  0  0  0  0  0  0  0
   22.6249  -17.4929  -17.8439 C   0  0  0  0  0  0  0  0  0  0  0  0
   21.5483  -17.9443  -18.6951 N   0  0  0  0  0  0  0  0  0  0  0  0
   23.1754  -20.7095  -14.6374 C   0  0  0  0  0  0  0  0  0  0  0  0
   23.3723  -21.8713  -15.0716 O   0  0  0  0  0  0  0  0  0  0  0  0
   21.8356  -20.2510  -14.5729 N   0  0  0  0  0  0  0  0  0  0  0  0
   20.6989  -21.1195  -14.9815 C   0  0  1  0  0  0  0  0  0  0  0  0
   20.2111  -21.8855  -13.7949 C   0  0  0  0  0  0  0  0  0  0  0  0
   19.2886  -21.0935  -12.9285 C   0  0  0  0  0  0  0  0  0  0  0  0
   18.6725  -21.9078  -11.8664 C   0  0  0  0  0  0  0  0  0  0  0  0
   18.9396  -23.1502  -11.8155 O   0  0  0  0  0  0  0  0  0  0  0  0
   19.7048  -20.2375  -15.6024 C   0  0  0  0  0  0  0  0  0  0  0  0
   18.7454  -20.6956  -16.5233 O   0  0  0  0  0  0  0  0  0  0  0  0
   17.8164  -21.3707  -10.9285 O   0  0  0  0  0  0  0  0  0  0  0  0
   19.6468  -19.0110  -15.3496 O   0  0  0  0  0  0  0  0  0  0  0  0
  1  2  1  0
  3  4  1  0
  3  2  1  0
  4  5  1  0
  5  6  1  6
  7  5  1  0
  7  8  2  0
  9  7  1  0
 10  9  1  0
 10 11  1  6
 12 11  1  0
 13 12  1  0
 13 14  1  0
 14 15  1  0
 16 10  1  0
 17 16  2  0
 18 16  1  0
 19 18  1  0
 19 20  1  1
 21 20  1  0
 22 21  1  0
 23 22  2  0
 24 19  1  0
 24 25  1  0
 26 22  1  0
 27 24  2  0
M  END
$$$$
