MKE.pdb
     RDKit          3D

 27 26  0  0  1  0  0  0  0  0999 V2000
   26.8039  -20.9261   -3.4761 C   0  0  0  0  0  0  0  0  0  0  0  0
   26.0178  -21.0061   -5.0675 S   0  0  0  0  0  0  0  0  0  0  0  0
   26.9206  -20.3601   -6.4315 C   0  0  0  0  0  0  0  0  0  0  0  0
   26.2512  -20.4256   -7.7443 C   0  0  0  0  0  0  0  0  0  0  0  0
   26.9506  -19.9153   -8.9546 C   0  0  2  0  0  0  0  0  0  0  0  0
   27.5990  -18.6650   -8.8341 N   0  0  0  0  0  0  0  0  0  0  0  0
   26.0890  -20.0968  -10.1368 C   0  0  0  0  0  0  0  0  0  0  0  0
   25.2606  -19.2012  -10.4538 O   0  0  0  0  0  0  0  0  0  0  0  0
   26.1005  -21.2560  -11.0010 N   0  0  0  0  0  0  0  0  0  0  0  0
   25.7866  -21.1389  -12.3867 C   0  0  1  0  0  0  0  0  0  0  0  0
   26.7289  -21.5856  -13.4299 C   0  0  0  0  0  0  0  0  0  0  0  0
   26.4160  -21.5348  -14.8571 C   0  0  0  0  0  0  0  0  0  0  0  0
   27.5021  -22.0235  -15.7534 C   0  0  0  0  0  0  0  0  0  0  0  0
   27.0209  -21.7730  -17.1880 C   0  0  0  0  0  0  0  0  0  0  0  0
   28.0763  -22.1005  -18.1188 N   0  0  0  0  0  0  0  0  0  0  0  0
   24.4220  -21.7700  -12.5650 C   0  0  0  0  0  0  0  0  0  0  0  0
   24.1258  -22.8582  -12.0125 O   0  0  0  0  0  0  0  0  0  0  0  0
   23.4301  -21.1481  -13.3641 N   0  0  0  0  0  0  0  0  0  0  0  0
   22.0381  -21.6704  -13.4173 C   0  0  1  0  0  0  0  0  0  0  0  0
   21.0805  -20.5236  -13.4346 C   0  0  0  0  0  0  0  0  0  0  0  0
   19.6534  -20.9565  -13.5053 C   0  0  0  0  0  0  0  0  0  0  0  0
   18.7252  -19.8216  -13.6510 C   0  0  0  0  0  0  0  0  0  0  0  0
   19.0298  -18.8812  -14.4510 O   0  0  0  0  0  0  0  0  0  0  0  0
   21.9704  -22.5533  -14.5868 C   0  0  0  0  0  0  0  0  0  0  0  0
   21.0840  -23.6421  -14.6725 O   0  0  0  0  0  0  0  0  0  0  0  0
   17.5407  -19.7433  -12.9496 O   0  0  0  0  0  0  0  0  0  0  0  0
   22.7032  -22.3921  -15.5910 O   0  0  0  0  0  0  0  0  0  0  0  0
  1  2  1  0
  3  4  1  0
  3  2  1  0
  4  5  1  0
  5  6  1  1
  7  5  1  0
  7  8  2  0
  9  7  1  0
 10  9  1  0
 10 11  1  6
 12 11  1  0
 13 12  1  0
 13 14  1  0
 14 15  1  0
 16 10  1  0
 17 16  2  0
 18 16  1  0
 19 18  1  0
 19 20  1  6
 21 20  1  0
 22 21  1  0
 23 22  2  0
 24 19  1  0
 24 25  1  0
 26 22  1  0
 27 24  2  0
M  END
$$$$
