MKE.pdb
     RDKit          3D

 27 26  0  0  1  0  0  0  0  0999 V2000
   23.0677  -18.4617   -2.2066 C   0  0  0  0  0  0  0  0  0  0  0  0
   22.2531  -18.1621   -0.6563 S   0  0  0  0  0  0  0  0  0  0  0  0
   20.5947  -18.7284   -0.5091 C   0  0  0  0  0  0  0  0  0  0  0  0
   19.9420  -18.4985    0.7935 C   0  0  0  0  0  0  0  0  0  0  0  0
   18.5104  -18.8616    0.9749 C   0  0  2  0  0  0  0  0  0  0  0  0
   17.6262  -18.5008   -0.0672 N   0  0  0  0  0  0  0  0  0  0  0  0
   18.0840  -18.5223    2.3446 C   0  0  0  0  0  0  0  0  0  0  0  0
   17.5497  -17.4046    2.5774 O   0  0  0  0  0  0  0  0  0  0  0  0
   18.2316  -19.3839    3.4964 N   0  0  0  0  0  0  0  0  0  0  0  0
   17.6959  -19.0100    4.7635 C   0  0  1  0  0  0  0  0  0  0  0  0
   16.5788  -19.7531    5.3766 C   0  0  0  0  0  0  0  0  0  0  0  0
   15.9191  -19.3216    6.6078 C   0  0  0  0  0  0  0  0  0  0  0  0
   14.7797  -20.1797    7.0407 C   0  0  0  0  0  0  0  0  0  0  0  0
   14.1523  -19.4814    8.2536 C   0  0  0  0  0  0  0  0  0  0  0  0
   13.1006  -20.3078    8.7999 N   0  0  0  0  0  0  0  0  0  0  0  0
   18.8760  -18.9052    5.7062 C   0  0  0  0  0  0  0  0  0  0  0  0
   19.9356  -19.5483    5.5040 O   0  0  0  0  0  0  0  0  0  0  0  0
   18.8220  -18.0722    6.8518 N   0  0  0  0  0  0  0  0  0  0  0  0
   19.9865  -17.9380    7.7678 C   0  0  1  0  0  0  0  0  0  0  0  0
   19.9956  -16.5651    8.3574 C   0  0  0  0  0  0  0  0  0  0  0  0
   21.1178  -16.3505    9.3184 C   0  0  0  0  0  0  0  0  0  0  0  0
   21.0844  -15.0136    9.9366 C   0  0  0  0  0  0  0  0  0  0  0  0
   20.1183  -14.2348    9.6581 O   0  0  0  0  0  0  0  0  0  0  0  0
   19.8777  -19.0306    8.7406 C   0  0  0  0  0  0  0  0  0  0  0  0
   20.9712  -19.8315    9.1162 O   0  0  0  0  0  0  0  0  0  0  0  0
   22.0637  -14.5778   10.8039 O   0  0  0  0  0  0  0  0  0  0  0  0
   18.7956  -19.3216    9.3027 O   0  0  0  0  0  0  0  0  0  0  0  0
  1  2  1  0
  3  4  1  0
  3  2  1  0
  4  5  1  0
  5  6  1  6
  7  5  1  0
  7  8  2  0
  9  7  1  0
 10  9  1  0
 10 11  1  1
 12 11  1  0
 13 12  1  0
 13 14  1  0
 14 15  1  0
 16 10  1  0
 17 16  2  0
 18 16  1  0
 19 18  1  0
 19 20  1  1
 21 20  1  0
 22 21  1  0
 23 22  2  0
 24 19  1  0
 24 25  1  0
 26 22  1  0
 27 24  2  0
M  END
$$$$
