MKE.pdb
     RDKit          3D

 27 26  0  0  1  0  0  0  0  0999 V2000
   12.2384  -12.0493  -16.9688 C   0  0  0  0  0  0  0  0  0  0  0  0
   13.9215  -11.5937  -17.3098 S   0  0  0  0  0  0  0  0  0  0  0  0
   14.9750  -11.3535  -15.9223 C   0  0  0  0  0  0  0  0  0  0  0  0
   16.3853  -11.0424  -16.2224 C   0  0  0  0  0  0  0  0  0  0  0  0
   17.3932  -12.1370  -16.2435 C   0  0  2  0  0  0  0  0  0  0  0  0
   17.1749  -13.2191  -15.3606 N   0  0  0  0  0  0  0  0  0  0  0  0
   18.7496  -11.5599  -16.2519 C   0  0  0  0  0  0  0  0  0  0  0  0
   19.2289  -11.0667  -15.1956 O   0  0  0  0  0  0  0  0  0  0  0  0
   19.6172  -11.4981  -17.4070 N   0  0  0  0  0  0  0  0  0  0  0  0
   20.9809  -11.1030  -17.2776 C   0  0  1  0  0  0  0  0  0  0  0  0
   22.0187  -11.6062  -18.1971 C   0  0  0  0  0  0  0  0  0  0  0  0
   22.3215  -13.0282  -18.3509 C   0  0  0  0  0  0  0  0  0  0  0  0
   23.3378  -13.3420  -19.3952 C   0  0  0  0  0  0  0  0  0  0  0  0
   23.5441  -14.8612  -19.3516 C   0  0  0  0  0  0  0  0  0  0  0  0
   24.4975  -15.2515  -20.3646 N   0  0  0  0  0  0  0  0  0  0  0  0
   20.9781   -9.5902  -17.2190 C   0  0  0  0  0  0  0  0  0  0  0  0
   20.2254   -8.9070  -17.9565 O   0  0  0  0  0  0  0  0  0  0  0  0
   21.8283   -8.8938  -16.3238 N   0  0  0  0  0  0  0  0  0  0  0  0
   21.8287   -7.4078  -16.2531 C   0  0  1  0  0  0  0  0  0  0  0  0
   21.9157   -6.9813  -14.8237 C   0  0  0  0  0  0  0  0  0  0  0  0
   21.9531   -5.4979  -14.6590 C   0  0  0  0  0  0  0  0  0  0  0  0
   22.1501   -5.0898  -13.2571 C   0  0  0  0  0  0  0  0  0  0  0  0
   21.1359   -4.7427  -12.5728 O   0  0  0  0  0  0  0  0  0  0  0  0
   22.9323   -6.9519  -17.1052 C   0  0  0  0  0  0  0  0  0  0  0  0
   22.9142   -5.7213  -17.7863 O   0  0  0  0  0  0  0  0  0  0  0  0
   23.3942   -5.0697  -12.6630 O   0  0  0  0  0  0  0  0  0  0  0  0
   23.9686   -7.6348  -17.2813 O   0  0  0  0  0  0  0  0  0  0  0  0
  1  2  1  0
  3  4  1  0
  3  2  1  0
  4  5  1  0
  5  6  1  1
  7  5  1  0
  7  8  2  0
  9  7  1  0
 10  9  1  0
 10 11  1  6
 12 11  1  0
 13 12  1  0
 13 14  1  0
 14 15  1  0
 16 10  1  0
 17 16  2  0
 18 16  1  0
 19 18  1  0
 19 20  1  1
 21 20  1  0
 22 21  1  0
 23 22  2  0
 24 19  1  0
 24 25  1  0
 26 22  1  0
 27 24  2  0
M  END
$$$$
