AQH.pdb
     RDKit          3D

 25 25  0  0  1  0  0  0  0  0999 V2000
   21.1799  -13.2550  -19.8768 C   0  0  0  0  0  0  0  0  0  0  0  0
   19.8555  -12.7048  -20.3023 C   0  0  2  0  0  0  0  0  0  0  0  0
   19.5944  -12.9661  -21.6930 N   0  0  0  0  0  0  0  0  0  0  0  0
   19.7584  -11.2304  -20.0430 C   0  0  0  0  0  0  0  0  0  0  0  0
   20.8077  -10.5499  -20.1704 O   0  0  0  0  0  0  0  0  0  0  0  0
   15.7309  -10.5863  -21.5055 N   0  0  0  0  0  0  0  0  0  0  0  0
   16.1921   -9.4404  -22.1944 C   0  0  0  0  0  0  0  0  0  0  0  0
   15.9392   -9.2948  -23.4033 O   0  0  0  0  0  0  0  0  0  0  0  0
   16.9734   -8.4335  -21.4485 C   0  0  0  0  0  0  0  0  0  0  0  0
   17.1012   -8.7484  -20.0101 C   0  0  0  0  0  0  0  0  0  0  0  0
   18.4646   -9.1403  -19.5066 C   0  0  2  0  0  0  0  0  0  0  0  0
   18.5504  -10.6061  -19.6698 N   0  0  0  0  0  0  0  0  0  0  0  0
   18.5647   -8.8689  -18.0680 C   0  0  0  0  0  0  0  0  0  0  0  0
   18.0463   -9.7635  -17.2977 O   0  0  0  0  0  0  0  0  0  0  0  0
   19.1666   -7.7465  -17.4587 N   0  0  0  0  0  0  0  0  0  0  0  0
   19.3686   -7.7693  -16.0289 C   0  0  1  0  0  0  0  0  0  0  0  0
   20.1951   -8.9674  -15.6138 C   0  0  0  0  0  0  0  0  0  0  0  0
   20.4462   -8.9012  -14.1659 C   0  0  0  0  0  0  0  0  0  0  0  0
   19.5873   -9.0599  -13.0980 C   0  0  0  0  0  0  0  0  0  0  0  0
   20.2982   -8.8772  -11.9548 N   0  0  0  0  0  0  0  0  0  0  0  0
   21.5528   -8.6136  -12.2730 C   0  0  0  0  0  0  0  0  0  0  0  0
   21.6587   -8.6245  -13.6089 N   0  0  0  0  0  0  0  0  0  0  0  0
   19.9557   -6.4866  -15.6255 C   0  0  0  0  0  0  0  0  0  0  0  0
   20.2932   -5.6326  -16.4999 O   0  0  0  0  0  0  0  0  0  0  0  0
   20.1512   -6.1793  -14.2961 O   0  0  0  0  0  0  0  0  0  0  0  0
  2  1  1  6
  2  4  1  0
  3  2  1  0
  4  5  2  0
  7  6  1  0
  7  9  1  0
  8  7  2  0
 10  9  1  0
 11 10  1  1
 11 13  1  0
 12 11  1  0
 12  4  1  0
 13 14  2  0
 15 16  1  0
 15 13  1  0
 16 23  1  0
 16 17  1  6
 18 17  1  0
 18 19  2  0
 20 19  1  0
 21 20  1  0
 22 21  2  0
 22 18  1  0
 23 24  2  0
 23 25  1  0
M  END
$$$$
