AQH.pdb
     RDKit          3D

 25 25  0  0  1  0  0  0  0  0999 V2000
   22.1731  -14.5559  -18.4916 C   0  0  0  0  0  0  0  0  0  0  0  0
   20.8043  -14.8455  -17.9622 C   0  0  2  0  0  0  0  0  0  0  0  0
   20.1566  -15.8908  -18.7093 N   0  0  0  0  0  0  0  0  0  0  0  0
   19.9391  -13.6200  -17.9623 C   0  0  0  0  0  0  0  0  0  0  0  0
   19.8074  -13.0045  -19.0504 O   0  0  0  0  0  0  0  0  0  0  0  0
   14.9264  -13.3468  -14.7254 N   0  0  0  0  0  0  0  0  0  0  0  0
   14.8735  -12.0133  -15.1937 C   0  0  0  0  0  0  0  0  0  0  0  0
   13.8556  -11.3247  -15.0032 O   0  0  0  0  0  0  0  0  0  0  0  0
   16.0454  -11.4671  -15.9070 C   0  0  0  0  0  0  0  0  0  0  0  0
   17.1123  -12.4677  -16.1197 C   0  0  0  0  0  0  0  0  0  0  0  0
   18.3452  -12.0176  -16.8568 C   0  0  2  0  0  0  0  0  0  0  0  0
   19.2871  -13.1544  -16.8020 N   0  0  0  0  0  0  0  0  0  0  0  0
   18.9811  -10.9071  -16.1387 C   0  0  0  0  0  0  0  0  0  0  0  0
   19.5158  -11.2132  -15.0062 O   0  0  0  0  0  0  0  0  0  0  0  0
   19.0659   -9.5633  -16.5633 N   0  0  0  0  0  0  0  0  0  0  0  0
   19.6534   -8.5969  -15.6651 C   0  0  1  0  0  0  0  0  0  0  0  0
   20.4714   -7.5740  -16.4238 C   0  0  0  0  0  0  0  0  0  0  0  0
   20.9838   -6.5700  -15.4787 C   0  0  0  0  0  0  0  0  0  0  0  0
   21.9809   -6.6578  -14.5294 C   0  0  0  0  0  0  0  0  0  0  0  0
   22.0597   -5.4622  -13.8891 N   0  0  0  0  0  0  0  0  0  0  0  0
   21.1567   -4.6460  -14.4024 C   0  0  0  0  0  0  0  0  0  0  0  0
   20.4968   -5.3023  -15.3666 N   0  0  0  0  0  0  0  0  0  0  0  0
   18.5803   -8.0048  -14.8585 C   0  0  0  0  0  0  0  0  0  0  0  0
   17.4077   -7.8994  -15.3295 O   0  0  0  0  0  0  0  0  0  0  0  0
   18.8177   -7.5542  -13.5778 O   0  0  0  0  0  0  0  0  0  0  0  0
  2  1  1  6
  2  4  1  0
  3  2  1  0
  4  5  2  0
  7  6  1  0
  7  9  1  0
  8  7  2  0
 10  9  1  0
 11 10  1  1
 11 13  1  0
 12 11  1  0
 12  4  1  0
 13 14  2  0
 15 16  1  0
 15 13  1  0
 16 23  1  0
 16 17  1  6
 18 17  1  0
 18 19  2  0
 20 19  1  0
 21 20  1  0
 22 21  2  0
 22 18  1  0
 23 24  2  0
 23 25  1  0
M  END
$$$$
