AQH.pdb
     RDKit          3D

 25 25  0  0  1  0  0  0  0  0999 V2000
   20.8047  -14.4849  -17.4409 C   0  0  0  0  0  0  0  0  0  0  0  0
   20.7405  -13.7911  -18.7647 C   0  0  2  0  0  0  0  0  0  0  0  0
   21.5484  -14.4565  -19.7521 N   0  0  0  0  0  0  0  0  0  0  0  0
   21.1608  -12.3549  -18.6589 C   0  0  0  0  0  0  0  0  0  0  0  0
   22.3925  -12.1075  -18.7032 O   0  0  0  0  0  0  0  0  0  0  0  0
   17.1261   -7.7781  -19.6470 N   0  0  0  0  0  0  0  0  0  0  0  0
   18.3060   -7.0007  -19.5853 C   0  0  0  0  0  0  0  0  0  0  0  0
   18.2661   -5.7841  -19.8400 O   0  0  0  0  0  0  0  0  0  0  0  0
   19.5720   -7.6647  -19.2152 C   0  0  0  0  0  0  0  0  0  0  0  0
   19.4177   -9.1155  -18.9786 C   0  0  0  0  0  0  0  0  0  0  0  0
   20.6538   -9.8911  -18.6092 C   0  0  2  0  0  0  0  0  0  0  0  0
   20.2321  -11.3038  -18.5149 N   0  0  0  0  0  0  0  0  0  0  0  0
   21.1120   -9.4968  -17.2721 C   0  0  0  0  0  0  0  0  0  0  0  0
   20.5314  -10.0947  -16.2884 O   0  0  0  0  0  0  0  0  0  0  0  0
   22.1114   -8.5477  -16.9660 N   0  0  0  0  0  0  0  0  0  0  0  0
   22.4005   -8.2811  -15.5764 C   0  0  1  0  0  0  0  0  0  0  0  0
   23.8907   -8.1520  -15.3444 C   0  0  0  0  0  0  0  0  0  0  0  0
   24.5193   -9.4722  -15.5048 C   0  0  0  0  0  0  0  0  0  0  0  0
   23.9630  -10.7028  -15.7863 C   0  0  0  0  0  0  0  0  0  0  0  0
   24.9625  -11.6229  -15.8047 N   0  0  0  0  0  0  0  0  0  0  0  0
   26.1054  -11.0127  -15.5473 C   0  0  0  0  0  0  0  0  0  0  0  0
   25.8538   -9.7093  -15.3632 N   0  0  0  0  0  0  0  0  0  0  0  0
   21.6406   -7.0949  -15.1664 C   0  0  0  0  0  0  0  0  0  0  0  0
   20.9346   -6.4628  -16.0091 O   0  0  0  0  0  0  0  0  0  0  0  0
   21.6730   -6.6430  -13.8647 O   0  0  0  0  0  0  0  0  0  0  0  0
  2  1  1  1
  2  4  1  0
  3  2  1  0
  4  5  2  0
  7  6  1  0
  7  9  1  0
  8  7  2  0
 10  9  1  0
 11 10  1  1
 11 13  1  0
 12 11  1  0
 12  4  1  0
 13 14  2  0
 15 16  1  0
 15 13  1  0
 16 23  1  0
 16 17  1  6
 18 17  1  0
 18 19  2  0
 20 19  1  0
 21 20  1  0
 22 21  2  0
 22 18  1  0
 23 24  2  0
 23 25  1  0
M  END
$$$$
