AQH.pdb
     RDKit          3D

 25 25  0  0  1  0  0  0  0  0999 V2000
   16.6022  -13.2387  -13.7617 C   0  0  0  0  0  0  0  0  0  0  0  0
   15.4015  -12.6763  -13.0691 C   0  0  2  0  0  0  0  0  0  0  0  0
   14.1779  -13.1419  -13.6663 N   0  0  0  0  0  0  0  0  0  0  0  0
   15.4166  -11.1762  -13.0635 C   0  0  0  0  0  0  0  0  0  0  0  0
   15.2012  -10.5910  -14.1549 O   0  0  0  0  0  0  0  0  0  0  0  0
   14.9296   -7.6716   -7.9169 N   0  0  0  0  0  0  0  0  0  0  0  0
   13.7756   -8.0737   -8.6289 C   0  0  0  0  0  0  0  0  0  0  0  0
   12.6569   -8.0156   -8.0888 O   0  0  0  0  0  0  0  0  0  0  0  0
   13.9329   -8.5591  -10.0147 C   0  0  0  0  0  0  0  0  0  0  0  0
   15.3357   -8.5398  -10.4796 C   0  0  0  0  0  0  0  0  0  0  0  0
   15.5978   -8.9508  -11.9037 C   0  0  2  0  0  0  0  0  0  0  0  0
   15.6603  -10.4268  -11.8942 N   0  0  0  0  0  0  0  0  0  0  0  0
   16.9195   -8.4748  -12.3277 C   0  0  0  0  0  0  0  0  0  0  0  0
   17.9206   -9.1672  -11.9026 O   0  0  0  0  0  0  0  0  0  0  0  0
   17.1941   -7.3562  -13.1442 N   0  0  0  0  0  0  0  0  0  0  0  0
   18.5576   -7.1329  -13.5644 C   0  0  1  0  0  0  0  0  0  0  0  0
   19.0032   -8.1882  -14.5537 C   0  0  0  0  0  0  0  0  0  0  0  0
   20.3388   -7.8389  -15.0617 C   0  0  0  0  0  0  0  0  0  0  0  0
   21.5925   -8.1932  -14.6077 C   0  0  0  0  0  0  0  0  0  0  0  0
   22.5145   -7.5912  -15.4034 N   0  0  0  0  0  0  0  0  0  0  0  0
   21.8835   -6.8844  -16.3239 C   0  0  0  0  0  0  0  0  0  0  0  0
   20.5648   -7.0242  -16.1304 N   0  0  0  0  0  0  0  0  0  0  0  0
   18.6622   -5.7645  -14.0833 C   0  0  0  0  0  0  0  0  0  0  0  0
   17.6180   -5.0744  -14.2869 O   0  0  0  0  0  0  0  0  0  0  0  0
   19.8886   -5.1985  -14.3578 O   0  0  0  0  0  0  0  0  0  0  0  0
  2  1  1  6
  2  4  1  0
  3  2  1  0
  4  5  2  0
  7  6  1  0
  7  9  1  0
  8  7  2  0
 10  9  1  0
 11 10  1  1
 11 13  1  0
 12 11  1  0
 12  4  1  0
 13 14  2  0
 15 16  1  0
 15 13  1  0
 16 23  1  0
 16 17  1  6
 18 17  1  0
 18 19  2  0
 20 19  1  0
 21 20  1  0
 22 21  2  0
 22 18  1  0
 23 24  2  0
 23 25  1  0
M  END
$$$$
