AQH.pdb
     RDKit          3D

 25 25  0  0  1  0  0  0  0  0999 V2000
   23.6570  -32.3593   -7.6375 C   0  0  0  0  0  0  0  0  0  0  0  0
   24.8176  -32.9856   -8.3436 C   0  0  2  0  0  0  0  0  0  0  0  0
   24.4300  -33.5383   -9.6144 N   0  0  0  0  0  0  0  0  0  0  0  0
   25.4640  -34.0521   -7.5099 C   0  0  0  0  0  0  0  0  0  0  0  0
   25.1669  -35.2465   -7.7658 O   0  0  0  0  0  0  0  0  0  0  0  0
   29.1861  -33.3543   -2.8957 N   0  0  0  0  0  0  0  0  0  0  0  0
   29.6941  -34.6183   -3.2759 C   0  0  0  0  0  0  0  0  0  0  0  0
   30.4452  -35.2458   -2.5087 O   0  0  0  0  0  0  0  0  0  0  0  0
   29.3134  -35.1665   -4.5932 C   0  0  0  0  0  0  0  0  0  0  0  0
   28.4044  -34.2794   -5.3492 C   0  0  0  0  0  0  0  0  0  0  0  0
   27.0529  -34.8285   -5.7203 C   0  0  2  0  0  0  0  0  0  0  0  0
   26.3728  -33.7550   -6.4736 N   0  0  0  0  0  0  0  0  0  0  0  0
   26.2579  -35.0640   -4.5096 C   0  0  0  0  0  0  0  0  0  0  0  0
   25.6741  -34.0244   -4.0189 O   0  0  0  0  0  0  0  0  0  0  0  0
   26.0709  -36.2964   -3.8467 N   0  0  0  0  0  0  0  0  0  0  0  0
   25.2113  -36.3268   -2.6866 C   0  0  1  0  0  0  0  0  0  0  0  0
   24.5549  -37.6816   -2.5294 C   0  0  0  0  0  0  0  0  0  0  0  0
   23.3035  -37.7032   -3.3022 C   0  0  0  0  0  0  0  0  0  0  0  0
   22.7141  -36.7306   -4.0831 C   0  0  0  0  0  0  0  0  0  0  0  0
   21.5462  -37.2287   -4.5664 N   0  0  0  0  0  0  0  0  0  0  0  0
   21.3928  -38.4615   -4.1176 C   0  0  0  0  0  0  0  0  0  0  0  0
   22.4491  -38.7638   -3.3502 N   0  0  0  0  0  0  0  0  0  0  0  0
   25.9994  -35.9204   -1.5177 C   0  0  0  0  0  0  0  0  0  0  0  0
   27.2538  -36.1044   -1.4946 O   0  0  0  0  0  0  0  0  0  0  0  0
   25.4009  -35.3309   -0.4250 O   0  0  0  0  0  0  0  0  0  0  0  0
  2  1  1  1
  2  4  1  0
  3  2  1  0
  4  5  2  0
  7  6  1  0
  7  9  1  0
  8  7  2  0
 10  9  1  0
 11 10  1  1
 11 13  1  0
 12 11  1  0
 12  4  1  0
 13 14  2  0
 15 16  1  0
 15 13  1  0
 16 23  1  0
 16 17  1  1
 18 17  1  0
 18 19  2  0
 20 19  1  0
 21 20  1  0
 22 21  2  0
 22 18  1  0
 23 24  2  0
 23 25  1  0
M  END
$$$$
