AQH.pdb
     RDKit          3D

 25 25  0  0  1  0  0  0  0  0999 V2000
   15.6744  -25.3943   -2.4386 C   0  0  0  0  0  0  0  0  0  0  0  0
   14.8821  -24.1254   -2.4421 C   0  0  2  0  0  0  0  0  0  0  0  0
   14.9210  -23.4792   -3.7272 N   0  0  0  0  0  0  0  0  0  0  0  0
   15.3586  -23.1712   -1.3872 C   0  0  0  0  0  0  0  0  0  0  0  0
   16.3007  -22.3962   -1.6906 O   0  0  0  0  0  0  0  0  0  0  0  0
   11.7538  -19.5739    1.1512 N   0  0  0  0  0  0  0  0  0  0  0  0
   12.8962  -19.1295    1.8568 C   0  0  0  0  0  0  0  0  0  0  0  0
   12.8721  -18.0444    2.4640 O   0  0  0  0  0  0  0  0  0  0  0  0
   14.1046  -19.9783    1.8527 C   0  0  0  0  0  0  0  0  0  0  0  0
   13.9718  -21.1711    0.9902 C   0  0  0  0  0  0  0  0  0  0  0  0
   15.1705  -22.0735    0.8689 C   0  0  2  0  0  0  0  0  0  0  0  0
   14.7902  -23.1240   -0.0977 N   0  0  0  0  0  0  0  0  0  0  0  0
   15.4222  -22.7473    2.1479 C   0  0  0  0  0  0  0  0  0  0  0  0
   15.5777  -24.0254    2.0800 O   0  0  0  0  0  0  0  0  0  0  0  0
   15.5134  -22.1413    3.4198 N   0  0  0  0  0  0  0  0  0  0  0  0
   16.6120  -22.5148    4.2795 C   0  0  1  0  0  0  0  0  0  0  0  0
   17.9431  -22.2545    3.6077 C   0  0  0  0  0  0  0  0  0  0  0  0
   18.5572  -23.5400    3.2411 C   0  0  0  0  0  0  0  0  0  0  0  0
   18.1077  -24.8322    3.4183 C   0  0  0  0  0  0  0  0  0  0  0  0
   19.0532  -25.6777    2.9316 N   0  0  0  0  0  0  0  0  0  0  0  0
   20.0612  -24.9631    2.4645 C   0  0  0  0  0  0  0  0  0  0  0  0
   19.7759  -23.6661    2.6447 N   0  0  0  0  0  0  0  0  0  0  0  0
   16.4562  -21.8130    5.5585 C   0  0  0  0  0  0  0  0  0  0  0  0
   17.0994  -22.1954    6.5823 O   0  0  0  0  0  0  0  0  0  0  0  0
   15.6151  -20.7276    5.6776 O   0  0  0  0  0  0  0  0  0  0  0  0
  2  1  1  6
  2  4  1  0
  3  2  1  0
  4  5  2  0
  7  6  1  0
  7  9  1  0
  8  7  2  0
 10  9  1  0
 11 10  1  1
 11 13  1  0
 12 11  1  0
 12  4  1  0
 13 14  2  0
 15 16  1  0
 15 13  1  0
 16 23  1  0
 16 17  1  6
 18 17  1  0
 18 19  2  0
 20 19  1  0
 21 20  1  0
 22 21  2  0
 22 18  1  0
 23 24  2  0
 23 25  1  0
M  END
$$$$
