AQH.pdb
     RDKit          3D

 25 25  0  0  1  0  0  0  0  0999 V2000
   16.1764   -9.3328  -16.5547 C   0  0  0  0  0  0  0  0  0  0  0  0
   17.2640  -10.2306  -17.0537 C   0  0  2  0  0  0  0  0  0  0  0  0
   16.9577  -11.6167  -16.8179 N   0  0  0  0  0  0  0  0  0  0  0  0
   18.5874   -9.8974  -16.4309 C   0  0  0  0  0  0  0  0  0  0  0  0
   18.7994  -10.3139  -15.2639 O   0  0  0  0  0  0  0  0  0  0  0  0
   23.5766   -9.7857  -19.5596 N   0  0  0  0  0  0  0  0  0  0  0  0
   23.6601  -10.5986  -18.4052 C   0  0  0  0  0  0  0  0  0  0  0  0
   24.4499  -11.5587  -18.3735 O   0  0  0  0  0  0  0  0  0  0  0  0
   22.7941  -10.2806  -17.2521 C   0  0  0  0  0  0  0  0  0  0  0  0
   21.9227   -9.1102  -17.4874 C   0  0  0  0  0  0  0  0  0  0  0  0
   20.8613   -8.8209  -16.4599 C   0  0  2  0  0  0  0  0  0  0  0  0
   19.5733   -9.1480  -17.1053 N   0  0  0  0  0  0  0  0  0  0  0  0
   20.8313   -7.3846  -16.1610 C   0  0  0  0  0  0  0  0  0  0  0  0
   20.0206   -6.6856  -16.8798 O   0  0  0  0  0  0  0  0  0  0  0  0
   21.5867   -6.7090  -15.1780 N   0  0  0  0  0  0  0  0  0  0  0  0
   21.2513   -5.3364  -14.8796 C   0  0  1  0  0  0  0  0  0  0  0  0
   19.8471   -5.2261  -14.3257 C   0  0  0  0  0  0  0  0  0  0  0  0
   18.9985   -4.5233  -15.3004 C   0  0  0  0  0  0  0  0  0  0  0  0
   19.3083   -3.9703  -16.5257 C   0  0  0  0  0  0  0  0  0  0  0  0
   18.1798   -3.4081  -17.0317 N   0  0  0  0  0  0  0  0  0  0  0  0
   17.1930   -3.5911  -16.1728 C   0  0  0  0  0  0  0  0  0  0  0  0
   17.6729   -4.2651  -15.1187 N   0  0  0  0  0  0  0  0  0  0  0  0
   22.2777   -4.7955  -13.9815 C   0  0  0  0  0  0  0  0  0  0  0  0
   23.0406   -5.5759  -13.3358 O   0  0  0  0  0  0  0  0  0  0  0  0
   22.4385   -3.4361  -13.8203 O   0  0  0  0  0  0  0  0  0  0  0  0
  2  1  1  1
  2  4  1  0
  3  2  1  0
  4  5  2  0
  7  6  1  0
  7  9  1  0
  8  7  2  0
 10  9  1  0
 11 10  1  6
 11 13  1  0
 12 11  1  0
 12  4  1  0
 13 14  2  0
 15 16  1  0
 15 13  1  0
 16 23  1  0
 16 17  1  1
 18 17  1  0
 18 19  2  0
 20 19  1  0
 21 20  1  0
 22 21  2  0
 22 18  1  0
 23 24  2  0
 23 25  1  0
M  END
$$$$
