AQH.pdb
     RDKit          3D

 25 25  0  0  1  0  0  0  0  0999 V2000
   27.0493  -18.4008  -20.2049 C   0  0  0  0  0  0  0  0  0  0  0  0
   26.7849  -18.3555  -18.7332 C   0  0  2  0  0  0  0  0  0  0  0  0
   27.4131  -19.4534  -18.0472 N   0  0  0  0  0  0  0  0  0  0  0  0
   25.3150  -18.3532  -18.4337 C   0  0  0  0  0  0  0  0  0  0  0  0
   24.5451  -18.8233  -19.3092 O   0  0  0  0  0  0  0  0  0  0  0  0
   22.2413  -20.6401  -14.7001 N   0  0  0  0  0  0  0  0  0  0  0  0
   21.4093  -19.5197  -14.4704 C   0  0  0  0  0  0  0  0  0  0  0  0
   20.2762  -19.6733  -13.9814 O   0  0  0  0  0  0  0  0  0  0  0  0
   21.9160  -18.1783  -14.8230 C   0  0  0  0  0  0  0  0  0  0  0  0
   23.2594  -18.2097  -15.4385 C   0  0  0  0  0  0  0  0  0  0  0  0
   23.3484  -17.9467  -16.9179 C   0  0  2  0  0  0  0  0  0  0  0  0
   24.7901  -17.8497  -17.2258 N   0  0  0  0  0  0  0  0  0  0  0  0
   22.7607  -16.6391  -17.2308 C   0  0  0  0  0  0  0  0  0  0  0  0
   23.3871  -15.6202  -16.7492 O   0  0  0  0  0  0  0  0  0  0  0  0
   21.6006  -16.3945  -17.9975 N   0  0  0  0  0  0  0  0  0  0  0  0
   21.1484  -15.0304  -18.1396 C   0  0  1  0  0  0  0  0  0  0  0  0
   20.9197  -14.6803  -19.5943 C   0  0  0  0  0  0  0  0  0  0  0  0
   20.3881  -13.3116  -19.6827 C   0  0  0  0  0  0  0  0  0  0  0  0
   20.1280  -12.3845  -18.6948 C   0  0  0  0  0  0  0  0  0  0  0  0
   19.6165  -11.2726  -19.2845 N   0  0  0  0  0  0  0  0  0  0  0  0
   19.5511  -11.4758  -20.5881 C   0  0  0  0  0  0  0  0  0  0  0  0
   20.0149  -12.7066  -20.8453 N   0  0  0  0  0  0  0  0  0  0  0  0
   19.9580  -14.8494  -17.3012 C   0  0  0  0  0  0  0  0  0  0  0  0
   19.2294  -15.8423  -16.9991 O   0  0  0  0  0  0  0  0  0  0  0  0
   19.6060  -13.6056  -16.8228 O   0  0  0  0  0  0  0  0  0  0  0  0
  2  1  1  6
  2  4  1  0
  3  2  1  0
  4  5  2  0
  7  6  1  0
  7  9  1  0
  8  7  2  0
 10  9  1  0
 11 10  1  1
 11 13  1  0
 12 11  1  0
 12  4  1  0
 13 14  2  0
 15 16  1  0
 15 13  1  0
 16 23  1  0
 16 17  1  6
 18 17  1  0
 18 19  2  0
 20 19  1  0
 21 20  1  0
 22 21  2  0
 22 18  1  0
 23 24  2  0
 23 25  1  0
M  END
$$$$
