VIW.pdb
     RDKit          3D

 30 31  0  0  1  0  0  0  0  0999 V2000
   22.3977  -17.7312  -13.1521 C   0  0  0  0  0  0  0  0  0  0  0  0
   21.7234  -18.4834  -14.2626 C   0  0  1  0  0  0  0  0  0  0  0  0
   20.7670  -17.5610  -14.9729 C   0  0  0  0  0  0  0  0  0  0  0  0
   22.7290  -19.1011  -15.2194 C   0  0  2  0  0  0  0  0  0  0  0  0
   22.0706  -19.7334  -16.3260 N   0  0  0  0  0  0  0  0  0  0  0  0
   23.6871  -19.9743  -14.5231 C   0  0  0  0  0  0  0  0  0  0  0  0
   23.2545  -21.0291  -13.9979 O   0  0  0  0  0  0  0  0  0  0  0  0
   27.9191  -21.8451  -16.7720 C   0  0  0  0  0  0  0  0  0  0  0  0
   26.7998  -21.6623  -15.8201 C   0  0  0  0  0  0  0  0  0  0  0  0
   27.1730  -20.9374  -14.5238 C   0  0  2  0  0  0  0  0  0  0  0  0
   28.2847  -21.6600  -13.8470 C   0  0  0  0  0  0  0  0  0  0  0  0
   25.9557  -20.6688  -13.6837 C   0  0  2  0  0  0  0  0  0  0  0  0
   25.0719  -19.7181  -14.3963 N   0  0  0  0  0  0  0  0  0  0  0  0
   26.2389  -20.0666  -12.3605 C   0  0  0  0  0  0  0  0  0  0  0  0
   26.6023  -18.8637  -12.2713 O   0  0  0  0  0  0  0  0  0  0  0  0
   26.1392  -20.7261  -11.1151 N   0  0  0  0  0  0  0  0  0  0  0  0
   26.7680  -20.2922   -9.8947 C   0  0  1  0  0  0  0  0  0  0  0  0
   25.8560  -19.8726   -8.8269 C   0  0  0  0  0  0  0  0  0  0  0  0
   26.5958  -19.2379   -7.7102 C   0  0  0  0  0  0  0  0  0  0  0  0
   26.8851  -17.8775   -7.5902 C   0  0  0  0  0  0  0  0  0  0  0  0
   27.5250  -17.6619   -6.4399 N   0  0  0  0  0  0  0  0  0  0  0  0
   27.6793  -18.8366   -5.7760 C   0  0  0  0  0  0  0  0  0  0  0  0
   28.2606  -19.1760   -4.5897 C   0  0  0  0  0  0  0  0  0  0  0  0
   28.3175  -20.4668   -4.1066 C   0  0  0  0  0  0  0  0  0  0  0  0
   27.7404  -21.4350   -4.9039 C   0  0  0  0  0  0  0  0  0  0  0  0
   27.1442  -21.1249   -6.1090 C   0  0  0  0  0  0  0  0  0  0  0  0
   27.1028  -19.8100   -6.5669 C   0  0  0  0  0  0  0  0  0  0  0  0
   27.8495  -21.1995   -9.5277 C   0  0  0  0  0  0  0  0  0  0  0  0
   27.6833  -22.4547   -9.4905 O   0  0  0  0  0  0  0  0  0  0  0  0
   29.1473  -20.7815   -9.1952 O   0  0  0  0  0  0  0  0  0  0  0  0
  2  1  1  1
  3  2  1  0
  4  2  1  0
  4  5  1  6
  6  4  1  0
  6  7  2  0
  9 10  1  0
  9  8  1  0
 10 12  1  0
 10 11  1  1
 12 13  1  6
 13  6  1  0
 14 12  1  0
 14 16  1  0
 15 14  2  0
 17 16  1  0
 17 28  1  0
 18 19  1  0
 17 18  1  1
 19 27  1  0
 20 21  1  0
 20 19  2  0
 21 22  1  0
 22 27  2  0
 22 23  1  0
 23 24  2  0
 24 25  1  0
 26 25  2  0
 27 26  1  0
 28 29  2  0
 28 30  1  0
M  END
$$$$
