VIW.pdb
     RDKit          3D

 30 31  0  0  1  0  0  0  0  0999 V2000
   28.2131  -17.9530  -16.6115 C   0  0  0  0  0  0  0  0  0  0  0  0
   27.1980  -18.8020  -15.9027 C   0  0  1  0  0  0  0  0  0  0  0  0
   26.2376  -19.3702  -16.9150 C   0  0  0  0  0  0  0  0  0  0  0  0
   27.8535  -19.8918  -15.0715 C   0  0  2  0  0  0  0  0  0  0  0  0
   28.5372  -20.8385  -15.9047 N   0  0  0  0  0  0  0  0  0  0  0  0
   26.9079  -20.5085  -14.1277 C   0  0  0  0  0  0  0  0  0  0  0  0
   26.4149  -21.6237  -14.4261 O   0  0  0  0  0  0  0  0  0  0  0  0
   28.1462  -20.8056   -9.1130 C   0  0  0  0  0  0  0  0  0  0  0  0
   27.4940  -21.1096  -10.4069 C   0  0  0  0  0  0  0  0  0  0  0  0
   26.0906  -20.5192  -10.5715 C   0  0  2  0  0  0  0  0  0  0  0  0
   25.1944  -21.0516   -9.5089 C   0  0  0  0  0  0  0  0  0  0  0  0
   25.6001  -20.6742  -11.9840 C   0  0  2  0  0  0  0  0  0  0  0  0
   26.5049  -19.9397  -12.8974 N   0  0  0  0  0  0  0  0  0  0  0  0
   24.2386  -20.1438  -12.2267 C   0  0  0  0  0  0  0  0  0  0  0  0
   24.0043  -18.9112  -12.1139 O   0  0  0  0  0  0  0  0  0  0  0  0
   23.1085  -20.9079  -12.5943 N   0  0  0  0  0  0  0  0  0  0  0  0
   21.8126  -20.3692  -12.9159 C   0  0  1  0  0  0  0  0  0  0  0  0
   21.8137  -19.2093  -13.8119 C   0  0  0  0  0  0  0  0  0  0  0  0
   22.2218  -19.5938  -15.1841 C   0  0  0  0  0  0  0  0  0  0  0  0
   21.6004  -20.5560  -15.9822 C   0  0  0  0  0  0  0  0  0  0  0  0
   22.2087  -20.6059  -17.1681 N   0  0  0  0  0  0  0  0  0  0  0  0
   23.2255  -19.7061  -17.1981 C   0  0  0  0  0  0  0  0  0  0  0  0
   24.1514  -19.3655  -18.1400 C   0  0  0  0  0  0  0  0  0  0  0  0
   25.1271  -18.4103  -17.9443 C   0  0  0  0  0  0  0  0  0  0  0  0
   25.1264  -17.7919  -16.7100 C   0  0  0  0  0  0  0  0  0  0  0  0
   24.2038  -18.1130  -15.7356 C   0  0  0  0  0  0  0  0  0  0  0  0
   23.2302  -19.0820  -15.9668 C   0  0  0  0  0  0  0  0  0  0  0  0
   20.8747  -21.4441  -13.2201 C   0  0  0  0  0  0  0  0  0  0  0  0
   19.6326  -21.2297  -13.3449 O   0  0  0  0  0  0  0  0  0  0  0  0
   21.2484  -22.7840  -13.4055 O   0  0  0  0  0  0  0  0  0  0  0  0
  2  1  1  6
  3  2  1  0
  4  2  1  0
  4  5  1  6
  6  4  1  0
  6  7  2  0
  9 10  1  0
  9  8  1  0
 10 12  1  0
 10 11  1  1
 12 13  1  6
 13  6  1  0
 14 12  1  0
 14 16  1  0
 15 14  2  0
 17 16  1  0
 17 28  1  0
 18 19  1  0
 17 18  1  6
 19 27  1  0
 20 21  1  0
 20 19  2  0
 21 22  1  0
 22 27  2  0
 22 23  1  0
 23 24  2  0
 24 25  1  0
 26 25  2  0
 27 26  1  0
 28 29  2  0
 28 30  1  0
M  END
$$$$
