VIW.pdb
     RDKit          3D

 30 31  0  0  1  0  0  0  0  0999 V2000
   48.4088 -131.4172    8.7161 C   0  0  0  0  0  0  0  0  0  0  0  0
   48.6646 -131.3019    7.2412 C   0  0  1  0  0  0  0  0  0  0  0  0
   47.3550 -131.0811    6.5298 C   0  0  0  0  0  0  0  0  0  0  0  0
   49.6710 -130.2085    6.9255 C   0  0  2  0  0  0  0  0  0  0  0  0
   50.5573 -129.9849    8.0311 N   0  0  0  0  0  0  0  0  0  0  0  0
   49.0184 -128.9849    6.4333 C   0  0  0  0  0  0  0  0  0  0  0  0
   47.8250 -128.7764    6.7618 O   0  0  0  0  0  0  0  0  0  0  0  0
   47.3669 -125.8335    2.2666 C   0  0  0  0  0  0  0  0  0  0  0  0
   47.7591 -125.6811    3.6862 C   0  0  0  0  0  0  0  0  0  0  0  0
   49.1469 -126.2299    4.0300 C   0  0  2  0  0  0  0  0  0  0  0  0
   50.1362 -125.7598    3.0221 C   0  0  0  0  0  0  0  0  0  0  0  0
   49.0998 -127.7143    4.2625 C   0  0  2  0  0  0  0  0  0  0  0  0
   49.6343 -128.0137    5.6105 N   0  0  0  0  0  0  0  0  0  0  0  0
   49.8998 -128.5149    3.3070 C   0  0  0  0  0  0  0  0  0  0  0  0
   50.4556 -129.5828    3.6779 O   0  0  0  0  0  0  0  0  0  0  0  0
   50.1205 -128.1992    1.9478 N   0  0  0  0  0  0  0  0  0  0  0  0
   50.5709 -126.9233    1.4557 C   0  0  1  0  0  0  0  0  0  0  0  0
   50.1388 -125.7572    2.2313 C   0  0  0  0  0  0  0  0  0  0  0  0
   51.2926 -124.9027    2.6001 C   0  0  0  0  0  0  0  0  0  0  0  0
   52.5967 -125.3447    2.8294 C   0  0  0  0  0  0  0  0  0  0  0  0
   53.3776 -124.2969    3.0962 N   0  0  0  0  0  0  0  0  0  0  0  0
   52.6413 -123.1563    3.0554 C   0  0  0  0  0  0  0  0  0  0  0  0
   52.9354 -121.8403    3.2599 C   0  0  0  0  0  0  0  0  0  0  0  0
   52.0036 -120.8263    3.1810 C   0  0  0  0  0  0  0  0  0  0  0  0
   50.7145 -121.2146    2.8753 C   0  0  0  0  0  0  0  0  0  0  0  0
   50.3840 -122.5372    2.6623 C   0  0  0  0  0  0  0  0  0  0  0  0
   51.3503 -123.5366    2.7484 C   0  0  0  0  0  0  0  0  0  0  0  0
   51.9793 -126.9891    1.0819 C   0  0  0  0  0  0  0  0  0  0  0  0
   52.6880 -125.9457    0.9665 O   0  0  0  0  0  0  0  0  0  0  0  0
   52.6695 -128.1841    0.8268 O   0  0  0  0  0  0  0  0  0  0  0  0
  2  1  1  1
  3  2  1  0
  4  2  1  0
  4  5  1  1
  6  4  1  0
  6  7  2  0
  9 10  1  0
  9  8  1  0
 10 12  1  0
 10 11  1  6
 12 13  1  1
 13  6  1  0
 14 12  1  0
 14 16  1  0
 15 14  2  0
 17 16  1  0
 17 28  1  0
 18 19  1  0
 17 18  1  1
 19 27  1  0
 20 21  1  0
 20 19  2  0
 21 22  1  0
 22 27  2  0
 22 23  1  0
 23 24  2  0
 24 25  1  0
 26 25  2  0
 27 26  1  0
 28 29  2  0
 28 30  1  0
M  END
$$$$
