VIW.pdb
     RDKit          3D

 30 31  0  0  1  0  0  0  0  0999 V2000
   22.2803  -18.4806  -13.3686 C   0  0  0  0  0  0  0  0  0  0  0  0
   21.9710  -19.1525  -14.6750 C   0  0  1  0  0  0  0  0  0  0  0  0
   20.8873  -18.3804  -15.3818 C   0  0  0  0  0  0  0  0  0  0  0  0
   23.2109  -19.3066  -15.5392 C   0  0  2  0  0  0  0  0  0  0  0  0
   22.8797  -19.8340  -16.8315 N   0  0  0  0  0  0  0  0  0  0  0  0
   24.2736  -20.0550  -14.8492 C   0  0  0  0  0  0  0  0  0  0  0  0
   24.1762  -21.3051  -14.7908 O   0  0  0  0  0  0  0  0  0  0  0  0
   29.1368  -19.2903  -16.1810 C   0  0  0  0  0  0  0  0  0  0  0  0
   27.8848  -19.8534  -15.6263 C   0  0  0  0  0  0  0  0  0  0  0  0
   27.8066  -19.8575  -14.0969 C   0  0  2  0  0  0  0  0  0  0  0  0
   28.9771  -20.5866  -13.5365 C   0  0  0  0  0  0  0  0  0  0  0  0
   26.4563  -20.3200  -13.6250 C   0  0  2  0  0  0  0  0  0  0  0  0
   25.4088  -19.4728  -14.2395 N   0  0  0  0  0  0  0  0  0  0  0  0
   26.2535  -20.2407  -12.1599 C   0  0  0  0  0  0  0  0  0  0  0  0
   26.0913  -19.1252  -11.5975 O   0  0  0  0  0  0  0  0  0  0  0  0
   26.2167  -21.3382  -11.2711 N   0  0  0  0  0  0  0  0  0  0  0  0
   26.0499  -21.2440   -9.8441 C   0  0  1  0  0  0  0  0  0  0  0  0
   27.0744  -20.4709   -9.1366 C   0  0  0  0  0  0  0  0  0  0  0  0
   26.8352  -20.4788   -7.6736 C   0  0  0  0  0  0  0  0  0  0  0  0
   25.7004  -20.9801   -7.0337 C   0  0  0  0  0  0  0  0  0  0  0  0
   25.8486  -20.8602   -5.7136 N   0  0  0  0  0  0  0  0  0  0  0  0
   27.0508  -20.2912   -5.4388 C   0  0  0  0  0  0  0  0  0  0  0  0
   27.6813  -19.9396   -4.2816 C   0  0  0  0  0  0  0  0  0  0  0  0
   28.9247  -19.3440   -4.2375 C   0  0  0  0  0  0  0  0  0  0  0  0
   29.5250  -19.1105   -5.4588 C   0  0  0  0  0  0  0  0  0  0  0  0
   28.9143  -19.4543   -6.6473 C   0  0  0  0  0  0  0  0  0  0  0  0
   27.6581  -20.0560   -6.6559 C   0  0  0  0  0  0  0  0  0  0  0  0
   24.6575  -20.9652   -9.5108 C   0  0  0  0  0  0  0  0  0  0  0  0
   24.2037  -21.1408   -8.3414 O   0  0  0  0  0  0  0  0  0  0  0  0
   23.7115  -20.4818  -10.4279 O   0  0  0  0  0  0  0  0  0  0  0  0
  2  1  1  1
  3  2  1  0
  4  2  1  0
  4  5  1  6
  6  4  1  0
  6  7  2  0
  9 10  1  0
  9  8  1  0
 10 12  1  0
 10 11  1  1
 12 13  1  6
 13  6  1  0
 14 12  1  0
 14 16  1  0
 15 14  2  0
 17 16  1  0
 17 28  1  0
 18 19  1  0
 17 18  1  6
 19 27  1  0
 20 21  1  0
 20 19  2  0
 21 22  1  0
 22 27  2  0
 22 23  1  0
 23 24  2  0
 24 25  1  0
 26 25  2  0
 27 26  1  0
 28 29  2  0
 28 30  1  0
M  END
$$$$
