VIW.pdb
     RDKit          3D

 30 31  0  0  1  0  0  0  0  0999 V2000
   20.3096  -11.8539  -19.6925 C   0  0  0  0  0  0  0  0  0  0  0  0
   21.0553  -11.9030  -20.9946 C   0  0  1  0  0  0  0  0  0  0  0  0
   21.4588  -10.5047  -21.3844 C   0  0  0  0  0  0  0  0  0  0  0  0
   22.2506  -12.8382  -20.9268 C   0  0  2  0  0  0  0  0  0  0  0  0
   23.0176  -12.7876  -22.1380 N   0  0  0  0  0  0  0  0  0  0  0  0
   21.8621  -14.2006  -20.5289 C   0  0  0  0  0  0  0  0  0  0  0  0
   21.2945  -14.9277  -21.3803 O   0  0  0  0  0  0  0  0  0  0  0  0
   24.9614  -17.9819  -19.6147 C   0  0  0  0  0  0  0  0  0  0  0  0
   23.7539  -17.1569  -19.8458 C   0  0  0  0  0  0  0  0  0  0  0  0
   22.8534  -16.9815  -18.6195 C   0  0  2  0  0  0  0  0  0  0  0  0
   22.5792  -18.3090  -18.0044 C   0  0  0  0  0  0  0  0  0  0  0  0
   21.6469  -16.1473  -18.9485 C   0  0  2  0  0  0  0  0  0  0  0  0
   22.0788  -14.7634  -19.2499 N   0  0  0  0  0  0  0  0  0  0  0  0
   20.6493  -16.0471  -17.8583 C   0  0  0  0  0  0  0  0  0  0  0  0
   20.8299  -15.2507  -16.8991 O   0  0  0  0  0  0  0  0  0  0  0  0
   19.4475  -16.7844  -17.7689 N   0  0  0  0  0  0  0  0  0  0  0  0
   18.4292  -16.5916  -16.7694 C   0  0  1  0  0  0  0  0  0  0  0  0
   17.9946  -15.2066  -16.5674 C   0  0  0  0  0  0  0  0  0  0  0  0
   17.0885  -14.7663  -17.6549 C   0  0  0  0  0  0  0  0  0  0  0  0
   16.3753  -15.6041  -18.5140 C   0  0  0  0  0  0  0  0  0  0  0  0
   15.6317  -14.8633  -19.3368 N   0  0  0  0  0  0  0  0  0  0  0  0
   15.8200  -13.5467  -19.0618 C   0  0  0  0  0  0  0  0  0  0  0  0
   15.3256  -12.3945  -19.5990 C   0  0  0  0  0  0  0  0  0  0  0  0
   15.6762  -11.1340  -19.1622 C   0  0  0  0  0  0  0  0  0  0  0  0
   16.5816  -11.0869  -18.1210 C   0  0  0  0  0  0  0  0  0  0  0  0
   17.1004  -12.2335  -17.5553 C   0  0  0  0  0  0  0  0  0  0  0  0
   16.7236  -13.4914  -18.0198 C   0  0  0  0  0  0  0  0  0  0  0  0
   17.3870  -17.6035  -16.9014 C   0  0  0  0  0  0  0  0  0  0  0  0
   17.2330  -18.2668  -17.9695 O   0  0  0  0  0  0  0  0  0  0  0  0
   16.4815  -17.9366  -15.8823 O   0  0  0  0  0  0  0  0  0  0  0  0
  2  1  1  1
  3  2  1  0
  4  2  1  0
  4  5  1  6
  6  4  1  0
  6  7  2  0
  9 10  1  0
  9  8  1  0
 10 12  1  0
 10 11  1  6
 12 13  1  1
 13  6  1  0
 14 12  1  0
 14 16  1  0
 15 14  2  0
 17 16  1  0
 17 28  1  0
 18 19  1  0
 17 18  1  6
 19 27  1  0
 20 21  1  0
 20 19  2  0
 21 22  1  0
 22 27  2  0
 22 23  1  0
 23 24  2  0
 24 25  1  0
 26 25  2  0
 27 26  1  0
 28 29  2  0
 28 30  1  0
M  END
$$$$
