VIW.pdb
     RDKit          3D

 30 31  0  0  1  0  0  0  0  0999 V2000
   21.3415  -18.9536  -15.7178 C   0  0  0  0  0  0  0  0  0  0  0  0
   22.7383  -19.4913  -15.6002 C   0  0  1  0  0  0  0  0  0  0  0  0
   23.7147  -18.4209  -16.0136 C   0  0  0  0  0  0  0  0  0  0  0  0
   23.0281  -20.0119  -14.2028 C   0  0  2  0  0  0  0  0  0  0  0  0
   22.7565  -19.0121  -13.2105 N   0  0  0  0  0  0  0  0  0  0  0  0
   24.3749  -20.5961  -14.1010 C   0  0  0  0  0  0  0  0  0  0  0  0
   24.6371  -21.6061  -14.7988 O   0  0  0  0  0  0  0  0  0  0  0  0
   28.6580  -18.0998  -15.1130 C   0  0  0  0  0  0  0  0  0  0  0  0
   27.7215  -19.2155  -14.8478 C   0  0  0  0  0  0  0  0  0  0  0  0
   27.8183  -19.8128  -13.4410 C   0  0  2  0  0  0  0  0  0  0  0  0
   29.2014  -20.3073  -13.1999 C   0  0  0  0  0  0  0  0  0  0  0  0
   26.7139  -20.8027  -13.1958 C   0  0  2  0  0  0  0  0  0  0  0  0
   25.4094  -20.1061  -13.2710 N   0  0  0  0  0  0  0  0  0  0  0  0
   26.7601  -21.4642  -11.8713 C   0  0  0  0  0  0  0  0  0  0  0  0
   27.6761  -22.2852  -11.5995 O   0  0  0  0  0  0  0  0  0  0  0  0
   25.8414  -21.2649  -10.8167 N   0  0  0  0  0  0  0  0  0  0  0  0
   26.1969  -21.0129   -9.4444 C   0  0  1  0  0  0  0  0  0  0  0  0
   27.3303  -20.1065   -9.2401 C   0  0  0  0  0  0  0  0  0  0  0  0
   27.4666  -19.7339   -7.8118 C   0  0  0  0  0  0  0  0  0  0  0  0
   26.5598  -18.9683   -7.0767 C   0  0  0  0  0  0  0  0  0  0  0  0
   26.9842  -18.8709   -5.8160 N   0  0  0  0  0  0  0  0  0  0  0  0
   28.1532  -19.5475   -5.6740 C   0  0  0  0  0  0  0  0  0  0  0  0
   28.9985  -19.7526   -4.6234 C   0  0  0  0  0  0  0  0  0  0  0  0
   30.1686  -20.4776   -4.7124 C   0  0  0  0  0  0  0  0  0  0  0  0
   30.4579  -21.0053   -5.9549 C   0  0  0  0  0  0  0  0  0  0  0  0
   29.6240  -20.8165   -7.0379 C   0  0  0  0  0  0  0  0  0  0  0  0
   28.4484  -20.0798   -6.9130 C   0  0  0  0  0  0  0  0  0  0  0  0
   25.0014  -20.7744   -8.6435 C   0  0  0  0  0  0  0  0  0  0  0  0
   23.9628  -20.2435   -9.1374 O   0  0  0  0  0  0  0  0  0  0  0  0
   24.8862  -21.1072   -7.2850 O   0  0  0  0  0  0  0  0  0  0  0  0
  2  1  1  1
  3  2  1  0
  4  2  1  0
  4  5  1  1
  6  4  1  0
  6  7  2  0
  9 10  1  0
  9  8  1  0
 10 12  1  0
 10 11  1  6
 12 13  1  1
 13  6  1  0
 14 12  1  0
 14 16  1  0
 15 14  2  0
 17 16  1  0
 17 28  1  0
 18 19  1  0
 17 18  1  6
 19 27  1  0
 20 21  1  0
 20 19  2  0
 21 22  1  0
 22 27  2  0
 22 23  1  0
 23 24  2  0
 24 25  1  0
 26 25  2  0
 27 26  1  0
 28 29  2  0
 28 30  1  0
M  END
$$$$
