VIW.pdb
     RDKit          3D

 30 31  0  0  1  0  0  0  0  0999 V2000
   27.9806  -17.2064  -14.7764 C   0  0  0  0  0  0  0  0  0  0  0  0
   27.7423  -17.2140  -16.2586 C   0  0  1  0  0  0  0  0  0  0  0  0
   28.8121  -16.3957  -16.9339 C   0  0  0  0  0  0  0  0  0  0  0  0
   27.6763  -18.6267  -16.8135 C   0  0  2  0  0  0  0  0  0  0  0  0
   27.6250  -18.6186  -18.2472 N   0  0  0  0  0  0  0  0  0  0  0  0
   26.6029  -19.4148  -16.1874 C   0  0  0  0  0  0  0  0  0  0  0  0
   25.4138  -19.1149  -16.4553 O   0  0  0  0  0  0  0  0  0  0  0  0
   25.3597  -23.9829  -17.3905 C   0  0  0  0  0  0  0  0  0  0  0  0
   25.3273  -22.6430  -16.7613 C   0  0  0  0  0  0  0  0  0  0  0  0
   25.6416  -22.6312  -15.2625 C   0  0  2  0  0  0  0  0  0  0  0  0
   24.7520  -23.5928  -14.5557 C   0  0  0  0  0  0  0  0  0  0  0  0
   25.6540  -21.2282  -14.7229 C   0  0  2  0  0  0  0  0  0  0  0  0
   26.8051  -20.4951  -15.2977 N   0  0  0  0  0  0  0  0  0  0  0  0
   25.7897  -21.1337  -13.2510 C   0  0  0  0  0  0  0  0  0  0  0  0
   26.9085  -21.3130  -12.7003 O   0  0  0  0  0  0  0  0  0  0  0  0
   24.7465  -20.8460  -12.3427 N   0  0  0  0  0  0  0  0  0  0  0  0
   24.8780  -20.8251  -10.9091 C   0  0  1  0  0  0  0  0  0  0  0  0
   26.1013  -20.2032  -10.3945 C   0  0  0  0  0  0  0  0  0  0  0  0
   26.1586  -20.2793   -8.9152 C   0  0  0  0  0  0  0  0  0  0  0  0
   25.3710  -21.1019   -8.1080 C   0  0  0  0  0  0  0  0  0  0  0  0
   25.7245  -20.9382   -6.8324 N   0  0  0  0  0  0  0  0  0  0  0  0
   26.7287  -20.0276   -6.7501 C   0  0  0  0  0  0  0  0  0  0  0  0
   27.4322  -19.4961   -5.7094 C   0  0  0  0  0  0  0  0  0  0  0  0
   28.4231  -18.5483   -5.8597 C   0  0  0  0  0  0  0  0  0  0  0  0
   28.6812  -18.1462   -7.1550 C   0  0  0  0  0  0  0  0  0  0  0  0
   27.9880  -18.6641   -8.2296 C   0  0  0  0  0  0  0  0  0  0  0  0
   26.9938  -19.6217   -8.0425 C   0  0  0  0  0  0  0  0  0  0  0  0
   23.6188  -20.4309  -10.2872 C   0  0  0  0  0  0  0  0  0  0  0  0
   22.9999  -19.3837  -10.6402 O   0  0  0  0  0  0  0  0  0  0  0  0
   22.9840  -21.1580   -9.2685 O   0  0  0  0  0  0  0  0  0  0  0  0
  2  1  1  1
  3  2  1  0
  4  2  1  0
  4  5  1  6
  6  4  1  0
  6  7  2  0
  9 10  1  0
  9  8  1  0
 10 12  1  0
 10 11  1  1
 12 13  1  6
 13  6  1  0
 14 12  1  0
 14 16  1  0
 15 14  2  0
 17 16  1  0
 17 28  1  0
 18 19  1  0
 17 18  1  6
 19 27  1  0
 20 21  1  0
 20 19  2  0
 21 22  1  0
 22 27  2  0
 22 23  1  0
 23 24  2  0
 24 25  1  0
 26 25  2  0
 27 26  1  0
 28 29  2  0
 28 30  1  0
M  END
$$$$
