VIW.pdb
     RDKit          3D

 30 31  0  0  1  0  0  0  0  0999 V2000
   25.9921  -13.7878  -14.7854 C   0  0  0  0  0  0  0  0  0  0  0  0
   25.7442  -15.2279  -14.4412 C   0  0  1  0  0  0  0  0  0  0  0  0
   24.2587  -15.4763  -14.4010 C   0  0  0  0  0  0  0  0  0  0  0  0
   26.4489  -16.1688  -15.4035 C   0  0  2  0  0  0  0  0  0  0  0  0
   26.0904  -15.8838  -16.7630 N   0  0  0  0  0  0  0  0  0  0  0  0
   26.2671  -17.5796  -15.0267 C   0  0  0  0  0  0  0  0  0  0  0  0
   25.2463  -18.1782  -15.4457 O   0  0  0  0  0  0  0  0  0  0  0  0
   28.9110  -21.2306  -16.8344 C   0  0  0  0  0  0  0  0  0  0  0  0
   27.8447  -20.5106  -16.1018 C   0  0  0  0  0  0  0  0  0  0  0  0
   27.9429  -20.5996  -14.5761 C   0  0  2  0  0  0  0  0  0  0  0  0
   27.9804  -22.0279  -14.1583 C   0  0  0  0  0  0  0  0  0  0  0  0
   26.8948  -19.7485  -13.9153 C   0  0  2  0  0  0  0  0  0  0  0  0
   27.1596  -18.3241  -14.2214 N   0  0  0  0  0  0  0  0  0  0  0  0
   26.8502  -19.8587  -12.4389 C   0  0  0  0  0  0  0  0  0  0  0  0
   27.8065  -19.4332  -11.7380 O   0  0  0  0  0  0  0  0  0  0  0  0
   25.7942  -20.4170  -11.6845 N   0  0  0  0  0  0  0  0  0  0  0  0
   25.8321  -20.6718  -10.2679 C   0  0  1  0  0  0  0  0  0  0  0  0
   26.4929  -19.6449   -9.4574 C   0  0  0  0  0  0  0  0  0  0  0  0
   26.5367  -20.0374   -8.0286 C   0  0  0  0  0  0  0  0  0  0  0  0
   25.6619  -20.9232   -7.3971 C   0  0  0  0  0  0  0  0  0  0  0  0
   26.0269  -21.0713   -6.1229 N   0  0  0  0  0  0  0  0  0  0  0  0
   27.1237  -20.3111   -5.8707 C   0  0  0  0  0  0  0  0  0  0  0  0
   27.8773  -20.0896   -4.7556 C   0  0  0  0  0  0  0  0  0  0  0  0
   28.9656  -19.2428   -4.7227 C   0  0  0  0  0  0  0  0  0  0  0  0
   29.2702  -18.6060   -5.9092 C   0  0  0  0  0  0  0  0  0  0  0  0
   28.5283  -18.8083   -7.0549 C   0  0  0  0  0  0  0  0  0  0  0  0
   27.4355  -19.6720   -7.0538 C   0  0  0  0  0  0  0  0  0  0  0  0
   24.5375  -21.1560   -9.8020 C   0  0  0  0  0  0  0  0  0  0  0  0
   24.4413  -22.0356   -8.8957 O   0  0  0  0  0  0  0  0  0  0  0  0
   23.3047  -20.7016  -10.2952 O   0  0  0  0  0  0  0  0  0  0  0  0
  2  1  1  6
  3  2  1  0
  4  2  1  0
  4  5  1  6
  6  4  1  0
  6  7  2  0
  9 10  1  0
  9  8  1  0
 10 12  1  0
 10 11  1  6
 12 13  1  1
 13  6  1  0
 14 12  1  0
 14 16  1  0
 15 14  2  0
 17 16  1  0
 17 28  1  0
 18 19  1  0
 17 18  1  1
 19 27  1  0
 20 21  1  0
 20 19  2  0
 21 22  1  0
 22 27  2  0
 22 23  1  0
 23 24  2  0
 24 25  1  0
 26 25  2  0
 27 26  1  0
 28 29  2  0
 28 30  1  0
M  END
$$$$
