QYT.pdb
     RDKit          3D

 29 29  0  0  1  0  0  0  0  0999 V2000
   28.0904  -17.3942  -17.9594 N   0  0  0  0  0  0  0  0  0  0  0  0
   27.5627  -16.9280  -19.1890 C   0  0  0  0  0  0  0  0  0  0  0  0
   28.3508  -16.7105  -20.1325 O   0  0  0  0  0  0  0  0  0  0  0  0
   26.1119  -16.7020  -19.3546 C   0  0  0  0  0  0  0  0  0  0  0  0
   25.2995  -16.9681  -18.1277 C   0  0  0  0  0  0  0  0  0  0  0  0
   23.9889  -17.6387  -18.3486 C   0  0  2  0  0  0  0  0  0  0  0  0
   23.9457  -18.2860  -19.6657 N   0  0  0  0  0  0  0  0  0  0  0  0
   22.8050  -16.7593  -18.1887 C   0  0  0  0  0  0  0  0  0  0  0  0
   21.9430  -16.7437  -19.0990 O   0  0  0  0  0  0  0  0  0  0  0  0
   18.8256  -20.5044  -14.3143 O   0  0  0  0  0  0  0  0  0  0  0  0
   19.3123  -19.2170  -14.6012 C   0  0  0  0  0  0  0  0  0  0  0  0
   20.6420  -18.9677  -14.4565 C   0  0  0  0  0  0  0  0  0  0  0  0
   21.1182  -17.6910  -14.7421 C   0  0  0  0  0  0  0  0  0  0  0  0
   20.2974  -16.6720  -15.1647 C   0  0  0  0  0  0  0  0  0  0  0  0
   20.8348  -15.3425  -15.4565 C   0  0  0  0  0  0  0  0  0  0  0  0
   21.3856  -15.1608  -16.8262 C   0  0  2  0  0  0  0  0  0  0  0  0
   22.5943  -15.9296  -17.0536 N   0  0  0  0  0  0  0  0  0  0  0  0
   21.5635  -13.7746  -17.2716 C   0  0  0  0  0  0  0  0  0  0  0  0
   22.6232  -13.1227  -16.9679 O   0  0  0  0  0  0  0  0  0  0  0  0
   18.9495  -16.9629  -15.3005 C   0  0  0  0  0  0  0  0  0  0  0  0
   18.4604  -18.2297  -15.0198 C   0  0  0  0  0  0  0  0  0  0  0  0
   21.7311  -12.3969  -20.7467 C   0  0  0  0  0  0  0  0  0  0  0  0
   20.5924  -11.6898  -20.0429 C   0  0  1  0  0  0  0  0  0  0  0  0
   19.4117  -12.3162  -20.3555 O   0  0  0  0  0  0  0  0  0  0  0  0
   20.8587  -11.6932  -18.5238 C   0  0  2  0  0  0  0  0  0  0  0  0
   20.6311  -13.0411  -18.0496 N   0  0  0  0  0  0  0  0  0  0  0  0
   19.7989  -10.8245  -17.9550 C   0  0  0  0  0  0  0  0  0  0  0  0
   18.8788  -11.2754  -17.2237 O   0  0  0  0  0  0  0  0  0  0  0  0
   19.7535   -9.4545  -18.1932 O   0  0  0  0  0  0  0  0  0  0  0  0
  1  2  1  0
  2  3  2  0
  2  4  1  0
  4  5  1  0
  6  5  1  0
  6  7  1  6
  8  9  2  0
  8  6  1  0
 10 11  1  0
 11 21  2  0
 12 11  1  0
 12 13  2  0
 13 14  1  0
 14 15  1  0
 16 15  1  1
 16 17  1  0
 17  8  1  0
 18 16  1  0
 18 26  1  0
 19 18  2  0
 20 14  2  0
 21 20  1  0
 23 22  1  6
 23 25  1  0
 24 23  1  0
 25 26  1  1
 25 27  1  0
 27 29  1  0
 28 27  2  0
M  END
$$$$
