QYT.pdb
     RDKit          3D

 29 29  0  0  1  0  0  0  0  0999 V2000
   18.6986  -19.5686  -13.2637 N   0  0  0  0  0  0  0  0  0  0  0  0
   18.1393  -20.4501  -12.3057 C   0  0  0  0  0  0  0  0  0  0  0  0
   16.9222  -20.7178  -12.3798 O   0  0  0  0  0  0  0  0  0  0  0  0
   18.9749  -21.0409  -11.2398 C   0  0  0  0  0  0  0  0  0  0  0  0
   20.3966  -20.5771  -11.2385 C   0  0  0  0  0  0  0  0  0  0  0  0
   21.1721  -20.8546  -12.4785 C   0  0  2  0  0  0  0  0  0  0  0  0
   21.0319  -22.2593  -12.8822 N   0  0  0  0  0  0  0  0  0  0  0  0
   22.6108  -20.5006  -12.4052 C   0  0  0  0  0  0  0  0  0  0  0  0
   22.9247  -19.3378  -12.0571 O   0  0  0  0  0  0  0  0  0  0  0  0
   26.7182  -19.3381   -6.7278 O   0  0  0  0  0  0  0  0  0  0  0  0
   26.5157  -19.9607   -7.9719 C   0  0  0  0  0  0  0  0  0  0  0  0
   25.3055  -20.5224   -8.2386 C   0  0  0  0  0  0  0  0  0  0  0  0
   25.1108  -21.1375   -9.4723 C   0  0  0  0  0  0  0  0  0  0  0  0
   26.0936  -21.1998  -10.4319 C   0  0  0  0  0  0  0  0  0  0  0  0
   25.8514  -21.8544  -11.7181 C   0  0  0  0  0  0  0  0  0  0  0  0
   25.0649  -21.0627  -12.7015 C   0  0  2  0  0  0  0  0  0  0  0  0
   23.6575  -21.4132  -12.7099 N   0  0  0  0  0  0  0  0  0  0  0  0
   25.5952  -21.0214  -14.0685 C   0  0  0  0  0  0  0  0  0  0  0  0
   25.3885  -21.9920  -14.8780 O   0  0  0  0  0  0  0  0  0  0  0  0
   27.3127  -20.6172  -10.1249 C   0  0  0  0  0  0  0  0  0  0  0  0
   27.5216  -20.0009   -8.9004 C   0  0  0  0  0  0  0  0  0  0  0  0
   28.4454  -18.2154  -15.1478 C   0  0  0  0  0  0  0  0  0  0  0  0
   27.4344  -18.5296  -16.2301 C   0  0  1  0  0  0  0  0  0  0  0  0
   28.0462  -18.4451  -17.4559 O   0  0  0  0  0  0  0  0  0  0  0  0
   26.8460  -19.9329  -15.9784 C   0  0  2  0  0  0  0  0  0  0  0  0
   26.3545  -19.9563  -14.6178 N   0  0  0  0  0  0  0  0  0  0  0  0
   28.0110  -20.8482  -16.0585 C   0  0  0  0  0  0  0  0  0  0  0  0
   28.5513  -21.3418  -15.0342 O   0  0  0  0  0  0  0  0  0  0  0  0
   28.5818  -21.2204  -17.2715 O   0  0  0  0  0  0  0  0  0  0  0  0
  1  2  1  0
  2  3  2  0
  2  4  1  0
  4  5  1  0
  6  5  1  0
  6  7  1  1
  8  9  2  0
  8  6  1  0
 10 11  1  0
 11 21  2  0
 12 11  1  0
 12 13  2  0
 13 14  1  0
 14 15  1  0
 16 15  1  1
 16 17  1  0
 17  8  1  0
 18 16  1  0
 18 26  1  0
 19 18  2  0
 20 14  2  0
 21 20  1  0
 23 22  1  1
 23 25  1  0
 24 23  1  0
 25 26  1  1
 25 27  1  0
 27 29  1  0
 28 27  2  0
M  END
$$$$
