QYT.pdb
     RDKit          3D

 29 29  0  0  1  0  0  0  0  0999 V2000
   28.6471  -22.4385  -20.5974 N   0  0  0  0  0  0  0  0  0  0  0  0
   28.6900  -21.0613  -20.2669 C   0  0  0  0  0  0  0  0  0  0  0  0
   29.3468  -20.2921  -20.9987 O   0  0  0  0  0  0  0  0  0  0  0  0
   27.9752  -20.5431  -19.0821 C   0  0  0  0  0  0  0  0  0  0  0  0
   27.2525  -21.5853  -18.2897 C   0  0  0  0  0  0  0  0  0  0  0  0
   27.9420  -22.0605  -17.0590 C   0  0  2  0  0  0  0  0  0  0  0  0
   28.4773  -23.4148  -17.2466 N   0  0  0  0  0  0  0  0  0  0  0  0
   27.1160  -22.0197  -15.8275 C   0  0  0  0  0  0  0  0  0  0  0  0
   26.1204  -22.7777  -15.7484 O   0  0  0  0  0  0  0  0  0  0  0  0
   24.5109  -20.4210   -7.4686 O   0  0  0  0  0  0  0  0  0  0  0  0
   25.2277  -20.4720   -8.6769 C   0  0  0  0  0  0  0  0  0  0  0  0
   25.5750  -21.6848   -9.1866 C   0  0  0  0  0  0  0  0  0  0  0  0
   26.2847  -21.7291  -10.3835 C   0  0  0  0  0  0  0  0  0  0  0  0
   26.6485  -20.5952  -11.0709 C   0  0  0  0  0  0  0  0  0  0  0  0
   27.3938  -20.6815  -12.3274 C   0  0  0  0  0  0  0  0  0  0  0  0
   26.6088  -21.1315  -13.5080 C   0  0  2  0  0  0  0  0  0  0  0  0
   27.3938  -21.1632  -14.7272 N   0  0  0  0  0  0  0  0  0  0  0  0
   25.3318  -20.4458  -13.7333 C   0  0  0  0  0  0  0  0  0  0  0  0
   25.3061  -19.2260  -14.1225 O   0  0  0  0  0  0  0  0  0  0  0  0
   26.2776  -19.3783  -10.5217 C   0  0  0  0  0  0  0  0  0  0  0  0
   25.5706  -19.3183   -9.3303 C   0  0  0  0  0  0  0  0  0  0  0  0
   22.7271  -20.1958  -16.0830 C   0  0  0  0  0  0  0  0  0  0  0  0
   22.0388  -20.7406  -14.8496 C   0  0  1  0  0  0  0  0  0  0  0  0
   21.9751  -22.1090  -14.9369 O   0  0  0  0  0  0  0  0  0  0  0  0
   22.8116  -20.2813  -13.5965 C   0  0  2  0  0  0  0  0  0  0  0  0
   24.0503  -21.0281  -13.5565 N   0  0  0  0  0  0  0  0  0  0  0  0
   21.9741  -20.7256  -12.4552 C   0  0  0  0  0  0  0  0  0  0  0  0
   22.3164  -21.6694  -11.6957 O   0  0  0  0  0  0  0  0  0  0  0  0
   20.7555  -20.1274  -12.1503 O   0  0  0  0  0  0  0  0  0  0  0  0
  1  2  1  0
  2  3  2  0
  2  4  1  0
  4  5  1  0
  6  5  1  0
  6  7  1  6
  8  9  2  0
  8  6  1  0
 10 11  1  0
 11 21  2  0
 12 11  1  0
 12 13  2  0
 13 14  1  0
 14 15  1  0
 16 15  1  1
 16 17  1  0
 17  8  1  0
 18 16  1  0
 18 26  1  0
 19 18  2  0
 20 14  2  0
 21 20  1  0
 23 22  1  6
 23 25  1  0
 24 23  1  0
 25 26  1  1
 25 27  1  0
 27 29  1  0
 28 27  2  0
M  END
$$$$
