QYT.pdb
     RDKit          3D

 29 29  0  0  1  0  0  0  0  0999 V2000
   23.2555  -16.1377  -20.8414 N   0  0  0  0  0  0  0  0  0  0  0  0
   24.4380  -15.3599  -20.9081 C   0  0  0  0  0  0  0  0  0  0  0  0
   25.4791  -15.8929  -21.3446 O   0  0  0  0  0  0  0  0  0  0  0  0
   24.4431  -13.9485  -20.4705 C   0  0  0  0  0  0  0  0  0  0  0  0
   23.1275  -13.4534  -19.9603 C   0  0  0  0  0  0  0  0  0  0  0  0
   23.1566  -12.7804  -18.6328 C   0  0  2  0  0  0  0  0  0  0  0  0
   23.1612  -13.7659  -17.5444 N   0  0  0  0  0  0  0  0  0  0  0  0
   22.0674  -11.7986  -18.4087 C   0  0  0  0  0  0  0  0  0  0  0  0
   20.9361  -12.0377  -18.8932 O   0  0  0  0  0  0  0  0  0  0  0  0
   15.5975   -6.8125  -15.8899 O   0  0  0  0  0  0  0  0  0  0  0  0
   16.6741   -7.6812  -16.1405 C   0  0  0  0  0  0  0  0  0  0  0  0
   16.9093   -8.0881  -17.4174 C   0  0  0  0  0  0  0  0  0  0  0  0
   17.9769   -8.9484  -17.6595 C   0  0  0  0  0  0  0  0  0  0  0  0
   18.8030   -9.4030  -16.6588 C   0  0  0  0  0  0  0  0  0  0  0  0
   19.9164  -10.3062  -16.9520 C   0  0  0  0  0  0  0  0  0  0  0  0
   21.1711   -9.6494  -17.4067 C   0  0  2  0  0  0  0  0  0  0  0  0
   22.2383  -10.5955  -17.6706 N   0  0  0  0  0  0  0  0  0  0  0  0
   21.6565   -8.5411  -16.5773 C   0  0  0  0  0  0  0  0  0  0  0  0
   22.3199   -8.7700  -15.5060 O   0  0  0  0  0  0  0  0  0  0  0  0
   18.5329   -8.9677  -15.3713 C   0  0  0  0  0  0  0  0  0  0  0  0
   17.4733   -8.1109  -15.1147 C   0  0  0  0  0  0  0  0  0  0  0  0
   23.9894   -5.7329  -17.4821 C   0  0  0  0  0  0  0  0  0  0  0  0
   22.7004   -5.1062  -16.9947 C   0  0  1  0  0  0  0  0  0  0  0  0
   21.9186   -4.7852  -18.0763 O   0  0  0  0  0  0  0  0  0  0  0  0
   21.9886   -6.0910  -16.0448 C   0  0  2  0  0  0  0  0  0  0  0  0
   21.4573   -7.1646  -16.8564 N   0  0  0  0  0  0  0  0  0  0  0  0
   20.8431   -5.3230  -15.4976 C   0  0  0  0  0  0  0  0  0  0  0  0
   19.6518   -5.5661  -15.8239 O   0  0  0  0  0  0  0  0  0  0  0  0
   21.0116   -4.2839  -14.5878 O   0  0  0  0  0  0  0  0  0  0  0  0
  1  2  1  0
  2  3  2  0
  2  4  1  0
  4  5  1  0
  6  5  1  0
  6  7  1  1
  8  9  2  0
  8  6  1  0
 10 11  1  0
 11 21  2  0
 12 11  1  0
 12 13  2  0
 13 14  1  0
 14 15  1  0
 16 15  1  1
 16 17  1  0
 17  8  1  0
 18 16  1  0
 18 26  1  0
 19 18  2  0
 20 14  2  0
 21 20  1  0
 23 22  1  6
 23 25  1  0
 24 23  1  0
 25 26  1  6
 25 27  1  0
 27 29  1  0
 28 27  2  0
M  END
$$$$
