QYT.pdb
     RDKit          3D

 29 29  0  0  1  0  0  0  0  0999 V2000
   25.2036  -37.3810  -14.0920 N   0  0  0  0  0  0  0  0  0  0  0  0
   25.2429  -36.3459  -15.0589 C   0  0  0  0  0  0  0  0  0  0  0  0
   24.8168  -36.5857  -16.2075 O   0  0  0  0  0  0  0  0  0  0  0  0
   25.7769  -35.0107  -14.7192 C   0  0  0  0  0  0  0  0  0  0  0  0
   26.2108  -34.8608  -13.2960 C   0  0  0  0  0  0  0  0  0  0  0  0
   25.1264  -34.6028  -12.3093 C   0  0  2  0  0  0  0  0  0  0  0  0
   24.5177  -33.2851  -12.5306 N   0  0  0  0  0  0  0  0  0  0  0  0
   25.5344  -34.7287  -10.8887 C   0  0  0  0  0  0  0  0  0  0  0  0
   26.1401  -35.7659  -10.5290 O   0  0  0  0  0  0  0  0  0  0  0  0
   27.4499  -32.6438   -2.4464 O   0  0  0  0  0  0  0  0  0  0  0  0
   27.1603  -32.6372   -3.8221 C   0  0  0  0  0  0  0  0  0  0  0  0
   26.0047  -32.0600   -4.2496 C   0  0  0  0  0  0  0  0  0  0  0  0
   25.7233  -32.0564   -5.6131 C   0  0  0  0  0  0  0  0  0  0  0  0
   26.5673  -32.6133   -6.5448 C   0  0  0  0  0  0  0  0  0  0  0  0
   26.2380  -32.5895   -7.9705 C   0  0  0  0  0  0  0  0  0  0  0  0
   25.6600  -33.8470   -8.5153 C   0  0  2  0  0  0  0  0  0  0  0  0
   25.2744  -33.7320   -9.9088 N   0  0  0  0  0  0  0  0  0  0  0  0
   24.5811  -34.4551   -7.7291 C   0  0  0  0  0  0  0  0  0  0  0  0
   23.4008  -33.9586   -7.7477 O   0  0  0  0  0  0  0  0  0  0  0  0
   27.7344  -33.1919   -6.0725 C   0  0  0  0  0  0  0  0  0  0  0  0
   28.0284  -33.2032   -4.7174 C   0  0  0  0  0  0  0  0  0  0  0  0
   23.2177  -37.8475   -7.8676 C   0  0  0  0  0  0  0  0  0  0  0  0
   23.5670  -37.6583   -6.4068 C   0  0  1  0  0  0  0  0  0  0  0  0
   24.7520  -38.2979   -6.1406 O   0  0  0  0  0  0  0  0  0  0  0  0
   23.6483  -36.1492   -6.0991 C   0  0  2  0  0  0  0  0  0  0  0  0
   24.7178  -35.6021   -6.9056 N   0  0  0  0  0  0  0  0  0  0  0  0
   24.0668  -36.0779   -4.6775 C   0  0  0  0  0  0  0  0  0  0  0  0
   25.2243  -35.7225   -4.3331 O   0  0  0  0  0  0  0  0  0  0  0  0
   23.2065  -36.3995   -3.6324 O   0  0  0  0  0  0  0  0  0  0  0  0
  1  2  1  0
  2  3  2  0
  2  4  1  0
  4  5  1  0
  6  5  1  0
  6  7  1  1
  8  9  2  0
  8  6  1  0
 10 11  1  0
 11 21  2  0
 12 11  1  0
 12 13  2  0
 13 14  1  0
 14 15  1  0
 16 15  1  1
 16 17  1  0
 17  8  1  0
 18 16  1  0
 18 26  1  0
 19 18  2  0
 20 14  2  0
 21 20  1  0
 23 22  1  6
 23 25  1  0
 24 23  1  0
 25 26  1  6
 25 27  1  0
 27 29  1  0
 28 27  2  0
M  END
$$$$
