QYT.pdb
     RDKit          3D

 29 29  0  0  1  0  0  0  0  0999 V2000
   17.8616  -13.1106  -18.8559 N   0  0  0  0  0  0  0  0  0  0  0  0
   18.8630  -12.9299  -19.8419 C   0  0  0  0  0  0  0  0  0  0  0  0
   18.9654  -13.7791  -20.7512 O   0  0  0  0  0  0  0  0  0  0  0  0
   19.7691  -11.7635  -19.7977 C   0  0  0  0  0  0  0  0  0  0  0  0
   19.6306  -10.9176  -18.5723 C   0  0  0  0  0  0  0  0  0  0  0  0
   20.5448   -9.7460  -18.4844 C   0  0  2  0  0  0  0  0  0  0  0  0
   21.9416  -10.1787  -18.3515 N   0  0  0  0  0  0  0  0  0  0  0  0
   20.2191   -8.7820  -17.4050 C   0  0  0  0  0  0  0  0  0  0  0  0
   19.0738   -8.2726  -17.3822 O   0  0  0  0  0  0  0  0  0  0  0  0
   19.3237   -5.6988   -9.2656 O   0  0  0  0  0  0  0  0  0  0  0  0
   19.8290   -6.2958  -10.4338 C   0  0  0  0  0  0  0  0  0  0  0  0
   19.2007   -7.3920  -10.9386 C   0  0  0  0  0  0  0  0  0  0  0  0
   19.7057   -7.9789  -12.0957 C   0  0  0  0  0  0  0  0  0  0  0  0
   20.8146   -7.4942  -12.7484 C   0  0  0  0  0  0  0  0  0  0  0  0
   21.3157   -8.1376  -13.9635 C   0  0  0  0  0  0  0  0  0  0  0  0
   20.7897   -7.5892  -15.2422 C   0  0  2  0  0  0  0  0  0  0  0  0
   21.1402   -8.4030  -16.3904 N   0  0  0  0  0  0  0  0  0  0  0  0
   21.0768   -6.1748  -15.5043 C   0  0  0  0  0  0  0  0  0  0  0  0
   22.2669   -5.7911  -15.7813 O   0  0  0  0  0  0  0  0  0  0  0  0
   21.4281   -6.3768  -12.2053 C   0  0  0  0  0  0  0  0  0  0  0  0
   20.9367   -5.7813  -11.0535 C   0  0  0  0  0  0  0  0  0  0  0  0
   19.5680   -3.8805  -18.1432 C   0  0  0  0  0  0  0  0  0  0  0  0
   19.3288   -3.2613  -16.7826 C   0  0  1  0  0  0  0  0  0  0  0  0
   18.0693   -3.5953  -16.3511 O   0  0  0  0  0  0  0  0  0  0  0  0
   20.4179   -3.7517  -15.8069 C   0  0  2  0  0  0  0  0  0  0  0  0
   20.1178   -5.1296  -15.4833 N   0  0  0  0  0  0  0  0  0  0  0  0
   20.2163   -2.9408  -14.5809 C   0  0  0  0  0  0  0  0  0  0  0  0
   20.5878   -1.7408  -14.4984 O   0  0  0  0  0  0  0  0  0  0  0  0
   19.6033   -3.4544  -13.4425 O   0  0  0  0  0  0  0  0  0  0  0  0
  1  2  1  0
  2  3  2  0
  2  4  1  0
  4  5  1  0
  6  5  1  0
  6  7  1  1
  8  9  2  0
  8  6  1  0
 10 11  1  0
 11 21  2  0
 12 11  1  0
 12 13  2  0
 13 14  1  0
 14 15  1  0
 16 15  1  1
 16 17  1  0
 17  8  1  0
 18 16  1  0
 18 26  1  0
 19 18  2  0
 20 14  2  0
 21 20  1  0
 23 22  1  6
 23 25  1  0
 24 23  1  0
 25 26  1  1
 25 27  1  0
 27 29  1  0
 28 27  2  0
M  END
$$$$
