QYT.pdb
     RDKit          3D

 29 29  0  0  1  0  0  0  0  0999 V2000
   18.7821  -14.0775  -15.1950 N   0  0  0  0  0  0  0  0  0  0  0  0
   18.1725  -14.4378  -16.4223 C   0  0  0  0  0  0  0  0  0  0  0  0
   17.3442  -15.3718  -16.4257 O   0  0  0  0  0  0  0  0  0  0  0  0
   18.5081  -13.7266  -17.6733 C   0  0  0  0  0  0  0  0  0  0  0  0
   19.4965  -12.6166  -17.5089 C   0  0  0  0  0  0  0  0  0  0  0  0
   18.9797  -11.3752  -16.8702 C   0  0  2  0  0  0  0  0  0  0  0  0
   17.7256  -10.9436  -17.5001 N   0  0  0  0  0  0  0  0  0  0  0  0
   19.9377  -10.2429  -16.8451 C   0  0  0  0  0  0  0  0  0  0  0  0
   21.1053  -10.4548  -16.4405 O   0  0  0  0  0  0  0  0  0  0  0  0
   22.7746  -10.7834  -22.5644 O   0  0  0  0  0  0  0  0  0  0  0  0
   22.2462   -9.9076  -21.5999 C   0  0  0  0  0  0  0  0  0  0  0  0
   23.0932   -9.3064  -20.7210 C   0  0  0  0  0  0  0  0  0  0  0  0
   22.5641   -8.4401  -19.7681 C   0  0  0  0  0  0  0  0  0  0  0  0
   21.2192   -8.1683  -19.6803 C   0  0  0  0  0  0  0  0  0  0  0  0
   20.6999   -7.2507  -18.6653 C   0  0  0  0  0  0  0  0  0  0  0  0
   20.5462   -7.8247  -17.3017 C   0  0  2  0  0  0  0  0  0  0  0  0
   19.6014   -8.9243  -17.2569 N   0  0  0  0  0  0  0  0  0  0  0  0
   20.2751   -6.8663  -16.2249 C   0  0  0  0  0  0  0  0  0  0  0  0
   19.1504   -6.2569  -16.1618 O   0  0  0  0  0  0  0  0  0  0  0  0
   20.3873   -8.7986  -20.5917 C   0  0  0  0  0  0  0  0  0  0  0  0
   20.8996   -9.6639  -21.5465 C   0  0  0  0  0  0  0  0  0  0  0  0
   20.0724   -7.3862  -12.6184 C   0  0  0  0  0  0  0  0  0  0  0  0
   21.1180   -6.3048  -12.7893 C   0  0  1  0  0  0  0  0  0  0  0  0
   22.3666   -6.8718  -12.7271 O   0  0  0  0  0  0  0  0  0  0  0  0
   20.8823   -5.5830  -14.1317 C   0  0  2  0  0  0  0  0  0  0  0  0
   21.1805   -6.5273  -15.1867 N   0  0  0  0  0  0  0  0  0  0  0  0
   21.9124   -4.5159  -14.1700 C   0  0  0  0  0  0  0  0  0  0  0  0
   21.8629   -3.5048  -13.4217 O   0  0  0  0  0  0  0  0  0  0  0  0
   23.0003   -4.5637  -15.0359 O   0  0  0  0  0  0  0  0  0  0  0  0
  1  2  1  0
  2  3  2  0
  2  4  1  0
  4  5  1  0
  6  5  1  0
  6  7  1  6
  8  9  2  0
  8  6  1  0
 10 11  1  0
 11 21  2  0
 12 11  1  0
 12 13  2  0
 13 14  1  0
 14 15  1  0
 16 15  1  6
 16 17  1  0
 17  8  1  0
 18 16  1  0
 18 26  1  0
 19 18  2  0
 20 14  2  0
 21 20  1  0
 23 22  1  6
 23 25  1  0
 24 23  1  0
 25 26  1  6
 25 27  1  0
 27 29  1  0
 28 27  2  0
M  END
$$$$
