QYT.pdb
     RDKit          3D

 29 29  0  0  1  0  0  0  0  0999 V2000
   30.1135  -22.7413  -19.0324 N   0  0  0  0  0  0  0  0  0  0  0  0
   29.7856  -21.4380  -19.4814 C   0  0  0  0  0  0  0  0  0  0  0  0
   30.5752  -20.8566  -20.2541 O   0  0  0  0  0  0  0  0  0  0  0  0
   28.5376  -20.7775  -19.0460 C   0  0  0  0  0  0  0  0  0  0  0  0
   27.6453  -21.6326  -18.2041 C   0  0  0  0  0  0  0  0  0  0  0  0
   28.2237  -22.1055  -16.9165 C   0  0  2  0  0  0  0  0  0  0  0  0
   28.9248  -23.3834  -17.0937 N   0  0  0  0  0  0  0  0  0  0  0  0
   27.2507  -22.2235  -15.8030 C   0  0  0  0  0  0  0  0  0  0  0  0
   26.6046  -23.2911  -15.6826 O   0  0  0  0  0  0  0  0  0  0  0  0
   22.8383  -20.6235   -8.2434 O   0  0  0  0  0  0  0  0  0  0  0  0
   23.7642  -20.6314   -9.3013 C   0  0  0  0  0  0  0  0  0  0  0  0
   23.4755  -19.9367  -10.4350 C   0  0  0  0  0  0  0  0  0  0  0  0
   24.3963  -19.9482  -11.4793 C   0  0  0  0  0  0  0  0  0  0  0  0
   25.5860  -20.6339  -11.4098 C   0  0  0  0  0  0  0  0  0  0  0  0
   26.5298  -20.6218  -12.5281 C   0  0  0  0  0  0  0  0  0  0  0  0
   26.0575  -21.2866  -13.7721 C   0  0  2  0  0  0  0  0  0  0  0  0
   27.0105  -21.1862  -14.8608 N   0  0  0  0  0  0  0  0  0  0  0  0
   24.7119  -20.9216  -14.2278 C   0  0  0  0  0  0  0  0  0  0  0  0
   24.4841  -19.7652  -14.7288 O   0  0  0  0  0  0  0  0  0  0  0  0
   25.8457  -21.3298  -10.2401 C   0  0  0  0  0  0  0  0  0  0  0  0
   24.9384  -21.3277   -9.1915 C   0  0  0  0  0  0  0  0  0  0  0  0
   22.6237  -21.7013  -16.9719 C   0  0  0  0  0  0  0  0  0  0  0  0
   21.8241  -22.1704  -15.7750 C   0  0  1  0  0  0  0  0  0  0  0  0
   22.0376  -23.5135  -15.5892 O   0  0  0  0  0  0  0  0  0  0  0  0
   22.2381  -21.3475  -14.5381 C   0  0  2  0  0  0  0  0  0  0  0  0
   23.5733  -21.7659  -14.1695 N   0  0  0  0  0  0  0  0  0  0  0  0
   21.3103  -21.7871  -13.4670 C   0  0  0  0  0  0  0  0  0  0  0  0
   21.6812  -22.5213  -12.5140 O   0  0  0  0  0  0  0  0  0  0  0  0
   19.9695  -21.4161  -13.4465 O   0  0  0  0  0  0  0  0  0  0  0  0
  1  2  1  0
  2  3  2  0
  2  4  1  0
  4  5  1  0
  6  5  1  0
  6  7  1  6
  8  9  2  0
  8  6  1  0
 10 11  1  0
 11 21  2  0
 12 11  1  0
 12 13  2  0
 13 14  1  0
 14 15  1  0
 16 15  1  1
 16 17  1  0
 17  8  1  0
 18 16  1  0
 18 26  1  0
 19 18  2  0
 20 14  2  0
 21 20  1  0
 23 22  1  6
 23 25  1  0
 24 23  1  0
 25 26  1  1
 25 27  1  0
 27 29  1  0
 28 27  2  0
M  END
$$$$
