QYT.pdb
     RDKit          3D

 29 29  0  0  1  0  0  0  0  0999 V2000
   16.5890  -13.8396  -15.4254 N   0  0  0  0  0  0  0  0  0  0  0  0
   17.1713  -13.8394  -16.7172 C   0  0  0  0  0  0  0  0  0  0  0  0
   17.2149  -14.9133  -17.3524 O   0  0  0  0  0  0  0  0  0  0  0  0
   17.7171  -12.5975  -17.3028 C   0  0  0  0  0  0  0  0  0  0  0  0
   17.5914  -11.3921  -16.4268 C   0  0  0  0  0  0  0  0  0  0  0  0
   18.8225  -10.5697  -16.2719 C   0  0  2  0  0  0  0  0  0  0  0  0
   19.9088  -11.3575  -15.6759 N   0  0  0  0  0  0  0  0  0  0  0  0
   18.6400   -9.3145  -15.5026 C   0  0  0  0  0  0  0  0  0  0  0  0
   17.7858   -8.4872  -15.8998 O   0  0  0  0  0  0  0  0  0  0  0  0
   17.9565   -3.3193   -9.1153 O   0  0  0  0  0  0  0  0  0  0  0  0
   18.1352   -4.4850   -9.8806 C   0  0  0  0  0  0  0  0  0  0  0  0
   17.4408   -4.6237  -11.0424 C   0  0  0  0  0  0  0  0  0  0  0  0
   17.6219   -5.7802  -11.7961 C   0  0  0  0  0  0  0  0  0  0  0  0
   18.4750   -6.7879  -11.4124 C   0  0  0  0  0  0  0  0  0  0  0  0
   18.6401   -7.9891  -12.2317 C   0  0  0  0  0  0  0  0  0  0  0  0
   19.2260   -7.7685  -13.5810 C   0  0  2  0  0  0  0  0  0  0  0  0
   19.3849   -8.9980  -14.3337 N   0  0  0  0  0  0  0  0  0  0  0  0
   20.4564   -6.9712  -13.6277 C   0  0  0  0  0  0  0  0  0  0  0  0
   21.5359   -7.4056  -13.0928 O   0  0  0  0  0  0  0  0  0  0  0  0
   19.1652   -6.6118  -10.2238 C   0  0  0  0  0  0  0  0  0  0  0  0
   18.9952   -5.4654   -9.4624 C   0  0  0  0  0  0  0  0  0  0  0  0
   22.9622   -6.3000  -15.9195 C   0  0  0  0  0  0  0  0  0  0  0  0
   22.3805   -4.9294  -15.6453 C   0  0  1  0  0  0  0  0  0  0  0  0
   21.4297   -4.6458  -16.5939 O   0  0  0  0  0  0  0  0  0  0  0  0
   21.7927   -4.9070  -14.2197 C   0  0  2  0  0  0  0  0  0  0  0  0
   20.5813   -5.6979  -14.2406 N   0  0  0  0  0  0  0  0  0  0  0  0
   21.4095   -3.4916  -13.9938 C   0  0  0  0  0  0  0  0  0  0  0  0
   20.2084   -3.1166  -13.9571 O   0  0  0  0  0  0  0  0  0  0  0  0
   22.3535   -2.4865  -13.8078 O   0  0  0  0  0  0  0  0  0  0  0  0
  1  2  1  0
  2  3  2  0
  2  4  1  0
  4  5  1  0
  6  5  1  0
  6  7  1  1
  8  9  2  0
  8  6  1  0
 10 11  1  0
 11 21  2  0
 12 11  1  0
 12 13  2  0
 13 14  1  0
 14 15  1  0
 16 15  1  1
 16 17  1  0
 17  8  1  0
 18 16  1  0
 18 26  1  0
 19 18  2  0
 20 14  2  0
 21 20  1  0
 23 22  1  6
 23 25  1  0
 24 23  1  0
 25 26  1  6
 25 27  1  0
 27 29  1  0
 28 27  2  0
M  END
$$$$
