MPI.pdb
     RDKit          3D

 24 24  0  0  1  0  0  0  0  0999 V2000
    9.7117  -12.0686   19.1758 C   0  0  0  0  0  0  0  0  0  0  0  0
    8.3896  -11.8942   20.3752 S   0  0  0  0  0  0  0  0  0  0  0  0
    7.4605  -13.4279   20.6114 C   0  0  0  0  0  0  0  0  0  0  0  0
    8.1893  -14.6083   19.9953 C   0  0  0  0  0  0  0  0  0  0  0  0
    7.4565  -15.9134   20.3263 C   0  0  2  0  0  0  0  0  0  0  0  0
    6.1339  -15.7718   19.8300 N   0  0  0  0  0  0  0  0  0  0  0  0
    7.6069  -16.2894   21.7262 C   0  0  0  0  0  0  0  0  0  0  0  0
    6.5348  -16.2250   22.4257 O   0  0  0  0  0  0  0  0  0  0  0  0
    8.7804  -16.7106   22.3953 N   0  0  0  0  0  0  0  0  0  0  0  0
   10.1504  -16.7526   21.9465 C   0  0  0  0  0  0  0  0  0  0  0  0
   10.6803  -18.0093   22.5856 C   0  0  0  0  0  0  0  0  0  0  0  0
    9.7371  -18.3433   23.7073 C   0  0  0  0  0  0  0  0  0  0  0  0
    8.7999  -17.1982   23.7556 C   0  0  1  0  0  0  0  0  0  0  0  0
    9.2695  -16.0622   24.6290 C   0  0  0  0  0  0  0  0  0  0  0  0
   10.1678  -15.2978   24.2022 O   0  0  0  0  0  0  0  0  0  0  0  0
    6.0650  -12.4784   26.0095 C   0  0  0  0  0  0  0  0  0  0  0  0
    7.2711  -13.3086   25.8065 C   0  0  0  0  0  0  0  0  0  0  0  0
    8.0518  -13.7739   26.9485 C   0  0  2  0  0  0  0  0  0  0  0  0
    8.4417  -12.5892   27.8533 C   0  0  0  0  0  0  0  0  0  0  0  0
    9.1350  -14.7333   26.7684 C   0  0  2  0  0  0  0  0  0  0  0  0
    8.7279  -15.8425   25.9003 N   0  0  0  0  0  0  0  0  0  0  0  0
   10.0170  -15.1568   27.8400 C   0  0  0  0  0  0  0  0  0  0  0  0
   11.0148  -14.4591   28.1502 O   0  0  0  0  0  0  0  0  0  0  0  0
    9.8557  -16.2946   28.5884 O   0  0  0  0  0  0  0  0  0  0  0  0
  1  2  1  0
  3  2  1  0
  4  3  1  0
  5  6  1  1
  5  4  1  0
  7  5  1  0
  8  7  2  0
  9 10  1  0
  9  7  1  0
 11 10  1  0
 12 11  1  0
 12 13  1  0
 13  9  1  0
 13 14  1  1
 14 15  2  0
 17 18  1  0
 17 16  1  0
 18 20  1  0
 18 19  1  6
 20 21  1  1
 21 14  1  0
 22 20  1  0
 23 22  2  0
 24 22  1  0
M  END
$$$$
