MPI.pdb
     RDKit          3D

 24 24  0  0  1  0  0  0  0  0999 V2000
    6.4607  -12.0103   26.6252 C   0  0  0  0  0  0  0  0  0  0  0  0
    4.8063  -12.6870   26.7737 S   0  0  0  0  0  0  0  0  0  0  0  0
    4.6187  -14.2590   25.8989 C   0  0  0  0  0  0  0  0  0  0  0  0
    5.9692  -14.8300   25.5062 C   0  0  0  0  0  0  0  0  0  0  0  0
    5.7826  -16.0893   24.6523 C   0  0  2  0  0  0  0  0  0  0  0  0
    5.1939  -17.0671   25.4967 N   0  0  0  0  0  0  0  0  0  0  0  0
    7.0028  -16.4633   23.9488 C   0  0  0  0  0  0  0  0  0  0  0  0
    7.1842  -17.7239   23.8051 O   0  0  0  0  0  0  0  0  0  0  0  0
    7.9976  -15.6110   23.4136 N   0  0  0  0  0  0  0  0  0  0  0  0
    8.1286  -14.1756   23.4670 C   0  0  0  0  0  0  0  0  0  0  0  0
    8.6955  -13.8344   22.1139 C   0  0  0  0  0  0  0  0  0  0  0  0
    9.2745  -15.1081   21.5646 C   0  0  0  0  0  0  0  0  0  0  0  0
    9.1464  -16.0808   22.6734 C   0  0  1  0  0  0  0  0  0  0  0  0
   10.3180  -16.0812   23.6228 C   0  0  0  0  0  0  0  0  0  0  0  0
   11.4721  -15.9027   23.1650 O   0  0  0  0  0  0  0  0  0  0  0  0
   11.5336  -13.3917   28.7606 C   0  0  0  0  0  0  0  0  0  0  0  0
   11.8575  -14.5422   27.8909 C   0  0  0  0  0  0  0  0  0  0  0  0
   11.0488  -14.8304   26.7107 C   0  0  2  0  0  0  0  0  0  0  0  0
    9.5705  -14.4842   26.9727 C   0  0  0  0  0  0  0  0  0  0  0  0
   11.2198  -16.0795   25.9781 C   0  0  2  0  0  0  0  0  0  0  0  0
   10.1474  -16.2756   24.9979 N   0  0  0  0  0  0  0  0  0  0  0  0
   11.6440  -17.3209   26.5984 C   0  0  0  0  0  0  0  0  0  0  0  0
   12.7375  -17.3781   27.2146 O   0  0  0  0  0  0  0  0  0  0  0  0
   10.9300  -18.4917   26.5840 O   0  0  0  0  0  0  0  0  0  0  0  0
  1  2  1  0
  3  2  1  0
  4  3  1  0
  5  6  1  1
  5  4  1  0
  7  5  1  0
  8  7  2  0
  9 10  1  0
  9  7  1  0
 11 10  1  0
 12 11  1  0
 12 13  1  0
 13  9  1  0
 13 14  1  1
 14 15  2  0
 17 18  1  0
 17 16  1  0
 18 20  1  0
 18 19  1  1
 20 21  1  1
 21 14  1  0
 22 20  1  0
 23 22  2  0
 24 22  1  0
M  END
$$$$
