MPI.pdb
     RDKit          3D

 24 24  0  0  1  0  0  0  0  0999 V2000
    7.1314  -20.2932   22.3540 C   0  0  0  0  0  0  0  0  0  0  0  0
    8.8437  -20.2385   22.8848 S   0  0  0  0  0  0  0  0  0  0  0  0
    9.7456  -18.8403   22.1756 C   0  0  0  0  0  0  0  0  0  0  0  0
    9.4017  -18.6562   20.7086 C   0  0  0  0  0  0  0  0  0  0  0  0
   10.0938  -17.4048   20.1564 C   0  0  2  0  0  0  0  0  0  0  0  0
   11.4608  -17.7440   19.9780 N   0  0  0  0  0  0  0  0  0  0  0  0
    9.7991  -16.2178   20.9486 C   0  0  0  0  0  0  0  0  0  0  0  0
   10.8087  -15.6905   21.5363 O   0  0  0  0  0  0  0  0  0  0  0  0
    8.5472  -15.5876   21.1438 N   0  0  0  0  0  0  0  0  0  0  0  0
    7.2314  -15.9559   20.6820 C   0  0  0  0  0  0  0  0  0  0  0  0
    6.5921  -14.6263   20.3783 C   0  0  0  0  0  0  0  0  0  0  0  0
    7.3993  -13.5917   21.1112 C   0  0  0  0  0  0  0  0  0  0  0  0
    8.3670  -14.3764   21.9111 C   0  0  1  0  0  0  0  0  0  0  0  0
    7.8496  -14.7819   23.2682 C   0  0  0  0  0  0  0  0  0  0  0  0
    7.5887  -15.9898   23.4838 O   0  0  0  0  0  0  0  0  0  0  0  0
    5.8027  -10.9241   26.5045 C   0  0  0  0  0  0  0  0  0  0  0  0
    6.9489  -11.8074   26.2024 C   0  0  0  0  0  0  0  0  0  0  0  0
    6.8815  -13.2357   26.4947 C   0  0  2  0  0  0  0  0  0  0  0  0
    6.9793  -13.4803   28.0128 C   0  0  0  0  0  0  0  0  0  0  0  0
    7.6554  -14.1927   25.7128 C   0  0  2  0  0  0  0  0  0  0  0  0
    7.6543  -13.8446   24.2886 N   0  0  0  0  0  0  0  0  0  0  0  0
    7.6208  -15.6258   25.9379 C   0  0  0  0  0  0  0  0  0  0  0  0
    8.5297  -16.1832   26.6026 O   0  0  0  0  0  0  0  0  0  0  0  0
    6.6418  -16.4706   25.4809 O   0  0  0  0  0  0  0  0  0  0  0  0
  1  2  1  0
  3  2  1  0
  4  3  1  0
  5  6  1  1
  5  4  1  0
  7  5  1  0
  8  7  2  0
  9 10  1  0
  9  7  1  0
 11 10  1  0
 12 11  1  0
 12 13  1  0
 13  9  1  0
 13 14  1  1
 14 15  2  0
 17 18  1  0
 17 16  1  0
 18 20  1  0
 18 19  1  1
 20 21  1  6
 21 14  1  0
 22 20  1  0
 23 22  2  0
 24 22  1  0
M  END
$$$$
