MPI.pdb
     RDKit          3D

 24 24  0  0  1  0  0  0  0  0999 V2000
    8.1986  -12.7665   17.4466 C   0  0  0  0  0  0  0  0  0  0  0  0
    6.9644  -13.1477   18.6909 S   0  0  0  0  0  0  0  0  0  0  0  0
    7.3921  -14.6090   19.6673 C   0  0  0  0  0  0  0  0  0  0  0  0
    8.8846  -14.8814   19.6175 C   0  0  0  0  0  0  0  0  0  0  0  0
    9.2437  -16.0323   20.5643 C   0  0  2  0  0  0  0  0  0  0  0  0
    8.4324  -17.1346   20.1871 N   0  0  0  0  0  0  0  0  0  0  0  0
    9.2082  -15.6259   21.9633 C   0  0  0  0  0  0  0  0  0  0  0  0
   10.1062  -14.7786   22.3074 O   0  0  0  0  0  0  0  0  0  0  0  0
    8.3124  -16.0508   22.9728 N   0  0  0  0  0  0  0  0  0  0  0  0
    7.3612  -17.1349   22.9850 C   0  0  0  0  0  0  0  0  0  0  0  0
    6.2039  -16.5645   23.7621 C   0  0  0  0  0  0  0  0  0  0  0  0
    6.7455  -15.3877   24.5244 C   0  0  0  0  0  0  0  0  0  0  0  0
    8.2034  -15.4211   24.2690 C   0  0  1  0  0  0  0  0  0  0  0  0
    8.9742  -16.2741   25.2447 C   0  0  0  0  0  0  0  0  0  0  0  0
    9.5913  -17.2796   24.8184 O   0  0  0  0  0  0  0  0  0  0  0  0
    9.6378  -12.9622   29.2072 C   0  0  0  0  0  0  0  0  0  0  0  0
   10.3025  -13.9059   28.2838 C   0  0  0  0  0  0  0  0  0  0  0  0
   10.2972  -15.3394   28.5581 C   0  0  2  0  0  0  0  0  0  0  0  0
   11.4262  -15.7040   29.5413 C   0  0  0  0  0  0  0  0  0  0  0  0
   10.1525  -16.3041   27.4743 C   0  0  2  0  0  0  0  0  0  0  0  0
    9.0162  -15.9707   26.6099 N   0  0  0  0  0  0  0  0  0  0  0  0
   10.3228  -17.7348   27.6467 C   0  0  0  0  0  0  0  0  0  0  0  0
   11.4493  -18.2629   27.4712 O   0  0  0  0  0  0  0  0  0  0  0  0
    9.3284  -18.6076   28.0077 O   0  0  0  0  0  0  0  0  0  0  0  0
  1  2  1  0
  3  2  1  0
  4  3  1  0
  5  6  1  1
  5  4  1  0
  7  5  1  0
  8  7  2  0
  9 10  1  0
  9  7  1  0
 11 10  1  0
 12 11  1  0
 12 13  1  0
 13  9  1  0
 13 14  1  1
 14 15  2  0
 17 18  1  0
 17 16  1  0
 18 20  1  0
 18 19  1  6
 20 21  1  1
 21 14  1  0
 22 20  1  0
 23 22  2  0
 24 22  1  0
M  END
$$$$
