MPI.pdb
     RDKit          3D

 24 24  0  0  1  0  0  0  0  0999 V2000
    6.4349  -12.3803   26.1279 C   0  0  0  0  0  0  0  0  0  0  0  0
    7.1188  -13.7971   26.9892 S   0  0  0  0  0  0  0  0  0  0  0  0
    6.8964  -15.3402   26.0722 C   0  0  0  0  0  0  0  0  0  0  0  0
    6.3884  -15.0721   24.6671 C   0  0  0  0  0  0  0  0  0  0  0  0
    6.3674  -16.3723   23.8555 C   0  0  2  0  0  0  0  0  0  0  0  0
    5.4462  -17.2379   24.5020 N   0  0  0  0  0  0  0  0  0  0  0  0
    7.7074  -16.8890   23.6086 C   0  0  0  0  0  0  0  0  0  0  0  0
    7.8520  -18.1466   23.8095 O   0  0  0  0  0  0  0  0  0  0  0  0
    8.8522  -16.1762   23.1800 N   0  0  0  0  0  0  0  0  0  0  0  0
    8.9982  -14.8040   22.7604 C   0  0  0  0  0  0  0  0  0  0  0  0
   10.0185  -14.8918   21.6559 C   0  0  0  0  0  0  0  0  0  0  0  0
   10.7168  -16.2115   21.8294 C   0  0  0  0  0  0  0  0  0  0  0  0
   10.1746  -16.7530   23.0961 C   0  0  1  0  0  0  0  0  0  0  0  0
   10.9320  -16.3103   24.3225 C   0  0  0  0  0  0  0  0  0  0  0  0
   11.6704  -15.2989   24.2494 O   0  0  0  0  0  0  0  0  0  0  0  0
    9.8978  -13.2222   28.5961 C   0  0  0  0  0  0  0  0  0  0  0  0
   10.7949  -14.3401   28.2347 C   0  0  0  0  0  0  0  0  0  0  0  0
   10.5683  -15.1079   27.0144 C   0  0  2  0  0  0  0  0  0  0  0  0
    9.0733  -15.0989   26.6418 C   0  0  0  0  0  0  0  0  0  0  0  0
   11.1934  -16.4122   26.8289 C   0  0  2  0  0  0  0  0  0  0  0  0
   10.8305  -16.9999   25.5357 N   0  0  0  0  0  0  0  0  0  0  0  0
   11.3057  -17.4042   27.8819 C   0  0  0  0  0  0  0  0  0  0  0  0
   12.0397  -17.1878   28.8785 O   0  0  0  0  0  0  0  0  0  0  0  0
   10.6513  -18.6094   27.9005 O   0  0  0  0  0  0  0  0  0  0  0  0
  1  2  1  0
  3  2  1  0
  4  3  1  0
  5  6  1  1
  5  4  1  0
  7  5  1  0
  8  7  2  0
  9 10  1  0
  9  7  1  0
 11 10  1  0
 12 11  1  0
 12 13  1  0
 13  9  1  0
 13 14  1  1
 14 15  2  0
 17 18  1  0
 17 16  1  0
 18 20  1  0
 18 19  1  1
 20 21  1  6
 21 14  1  0
 22 20  1  0
 23 22  2  0
 24 22  1  0
M  END
$$$$
