MPI.pdb
     RDKit          3D

 24 24  0  0  1  0  0  0  0  0999 V2000
    9.4626  -21.7163   23.2655 C   0  0  0  0  0  0  0  0  0  0  0  0
    8.3320  -20.3937   23.7006 S   0  0  0  0  0  0  0  0  0  0  0  0
    8.3684  -19.0309   22.5119 C   0  0  0  0  0  0  0  0  0  0  0  0
    9.4130  -19.2714   21.4371 C   0  0  0  0  0  0  0  0  0  0  0  0
    9.4279  -18.1040   20.4438 C   0  0  2  0  0  0  0  0  0  0  0  0
   10.4546  -18.3853   19.5044 N   0  0  0  0  0  0  0  0  0  0  0  0
    9.4735  -16.8110   21.1143 C   0  0  0  0  0  0  0  0  0  0  0  0
   10.6343  -16.4474   21.5181 O   0  0  0  0  0  0  0  0  0  0  0  0
    8.4024  -15.9223   21.3696 N   0  0  0  0  0  0  0  0  0  0  0  0
    6.9935  -16.0483   21.0879 C   0  0  0  0  0  0  0  0  0  0  0  0
    6.5940  -14.6455   20.7122 C   0  0  0  0  0  0  0  0  0  0  0  0
    7.6715  -13.7423   21.2438 C   0  0  0  0  0  0  0  0  0  0  0  0
    8.5578  -14.6403   22.0184 C   0  0  1  0  0  0  0  0  0  0  0  0
    8.1414  -14.8160   23.4569 C   0  0  0  0  0  0  0  0  0  0  0  0
    7.3320  -15.7287   23.7490 O   0  0  0  0  0  0  0  0  0  0  0  0
    5.6603  -11.6900   26.3992 C   0  0  0  0  0  0  0  0  0  0  0  0
    6.9128  -12.3138   25.9225 C   0  0  0  0  0  0  0  0  0  0  0  0
    7.3740  -13.5774   26.4887 C   0  0  2  0  0  0  0  0  0  0  0  0
    7.4630  -13.4795   28.0238 C   0  0  0  0  0  0  0  0  0  0  0  0
    8.4999  -14.2910   25.8976 C   0  0  2  0  0  0  0  0  0  0  0  0
    8.6356  -13.9867   24.4698 N   0  0  0  0  0  0  0  0  0  0  0  0
    8.8273  -15.6700   26.2088 C   0  0  0  0  0  0  0  0  0  0  0  0
    9.5693  -15.9382   27.1866 O   0  0  0  0  0  0  0  0  0  0  0  0
    8.3780  -16.7619   25.5112 O   0  0  0  0  0  0  0  0  0  0  0  0
  1  2  1  0
  3  2  1  0
  4  3  1  0
  5  6  1  6
  5  4  1  0
  7  5  1  0
  8  7  2  0
  9 10  1  0
  9  7  1  0
 11 10  1  0
 12 11  1  0
 12 13  1  0
 13  9  1  0
 13 14  1  1
 14 15  2  0
 17 18  1  0
 17 16  1  0
 18 20  1  0
 18 19  1  1
 20 21  1  6
 21 14  1  0
 22 20  1  0
 23 22  2  0
 24 22  1  0
M  END
$$$$
