MIQ.pdb
     RDKit          3D

 26 25  0  0  1  0  0  0  0  0999 V2000
   22.1561  -24.2391  -13.9618 C   0  0  0  0  0  0  0  0  0  0  0  0
   23.7315  -25.0907  -13.8152 S   0  0  0  0  0  0  0  0  0  0  0  0
   25.0840  -24.0381  -13.3294 C   0  0  0  0  0  0  0  0  0  0  0  0
   24.9293  -22.5863  -13.6459 C   0  0  0  0  0  0  0  0  0  0  0  0
   26.0314  -21.6996  -13.1738 C   0  0  2  0  0  0  0  0  0  0  0  0
   26.2048  -21.7262  -11.7424 N   0  0  0  0  0  0  0  0  0  0  0  0
   25.6137  -20.2937  -13.5462 C   0  0  0  0  0  0  0  0  0  0  0  0
   25.0578  -19.6246  -12.6733 O   0  0  0  0  0  0  0  0  0  0  0  0
   28.9879  -17.6190  -16.7786 C   0  0  0  0  0  0  0  0  0  0  0  0
   28.0181  -17.9569  -15.6280 C   0  0  0  0  0  0  0  0  0  0  0  0
   26.6167  -18.0065  -16.1718 C   0  0  2  0  0  0  0  0  0  0  0  0
   26.3797  -16.7149  -16.9003 C   0  0  0  0  0  0  0  0  0  0  0  0
   25.5572  -18.5191  -15.3207 C   0  0  2  0  0  0  0  0  0  0  0  0
   25.8982  -19.8528  -14.8832 N   0  0  0  0  0  0  0  0  0  0  0  0
   24.1570  -18.5081  -15.7493 C   0  0  0  0  0  0  0  0  0  0  0  0
   23.7873  -19.3644  -16.5960 O   0  0  0  0  0  0  0  0  0  0  0  0
   19.7578  -19.3890  -12.1162 N   0  0  0  0  0  0  0  0  0  0  0  0
   18.9991  -19.0664  -13.2575 C   0  0  0  0  0  0  0  0  0  0  0  0
   17.7263  -19.2234  -13.1772 O   0  0  0  0  0  0  0  0  0  0  0  0
   19.6116  -18.5594  -14.5073 C   0  0  0  0  0  0  0  0  0  0  0  0
   21.0823  -18.3972  -14.3863 C   0  0  0  0  0  0  0  0  0  0  0  0
   21.7561  -17.9119  -15.6153 C   0  0  2  0  0  0  0  0  0  0  0  0
   23.1760  -17.6184  -15.2946 N   0  0  0  0  0  0  0  0  0  0  0  0
   21.2525  -16.7615  -16.3303 C   0  0  0  0  0  0  0  0  0  0  0  0
   20.2022  -16.8681  -17.2235 O   0  0  0  0  0  0  0  0  0  0  0  0
   21.7608  -15.6278  -16.1691 O   0  0  0  0  0  0  0  0  0  0  0  0
  2  1  1  0
  3  2  1  0
  4  5  1  0
  4  3  1  0
  5  7  1  0
  5  6  1  1
  7  8  2  0
  7 14  1  0
 10  9  1  0
 11 12  1  1
 11 10  1  0
 13 11  1  0
 13 14  1  6
 15 13  1  0
 15 16  2  0
 17 18  1  0
 18 20  1  0
 18 19  2  0
 20 21  1  0
 22 21  1  1
 22 23  1  0
 23 15  1  0
 24 22  1  0
 25 24  1  0
 26 24  2  0
M  END
$$$$
