MIQ.pdb
     RDKit          3D

 26 25  0  0  1  0  0  0  0  0999 V2000
   29.4967  -16.1368  -16.5674 C   0  0  0  0  0  0  0  0  0  0  0  0
   28.6851  -17.3364  -15.5040 S   0  0  0  0  0  0  0  0  0  0  0  0
   27.2691  -18.1234  -16.2447 C   0  0  0  0  0  0  0  0  0  0  0  0
   26.5816  -19.1536  -15.4092 C   0  0  0  0  0  0  0  0  0  0  0  0
   27.4748  -20.0362  -14.6047 C   0  0  2  0  0  0  0  0  0  0  0  0
   28.2334  -20.9596  -15.4118 N   0  0  0  0  0  0  0  0  0  0  0  0
   26.5556  -20.8601  -13.7295 C   0  0  0  0  0  0  0  0  0  0  0  0
   26.1887  -21.9501  -14.1721 O   0  0  0  0  0  0  0  0  0  0  0  0
   26.8552  -20.4077   -8.3325 C   0  0  0  0  0  0  0  0  0  0  0  0
   26.6218  -21.1269   -9.6767 C   0  0  0  0  0  0  0  0  0  0  0  0
   25.3340  -20.6321  -10.2758 C   0  0  2  0  0  0  0  0  0  0  0  0
   24.2379  -20.9677   -9.3057 C   0  0  0  0  0  0  0  0  0  0  0  0
   25.0920  -20.8578  -11.6901 C   0  0  2  0  0  0  0  0  0  0  0  0
   26.1859  -20.3076  -12.4563 N   0  0  0  0  0  0  0  0  0  0  0  0
   23.8307  -20.4675  -12.3235 C   0  0  0  0  0  0  0  0  0  0  0  0
   23.7325  -19.2988  -12.7832 O   0  0  0  0  0  0  0  0  0  0  0  0
   21.5911  -19.2644  -17.2530 N   0  0  0  0  0  0  0  0  0  0  0  0
   21.2541  -20.6078  -17.0002 C   0  0  0  0  0  0  0  0  0  0  0  0
   21.4048  -21.4404  -17.9672 O   0  0  0  0  0  0  0  0  0  0  0  0
   20.7527  -21.0723  -15.6861 C   0  0  0  0  0  0  0  0  0  0  0  0
   21.8534  -21.3277  -14.7233 C   0  0  0  0  0  0  0  0  0  0  0  0
   21.6045  -20.8273  -13.3494 C   0  0  2  0  0  0  0  0  0  0  0  0
   22.7066  -21.2897  -12.4681 N   0  0  0  0  0  0  0  0  0  0  0  0
   20.3728  -21.1378  -12.6605 C   0  0  0  0  0  0  0  0  0  0  0  0
   20.2750  -22.2211  -11.8066 O   0  0  0  0  0  0  0  0  0  0  0  0
   19.3472  -20.4368  -12.8238 O   0  0  0  0  0  0  0  0  0  0  0  0
  2  1  1  0
  3  2  1  0
  4  5  1  0
  4  3  1  0
  5  7  1  0
  5  6  1  6
  7  8  2  0
  7 14  1  0
 10  9  1  0
 11 12  1  1
 11 10  1  0
 13 11  1  0
 13 14  1  6
 15 13  1  0
 15 16  2  0
 17 18  1  0
 18 20  1  0
 18 19  2  0
 20 21  1  0
 22 21  1  6
 22 23  1  0
 23 15  1  0
 24 22  1  0
 25 24  1  0
 26 24  2  0
M  END
$$$$
