MIQ.pdb
     RDKit          3D

 26 25  0  0  1  0  0  0  0  0999 V2000
   27.4321  -12.8534  -15.6855 C   0  0  0  0  0  0  0  0  0  0  0  0
   27.0295  -14.5621  -15.3019 S   0  0  0  0  0  0  0  0  0  0  0  0
   25.7214  -15.2424  -16.3015 C   0  0  0  0  0  0  0  0  0  0  0  0
   25.4050  -16.6842  -16.0718 C   0  0  0  0  0  0  0  0  0  0  0  0
   26.5760  -17.5713  -15.8154 C   0  0  2  0  0  0  0  0  0  0  0  0
   27.3655  -17.8212  -16.9960 N   0  0  0  0  0  0  0  0  0  0  0  0
   25.9960  -18.8986  -15.3777 C   0  0  0  0  0  0  0  0  0  0  0  0
   25.7018  -19.7014  -16.2652 O   0  0  0  0  0  0  0  0  0  0  0  0
   28.2167  -21.2908  -11.1882 C   0  0  0  0  0  0  0  0  0  0  0  0
   27.5408  -21.0667  -12.5562 C   0  0  0  0  0  0  0  0  0  0  0  0
   26.0746  -20.8118  -12.3382 C   0  0  2  0  0  0  0  0  0  0  0  0
   25.5463  -21.9501  -11.5135 C   0  0  0  0  0  0  0  0  0  0  0  0
   25.2749  -20.3459  -13.4577 C   0  0  2  0  0  0  0  0  0  0  0  0
   25.8357  -19.1161  -13.9671 N   0  0  0  0  0  0  0  0  0  0  0  0
   23.8226  -20.1918  -13.3503 C   0  0  0  0  0  0  0  0  0  0  0  0
   23.3749  -19.2430  -12.6530 O   0  0  0  0  0  0  0  0  0  0  0  0
   18.8258  -17.9876  -13.3649 N   0  0  0  0  0  0  0  0  0  0  0  0
   19.0760  -18.4802  -14.6599 C   0  0  0  0  0  0  0  0  0  0  0  0
   19.0210  -17.6363  -15.6273 O   0  0  0  0  0  0  0  0  0  0  0  0
   19.3980  -19.9013  -14.9260 C   0  0  0  0  0  0  0  0  0  0  0  0
   20.8615  -20.1463  -14.9729 C   0  0  0  0  0  0  0  0  0  0  0  0
   21.4337  -20.7252  -13.7330 C   0  0  2  0  0  0  0  0  0  0  0  0
   22.8715  -21.0162  -13.9638 N   0  0  0  0  0  0  0  0  0  0  0  0
   20.8658  -21.9149  -13.1411 C   0  0  0  0  0  0  0  0  0  0  0  0
   19.6654  -21.8792  -12.4556 O   0  0  0  0  0  0  0  0  0  0  0  0
   21.4515  -23.0194  -13.2231 O   0  0  0  0  0  0  0  0  0  0  0  0
  2  1  1  0
  3  2  1  0
  4  5  1  0
  4  3  1  0
  5  7  1  0
  5  6  1  6
  7  8  2  0
  7 14  1  0
 10  9  1  0
 11 12  1  6
 11 10  1  0
 13 11  1  0
 13 14  1  1
 15 13  1  0
 15 16  2  0
 17 18  1  0
 18 20  1  0
 18 19  2  0
 20 21  1  0
 22 21  1  6
 22 23  1  0
 23 15  1  0
 24 22  1  0
 25 24  1  0
 26 24  2  0
M  END
$$$$
