MIQ.pdb
     RDKit          3D

 26 25  0  0  1  0  0  0  0  0999 V2000
   21.7479  -20.1502  -20.0713 C   0  0  0  0  0  0  0  0  0  0  0  0
   20.2944  -20.6554  -19.1434 S   0  0  0  0  0  0  0  0  0  0  0  0
   20.4577  -20.4697  -17.3793 C   0  0  0  0  0  0  0  0  0  0  0  0
   20.9959  -19.1586  -16.9067 C   0  0  0  0  0  0  0  0  0  0  0  0
   22.2425  -19.2264  -16.0911 C   0  0  2  0  0  0  0  0  0  0  0  0
   22.1203  -20.0892  -14.9420 N   0  0  0  0  0  0  0  0  0  0  0  0
   22.4694  -17.8230  -15.5727 C   0  0  0  0  0  0  0  0  0  0  0  0
   21.8996  -17.5139  -14.5247 O   0  0  0  0  0  0  0  0  0  0  0  0
   27.3884  -16.2902  -15.3290 C   0  0  0  0  0  0  0  0  0  0  0  0
   25.8915  -16.4484  -14.9929 C   0  0  0  0  0  0  0  0  0  0  0  0
   25.0998  -15.4858  -15.8346 C   0  0  2  0  0  0  0  0  0  0  0  0
   25.6640  -14.1161  -15.5881 C   0  0  0  0  0  0  0  0  0  0  0  0
   23.6558  -15.6337  -15.8899 C   0  0  2  0  0  0  0  0  0  0  0  0
   23.3285  -16.9662  -16.3412 N   0  0  0  0  0  0  0  0  0  0  0  0
   22.8141  -14.6739  -16.6072 C   0  0  0  0  0  0  0  0  0  0  0  0
   22.8093  -14.7114  -17.8663 O   0  0  0  0  0  0  0  0  0  0  0  0
   17.6789  -11.6041  -14.7074 N   0  0  0  0  0  0  0  0  0  0  0  0
   17.8955  -11.1002  -16.0041 C   0  0  0  0  0  0  0  0  0  0  0  0
   17.0510  -10.2380  -16.4451 O   0  0  0  0  0  0  0  0  0  0  0  0
   19.0410  -11.5206  -16.8438 C   0  0  0  0  0  0  0  0  0  0  0  0
   19.9133  -12.5032  -16.1528 C   0  0  0  0  0  0  0  0  0  0  0  0
   21.1508  -12.8595  -16.8887 C   0  0  2  0  0  0  0  0  0  0  0  0
   21.9997  -13.7038  -16.0103 N   0  0  0  0  0  0  0  0  0  0  0  0
   22.0136  -11.8327  -17.4265 C   0  0  0  0  0  0  0  0  0  0  0  0
   21.7103  -11.1780  -18.6062 O   0  0  0  0  0  0  0  0  0  0  0  0
   23.0736  -11.5088  -16.8423 O   0  0  0  0  0  0  0  0  0  0  0  0
  2  1  1  0
  3  2  1  0
  4  5  1  0
  4  3  1  0
  5  7  1  0
  5  6  1  1
  7  8  2  0
  7 14  1  0
 10  9  1  0
 11 12  1  1
 11 10  1  0
 13 11  1  0
 13 14  1  6
 15 13  1  0
 15 16  2  0
 17 18  1  0
 18 20  1  0
 18 19  2  0
 20 21  1  0
 22 21  1  1
 22 23  1  0
 23 15  1  0
 24 22  1  0
 25 24  1  0
 26 24  2  0
M  END
$$$$
