MIQ.pdb
     RDKit          3D

 26 25  0  0  1  0  0  0  0  0999 V2000
   27.0842  -15.6949  -14.8145 C   0  0  0  0  0  0  0  0  0  0  0  0
   26.9858  -16.8067  -16.2226 S   0  0  0  0  0  0  0  0  0  0  0  0
   27.2971  -18.5145  -15.8232 C   0  0  0  0  0  0  0  0  0  0  0  0
   27.8885  -18.7739  -14.4761 C   0  0  0  0  0  0  0  0  0  0  0  0
   28.2595  -20.1904  -14.1936 C   0  0  2  0  0  0  0  0  0  0  0  0
   28.5831  -20.9383  -15.3833 N   0  0  0  0  0  0  0  0  0  0  0  0
   27.0250  -20.8244  -13.5903 C   0  0  0  0  0  0  0  0  0  0  0  0
   26.4626  -21.6975  -14.2535 O   0  0  0  0  0  0  0  0  0  0  0  0
   26.8425  -20.4464   -8.1110 C   0  0  0  0  0  0  0  0  0  0  0  0
   26.7171  -21.2053   -9.4477 C   0  0  0  0  0  0  0  0  0  0  0  0
   25.5414  -20.6578  -10.2094 C   0  0  2  0  0  0  0  0  0  0  0  0
   24.3207  -20.8948   -9.3675 C   0  0  0  0  0  0  0  0  0  0  0  0
   25.4531  -20.9186  -11.6355 C   0  0  2  0  0  0  0  0  0  0  0  0
   26.6092  -20.3594  -12.2966 N   0  0  0  0  0  0  0  0  0  0  0  0
   24.2569  -20.5710  -12.4054 C   0  0  0  0  0  0  0  0  0  0  0  0
   24.1549  -19.3961  -12.8481 O   0  0  0  0  0  0  0  0  0  0  0  0
   22.1414  -23.3461  -17.1859 N   0  0  0  0  0  0  0  0  0  0  0  0
   21.1674  -22.3412  -17.0314 C   0  0  0  0  0  0  0  0  0  0  0  0
   20.3224  -22.1936  -17.9881 O   0  0  0  0  0  0  0  0  0  0  0  0
   21.0905  -21.4812  -15.8278 C   0  0  0  0  0  0  0  0  0  0  0  0
   22.1711  -21.7792  -14.8546 C   0  0  0  0  0  0  0  0  0  0  0  0
   22.1310  -20.9661  -13.6147 C   0  0  2  0  0  0  0  0  0  0  0  0
   23.2001  -21.4410  -12.7000 N   0  0  0  0  0  0  0  0  0  0  0  0
   20.9245  -20.8814  -12.8240 C   0  0  0  0  0  0  0  0  0  0  0  0
   19.8944  -20.0245  -13.1660 O   0  0  0  0  0  0  0  0  0  0  0  0
   20.7778  -21.5785  -11.7933 O   0  0  0  0  0  0  0  0  0  0  0  0
  2  1  1  0
  3  2  1  0
  4  5  1  0
  4  3  1  0
  5  7  1  0
  5  6  1  6
  7  8  2  0
  7 14  1  0
 10  9  1  0
 11 12  1  1
 11 10  1  0
 13 11  1  0
 13 14  1  6
 15 13  1  0
 15 16  2  0
 17 18  1  0
 18 20  1  0
 18 19  2  0
 20 21  1  0
 22 21  1  6
 22 23  1  0
 23 15  1  0
 24 22  1  0
 25 24  1  0
 26 24  2  0
M  END
$$$$
