MIQ.pdb
     RDKit          3D

 26 25  0  0  1  0  0  0  0  0999 V2000
   26.2571  -15.9295  -15.1675 C   0  0  0  0  0  0  0  0  0  0  0  0
   27.2892  -16.7788  -16.3683 S   0  0  0  0  0  0  0  0  0  0  0  0
   27.9931  -18.3029  -15.7726 C   0  0  0  0  0  0  0  0  0  0  0  0
   27.5451  -18.7446  -14.4176 C   0  0  0  0  0  0  0  0  0  0  0  0
   28.1245  -20.0298  -13.9310 C   0  0  2  0  0  0  0  0  0  0  0  0
   28.7087  -20.8217  -14.9851 N   0  0  0  0  0  0  0  0  0  0  0  0
   26.9597  -20.8189  -13.3739 C   0  0  0  0  0  0  0  0  0  0  0  0
   26.6192  -21.8282  -13.9935 O   0  0  0  0  0  0  0  0  0  0  0  0
   26.4454  -20.9566   -7.9760 C   0  0  0  0  0  0  0  0  0  0  0  0
   26.4552  -21.4500   -9.4372 C   0  0  0  0  0  0  0  0  0  0  0  0
   25.2562  -20.8863  -10.1489 C   0  0  2  0  0  0  0  0  0  0  0  0
   24.0443  -21.2870   -9.3578 C   0  0  0  0  0  0  0  0  0  0  0  0
   25.1949  -20.9865  -11.5967 C   0  0  2  0  0  0  0  0  0  0  0  0
   26.3463  -20.3300  -12.1707 N   0  0  0  0  0  0  0  0  0  0  0  0
   24.0017  -20.5817  -12.3430 C   0  0  0  0  0  0  0  0  0  0  0  0
   23.8367  -19.3558  -12.5815 O   0  0  0  0  0  0  0  0  0  0  0  0
   21.8122  -22.5400  -17.5974 N   0  0  0  0  0  0  0  0  0  0  0  0
   21.8389  -23.4068  -16.4883 C   0  0  0  0  0  0  0  0  0  0  0  0
   21.8517  -24.6684  -16.7321 O   0  0  0  0  0  0  0  0  0  0  0  0
   21.8592  -22.9161  -15.0908 C   0  0  0  0  0  0  0  0  0  0  0  0
   22.0059  -21.4407  -15.0157 C   0  0  0  0  0  0  0  0  0  0  0  0
   21.9158  -20.8773  -13.6466 C   0  0  2  0  0  0  0  0  0  0  0  0
   23.0129  -21.4481  -12.8245 N   0  0  0  0  0  0  0  0  0  0  0  0
   20.7068  -21.0157  -12.8674 C   0  0  0  0  0  0  0  0  0  0  0  0
   19.5139  -20.4483  -13.2765 O   0  0  0  0  0  0  0  0  0  0  0  0
   20.7042  -21.6494  -11.7866 O   0  0  0  0  0  0  0  0  0  0  0  0
  2  1  1  0
  3  2  1  0
  4  5  1  0
  4  3  1  0
  5  7  1  0
  5  6  1  6
  7  8  2  0
  7 14  1  0
 10  9  1  0
 11 12  1  1
 11 10  1  0
 13 11  1  0
 13 14  1  6
 15 13  1  0
 15 16  2  0
 17 18  1  0
 18 20  1  0
 18 19  2  0
 20 21  1  0
 22 21  1  6
 22 23  1  0
 23 15  1  0
 24 22  1  0
 25 24  1  0
 26 24  2  0
M  END
$$$$
