MIQ.pdb
     RDKit          3D

 26 25  0  0  1  0  0  0  0  0999 V2000
   19.2576  -22.6383  -15.0214 C   0  0  0  0  0  0  0  0  0  0  0  0
   18.6088  -23.0547  -13.3983 S   0  0  0  0  0  0  0  0  0  0  0  0
   19.6282  -22.5043  -12.0452 C   0  0  0  0  0  0  0  0  0  0  0  0
   20.8069  -21.6637  -12.4140 C   0  0  0  0  0  0  0  0  0  0  0  0
   21.6863  -21.2497  -11.2831 C   0  0  2  0  0  0  0  0  0  0  0  0
   21.0374  -20.3493  -10.3624 N   0  0  0  0  0  0  0  0  0  0  0  0
   22.8344  -20.4918  -11.9135 C   0  0  0  0  0  0  0  0  0  0  0  0
   22.7545  -19.2621  -11.9254 O   0  0  0  0  0  0  0  0  0  0  0  0
   27.0296  -21.5677  -10.0040 C   0  0  0  0  0  0  0  0  0  0  0  0
   26.2368  -20.5124  -10.8019 C   0  0  0  0  0  0  0  0  0  0  0  0
   26.2486  -20.8929  -12.2569 C   0  0  2  0  0  0  0  0  0  0  0  0
   27.5846  -20.4860  -12.8090 C   0  0  0  0  0  0  0  0  0  0  0  0
   25.0654  -20.6262  -13.0561 C   0  0  2  0  0  0  0  0  0  0  0  0
   23.9222  -21.2640  -12.4456 N   0  0  0  0  0  0  0  0  0  0  0  0
   25.0380  -20.8899  -14.4963 C   0  0  0  0  0  0  0  0  0  0  0  0
   24.5605  -21.9866  -14.8913 O   0  0  0  0  0  0  0  0  0  0  0  0
   21.9227  -16.9845  -16.6752 N   0  0  0  0  0  0  0  0  0  0  0  0
   21.5431  -18.1343  -17.3936 C   0  0  0  0  0  0  0  0  0  0  0  0
   20.5770  -18.0082  -18.2313 O   0  0  0  0  0  0  0  0  0  0  0  0
   22.2136  -19.4435  -17.2186 C   0  0  0  0  0  0  0  0  0  0  0  0
   23.2762  -19.3964  -16.1830 C   0  0  0  0  0  0  0  0  0  0  0  0
   24.6295  -19.7649  -16.6655 C   0  0  2  0  0  0  0  0  0  0  0  0
   25.5006  -20.0184  -15.4898 N   0  0  0  0  0  0  0  0  0  0  0  0
   25.3691  -18.8834  -17.5395 C   0  0  0  0  0  0  0  0  0  0  0  0
   26.1506  -17.8580  -17.0396 O   0  0  0  0  0  0  0  0  0  0  0  0
   25.3172  -19.0158  -18.7844 O   0  0  0  0  0  0  0  0  0  0  0  0
  2  1  1  0
  3  2  1  0
  4  5  1  0
  4  3  1  0
  5  7  1  0
  5  6  1  1
  7  8  2  0
  7 14  1  0
 10  9  1  0
 11 12  1  6
 11 10  1  0
 13 11  1  0
 13 14  1  1
 15 13  1  0
 15 16  2  0
 17 18  1  0
 18 20  1  0
 18 19  2  0
 20 21  1  0
 22 21  1  1
 22 23  1  0
 23 15  1  0
 24 22  1  0
 25 24  1  0
 26 24  2  0
M  END
$$$$
