ISA.pdb
     RDKit          3D

 20 19  0  0  1  0  0  0  0  0999 V2000
    6.5912  -11.1928   27.3009 C   0  0  0  0  0  0  0  0  0  0  0  0
    5.9125  -12.3421   26.5572 C   0  0  0  0  0  0  0  0  0  0  0  0
    6.9364  -13.2465   25.9272 C   0  0  2  0  0  0  0  0  0  0  0  0
    7.9218  -12.4719   25.0869 C   0  0  0  0  0  0  0  0  0  0  0  0
    6.3506  -14.4158   25.2262 C   0  0  2  0  0  0  0  0  0  0  0  0
    5.5465  -15.1463   26.2181 N   0  0  0  0  0  0  0  0  0  0  0  0
    7.3246  -15.3765   24.6633 C   0  0  0  0  0  0  0  0  0  0  0  0
    7.9035  -16.2688   25.3642 O   0  0  0  0  0  0  0  0  0  0  0  0
    8.6270  -14.7905   20.8619 O   0  0  0  0  0  0  0  0  0  0  0  0
    8.5483  -16.1276   21.1428 C   0  0  0  0  0  0  0  0  0  0  0  0
    8.4949  -16.3586   22.6494 C   0  0  2  0  0  0  0  0  0  0  0  0
    7.6655  -15.3475   23.2887 N   0  0  0  0  0  0  0  0  0  0  0  0
    9.8777  -16.1781   23.1528 C   0  0  0  0  0  0  0  0  0  0  0  0
   10.3368  -14.9971   23.3195 O   0  0  0  0  0  0  0  0  0  0  0  0
   12.7078  -18.3049   24.4273 C   0  0  0  0  0  0  0  0  0  0  0  0
   12.1331  -16.9868   23.9276 C   0  0  2  0  0  0  0  0  0  0  0  0
   10.7727  -17.2179   23.4798 N   0  0  0  0  0  0  0  0  0  0  0  0
   12.9980  -16.4730   22.8572 C   0  0  0  0  0  0  0  0  0  0  0  0
   12.6556  -16.4720   21.6508 O   0  0  0  0  0  0  0  0  0  0  0  0
   14.2448  -15.9660   23.1782 O   0  0  0  0  0  0  0  0  0  0  0  0
  2  3  1  0
  2  1  1  0
  3  5  1  0
  3  4  1  6
  5  7  1  0
  5  6  1  1
  7  8  2  0
 10  9  1  0
 11 10  1  6
 11 13  1  0
 12 11  1  0
 12  7  1  0
 13 17  1  0
 13 14  2  0
 16 15  1  6
 16 18  1  0
 17 16  1  0
 18 19  2  0
 18 20  1  0
M  END
$$$$
