ISA.pdb
     RDKit          3D

 20 19  0  0  1  0  0  0  0  0999 V2000
    5.8952  -10.9831   26.4592 C   0  0  0  0  0  0  0  0  0  0  0  0
    6.4421  -12.0907   27.3585 C   0  0  0  0  0  0  0  0  0  0  0  0
    7.2162  -13.0974   26.5521 C   0  0  2  0  0  0  0  0  0  0  0  0
    8.4336  -12.4789   25.9098 C   0  0  0  0  0  0  0  0  0  0  0  0
    6.3792  -13.8771   25.6069 C   0  0  2  0  0  0  0  0  0  0  0  0
    5.2912  -14.4743   26.3965 N   0  0  0  0  0  0  0  0  0  0  0  0
    7.0679  -14.9844   24.9081 C   0  0  0  0  0  0  0  0  0  0  0  0
    7.4872  -16.0281   25.5062 O   0  0  0  0  0  0  0  0  0  0  0  0
    8.1522  -14.3084   21.0859 O   0  0  0  0  0  0  0  0  0  0  0  0
    8.0232  -15.6559   21.2876 C   0  0  0  0  0  0  0  0  0  0  0  0
    8.0001  -15.9769   22.7784 C   0  0  2  0  0  0  0  0  0  0  0  0
    7.2977  -14.9336   23.5114 N   0  0  0  0  0  0  0  0  0  0  0  0
    9.4108  -15.9634   23.2344 C   0  0  0  0  0  0  0  0  0  0  0  0
   10.0742  -14.8718   23.1932 O   0  0  0  0  0  0  0  0  0  0  0  0
   11.8769  -18.3140   24.8305 C   0  0  0  0  0  0  0  0  0  0  0  0
   11.5222  -17.0228   24.1065 C   0  0  2  0  0  0  0  0  0  0  0  0
   10.1225  -17.0760   23.7290 N   0  0  0  0  0  0  0  0  0  0  0  0
   12.4122  -16.8746   22.9472 C   0  0  0  0  0  0  0  0  0  0  0  0
   13.6373  -16.6316   23.0598 O   0  0  0  0  0  0  0  0  0  0  0  0
   11.8912  -17.0059   21.6720 O   0  0  0  0  0  0  0  0  0  0  0  0
  2  3  1  0
  2  1  1  0
  3  5  1  0
  3  4  1  6
  5  7  1  0
  5  6  1  1
  7  8  2  0
 10  9  1  0
 11 10  1  6
 11 13  1  0
 12 11  1  0
 12  7  1  0
 13 17  1  0
 13 14  2  0
 16 15  1  6
 16 18  1  0
 17 16  1  0
 18 19  2  0
 18 20  1  0
M  END
$$$$
