ISA.pdb
     RDKit          3D

 20 19  0  0  1  0  0  0  0  0999 V2000
    6.8248  -11.5879   27.3550 C   0  0  0  0  0  0  0  0  0  0  0  0
    6.1203  -12.7236   26.6144 C   0  0  0  0  0  0  0  0  0  0  0  0
    7.1098  -13.5427   25.8313 C   0  0  2  0  0  0  0  0  0  0  0  0
    7.9574  -12.6793   24.9295 C   0  0  0  0  0  0  0  0  0  0  0  0
    6.5062  -14.7083   25.1394 C   0  0  2  0  0  0  0  0  0  0  0  0
    5.7795  -15.4785   26.1604 N   0  0  0  0  0  0  0  0  0  0  0  0
    7.4634  -15.6345   24.4954 C   0  0  0  0  0  0  0  0  0  0  0  0
    8.1375  -16.4981   25.1454 O   0  0  0  0  0  0  0  0  0  0  0  0
    8.3930  -14.9381   20.6269 O   0  0  0  0  0  0  0  0  0  0  0  0
    8.5292  -16.2722   20.9000 C   0  0  0  0  0  0  0  0  0  0  0  0
    8.5835  -16.5103   22.4054 C   0  0  2  0  0  0  0  0  0  0  0  0
    7.6788  -15.6026   23.0958 N   0  0  0  0  0  0  0  0  0  0  0  0
    9.9614  -16.1725   22.8363 C   0  0  0  0  0  0  0  0  0  0  0  0
   10.2956  -14.9461   22.9687 O   0  0  0  0  0  0  0  0  0  0  0  0
   12.8437  -17.8054   24.4899 C   0  0  0  0  0  0  0  0  0  0  0  0
   12.3082  -16.7197   23.5671 C   0  0  2  0  0  0  0  0  0  0  0  0
   10.9802  -17.1034   23.1267 N   0  0  0  0  0  0  0  0  0  0  0  0
   13.2448  -16.5501   22.4482 C   0  0  0  0  0  0  0  0  0  0  0  0
   14.4235  -16.1520   22.6053 O   0  0  0  0  0  0  0  0  0  0  0  0
   12.8230  -16.8377   21.1621 O   0  0  0  0  0  0  0  0  0  0  0  0
  2  3  1  0
  2  1  1  0
  3  5  1  0
  3  4  1  6
  5  7  1  0
  5  6  1  1
  7  8  2  0
 10  9  1  0
 11 10  1  6
 11 13  1  0
 12 11  1  0
 12  7  1  0
 13 17  1  0
 13 14  2  0
 16 15  1  1
 16 18  1  0
 17 16  1  0
 18 19  2  0
 18 20  1  0
M  END
$$$$
