ISA.pdb
     RDKit          3D

 20 19  0  0  1  0  0  0  0  0999 V2000
    8.0446  -11.7667   19.9809 C   0  0  0  0  0  0  0  0  0  0  0  0
    7.8770  -12.9560   20.9255 C   0  0  0  0  0  0  0  0  0  0  0  0
    8.2145  -14.2438   20.2248 C   0  0  2  0  0  0  0  0  0  0  0  0
    7.5745  -14.3197   18.8604 C   0  0  0  0  0  0  0  0  0  0  0  0
    7.9868  -15.4530   21.0542 C   0  0  2  0  0  0  0  0  0  0  0  0
    7.8505  -14.9943   22.4451 N   0  0  0  0  0  0  0  0  0  0  0  0
    9.0736  -16.4565   21.0317 C   0  0  0  0  0  0  0  0  0  0  0  0
    9.2856  -17.2277   20.0402 O   0  0  0  0  0  0  0  0  0  0  0  0
   12.1915  -15.9269   23.5140 O   0  0  0  0  0  0  0  0  0  0  0  0
   12.3701  -16.7692   22.4502 C   0  0  0  0  0  0  0  0  0  0  0  0
   11.0811  -17.5223   22.1380 C   0  0  2  0  0  0  0  0  0  0  0  0
    9.9475  -16.6091   22.1359 N   0  0  0  0  0  0  0  0  0  0  0  0
   10.8734  -18.4813   23.2495 C   0  0  0  0  0  0  0  0  0  0  0  0
   10.0766  -18.1770   24.2013 O   0  0  0  0  0  0  0  0  0  0  0  0
   11.9866  -21.9490   24.2140 C   0  0  0  0  0  0  0  0  0  0  0  0
   11.2793  -20.6310   24.4964 C   0  0  2  0  0  0  0  0  0  0  0  0
   11.4892  -19.7445   23.3674 N   0  0  0  0  0  0  0  0  0  0  0  0
   11.8029  -20.0764   25.7520 C   0  0  0  0  0  0  0  0  0  0  0  0
   12.5050  -19.0383   25.7937 O   0  0  0  0  0  0  0  0  0  0  0  0
   11.5176  -20.7154   26.9458 O   0  0  0  0  0  0  0  0  0  0  0  0
  2  3  1  0
  2  1  1  0
  3  5  1  0
  3  4  1  6
  5  7  1  0
  5  6  1  1
  7  8  2  0
 10  9  1  0
 11 10  1  1
 11 13  1  0
 12 11  1  0
 12  7  1  0
 13 17  1  0
 13 14  2  0
 16 15  1  6
 16 18  1  0
 17 16  1  0
 18 19  2  0
 18 20  1  0
M  END
$$$$
