ISA.pdb
     RDKit          3D

 20 19  0  0  1  0  0  0  0  0999 V2000
    6.9256  -11.6112   27.2418 C   0  0  0  0  0  0  0  0  0  0  0  0
    6.2982  -12.7660   26.4624 C   0  0  0  0  0  0  0  0  0  0  0  0
    7.3624  -13.6319   25.8454 C   0  0  2  0  0  0  0  0  0  0  0  0
    8.3402  -12.8187   25.0330 C   0  0  0  0  0  0  0  0  0  0  0  0
    6.8278  -14.8117   25.1214 C   0  0  2  0  0  0  0  0  0  0  0  0
    6.0007  -15.5595   26.0808 N   0  0  0  0  0  0  0  0  0  0  0  0
    7.8421  -15.7519   24.5961 C   0  0  0  0  0  0  0  0  0  0  0  0
    8.3974  -16.6457   25.3140 O   0  0  0  0  0  0  0  0  0  0  0  0
    9.5113  -15.0767   20.8776 O   0  0  0  0  0  0  0  0  0  0  0  0
    9.3223  -16.4035   21.1551 C   0  0  0  0  0  0  0  0  0  0  0  0
    9.2104  -16.6278   22.6595 C   0  0  2  0  0  0  0  0  0  0  0  0
    8.2510  -15.7001   23.2409 N   0  0  0  0  0  0  0  0  0  0  0  0
   10.5390  -16.3064   23.2337 C   0  0  0  0  0  0  0  0  0  0  0  0
   10.8914  -15.0841   23.3566 O   0  0  0  0  0  0  0  0  0  0  0  0
   13.5045  -18.1499   24.6529 C   0  0  0  0  0  0  0  0  0  0  0  0
   12.7829  -16.8809   24.2215 C   0  0  2  0  0  0  0  0  0  0  0  0
   11.4901  -17.2491   23.6758 N   0  0  0  0  0  0  0  0  0  0  0  0
   13.6228  -16.1707   23.2478 C   0  0  0  0  0  0  0  0  0  0  0  0
   13.3871  -16.1785   22.0162 O   0  0  0  0  0  0  0  0  0  0  0  0
   14.7231  -15.4596   23.6934 O   0  0  0  0  0  0  0  0  0  0  0  0
  2  3  1  0
  2  1  1  0
  3  5  1  0
  3  4  1  6
  5  7  1  0
  5  6  1  1
  7  8  2  0
 10  9  1  0
 11 10  1  6
 11 13  1  0
 12 11  1  0
 12  7  1  0
 13 17  1  0
 13 14  2  0
 16 15  1  6
 16 18  1  0
 17 16  1  0
 18 19  2  0
 18 20  1  0
M  END
$$$$
