ISA.pdb
     RDKit          3D

 20 19  0  0  1  0  0  0  0  0999 V2000
    6.2527  -11.4716   27.2595 C   0  0  0  0  0  0  0  0  0  0  0  0
    5.6990  -12.6330   26.4354 C   0  0  0  0  0  0  0  0  0  0  0  0
    6.8168  -13.4232   25.8114 C   0  0  2  0  0  0  0  0  0  0  0  0
    7.7594  -12.5368   25.0350 C   0  0  0  0  0  0  0  0  0  0  0  0
    6.3566  -14.6102   25.0491 C   0  0  2  0  0  0  0  0  0  0  0  0
    5.4973  -15.3889   25.9540 N   0  0  0  0  0  0  0  0  0  0  0  0
    7.4244  -15.5178   24.5750 C   0  0  0  0  0  0  0  0  0  0  0  0
    7.9831  -16.3831   25.3246 O   0  0  0  0  0  0  0  0  0  0  0  0
    9.0323  -14.9469   20.8319 O   0  0  0  0  0  0  0  0  0  0  0  0
    8.8839  -16.2694   21.1513 C   0  0  0  0  0  0  0  0  0  0  0  0
    8.7895  -16.4504   22.6627 C   0  0  2  0  0  0  0  0  0  0  0  0
    7.8845  -15.4650   23.2364 N   0  0  0  0  0  0  0  0  0  0  0  0
   10.1418  -16.1764   23.2054 C   0  0  0  0  0  0  0  0  0  0  0  0
   10.5237  -14.9666   23.3600 O   0  0  0  0  0  0  0  0  0  0  0  0
   13.0652  -18.0759   24.6109 C   0  0  0  0  0  0  0  0  0  0  0  0
   12.4443  -16.8362   23.9826 C   0  0  2  0  0  0  0  0  0  0  0  0
   11.0860  -17.1533   23.5837 N   0  0  0  0  0  0  0  0  0  0  0  0
   13.2794  -16.4152   22.8498 C   0  0  0  0  0  0  0  0  0  0  0  0
   12.9555  -16.6200   21.6558 O   0  0  0  0  0  0  0  0  0  0  0  0
   14.4758  -15.7646   23.0951 O   0  0  0  0  0  0  0  0  0  0  0  0
  2  3  1  0
  2  1  1  0
  3  5  1  0
  3  4  1  6
  5  7  1  0
  5  6  1  1
  7  8  2  0
 10  9  1  0
 11 10  1  6
 11 13  1  0
 12 11  1  0
 12  7  1  0
 13 17  1  0
 13 14  2  0
 16 15  1  6
 16 18  1  0
 17 16  1  0
 18 19  2  0
 18 20  1  0
M  END
$$$$
