ISA.pdb
     RDKit          3D

 20 19  0  0  1  0  0  0  0  0999 V2000
    6.6431  -11.4692   27.0930 C   0  0  0  0  0  0  0  0  0  0  0  0
    6.0776  -12.4868   26.1034 C   0  0  0  0  0  0  0  0  0  0  0  0
    7.0610  -13.5999   25.8644 C   0  0  2  0  0  0  0  0  0  0  0  0
    8.4354  -13.0685   25.5395 C   0  0  0  0  0  0  0  0  0  0  0  0
    6.5808  -14.6262   24.9063 C   0  0  2  0  0  0  0  0  0  0  0  0
    5.3243  -15.1617   25.4523 N   0  0  0  0  0  0  0  0  0  0  0  0
    7.4878  -15.7757   24.6944 C   0  0  0  0  0  0  0  0  0  0  0  0
    7.6270  -16.7154   25.5431 O   0  0  0  0  0  0  0  0  0  0  0  0
   10.4110  -15.5998   21.8133 O   0  0  0  0  0  0  0  0  0  0  0  0
    9.8220  -16.8332   21.8822 C   0  0  0  0  0  0  0  0  0  0  0  0
    9.1243  -17.0220   23.2252 C   0  0  2  0  0  0  0  0  0  0  0  0
    8.2598  -15.8864   23.5120 N   0  0  0  0  0  0  0  0  0  0  0  0
   10.1902  -17.0365   24.2556 C   0  0  0  0  0  0  0  0  0  0  0  0
   10.7499  -15.9393   24.5964 O   0  0  0  0  0  0  0  0  0  0  0  0
   11.5674  -19.2283   26.9045 C   0  0  0  0  0  0  0  0  0  0  0  0
   11.7897  -18.1598   25.8433 C   0  0  2  0  0  0  0  0  0  0  0  0
   10.6673  -18.1828   24.9245 N   0  0  0  0  0  0  0  0  0  0  0  0
   13.0704  -18.4224   25.1734 C   0  0  0  0  0  0  0  0  0  0  0  0
   14.1749  -18.3190   25.7581 O   0  0  0  0  0  0  0  0  0  0  0  0
   13.0738  -18.8002   23.8422 O   0  0  0  0  0  0  0  0  0  0  0  0
  2  3  1  0
  2  1  1  0
  3  5  1  0
  3  4  1  6
  5  7  1  0
  5  6  1  1
  7  8  2  0
 10  9  1  0
 11 10  1  6
 11 13  1  0
 12 11  1  0
 12  7  1  0
 13 17  1  0
 13 14  2  0
 16 15  1  1
 16 18  1  0
 17 16  1  0
 18 19  2  0
 18 20  1  0
M  END
$$$$
