ISA.pdb
     RDKit          3D

 20 19  0  0  1  0  0  0  0  0999 V2000
    7.9161  -11.8897   20.0539 C   0  0  0  0  0  0  0  0  0  0  0  0
    7.6090  -13.3593   20.3380 C   0  0  0  0  0  0  0  0  0  0  0  0
    8.8601  -14.1904   20.2535 C   0  0  2  0  0  0  0  0  0  0  0  0
    9.5388  -14.0403   18.9141 C   0  0  0  0  0  0  0  0  0  0  0  0
    8.6684  -15.6030   20.6655 C   0  0  2  0  0  0  0  0  0  0  0  0
    7.7490  -16.2087   19.6900 N   0  0  0  0  0  0  0  0  0  0  0  0
    8.0738  -15.8021   22.0055 C   0  0  0  0  0  0  0  0  0  0  0  0
    6.8250  -15.6954   22.2332 O   0  0  0  0  0  0  0  0  0  0  0  0
    9.5740  -18.3004   24.7528 O   0  0  0  0  0  0  0  0  0  0  0  0
    8.3325  -17.7387   24.8799 C   0  0  0  0  0  0  0  0  0  0  0  0
    8.3626  -16.2692   24.4729 C   0  0  2  0  0  0  0  0  0  0  0  0
    8.8836  -16.1276   23.1210 N   0  0  0  0  0  0  0  0  0  0  0  0
    9.3181  -15.5981   25.3867 C   0  0  0  0  0  0  0  0  0  0  0  0
   10.5724  -15.6813   25.1560 O   0  0  0  0  0  0  0  0  0  0  0  0
    9.2592  -13.1473   28.2167 C   0  0  0  0  0  0  0  0  0  0  0  0
    9.9477  -14.2409   27.4121 C   0  0  2  0  0  0  0  0  0  0  0  0
    8.9699  -14.8476   26.5288 N   0  0  0  0  0  0  0  0  0  0  0  0
   10.5396  -15.2088   28.3454 C   0  0  0  0  0  0  0  0  0  0  0  0
   10.1047  -16.3777   28.4758 O   0  0  0  0  0  0  0  0  0  0  0  0
   11.6221  -14.8290   29.1191 O   0  0  0  0  0  0  0  0  0  0  0  0
  2  3  1  0
  2  1  1  0
  3  5  1  0
  3  4  1  6
  5  7  1  0
  5  6  1  6
  7  8  2  0
 10  9  1  0
 11 10  1  1
 11 13  1  0
 12 11  1  0
 12  7  1  0
 13 17  1  0
 13 14  2  0
 16 15  1  1
 16 18  1  0
 17 16  1  0
 18 19  2  0
 18 20  1  0
M  END
$$$$
