ISA.pdb
     RDKit          3D

 20 19  0  0  1  0  0  0  0  0999 V2000
    5.9139  -11.3695   26.4890 C   0  0  0  0  0  0  0  0  0  0  0  0
    7.1913  -12.0561   26.0079 C   0  0  0  0  0  0  0  0  0  0  0  0
    6.8912  -13.0123   24.8859 C   0  0  2  0  0  0  0  0  0  0  0  0
    5.7750  -13.9615   25.2466 C   0  0  0  0  0  0  0  0  0  0  0  0
    8.0932  -13.6909   24.3413 C   0  0  2  0  0  0  0  0  0  0  0  0
    7.7213  -14.2163   23.0186 N   0  0  0  0  0  0  0  0  0  0  0  0
    8.5975  -14.8320   25.1365 C   0  0  0  0  0  0  0  0  0  0  0  0
    8.5587  -14.8617   26.4094 O   0  0  0  0  0  0  0  0  0  0  0  0
   10.2906  -17.7010   23.0183 O   0  0  0  0  0  0  0  0  0  0  0  0
   10.4765  -18.0250   24.3349 C   0  0  0  0  0  0  0  0  0  0  0  0
    9.6132  -17.1448   25.2326 C   0  0  2  0  0  0  0  0  0  0  0  0
    9.1588  -15.9688   24.5048 N   0  0  0  0  0  0  0  0  0  0  0  0
   10.4911  -16.6726   26.3301 C   0  0  0  0  0  0  0  0  0  0  0  0
   11.6012  -16.1059   26.0474 O   0  0  0  0  0  0  0  0  0  0  0  0
   10.6169  -15.3452   29.5993 C   0  0  0  0  0  0  0  0  0  0  0  0
   11.1793  -16.4720   28.7440 C   0  0  2  0  0  0  0  0  0  0  0  0
   10.2146  -16.7894   27.7081 N   0  0  0  0  0  0  0  0  0  0  0  0
   11.4705  -17.6205   29.6125 C   0  0  0  0  0  0  0  0  0  0  0  0
   10.8620  -18.7128   29.5184 O   0  0  0  0  0  0  0  0  0  0  0  0
   12.4544  -17.5068   30.5788 O   0  0  0  0  0  0  0  0  0  0  0  0
  2  3  1  0
  2  1  1  0
  3  5  1  0
  3  4  1  1
  5  7  1  0
  5  6  1  6
  7  8  2  0
 10  9  1  0
 11 10  1  6
 11 13  1  0
 12 11  1  0
 12  7  1  0
 13 17  1  0
 13 14  2  0
 16 15  1  1
 16 18  1  0
 17 16  1  0
 18 19  2  0
 18 20  1  0
M  END
$$$$
