HQH.pdb
     RDKit          3D

 30 31  0  0  1  0  0  0  0  0999 V2000
   27.1767  -28.5814  -17.8913 N   0  0  0  0  0  0  0  0  0  0  0  0
   27.2411  -28.3924  -16.4555 C   0  0  1  0  0  0  0  0  0  0  0  0
   28.6073  -28.6716  -15.9094 C   0  0  0  0  0  0  0  0  0  0  0  0
   28.8660  -30.1264  -15.9624 C   0  0  0  0  0  0  0  0  0  0  0  0
   28.0494  -31.1261  -15.5111 C   0  0  0  0  0  0  0  0  0  0  0  0
   28.6243  -32.3200  -15.7284 N   0  0  0  0  0  0  0  0  0  0  0  0
   29.8025  -32.0659  -16.3165 C   0  0  0  0  0  0  0  0  0  0  0  0
   29.9765  -30.7334  -16.4719 N   0  0  0  0  0  0  0  0  0  0  0  0
   26.8037  -26.9879  -16.1551 C   0  0  0  0  0  0  0  0  0  0  0  0
   26.7180  -26.5758  -14.9739 O   0  0  0  0  0  0  0  0  0  0  0  0
   27.8251  -21.4534  -17.1394 N   0  0  0  0  0  0  0  0  0  0  0  0
   28.7025  -22.5524  -17.2631 C   0  0  0  0  0  0  0  0  0  0  0  0
   29.9105  -22.4069  -16.9895 O   0  0  0  0  0  0  0  0  0  0  0  0
   28.1797  -23.8544  -17.7130 C   0  0  0  0  0  0  0  0  0  0  0  0
   26.6794  -23.7906  -17.9111 C   0  0  0  0  0  0  0  0  0  0  0  0
   25.9720  -24.7398  -16.9820 C   0  0  2  0  0  0  0  0  0  0  0  0
   26.4703  -26.0711  -17.1843 N   0  0  0  0  0  0  0  0  0  0  0  0
   24.5191  -24.6236  -17.2251 C   0  0  0  0  0  0  0  0  0  0  0  0
   23.9778  -23.5065  -17.0237 O   0  0  0  0  0  0  0  0  0  0  0  0
   23.7059  -25.6838  -17.6672 N   0  0  0  0  0  0  0  0  0  0  0  0
   22.2754  -25.5803  -17.9042 C   0  0  1  0  0  0  0  0  0  0  0  0
   21.8984  -26.8389  -18.6533 C   0  0  0  0  0  0  0  0  0  0  0  0
   20.4995  -26.9063  -19.0702 C   0  0  0  0  0  0  0  0  0  0  0  0
   19.5220  -25.9427  -19.0005 C   0  0  0  0  0  0  0  0  0  0  0  0
   18.3577  -26.4229  -19.4917 N   0  0  0  0  0  0  0  0  0  0  0  0
   18.6049  -27.6974  -19.8728 C   0  0  0  0  0  0  0  0  0  0  0  0
   19.9006  -27.9867  -19.6167 N   0  0  0  0  0  0  0  0  0  0  0  0
   21.5035  -25.5378  -16.6541 C   0  0  0  0  0  0  0  0  0  0  0  0
   20.4992  -24.6105  -16.5091 O   0  0  0  0  0  0  0  0  0  0  0  0
   21.7507  -26.3304  -15.7313 O   0  0  0  0  0  0  0  0  0  0  0  0
  2  1  1  6
  2  3  1  0
  3  4  1  0
  4  8  1  0
  5  4  2  0
  5  6  1  0
  6  7  1  0
  8  7  2  0
  9 17  1  0
  9  2  1  0
 10  9  2  0
 11 12  1  0
 12 14  1  0
 13 12  2  0
 14 15  1  0
 16 15  1  6
 16 17  1  0
 18 16  1  0
 19 18  2  0
 20 18  1  0
 21 28  1  0
 21 20  1  0
 21 22  1  6
 22 23  1  0
 23 24  2  0
 24 25  1  0
 26 25  1  0
 27 23  1  0
 27 26  2  0
 28 29  1  0
 30 28  2  0
M  END
$$$$
