HQH.pdb
     RDKit          3D

 30 31  0  0  1  0  0  0  0  0999 V2000
   21.6903  -14.0213  -20.7926 N   0  0  0  0  0  0  0  0  0  0  0  0
   22.3618  -13.4963  -19.6199 C   0  0  1  0  0  0  0  0  0  0  0  0
   23.7214  -12.9571  -19.9412 C   0  0  0  0  0  0  0  0  0  0  0  0
   24.5964  -14.0671  -20.3757 C   0  0  0  0  0  0  0  0  0  0  0  0
   24.7135  -15.3000  -19.7960 C   0  0  0  0  0  0  0  0  0  0  0  0
   25.6101  -16.0390  -20.4692 N   0  0  0  0  0  0  0  0  0  0  0  0
   26.0541  -15.2664  -21.4714 C   0  0  0  0  0  0  0  0  0  0  0  0
   25.4517  -14.0557  -21.4385 N   0  0  0  0  0  0  0  0  0  0  0  0
   21.4792  -12.4424  -19.0162 C   0  0  0  0  0  0  0  0  0  0  0  0
   21.0153  -11.5097  -19.7142 O   0  0  0  0  0  0  0  0  0  0  0  0
   17.4038  -13.4621  -14.5822 N   0  0  0  0  0  0  0  0  0  0  0  0
   16.9439  -12.9081  -15.7965 C   0  0  0  0  0  0  0  0  0  0  0  0
   15.7346  -12.9919  -16.0899 O   0  0  0  0  0  0  0  0  0  0  0  0
   17.8974  -12.2396  -16.6991 C   0  0  0  0  0  0  0  0  0  0  0  0
   19.2926  -12.2514  -16.1097 C   0  0  0  0  0  0  0  0  0  0  0  0
   20.2590  -11.5139  -16.9967 C   0  0  2  0  0  0  0  0  0  0  0  0
   21.1329  -12.4534  -17.6411 N   0  0  0  0  0  0  0  0  0  0  0  0
   20.9819  -10.5268  -16.1682 C   0  0  0  0  0  0  0  0  0  0  0  0
   21.9209  -10.9443  -15.4434 O   0  0  0  0  0  0  0  0  0  0  0  0
   20.6848   -9.1514  -16.1405 N   0  0  0  0  0  0  0  0  0  0  0  0
   21.3828   -8.1749  -15.3206 C   0  0  1  0  0  0  0  0  0  0  0  0
   21.9072   -7.1370  -16.2876 C   0  0  0  0  0  0  0  0  0  0  0  0
   22.9711   -7.6076  -17.1717 C   0  0  0  0  0  0  0  0  0  0  0  0
   24.2543   -7.9914  -16.8634 C   0  0  0  0  0  0  0  0  0  0  0  0
   24.9153   -8.3533  -17.9859 N   0  0  0  0  0  0  0  0  0  0  0  0
   24.0416   -8.1958  -19.0069 C   0  0  0  0  0  0  0  0  0  0  0  0
   22.8671   -7.7448  -18.5115 N   0  0  0  0  0  0  0  0  0  0  0  0
   20.4884   -7.5060  -14.3650 C   0  0  0  0  0  0  0  0  0  0  0  0
   21.0151   -6.6419  -13.4347 O   0  0  0  0  0  0  0  0  0  0  0  0
   19.2650   -7.7149  -14.3916 O   0  0  0  0  0  0  0  0  0  0  0  0
  2  1  1  6
  2  3  1  0
  3  4  1  0
  4  8  1  0
  5  4  2  0
  5  6  1  0
  6  7  1  0
  8  7  2  0
  9 17  1  0
  9  2  1  0
 10  9  2  0
 11 12  1  0
 12 14  1  0
 13 12  2  0
 14 15  1  0
 16 15  1  1
 16 17  1  0
 18 16  1  0
 19 18  2  0
 20 18  1  0
 21 28  1  0
 21 20  1  0
 21 22  1  6
 22 23  1  0
 23 24  2  0
 24 25  1  0
 26 25  1  0
 27 23  1  0
 27 26  2  0
 28 29  1  0
 30 28  2  0
M  END
$$$$
