HQH.pdb
     RDKit          3D

 30 31  0  0  1  0  0  0  0  0999 V2000
   16.7081  -17.2563    2.0208 N   0  0  0  0  0  0  0  0  0  0  0  0
   16.8528  -17.5842    3.4255 C   0  0  1  0  0  0  0  0  0  0  0  0
   17.1132  -19.0431    3.6413 C   0  0  0  0  0  0  0  0  0  0  0  0
   15.9685  -19.8245    3.1263 C   0  0  0  0  0  0  0  0  0  0  0  0
   15.8846  -20.4689    1.9232 C   0  0  0  0  0  0  0  0  0  0  0  0
   14.6886  -21.0682    1.8074 N   0  0  0  0  0  0  0  0  0  0  0  0
   14.0237  -20.7978    2.9401 C   0  0  0  0  0  0  0  0  0  0  0  0
   14.7820  -20.0392    3.7646 N   0  0  0  0  0  0  0  0  0  0  0  0
   17.9596  -16.7379    3.9849 C   0  0  0  0  0  0  0  0  0  0  0  0
   18.9638  -16.4462    3.2928 O   0  0  0  0  0  0  0  0  0  0  0  0
   19.2843  -11.9862    4.7947 N   0  0  0  0  0  0  0  0  0  0  0  0
   20.0222  -12.2031    5.9785 C   0  0  0  0  0  0  0  0  0  0  0  0
   20.9897  -11.4619    6.2429 O   0  0  0  0  0  0  0  0  0  0  0  0
   19.6397  -13.3006    6.8841 C   0  0  0  0  0  0  0  0  0  0  0  0
   18.5153  -14.1214    6.2873 C   0  0  0  0  0  0  0  0  0  0  0  0
   18.9808  -15.5138    5.9568 C   0  0  2  0  0  0  0  0  0  0  0  0
   17.9204  -16.2341    5.3099 N   0  0  0  0  0  0  0  0  0  0  0  0
   19.4358  -16.1553    7.2077 C   0  0  0  0  0  0  0  0  0  0  0  0
   18.5585  -16.5815    8.0016 O   0  0  0  0  0  0  0  0  0  0  0  0
   20.7874  -16.3183    7.5644 N   0  0  0  0  0  0  0  0  0  0  0  0
   21.2450  -16.9747    8.7781 C   0  0  1  0  0  0  0  0  0  0  0  0
   22.2317  -18.0258    8.3209 C   0  0  0  0  0  0  0  0  0  0  0  0
   21.6519  -19.1013    7.5195 C   0  0  0  0  0  0  0  0  0  0  0  0
   21.1613  -19.0644    6.2362 C   0  0  0  0  0  0  0  0  0  0  0  0
   20.7090  -20.2860    5.8746 N   0  0  0  0  0  0  0  0  0  0  0  0
   20.9166  -21.0964    6.9380 C   0  0  0  0  0  0  0  0  0  0  0  0
   21.4867  -20.3772    7.9309 N   0  0  0  0  0  0  0  0  0  0  0  0
   21.9410  -16.0507    9.6848 C   0  0  0  0  0  0  0  0  0  0  0  0
   22.3753  -16.5011   10.9087 O   0  0  0  0  0  0  0  0  0  0  0  0
   22.1390  -14.8705    9.3548 O   0  0  0  0  0  0  0  0  0  0  0  0
  2  1  1  6
  2  3  1  0
  3  4  1  0
  4  8  1  0
  5  4  2  0
  5  6  1  0
  6  7  1  0
  8  7  2  0
  9 17  1  0
  9  2  1  0
 10  9  2  0
 11 12  1  0
 12 14  1  0
 13 12  2  0
 14 15  1  0
 16 15  1  1
 16 17  1  0
 18 16  1  0
 19 18  2  0
 20 18  1  0
 21 28  1  0
 21 20  1  0
 21 22  1  6
 22 23  1  0
 23 24  2  0
 24 25  1  0
 26 25  1  0
 27 23  1  0
 27 26  2  0
 28 29  1  0
 30 28  2  0
M  END
$$$$
