HQH.pdb
     RDKit          3D

 30 31  0  0  1  0  0  0  0  0999 V2000
   35.3516  -35.5580  -13.8539 N   0  0  0  0  0  0  0  0  0  0  0  0
   35.6666  -34.8313  -12.6397 C   0  0  1  0  0  0  0  0  0  0  0  0
   35.0280  -33.4771  -12.6097 C   0  0  0  0  0  0  0  0  0  0  0  0
   35.6434  -32.6242  -13.6490 C   0  0  0  0  0  0  0  0  0  0  0  0
   36.7252  -32.9260  -14.4291 C   0  0  0  0  0  0  0  0  0  0  0  0
   36.9932  -31.9023  -15.2557 N   0  0  0  0  0  0  0  0  0  0  0  0
   36.0774  -30.9590  -14.9916 C   0  0  0  0  0  0  0  0  0  0  0  0
   35.2394  -31.3733  -14.0137 N   0  0  0  0  0  0  0  0  0  0  0  0
   35.2327  -35.6716  -11.4736 C   0  0  0  0  0  0  0  0  0  0  0  0
   34.3111  -36.5139  -11.5907 O   0  0  0  0  0  0  0  0  0  0  0  0
   38.8697  -37.5166   -6.8275 N   0  0  0  0  0  0  0  0  0  0  0  0
   37.6276  -38.0670   -6.4440 C   0  0  0  0  0  0  0  0  0  0  0  0
   37.5771  -38.8533   -5.4773 O   0  0  0  0  0  0  0  0  0  0  0  0
   36.4095  -37.7054   -7.1901 C   0  0  0  0  0  0  0  0  0  0  0  0
   36.7315  -36.7283   -8.3017 C   0  0  0  0  0  0  0  0  0  0  0  0
   35.4836  -36.3137   -9.0335 C   0  0  2  0  0  0  0  0  0  0  0  0
   35.8397  -35.5523  -10.1976 N   0  0  0  0  0  0  0  0  0  0  0  0
   34.6267  -35.5634   -8.0922 C   0  0  0  0  0  0  0  0  0  0  0  0
   35.0728  -34.4845   -7.6247 O   0  0  0  0  0  0  0  0  0  0  0  0
   33.3450  -35.9809   -7.6877 N   0  0  0  0  0  0  0  0  0  0  0  0
   32.4332  -35.1806   -6.8869 C   0  0  1  0  0  0  0  0  0  0  0  0
   31.0558  -35.7413   -7.1621 C   0  0  0  0  0  0  0  0  0  0  0  0
   29.9599  -35.0060   -6.5349 C   0  0  0  0  0  0  0  0  0  0  0  0
   29.5499  -33.7104   -6.7401 C   0  0  0  0  0  0  0  0  0  0  0  0
   28.4946  -33.4237   -5.9453 N   0  0  0  0  0  0  0  0  0  0  0  0
   28.2395  -34.5469   -5.2353 C   0  0  0  0  0  0  0  0  0  0  0  0
   29.1271  -35.5017   -5.5940 N   0  0  0  0  0  0  0  0  0  0  0  0
   32.7017  -35.3006   -5.4468 C   0  0  0  0  0  0  0  0  0  0  0  0
   32.3147  -34.2903   -4.5989 O   0  0  0  0  0  0  0  0  0  0  0  0
   33.2734  -36.3042   -4.9919 O   0  0  0  0  0  0  0  0  0  0  0  0
  2  1  1  6
  2  3  1  0
  3  4  1  0
  4  8  1  0
  5  4  2  0
  5  6  1  0
  6  7  1  0
  8  7  2  0
  9 17  1  0
  9  2  1  0
 10  9  2  0
 11 12  1  0
 12 14  1  0
 13 12  2  0
 14 15  1  0
 16 15  1  1
 16 17  1  0
 18 16  1  0
 19 18  2  0
 20 18  1  0
 21 28  1  0
 21 20  1  0
 21 22  1  1
 22 23  1  0
 23 24  2  0
 24 25  1  0
 26 25  1  0
 27 23  1  0
 27 26  2  0
 28 29  1  0
 30 28  2  0
M  END
$$$$
