AET.pdb
     RDKit          3D

 22 21  0  0  1  0  0  0  0  0999 V2000
   19.2470  -10.1217  -14.4247 C   0  0  0  0  0  0  0  0  0  0  0  0
   18.0536  -11.0030  -14.1186 C   0  0  2  0  0  0  0  0  0  0  0  0
   17.6336  -11.7247  -15.2968 N   0  0  0  0  0  0  0  0  0  0  0  0
   16.9604  -10.0669  -13.6554 C   0  0  0  0  0  0  0  0  0  0  0  0
   16.9112   -8.9254  -14.1618 O   0  0  0  0  0  0  0  0  0  0  0  0
   16.0262  -10.4696  -12.6825 N   0  0  0  0  0  0  0  0  0  0  0  0
   14.9441   -9.7391  -12.1303 C   0  0  1  0  0  0  0  0  0  0  0  0
   13.6094  -10.4838  -12.0584 C   0  0  0  0  0  0  0  0  0  0  0  0
   13.1646  -10.8365  -13.4551 C   0  0  0  0  0  0  0  0  0  0  0  0
   11.9156  -11.6473  -13.4122 C   0  0  0  0  0  0  0  0  0  0  0  0
   11.9596  -12.8861  -13.2068 O   0  0  0  0  0  0  0  0  0  0  0  0
   15.2007   -9.0451  -10.8827 C   0  0  0  0  0  0  0  0  0  0  0  0
   15.9409   -9.5816  -10.0031 O   0  0  0  0  0  0  0  0  0  0  0  0
   10.7123  -11.0271  -13.5994 O   0  0  0  0  0  0  0  0  0  0  0  0
   17.2916   -8.1697   -9.6866 C   0  0  0  0  0  0  0  0  0  0  0  0
   16.5982   -6.8310   -9.5317 C   0  0  1  0  0  0  0  0  0  0  0  0
   16.8162   -6.0638  -10.6892 O   0  0  0  0  0  0  0  0  0  0  0  0
   15.1247   -7.0881   -9.3743 C   0  0  2  0  0  0  0  0  0  0  0  0
   14.6593   -7.7723  -10.5849 N   0  0  0  0  0  0  0  0  0  0  0  0
   14.3749   -5.8039   -9.1947 C   0  0  0  0  0  0  0  0  0  0  0  0
   14.3726   -5.1401   -7.9800 O   0  0  0  0  0  0  0  0  0  0  0  0
   13.7281   -5.2967  -10.1455 O   0  0  0  0  0  0  0  0  0  0  0  0
  2  4  1  0
  2  1  1  6
  3  2  1  0
  4  6  1  0
  5  4  2  0
  6  7  1  0
  7 12  1  0
  8  9  1  0
  7  8  1  1
 10 14  1  0
 10  9  1  0
 11 10  2  0
 12 13  2  0
 12 19  1  0
 16 15  1  6
 17 16  1  0
 18 16  1  0
 18 20  1  0
 18 19  1  6
 20 21  1  0
 22 20  2  0
M  END
$$$$
