AET.pdb
     RDKit          3D

 22 21  0  0  1  0  0  0  0  0999 V2000
   19.0260  -11.3323  -17.9646 C   0  0  0  0  0  0  0  0  0  0  0  0
   19.3437  -10.8862  -16.5523 C   0  0  2  0  0  0  0  0  0  0  0  0
   18.2702  -11.2337  -15.6511 N   0  0  0  0  0  0  0  0  0  0  0  0
   19.5081   -9.3850  -16.6234 C   0  0  0  0  0  0  0  0  0  0  0  0
   20.4437   -8.9289  -17.3152 O   0  0  0  0  0  0  0  0  0  0  0  0
   18.6332   -8.5269  -15.9307 N   0  0  0  0  0  0  0  0  0  0  0  0
   18.5756   -7.1107  -15.9476 C   0  0  1  0  0  0  0  0  0  0  0  0
   17.1761   -6.5054  -16.0751 C   0  0  0  0  0  0  0  0  0  0  0  0
   17.2934   -5.0055  -16.1716 C   0  0  0  0  0  0  0  0  0  0  0  0
   15.9490   -4.3911  -16.3570 C   0  0  0  0  0  0  0  0  0  0  0  0
   15.2537   -4.0542  -15.3662 O   0  0  0  0  0  0  0  0  0  0  0  0
   19.3308   -6.4193  -14.9202 C   0  0  0  0  0  0  0  0  0  0  0  0
   18.9850   -6.5253  -13.7041 O   0  0  0  0  0  0  0  0  0  0  0  0
   15.4752   -4.1954  -17.6238 O   0  0  0  0  0  0  0  0  0  0  0  0
   22.5075   -7.1391  -13.7741 C   0  0  0  0  0  0  0  0  0  0  0  0
   22.6108   -5.6734  -14.1456 C   0  0  1  0  0  0  0  0  0  0  0  0
   23.1003   -5.5654  -15.4588 O   0  0  0  0  0  0  0  0  0  0  0  0
   21.2303   -5.0802  -14.0779 C   0  0  2  0  0  0  0  0  0  0  0  0
   20.4592   -5.6146  -15.2048 N   0  0  0  0  0  0  0  0  0  0  0  0
   21.2867   -3.5858  -14.1623 C   0  0  0  0  0  0  0  0  0  0  0  0
   20.7494   -2.9090  -15.2437 O   0  0  0  0  0  0  0  0  0  0  0  0
   21.8247   -2.9084  -13.2503 O   0  0  0  0  0  0  0  0  0  0  0  0
  2  4  1  0
  2  1  1  6
  3  2  1  0
  4  6  1  0
  5  4  2  0
  6  7  1  0
  7 12  1  0
  8  9  1  0
  7  8  1  1
 10 14  1  0
 10  9  1  0
 11 10  2  0
 12 13  2  0
 12 19  1  0
 16 15  1  6
 17 16  1  0
 18 16  1  0
 18 20  1  0
 18 19  1  6
 20 21  1  0
 22 20  2  0
M  END
$$$$
