AET.pdb
     RDKit          3D

 22 21  0  0  1  0  0  0  0  0999 V2000
   16.0990  -12.1502  -17.3858 C   0  0  0  0  0  0  0  0  0  0  0  0
   17.0955  -12.0435  -16.2501 C   0  0  2  0  0  0  0  0  0  0  0  0
   16.4427  -12.2310  -14.9757 N   0  0  0  0  0  0  0  0  0  0  0  0
   17.6781  -10.6516  -16.3449 C   0  0  0  0  0  0  0  0  0  0  0  0
   18.3452  -10.3622  -17.3614 O   0  0  0  0  0  0  0  0  0  0  0  0
   17.4751   -9.7100  -15.3184 N   0  0  0  0  0  0  0  0  0  0  0  0
   17.8337   -8.3390  -15.2835 C   0  0  1  0  0  0  0  0  0  0  0  0
   16.6972   -7.3641  -14.9688 C   0  0  0  0  0  0  0  0  0  0  0  0
   17.1943   -5.9519  -15.1467 C   0  0  0  0  0  0  0  0  0  0  0  0
   16.1087   -4.9780  -14.8429 C   0  0  0  0  0  0  0  0  0  0  0  0
   15.3306   -4.5799  -15.7455 O   0  0  0  0  0  0  0  0  0  0  0  0
   19.0159   -7.9980  -14.5152 C   0  0  0  0  0  0  0  0  0  0  0  0
   19.0389   -8.2114  -13.2649 O   0  0  0  0  0  0  0  0  0  0  0  0
   15.9653   -4.5181  -13.5640 O   0  0  0  0  0  0  0  0  0  0  0  0
   22.2960   -9.4092  -14.5973 C   0  0  0  0  0  0  0  0  0  0  0  0
   22.5049   -7.9269  -14.8337 C   0  0  1  0  0  0  0  0  0  0  0  0
   22.5480   -7.6837  -16.2176 O   0  0  0  0  0  0  0  0  0  0  0  0
   21.3364   -7.1933  -14.2349 C   0  0  2  0  0  0  0  0  0  0  0  0
   20.1731   -7.4279  -15.0964 N   0  0  0  0  0  0  0  0  0  0  0  0
   21.6167   -5.7245  -14.1465 C   0  0  0  0  0  0  0  0  0  0  0  0
   22.5372   -5.2246  -13.2416 O   0  0  0  0  0  0  0  0  0  0  0  0
   21.0211   -4.9084  -14.8941 O   0  0  0  0  0  0  0  0  0  0  0  0
  2  4  1  0
  2  1  1  6
  3  2  1  0
  4  6  1  0
  5  4  2  0
  6  7  1  0
  7 12  1  0
  8  9  1  0
  7  8  1  1
 10 14  1  0
 10  9  1  0
 11 10  2  0
 12 13  2  0
 12 19  1  0
 16 15  1  6
 17 16  1  0
 18 16  1  0
 18 20  1  0
 18 19  1  6
 20 21  1  0
 22 20  2  0
M  END
$$$$
