AET.pdb
     RDKit          3D

 22 21  0  0  1  0  0  0  0  0999 V2000
   17.6170  -11.8077  -17.4108 C   0  0  0  0  0  0  0  0  0  0  0  0
   18.4072  -11.4438  -16.1708 C   0  0  2  0  0  0  0  0  0  0  0  0
   17.6706  -11.7824  -14.9757 N   0  0  0  0  0  0  0  0  0  0  0  0
   18.6286   -9.9503  -16.2490 C   0  0  0  0  0  0  0  0  0  0  0  0
   19.3650   -9.5127  -17.1590 O   0  0  0  0  0  0  0  0  0  0  0  0
   18.0233   -9.0789  -15.3239 N   0  0  0  0  0  0  0  0  0  0  0  0
   18.1605   -7.6733  -15.2025 C   0  0  1  0  0  0  0  0  0  0  0  0
   16.9076   -6.9214  -14.7486 C   0  0  0  0  0  0  0  0  0  0  0  0
   15.8891   -6.9424  -15.8599 C   0  0  0  0  0  0  0  0  0  0  0  0
   14.6608   -6.2050  -15.4514 C   0  0  0  0  0  0  0  0  0  0  0  0
   14.3516   -5.1173  -15.9991 O   0  0  0  0  0  0  0  0  0  0  0  0
   19.3234   -7.1961  -14.4786 C   0  0  0  0  0  0  0  0  0  0  0  0
   19.4773   -7.5056  -13.2579 O   0  0  0  0  0  0  0  0  0  0  0  0
   13.8671   -6.7262  -14.4686 O   0  0  0  0  0  0  0  0  0  0  0  0
   22.6629   -5.6480  -16.3897 C   0  0  0  0  0  0  0  0  0  0  0  0
   22.7186   -6.4248  -15.0896 C   0  0  1  0  0  0  0  0  0  0  0  0
   23.8799   -6.0607  -14.3861 O   0  0  0  0  0  0  0  0  0  0  0  0
   21.5076   -6.0561  -14.2775 C   0  0  2  0  0  0  0  0  0  0  0  0
   20.3201   -6.3860  -15.0720 N   0  0  0  0  0  0  0  0  0  0  0  0
   21.5104   -4.5949  -13.9481 C   0  0  0  0  0  0  0  0  0  0  0  0
   22.4498   -4.0573  -13.0853 O   0  0  0  0  0  0  0  0  0  0  0  0
   20.6573   -3.8196  -14.4490 O   0  0  0  0  0  0  0  0  0  0  0  0
  2  4  1  0
  2  1  1  6
  3  2  1  0
  4  6  1  0
  5  4  2  0
  6  7  1  0
  7 12  1  0
  8  9  1  0
  7  8  1  1
 10 14  1  0
 10  9  1  0
 11 10  2  0
 12 13  2  0
 12 19  1  0
 16 15  1  6
 17 16  1  0
 18 16  1  0
 18 20  1  0
 18 19  1  6
 20 21  1  0
 22 20  2  0
M  END
$$$$
