AET.pdb
     RDKit          3D

 22 21  0  0  1  0  0  0  0  0999 V2000
   16.7190  -11.8050  -17.8714 C   0  0  0  0  0  0  0  0  0  0  0  0
   17.4234  -11.6193  -16.5433 C   0  0  2  0  0  0  0  0  0  0  0  0
   16.4669  -11.4977  -15.4682 N   0  0  0  0  0  0  0  0  0  0  0  0
   18.2282  -10.3468  -16.6802 C   0  0  0  0  0  0  0  0  0  0  0  0
   19.3383  -10.4127  -17.2507 O   0  0  0  0  0  0  0  0  0  0  0  0
   17.7414   -9.1245  -16.1797 N   0  0  0  0  0  0  0  0  0  0  0  0
   18.3487   -7.8441  -16.2106 C   0  0  1  0  0  0  0  0  0  0  0  0
   17.3993   -6.6650  -16.4327 C   0  0  0  0  0  0  0  0  0  0  0  0
   18.2059   -5.3969  -16.5527 C   0  0  0  0  0  0  0  0  0  0  0  0
   17.3104   -4.2356  -16.8149 C   0  0  0  0  0  0  0  0  0  0  0  0
   17.2447   -3.7194  -17.9585 O   0  0  0  0  0  0  0  0  0  0  0  0
   19.2820   -7.5438  -15.1415 C   0  0  0  0  0  0  0  0  0  0  0  0
   18.8638   -7.4476  -13.9476 O   0  0  0  0  0  0  0  0  0  0  0  0
   16.5551   -3.7331  -15.7929 O   0  0  0  0  0  0  0  0  0  0  0  0
   22.0817   -9.5126  -14.0208 C   0  0  0  0  0  0  0  0  0  0  0  0
   22.6559   -8.1333  -14.2748 C   0  0  1  0  0  0  0  0  0  0  0  0
   23.2154   -8.0985  -15.5639 O   0  0  0  0  0  0  0  0  0  0  0  0
   21.5291   -7.1404  -14.1935 C   0  0  2  0  0  0  0  0  0  0  0  0
   20.6660   -7.3483  -15.3607 N   0  0  0  0  0  0  0  0  0  0  0  0
   22.0531   -5.7372  -14.1910 C   0  0  0  0  0  0  0  0  0  0  0  0
   22.7751   -5.2445  -13.1177 O   0  0  0  0  0  0  0  0  0  0  0  0
   21.8493   -4.9712  -15.1665 O   0  0  0  0  0  0  0  0  0  0  0  0
  2  4  1  0
  2  1  1  6
  3  2  1  0
  4  6  1  0
  5  4  2  0
  6  7  1  0
  7 12  1  0
  8  9  1  0
  7  8  1  1
 10 14  1  0
 10  9  1  0
 11 10  2  0
 12 13  2  0
 12 19  1  0
 16 15  1  6
 17 16  1  0
 18 16  1  0
 18 20  1  0
 18 19  1  6
 20 21  1  0
 22 20  2  0
M  END
$$$$
