AET.pdb
     RDKit          3D

 22 21  0  0  1  0  0  0  0  0999 V2000
   19.0756  -11.3645  -15.0992 C   0  0  0  0  0  0  0  0  0  0  0  0
   17.9167  -10.3928  -15.0147 C   0  0  2  0  0  0  0  0  0  0  0  0
   17.9675   -9.4386  -16.0975 N   0  0  0  0  0  0  0  0  0  0  0  0
   18.0667   -9.6901  -13.6845 C   0  0  0  0  0  0  0  0  0  0  0  0
   18.0611  -10.3881  -12.6477 O   0  0  0  0  0  0  0  0  0  0  0  0
   18.2082   -8.2912  -13.6162 N   0  0  0  0  0  0  0  0  0  0  0  0
   18.3791   -7.4678  -12.4751 C   0  0  1  0  0  0  0  0  0  0  0  0
   19.3102   -6.2673  -12.6570 C   0  0  0  0  0  0  0  0  0  0  0  0
   20.7315   -6.7572  -12.7706 C   0  0  0  0  0  0  0  0  0  0  0  0
   21.6695   -5.6054  -12.8829 C   0  0  0  0  0  0  0  0  0  0  0  0
   22.4596   -5.3257  -11.9469 O   0  0  0  0  0  0  0  0  0  0  0  0
   17.1714   -7.0666  -11.7790 C   0  0  0  0  0  0  0  0  0  0  0  0
   16.1092   -6.8437  -12.4360 O   0  0  0  0  0  0  0  0  0  0  0  0
   21.6633   -4.8501  -14.0217 O   0  0  0  0  0  0  0  0  0  0  0  0
   14.4808   -6.7597   -7.7380 C   0  0  0  0  0  0  0  0  0  0  0  0
   15.8550   -6.9955   -8.3319 C   0  0  1  0  0  0  0  0  0  0  0  0
   16.1566   -8.3667   -8.2625 O   0  0  0  0  0  0  0  0  0  0  0  0
   15.8168   -6.5659   -9.7727 C   0  0  2  0  0  0  0  0  0  0  0  0
   17.1098   -6.9069  -10.3745 N   0  0  0  0  0  0  0  0  0  0  0  0
   15.5761   -5.0917   -9.8840 C   0  0  0  0  0  0  0  0  0  0  0  0
   14.2944   -4.5825  -10.0027 O   0  0  0  0  0  0  0  0  0  0  0  0
   16.5350   -4.2792   -9.8720 O   0  0  0  0  0  0  0  0  0  0  0  0
  2  4  1  0
  2  1  1  6
  3  2  1  0
  4  6  1  0
  5  4  2  0
  6  7  1  0
  7 12  1  0
  8  9  1  0
  7  8  1  6
 10 14  1  0
 10  9  1  0
 11 10  2  0
 12 13  2  0
 12 19  1  0
 16 15  1  6
 17 16  1  0
 18 16  1  0
 18 20  1  0
 18 19  1  1
 20 21  1  0
 22 20  2  0
M  END
$$$$
