AET.pdb
     RDKit          3D

 22 21  0  0  1  0  0  0  0  0999 V2000
   14.3686  -11.1162  -15.6734 C   0  0  0  0  0  0  0  0  0  0  0  0
   14.2838   -9.6272  -15.4089 C   0  0  2  0  0  0  0  0  0  0  0  0
   14.6895   -8.8756  -16.5734 N   0  0  0  0  0  0  0  0  0  0  0  0
   15.2241   -9.3612  -14.2552 C   0  0  0  0  0  0  0  0  0  0  0  0
   15.0151   -9.9589  -13.1776 O   0  0  0  0  0  0  0  0  0  0  0  0
   16.3026   -8.4669  -14.3911 N   0  0  0  0  0  0  0  0  0  0  0  0
   17.2755   -8.0920  -13.4308 C   0  0  1  0  0  0  0  0  0  0  0  0
   18.7139   -8.0016  -13.9445 C   0  0  0  0  0  0  0  0  0  0  0  0
   19.6244   -7.6311  -12.8013 C   0  0  0  0  0  0  0  0  0  0  0  0
   21.0488   -7.6877  -13.2337 C   0  0  0  0  0  0  0  0  0  0  0  0
   21.5146   -6.8322  -14.0273 O   0  0  0  0  0  0  0  0  0  0  0  0
   16.9623   -6.9399  -12.6070 C   0  0  0  0  0  0  0  0  0  0  0  0
   17.0913   -5.7708  -13.0824 O   0  0  0  0  0  0  0  0  0  0  0  0
   21.8507   -8.6857  -12.7557 O   0  0  0  0  0  0  0  0  0  0  0  0
   13.9301   -5.7418  -11.4800 C   0  0  0  0  0  0  0  0  0  0  0  0
   14.7238   -5.8628  -10.1946 C   0  0  1  0  0  0  0  0  0  0  0  0
   14.4299   -7.0959   -9.5872 O   0  0  0  0  0  0  0  0  0  0  0  0
   16.1853   -5.8164  -10.5467 C   0  0  2  0  0  0  0  0  0  0  0  0
   16.5093   -7.0495  -11.2711 N   0  0  0  0  0  0  0  0  0  0  0  0
   17.0287   -5.7139   -9.3130 C   0  0  0  0  0  0  0  0  0  0  0  0
   17.8761   -6.7420   -8.9377 O   0  0  0  0  0  0  0  0  0  0  0  0
   16.9871   -4.6887   -8.5871 O   0  0  0  0  0  0  0  0  0  0  0  0
  2  4  1  0
  2  1  1  6
  3  2  1  0
  4  6  1  0
  5  4  2  0
  6  7  1  0
  7 12  1  0
  8  9  1  0
  7  8  1  6
 10 14  1  0
 10  9  1  0
 11 10  2  0
 12 13  2  0
 12 19  1  0
 16 15  1  6
 17 16  1  0
 18 16  1  0
 18 20  1  0
 18 19  1  1
 20 21  1  0
 22 20  2  0
M  END
$$$$
