AET.pdb
     RDKit          3D

 22 21  0  0  1  0  0  0  0  0999 V2000
   15.5264  -11.7800  -16.6590 C   0  0  0  0  0  0  0  0  0  0  0  0
   16.8681  -11.0912  -16.7997 C   0  0  2  0  0  0  0  0  0  0  0  0
   17.9488  -12.0304  -16.6118 N   0  0  0  0  0  0  0  0  0  0  0  0
   16.8988  -10.0291  -15.7241 C   0  0  0  0  0  0  0  0  0  0  0  0
   16.4762  -10.3320  -14.5876 O   0  0  0  0  0  0  0  0  0  0  0  0
   17.3888   -8.7376  -15.9953 N   0  0  0  0  0  0  0  0  0  0  0  0
   17.5282   -7.6348  -15.1157 C   0  0  1  0  0  0  0  0  0  0  0  0
   18.8743   -7.5263  -14.3965 C   0  0  0  0  0  0  0  0  0  0  0  0
   19.9849   -7.7600  -15.3890 C   0  0  0  0  0  0  0  0  0  0  0  0
   21.3060   -7.7506  -14.7006 C   0  0  0  0  0  0  0  0  0  0  0  0
   21.9055   -8.8247  -14.4445 O   0  0  0  0  0  0  0  0  0  0  0  0
   17.1279   -6.3397  -15.6319 C   0  0  0  0  0  0  0  0  0  0  0  0
   17.4766   -5.9914  -16.8009 O   0  0  0  0  0  0  0  0  0  0  0  0
   21.8645   -6.5543  -14.3476 O   0  0  0  0  0  0  0  0  0  0  0  0
   13.6099   -4.9755  -15.7598 C   0  0  0  0  0  0  0  0  0  0  0  0
   14.4943   -3.9209  -15.1254 C   0  0  1  0  0  0  0  0  0  0  0  0
   14.3996   -4.0225  -13.7265 O   0  0  0  0  0  0  0  0  0  0  0  0
   15.9121   -4.1889  -15.5497 C   0  0  2  0  0  0  0  0  0  0  0  0
   16.3508   -5.4213  -14.8872 N   0  0  0  0  0  0  0  0  0  0  0  0
   16.8093   -3.0543  -15.1610 C   0  0  0  0  0  0  0  0  0  0  0  0
   16.6866   -1.8092  -15.7532 O   0  0  0  0  0  0  0  0  0  0  0  0
   17.6977   -3.2060  -14.2848 O   0  0  0  0  0  0  0  0  0  0  0  0
  2  4  1  0
  2  1  1  1
  3  2  1  0
  4  6  1  0
  5  4  2  0
  6  7  1  0
  7 12  1  0
  8  9  1  0
  7  8  1  6
 10 14  1  0
 10  9  1  0
 11 10  2  0
 12 13  2  0
 12 19  1  0
 16 15  1  6
 17 16  1  0
 18 16  1  0
 18 20  1  0
 18 19  1  1
 20 21  1  0
 22 20  2  0
M  END
$$$$
