AET.pdb
     RDKit          3D

 22 21  0  0  1  0  0  0  0  0999 V2000
   16.7925  -14.5554  -17.3816 C   0  0  0  0  0  0  0  0  0  0  0  0
   17.7566  -14.0806  -16.3142 C   0  0  2  0  0  0  0  0  0  0  0  0
   17.2094  -14.2981  -14.9956 N   0  0  0  0  0  0  0  0  0  0  0  0
   17.9532  -12.6029  -16.5668 C   0  0  0  0  0  0  0  0  0  0  0  0
   18.4153  -12.2529  -17.6740 O   0  0  0  0  0  0  0  0  0  0  0  0
   17.6255  -11.6502  -15.5837 N   0  0  0  0  0  0  0  0  0  0  0  0
   17.8371  -10.2486  -15.5960 C   0  0  1  0  0  0  0  0  0  0  0  0
   16.6324   -9.3925  -15.1999 C   0  0  0  0  0  0  0  0  0  0  0  0
   15.4883   -9.6862  -16.1368 C   0  0  0  0  0  0  0  0  0  0  0  0
   14.2949   -8.8741  -15.7683 C   0  0  0  0  0  0  0  0  0  0  0  0
   14.3340   -8.0772  -14.7978 O   0  0  0  0  0  0  0  0  0  0  0  0
   19.0349   -9.7685  -14.9333 C   0  0  0  0  0  0  0  0  0  0  0  0
   19.1445   -9.8746  -13.6739 O   0  0  0  0  0  0  0  0  0  0  0  0
   13.1487   -9.0045  -16.5010 O   0  0  0  0  0  0  0  0  0  0  0  0
   22.6171  -10.7161  -15.3404 C   0  0  0  0  0  0  0  0  0  0  0  0
   22.5116   -9.2208  -15.5637 C   0  0  1  0  0  0  0  0  0  0  0  0
   22.3880   -8.9693  -16.9412 O   0  0  0  0  0  0  0  0  0  0  0  0
   21.2780   -8.7327  -14.8552 C   0  0  2  0  0  0  0  0  0  0  0  0
   20.1141   -9.1751  -15.6297 N   0  0  0  0  0  0  0  0  0  0  0  0
   21.2801   -7.2387  -14.7474 C   0  0  0  0  0  0  0  0  0  0  0  0
   22.1902   -6.5806  -13.9382 O   0  0  0  0  0  0  0  0  0  0  0  0
   20.4533   -6.5447  -15.3912 O   0  0  0  0  0  0  0  0  0  0  0  0
  2  4  1  0
  2  1  1  6
  3  2  1  0
  4  6  1  0
  5  4  2  0
  6  7  1  0
  7 12  1  0
  8  9  1  0
  7  8  1  1
 10 14  1  0
 10  9  1  0
 11 10  2  0
 12 13  2  0
 12 19  1  0
 16 15  1  6
 17 16  1  0
 18 16  1  0
 18 20  1  0
 18 19  1  6
 20 21  1  0
 22 20  2  0
M  END
$$$$
