KQI.pdb
     RDKit          3D

 27 26  0  0  1  0  0  0  0  0999 V2000
   19.3873  -22.8546  -16.1113 N   0  0  0  0  0  0  0  0  0  0  0  0
   18.0513  -22.7609  -15.5726 C   0  0  1  0  0  0  0  0  0  0  0  0
   17.1195  -23.7710  -16.1537 C   0  0  0  0  0  0  0  0  0  0  0  0
   17.4621  -24.3917  -17.4479 C   0  0  0  0  0  0  0  0  0  0  0  0
   16.6596  -24.1818  -18.6534 C   0  0  0  0  0  0  0  0  0  0  0  0
   16.9616  -24.9007  -19.9047 C   0  0  0  0  0  0  0  0  0  0  0  0
   15.9789  -24.7016  -20.9483 N   0  0  0  0  0  0  0  0  0  0  0  0
   18.0738  -22.9449  -14.0767 C   0  0  0  0  0  0  0  0  0  0  0  0
   17.7423  -24.0800  -13.6684 O   0  0  0  0  0  0  0  0  0  0  0  0
   20.7115  -19.5441   -9.0657 N   0  0  0  0  0  0  0  0  0  0  0  0
   20.0108  -20.6880   -8.6001 C   0  0  0  0  0  0  0  0  0  0  0  0
   20.0770  -20.9620   -7.3652 O   0  0  0  0  0  0  0  0  0  0  0  0
   19.2178  -21.5543   -9.4719 C   0  0  0  0  0  0  0  0  0  0  0  0
   19.2733  -21.2617  -10.9231 C   0  0  0  0  0  0  0  0  0  0  0  0
   18.4061  -22.1667  -11.7393 C   0  0  2  0  0  0  0  0  0  0  0  0
   18.4314  -21.9540  -13.1573 N   0  0  0  0  0  0  0  0  0  0  0  0
   17.0363  -22.1684  -11.1946 C   0  0  0  0  0  0  0  0  0  0  0  0
   16.2130  -21.2335  -11.4004 O   0  0  0  0  0  0  0  0  0  0  0  0
   12.4219  -25.7694  -10.0886 C   0  0  0  0  0  0  0  0  0  0  0  0
   13.1847  -24.5389   -9.6701 C   0  0  0  0  0  0  0  0  0  0  0  0
   14.5974  -24.5316  -10.2341 C   0  0  2  0  0  0  0  0  0  0  0  0
   15.3231  -25.7529   -9.7388 C   0  0  0  0  0  0  0  0  0  0  0  0
   15.2368  -23.2454   -9.8209 C   0  0  2  0  0  0  0  0  0  0  0  0
   16.5819  -23.2363  -10.4076 N   0  0  0  0  0  0  0  0  0  0  0  0
   15.2866  -23.0352   -8.3639 C   0  0  0  0  0  0  0  0  0  0  0  0
   14.2634  -22.5215   -7.6016 O   0  0  0  0  0  0  0  0  0  0  0  0
   16.3493  -23.3507   -7.7700 O   0  0  0  0  0  0  0  0  0  0  0  0
  2  1  1  6
  3  2  1  0
  4  3  1  0
  5  4  1  0
  6  5  1  0
  7  6  1  0
  8  9  2  0
  8  2  1  0
 10 11  1  0
 11 12  2  0
 11 13  1  0
 13 14  1  0
 15 14  1  1
 15 16  1  0
 16  8  1  0
 17 15  1  0
 18 17  2  0
 19 20  1  0
 20 21  1  0
 21 23  1  0
 21 22  1  1
 23 25  1  0
 23 24  1  1
 24 17  1  0
 25 26  1  0
 27 25  2  0
M  END
$$$$
