KQI.pdb
     RDKit          3D

 27 26  0  0  1  0  0  0  0  0999 V2000
   27.6868  -23.4061  -16.7707 N   0  0  0  0  0  0  0  0  0  0  0  0
   27.3950  -22.0169  -16.5076 C   0  0  1  0  0  0  0  0  0  0  0  0
   26.9697  -21.2723  -17.7286 C   0  0  0  0  0  0  0  0  0  0  0  0
   27.9036  -21.1836  -18.8678 C   0  0  0  0  0  0  0  0  0  0  0  0
   29.2644  -20.6647  -18.7259 C   0  0  0  0  0  0  0  0  0  0  0  0
   30.1740  -20.5845  -19.8833 C   0  0  0  0  0  0  0  0  0  0  0  0
   31.5121  -20.1457  -19.5494 N   0  0  0  0  0  0  0  0  0  0  0  0
   26.3026  -21.8957  -15.4762 C   0  0  0  0  0  0  0  0  0  0  0  0
   25.3157  -22.6456  -15.6460 O   0  0  0  0  0  0  0  0  0  0  0  0
   25.7170  -21.7958   -9.7909 N   0  0  0  0  0  0  0  0  0  0  0  0
   24.5058  -21.1375  -10.1313 C   0  0  0  0  0  0  0  0  0  0  0  0
   23.4801  -21.3830   -9.4299 O   0  0  0  0  0  0  0  0  0  0  0  0
   24.3897  -20.1925  -11.2417 C   0  0  0  0  0  0  0  0  0  0  0  0
   25.5185  -20.1561  -12.2004 C   0  0  0  0  0  0  0  0  0  0  0  0
   25.2298  -20.8801  -13.4769 C   0  0  2  0  0  0  0  0  0  0  0  0
   26.3320  -21.0245  -14.3830 N   0  0  0  0  0  0  0  0  0  0  0  0
   24.0420  -20.2942  -14.1241 C   0  0  0  0  0  0  0  0  0  0  0  0
   24.0325  -19.1346  -14.6237 O   0  0  0  0  0  0  0  0  0  0  0  0
   22.0985  -21.7148  -18.3006 C   0  0  0  0  0  0  0  0  0  0  0  0
   22.3657  -20.9749  -17.0151 C   0  0  0  0  0  0  0  0  0  0  0  0
   21.2746  -21.2220  -15.9845 C   0  0  2  0  0  0  0  0  0  0  0  0
   19.9465  -20.8523  -16.5869 C   0  0  0  0  0  0  0  0  0  0  0  0
   21.6224  -20.4285  -14.7667 C   0  0  2  0  0  0  0  0  0  0  0  0
   22.8459  -21.0207  -14.2135 N   0  0  0  0  0  0  0  0  0  0  0  0
   20.5518  -20.3698  -13.7567 C   0  0  0  0  0  0  0  0  0  0  0  0
   19.6049  -19.3767  -13.6620 O   0  0  0  0  0  0  0  0  0  0  0  0
   20.4999  -21.3020  -12.9141 O   0  0  0  0  0  0  0  0  0  0  0  0
  2  1  1  6
  3  2  1  0
  4  3  1  0
  5  4  1  0
  6  5  1  0
  7  6  1  0
  8  9  2  0
  8  2  1  0
 10 11  1  0
 11 12  2  0
 11 13  1  0
 13 14  1  0
 15 14  1  1
 15 16  1  0
 16  8  1  0
 17 15  1  0
 18 17  2  0
 19 20  1  0
 20 21  1  0
 21 23  1  0
 21 22  1  6
 23 25  1  0
 23 24  1  1
 24 17  1  0
 25 26  1  0
 27 25  2  0
M  END
$$$$
