KQI.pdb
     RDKit          3D

 27 26  0  0  1  0  0  0  0  0999 V2000
   19.7927  -20.4545  -16.7859 N   0  0  0  0  0  0  0  0  0  0  0  0
   20.5830  -19.4958  -16.0506 C   0  0  1  0  0  0  0  0  0  0  0  0
   19.8423  -18.8901  -14.9057 C   0  0  0  0  0  0  0  0  0  0  0  0
   18.7628  -17.9247  -15.1891 C   0  0  0  0  0  0  0  0  0  0  0  0
   18.7461  -17.1020  -16.3992 C   0  0  0  0  0  0  0  0  0  0  0  0
   17.7117  -16.0722  -16.6064 C   0  0  0  0  0  0  0  0  0  0  0  0
   17.8256  -15.3706  -17.8670 N   0  0  0  0  0  0  0  0  0  0  0  0
   21.8322  -20.1462  -15.5137 C   0  0  0  0  0  0  0  0  0  0  0  0
   21.6831  -20.8196  -14.4698 O   0  0  0  0  0  0  0  0  0  0  0  0
   27.5842  -21.7568  -18.2569 N   0  0  0  0  0  0  0  0  0  0  0  0
   27.5513  -22.1413  -16.8903 C   0  0  0  0  0  0  0  0  0  0  0  0
   28.5306  -22.8045  -16.4372 O   0  0  0  0  0  0  0  0  0  0  0  0
   26.4507  -21.8050  -15.9875 C   0  0  0  0  0  0  0  0  0  0  0  0
   25.3222  -21.0455  -16.5741 C   0  0  0  0  0  0  0  0  0  0  0  0
   24.2478  -20.7286  -15.5829 C   0  0  2  0  0  0  0  0  0  0  0  0
   23.0987  -20.0415  -16.0966 N   0  0  0  0  0  0  0  0  0  0  0  0
   24.8340  -20.0490  -14.4134 C   0  0  0  0  0  0  0  0  0  0  0  0
   24.8367  -18.7938  -14.2771 O   0  0  0  0  0  0  0  0  0  0  0  0
   25.8622  -20.4646   -8.5287 C   0  0  0  0  0  0  0  0  0  0  0  0
   26.2996  -19.9449   -9.8740 C   0  0  0  0  0  0  0  0  0  0  0  0
   25.6372  -20.7030  -11.0143 C   0  0  2  0  0  0  0  0  0  0  0  0
   25.9100  -22.1724  -10.8422 C   0  0  0  0  0  0  0  0  0  0  0  0
   26.1683  -20.1401  -12.2929 C   0  0  2  0  0  0  0  0  0  0  0  0
   25.4254  -20.7890  -13.3794 N   0  0  0  0  0  0  0  0  0  0  0  0
   27.6220  -20.3015  -12.4673 C   0  0  0  0  0  0  0  0  0  0  0  0
   28.5776  -19.4250  -12.0086 O   0  0  0  0  0  0  0  0  0  0  0  0
   28.0207  -21.3221  -13.0847 O   0  0  0  0  0  0  0  0  0  0  0  0
  2  1  1  1
  3  2  1  0
  4  3  1  0
  5  4  1  0
  6  5  1  0
  7  6  1  0
  8  9  2  0
  8  2  1  0
 10 11  1  0
 11 12  2  0
 11 13  1  0
 13 14  1  0
 15 14  1  6
 15 16  1  0
 16  8  1  0
 17 15  1  0
 18 17  2  0
 19 20  1  0
 20 21  1  0
 21 23  1  0
 21 22  1  1
 23 25  1  0
 23 24  1  6
 24 17  1  0
 25 26  1  0
 27 25  2  0
M  END
$$$$
