KQI.pdb
     RDKit          3D

 27 26  0  0  1  0  0  0  0  0999 V2000
   19.8656  -12.3991  -20.1975 N   0  0  0  0  0  0  0  0  0  0  0  0
   19.0273  -11.3628  -19.6430 C   0  0  1  0  0  0  0  0  0  0  0  0
   18.0035  -11.8906  -18.6946 C   0  0  0  0  0  0  0  0  0  0  0  0
   17.0169  -12.8710  -19.1876 C   0  0  0  0  0  0  0  0  0  0  0  0
   15.9150  -13.3580  -18.3570 C   0  0  0  0  0  0  0  0  0  0  0  0
   14.9787  -14.3814  -18.8566 C   0  0  0  0  0  0  0  0  0  0  0  0
   13.9502  -14.7497  -17.9075 N   0  0  0  0  0  0  0  0  0  0  0  0
   19.8648  -10.3432  -18.9144 C   0  0  0  0  0  0  0  0  0  0  0  0
   20.7836  -10.8088  -18.2043 O   0  0  0  0  0  0  0  0  0  0  0  0
   22.5534   -3.4332  -18.1538 N   0  0  0  0  0  0  0  0  0  0  0  0
   21.6408   -4.3865  -18.6781 C   0  0  0  0  0  0  0  0  0  0  0  0
   20.8745   -4.0194  -19.6174 O   0  0  0  0  0  0  0  0  0  0  0  0
   21.5492   -5.7629  -18.1918 C   0  0  0  0  0  0  0  0  0  0  0  0
   20.5898   -6.6492  -18.8910 C   0  0  0  0  0  0  0  0  0  0  0  0
   20.5282   -8.0254  -18.3086 C   0  0  2  0  0  0  0  0  0  0  0  0
   19.6774   -8.9596  -18.9868 N   0  0  0  0  0  0  0  0  0  0  0  0
   20.2367   -7.9431  -16.8659 C   0  0  0  0  0  0  0  0  0  0  0  0
   19.0648   -7.8510  -16.4051 O   0  0  0  0  0  0  0  0  0  0  0  0
   22.9095  -11.1842  -13.9983 C   0  0  0  0  0  0  0  0  0  0  0  0
   21.9024  -10.1995  -14.5343 C   0  0  0  0  0  0  0  0  0  0  0  0
   22.0125   -8.8480  -13.8450 C   0  0  2  0  0  0  0  0  0  0  0  0
   21.8012   -9.0389  -12.3678 C   0  0  0  0  0  0  0  0  0  0  0  0
   21.0114   -7.9390  -14.4815 C   0  0  2  0  0  0  0  0  0  0  0  0
   21.2760   -7.9657  -15.9248 N   0  0  0  0  0  0  0  0  0  0  0  0
   21.0270   -6.5617  -13.9596 C   0  0  0  0  0  0  0  0  0  0  0  0
   20.1799   -6.0703  -12.9939 O   0  0  0  0  0  0  0  0  0  0  0  0
   21.8831   -5.7727  -14.4353 O   0  0  0  0  0  0  0  0  0  0  0  0
  2  1  1  1
  3  2  1  0
  4  3  1  0
  5  4  1  0
  6  5  1  0
  7  6  1  0
  8  9  2  0
  8  2  1  0
 10 11  1  0
 11 12  2  0
 11 13  1  0
 13 14  1  0
 15 14  1  6
 15 16  1  0
 16  8  1  0
 17 15  1  0
 18 17  2  0
 19 20  1  0
 20 21  1  0
 21 23  1  0
 21 22  1  1
 23 25  1  0
 23 24  1  6
 24 17  1  0
 25 26  1  0
 27 25  2  0
M  END
$$$$
