KQI.pdb
     RDKit          3D

 27 26  0  0  1  0  0  0  0  0999 V2000
   17.1147  -13.8526  -19.1316 N   0  0  0  0  0  0  0  0  0  0  0  0
   16.9761  -13.4187  -17.7617 C   0  0  1  0  0  0  0  0  0  0  0  0
   17.5256  -14.4023  -16.7834 C   0  0  0  0  0  0  0  0  0  0  0  0
   16.8267  -15.6892  -16.6013 C   0  0  0  0  0  0  0  0  0  0  0  0
   17.5147  -16.9760  -16.7112 C   0  0  0  0  0  0  0  0  0  0  0  0
   16.7886  -18.2463  -16.5309 C   0  0  0  0  0  0  0  0  0  0  0  0
   17.6337  -19.4195  -16.5907 N   0  0  0  0  0  0  0  0  0  0  0  0
   17.6802  -12.1023  -17.5537 C   0  0  0  0  0  0  0  0  0  0  0  0
   18.5791  -11.8354  -18.3819 O   0  0  0  0  0  0  0  0  0  0  0  0
   15.4247   -6.4003  -15.6219 N   0  0  0  0  0  0  0  0  0  0  0  0
   16.8010   -6.2830  -15.9510 C   0  0  0  0  0  0  0  0  0  0  0  0
   17.2987   -5.1199  -16.0134 O   0  0  0  0  0  0  0  0  0  0  0  0
   17.6651   -7.4335  -16.2136 C   0  0  0  0  0  0  0  0  0  0  0  0
   17.0242   -8.7681  -16.1608 C   0  0  0  0  0  0  0  0  0  0  0  0
   17.9693   -9.8871  -16.4635 C   0  0  2  0  0  0  0  0  0  0  0  0
   17.3938  -11.1991  -16.5256 N   0  0  0  0  0  0  0  0  0  0  0  0
   19.1261   -9.8223  -15.5522 C   0  0  0  0  0  0  0  0  0  0  0  0
   19.1463  -10.3904  -14.4247 O   0  0  0  0  0  0  0  0  0  0  0  0
   23.7911  -10.9812  -14.0653 C   0  0  0  0  0  0  0  0  0  0  0  0
   23.7945   -9.7211  -14.8920 C   0  0  0  0  0  0  0  0  0  0  0  0
   22.5911   -9.6517  -15.8198 C   0  0  2  0  0  0  0  0  0  0  0  0
   22.9649   -8.8537  -17.0392 C   0  0  0  0  0  0  0  0  0  0  0  0
   21.4599   -9.0624  -15.0409 C   0  0  2  0  0  0  0  0  0  0  0  0
   20.2794   -9.1100  -15.9114 N   0  0  0  0  0  0  0  0  0  0  0  0
   21.7096   -7.6958  -14.5514 C   0  0  0  0  0  0  0  0  0  0  0  0
   21.3271   -6.5414  -15.1939 O   0  0  0  0  0  0  0  0  0  0  0  0
   22.3213   -7.5754  -13.4591 O   0  0  0  0  0  0  0  0  0  0  0  0
  2  1  1  6
  3  2  1  0
  4  3  1  0
  5  4  1  0
  6  5  1  0
  7  6  1  0
  8  9  2  0
  8  2  1  0
 10 11  1  0
 11 12  2  0
 11 13  1  0
 13 14  1  0
 15 14  1  1
 15 16  1  0
 16  8  1  0
 17 15  1  0
 18 17  2  0
 19 20  1  0
 20 21  1  0
 21 23  1  0
 21 22  1  6
 23 25  1  0
 23 24  1  6
 24 17  1  0
 25 26  1  0
 27 25  2  0
M  END
$$$$
