CRY.pdb
     RDKit          3D

 30 30  0  0  1  0  0  0  0  0999 V2000
   25.8378  -13.4931  -17.8029 N   0  0  0  0  0  0  0  0  0  0  0  0
   25.5378  -14.0806  -16.5094 C   0  0  1  0  0  0  0  0  0  0  0  0
   24.3837  -13.3196  -15.9114 C   0  0  0  0  0  0  0  0  0  0  0  0
   24.0803  -13.9765  -14.2480 S   0  0  0  0  0  0  0  0  0  0  0  0
   25.2024  -15.5193  -16.7258 C   0  0  0  0  0  0  0  0  0  0  0  0
   24.4628  -15.8832  -17.6849 O   0  0  0  0  0  0  0  0  0  0  0  0
   24.8575  -22.2777  -16.9449 N   0  0  0  0  0  0  0  0  0  0  0  0
   26.0360  -22.9840  -16.5449 C   0  0  0  0  0  0  0  0  0  0  0  0
   25.9533  -24.2030  -16.1990 N   0  0  0  0  0  0  0  0  0  0  0  0
   27.2552  -22.2728  -16.5573 N   0  0  0  0  0  0  0  0  0  0  0  0
   27.2968  -20.8508  -16.6605 C   0  0  0  0  0  0  0  0  0  0  0  0
   26.6196  -20.1261  -15.5067 C   0  0  0  0  0  0  0  0  0  0  0  0
   26.7030  -18.6537  -15.6923 C   0  0  0  0  0  0  0  0  0  0  0  0
   25.4156  -17.9687  -16.0870 C   0  0  2  0  0  0  0  0  0  0  0  0
   25.6900  -16.5350  -15.8774 N   0  0  0  0  0  0  0  0  0  0  0  0
   24.2929  -18.3397  -15.1616 C   0  0  0  0  0  0  0  0  0  0  0  0
   24.3919  -18.0056  -13.9265 O   0  0  0  0  0  0  0  0  0  0  0  0
   26.7990  -24.7232  -15.8827 O   0  0  0  0  0  0  0  0  0  0  0  0
   17.1619  -18.7501  -10.5308 C   0  0  0  0  0  0  0  0  0  0  0  0
   18.2573  -18.5466  -11.3657 C   0  0  0  0  0  0  0  0  0  0  0  0
   18.0985  -18.1672  -12.6731 C   0  0  0  0  0  0  0  0  0  0  0  0
   19.1824  -17.9655  -13.5004 C   0  0  0  0  0  0  0  0  0  0  0  0
   20.4939  -18.1390  -13.0437 C   0  0  0  0  0  0  0  0  0  0  0  0
   21.6522  -17.9457  -13.9274 C   0  0  1  0  0  0  0  0  0  0  0  0
   22.0476  -19.2358  -14.5626 N   0  0  0  0  0  0  0  0  0  0  0  0
   23.1370  -19.0225  -15.5326 C   0  0  0  0  0  0  0  0  0  0  0  0
   20.9080  -19.8661  -15.2590 O   0  0  0  0  0  0  0  0  0  0  0  0
   20.0276  -20.7674  -14.7030 C   0  0  0  0  0  0  0  0  0  0  0  0
   20.6188  -18.5238  -11.7150 C   0  0  0  0  0  0  0  0  0  0  0  0
   19.5468  -18.7227  -10.8981 O   0  0  0  0  0  0  0  0  0  0  0  0
  2  1  1  6
  2  3  1  0
  4  3  1  0
  5  2  1  0
  6  5  2  0
  8  7  1  0
  9  8  2  0
 10  8  1  0
 11 12  1  0
 11 10  1  0
 12 13  1  0
 14 13  1  1
 14 15  1  0
 15  5  1  0
 16 14  1  0
 16 17  2  0
 18 19  1  0
 19 29  2  0
 20 21  2  0
 20 19  1  0
 21 22  1  0
 22 23  1  0
 22 28  2  0
 24 23  1  1
 24 25  1  0
 25 16  1  0
 26 24  1  0
 27 26  1  0
 29 28  1  0
 30 26  2  0
M  END
$$$$
