CRY.pdb
     RDKit          3D

 30 30  0  0  1  0  0  0  0  0999 V2000
   31.1437  -23.6668  -18.7646 N   0  0  0  0  0  0  0  0  0  0  0  0
   30.1952  -24.0692  -17.7415 C   0  0  1  0  0  0  0  0  0  0  0  0
   30.9760  -24.4636  -16.5153 C   0  0  0  0  0  0  0  0  0  0  0  0
   31.4477  -26.2066  -16.6872 S   0  0  0  0  0  0  0  0  0  0  0  0
   29.2893  -22.9126  -17.4756 C   0  0  0  0  0  0  0  0  0  0  0  0
   29.7274  -21.7264  -17.4603 O   0  0  0  0  0  0  0  0  0  0  0  0
   21.5906  -22.0114  -20.8885 N   0  0  0  0  0  0  0  0  0  0  0  0
   21.5809  -20.8384  -20.0691 C   0  0  0  0  0  0  0  0  0  0  0  0
   20.6764  -19.9624  -20.2332 N   0  0  0  0  0  0  0  0  0  0  0  0
   22.5993  -20.7147  -19.0996 N   0  0  0  0  0  0  0  0  0  0  0  0
   23.7280  -21.5866  -19.0773 C   0  0  0  0  0  0  0  0  0  0  0  0
   24.7190  -21.2882  -17.9620 C   0  0  0  0  0  0  0  0  0  0  0  0
   25.9125  -22.1672  -18.0732 C   0  0  0  0  0  0  0  0  0  0  0  0
   26.9773  -21.9631  -17.0212 C   0  0  2  0  0  0  0  0  0  0  0  0
   27.9112  -23.0852  -17.2298 N   0  0  0  0  0  0  0  0  0  0  0  0
   26.4144  -22.1132  -15.6373 C   0  0  0  0  0  0  0  0  0  0  0  0
   25.9375  -23.2556  -15.2990 O   0  0  0  0  0  0  0  0  0  0  0  0
   20.6248  -19.1297  -19.6088 O   0  0  0  0  0  0  0  0  0  0  0  0
   23.3515  -21.1328   -7.4815 C   0  0  0  0  0  0  0  0  0  0  0  0
   24.0180  -20.9199   -8.6853 C   0  0  0  0  0  0  0  0  0  0  0  0
   23.3773  -20.3832   -9.7715 C   0  0  0  0  0  0  0  0  0  0  0  0
   24.0364  -20.1721  -10.9636 C   0  0  0  0  0  0  0  0  0  0  0  0
   25.3889  -20.4961  -11.1195 C   0  0  0  0  0  0  0  0  0  0  0  0
   26.0907  -20.2925  -12.3946 C   0  0  1  0  0  0  0  0  0  0  0  0
   25.6940  -21.3362  -13.3833 N   0  0  0  0  0  0  0  0  0  0  0  0
   26.3660  -21.1072  -14.6752 C   0  0  0  0  0  0  0  0  0  0  0  0
   24.2335  -21.3447  -13.6023 O   0  0  0  0  0  0  0  0  0  0  0  0
   23.5451  -20.5073  -14.4517 C   0  0  0  0  0  0  0  0  0  0  0  0
   26.0071  -21.0381   -9.9999 C   0  0  0  0  0  0  0  0  0  0  0  0
   25.3549  -21.2461   -8.8221 O   0  0  0  0  0  0  0  0  0  0  0  0
  2  1  1  6
  2  3  1  0
  4  3  1  0
  5  2  1  0
  6  5  2  0
  8  7  1  0
  9  8  2  0
 10  8  1  0
 11 12  1  0
 11 10  1  0
 12 13  1  0
 14 13  1  6
 14 15  1  0
 15  5  1  0
 16 14  1  0
 16 17  2  0
 18 19  1  0
 19 29  2  0
 20 21  2  0
 20 19  1  0
 21 22  1  0
 22 23  1  0
 22 28  2  0
 24 23  1  1
 24 25  1  0
 25 16  1  0
 26 24  1  0
 27 26  1  0
 29 28  1  0
 30 26  2  0
M  END
$$$$
