CRY.pdb
     RDKit          3D

 30 30  0  0  1  0  0  0  0  0999 V2000
   28.1820  -20.7508  -14.4599 N   0  0  0  0  0  0  0  0  0  0  0  0
   27.3710  -21.1103  -13.3104 C   0  0  1  0  0  0  0  0  0  0  0  0
   28.1728  -20.8200  -12.0687 C   0  0  0  0  0  0  0  0  0  0  0  0
   27.1943  -21.3439  -10.6340 S   0  0  0  0  0  0  0  0  0  0  0  0
   26.1165  -20.3024  -13.3635 C   0  0  0  0  0  0  0  0  0  0  0  0
   26.1192  -19.1148  -13.7982 O   0  0  0  0  0  0  0  0  0  0  0  0
   20.6146  -19.5744  -17.8376 N   0  0  0  0  0  0  0  0  0  0  0  0
   20.2071  -18.3251  -17.2713 C   0  0  0  0  0  0  0  0  0  0  0  0
   19.4246  -17.5643  -17.9203 N   0  0  0  0  0  0  0  0  0  0  0  0
   20.7067  -17.9978  -15.9924 N   0  0  0  0  0  0  0  0  0  0  0  0
   21.9924  -18.4313  -15.5523 C   0  0  0  0  0  0  0  0  0  0  0  0
   22.0635  -19.9126  -15.2121 C   0  0  0  0  0  0  0  0  0  0  0  0
   23.4105  -20.2664  -14.6929 C   0  0  0  0  0  0  0  0  0  0  0  0
   23.5859  -20.1570  -13.1964 C   0  0  2  0  0  0  0  0  0  0  0  0
   24.8768  -20.8201  -12.9344 N   0  0  0  0  0  0  0  0  0  0  0  0
   22.5346  -20.9400  -12.4642 C   0  0  0  0  0  0  0  0  0  0  0  0
   22.4567  -22.2017  -12.6851 O   0  0  0  0  0  0  0  0  0  0  0  0
   19.1736  -16.6225  -17.5516 O   0  0  0  0  0  0  0  0  0  0  0  0
   16.7991  -24.0264   -6.6070 C   0  0  0  0  0  0  0  0  0  0  0  0
   17.6614  -23.1917   -7.3128 C   0  0  0  0  0  0  0  0  0  0  0  0
   17.1954  -22.3257   -8.2675 C   0  0  0  0  0  0  0  0  0  0  0  0
   18.0484  -21.4990   -8.9668 C   0  0  0  0  0  0  0  0  0  0  0  0
   19.4285  -21.5060   -8.7343 C   0  0  0  0  0  0  0  0  0  0  0  0
   20.3445  -20.6418   -9.4918 C   0  0  1  0  0  0  0  0  0  0  0  0
   20.7404  -21.2938  -10.7733 N   0  0  0  0  0  0  0  0  0  0  0  0
   21.6256  -20.4089  -11.5522 C   0  0  0  0  0  0  0  0  0  0  0  0
   19.5602  -21.6286  -11.5955 O   0  0  0  0  0  0  0  0  0  0  0  0
   18.9079  -22.8415  -11.6056 C   0  0  0  0  0  0  0  0  0  0  0  0
   19.8667  -22.3951   -7.7612 C   0  0  0  0  0  0  0  0  0  0  0  0
   19.0228  -23.2117   -7.0705 O   0  0  0  0  0  0  0  0  0  0  0  0
  2  1  1  6
  2  3  1  0
  4  3  1  0
  5  2  1  0
  6  5  2  0
  8  7  1  0
  9  8  2  0
 10  8  1  0
 11 12  1  0
 11 10  1  0
 12 13  1  0
 14 13  1  6
 14 15  1  0
 15  5  1  0
 16 14  1  0
 16 17  2  0
 18 19  1  0
 19 29  2  0
 20 21  2  0
 20 19  1  0
 21 22  1  0
 22 23  1  0
 22 28  2  0
 24 23  1  1
 24 25  1  0
 25 16  1  0
 26 24  1  0
 27 26  1  0
 29 28  1  0
 30 26  2  0
M  END
$$$$
