CRY.pdb
     RDKit          3D

 30 30  0  0  1  0  0  0  0  0999 V2000
   28.0691  -20.5651  -14.3721 N   0  0  0  0  0  0  0  0  0  0  0  0
   27.1576  -21.1878  -13.4288 C   0  0  1  0  0  0  0  0  0  0  0  0
   27.3470  -20.5202  -12.0919 C   0  0  0  0  0  0  0  0  0  0  0  0
   26.2687  -21.3503  -10.8926 S   0  0  0  0  0  0  0  0  0  0  0  0
   25.7689  -21.0099  -13.9472 C   0  0  0  0  0  0  0  0  0  0  0  0
   25.3789  -19.8995  -14.4101 O   0  0  0  0  0  0  0  0  0  0  0  0
   23.2816  -26.1138  -16.3902 N   0  0  0  0  0  0  0  0  0  0  0  0
   24.3874  -25.8628  -17.2631 C   0  0  0  0  0  0  0  0  0  0  0  0
   25.2903  -26.7441  -17.4058 N   0  0  0  0  0  0  0  0  0  0  0  0
   24.4160  -24.6218  -17.9350 N   0  0  0  0  0  0  0  0  0  0  0  0
   23.3795  -23.6548  -17.7756 C   0  0  0  0  0  0  0  0  0  0  0  0
   23.7032  -22.5601  -16.7697 C   0  0  0  0  0  0  0  0  0  0  0  0
   23.2081  -22.9287  -15.4176 C   0  0  0  0  0  0  0  0  0  0  0  0
   23.4194  -21.8937  -14.3374 C   0  0  2  0  0  0  0  0  0  0  0  0
   24.8310  -22.0633  -13.9456 N   0  0  0  0  0  0  0  0  0  0  0  0
   22.5887  -22.1935  -13.1232 C   0  0  0  0  0  0  0  0  0  0  0  0
   22.7683  -23.3172  -12.5299 O   0  0  0  0  0  0  0  0  0  0  0  0
   26.1086  -26.5694  -18.0269 O   0  0  0  0  0  0  0  0  0  0  0  0
   17.3696  -22.1232   -6.0903 C   0  0  0  0  0  0  0  0  0  0  0  0
   18.1617  -21.7404   -7.1693 C   0  0  0  0  0  0  0  0  0  0  0  0
   17.6149  -21.4687   -8.3963 C   0  0  0  0  0  0  0  0  0  0  0  0
   18.3985  -21.0896   -9.4652 C   0  0  0  0  0  0  0  0  0  0  0  0
   19.7874  -20.9649   -9.3467 C   0  0  0  0  0  0  0  0  0  0  0  0
   20.6294  -20.5815  -10.4885 C   0  0  1  0  0  0  0  0  0  0  0  0
   20.8610  -21.7510  -11.3846 N   0  0  0  0  0  0  0  0  0  0  0  0
   21.6285  -21.3457  -12.5762 C   0  0  0  0  0  0  0  0  0  0  0  0
   19.5870  -22.3556  -11.8229 O   0  0  0  0  0  0  0  0  0  0  0  0
   18.9346  -23.3939  -11.1961 C   0  0  0  0  0  0  0  0  0  0  0  0
   20.3084  -21.2478   -8.0905 C   0  0  0  0  0  0  0  0  0  0  0  0
   19.5331  -21.6222   -7.0347 O   0  0  0  0  0  0  0  0  0  0  0  0
  2  1  1  6
  2  3  1  0
  4  3  1  0
  5  2  1  0
  6  5  2  0
  8  7  1  0
  9  8  2  0
 10  8  1  0
 11 12  1  0
 11 10  1  0
 12 13  1  0
 14 13  1  6
 14 15  1  0
 15  5  1  0
 16 14  1  0
 16 17  2  0
 18 19  1  0
 19 29  2  0
 20 21  2  0
 20 19  1  0
 21 22  1  0
 22 23  1  0
 22 28  2  0
 24 23  1  1
 24 25  1  0
 25 16  1  0
 26 24  1  0
 27 26  1  0
 29 28  1  0
 30 26  2  0
M  END
$$$$
