CRY.pdb
     RDKit          3D

 30 30  0  0  1  0  0  0  0  0999 V2000
   25.2592  -18.3221  -18.3417 N   0  0  0  0  0  0  0  0  0  0  0  0
   24.7362  -17.9483  -17.0397 C   0  0  1  0  0  0  0  0  0  0  0  0
   23.5165  -17.0921  -17.2589 C   0  0  0  0  0  0  0  0  0  0  0  0
   24.0709  -15.4607  -17.8260 S   0  0  0  0  0  0  0  0  0  0  0  0
   24.4090  -19.2030  -16.2996 C   0  0  0  0  0  0  0  0  0  0  0  0
   23.9748  -20.2260  -16.9030 O   0  0  0  0  0  0  0  0  0  0  0  0
   28.3469  -21.0928   -9.1997 N   0  0  0  0  0  0  0  0  0  0  0  0
   28.5769  -21.3064  -10.5958 C   0  0  0  0  0  0  0  0  0  0  0  0
   29.7623  -21.4679  -11.0217 N   0  0  0  0  0  0  0  0  0  0  0  0
   27.4492  -21.3276  -11.4443 N   0  0  0  0  0  0  0  0  0  0  0  0
   26.1339  -21.5595  -10.9434 C   0  0  0  0  0  0  0  0  0  0  0  0
   25.0662  -21.6464  -12.0239 C   0  0  0  0  0  0  0  0  0  0  0  0
   25.1986  -20.5183  -12.9826 C   0  0  0  0  0  0  0  0  0  0  0  0
   24.2214  -20.5188  -14.1347 C   0  0  2  0  0  0  0  0  0  0  0  0
   24.5665  -19.3076  -14.9019 N   0  0  0  0  0  0  0  0  0  0  0  0
   22.8095  -20.3455  -13.6541 C   0  0  0  0  0  0  0  0  0  0  0  0
   22.5924  -19.5111  -12.7035 O   0  0  0  0  0  0  0  0  0  0  0  0
   29.9462  -21.6095  -12.0375 O   0  0  0  0  0  0  0  0  0  0  0  0
   20.2726  -14.4536  -14.3728 C   0  0  0  0  0  0  0  0  0  0  0  0
   20.0757  -15.8306  -14.4332 C   0  0  0  0  0  0  0  0  0  0  0  0
   19.3927  -16.4986  -13.4505 C   0  0  0  0  0  0  0  0  0  0  0  0
   19.1975  -17.8619  -13.5096 C   0  0  0  0  0  0  0  0  0  0  0  0
   19.6874  -18.6259  -14.5749 C   0  0  0  0  0  0  0  0  0  0  0  0
   19.5000  -20.0824  -14.6320 C   0  0  2  0  0  0  0  0  0  0  0  0
   20.3541  -20.7608  -13.6148 N   0  0  0  0  0  0  0  0  0  0  0  0
   21.6998  -21.0193  -14.1584 C   0  0  0  0  0  0  0  0  0  0  0  0
   19.7623  -22.0426  -13.1816 O   0  0  0  0  0  0  0  0  0  0  0  0
   20.3456  -23.2824  -13.3194 C   0  0  0  0  0  0  0  0  0  0  0  0
   20.3746  -17.9179  -15.5525 C   0  0  0  0  0  0  0  0  0  0  0  0
   20.5670  -16.5705  -15.4933 O   0  0  0  0  0  0  0  0  0  0  0  0
  2  1  1  6
  2  3  1  0
  4  3  1  0
  5  2  1  0
  6  5  2  0
  8  7  1  0
  9  8  2  0
 10  8  1  0
 11 12  1  0
 11 10  1  0
 12 13  1  0
 14 13  1  1
 14 15  1  0
 15  5  1  0
 16 14  1  0
 16 17  2  0
 18 19  1  0
 19 29  2  0
 20 21  2  0
 20 19  1  0
 21 22  1  0
 22 23  1  0
 22 28  2  0
 24 23  1  1
 24 25  1  0
 25 16  1  0
 26 24  1  0
 27 26  1  0
 29 28  1  0
 30 26  2  0
M  END
$$$$
