CRY.pdb
     RDKit          3D

 30 30  0  0  1  0  0  0  0  0999 V2000
   24.9935  -21.5561  -10.2601 N   0  0  0  0  0  0  0  0  0  0  0  0
   25.4203  -20.1870  -10.0319 C   0  0  1  0  0  0  0  0  0  0  0  0
   26.1383  -20.1400   -8.7087 C   0  0  0  0  0  0  0  0  0  0  0  0
   25.6830  -21.6243   -7.7705 S   0  0  0  0  0  0  0  0  0  0  0  0
   26.3113  -19.7901  -11.1622 C   0  0  0  0  0  0  0  0  0  0  0  0
   26.9435  -18.6950  -11.1455 O   0  0  0  0  0  0  0  0  0  0  0  0
   26.1093  -22.6257  -17.7432 N   0  0  0  0  0  0  0  0  0  0  0  0
   26.2187  -23.6334  -16.7332 C   0  0  0  0  0  0  0  0  0  0  0  0
   25.2758  -24.4683  -16.5712 N   0  0  0  0  0  0  0  0  0  0  0  0
   27.3955  -23.6471  -15.9539 N   0  0  0  0  0  0  0  0  0  0  0  0
   28.4488  -22.7083  -16.1636 C   0  0  0  0  0  0  0  0  0  0  0  0
   28.1923  -21.3417  -15.5459 C   0  0  0  0  0  0  0  0  0  0  0  0
   27.4862  -21.4793  -14.2452 C   0  0  0  0  0  0  0  0  0  0  0  0
   27.2511  -20.1935  -13.4876 C   0  0  2  0  0  0  0  0  0  0  0  0
   26.4897  -20.6106  -12.2955 N   0  0  0  0  0  0  0  0  0  0  0  0
   26.3720  -19.2552  -14.2628 C   0  0  0  0  0  0  0  0  0  0  0  0
   25.1151  -19.5089  -14.3159 O   0  0  0  0  0  0  0  0  0  0  0  0
   25.3688  -25.2470  -15.8850 O   0  0  0  0  0  0  0  0  0  0  0  0
   23.1579  -12.3306  -18.6353 C   0  0  0  0  0  0  0  0  0  0  0  0
   23.8670  -13.1808  -17.7912 C   0  0  0  0  0  0  0  0  0  0  0  0
   25.1298  -13.6104  -18.1062 C   0  0  0  0  0  0  0  0  0  0  0  0
   25.8326  -14.4522  -17.2710 C   0  0  0  0  0  0  0  0  0  0  0  0
   25.2893  -14.9067  -16.0640 C   0  0  0  0  0  0  0  0  0  0  0  0
   26.0260  -15.8210  -15.1803 C   0  0  1  0  0  0  0  0  0  0  0  0
   25.8443  -17.2345  -15.6199 N   0  0  0  0  0  0  0  0  0  0  0  0
   26.8077  -18.1168  -14.9367 C   0  0  0  0  0  0  0  0  0  0  0  0
   26.0250  -17.3732  -17.0791 O   0  0  0  0  0  0  0  0  0  0  0  0
   27.2334  -17.4769  -17.7313 C   0  0  0  0  0  0  0  0  0  0  0  0
   24.0085  -14.4528  -15.7760 C   0  0  0  0  0  0  0  0  0  0  0  0
   23.3148  -13.6207  -16.6020 O   0  0  0  0  0  0  0  0  0  0  0  0
  2  1  1  6
  2  3  1  0
  4  3  1  0
  5  2  1  0
  6  5  2  0
  8  7  1  0
  9  8  2  0
 10  8  1  0
 11 12  1  0
 11 10  1  0
 12 13  1  0
 14 13  1  6
 14 15  1  0
 15  5  1  0
 16 14  1  0
 16 17  2  0
 18 19  1  0
 19 29  2  0
 20 21  2  0
 20 19  1  0
 21 22  1  0
 22 23  1  0
 22 28  2  0
 24 23  1  1
 24 25  1  0
 25 16  1  0
 26 24  1  0
 27 26  1  0
 29 28  1  0
 30 26  2  0
M  END
$$$$
