CRY.pdb
     RDKit          3D

 30 30  0  0  1  0  0  0  0  0999 V2000
   27.7299  -18.5910  -16.9687 N   0  0  0  0  0  0  0  0  0  0  0  0
   28.0107  -18.6929  -15.5477 C   0  0  1  0  0  0  0  0  0  0  0  0
   28.4563  -17.3374  -15.0652 C   0  0  0  0  0  0  0  0  0  0  0  0
   30.0423  -16.9536  -15.8574 S   0  0  0  0  0  0  0  0  0  0  0  0
   26.7618  -19.1432  -14.8646 C   0  0  0  0  0  0  0  0  0  0  0  0
   25.6231  -18.7634  -15.2627 O   0  0  0  0  0  0  0  0  0  0  0  0
   22.6986  -26.2371  -13.5096 N   0  0  0  0  0  0  0  0  0  0  0  0
   22.8773  -25.6773  -14.8143 C   0  0  0  0  0  0  0  0  0  0  0  0
   22.1929  -26.1186  -15.7886 N   0  0  0  0  0  0  0  0  0  0  0  0
   23.8251  -24.6405  -14.9522 N   0  0  0  0  0  0  0  0  0  0  0  0
   24.2894  -23.8904  -13.8313 C   0  0  0  0  0  0  0  0  0  0  0  0
   23.9284  -22.4132  -13.8822 C   0  0  0  0  0  0  0  0  0  0  0  0
   25.1189  -21.5952  -14.2325 C   0  0  0  0  0  0  0  0  0  0  0  0
   25.5836  -20.6256  -13.1712 C   0  0  2  0  0  0  0  0  0  0  0  0
   26.7907  -20.0072  -13.7502 N   0  0  0  0  0  0  0  0  0  0  0  0
   26.0142  -21.3442  -11.9252 C   0  0  0  0  0  0  0  0  0  0  0  0
   27.1239  -21.9883  -11.9514 O   0  0  0  0  0  0  0  0  0  0  0  0
   22.3131  -25.7213  -16.7444 O   0  0  0  0  0  0  0  0  0  0  0  0
   29.3289  -19.4703   -4.3243 C   0  0  0  0  0  0  0  0  0  0  0  0
   28.7506  -19.6223   -5.5816 C   0  0  0  0  0  0  0  0  0  0  0  0
   27.6278  -18.9233   -5.9409 C   0  0  0  0  0  0  0  0  0  0  0  0
   27.0545  -19.0732   -7.1855 C   0  0  0  0  0  0  0  0  0  0  0  0
   27.5923  -19.9455   -8.1387 C   0  0  0  0  0  0  0  0  0  0  0  0
   26.9728  -20.1247   -9.4593 C   0  0  1  0  0  0  0  0  0  0  0  0
   26.0092  -21.2628   -9.4359 N   0  0  0  0  0  0  0  0  0  0  0  0
   25.3053  -21.3712  -10.7266 C   0  0  0  0  0  0  0  0  0  0  0  0
   25.0092  -21.1011   -8.3613 O   0  0  0  0  0  0  0  0  0  0  0  0
   25.0781  -21.6709   -7.1094 C   0  0  0  0  0  0  0  0  0  0  0  0
   28.7291  -20.6381   -7.7419 C   0  0  0  0  0  0  0  0  0  0  0  0
   29.2950  -20.4891   -6.5116 O   0  0  0  0  0  0  0  0  0  0  0  0
  2  1  1  6
  2  3  1  0
  4  3  1  0
  5  2  1  0
  6  5  2  0
  8  7  1  0
  9  8  2  0
 10  8  1  0
 11 12  1  0
 11 10  1  0
 12 13  1  0
 14 13  1  6
 14 15  1  0
 15  5  1  0
 16 14  1  0
 16 17  2  0
 18 19  1  0
 19 29  2  0
 20 21  2  0
 20 19  1  0
 21 22  1  0
 22 23  1  0
 22 28  2  0
 24 23  1  6
 24 25  1  0
 25 16  1  0
 26 24  1  0
 27 26  1  0
 29 28  1  0
 30 26  2  0
M  END
$$$$
