CRY.pdb
     RDKit          3D

 30 30  0  0  1  0  0  0  0  0999 V2000
   23.3038  -19.4855  -17.6810 N   0  0  0  0  0  0  0  0  0  0  0  0
   23.9135  -19.0195  -16.4483 C   0  0  1  0  0  0  0  0  0  0  0  0
   22.8263  -18.4324  -15.5869 C   0  0  0  0  0  0  0  0  0  0  0  0
   21.8383  -17.3124  -16.6163 S   0  0  0  0  0  0  0  0  0  0  0  0
   24.5724  -20.1877  -15.7924 C   0  0  0  0  0  0  0  0  0  0  0  0
   24.0496  -21.3388  -15.8245 O   0  0  0  0  0  0  0  0  0  0  0  0
   31.3459  -24.7204  -15.4959 N   0  0  0  0  0  0  0  0  0  0  0  0
   31.2743  -23.8847  -16.6552 C   0  0  0  0  0  0  0  0  0  0  0  0
   32.0709  -24.0817  -17.6243 N   0  0  0  0  0  0  0  0  0  0  0  0
   30.2998  -22.8636  -16.6608 N   0  0  0  0  0  0  0  0  0  0  0  0
   28.9779  -23.0812  -16.1714 C   0  0  0  0  0  0  0  0  0  0  0  0
   28.0511  -21.8861  -16.3384 C   0  0  0  0  0  0  0  0  0  0  0  0
   27.8790  -21.1725  -15.0460 C   0  0  0  0  0  0  0  0  0  0  0  0
   26.4857  -21.1996  -14.4625 C   0  0  2  0  0  0  0  0  0  0  0  0
   25.8006  -20.0655  -15.1099 N   0  0  0  0  0  0  0  0  0  0  0  0
   26.5049  -20.9161  -12.9882 C   0  0  0  0  0  0  0  0  0  0  0  0
   26.7659  -19.7191  -12.6059 O   0  0  0  0  0  0  0  0  0  0  0  0
   32.0056  -23.5056  -18.4902 O   0  0  0  0  0  0  0  0  0  0  0  0
   28.2056  -19.2710   -4.8640 C   0  0  0  0  0  0  0  0  0  0  0  0
   28.0790  -19.6457   -6.1989 C   0  0  0  0  0  0  0  0  0  0  0  0
   29.0079  -20.4496   -6.8065 C   0  0  0  0  0  0  0  0  0  0  0  0
   28.8834  -20.8210   -8.1282 C   0  0  0  0  0  0  0  0  0  0  0  0
   27.8036  -20.3944   -8.9097 C   0  0  0  0  0  0  0  0  0  0  0  0
   27.6773  -20.7703  -10.3248 C   0  0  1  0  0  0  0  0  0  0  0  0
   26.3880  -21.4804  -10.5652 N   0  0  0  0  0  0  0  0  0  0  0  0
   26.2587  -21.8515  -11.9860 C   0  0  0  0  0  0  0  0  0  0  0  0
   25.2320  -20.6433  -10.1856 O   0  0  0  0  0  0  0  0  0  0  0  0
   24.4840  -19.8712  -11.0463 C   0  0  0  0  0  0  0  0  0  0  0  0
   26.8816  -19.5812   -8.2632 C   0  0  0  0  0  0  0  0  0  0  0  0
   27.0055  -19.2149   -6.9569 O   0  0  0  0  0  0  0  0  0  0  0  0
  2  1  1  6
  2  3  1  0
  4  3  1  0
  5  2  1  0
  6  5  2  0
  8  7  1  0
  9  8  2  0
 10  8  1  0
 11 12  1  0
 11 10  1  0
 12 13  1  0
 14 13  1  6
 14 15  1  0
 15  5  1  0
 16 14  1  0
 16 17  2  0
 18 19  1  0
 19 29  2  0
 20 21  2  0
 20 19  1  0
 21 22  1  0
 22 23  1  0
 22 28  2  0
 24 23  1  1
 24 25  1  0
 25 16  1  0
 26 24  1  0
 27 26  1  0
 29 28  1  0
 30 26  2  0
M  END
$$$$
