QWI.pdb
     RDKit          3D

 32 33  0  0  1  0  0  0  0  0999 V2000
   12.1838  -15.2775   17.4767 N   0  0  0  0  0  0  0  0  0  0  0  0
   11.6073  -16.5379   17.1787 C   0  0  0  0  0  0  0  0  0  0  0  0
   11.7375  -17.0179   16.0358 O   0  0  0  0  0  0  0  0  0  0  0  0
   10.8641  -17.2685   18.2158 C   0  0  0  0  0  0  0  0  0  0  0  0
   10.8644  -16.5237   19.5090 C   0  0  0  0  0  0  0  0  0  0  0  0
   11.1952  -17.3809   20.6858 C   0  0  2  0  0  0  0  0  0  0  0  0
   10.4161  -18.6019   20.5599 N   0  0  0  0  0  0  0  0  0  0  0  0
   10.7989  -16.6544   21.9513 C   0  0  0  0  0  0  0  0  0  0  0  0
   11.4241  -15.6401   22.3097 O   0  0  0  0  0  0  0  0  0  0  0  0
    9.7196  -17.1482   22.7030 N   0  0  0  0  0  0  0  0  0  0  0  0
    9.2264  -16.4942   23.9044 C   0  0  1  0  0  0  0  0  0  0  0  0
    7.7576  -16.6809   24.0921 C   0  0  0  0  0  0  0  0  0  0  0  0
    7.0642  -15.4160   23.7600 C   0  0  0  0  0  0  0  0  0  0  0  0
    6.4653  -15.1433   22.5459 C   0  0  0  0  0  0  0  0  0  0  0  0
    5.9613  -13.9166   22.6355 N   0  0  0  0  0  0  0  0  0  0  0  0
    6.1994  -13.3819   23.8348 C   0  0  0  0  0  0  0  0  0  0  0  0
    5.8989  -12.1775   24.4144 C   0  0  0  0  0  0  0  0  0  0  0  0
    6.2649  -11.8530   25.7017 C   0  0  0  0  0  0  0  0  0  0  0  0
    6.9660  -12.8173   26.4027 C   0  0  0  0  0  0  0  0  0  0  0  0
    7.2799  -14.0318   25.8461 C   0  0  0  0  0  0  0  0  0  0  0  0
    6.8946  -14.3096   24.5621 C   0  0  0  0  0  0  0  0  0  0  0  0
   10.0045  -16.9259   25.0820 C   0  0  0  0  0  0  0  0  0  0  0  0
   10.7245  -17.9508   25.0206 O   0  0  0  0  0  0  0  0  0  0  0  0
   10.7742  -13.1511   29.0649 C   0  0  0  0  0  0  0  0  0  0  0  0
   11.1063  -14.1878   28.0152 C   0  0  0  0  0  0  0  0  0  0  0  0
   10.7018  -15.5249   28.5469 C   0  0  2  0  0  0  0  0  0  0  0  0
   11.6613  -15.9373   29.6364 C   0  0  0  0  0  0  0  0  0  0  0  0
   10.7631  -16.5995   27.4646 C   0  0  2  0  0  0  0  0  0  0  0  0
    9.9738  -16.2151   26.3125 N   0  0  0  0  0  0  0  0  0  0  0  0
   10.1694  -17.8310   28.0379 C   0  0  0  0  0  0  0  0  0  0  0  0
   10.9420  -18.8232   28.6233 O   0  0  0  0  0  0  0  0  0  0  0  0
    8.9412  -18.0143   28.0103 O   0  0  0  0  0  0  0  0  0  0  0  0
  2  3  2  0
  2  1  1  0
  4  2  1  0
  5  4  1  0
  6  5  1  0
  6  7  1  6
  8  6  1  0
  8  9  2  0
 10  8  1  0
 11 10  1  0
 11 12  1  1
 13 12  1  0
 13 14  2  0
 15 14  1  0
 16 15  1  0
 17 16  2  0
 18 17  1  0
 19 18  2  0
 19 20  1  0
 20 21  2  0
 21 16  1  0
 21 13  1  0
 22 11  1  0
 23 22  2  0
 25 24  1  0
 26 27  1  1
 26 28  1  0
 26 25  1  0
 28 29  1  6
 29 22  1  0
 30 28  1  0
 30 31  1  0
 32 30  2  0
M  END
$$$$
