QWI.pdb
     RDKit          3D

 32 33  0  0  1  0  0  0  0  0999 V2000
    8.9780  -13.5735   17.3450 N   0  0  0  0  0  0  0  0  0  0  0  0
    8.2427  -14.6363   17.9276 C   0  0  0  0  0  0  0  0  0  0  0  0
    7.0770  -14.8581   17.5459 O   0  0  0  0  0  0  0  0  0  0  0  0
    8.8577  -15.4677   18.9727 C   0  0  0  0  0  0  0  0  0  0  0  0
   10.2458  -15.0137   19.2794 C   0  0  0  0  0  0  0  0  0  0  0  0
   10.9166  -15.8307   20.3337 C   0  0  2  0  0  0  0  0  0  0  0  0
   10.4951  -17.2088   20.1417 N   0  0  0  0  0  0  0  0  0  0  0  0
   10.4654  -15.3468   21.6933 C   0  0  0  0  0  0  0  0  0  0  0  0
   10.7099  -14.1810   22.0529 O   0  0  0  0  0  0  0  0  0  0  0  0
    9.7714  -16.2367   22.5301 N   0  0  0  0  0  0  0  0  0  0  0  0
    9.2576  -15.8577   23.8365 C   0  0  1  0  0  0  0  0  0  0  0  0
    7.8009  -16.1484   23.9816 C   0  0  0  0  0  0  0  0  0  0  0  0
    7.0430  -14.8816   23.8725 C   0  0  0  0  0  0  0  0  0  0  0  0
    6.4703  -14.4058   22.7094 C   0  0  0  0  0  0  0  0  0  0  0  0
    5.8892  -13.2500   23.0147 N   0  0  0  0  0  0  0  0  0  0  0  0
    6.0529  -12.9519   24.3052 C   0  0  0  0  0  0  0  0  0  0  0  0
    5.6594  -11.9042   25.0953 C   0  0  0  0  0  0  0  0  0  0  0  0
    5.9606  -11.8225   26.4366 C   0  0  0  0  0  0  0  0  0  0  0  0
    6.6951  -12.8679   26.9662 C   0  0  0  0  0  0  0  0  0  0  0  0
    7.1018  -13.9293   26.1972 C   0  0  0  0  0  0  0  0  0  0  0  0
    6.7784  -13.9670   24.8675 C   0  0  0  0  0  0  0  0  0  0  0  0
   10.0650  -16.4756   24.9064 C   0  0  0  0  0  0  0  0  0  0  0  0
   10.8950  -17.3743   24.6307 O   0  0  0  0  0  0  0  0  0  0  0  0
   10.2702  -13.7416   29.7377 C   0  0  0  0  0  0  0  0  0  0  0  0
   10.7156  -14.4149   28.4590 C   0  0  0  0  0  0  0  0  0  0  0  0
   10.5455  -15.8896   28.6337 C   0  0  2  0  0  0  0  0  0  0  0  0
   11.5747  -16.3958   29.6145 C   0  0  0  0  0  0  0  0  0  0  0  0
   10.7692  -16.6381   27.3223 C   0  0  2  0  0  0  0  0  0  0  0  0
    9.9411  -16.0887   26.2685 N   0  0  0  0  0  0  0  0  0  0  0  0
   10.3553  -18.0440   27.5460 C   0  0  0  0  0  0  0  0  0  0  0  0
   11.2656  -19.0450   27.8513 O   0  0  0  0  0  0  0  0  0  0  0  0
    9.1603  -18.3730   27.4648 O   0  0  0  0  0  0  0  0  0  0  0  0
  2  3  2  0
  2  1  1  0
  4  2  1  0
  5  4  1  0
  6  5  1  0
  6  7  1  6
  8  6  1  0
  8  9  2  0
 10  8  1  0
 11 10  1  0
 11 12  1  6
 13 12  1  0
 13 14  2  0
 15 14  1  0
 16 15  1  0
 17 16  2  0
 18 17  1  0
 19 18  2  0
 19 20  1  0
 20 21  2  0
 21 16  1  0
 21 13  1  0
 22 11  1  0
 23 22  2  0
 25 24  1  0
 26 27  1  1
 26 28  1  0
 26 25  1  0
 28 29  1  6
 29 22  1  0
 30 28  1  0
 30 31  1  0
 32 30  2  0
M  END
$$$$
