QWI.pdb
     RDKit          3D

 32 33  0  0  1  0  0  0  0  0999 V2000
    8.7730  -12.6654   18.1113 N   0  0  0  0  0  0  0  0  0  0  0  0
    9.0332  -13.8579   17.3902 C   0  0  0  0  0  0  0  0  0  0  0  0
    8.9528  -13.8532   16.1463 O   0  0  0  0  0  0  0  0  0  0  0  0
    9.3964  -15.0868   18.1109 C   0  0  0  0  0  0  0  0  0  0  0  0
    9.3610  -14.8791   19.5883 C   0  0  0  0  0  0  0  0  0  0  0  0
   10.1312  -15.9070   20.3493 C   0  0  2  0  0  0  0  0  0  0  0  0
    9.4702  -17.1842   20.1353 N   0  0  0  0  0  0  0  0  0  0  0  0
   10.0975  -15.5586   21.8203 C   0  0  0  0  0  0  0  0  0  0  0  0
   10.6769  -14.5376   22.2326 O   0  0  0  0  0  0  0  0  0  0  0  0
    9.4036  -16.4072   22.6990 N   0  0  0  0  0  0  0  0  0  0  0  0
    9.1233  -16.0568   24.0822 C   0  0  1  0  0  0  0  0  0  0  0  0
    7.7161  -16.3639   24.4732 C   0  0  0  0  0  0  0  0  0  0  0  0
    6.8730  -15.1752   24.2139 C   0  0  0  0  0  0  0  0  0  0  0  0
    6.0829  -15.0009   23.0947 C   0  0  0  0  0  0  0  0  0  0  0  0
    5.4909  -13.8180   23.2254 N   0  0  0  0  0  0  0  0  0  0  0  0
    5.8520  -13.2189   24.3620 C   0  0  0  0  0  0  0  0  0  0  0  0
    5.5334  -12.0221   24.9477 C   0  0  0  0  0  0  0  0  0  0  0  0
    6.0518  -11.6184   26.1579 C   0  0  0  0  0  0  0  0  0  0  0  0
    6.9293  -12.4928   26.7729 C   0  0  0  0  0  0  0  0  0  0  0  0
    7.2654  -13.6976   26.2082 C   0  0  0  0  0  0  0  0  0  0  0  0
    6.7243  -14.0563   25.0029 C   0  0  0  0  0  0  0  0  0  0  0  0
   10.1088  -16.6864   24.9827 C   0  0  0  0  0  0  0  0  0  0  0  0
   10.8869  -17.5684   24.5478 O   0  0  0  0  0  0  0  0  0  0  0  0
   10.4146  -14.7585   30.2853 C   0  0  0  0  0  0  0  0  0  0  0  0
   10.1679  -15.8078   29.2248 C   0  0  0  0  0  0  0  0  0  0  0  0
   11.4350  -15.9856   28.4519 C   0  0  2  0  0  0  0  0  0  0  0  0
   11.8974  -14.6433   27.9402 C   0  0  0  0  0  0  0  0  0  0  0  0
   11.2269  -16.8825   27.2344 C   0  0  2  0  0  0  0  0  0  0  0  0
   10.2183  -16.3293   26.3541 N   0  0  0  0  0  0  0  0  0  0  0  0
   10.7344  -18.1887   27.7335 C   0  0  0  0  0  0  0  0  0  0  0  0
    9.4544  -18.6502   27.4642 O   0  0  0  0  0  0  0  0  0  0  0  0
   11.4660  -18.9213   28.4198 O   0  0  0  0  0  0  0  0  0  0  0  0
  2  3  2  0
  2  1  1  0
  4  2  1  0
  5  4  1  0
  6  5  1  0
  6  7  1  1
  8  6  1  0
  8  9  2  0
 10  8  1  0
 11 10  1  0
 11 12  1  1
 13 12  1  0
 13 14  2  0
 15 14  1  0
 16 15  1  0
 17 16  2  0
 18 17  1  0
 19 18  2  0
 19 20  1  0
 20 21  2  0
 21 16  1  0
 21 13  1  0
 22 11  1  0
 23 22  2  0
 25 24  1  0
 26 27  1  6
 26 28  1  0
 26 25  1  0
 28 29  1  6
 29 22  1  0
 30 28  1  0
 30 31  1  0
 32 30  2  0
M  END
$$$$
