QWI.pdb
     RDKit          3D

 32 33  0  0  1  0  0  0  0  0999 V2000
    8.6015  -12.7901   16.7007 N   0  0  0  0  0  0  0  0  0  0  0  0
    8.2988  -14.1381   16.3830 C   0  0  0  0  0  0  0  0  0  0  0  0
    8.0285  -14.4457   15.2057 O   0  0  0  0  0  0  0  0  0  0  0  0
    8.3072  -15.1606   17.4394 C   0  0  0  0  0  0  0  0  0  0  0  0
    8.7105  -14.5791   18.7533 C   0  0  0  0  0  0  0  0  0  0  0  0
    9.5469  -15.5013   19.5772 C   0  0  2  0  0  0  0  0  0  0  0  0
    9.0224  -16.8436   19.3851 N   0  0  0  0  0  0  0  0  0  0  0  0
    9.4222  -15.1114   21.0328 C   0  0  0  0  0  0  0  0  0  0  0  0
    9.8571  -14.0130   21.4234 O   0  0  0  0  0  0  0  0  0  0  0  0
    8.8102  -16.0104   21.9221 N   0  0  0  0  0  0  0  0  0  0  0  0
    8.5063  -15.6742   23.3038 C   0  0  1  0  0  0  0  0  0  0  0  0
    7.1885  -16.2180   23.7455 C   0  0  0  0  0  0  0  0  0  0  0  0
    6.6847  -15.4041   24.8745 C   0  0  0  0  0  0  0  0  0  0  0  0
    5.9753  -15.9040   25.9488 C   0  0  0  0  0  0  0  0  0  0  0  0
    5.7000  -14.8710   26.7388 N   0  0  0  0  0  0  0  0  0  0  0  0
    6.1893  -13.7349   26.2381 C   0  0  0  0  0  0  0  0  0  0  0  0
    6.1771  -12.4300   26.6554 C   0  0  0  0  0  0  0  0  0  0  0  0
    6.7675  -11.4098   25.9434 C   0  0  0  0  0  0  0  0  0  0  0  0
    7.3889  -11.7658   24.7602 C   0  0  0  0  0  0  0  0  0  0  0  0
    7.4159  -13.0650   24.3192 C   0  0  0  0  0  0  0  0  0  0  0  0
    6.8150  -14.0460   25.0614 C   0  0  0  0  0  0  0  0  0  0  0  0
    9.6122  -16.0878   24.1895 C   0  0  0  0  0  0  0  0  0  0  0  0
   10.5077  -16.8553   23.7635 O   0  0  0  0  0  0  0  0  0  0  0  0
   10.1802  -13.3529   29.0659 C   0  0  0  0  0  0  0  0  0  0  0  0
   10.5633  -13.8734   27.6988 C   0  0  0  0  0  0  0  0  0  0  0  0
   10.6469  -15.3635   27.7821 C   0  0  2  0  0  0  0  0  0  0  0  0
   11.8565  -15.7484   28.5985 C   0  0  0  0  0  0  0  0  0  0  0  0
   10.8185  -15.9925   26.4019 C   0  0  2  0  0  0  0  0  0  0  0  0
    9.7102  -15.6446   25.5365 N   0  0  0  0  0  0  0  0  0  0  0  0
   10.8115  -17.4632   26.5885 C   0  0  0  0  0  0  0  0  0  0  0  0
    9.6412  -18.2075   26.5668 O   0  0  0  0  0  0  0  0  0  0  0  0
   11.8718  -18.0834   26.7732 O   0  0  0  0  0  0  0  0  0  0  0  0
  2  3  2  0
  2  1  1  0
  4  2  1  0
  5  4  1  0
  6  5  1  0
  6  7  1  1
  8  6  1  0
  8  9  2  0
 10  8  1  0
 11 10  1  0
 11 12  1  1
 13 12  1  0
 13 14  2  0
 15 14  1  0
 16 15  1  0
 17 16  2  0
 18 17  1  0
 19 18  2  0
 19 20  1  0
 20 21  2  0
 21 16  1  0
 21 13  1  0
 22 11  1  0
 23 22  2  0
 25 24  1  0
 26 27  1  1
 26 28  1  0
 26 25  1  0
 28 29  1  6
 29 22  1  0
 30 28  1  0
 30 31  1  0
 32 30  2  0
M  END
$$$$
