QWI.pdb
     RDKit          3D

 32 33  0  0  1  0  0  0  0  0999 V2000
    9.8144  -16.1244   16.6473 N   0  0  0  0  0  0  0  0  0  0  0  0
   11.0266  -16.8012   16.9339 C   0  0  0  0  0  0  0  0  0  0  0  0
   12.0166  -16.6262   16.1970 O   0  0  0  0  0  0  0  0  0  0  0  0
   11.1086  -17.7000   18.0945 C   0  0  0  0  0  0  0  0  0  0  0  0
   10.9210  -16.9530   19.3727 C   0  0  0  0  0  0  0  0  0  0  0  0
   11.1583  -17.7886   20.5870 C   0  0  2  0  0  0  0  0  0  0  0  0
   10.2553  -18.9254   20.5090 N   0  0  0  0  0  0  0  0  0  0  0  0
   10.8389  -16.9706   21.8179 C   0  0  0  0  0  0  0  0  0  0  0  0
   11.4869  -15.9376   22.0654 O   0  0  0  0  0  0  0  0  0  0  0  0
    9.8041  -17.4016   22.6648 N   0  0  0  0  0  0  0  0  0  0  0  0
    9.3298  -16.6210   23.7962 C   0  0  1  0  0  0  0  0  0  0  0  0
    7.8493  -16.7048   23.9650 C   0  0  0  0  0  0  0  0  0  0  0  0
    7.2502  -15.3942   23.6262 C   0  0  0  0  0  0  0  0  0  0  0  0
    6.8149  -15.0309   22.3670 C   0  0  0  0  0  0  0  0  0  0  0  0
    6.3507  -13.7894   22.4667 N   0  0  0  0  0  0  0  0  0  0  0  0
    6.4607  -13.3303   23.7150 C   0  0  0  0  0  0  0  0  0  0  0  0
    6.1376  -12.1461   24.3234 C   0  0  0  0  0  0  0  0  0  0  0  0
    6.3558  -11.9072   25.6620 C   0  0  0  0  0  0  0  0  0  0  0  0
    6.9288  -12.9378   26.3847 C   0  0  0  0  0  0  0  0  0  0  0  0
    7.2619  -14.1338   25.8001 C   0  0  0  0  0  0  0  0  0  0  0  0
    7.0261  -14.3255   24.4652 C   0  0  0  0  0  0  0  0  0  0  0  0
   10.0591  -16.9970   25.0231 C   0  0  0  0  0  0  0  0  0  0  0  0
   10.8368  -17.9808   25.0177 O   0  0  0  0  0  0  0  0  0  0  0  0
   10.1735  -13.1993   29.1190 C   0  0  0  0  0  0  0  0  0  0  0  0
   10.6585  -14.1459   28.0441 C   0  0  0  0  0  0  0  0  0  0  0  0
   10.4215  -15.5424   28.5215 C   0  0  2  0  0  0  0  0  0  0  0  0
   11.3648  -15.8451   29.6599 C   0  0  0  0  0  0  0  0  0  0  0  0
   10.7014  -16.5646   27.4230 C   0  0  2  0  0  0  0  0  0  0  0  0
    9.9163  -16.2768   26.2401 N   0  0  0  0  0  0  0  0  0  0  0  0
   10.2822  -17.8886   27.9415 C   0  0  0  0  0  0  0  0  0  0  0  0
   11.1219  -18.6848   28.7062 O   0  0  0  0  0  0  0  0  0  0  0  0
    9.1469  -18.3322   27.7021 O   0  0  0  0  0  0  0  0  0  0  0  0
  2  3  2  0
  2  1  1  0
  4  2  1  0
  5  4  1  0
  6  5  1  0
  6  7  1  6
  8  6  1  0
  8  9  2  0
 10  8  1  0
 11 10  1  0
 11 12  1  1
 13 12  1  0
 13 14  2  0
 15 14  1  0
 16 15  1  0
 17 16  2  0
 18 17  1  0
 19 18  2  0
 19 20  1  0
 20 21  2  0
 21 16  1  0
 21 13  1  0
 22 11  1  0
 23 22  2  0
 25 24  1  0
 26 27  1  1
 26 28  1  0
 26 25  1  0
 28 29  1  6
 29 22  1  0
 30 28  1  0
 30 31  1  0
 32 30  2  0
M  END
$$$$
