QWI.pdb
     RDKit          3D

 32 33  0  0  1  0  0  0  0  0999 V2000
   15.1714  -18.8087   22.2998 N   0  0  0  0  0  0  0  0  0  0  0  0
   14.6093  -18.8558   20.9992 C   0  0  0  0  0  0  0  0  0  0  0  0
   14.9365  -19.7733   20.2217 O   0  0  0  0  0  0  0  0  0  0  0  0
   13.6467  -17.8273   20.5783 C   0  0  0  0  0  0  0  0  0  0  0  0
   12.2449  -18.3335   20.6544 C   0  0  0  0  0  0  0  0  0  0  0  0
   11.2320  -17.3457   20.1778 C   0  0  2  0  0  0  0  0  0  0  0  0
   11.9007  -16.4680   19.2310 N   0  0  0  0  0  0  0  0  0  0  0  0
   10.7387  -16.5380   21.3571 C   0  0  0  0  0  0  0  0  0  0  0  0
   11.3650  -15.5286   21.7270 O   0  0  0  0  0  0  0  0  0  0  0  0
    9.5692  -16.9518   22.0165 N   0  0  0  0  0  0  0  0  0  0  0  0
    8.9939  -16.2271   23.1382 C   0  0  1  0  0  0  0  0  0  0  0  0
    7.5017  -16.2466   23.1235 C   0  0  0  0  0  0  0  0  0  0  0  0
    6.9979  -15.4991   24.2976 C   0  0  0  0  0  0  0  0  0  0  0  0
    6.3783  -16.0749   25.3893 C   0  0  0  0  0  0  0  0  0  0  0  0
    6.0703  -15.0843   26.2203 N   0  0  0  0  0  0  0  0  0  0  0  0
    6.4542  -13.9040   25.7298 C   0  0  0  0  0  0  0  0  0  0  0  0
    6.3712  -12.6142   26.1842 C   0  0  0  0  0  0  0  0  0  0  0  0
    6.8536  -11.5371   25.4747 C   0  0  0  0  0  0  0  0  0  0  0  0
    7.4400  -11.8182   24.2540 C   0  0  0  0  0  0  0  0  0  0  0  0
    7.5361  -13.1008   23.7755 C   0  0  0  0  0  0  0  0  0  0  0  0
    7.0420  -14.1403   24.5167 C   0  0  0  0  0  0  0  0  0  0  0  0
    9.5516  -16.7225   24.4118 C   0  0  0  0  0  0  0  0  0  0  0  0
    9.9923  -17.8937   24.4937 O   0  0  0  0  0  0  0  0  0  0  0  0
   10.4111  -12.8681   28.3797 C   0  0  0  0  0  0  0  0  0  0  0  0
   10.8041  -13.9411   27.3892 C   0  0  0  0  0  0  0  0  0  0  0  0
   10.2126  -15.2329   27.8535 C   0  0  2  0  0  0  0  0  0  0  0  0
   10.9803  -15.7274   29.0551 C   0  0  0  0  0  0  0  0  0  0  0  0
   10.3150  -16.3132   26.7800 C   0  0  2  0  0  0  0  0  0  0  0  0
    9.6131  -15.9123   25.5780 N   0  0  0  0  0  0  0  0  0  0  0  0
    9.6518  -17.5258   27.3163 C   0  0  0  0  0  0  0  0  0  0  0  0
   10.3236  -18.4533   28.0988 O   0  0  0  0  0  0  0  0  0  0  0  0
    8.4541  -17.7514   27.0763 O   0  0  0  0  0  0  0  0  0  0  0  0
  2  3  2  0
  2  1  1  0
  4  2  1  0
  5  4  1  0
  6  5  1  0
  6  7  1  6
  8  6  1  0
  8  9  2  0
 10  8  1  0
 11 10  1  0
 11 12  1  1
 13 12  1  0
 13 14  2  0
 15 14  1  0
 16 15  1  0
 17 16  2  0
 18 17  1  0
 19 18  2  0
 19 20  1  0
 20 21  2  0
 21 16  1  0
 21 13  1  0
 22 11  1  0
 23 22  2  0
 25 24  1  0
 26 27  1  1
 26 28  1  0
 26 25  1  0
 28 29  1  6
 29 22  1  0
 30 28  1  0
 30 31  1  0
 32 30  2  0
M  END
$$$$
