QWI.pdb
     RDKit          3D

 32 33  0  0  1  0  0  0  0  0999 V2000
    8.2698  -12.9193   16.6599 N   0  0  0  0  0  0  0  0  0  0  0  0
    8.2848  -14.3328   16.7665 C   0  0  0  0  0  0  0  0  0  0  0  0
    8.2418  -15.0271   15.7322 O   0  0  0  0  0  0  0  0  0  0  0  0
    8.3526  -14.9681   18.0906 C   0  0  0  0  0  0  0  0  0  0  0  0
    9.6085  -14.5969   18.8062 C   0  0  0  0  0  0  0  0  0  0  0  0
   10.1246  -15.6786   19.6964 C   0  0  2  0  0  0  0  0  0  0  0  0
    9.3543  -16.8771   19.4065 N   0  0  0  0  0  0  0  0  0  0  0  0
    9.9107  -15.2744   21.1377 C   0  0  0  0  0  0  0  0  0  0  0  0
   10.4339  -14.2348   21.5778 O   0  0  0  0  0  0  0  0  0  0  0  0
    9.1158  -16.0930   21.9572 N   0  0  0  0  0  0  0  0  0  0  0  0
    8.7376  -15.7275   23.3129 C   0  0  1  0  0  0  0  0  0  0  0  0
    7.2914  -15.9746   23.5867 C   0  0  0  0  0  0  0  0  0  0  0  0
    6.8907  -15.2106   24.7895 C   0  0  0  0  0  0  0  0  0  0  0  0
    6.4359  -15.7761   25.9645 C   0  0  0  0  0  0  0  0  0  0  0  0
    6.1760  -14.7722   26.7961 N   0  0  0  0  0  0  0  0  0  0  0  0
    6.4360  -13.5931   26.2276 C   0  0  0  0  0  0  0  0  0  0  0  0
    6.3388  -12.2933   26.6494 C   0  0  0  0  0  0  0  0  0  0  0  0
    6.6760  -11.2203   25.8548 C   0  0  0  0  0  0  0  0  0  0  0  0
    7.1282  -11.5164   24.5818 C   0  0  0  0  0  0  0  0  0  0  0  0
    7.2353  -12.8093   24.1343 C   0  0  0  0  0  0  0  0  0  0  0  0
    6.8881  -13.8442   24.9605 C   0  0  0  0  0  0  0  0  0  0  0  0
    9.6185  -16.3952   24.2909 C   0  0  0  0  0  0  0  0  0  0  0  0
   10.1415  -17.5013   24.0161 O   0  0  0  0  0  0  0  0  0  0  0  0
   10.2968  -14.1503   29.5062 C   0  0  0  0  0  0  0  0  0  0  0  0
    9.9200  -15.1594   28.4448 C   0  0  0  0  0  0  0  0  0  0  0  0
   11.1451  -15.4614   27.6434 C   0  0  2  0  0  0  0  0  0  0  0  0
   11.6632  -14.1848   27.0276 C   0  0  0  0  0  0  0  0  0  0  0  0
   10.8410  -16.4216   26.4964 C   0  0  2  0  0  0  0  0  0  0  0  0
    9.9079  -15.8271   25.5613 N   0  0  0  0  0  0  0  0  0  0  0  0
   10.1979  -17.6191   27.0882 C   0  0  0  0  0  0  0  0  0  0  0  0
   10.8912  -18.5111   27.8930 O   0  0  0  0  0  0  0  0  0  0  0  0
    8.9985  -17.8635   26.8772 O   0  0  0  0  0  0  0  0  0  0  0  0
  2  3  2  0
  2  1  1  0
  4  2  1  0
  5  4  1  0
  6  5  1  0
  6  7  1  6
  8  6  1  0
  8  9  2  0
 10  8  1  0
 11 10  1  0
 11 12  1  1
 13 12  1  0
 13 14  2  0
 15 14  1  0
 16 15  1  0
 17 16  2  0
 18 17  1  0
 19 18  2  0
 19 20  1  0
 20 21  2  0
 21 16  1  0
 21 13  1  0
 22 11  1  0
 23 22  2  0
 25 24  1  0
 26 27  1  6
 26 28  1  0
 26 25  1  0
 28 29  1  6
 29 22  1  0
 30 28  1  0
 30 31  1  0
 32 30  2  0
M  END
$$$$
