QWI.pdb
     RDKit          3D

 32 33  0  0  1  0  0  0  0  0999 V2000
   14.7821  -18.1211   18.7591 N   0  0  0  0  0  0  0  0  0  0  0  0
   13.9432  -17.0725   18.3047 C   0  0  0  0  0  0  0  0  0  0  0  0
   14.4532  -16.0095   17.9004 O   0  0  0  0  0  0  0  0  0  0  0  0
   12.4832  -17.2455   18.3115 C   0  0  0  0  0  0  0  0  0  0  0  0
   11.8593  -16.5397   19.4689 C   0  0  0  0  0  0  0  0  0  0  0  0
   11.5432  -17.4444   20.6137 C   0  0  2  0  0  0  0  0  0  0  0  0
   10.5601  -18.4061   20.1421 N   0  0  0  0  0  0  0  0  0  0  0  0
   10.9528  -16.6261   21.7398 C   0  0  0  0  0  0  0  0  0  0  0  0
   11.5639  -15.6342   22.1765 O   0  0  0  0  0  0  0  0  0  0  0  0
    9.7114  -17.0101   22.2740 N   0  0  0  0  0  0  0  0  0  0  0  0
    9.0722  -16.3084   23.3756 C   0  0  1  0  0  0  0  0  0  0  0  0
    7.5912  -16.4929   23.3852 C   0  0  0  0  0  0  0  0  0  0  0  0
    7.0093  -15.6680   24.4678 C   0  0  0  0  0  0  0  0  0  0  0  0
    6.4077  -16.1726   25.6037 C   0  0  0  0  0  0  0  0  0  0  0  0
    6.0116  -15.1272   26.3228 N   0  0  0  0  0  0  0  0  0  0  0  0
    6.3218  -13.9785   25.7185 C   0  0  0  0  0  0  0  0  0  0  0  0
    6.1373  -12.6585   26.0353 C   0  0  0  0  0  0  0  0  0  0  0  0
    6.5580  -11.6274   25.2253 C   0  0  0  0  0  0  0  0  0  0  0  0
    7.1901  -11.9884   24.0494 C   0  0  0  0  0  0  0  0  0  0  0  0
    7.3878  -13.3028   23.7079 C   0  0  0  0  0  0  0  0  0  0  0  0
    6.9521  -14.2943   24.5454 C   0  0  0  0  0  0  0  0  0  0  0  0
    9.6958  -16.6873   24.6585 C   0  0  0  0  0  0  0  0  0  0  0  0
   10.2961  -17.7828   24.7684 O   0  0  0  0  0  0  0  0  0  0  0  0
    9.3621  -12.8915   28.7078 C   0  0  0  0  0  0  0  0  0  0  0  0
   10.1587  -13.7535   27.7543 C   0  0  0  0  0  0  0  0  0  0  0  0
    9.9471  -15.1818   28.1412 C   0  0  2  0  0  0  0  0  0  0  0  0
   10.8009  -15.5025   29.3436 C   0  0  0  0  0  0  0  0  0  0  0  0
   10.3695  -16.1327   27.0244 C   0  0  2  0  0  0  0  0  0  0  0  0
    9.6453  -15.8461   25.8031 N   0  0  0  0  0  0  0  0  0  0  0  0
   10.0114  -17.5038   27.4597 C   0  0  0  0  0  0  0  0  0  0  0  0
    8.7426  -18.0327   27.2743 O   0  0  0  0  0  0  0  0  0  0  0  0
   10.8515  -18.2324   28.0132 O   0  0  0  0  0  0  0  0  0  0  0  0
  2  3  2  0
  2  1  1  0
  4  2  1  0
  5  4  1  0
  6  5  1  0
  6  7  1  6
  8  6  1  0
  8  9  2  0
 10  8  1  0
 11 10  1  0
 11 12  1  1
 13 12  1  0
 13 14  2  0
 15 14  1  0
 16 15  1  0
 17 16  2  0
 18 17  1  0
 19 18  2  0
 19 20  1  0
 20 21  2  0
 21 16  1  0
 21 13  1  0
 22 11  1  0
 23 22  2  0
 25 24  1  0
 26 27  1  1
 26 28  1  0
 26 25  1  0
 28 29  1  6
 29 22  1  0
 30 28  1  0
 30 31  1  0
 32 30  2  0
M  END
$$$$
