QWI.pdb
     RDKit          3D

 32 33  0  0  1  0  0  0  0  0999 V2000
   12.9546  -16.6264   16.1235 N   0  0  0  0  0  0  0  0  0  0  0  0
   12.2057  -17.5299   16.9187 C   0  0  0  0  0  0  0  0  0  0  0  0
   12.5456  -18.7279   16.9723 O   0  0  0  0  0  0  0  0  0  0  0  0
   11.0388  -17.0499   17.6735 C   0  0  0  0  0  0  0  0  0  0  0  0
   11.4541  -16.3236   18.9092 C   0  0  0  0  0  0  0  0  0  0  0  0
   11.3745  -17.1608   20.1429 C   0  0  2  0  0  0  0  0  0  0  0  0
   10.4949  -18.2797   19.8463 N   0  0  0  0  0  0  0  0  0  0  0  0
   10.7834  -16.3336   21.2621 C   0  0  0  0  0  0  0  0  0  0  0  0
   11.3302  -15.2707   21.6076 O   0  0  0  0  0  0  0  0  0  0  0  0
    9.6150  -16.7906   21.8944 N   0  0  0  0  0  0  0  0  0  0  0  0
    8.9998  -16.0999   23.0164 C   0  0  1  0  0  0  0  0  0  0  0  0
    7.5284  -16.3376   23.0937 C   0  0  0  0  0  0  0  0  0  0  0  0
    6.9746  -15.5688   24.2309 C   0  0  0  0  0  0  0  0  0  0  0  0
    6.2748  -16.1201   25.2861 C   0  0  0  0  0  0  0  0  0  0  0  0
    5.9438  -15.1158   26.0914 N   0  0  0  0  0  0  0  0  0  0  0  0
    6.3882  -13.9496   25.6186 C   0  0  0  0  0  0  0  0  0  0  0  0
    6.3125  -12.6548   26.0600 C   0  0  0  0  0  0  0  0  0  0  0  0
    6.8657  -11.5960   25.3751 C   0  0  0  0  0  0  0  0  0  0  0  0
    7.5172  -11.9012   24.1939 C   0  0  0  0  0  0  0  0  0  0  0  0
    7.6077  -13.1893   23.7292 C   0  0  0  0  0  0  0  0  0  0  0  0
    7.0419  -14.2100   24.4448 C   0  0  0  0  0  0  0  0  0  0  0  0
    9.6928  -16.4414   24.2740 C   0  0  0  0  0  0  0  0  0  0  0  0
   10.2694  -17.5483   24.3955 O   0  0  0  0  0  0  0  0  0  0  0  0
   10.7552  -13.9082   29.8457 C   0  0  0  0  0  0  0  0  0  0  0  0
   11.1909  -14.9132   28.8032 C   0  0  0  0  0  0  0  0  0  0  0  0
   10.4095  -14.6492   27.5566 C   0  0  2  0  0  0  0  0  0  0  0  0
    8.9453  -14.5328   27.9033 C   0  0  0  0  0  0  0  0  0  0  0  0
   10.5443  -15.7959   26.5581 C   0  0  2  0  0  0  0  0  0  0  0  0
    9.7372  -15.5505   25.3806 N   0  0  0  0  0  0  0  0  0  0  0  0
   10.0280  -17.0164   27.2226 C   0  0  0  0  0  0  0  0  0  0  0  0
   10.8248  -17.8136   28.0309 O   0  0  0  0  0  0  0  0  0  0  0  0
    8.8461  -17.3676   27.0723 O   0  0  0  0  0  0  0  0  0  0  0  0
  2  3  2  0
  2  1  1  0
  4  2  1  0
  5  4  1  0
  6  5  1  0
  6  7  1  6
  8  6  1  0
  8  9  2  0
 10  8  1  0
 11 10  1  0
 11 12  1  1
 13 12  1  0
 13 14  2  0
 15 14  1  0
 16 15  1  0
 17 16  2  0
 18 17  1  0
 19 18  2  0
 19 20  1  0
 20 21  2  0
 21 16  1  0
 21 13  1  0
 22 11  1  0
 23 22  2  0
 25 24  1  0
 26 27  1  1
 26 28  1  0
 26 25  1  0
 28 29  1  6
 29 22  1  0
 30 28  1  0
 30 31  1  0
 32 30  2  0
M  END
$$$$
