QWI.pdb
     RDKit          3D

 32 33  0  0  1  0  0  0  0  0999 V2000
    8.0044  -12.9751   16.7467 N   0  0  0  0  0  0  0  0  0  0  0  0
    8.6577  -14.1836   16.3968 C   0  0  0  0  0  0  0  0  0  0  0  0
    8.2506  -14.8409   15.4192 O   0  0  0  0  0  0  0  0  0  0  0  0
    9.8075  -14.6509   17.1849 C   0  0  0  0  0  0  0  0  0  0  0  0
    9.5840  -14.4424   18.6456 C   0  0  0  0  0  0  0  0  0  0  0  0
   10.0216  -15.5988   19.4825 C   0  0  2  0  0  0  0  0  0  0  0  0
    9.1863  -16.7319   19.1192 N   0  0  0  0  0  0  0  0  0  0  0  0
    9.8100  -15.2594   20.9407 C   0  0  0  0  0  0  0  0  0  0  0  0
   10.4179  -14.3021   21.4526 O   0  0  0  0  0  0  0  0  0  0  0  0
    8.9201  -16.0435   21.6937 N   0  0  0  0  0  0  0  0  0  0  0  0
    8.4957  -15.6891   23.0386 C   0  0  1  0  0  0  0  0  0  0  0  0
    7.1426  -16.2255   23.3685 C   0  0  0  0  0  0  0  0  0  0  0  0
    6.6731  -15.6081   24.6292 C   0  0  0  0  0  0  0  0  0  0  0  0
    6.1132  -16.3022   25.6836 C   0  0  0  0  0  0  0  0  0  0  0  0
    5.8194  -15.4047   26.6189 N   0  0  0  0  0  0  0  0  0  0  0  0
    6.1563  -14.1731   26.2307 C   0  0  0  0  0  0  0  0  0  0  0  0
    6.0647  -12.9357   26.8116 C   0  0  0  0  0  0  0  0  0  0  0  0
    6.4928  -11.7831   26.1915 C   0  0  0  0  0  0  0  0  0  0  0  0
    7.0326  -11.9299   24.9267 C   0  0  0  0  0  0  0  0  0  0  0  0
    7.1362  -13.1574   24.3219 C   0  0  0  0  0  0  0  0  0  0  0  0
    6.6969  -14.2760   24.9777 C   0  0  0  0  0  0  0  0  0  0  0  0
    9.5176  -16.0926   24.0242 C   0  0  0  0  0  0  0  0  0  0  0  0
   10.3193  -17.0193   23.7576 O   0  0  0  0  0  0  0  0  0  0  0  0
   11.4139  -14.4093   29.7068 C   0  0  0  0  0  0  0  0  0  0  0  0
   11.6295  -15.2834   28.4918 C   0  0  0  0  0  0  0  0  0  0  0  0
   10.6315  -14.8812   27.4543 C   0  0  2  0  0  0  0  0  0  0  0  0
    9.2482  -14.9126   28.0569 C   0  0  0  0  0  0  0  0  0  0  0  0
   10.6291  -15.8500   26.2746 C   0  0  2  0  0  0  0  0  0  0  0  0
    9.6370  -15.4628   25.2928 N   0  0  0  0  0  0  0  0  0  0  0  0
   10.2546  -17.1827   26.8050 C   0  0  0  0  0  0  0  0  0  0  0  0
    9.0093  -17.7486   26.5753 O   0  0  0  0  0  0  0  0  0  0  0  0
   11.0589  -17.8436   27.4828 O   0  0  0  0  0  0  0  0  0  0  0  0
  2  3  2  0
  2  1  1  0
  4  2  1  0
  5  4  1  0
  6  5  1  0
  6  7  1  6
  8  6  1  0
  8  9  2  0
 10  8  1  0
 11 10  1  0
 11 12  1  1
 13 12  1  0
 13 14  2  0
 15 14  1  0
 16 15  1  0
 17 16  2  0
 18 17  1  0
 19 18  2  0
 19 20  1  0
 20 21  2  0
 21 16  1  0
 21 13  1  0
 22 11  1  0
 23 22  2  0
 25 24  1  0
 26 27  1  1
 26 28  1  0
 26 25  1  0
 28 29  1  6
 29 22  1  0
 30 28  1  0
 30 31  1  0
 32 30  2  0
M  END
$$$$
