QWI.pdb
     RDKit          3D

 32 33  0  0  1  0  0  0  0  0999 V2000
   13.6281  -20.3447   20.6406 N   0  0  0  0  0  0  0  0  0  0  0  0
   14.1678  -19.0833   20.2840 C   0  0  0  0  0  0  0  0  0  0  0  0
   15.3853  -18.9841   20.0362 O   0  0  0  0  0  0  0  0  0  0  0  0
   13.2914  -17.9053   20.2074 C   0  0  0  0  0  0  0  0  0  0  0  0
   11.8791  -18.2584   20.5357 C   0  0  0  0  0  0  0  0  0  0  0  0
   10.8928  -17.2298   20.0904 C   0  0  2  0  0  0  0  0  0  0  0  0
   11.5799  -16.3520   19.1570 N   0  0  0  0  0  0  0  0  0  0  0  0
   10.4347  -16.4340   21.2917 C   0  0  0  0  0  0  0  0  0  0  0  0
   10.7773  -15.2447   21.4192 O   0  0  0  0  0  0  0  0  0  0  0  0
    9.6221  -17.0644   22.2487 N   0  0  0  0  0  0  0  0  0  0  0  0
    9.0343  -16.3593   23.3765 C   0  0  1  0  0  0  0  0  0  0  0  0
    7.5437  -16.4351   23.3810 C   0  0  0  0  0  0  0  0  0  0  0  0
    7.0214  -15.5962   24.4830 C   0  0  0  0  0  0  0  0  0  0  0  0
    6.4630  -16.0861   25.6472 C   0  0  0  0  0  0  0  0  0  0  0  0
    6.1135  -15.0314   26.3767 N   0  0  0  0  0  0  0  0  0  0  0  0
    6.4131  -13.8905   25.7525 C   0  0  0  0  0  0  0  0  0  0  0  0
    6.2612  -12.5662   26.0693 C   0  0  0  0  0  0  0  0  0  0  0  0
    6.6605  -11.5455   25.2356 C   0  0  0  0  0  0  0  0  0  0  0  0
    7.2354  -11.9218   24.0354 C   0  0  0  0  0  0  0  0  0  0  0  0
    7.3995  -13.2407   23.6934 C   0  0  0  0  0  0  0  0  0  0  0  0
    6.9869  -14.2214   24.5550 C   0  0  0  0  0  0  0  0  0  0  0  0
    9.6264  -16.8306   24.6437 C   0  0  0  0  0  0  0  0  0  0  0  0
    9.8663  -18.0499   24.8124 O   0  0  0  0  0  0  0  0  0  0  0  0
    9.4628  -13.8169   29.4885 C   0  0  0  0  0  0  0  0  0  0  0  0
    9.3200  -14.9391   28.4849 C   0  0  0  0  0  0  0  0  0  0  0  0
   10.6775  -15.2390   27.9359 C   0  0  2  0  0  0  0  0  0  0  0  0
   11.2071  -14.0175   27.2252 C   0  0  0  0  0  0  0  0  0  0  0  0
   10.6296  -16.3689   26.9107 C   0  0  2  0  0  0  0  0  0  0  0  0
    9.9449  -15.9432   25.7073 N   0  0  0  0  0  0  0  0  0  0  0  0
    9.8496  -17.4748   27.5161 C   0  0  0  0  0  0  0  0  0  0  0  0
   10.3301  -18.2255   28.5788 O   0  0  0  0  0  0  0  0  0  0  0  0
    8.7232  -17.7673   27.0817 O   0  0  0  0  0  0  0  0  0  0  0  0
  2  3  2  0
  2  1  1  0
  4  2  1  0
  5  4  1  0
  6  5  1  0
  6  7  1  6
  8  6  1  0
  8  9  2  0
 10  8  1  0
 11 10  1  0
 11 12  1  1
 13 12  1  0
 13 14  2  0
 15 14  1  0
 16 15  1  0
 17 16  2  0
 18 17  1  0
 19 18  2  0
 19 20  1  0
 20 21  2  0
 21 16  1  0
 21 13  1  0
 22 11  1  0
 23 22  2  0
 25 24  1  0
 26 27  1  6
 26 28  1  0
 26 25  1  0
 28 29  1  6
 29 22  1  0
 30 28  1  0
 30 31  1  0
 32 30  2  0
M  END
$$$$
