MYH.pdb
     RDKit          3D

 31 32  0  0  1  0  0  0  0  0999 V2000
   30.4782  -20.8679  -18.6599 C   0  0  0  0  0  0  0  0  0  0  0  0
   30.4253  -22.6546  -18.8549 S   0  0  0  0  0  0  0  0  0  0  0  0
   28.7366  -23.3002  -18.9197 C   0  0  0  0  0  0  0  0  0  0  0  0
   28.0904  -23.3413  -17.5746 C   0  0  0  0  0  0  0  0  0  0  0  0
   26.9849  -22.3571  -17.3711 C   0  0  2  0  0  0  0  0  0  0  0  0
   27.3822  -21.0279  -17.7060 N   0  0  0  0  0  0  0  0  0  0  0  0
   26.3302  -22.3908  -16.0695 C   0  0  0  0  0  0  0  0  0  0  0  0
   25.9065  -23.4912  -15.6340 O   0  0  0  0  0  0  0  0  0  0  0  0
   23.5397  -20.7598   -7.8365 O   0  0  0  0  0  0  0  0  0  0  0  0
   24.0734  -20.6428   -9.1199 C   0  0  0  0  0  0  0  0  0  0  0  0
   23.4146  -20.0116  -10.1379 C   0  0  0  0  0  0  0  0  0  0  0  0
   23.9805  -19.9142  -11.4089 C   0  0  0  0  0  0  0  0  0  0  0  0
   25.2120  -20.4515  -11.6623 C   0  0  0  0  0  0  0  0  0  0  0  0
   25.8446  -20.3781  -12.9774 C   0  0  0  0  0  0  0  0  0  0  0  0
   25.3344  -21.3861  -13.9865 C   0  0  2  0  0  0  0  0  0  0  0  0
   26.1230  -21.2600  -15.2253 N   0  0  0  0  0  0  0  0  0  0  0  0
   23.8965  -21.1205  -14.2675 C   0  0  0  0  0  0  0  0  0  0  0  0
   23.5329  -20.0544  -14.8300 O   0  0  0  0  0  0  0  0  0  0  0  0
   25.8680  -21.0860  -10.6283 C   0  0  0  0  0  0  0  0  0  0  0  0
   25.3124  -21.1870   -9.3620 C   0  0  0  0  0  0  0  0  0  0  0  0
   22.8976  -22.0627  -13.9086 N   0  0  0  0  0  0  0  0  0  0  0  0
   21.4944  -21.7235  -14.1998 C   0  0  1  0  0  0  0  0  0  0  0  0
   20.6794  -22.9494  -14.3778 C   0  0  0  0  0  0  0  0  0  0  0  0
   20.5093  -23.2713  -15.8147 C   0  0  0  0  0  0  0  0  0  0  0  0
   21.3975  -23.6851  -16.7768 C   0  0  0  0  0  0  0  0  0  0  0  0
   20.7548  -23.9333  -17.9289 N   0  0  0  0  0  0  0  0  0  0  0  0
   19.4603  -23.6880  -17.7279 C   0  0  0  0  0  0  0  0  0  0  0  0
   19.2945  -23.2909  -16.4675 N   0  0  0  0  0  0  0  0  0  0  0  0
   21.0032  -21.0231  -12.9557 C   0  0  0  0  0  0  0  0  0  0  0  0
   20.0191  -20.0688  -13.0843 O   0  0  0  0  0  0  0  0  0  0  0  0
   21.4469  -21.2734  -11.8470 O   0  0  0  0  0  0  0  0  0  0  0  0
  1  2  1  0
  3  2  1  0
  4  5  1  0
  4  3  1  0
  5  6  1  1
  7  5  1  0
  8  7  2  0
  9 10  1  0
 10 11  2  0
 11 12  1  0
 13 12  2  0
 13 14  1  0
 15 14  1  1
 15 17  1  0
 15 16  1  0
 16  7  1  0
 17 18  2  0
 19 13  1  0
 20 10  1  0
 20 19  2  0
 21 22  1  0
 21 17  1  0
 22 23  1  1
 24 23  1  0
 25 24  2  0
 26 27  1  0
 26 25  1  0
 27 28  2  0
 28 24  1  0
 29 30  1  0
 29 22  1  0
 31 29  2  0
M  END
$$$$
