MYH.pdb
     RDKit          3D

 31 32  0  0  1  0  0  0  0  0999 V2000
   29.0043  -15.0511  -19.0314 C   0  0  0  0  0  0  0  0  0  0  0  0
   29.4907  -16.6264  -19.7489 S   0  0  0  0  0  0  0  0  0  0  0  0
   28.6047  -18.0272  -19.0239 C   0  0  0  0  0  0  0  0  0  0  0  0
   27.5672  -17.5976  -18.0403 C   0  0  0  0  0  0  0  0  0  0  0  0
   26.9957  -18.6936  -17.2010 C   0  0  2  0  0  0  0  0  0  0  0  0
   27.0296  -19.9539  -17.8695 N   0  0  0  0  0  0  0  0  0  0  0  0
   25.6773  -18.4427  -16.6327 C   0  0  0  0  0  0  0  0  0  0  0  0
   25.5040  -17.4079  -15.9405 O   0  0  0  0  0  0  0  0  0  0  0  0
   23.0597  -13.8380  -20.3359 O   0  0  0  0  0  0  0  0  0  0  0  0
   22.8979  -15.0516  -19.6677 C   0  0  0  0  0  0  0  0  0  0  0  0
   23.4731  -16.2140  -20.1001 C   0  0  0  0  0  0  0  0  0  0  0  0
   23.2887  -17.4091  -19.4051 C   0  0  0  0  0  0  0  0  0  0  0  0
   22.5246  -17.4409  -18.2716 C   0  0  0  0  0  0  0  0  0  0  0  0
   22.2994  -18.6682  -17.5114 C   0  0  0  0  0  0  0  0  0  0  0  0
   23.2133  -18.8546  -16.3178 C   0  0  2  0  0  0  0  0  0  0  0  0
   24.5388  -19.2863  -16.7963 N   0  0  0  0  0  0  0  0  0  0  0  0
   22.6378  -19.8852  -15.4102 C   0  0  0  0  0  0  0  0  0  0  0  0
   22.7136  -21.1102  -15.6909 O   0  0  0  0  0  0  0  0  0  0  0  0
   21.9491  -16.2627  -17.8441 C   0  0  0  0  0  0  0  0  0  0  0  0
   22.1275  -15.0706  -18.5293 C   0  0  0  0  0  0  0  0  0  0  0  0
   21.9885  -19.5134  -14.2040 N   0  0  0  0  0  0  0  0  0  0  0  0
   21.4803  -20.5888  -13.3357 C   0  0  1  0  0  0  0  0  0  0  0  0
   21.8906  -20.3707  -11.9277 C   0  0  0  0  0  0  0  0  0  0  0  0
   23.2758  -20.8457  -11.6975 C   0  0  0  0  0  0  0  0  0  0  0  0
   24.2488  -21.2969  -12.5551 C   0  0  0  0  0  0  0  0  0  0  0  0
   25.3859  -21.5392  -11.8841 N   0  0  0  0  0  0  0  0  0  0  0  0
   25.1656  -21.2498  -10.6020 C   0  0  0  0  0  0  0  0  0  0  0  0
   23.9075  -20.8326  -10.4715 N   0  0  0  0  0  0  0  0  0  0  0  0
   19.9777  -20.4565  -13.4011 C   0  0  0  0  0  0  0  0  0  0  0  0
   19.2094  -21.5782  -13.1843 O   0  0  0  0  0  0  0  0  0  0  0  0
   19.4252  -19.3947  -13.6380 O   0  0  0  0  0  0  0  0  0  0  0  0
  1  2  1  0
  3  2  1  0
  4  5  1  0
  4  3  1  0
  5  6  1  6
  7  5  1  0
  8  7  2  0
  9 10  1  0
 10 11  2  0
 11 12  1  0
 13 12  2  0
 13 14  1  0
 15 14  1  6
 15 17  1  0
 15 16  1  0
 16  7  1  0
 17 18  2  0
 19 13  1  0
 20 10  1  0
 20 19  2  0
 21 22  1  0
 21 17  1  0
 22 23  1  1
 24 23  1  0
 25 24  2  0
 26 27  1  0
 26 25  1  0
 27 28  2  0
 28 24  1  0
 29 30  1  0
 29 22  1  0
 31 29  2  0
M  END
$$$$
