MYH.pdb
     RDKit          3D

 31 32  0  0  1  0  0  0  0  0999 V2000
   12.0590  -22.0331    6.1925 C   0  0  0  0  0  0  0  0  0  0  0  0
   13.7069  -21.3578    6.4402 S   0  0  0  0  0  0  0  0  0  0  0  0
   14.2182  -20.2549    5.1004 C   0  0  0  0  0  0  0  0  0  0  0  0
   15.4438  -19.4740    5.4417 C   0  0  0  0  0  0  0  0  0  0  0  0
   15.9440  -18.5729    4.3600 C   0  0  2  0  0  0  0  0  0  0  0  0
   16.3029  -19.2960    3.1832 N   0  0  0  0  0  0  0  0  0  0  0  0
   16.9997  -17.6427    4.7399 C   0  0  0  0  0  0  0  0  0  0  0  0
   18.1874  -17.9179    4.4336 O   0  0  0  0  0  0  0  0  0  0  0  0
   21.5570  -10.3689    6.9907 O   0  0  0  0  0  0  0  0  0  0  0  0
   20.5658  -11.3001    6.6812 C   0  0  0  0  0  0  0  0  0  0  0  0
   20.3833  -11.7907    5.4183 C   0  0  0  0  0  0  0  0  0  0  0  0
   19.3808  -12.7216    5.1468 C   0  0  0  0  0  0  0  0  0  0  0  0
   18.5567  -13.1635    6.1444 C   0  0  0  0  0  0  0  0  0  0  0  0
   17.4906  -14.1346    5.9090 C   0  0  0  0  0  0  0  0  0  0  0  0
   17.9504  -15.5750    5.8174 C   0  0  2  0  0  0  0  0  0  0  0  0
   16.8007  -16.4186    5.4444 N   0  0  0  0  0  0  0  0  0  0  0  0
   18.4933  -16.0058    7.1352 C   0  0  0  0  0  0  0  0  0  0  0  0
   17.7287  -16.4155    8.0478 O   0  0  0  0  0  0  0  0  0  0  0  0
   18.7494  -12.6621    7.4147 C   0  0  0  0  0  0  0  0  0  0  0  0
   19.7436  -11.7366    7.6927 C   0  0  0  0  0  0  0  0  0  0  0  0
   19.8877  -15.9662    7.3972 N   0  0  0  0  0  0  0  0  0  0  0  0
   20.3606  -16.4890    8.6902 C   0  0  1  0  0  0  0  0  0  0  0  0
   21.6389  -17.2230    8.5288 C   0  0  0  0  0  0  0  0  0  0  0  0
   21.3964  -18.6493    8.2061 C   0  0  0  0  0  0  0  0  0  0  0  0
   20.2431  -19.3569    7.9716 C   0  0  0  0  0  0  0  0  0  0  0  0
   20.5336  -20.6230    7.6334 N   0  0  0  0  0  0  0  0  0  0  0  0
   21.8605  -20.7474    7.6432 C   0  0  0  0  0  0  0  0  0  0  0  0
   22.3938  -19.5754    7.9835 N   0  0  0  0  0  0  0  0  0  0  0  0
   20.6395  -15.2600    9.5217 C   0  0  0  0  0  0  0  0  0  0  0  0
   20.7606  -14.0472    8.8814 O   0  0  0  0  0  0  0  0  0  0  0  0
   20.7601  -15.3060   10.7350 O   0  0  0  0  0  0  0  0  0  0  0  0
  1  2  1  0
  3  2  1  0
  4  5  1  0
  4  3  1  0
  5  6  1  6
  7  5  1  0
  8  7  2  0
  9 10  1  0
 10 11  2  0
 11 12  1  0
 13 12  2  0
 13 14  1  0
 15 14  1  1
 15 17  1  0
 15 16  1  0
 16  7  1  0
 17 18  2  0
 19 13  1  0
 20 10  1  0
 20 19  2  0
 21 22  1  0
 21 17  1  0
 22 23  1  6
 24 23  1  0
 25 24  2  0
 26 27  1  0
 26 25  1  0
 27 28  2  0
 28 24  1  0
 29 30  1  0
 29 22  1  0
 31 29  2  0
M  END
$$$$
