MYH.pdb
     RDKit          3D

 31 32  0  0  1  0  0  0  0  0999 V2000
   25.7595  -20.7337  -20.4417 C   0  0  0  0  0  0  0  0  0  0  0  0
   27.4767  -21.2215  -20.6565 S   0  0  0  0  0  0  0  0  0  0  0  0
   28.2284  -21.8233  -19.1250 C   0  0  0  0  0  0  0  0  0  0  0  0
   27.3396  -21.6325  -17.9409 C   0  0  0  0  0  0  0  0  0  0  0  0
   27.9633  -21.9514  -16.6211 C   0  0  2  0  0  0  0  0  0  0  0  0
   28.7090  -23.1675  -16.6605 N   0  0  0  0  0  0  0  0  0  0  0  0
   27.0706  -21.9269  -15.4694 C   0  0  0  0  0  0  0  0  0  0  0  0
   26.5946  -23.0120  -15.0500 O   0  0  0  0  0  0  0  0  0  0  0  0
   30.0119  -21.7695   -8.7595 O   0  0  0  0  0  0  0  0  0  0  0  0
   29.0639  -21.2898   -9.6632 C   0  0  0  0  0  0  0  0  0  0  0  0
   27.7556  -21.0876   -9.3218 C   0  0  0  0  0  0  0  0  0  0  0  0
   26.8359  -20.6063  -10.2533 C   0  0  0  0  0  0  0  0  0  0  0  0
   27.2275  -20.3262  -11.5330 C   0  0  0  0  0  0  0  0  0  0  0  0
   26.3009  -19.8237  -12.5449 C   0  0  0  0  0  0  0  0  0  0  0  0
   25.8381  -20.8554  -13.5529 C   0  0  2  0  0  0  0  0  0  0  0  0
   26.6800  -20.7537  -14.7584 N   0  0  0  0  0  0  0  0  0  0  0  0
   24.4133  -20.6012  -13.9024 C   0  0  0  0  0  0  0  0  0  0  0  0
   24.0855  -19.6064  -14.6012 O   0  0  0  0  0  0  0  0  0  0  0  0
   28.5495  -20.5337  -11.8668 C   0  0  0  0  0  0  0  0  0  0  0  0
   29.4699  -21.0118  -10.9468 C   0  0  0  0  0  0  0  0  0  0  0  0
   23.3866  -21.4742  -13.4570 N   0  0  0  0  0  0  0  0  0  0  0  0
   22.0206  -21.2421  -13.9558 C   0  0  1  0  0  0  0  0  0  0  0  0
   21.1999  -22.4719  -13.8436 C   0  0  0  0  0  0  0  0  0  0  0  0
   19.8589  -22.2733  -14.4433 C   0  0  0  0  0  0  0  0  0  0  0  0
   19.2892  -21.2049  -15.0911 C   0  0  0  0  0  0  0  0  0  0  0  0
   18.0646  -21.5282  -15.5358 N   0  0  0  0  0  0  0  0  0  0  0  0
   17.8314  -22.7932  -15.1871 C   0  0  0  0  0  0  0  0  0  0  0  0
   18.8951  -23.2558  -14.5325 N   0  0  0  0  0  0  0  0  0  0  0  0
   21.4383  -20.2148  -13.0150 C   0  0  0  0  0  0  0  0  0  0  0  0
   20.5107  -19.3244  -13.5071 O   0  0  0  0  0  0  0  0  0  0  0  0
   21.7606  -20.1484  -11.8401 O   0  0  0  0  0  0  0  0  0  0  0  0
  1  2  1  0
  3  2  1  0
  4  5  1  0
  4  3  1  0
  5  6  1  6
  7  5  1  0
  8  7  2  0
  9 10  1  0
 10 11  2  0
 11 12  1  0
 13 12  2  0
 13 14  1  0
 15 14  1  1
 15 17  1  0
 15 16  1  0
 16  7  1  0
 17 18  2  0
 19 13  1  0
 20 10  1  0
 20 19  2  0
 21 22  1  0
 21 17  1  0
 22 23  1  1
 24 23  1  0
 25 24  2  0
 26 27  1  0
 26 25  1  0
 27 28  2  0
 28 24  1  0
 29 30  1  0
 29 22  1  0
 31 29  2  0
M  END
$$$$
