MYH.pdb
     RDKit          3D

 31 32  0  0  1  0  0  0  0  0999 V2000
   23.5713  -26.2491  -15.1089 C   0  0  0  0  0  0  0  0  0  0  0  0
   23.9599  -25.6664  -16.7649 S   0  0  0  0  0  0  0  0  0  0  0  0
   25.7401  -25.5836  -17.0762 C   0  0  0  0  0  0  0  0  0  0  0  0
   26.4004  -26.9178  -16.9653 C   0  0  0  0  0  0  0  0  0  0  0  0
   27.8942  -26.8884  -16.9617 C   0  0  2  0  0  0  0  0  0  0  0  0
   28.4144  -25.9625  -17.9149 N   0  0  0  0  0  0  0  0  0  0  0  0
   28.5595  -28.1800  -17.0761 C   0  0  0  0  0  0  0  0  0  0  0  0
   28.3515  -29.0479  -16.1908 O   0  0  0  0  0  0  0  0  0  0  0  0
   24.1084  -32.3882  -18.8959 O   0  0  0  0  0  0  0  0  0  0  0  0
   25.4130  -31.9146  -19.0344 C   0  0  0  0  0  0  0  0  0  0  0  0
   25.6971  -30.6620  -19.5027 C   0  0  0  0  0  0  0  0  0  0  0  0
   27.0151  -30.2232  -19.6274 C   0  0  0  0  0  0  0  0  0  0  0  0
   28.0540  -31.0422  -19.2817 C   0  0  0  0  0  0  0  0  0  0  0  0
   29.4508  -30.6293  -19.3977 C   0  0  0  0  0  0  0  0  0  0  0  0
   30.0076  -29.9182  -18.1816 C   0  0  2  0  0  0  0  0  0  0  0  0
   29.4460  -28.5565  -18.1281 N   0  0  0  0  0  0  0  0  0  0  0  0
   31.4917  -29.8547  -18.2820 C   0  0  0  0  0  0  0  0  0  0  0  0
   32.0781  -28.7684  -18.5301 O   0  0  0  0  0  0  0  0  0  0  0  0
   27.7562  -32.3037  -18.8103 C   0  0  0  0  0  0  0  0  0  0  0  0
   26.4489  -32.7474  -18.6834 C   0  0  0  0  0  0  0  0  0  0  0  0
   32.2850  -31.0176  -18.1003 N   0  0  0  0  0  0  0  0  0  0  0  0
   33.7493  -30.8654  -18.1387 C   0  0  1  0  0  0  0  0  0  0  0  0
   34.2708  -30.4290  -16.8210 C   0  0  0  0  0  0  0  0  0  0  0  0
   35.7488  -30.3175  -16.8441 C   0  0  0  0  0  0  0  0  0  0  0  0
   36.6617  -30.3919  -17.8673 C   0  0  0  0  0  0  0  0  0  0  0  0
   37.8982  -30.1435  -17.4078 N   0  0  0  0  0  0  0  0  0  0  0  0
   37.8010  -29.9068  -16.0998 C   0  0  0  0  0  0  0  0  0  0  0  0
   36.5212  -30.0063  -15.7448 N   0  0  0  0  0  0  0  0  0  0  0  0
   34.2727  -32.2570  -18.4009 C   0  0  0  0  0  0  0  0  0  0  0  0
   35.4378  -32.3958  -19.1212 O   0  0  0  0  0  0  0  0  0  0  0  0
   33.7007  -33.2566  -17.9979 O   0  0  0  0  0  0  0  0  0  0  0  0
  1  2  1  0
  3  2  1  0
  4  5  1  0
  4  3  1  0
  5  6  1  6
  7  5  1  0
  8  7  2  0
  9 10  1  0
 10 11  2  0
 11 12  1  0
 13 12  2  0
 13 14  1  0
 15 14  1  6
 15 17  1  0
 15 16  1  0
 16  7  1  0
 17 18  2  0
 19 13  1  0
 20 10  1  0
 20 19  2  0
 21 22  1  0
 21 17  1  0
 22 23  1  1
 24 23  1  0
 25 24  2  0
 26 27  1  0
 26 25  1  0
 27 28  2  0
 28 24  1  0
 29 30  1  0
 29 22  1  0
 31 29  2  0
M  END
$$$$
