MYH.pdb
     RDKit          3D

 31 32  0  0  1  0  0  0  0  0999 V2000
   21.7770  -24.5763  -24.6063 C   0  0  0  0  0  0  0  0  0  0  0  0
   23.3203  -23.7414  -24.2141 S   0  0  0  0  0  0  0  0  0  0  0  0
   24.4532  -24.7801  -23.2598 C   0  0  0  0  0  0  0  0  0  0  0  0
   25.7266  -24.0763  -22.9257 C   0  0  0  0  0  0  0  0  0  0  0  0
   26.7279  -24.8962  -22.1790 C   0  0  2  0  0  0  0  0  0  0  0  0
   27.3147  -25.9048  -23.0005 N   0  0  0  0  0  0  0  0  0  0  0  0
   26.2778  -25.4564  -20.9110 C   0  0  0  0  0  0  0  0  0  0  0  0
   25.5161  -24.7706  -20.1833 O   0  0  0  0  0  0  0  0  0  0  0  0
   20.4646  -24.0230  -19.7144 O   0  0  0  0  0  0  0  0  0  0  0  0
   21.5025  -24.9502  -19.6214 C   0  0  0  0  0  0  0  0  0  0  0  0
   22.1965  -25.1667  -18.4636 C   0  0  0  0  0  0  0  0  0  0  0  0
   23.2288  -26.1030  -18.4088 C   0  0  0  0  0  0  0  0  0  0  0  0
   23.5684  -26.8260  -19.5186 C   0  0  0  0  0  0  0  0  0  0  0  0
   24.6439  -27.8151  -19.5118 C   0  0  0  0  0  0  0  0  0  0  0  0
   26.0143  -27.2632  -19.1773 C   0  0  2  0  0  0  0  0  0  0  0  0
   26.6323  -26.7441  -20.4106 N   0  0  0  0  0  0  0  0  0  0  0  0
   26.8571  -28.3472  -18.6014 C   0  0  0  0  0  0  0  0  0  0  0  0
   27.2783  -29.2912  -19.3203 O   0  0  0  0  0  0  0  0  0  0  0  0
   22.8619  -26.5998  -20.6813 C   0  0  0  0  0  0  0  0  0  0  0  0
   21.8344  -25.6710  -20.7440 C   0  0  0  0  0  0  0  0  0  0  0  0
   27.2082  -28.3448  -17.2261 N   0  0  0  0  0  0  0  0  0  0  0  0
   28.0714  -29.4316  -16.7337 C   0  0  1  0  0  0  0  0  0  0  0  0
   28.8983  -28.9744  -15.5910 C   0  0  0  0  0  0  0  0  0  0  0  0
   30.0133  -28.1132  -16.0518 C   0  0  0  0  0  0  0  0  0  0  0  0
   30.4082  -27.7098  -17.3037 C   0  0  0  0  0  0  0  0  0  0  0  0
   31.4382  -26.8537  -17.2144 N   0  0  0  0  0  0  0  0  0  0  0  0
   31.7170  -26.6938  -15.9210 C   0  0  0  0  0  0  0  0  0  0  0  0
   30.8736  -27.4400  -15.2099 N   0  0  0  0  0  0  0  0  0  0  0  0
   27.1135  -30.4779  -16.2169 C   0  0  0  0  0  0  0  0  0  0  0  0
   27.6287  -31.6638  -15.7439 O   0  0  0  0  0  0  0  0  0  0  0  0
   25.9053  -30.3080  -16.2045 O   0  0  0  0  0  0  0  0  0  0  0  0
  1  2  1  0
  3  2  1  0
  4  5  1  0
  4  3  1  0
  5  6  1  6
  7  5  1  0
  8  7  2  0
  9 10  1  0
 10 11  2  0
 11 12  1  0
 13 12  2  0
 13 14  1  0
 15 14  1  6
 15 17  1  0
 15 16  1  0
 16  7  1  0
 17 18  2  0
 19 13  1  0
 20 10  1  0
 20 19  2  0
 21 22  1  0
 21 17  1  0
 22 23  1  1
 24 23  1  0
 25 24  2  0
 26 27  1  0
 26 25  1  0
 27 28  2  0
 28 24  1  0
 29 30  1  0
 29 22  1  0
 31 29  2  0
M  END
$$$$
