MYH.pdb
     RDKit          3D

 31 32  0  0  1  0  0  0  0  0999 V2000
   11.1910  -15.1340  -15.2718 C   0  0  0  0  0  0  0  0  0  0  0  0
   12.1967  -13.8939  -14.4448 S   0  0  0  0  0  0  0  0  0  0  0  0
   13.6364  -13.3978  -15.4215 C   0  0  0  0  0  0  0  0  0  0  0  0
   14.4561  -12.3540  -14.7381 C   0  0  0  0  0  0  0  0  0  0  0  0
   15.9271  -12.6149  -14.7173 C   0  0  2  0  0  0  0  0  0  0  0  0
   16.2370  -13.8934  -14.1640 N   0  0  0  0  0  0  0  0  0  0  0  0
   16.7525  -11.5751  -14.1159 C   0  0  0  0  0  0  0  0  0  0  0  0
   17.1353  -11.7188  -12.9273 O   0  0  0  0  0  0  0  0  0  0  0  0
   22.8283   -5.2469  -13.0408 O   0  0  0  0  0  0  0  0  0  0  0  0
   21.9401   -6.1922  -13.5535 C   0  0  0  0  0  0  0  0  0  0  0  0
   21.1505   -5.9479  -14.6425 C   0  0  0  0  0  0  0  0  0  0  0  0
   20.2738   -6.9184  -15.1268 C   0  0  0  0  0  0  0  0  0  0  0  0
   20.1867   -8.1396  -14.5180 C   0  0  0  0  0  0  0  0  0  0  0  0
   19.2815   -9.1869  -14.9859 C   0  0  0  0  0  0  0  0  0  0  0  0
   18.0827   -9.4374  -14.0944 C   0  0  2  0  0  0  0  0  0  0  0  0
   17.1753  -10.3811  -14.7715 N   0  0  0  0  0  0  0  0  0  0  0  0
   17.3805   -8.1500  -13.8365 C   0  0  0  0  0  0  0  0  0  0  0  0
   16.5535   -7.6862  -14.6649 O   0  0  0  0  0  0  0  0  0  0  0  0
   20.9877   -8.3756  -13.4202 C   0  0  0  0  0  0  0  0  0  0  0  0
   21.8618   -7.4162  -12.9327 C   0  0  0  0  0  0  0  0  0  0  0  0
   17.6248   -7.4117  -12.6491 N   0  0  0  0  0  0  0  0  0  0  0  0
   16.9105   -6.1361  -12.4720 C   0  0  1  0  0  0  0  0  0  0  0  0
   16.9871   -5.6775  -11.0640 C   0  0  0  0  0  0  0  0  0  0  0  0
   16.0172   -6.4072  -10.2131 C   0  0  0  0  0  0  0  0  0  0  0  0
   15.0585   -7.3455  -10.5069 C   0  0  0  0  0  0  0  0  0  0  0  0
   14.4754   -7.7847   -9.3804 N   0  0  0  0  0  0  0  0  0  0  0  0
   15.0436   -7.1458   -8.3581 C   0  0  0  0  0  0  0  0  0  0  0  0
   15.9695   -6.3171   -8.8377 N   0  0  0  0  0  0  0  0  0  0  0  0
   17.6756   -5.1474  -13.3185 C   0  0  0  0  0  0  0  0  0  0  0  0
   17.2382   -3.8427  -13.3618 O   0  0  0  0  0  0  0  0  0  0  0  0
   18.6629   -5.4647  -13.9615 O   0  0  0  0  0  0  0  0  0  0  0  0
  1  2  1  0
  3  2  1  0
  4  5  1  0
  4  3  1  0
  5  6  1  1
  7  5  1  0
  8  7  2  0
  9 10  1  0
 10 11  2  0
 11 12  1  0
 13 12  2  0
 13 14  1  0
 15 14  1  6
 15 17  1  0
 15 16  1  0
 16  7  1  0
 17 18  2  0
 19 13  1  0
 20 10  1  0
 20 19  2  0
 21 22  1  0
 21 17  1  0
 22 23  1  1
 24 23  1  0
 25 24  2  0
 26 27  1  0
 26 25  1  0
 27 28  2  0
 28 24  1  0
 29 30  1  0
 29 22  1  0
 31 29  2  0
M  END
$$$$
