GIL.pdb
     RDKit          3D

 21 20  0  0  1  0  0  0  0  0999 V2000
    7.1481  -15.7168   20.0354 N   0  0  0  0  0  0  0  0  0  0  0  0
    6.5977  -15.6639   21.3515 C   0  0  0  0  0  0  0  0  0  0  0  0
    7.5350  -15.0777   22.3465 C   0  0  0  0  0  0  0  0  0  0  0  0
    8.7461  -14.8940   22.0474 O   0  0  0  0  0  0  0  0  0  0  0  0
    7.6477  -11.5331   27.4122 C   0  0  0  0  0  0  0  0  0  0  0  0
    8.2842  -12.5114   26.4819 C   0  0  0  0  0  0  0  0  0  0  0  0
    7.2854  -13.1833   25.5655 C   0  0  2  0  0  0  0  0  0  0  0  0
    6.1902  -13.8745   26.3209 C   0  0  0  0  0  0  0  0  0  0  0  0
    8.0273  -14.1253   24.6239 C   0  0  2  0  0  0  0  0  0  0  0  0
    7.1121  -14.7070   23.6521 N   0  0  0  0  0  0  0  0  0  0  0  0
    8.5438  -15.2532   25.4543 C   0  0  0  0  0  0  0  0  0  0  0  0
    7.6654  -16.0469   25.9101 O   0  0  0  0  0  0  0  0  0  0  0  0
   12.7666  -17.3330   23.5711 C   0  0  0  0  0  0  0  0  0  0  0  0
   11.4167  -17.3670   24.2659 C   0  0  1  0  0  0  0  0  0  0  0  0
   10.7274  -18.6811   23.8847 C   0  0  0  0  0  0  0  0  0  0  0  0
   11.5478  -17.2456   25.7527 C   0  0  0  0  0  0  0  0  0  0  0  0
   10.2899  -16.7311   26.3645 C   0  0  2  0  0  0  0  0  0  0  0  0
    9.8947  -15.4621   25.7381 N   0  0  0  0  0  0  0  0  0  0  0  0
   10.3269  -16.4784   27.8095 C   0  0  0  0  0  0  0  0  0  0  0  0
   10.4694  -17.4202   28.6160 O   0  0  0  0  0  0  0  0  0  0  0  0
   10.2042  -15.1907   28.2932 O   0  0  0  0  0  0  0  0  0  0  0  0
  1  2  1  0
  2  3  1  0
  3  4  2  0
  3 10  1  0
  6  5  1  0
  7  6  1  0
  7  8  1  1
  9  7  1  0
  9 10  1  6
 11  9  1  0
 11 18  1  0
 12 11  2  0
 14 15  1  1
 14 16  1  0
 14 13  1  0
 17 16  1  6
 17 18  1  0
 19 17  1  0
 20 19  2  0
 21 19  1  0
M  END
$$$$
