GIL.pdb
     RDKit          3D

 21 20  0  0  1  0  0  0  0  0999 V2000
    5.0746  -19.4312   22.7282 N   0  0  0  0  0  0  0  0  0  0  0  0
    5.4411  -18.2082   23.3667 C   0  0  0  0  0  0  0  0  0  0  0  0
    6.7418  -17.6719   22.8843 C   0  0  0  0  0  0  0  0  0  0  0  0
    7.5324  -18.4100   22.2361 O   0  0  0  0  0  0  0  0  0  0  0  0
    7.0188  -12.7007   20.8400 C   0  0  0  0  0  0  0  0  0  0  0  0
    7.3440  -14.1311   21.1155 C   0  0  0  0  0  0  0  0  0  0  0  0
    8.2551  -14.3049   22.3107 C   0  0  2  0  0  0  0  0  0  0  0  0
    9.5820  -13.6333   22.1214 C   0  0  0  0  0  0  0  0  0  0  0  0
    8.3938  -15.7912   22.6203 C   0  0  2  0  0  0  0  0  0  0  0  0
    7.1404  -16.3296   23.1296 N   0  0  0  0  0  0  0  0  0  0  0  0
    9.3926  -15.9149   23.7230 C   0  0  0  0  0  0  0  0  0  0  0  0
   10.4866  -15.2980   23.5449 O   0  0  0  0  0  0  0  0  0  0  0  0
   10.6312  -13.7121   27.8468 C   0  0  0  0  0  0  0  0  0  0  0  0
    9.2094  -14.2417   27.7829 C   0  0  1  0  0  0  0  0  0  0  0  0
    8.2652  -13.0933   28.1529 C   0  0  0  0  0  0  0  0  0  0  0  0
    8.8757  -14.7915   26.4305 C   0  0  0  0  0  0  0  0  0  0  0  0
    9.6059  -16.0647   26.1711 C   0  0  2  0  0  0  0  0  0  0  0  0
    9.1820  -16.6493   24.8915 N   0  0  0  0  0  0  0  0  0  0  0  0
    9.4442  -17.1219   27.1758 C   0  0  0  0  0  0  0  0  0  0  0  0
   10.1498  -17.1336   28.2053 O   0  0  0  0  0  0  0  0  0  0  0  0
    8.5059  -18.1182   26.9915 O   0  0  0  0  0  0  0  0  0  0  0  0
  1  2  1  0
  2  3  1  0
  3  4  2  0
  3 10  1  0
  6  5  1  0
  7  6  1  0
  7  8  1  6
  9  7  1  0
  9 10  1  1
 11  9  1  0
 11 18  1  0
 12 11  2  0
 14 15  1  6
 14 16  1  0
 14 13  1  0
 17 16  1  1
 17 18  1  0
 19 17  1  0
 20 19  2  0
 21 19  1  0
M  END
$$$$
