GIL.pdb
     RDKit          3D

 21 20  0  0  1  0  0  0  0  0999 V2000
   12.0098  -16.9270   19.4763 N   0  0  0  0  0  0  0  0  0  0  0  0
   11.9689  -17.2804   20.8588 C   0  0  0  0  0  0  0  0  0  0  0  0
   11.2970  -16.2527   21.6981 C   0  0  0  0  0  0  0  0  0  0  0  0
   11.9795  -15.3902   22.3147 O   0  0  0  0  0  0  0  0  0  0  0  0
    7.0872  -13.7140   19.8023 C   0  0  0  0  0  0  0  0  0  0  0  0
    8.2918  -14.0738   20.6067 C   0  0  0  0  0  0  0  0  0  0  0  0
    7.9411  -14.7073   21.9351 C   0  0  2  0  0  0  0  0  0  0  0  0
    7.1204  -13.8010   22.8027 C   0  0  0  0  0  0  0  0  0  0  0  0
    9.2220  -15.1677   22.6219 C   0  0  2  0  0  0  0  0  0  0  0  0
    9.8832  -16.2011   21.8375 N   0  0  0  0  0  0  0  0  0  0  0  0
    8.8204  -15.8010   23.9127 C   0  0  0  0  0  0  0  0  0  0  0  0
    8.6212  -17.0531   23.8717 O   0  0  0  0  0  0  0  0  0  0  0  0
    9.8701  -13.2044   28.5747 C   0  0  0  0  0  0  0  0  0  0  0  0
    9.8410  -14.4059   27.6465 C   0  0  1  0  0  0  0  0  0  0  0  0
   10.8344  -15.4392   28.1875 C   0  0  0  0  0  0  0  0  0  0  0  0
    8.4686  -14.9943   27.5331 C   0  0  0  0  0  0  0  0  0  0  0  0
    8.3532  -15.8652   26.3291 C   0  0  2  0  0  0  0  0  0  0  0  0
    8.6618  -15.1030   25.1114 N   0  0  0  0  0  0  0  0  0  0  0  0
    7.0436  -16.4863   26.1005 C   0  0  0  0  0  0  0  0  0  0  0  0
    6.7629  -17.5866   26.6185 O   0  0  0  0  0  0  0  0  0  0  0  0
    6.1050  -15.8570   25.3068 O   0  0  0  0  0  0  0  0  0  0  0  0
  1  2  1  0
  2  3  1  0
  3  4  2  0
  3 10  1  0
  6  5  1  0
  7  6  1  0
  7  8  1  1
  9  7  1  0
  9 10  1  6
 11  9  1  0
 11 18  1  0
 12 11  2  0
 14 15  1  1
 14 16  1  0
 14 13  1  0
 17 16  1  1
 17 18  1  0
 19 17  1  0
 20 19  2  0
 21 19  1  0
M  END
$$$$
