GIL.pdb
     RDKit          3D

 21 20  0  0  1  0  0  0  0  0999 V2000
    7.0549  -20.3783   22.0184 N   0  0  0  0  0  0  0  0  0  0  0  0
    6.5832  -19.0603   22.2982 C   0  0  0  0  0  0  0  0  0  0  0  0
    7.5757  -18.0068   21.9561 C   0  0  0  0  0  0  0  0  0  0  0  0
    8.7537  -18.3232   21.6362 O   0  0  0  0  0  0  0  0  0  0  0  0
    7.8434  -12.0765   20.1109 C   0  0  0  0  0  0  0  0  0  0  0  0
    8.4753  -13.3224   20.6364 C   0  0  0  0  0  0  0  0  0  0  0  0
    7.4594  -14.3536   21.0763 C   0  0  2  0  0  0  0  0  0  0  0  0
    6.5003  -13.8142   22.0947 C   0  0  0  0  0  0  0  0  0  0  0  0
    8.1916  -15.5973   21.5676 C   0  0  2  0  0  0  0  0  0  0  0  0
    7.2437  -16.6247   21.9753 N   0  0  0  0  0  0  0  0  0  0  0  0
    8.9478  -15.2019   22.7925 C   0  0  0  0  0  0  0  0  0  0  0  0
    9.7727  -14.2496   22.6453 O   0  0  0  0  0  0  0  0  0  0  0  0
    8.4474  -12.0360   26.3915 C   0  0  0  0  0  0  0  0  0  0  0  0
    7.4250  -13.1574   26.3329 C   0  0  1  0  0  0  0  0  0  0  0  0
    6.0315  -12.5238   26.3980 C   0  0  0  0  0  0  0  0  0  0  0  0
    7.5750  -13.9894   25.0969 C   0  0  0  0  0  0  0  0  0  0  0  0
    8.7042  -14.9532   25.2297 C   0  0  2  0  0  0  0  0  0  0  0  0
    8.7919  -15.8102   24.0394 N   0  0  0  0  0  0  0  0  0  0  0  0
    8.6513  -15.8600   26.3821 C   0  0  0  0  0  0  0  0  0  0  0  0
    7.9855  -16.9145   26.3311 O   0  0  0  0  0  0  0  0  0  0  0  0
    9.3407  -15.5546   27.5391 O   0  0  0  0  0  0  0  0  0  0  0  0
  1  2  1  0
  2  3  1  0
  3  4  2  0
  3 10  1  0
  6  5  1  0
  7  6  1  0
  7  8  1  1
  9  7  1  0
  9 10  1  1
 11  9  1  0
 11 18  1  0
 12 11  2  0
 14 15  1  6
 14 16  1  0
 14 13  1  0
 17 16  1  6
 17 18  1  0
 19 17  1  0
 20 19  2  0
 21 19  1  0
M  END
$$$$
