GIL.pdb
     RDKit          3D

 21 20  0  0  1  0  0  0  0  0999 V2000
    4.6206  -19.2206   21.6531 N   0  0  0  0  0  0  0  0  0  0  0  0
    4.8821  -17.9330   22.2110 C   0  0  0  0  0  0  0  0  0  0  0  0
    6.2903  -17.4949   22.0180 C   0  0  0  0  0  0  0  0  0  0  0  0
    7.1753  -18.3289   21.6844 O   0  0  0  0  0  0  0  0  0  0  0  0
    7.5306  -12.0995   21.0065 C   0  0  0  0  0  0  0  0  0  0  0  0
    7.4622  -13.3467   21.8236 C   0  0  0  0  0  0  0  0  0  0  0  0
    8.2092  -14.5015   21.1932 C   0  0  2  0  0  0  0  0  0  0  0  0
    7.7642  -14.7718   19.7872 C   0  0  0  0  0  0  0  0  0  0  0  0
    8.0812  -15.7276   22.0901 C   0  0  2  0  0  0  0  0  0  0  0  0
    6.6897  -16.1426   22.1983 N   0  0  0  0  0  0  0  0  0  0  0  0
    8.5122  -15.3132   23.4580 C   0  0  0  0  0  0  0  0  0  0  0  0
    9.7280  -14.9695   23.5703 O   0  0  0  0  0  0  0  0  0  0  0  0
    5.7354  -12.1576   26.7040 C   0  0  0  0  0  0  0  0  0  0  0  0
    6.8803  -12.8644   25.9998 C   0  0  1  0  0  0  0  0  0  0  0  0
    8.0735  -11.9040   25.9668 C   0  0  0  0  0  0  0  0  0  0  0  0
    7.2481  -14.1485   26.6769 C   0  0  0  0  0  0  0  0  0  0  0  0
    8.2401  -14.9170   25.8726 C   0  0  2  0  0  0  0  0  0  0  0  0
    7.6694  -15.2892   24.5708 N   0  0  0  0  0  0  0  0  0  0  0  0
    8.7364  -16.1615   26.4711 C   0  0  0  0  0  0  0  0  0  0  0  0
    8.3172  -17.2684   26.0754 O   0  0  0  0  0  0  0  0  0  0  0  0
    9.6761  -16.1199   27.4822 O   0  0  0  0  0  0  0  0  0  0  0  0
  1  2  1  0
  2  3  1  0
  3  4  2  0
  3 10  1  0
  6  5  1  0
  7  6  1  0
  7  8  1  6
  9  7  1  0
  9 10  1  1
 11  9  1  0
 11 18  1  0
 12 11  2  0
 14 15  1  1
 14 16  1  0
 14 13  1  0
 17 16  1  1
 17 18  1  0
 19 17  1  0
 20 19  2  0
 21 19  1  0
M  END
$$$$
