GIL.pdb
     RDKit          3D

 21 20  0  0  1  0  0  0  0  0999 V2000
    7.8422  -17.8351   18.0729 N   0  0  0  0  0  0  0  0  0  0  0  0
    8.4994  -17.2679   19.2061 C   0  0  0  0  0  0  0  0  0  0  0  0
    7.6357  -17.2314   20.4163 C   0  0  0  0  0  0  0  0  0  0  0  0
    6.4759  -16.7404   20.3549 O   0  0  0  0  0  0  0  0  0  0  0  0
    7.0737  -21.4523   23.3402 C   0  0  0  0  0  0  0  0  0  0  0  0
    6.7587  -20.0993   22.7943 C   0  0  0  0  0  0  0  0  0  0  0  0
    7.3176  -18.9799   23.6449 C   0  0  2  0  0  0  0  0  0  0  0  0
    6.6455  -18.8866   24.9819 C   0  0  0  0  0  0  0  0  0  0  0  0
    7.2418  -17.6735   22.8629 C   0  0  2  0  0  0  0  0  0  0  0  0
    8.0738  -17.7393   21.6697 N   0  0  0  0  0  0  0  0  0  0  0  0
    7.8250  -16.6103   23.7336 C   0  0  0  0  0  0  0  0  0  0  0  0
    9.0853  -16.4806   23.6728 O   0  0  0  0  0  0  0  0  0  0  0  0
    6.6017  -11.0566   25.8452 C   0  0  0  0  0  0  0  0  0  0  0  0
    7.3719  -12.3467   26.0656 C   0  0  1  0  0  0  0  0  0  0  0  0
    7.4106  -12.6168   27.5732 C   0  0  0  0  0  0  0  0  0  0  0  0
    6.7573  -13.4992   25.3331 C   0  0  0  0  0  0  0  0  0  0  0  0
    7.7285  -14.6192   25.1784 C   0  0  2  0  0  0  0  0  0  0  0  0
    7.0737  -15.7884   24.5757 N   0  0  0  0  0  0  0  0  0  0  0  0
    8.3674  -15.0989   26.4091 C   0  0  0  0  0  0  0  0  0  0  0  0
    7.7848  -15.9165   27.1507 O   0  0  0  0  0  0  0  0  0  0  0  0
    9.6249  -14.6489   26.7603 O   0  0  0  0  0  0  0  0  0  0  0  0
  1  2  1  0
  2  3  1  0
  3  4  2  0
  3 10  1  0
  6  5  1  0
  7  6  1  0
  7  8  1  1
  9  7  1  0
  9 10  1  6
 11  9  1  0
 11 18  1  0
 12 11  2  0
 14 15  1  1
 14 16  1  0
 14 13  1  0
 17 16  1  1
 17 18  1  0
 19 17  1  0
 20 19  2  0
 21 19  1  0
M  END
$$$$
