GIL.pdb
     RDKit          3D

 21 20  0  0  1  0  0  0  0  0999 V2000
   10.4181  -16.4618   19.7485 N   0  0  0  0  0  0  0  0  0  0  0  0
    9.5861  -16.9003   20.8224 C   0  0  0  0  0  0  0  0  0  0  0  0
    9.7023  -16.0413   22.0310 C   0  0  0  0  0  0  0  0  0  0  0  0
   10.7569  -15.3838   22.2445 O   0  0  0  0  0  0  0  0  0  0  0  0
    6.3241  -12.8544   26.0596 C   0  0  0  0  0  0  0  0  0  0  0  0
    7.5960  -13.5427   25.6907 C   0  0  0  0  0  0  0  0  0  0  0  0
    7.4058  -14.5856   24.6114 C   0  0  2  0  0  0  0  0  0  0  0  0
    6.4826  -15.6878   25.0366 C   0  0  0  0  0  0  0  0  0  0  0  0
    8.7705  -15.1057   24.1741 C   0  0  2  0  0  0  0  0  0  0  0  0
    8.6486  -15.9279   22.9785 N   0  0  0  0  0  0  0  0  0  0  0  0
    9.2639  -16.0016   25.2615 C   0  0  0  0  0  0  0  0  0  0  0  0
    9.5642  -17.1819   24.9069 O   0  0  0  0  0  0  0  0  0  0  0  0
   10.0001  -13.6869   30.1247 C   0  0  0  0  0  0  0  0  0  0  0  0
   10.1997  -14.3051   28.7521 C   0  0  1  0  0  0  0  0  0  0  0  0
   11.4359  -13.6557   28.1218 C   0  0  0  0  0  0  0  0  0  0  0  0
   10.3572  -15.7926   28.8242 C   0  0  0  0  0  0  0  0  0  0  0  0
   10.2716  -16.4100   27.4704 C   0  0  2  0  0  0  0  0  0  0  0  0
    9.4028  -15.6116   26.5948 N   0  0  0  0  0  0  0  0  0  0  0  0
    9.7562  -17.7827   27.4144 C   0  0  0  0  0  0  0  0  0  0  0  0
   10.4943  -18.7505   27.6904 O   0  0  0  0  0  0  0  0  0  0  0  0
    8.4438  -18.0181   27.0545 O   0  0  0  0  0  0  0  0  0  0  0  0
  1  2  1  0
  2  3  1  0
  3  4  2  0
  3 10  1  0
  6  5  1  0
  7  6  1  0
  7  8  1  1
  9  7  1  0
  9 10  1  6
 11  9  1  0
 11 18  1  0
 12 11  2  0
 14 15  1  1
 14 16  1  0
 14 13  1  0
 17 16  1  1
 17 18  1  0
 19 17  1  0
 20 19  2  0
 21 19  1  0
M  END
$$$$
