GIL.pdb
     RDKit          3D

 21 20  0  0  1  0  0  0  0  0999 V2000
    6.5153  -17.3859   20.8158 N   0  0  0  0  0  0  0  0  0  0  0  0
    6.4974  -17.5243   22.2365 C   0  0  0  0  0  0  0  0  0  0  0  0
    7.4402  -16.5984   22.9190 C   0  0  0  0  0  0  0  0  0  0  0  0
    8.5879  -16.3923   22.4391 O   0  0  0  0  0  0  0  0  0  0  0  0
    5.4627  -12.3928   25.7132 C   0  0  0  0  0  0  0  0  0  0  0  0
    6.3781  -13.2368   24.8902 C   0  0  0  0  0  0  0  0  0  0  0  0
    7.3072  -14.0845   25.7310 C   0  0  2  0  0  0  0  0  0  0  0  0
    8.2467  -13.2577   26.5565 C   0  0  0  0  0  0  0  0  0  0  0  0
    8.0397  -15.0692   24.8264 C   0  0  2  0  0  0  0  0  0  0  0  0
    7.0929  -15.9196   24.1188 N   0  0  0  0  0  0  0  0  0  0  0  0
    8.8389  -15.9644   25.7144 C   0  0  0  0  0  0  0  0  0  0  0  0
    8.2839  -17.0595   26.0334 O   0  0  0  0  0  0  0  0  0  0  0  0
   11.1616  -14.7267   30.2117 C   0  0  0  0  0  0  0  0  0  0  0  0
   10.6847  -15.0217   28.8004 C   0  0  1  0  0  0  0  0  0  0  0  0
   10.6780  -13.7013   28.0233 C   0  0  0  0  0  0  0  0  0  0  0  0
   11.5473  -16.0377   28.1176 C   0  0  0  0  0  0  0  0  0  0  0  0
   10.8304  -16.6738   26.9762 C   0  0  2  0  0  0  0  0  0  0  0  0
   10.1166  -15.6600   26.1878 N   0  0  0  0  0  0  0  0  0  0  0  0
    9.8359  -17.6955   27.3228 C   0  0  0  0  0  0  0  0  0  0  0  0
    8.6277  -17.5205   27.0630 O   0  0  0  0  0  0  0  0  0  0  0  0
   10.2285  -18.8657   27.9421 O   0  0  0  0  0  0  0  0  0  0  0  0
  1  2  1  0
  2  3  1  0
  3  4  2  0
  3 10  1  0
  6  5  1  0
  7  6  1  0
  7  8  1  6
  9  7  1  0
  9 10  1  1
 11  9  1  0
 11 18  1  0
 12 11  2  0
 14 15  1  6
 14 16  1  0
 14 13  1  0
 17 16  1  1
 17 18  1  0
 19 17  1  0
 20 19  2  0
 21 19  1  0
M  END
$$$$
