QSG.pdb
     RDKit          3D

 20 19  0  0  1  0  0  0  0  0999 V2000
   14.5078   -9.1320  -16.3107 N   0  0  0  0  0  0  0  0  0  0  0  0
   13.8405  -10.4044  -16.3950 C   0  0  0  0  0  0  0  0  0  0  0  0
   12.6858  -10.4613  -16.8407 O   0  0  0  0  0  0  0  0  0  0  0  0
   14.6105  -11.6173  -15.9229 C   0  0  0  0  0  0  0  0  0  0  0  0
   15.9245  -11.1187  -15.4530 C   0  0  0  0  0  0  0  0  0  0  0  0
   17.1423  -11.6521  -16.1017 C   0  0  2  0  0  0  0  0  0  0  0  0
   17.1893  -13.0933  -15.7658 N   0  0  0  0  0  0  0  0  0  0  0  0
   18.4227  -11.0638  -15.7057 C   0  0  0  0  0  0  0  0  0  0  0  0
   19.0250  -11.4957  -14.6621 O   0  0  0  0  0  0  0  0  0  0  0  0
   20.9331   -9.1557  -18.2102 O   0  0  0  0  0  0  0  0  0  0  0  0
   21.3911   -9.6700  -16.9994 C   0  0  0  0  0  0  0  0  0  0  0  0
   20.3386   -9.4236  -15.9096 C   0  0  2  0  0  0  0  0  0  0  0  0
   19.1131  -10.0186  -16.3765 N   0  0  0  0  0  0  0  0  0  0  0  0
   20.2431   -7.9618  -15.7447 C   0  0  0  0  0  0  0  0  0  0  0  0
   19.5070   -7.2135  -16.4294 O   0  0  0  0  0  0  0  0  0  0  0  0
   21.0423   -7.3579  -14.7380 N   0  0  0  0  0  0  0  0  0  0  0  0
   21.1280   -5.9104  -14.6064 C   0  0  0  0  0  0  0  0  0  0  0  0
   21.9782   -5.5340  -13.4465 C   0  0  0  0  0  0  0  0  0  0  0  0
   22.3101   -6.4597  -12.6619 O   0  0  0  0  0  0  0  0  0  0  0  0
   22.4129   -4.2573  -13.1891 O   0  0  0  0  0  0  0  0  0  0  0  0
  2  1  1  0
  3  2  2  0
  4  2  1  0
  5  4  1  0
  6  7  1  1
  6  5  1  0
  8  9  2  0
  8  6  1  0
 10 11  1  0
 12 11  1  6
 12 13  1  0
 12 14  1  0
 13  8  1  0
 14 15  2  0
 14 16  1  0
 16 17  1  0
 18 17  1  0
 18 20  1  0
 19 18  2  0
M  END
$$$$
