QSG.pdb
     RDKit          3D

 20 19  0  0  1  0  0  0  0  0999 V2000
   18.0712  -12.6010  -15.3874 N   0  0  0  0  0  0  0  0  0  0  0  0
   18.0308  -12.9654  -16.7792 C   0  0  0  0  0  0  0  0  0  0  0  0
   18.2314  -14.1427  -17.1094 O   0  0  0  0  0  0  0  0  0  0  0  0
   17.7392  -11.8615  -17.7708 C   0  0  0  0  0  0  0  0  0  0  0  0
   17.3532  -10.6753  -16.9709 C   0  0  0  0  0  0  0  0  0  0  0  0
   18.3901   -9.6576  -16.6928 C   0  0  2  0  0  0  0  0  0  0  0  0
   19.6778  -10.3864  -16.6411 N   0  0  0  0  0  0  0  0  0  0  0  0
   18.2627   -8.8962  -15.4492 C   0  0  0  0  0  0  0  0  0  0  0  0
   17.2089   -9.0199  -14.7333 O   0  0  0  0  0  0  0  0  0  0  0  0
   20.5117   -8.8835  -12.5559 O   0  0  0  0  0  0  0  0  0  0  0  0
   19.2109   -8.3853  -12.5592 C   0  0  0  0  0  0  0  0  0  0  0  0
   19.0776   -7.3141  -13.6505 C   0  0  2  0  0  0  0  0  0  0  0  0
   19.2183   -7.9912  -14.9136 N   0  0  0  0  0  0  0  0  0  0  0  0
   20.1466   -6.3300  -13.4020 C   0  0  0  0  0  0  0  0  0  0  0  0
   20.2974   -5.6960  -12.3314 O   0  0  0  0  0  0  0  0  0  0  0  0
   21.0721   -6.0823  -14.4502 N   0  0  0  0  0  0  0  0  0  0  0  0
   22.2013   -5.1819  -14.2662 C   0  0  0  0  0  0  0  0  0  0  0  0
   21.8018   -3.7730  -14.5220 C   0  0  0  0  0  0  0  0  0  0  0  0
   20.6042   -3.5736  -14.8514 O   0  0  0  0  0  0  0  0  0  0  0  0
   22.6507   -2.6987  -14.4208 O   0  0  0  0  0  0  0  0  0  0  0  0
  2  1  1  0
  3  2  2  0
  4  2  1  0
  5  4  1  0
  6  7  1  1
  6  5  1  0
  8  9  2  0
  8  6  1  0
 10 11  1  0
 12 11  1  1
 12 13  1  0
 12 14  1  0
 13  8  1  0
 14 15  2  0
 14 16  1  0
 16 17  1  0
 18 17  1  0
 18 20  1  0
 19 18  2  0
M  END
$$$$
