QSG.pdb
     RDKit          3D

 20 19  0  0  1  0  0  0  0  0999 V2000
   20.9953  -19.6948   -9.4125 N   0  0  0  0  0  0  0  0  0  0  0  0
   21.5635  -19.9681  -10.7063 C   0  0  0  0  0  0  0  0  0  0  0  0
   21.0976  -19.4096  -11.7094 O   0  0  0  0  0  0  0  0  0  0  0  0
   22.7191  -20.9421  -10.7579 C   0  0  0  0  0  0  0  0  0  0  0  0
   23.9253  -20.1401  -11.0707 C   0  0  0  0  0  0  0  0  0  0  0  0
   25.2203  -20.8467  -11.1800 C   0  0  2  0  0  0  0  0  0  0  0  0
   25.8608  -20.7389   -9.8495 N   0  0  0  0  0  0  0  0  0  0  0  0
   26.1734  -20.3459  -12.1716 C   0  0  0  0  0  0  0  0  0  0  0  0
   26.7320  -19.2075  -11.9978 O   0  0  0  0  0  0  0  0  0  0  0  0
   27.4850  -22.5381  -15.3974 O   0  0  0  0  0  0  0  0  0  0  0  0
   28.1377  -21.3353  -15.1377 C   0  0  0  0  0  0  0  0  0  0  0  0
   27.1499  -20.3448  -14.5058 C   0  0  2  0  0  0  0  0  0  0  0  0
   26.5743  -21.0068  -13.3638 N   0  0  0  0  0  0  0  0  0  0  0  0
   26.1568  -20.0243  -15.5471 C   0  0  0  0  0  0  0  0  0  0  0  0
   25.0388  -20.5790  -15.6611 O   0  0  0  0  0  0  0  0  0  0  0  0
   26.4905  -19.0150  -16.4887 N   0  0  0  0  0  0  0  0  0  0  0  0
   25.5598  -18.6190  -17.5359 C   0  0  0  0  0  0  0  0  0  0  0  0
   26.1143  -17.4989  -18.3408 C   0  0  0  0  0  0  0  0  0  0  0  0
   25.3640  -17.0084  -19.2234 O   0  0  0  0  0  0  0  0  0  0  0  0
   27.3750  -16.9802  -18.1774 O   0  0  0  0  0  0  0  0  0  0  0  0
  2  1  1  0
  3  2  2  0
  4  2  1  0
  5  4  1  0
  6  7  1  1
  6  5  1  0
  8  9  2  0
  8  6  1  0
 10 11  1  0
 12 11  1  6
 12 13  1  0
 12 14  1  0
 13  8  1  0
 14 15  2  0
 14 16  1  0
 16 17  1  0
 18 17  1  0
 18 20  1  0
 19 18  2  0
M  END
$$$$
