QSG.pdb
     RDKit          3D

 20 19  0  0  1  0  0  0  0  0999 V2000
   26.5380  -22.1745  -15.7220 N   0  0  0  0  0  0  0  0  0  0  0  0
   27.7634  -21.5631  -16.1648 C   0  0  0  0  0  0  0  0  0  0  0  0
   28.8468  -22.1026  -15.8997 O   0  0  0  0  0  0  0  0  0  0  0  0
   27.6455  -20.2718  -16.9429 C   0  0  0  0  0  0  0  0  0  0  0  0
   26.2026  -19.9360  -16.9754 C   0  0  0  0  0  0  0  0  0  0  0  0
   25.6059  -19.3177  -15.7713 C   0  0  2  0  0  0  0  0  0  0  0  0
   24.4674  -20.1825  -15.3865 N   0  0  0  0  0  0  0  0  0  0  0  0
   25.0983  -17.9512  -15.9034 C   0  0  0  0  0  0  0  0  0  0  0  0
   23.9179  -17.7527  -16.3567 O   0  0  0  0  0  0  0  0  0  0  0  0
   27.4050  -14.6392  -15.0347 O   0  0  0  0  0  0  0  0  0  0  0  0
   26.0382  -14.5126  -14.7972 C   0  0  0  0  0  0  0  0  0  0  0  0
   25.2666  -15.4309  -15.7551 C   0  0  2  0  0  0  0  0  0  0  0  0
   25.7941  -16.7580  -15.5700 N   0  0  0  0  0  0  0  0  0  0  0  0
   25.4953  -14.9041  -17.1128 C   0  0  0  0  0  0  0  0  0  0  0  0
   26.4158  -15.2775  -17.8769 O   0  0  0  0  0  0  0  0  0  0  0  0
   24.6094  -13.9018  -17.5895 N   0  0  0  0  0  0  0  0  0  0  0  0
   24.8083  -13.2698  -18.8859 C   0  0  0  0  0  0  0  0  0  0  0  0
   23.7750  -12.2297  -19.1316 C   0  0  0  0  0  0  0  0  0  0  0  0
   23.9216  -11.5150  -20.1564 O   0  0  0  0  0  0  0  0  0  0  0  0
   22.6910  -12.0101  -18.3181 O   0  0  0  0  0  0  0  0  0  0  0  0
  2  1  1  0
  3  2  2  0
  4  2  1  0
  5  4  1  0
  6  7  1  6
  6  5  1  0
  8  9  2  0
  8  6  1  0
 10 11  1  0
 12 11  1  1
 12 13  1  0
 12 14  1  0
 13  8  1  0
 14 15  2  0
 14 16  1  0
 16 17  1  0
 18 17  1  0
 18 20  1  0
 19 18  2  0
M  END
$$$$
