QSG.pdb
     RDKit          3D

 20 19  0  0  1  0  0  0  0  0999 V2000
   21.9004  -23.0517  -15.1267 N   0  0  0  0  0  0  0  0  0  0  0  0
   20.5851  -22.6210  -15.5218 C   0  0  0  0  0  0  0  0  0  0  0  0
   19.7895  -23.4429  -15.9979 O   0  0  0  0  0  0  0  0  0  0  0  0
   20.2525  -21.1589  -15.3254 C   0  0  0  0  0  0  0  0  0  0  0  0
   21.4392  -20.5448  -14.6848 C   0  0  0  0  0  0  0  0  0  0  0  0
   21.6442  -20.7740  -13.2379 C   0  0  2  0  0  0  0  0  0  0  0  0
   20.4904  -20.1461  -12.5548 N   0  0  0  0  0  0  0  0  0  0  0  0
   22.8632  -20.2265  -12.6405 C   0  0  0  0  0  0  0  0  0  0  0  0
   23.3505  -19.1289  -13.0835 O   0  0  0  0  0  0  0  0  0  0  0  0
   24.0186  -20.6555   -9.0520 O   0  0  0  0  0  0  0  0  0  0  0  0
   25.1861  -20.8621   -9.7830 C   0  0  0  0  0  0  0  0  0  0  0  0
   24.9597  -20.4310  -11.2387 C   0  0  2  0  0  0  0  0  0  0  0  0
   23.6072  -20.7959  -11.5722 N   0  0  0  0  0  0  0  0  0  0  0  0
   25.9651  -21.1450  -12.0465 C   0  0  0  0  0  0  0  0  0  0  0  0
   26.0052  -22.3883  -12.1989 O   0  0  0  0  0  0  0  0  0  0  0  0
   26.9595  -20.3689  -12.6988 N   0  0  0  0  0  0  0  0  0  0  0  0
   27.9447  -20.9839  -13.5768 C   0  0  0  0  0  0  0  0  0  0  0  0
   27.4863  -20.9522  -14.9906 C   0  0  0  0  0  0  0  0  0  0  0  0
   26.3688  -21.4746  -15.2368 O   0  0  0  0  0  0  0  0  0  0  0  0
   28.2010  -20.3952  -16.0223 O   0  0  0  0  0  0  0  0  0  0  0  0
  2  1  1  0
  3  2  2  0
  4  2  1  0
  5  4  1  0
  6  7  1  1
  6  5  1  0
  8  9  2  0
  8  6  1  0
 10 11  1  0
 12 11  1  1
 12 13  1  0
 12 14  1  0
 13  8  1  0
 14 15  2  0
 14 16  1  0
 16 17  1  0
 18 17  1  0
 18 20  1  0
 19 18  2  0
M  END
$$$$
