QSG.pdb
     RDKit          3D

 20 19  0  0  1  0  0  0  0  0999 V2000
   15.0042   -9.2450  -15.5403 N   0  0  0  0  0  0  0  0  0  0  0  0
   14.7349  -10.4635  -16.2574 C   0  0  0  0  0  0  0  0  0  0  0  0
   13.5972  -10.6738  -16.7007 O   0  0  0  0  0  0  0  0  0  0  0  0
   15.8854  -11.4302  -16.4267 C   0  0  0  0  0  0  0  0  0  0  0  0
   17.0659  -10.7847  -15.8058 C   0  0  0  0  0  0  0  0  0  0  0  0
   18.3291  -10.7600  -16.5752 C   0  0  2  0  0  0  0  0  0  0  0  0
   18.6574  -12.1729  -16.8717 N   0  0  0  0  0  0  0  0  0  0  0  0
   19.4961  -10.1618  -15.9251 C   0  0  0  0  0  0  0  0  0  0  0  0
   20.2501  -10.8832  -15.1838 O   0  0  0  0  0  0  0  0  0  0  0  0
   23.4918   -8.6765  -15.5359 O   0  0  0  0  0  0  0  0  0  0  0  0
   22.2869   -9.0524  -16.1251 C   0  0  0  0  0  0  0  0  0  0  0  0
   21.1333   -8.2896  -15.4592 C   0  0  2  0  0  0  0  0  0  0  0  0
   19.9144   -8.8076  -16.0249 N   0  0  0  0  0  0  0  0  0  0  0  0
   21.3477   -6.8627  -15.7607 C   0  0  0  0  0  0  0  0  0  0  0  0
   21.2775   -6.3574  -16.9054 O   0  0  0  0  0  0  0  0  0  0  0  0
   21.6558   -5.9984  -14.6769 N   0  0  0  0  0  0  0  0  0  0  0  0
   21.8019   -4.5629  -14.8711 C   0  0  0  0  0  0  0  0  0  0  0  0
   22.1775   -3.8923  -13.5986 C   0  0  0  0  0  0  0  0  0  0  0  0
   22.3152   -4.6288  -12.5881 O   0  0  0  0  0  0  0  0  0  0  0  0
   22.3785   -2.5404  -13.4677 O   0  0  0  0  0  0  0  0  0  0  0  0
  2  1  1  0
  3  2  2  0
  4  2  1  0
  5  4  1  0
  6  7  1  1
  6  5  1  0
  8  9  2  0
  8  6  1  0
 10 11  1  0
 12 11  1  6
 12 13  1  0
 12 14  1  0
 13  8  1  0
 14 15  2  0
 14 16  1  0
 16 17  1  0
 18 17  1  0
 18 20  1  0
 19 18  2  0
M  END
$$$$
