QSG.pdb
     RDKit          3D

 20 19  0  0  1  0  0  0  0  0999 V2000
   28.0202  -20.6381  -14.7214 N   0  0  0  0  0  0  0  0  0  0  0  0
   26.8559  -20.5806  -13.8774 C   0  0  0  0  0  0  0  0  0  0  0  0
   26.8284  -19.7871  -12.9262 O   0  0  0  0  0  0  0  0  0  0  0  0
   25.7153  -21.5145  -14.2147 C   0  0  0  0  0  0  0  0  0  0  0  0
   24.4751  -20.7098  -14.1135 C   0  0  0  0  0  0  0  0  0  0  0  0
   24.0667  -19.9120  -15.2904 C   0  0  2  0  0  0  0  0  0  0  0  0
   25.1044  -20.1398  -16.3216 N   0  0  0  0  0  0  0  0  0  0  0  0
   23.9371  -18.4658  -15.1052 C   0  0  0  0  0  0  0  0  0  0  0  0
   22.9666  -17.9980  -14.4142 O   0  0  0  0  0  0  0  0  0  0  0  0
   26.9396  -16.0826  -15.6326 O   0  0  0  0  0  0  0  0  0  0  0  0
   25.8556  -15.3914  -15.0963 C   0  0  0  0  0  0  0  0  0  0  0  0
   24.5497  -16.0529  -15.5580 C   0  0  2  0  0  0  0  0  0  0  0  0
   24.8051  -17.4686  -15.6259 N   0  0  0  0  0  0  0  0  0  0  0  0
   24.2238  -15.4626  -16.8689 C   0  0  0  0  0  0  0  0  0  0  0  0
   24.6313  -15.9017  -17.9698 O   0  0  0  0  0  0  0  0  0  0  0  0
   23.3884  -14.3144  -16.8861 N   0  0  0  0  0  0  0  0  0  0  0  0
   23.0898  -13.6139  -18.1270 C   0  0  0  0  0  0  0  0  0  0  0  0
   22.2116  -12.4413  -17.8744 C   0  0  0  0  0  0  0  0  0  0  0  0
   21.7978  -12.2852  -16.6967 O   0  0  0  0  0  0  0  0  0  0  0  0
   21.8344  -11.5371  -18.8363 O   0  0  0  0  0  0  0  0  0  0  0  0
  2  1  1  0
  3  2  2  0
  4  2  1  0
  5  4  1  0
  6  7  1  6
  6  5  1  0
  8  9  2  0
  8  6  1  0
 10 11  1  0
 12 11  1  6
 12 13  1  0
 12 14  1  0
 13  8  1  0
 14 15  2  0
 14 16  1  0
 16 17  1  0
 18 17  1  0
 18 20  1  0
 19 18  2  0
M  END
$$$$
