LNL.pdb
     RDKit          3D

 25 24  0  0  1  0  0  0  0  0999 V2000
    7.4102  -12.1150   19.6767 C   0  0  0  0  0  0  0  0  0  0  0  0
    8.3501  -13.2662   19.9582 C   0  0  2  0  0  0  0  0  0  0  0  0
    9.7462  -12.7284   20.1745 C   0  0  0  0  0  0  0  0  0  0  0  0
    8.2905  -14.3013   18.8684 C   0  0  0  0  0  0  0  0  0  0  0  0
    9.0408  -15.5245   19.3257 C   0  0  2  0  0  0  0  0  0  0  0  0
    9.1209  -16.5673   18.3282 N   0  0  0  0  0  0  0  0  0  0  0  0
    8.4470  -16.0520   20.6057 C   0  0  0  0  0  0  0  0  0  0  0  0
    7.2186  -16.2900   20.6801 O   0  0  0  0  0  0  0  0  0  0  0  0
   11.4499  -17.7746   22.0786 N   0  0  0  0  0  0  0  0  0  0  0  0
   10.5968  -18.6569   22.7912 C   0  0  0  0  0  0  0  0  0  0  0  0
   11.0696  -19.8225   22.9999 O   0  0  0  0  0  0  0  0  0  0  0  0
    9.2447  -18.2367   23.2571 C   0  0  0  0  0  0  0  0  0  0  0  0
    8.9700  -16.7660   23.0155 C   0  0  2  0  0  0  0  0  0  0  0  0
    9.2731  -16.2750   21.7102 N   0  0  0  0  0  0  0  0  0  0  0  0
    9.2964  -15.8859   24.1305 C   0  0  0  0  0  0  0  0  0  0  0  0
   10.4758  -15.4084   24.3064 O   0  0  0  0  0  0  0  0  0  0  0  0
    7.7843  -11.8039   25.9147 C   0  0  0  0  0  0  0  0  0  0  0  0
    6.8819  -12.9742   25.9930 C   0  0  2  0  0  0  0  0  0  0  0  0
    5.5191  -12.4909   26.5377 C   0  0  0  0  0  0  0  0  0  0  0  0
    7.3820  -14.1234   26.7551 C   0  0  0  0  0  0  0  0  0  0  0  0
    8.6407  -14.7724   26.3188 C   0  0  2  0  0  0  0  0  0  0  0  0
    8.2988  -15.5380   25.0527 N   0  0  0  0  0  0  0  0  0  0  0  0
    9.1727  -15.7850   27.2109 C   0  0  0  0  0  0  0  0  0  0  0  0
    8.9502  -17.0211   27.2180 O   0  0  0  0  0  0  0  0  0  0  0  0
   10.0747  -15.3904   28.2373 O   0  0  0  0  0  0  0  0  0  0  0  0
  2  1  1  6
  2  3  1  0
  4  5  1  0
  4  2  1  0
  5  6  1  6
  7  5  1  0
  7  8  2  0
 10 12  1  0
 10  9  1  0
 11 10  2  0
 13 12  1  1
 14 13  1  0
 14  7  1  0
 15 13  1  0
 16 15  2  0
 18 17  1  1
 18 19  1  0
 18 20  1  0
 21 20  1  1
 21 22  1  0
 21 23  1  0
 22 15  1  0
 23 25  1  0
 24 23  2  0
M  END
$$$$
