LNL.pdb
     RDKit          3D

 25 24  0  0  1  0  0  0  0  0999 V2000
    9.2884  -13.5059   18.7866 C   0  0  0  0  0  0  0  0  0  0  0  0
    7.8693  -13.4111   19.3016 C   0  0  2  0  0  0  0  0  0  0  0  0
    7.4565  -11.9581   19.3606 C   0  0  0  0  0  0  0  0  0  0  0  0
    7.7189  -14.1102   20.6249 C   0  0  0  0  0  0  0  0  0  0  0  0
    8.1855  -15.5341   20.4719 C   0  0  2  0  0  0  0  0  0  0  0  0
    7.3377  -16.3381   19.6211 N   0  0  0  0  0  0  0  0  0  0  0  0
    8.3507  -16.1766   21.8243 C   0  0  0  0  0  0  0  0  0  0  0  0
    7.3483  -16.5902   22.4530 O   0  0  0  0  0  0  0  0  0  0  0  0
   11.6432  -19.3657   21.7359 N   0  0  0  0  0  0  0  0  0  0  0  0
   10.8611  -19.0004   22.8624 C   0  0  0  0  0  0  0  0  0  0  0  0
    9.8867  -19.7795   23.1256 O   0  0  0  0  0  0  0  0  0  0  0  0
   11.1689  -17.7875   23.6722 C   0  0  0  0  0  0  0  0  0  0  0  0
   10.0451  -16.7708   23.6592 C   0  0  2  0  0  0  0  0  0  0  0  0
    9.6281  -16.3096   22.3746 N   0  0  0  0  0  0  0  0  0  0  0  0
   10.1049  -15.7712   24.7183 C   0  0  0  0  0  0  0  0  0  0  0  0
   11.1741  -15.1082   24.9776 O   0  0  0  0  0  0  0  0  0  0  0  0
    8.0172  -11.8264   25.5389 C   0  0  0  0  0  0  0  0  0  0  0  0
    7.2315  -13.0668   25.7240 C   0  0  2  0  0  0  0  0  0  0  0  0
    5.7502  -12.6700   25.9137 C   0  0  0  0  0  0  0  0  0  0  0  0
    7.6836  -13.9619   26.7944 C   0  0  0  0  0  0  0  0  0  0  0  0
    9.0271  -14.5778   26.6862 C   0  0  2  0  0  0  0  0  0  0  0  0
    8.9634  -15.5117   25.4904 N   0  0  0  0  0  0  0  0  0  0  0  0
    9.4190  -15.4385   27.7860 C   0  0  0  0  0  0  0  0  0  0  0  0
    9.9511  -15.1235   28.8792 O   0  0  0  0  0  0  0  0  0  0  0  0
    9.1966  -16.8389   27.6748 O   0  0  0  0  0  0  0  0  0  0  0  0
  2  1  1  1
  2  3  1  0
  4  5  1  0
  4  2  1  0
  5  6  1  6
  7  5  1  0
  7  8  2  0
 10 12  1  0
 10  9  1  0
 11 10  2  0
 13 12  1  6
 14 13  1  0
 14  7  1  0
 15 13  1  0
 16 15  2  0
 18 17  1  1
 18 19  1  0
 18 20  1  0
 21 20  1  1
 21 22  1  0
 21 23  1  0
 22 15  1  0
 23 25  1  0
 24 23  2  0
M  END
$$$$
