LNL.pdb
     RDKit          3D

 25 24  0  0  1  0  0  0  0  0999 V2000
    8.5169  -13.6512   19.2229 C   0  0  0  0  0  0  0  0  0  0  0  0
    7.1836  -13.5606   19.9316 C   0  0  2  0  0  0  0  0  0  0  0  0
    6.8933  -12.1149   20.2644 C   0  0  0  0  0  0  0  0  0  0  0  0
    7.1446  -14.4528   21.1419 C   0  0  0  0  0  0  0  0  0  0  0  0
    7.6838  -15.8060   20.7590 C   0  0  2  0  0  0  0  0  0  0  0  0
    6.6595  -16.7697   20.4259 N   0  0  0  0  0  0  0  0  0  0  0  0
    8.5839  -16.3348   21.8450 C   0  0  0  0  0  0  0  0  0  0  0  0
    8.1834  -17.2440   22.6092 O   0  0  0  0  0  0  0  0  0  0  0  0
   13.5743  -17.4627   23.7488 N   0  0  0  0  0  0  0  0  0  0  0  0
   13.3331  -16.0804   23.5364 C   0  0  0  0  0  0  0  0  0  0  0  0
   14.0708  -15.2883   24.2104 O   0  0  0  0  0  0  0  0  0  0  0  0
   12.2870  -15.6022   22.5884 C   0  0  0  0  0  0  0  0  0  0  0  0
   10.9062  -16.1313   22.9203 C   0  0  2  0  0  0  0  0  0  0  0  0
    9.8685  -15.8064   21.9959 N   0  0  0  0  0  0  0  0  0  0  0  0
   10.5519  -16.0880   24.3333 C   0  0  0  0  0  0  0  0  0  0  0  0
   11.3277  -16.5430   25.2504 O   0  0  0  0  0  0  0  0  0  0  0  0
    8.7023  -12.3568   26.8929 C   0  0  0  0  0  0  0  0  0  0  0  0
    7.8249  -13.1192   25.9768 C   0  0  2  0  0  0  0  0  0  0  0  0
    6.4290  -12.4569   25.9909 C   0  0  0  0  0  0  0  0  0  0  0  0
    7.7317  -14.5616   26.2260 C   0  0  0  0  0  0  0  0  0  0  0  0
    8.9727  -15.3708   26.1909 C   0  0  2  0  0  0  0  0  0  0  0  0
    9.3243  -15.5327   24.7224 N   0  0  0  0  0  0  0  0  0  0  0  0
    8.8544  -16.7321   26.6778 C   0  0  0  0  0  0  0  0  0  0  0  0
    8.9030  -17.1502   27.8610 O   0  0  0  0  0  0  0  0  0  0  0  0
    8.6536  -17.7819   25.7394 O   0  0  0  0  0  0  0  0  0  0  0  0
  2  1  1  1
  2  3  1  0
  4  5  1  0
  4  2  1  0
  5  6  1  1
  7  5  1  0
  7  8  2  0
 10 12  1  0
 10  9  1  0
 11 10  2  0
 13 12  1  1
 14 13  1  0
 14  7  1  0
 15 13  1  0
 16 15  2  0
 18 17  1  1
 18 19  1  0
 18 20  1  0
 21 20  1  6
 21 22  1  0
 21 23  1  0
 22 15  1  0
 23 25  1  0
 24 23  2  0
M  END
$$$$
