LNL.pdb
     RDKit          3D

 25 24  0  0  1  0  0  0  0  0999 V2000
    9.0916  -12.3953   18.9264 C   0  0  0  0  0  0  0  0  0  0  0  0
    7.9429  -13.3701   18.7908 C   0  0  2  0  0  0  0  0  0  0  0  0
    6.7041  -12.6228   18.3528 C   0  0  0  0  0  0  0  0  0  0  0  0
    7.7316  -14.1478   20.0609 C   0  0  0  0  0  0  0  0  0  0  0  0
    9.0641  -14.6660   20.5344 C   0  0  2  0  0  0  0  0  0  0  0  0
    9.6788  -15.6100   19.6289 N   0  0  0  0  0  0  0  0  0  0  0  0
    8.9337  -15.2549   21.9148 C   0  0  0  0  0  0  0  0  0  0  0  0
    8.0352  -14.8519   22.6903 O   0  0  0  0  0  0  0  0  0  0  0  0
    9.6859  -19.8794   22.0912 N   0  0  0  0  0  0  0  0  0  0  0  0
   10.7215  -18.9363   22.3193 C   0  0  0  0  0  0  0  0  0  0  0  0
   11.5559  -18.8011   21.3646 O   0  0  0  0  0  0  0  0  0  0  0  0
   10.8152  -18.1647   23.5911 C   0  0  0  0  0  0  0  0  0  0  0  0
    9.9603  -16.9133   23.5842 C   0  0  2  0  0  0  0  0  0  0  0  0
    9.8200  -16.2535   22.3265 N   0  0  0  0  0  0  0  0  0  0  0  0
   10.1129  -16.0551   24.7523 C   0  0  0  0  0  0  0  0  0  0  0  0
   11.2177  -15.4610   25.0286 O   0  0  0  0  0  0  0  0  0  0  0  0
    8.4053  -12.0083   26.0913 C   0  0  0  0  0  0  0  0  0  0  0  0
    7.4879  -13.1689   26.0515 C   0  0  2  0  0  0  0  0  0  0  0  0
    6.0530  -12.6523   26.2999 C   0  0  0  0  0  0  0  0  0  0  0  0
    7.8160  -14.2805   26.9505 C   0  0  0  0  0  0  0  0  0  0  0  0
    9.1375  -14.9375   26.8158 C   0  0  2  0  0  0  0  0  0  0  0  0
    9.0245  -15.8603   25.6150 N   0  0  0  0  0  0  0  0  0  0  0  0
    9.5199  -15.8183   27.9031 C   0  0  0  0  0  0  0  0  0  0  0  0
   10.0672  -15.5263   28.9951 O   0  0  0  0  0  0  0  0  0  0  0  0
    9.2670  -17.2123   27.7788 O   0  0  0  0  0  0  0  0  0  0  0  0
  2  1  1  1
  2  3  1  0
  4  5  1  0
  4  2  1  0
  5  6  1  6
  7  5  1  0
  7  8  2  0
 10 12  1  0
 10  9  1  0
 11 10  2  0
 13 12  1  6
 14 13  1  0
 14  7  1  0
 15 13  1  0
 16 15  2  0
 18 17  1  1
 18 19  1  0
 18 20  1  0
 21 20  1  1
 21 22  1  0
 21 23  1  0
 22 15  1  0
 23 25  1  0
 24 23  2  0
M  END
$$$$
