REG.pdb
     RDKit          3D

 25 24  0  0  1  0  0  0  0  0999 V2000
   26.4004  -20.4389  -11.1569 N   0  0  0  0  0  0  0  0  0  0  0  0
   26.4421  -20.6864  -12.5662 C   0  0  0  0  0  0  0  0  0  0  0  0
   25.5479  -21.4208  -13.1360 N   0  0  0  0  0  0  0  0  0  0  0  0
   27.4641  -20.1353  -13.3829 N   0  0  0  0  0  0  0  0  0  0  0  0
   27.2362  -18.9383  -14.1290 C   0  0  0  0  0  0  0  0  0  0  0  0
   26.2620  -19.0565  -15.2540 C   0  0  0  0  0  0  0  0  0  0  0  0
   26.2504  -17.7063  -15.9811 C   0  0  0  0  0  0  0  0  0  0  0  0
   26.0507  -16.5961  -14.9723 C   0  0  2  0  0  0  0  0  0  0  0  0
   25.4456  -17.0891  -13.7575 N   0  0  0  0  0  0  0  0  0  0  0  0
   25.1818  -15.5435  -15.6007 C   0  0  0  0  0  0  0  0  0  0  0  0
   25.5182  -14.9956  -16.6907 O   0  0  0  0  0  0  0  0  0  0  0  0
   25.5778  -21.7003  -14.1292 N   0  0  0  0  0  0  0  0  0  0  0  0
   23.9739  -15.1256  -15.0142 C   0  0  1  0  0  0  0  0  0  0  0  0
   23.0974  -14.1344  -15.6880 C   0  0  0  0  0  0  0  0  0  0  0  0
   21.6889  -14.6756  -15.6432 C   0  0  0  0  0  0  0  0  0  0  0  0
   21.3713  -15.7364  -16.6352 C   0  0  0  0  0  0  0  0  0  0  0  0
   19.9282  -16.1011  -16.4982 O   0  0  0  0  0  0  0  0  0  0  0  0
   19.0850  -15.1866  -16.4377 C   0  0  0  0  0  0  0  0  0  0  0  0
   23.2659  -12.8537  -14.9748 O   0  0  0  0  0  0  0  0  0  0  0  0
   23.7701  -12.8211  -13.7994 O   0  0  0  0  0  0  0  0  0  0  0  0
   19.5132  -17.4100  -16.4381 N   0  0  0  0  0  0  0  0  0  0  0  0
   22.9091  -11.5738  -15.4872 C   0  0  0  0  0  0  0  0  0  0  0  0
   23.1008  -10.3569  -14.7233 C   0  0  0  0  0  0  0  0  0  0  0  0
   22.7832   -9.1462  -15.5062 O   0  0  0  0  0  0  0  0  0  0  0  0
   22.5245   -9.3050  -16.7274 O   0  0  0  0  0  0  0  0  0  0  0  0
  2  3  2  0
  2  1  1  0
  4  2  1  0
  5  4  1  0
  6  5  1  0
  7  6  1  0
  8 10  1  0
  8  7  1  0
  8  9  1  1
 10 12  1  0
 11 10  2  0
 12 13  1  0
 13 14  1  6
 14 15  1  0
 16 17  2  0
 16 15  1  0
 18 13  1  0
 19 18  2  0
 20 16  1  0
 21 18  1  0
 22 21  1  0
 23 22  1  0
 24 23  2  0
 25 23  1  0
M  END
$$$$
