REG.pdb
     RDKit          3D

 25 24  0  0  1  0  0  0  0  0999 V2000
   29.5869  -19.4666   -6.9182 N   0  0  0  0  0  0  0  0  0  0  0  0
   28.5071  -19.5084   -5.9795 C   0  0  0  0  0  0  0  0  0  0  0  0
   28.7031  -19.2422   -4.7327 N   0  0  0  0  0  0  0  0  0  0  0  0
   27.1885  -19.8430   -6.3850 N   0  0  0  0  0  0  0  0  0  0  0  0
   26.9634  -20.8247   -7.3984 C   0  0  0  0  0  0  0  0  0  0  0  0
   27.1859  -20.3646   -8.8011 C   0  0  0  0  0  0  0  0  0  0  0  0
   25.8124  -19.9965   -9.3756 C   0  0  0  0  0  0  0  0  0  0  0  0
   25.4264  -21.0052  -10.4357 C   0  0  2  0  0  0  0  0  0  0  0  0
   26.5902  -21.5540  -11.0910 N   0  0  0  0  0  0  0  0  0  0  0  0
   24.5381  -20.3181  -11.4340 C   0  0  0  0  0  0  0  0  0  0  0  0
   23.4517  -19.7816  -11.0690 O   0  0  0  0  0  0  0  0  0  0  0  0
   27.9734  -19.3116   -4.0060 N   0  0  0  0  0  0  0  0  0  0  0  0
   24.8689  -20.2422  -12.7987 C   0  0  1  0  0  0  0  0  0  0  0  0
   23.9043  -19.7065  -13.7924 C   0  0  0  0  0  0  0  0  0  0  0  0
   24.6831  -19.3769  -15.0428 C   0  0  0  0  0  0  0  0  0  0  0  0
   23.9005  -18.7699  -16.1516 C   0  0  0  0  0  0  0  0  0  0  0  0
   24.4291  -19.2903  -17.4493 O   0  0  0  0  0  0  0  0  0  0  0  0
   23.6670  -19.9470  -18.1834 C   0  0  0  0  0  0  0  0  0  0  0  0
   22.8698  -20.7397  -13.9904 O   0  0  0  0  0  0  0  0  0  0  0  0
   23.1788  -21.9812  -14.0002 O   0  0  0  0  0  0  0  0  0  0  0  0
   25.7246  -19.0633  -17.8482 N   0  0  0  0  0  0  0  0  0  0  0  0
   21.4810  -20.4874  -14.1797 C   0  0  0  0  0  0  0  0  0  0  0  0
   20.4575  -21.3121  -13.5687 C   0  0  0  0  0  0  0  0  0  0  0  0
   19.0981  -20.7856  -13.8023 O   0  0  0  0  0  0  0  0  0  0  0  0
   18.3830  -21.3963  -14.6385 O   0  0  0  0  0  0  0  0  0  0  0  0
  2  3  2  0
  2  1  1  0
  4  2  1  0
  5  4  1  0
  6  5  1  0
  7  6  1  0
  8 10  1  0
  8  7  1  0
  8  9  1  6
 10 12  1  0
 11 10  2  0
 12 13  1  0
 13 14  1  1
 14 15  1  0
 16 17  2  0
 16 15  1  0
 18 13  1  0
 19 18  2  0
 20 16  1  0
 21 18  1  0
 22 21  1  0
 23 22  1  0
 24 23  2  0
 25 23  1  0
M  END
$$$$
