REG.pdb
     RDKit          3D

 25 24  0  0  1  0  0  0  0  0999 V2000
   20.3504  -16.8997  -17.2284 N   0  0  0  0  0  0  0  0  0  0  0  0
   20.9844  -17.7566  -18.1838 C   0  0  0  0  0  0  0  0  0  0  0  0
   20.3148  -18.6706  -18.8002 N   0  0  0  0  0  0  0  0  0  0  0  0
   22.3659  -17.6319  -18.4855 N   0  0  0  0  0  0  0  0  0  0  0  0
   23.1650  -16.6337  -17.8478 C   0  0  0  0  0  0  0  0  0  0  0  0
   22.7511  -15.2212  -18.0976 C   0  0  0  0  0  0  0  0  0  0  0  0
   23.4334  -14.3582  -17.0291 C   0  0  0  0  0  0  0  0  0  0  0  0
   23.0791  -12.9049  -17.2582 C   0  0  2  0  0  0  0  0  0  0  0  0
   23.5056  -12.4568  -18.5630 N   0  0  0  0  0  0  0  0  0  0  0  0
   23.7372  -12.0877  -16.1826 C   0  0  0  0  0  0  0  0  0  0  0  0
   23.4921  -12.3113  -14.9614 O   0  0  0  0  0  0  0  0  0  0  0  0
   20.7413  -19.3877  -19.4079 N   0  0  0  0  0  0  0  0  0  0  0  0
   24.6413  -11.0525  -16.4803 C   0  0  1  0  0  0  0  0  0  0  0  0
   25.3005  -10.2763  -15.3996 C   0  0  0  0  0  0  0  0  0  0  0  0
   26.7510  -10.1123  -15.7841 C   0  0  0  0  0  0  0  0  0  0  0  0
   27.5638  -11.3571  -15.7897 C   0  0  0  0  0  0  0  0  0  0  0  0
   27.6171  -11.8858  -17.1869 O   0  0  0  0  0  0  0  0  0  0  0  0
   27.6249  -11.0745  -18.1317 C   0  0  0  0  0  0  0  0  0  0  0  0
   24.5694   -9.0006  -15.2766 O   0  0  0  0  0  0  0  0  0  0  0  0
   25.0183   -8.0583  -14.5367 O   0  0  0  0  0  0  0  0  0  0  0  0
   27.6572  -13.2339  -17.4514 N   0  0  0  0  0  0  0  0  0  0  0  0
   23.3466   -8.6865  -15.9356 C   0  0  0  0  0  0  0  0  0  0  0  0
   22.7501   -7.3673  -15.8657 C   0  0  0  0  0  0  0  0  0  0  0  0
   21.7134   -7.2742  -14.8186 O   0  0  0  0  0  0  0  0  0  0  0  0
   21.5224   -8.2958  -14.1090 O   0  0  0  0  0  0  0  0  0  0  0  0
  2  3  2  0
  2  1  1  0
  4  2  1  0
  5  4  1  0
  6  5  1  0
  7  6  1  0
  8 10  1  0
  8  7  1  0
  8  9  1  6
 10 12  1  0
 11 10  2  0
 12 13  1  0
 13 14  1  1
 14 15  1  0
 16 17  2  0
 16 15  1  0
 18 13  1  0
 19 18  2  0
 20 16  1  0
 21 18  1  0
 22 21  1  0
 23 22  1  0
 24 23  2  0
 25 23  1  0
M  END
$$$$
