REG.pdb
     RDKit          3D

 25 24  0  0  1  0  0  0  0  0999 V2000
   30.7046  -22.3413   -8.8957 N   0  0  0  0  0  0  0  0  0  0  0  0
   31.4400  -22.2467  -10.1202 C   0  0  0  0  0  0  0  0  0  0  0  0
   32.4580  -23.0071  -10.3413 N   0  0  0  0  0  0  0  0  0  0  0  0
   31.0772  -21.3169  -11.1297 N   0  0  0  0  0  0  0  0  0  0  0  0
   29.7916  -20.6935  -11.1199 C   0  0  0  0  0  0  0  0  0  0  0  0
   28.9166  -21.0042  -12.2890 C   0  0  0  0  0  0  0  0  0  0  0  0
   27.6083  -20.2296  -12.0884 C   0  0  0  0  0  0  0  0  0  0  0  0
   26.4870  -21.2056  -11.8052 C   0  0  2  0  0  0  0  0  0  0  0  0
   26.4588  -22.2738  -12.7764 N   0  0  0  0  0  0  0  0  0  0  0  0
   25.1903  -20.4467  -11.8233 C   0  0  0  0  0  0  0  0  0  0  0  0
   25.0050  -19.4674  -11.0435 O   0  0  0  0  0  0  0  0  0  0  0  0
   33.0551  -22.9426  -11.1808 N   0  0  0  0  0  0  0  0  0  0  0  0
   24.1395  -20.7860  -12.6942 C   0  0  1  0  0  0  0  0  0  0  0  0
   22.8735  -20.0103  -12.7063 C   0  0  0  0  0  0  0  0  0  0  0  0
   22.6251  -19.5769  -14.1309 C   0  0  0  0  0  0  0  0  0  0  0  0
   22.0437  -20.6088  -15.0293 C   0  0  0  0  0  0  0  0  0  0  0  0
   21.8195  -19.9981  -16.3751 O   0  0  0  0  0  0  0  0  0  0  0  0
   21.3005  -18.8678  -16.4383 C   0  0  0  0  0  0  0  0  0  0  0  0
   21.8226  -20.8903  -12.1602 O   0  0  0  0  0  0  0  0  0  0  0  0
   21.6514  -22.0703  -12.6241 O   0  0  0  0  0  0  0  0  0  0  0  0
   22.1695  -20.6485  -17.5342 N   0  0  0  0  0  0  0  0  0  0  0  0
   20.9277  -20.5471  -11.1068 C   0  0  0  0  0  0  0  0  0  0  0  0
   19.5382  -20.2160  -11.3530 C   0  0  0  0  0  0  0  0  0  0  0  0
   18.7495  -21.3872  -11.7844 O   0  0  0  0  0  0  0  0  0  0  0  0
   18.7848  -21.6830  -13.0070 O   0  0  0  0  0  0  0  0  0  0  0  0
  2  3  2  0
  2  1  1  0
  4  2  1  0
  5  4  1  0
  6  5  1  0
  7  6  1  0
  8 10  1  0
  8  7  1  0
  8  9  1  6
 10 12  1  0
 11 10  2  0
 12 13  1  0
 13 14  1  1
 14 15  1  0
 16 17  2  0
 16 15  1  0
 18 13  1  0
 19 18  2  0
 20 16  1  0
 21 18  1  0
 22 21  1  0
 23 22  1  0
 24 23  2  0
 25 23  1  0
M  END
$$$$
