REG.pdb
     RDKit          3D

 25 24  0  0  1  0  0  0  0  0999 V2000
   26.3409  -21.6962  -10.6860 N   0  0  0  0  0  0  0  0  0  0  0  0
   27.6938  -21.6406  -11.1501 C   0  0  0  0  0  0  0  0  0  0  0  0
   28.6296  -22.2864  -10.5411 N   0  0  0  0  0  0  0  0  0  0  0  0
   28.0524  -20.8763  -12.2914 N   0  0  0  0  0  0  0  0  0  0  0  0
   27.0496  -20.2648  -13.1048 C   0  0  0  0  0  0  0  0  0  0  0  0
   26.4538  -21.1389  -14.1583 C   0  0  0  0  0  0  0  0  0  0  0  0
   25.0480  -21.5228  -13.6804 C   0  0  0  0  0  0  0  0  0  0  0  0
   24.4091  -22.4461  -14.6951 C   0  0  2  0  0  0  0  0  0  0  0  0
   25.2078  -22.5469  -15.8938 N   0  0  0  0  0  0  0  0  0  0  0  0
   23.0428  -21.9114  -15.0191 C   0  0  0  0  0  0  0  0  0  0  0  0
   22.7825  -21.4635  -16.1737 O   0  0  0  0  0  0  0  0  0  0  0  0
   29.6233  -22.2614  -10.8190 N   0  0  0  0  0  0  0  0  0  0  0  0
   22.0074  -21.8844  -14.0678 C   0  0  2  0  0  0  0  0  0  0  0  0
   20.6090  -21.5828  -14.4655 C   0  0  0  0  0  0  0  0  0  0  0  0
   19.7010  -22.2964  -13.4933 C   0  0  0  0  0  0  0  0  0  0  0  0
   18.2427  -22.1446  -13.7389 C   0  0  0  0  0  0  0  0  0  0  0  0
   17.5007  -22.9335  -12.7087 O   0  0  0  0  0  0  0  0  0  0  0  0
   18.1530  -23.5467  -11.8430 C   0  0  0  0  0  0  0  0  0  0  0  0
   20.4624  -20.1147  -14.4490 O   0  0  0  0  0  0  0  0  0  0  0  0
   21.1183  -19.4013  -13.6137 O   0  0  0  0  0  0  0  0  0  0  0  0
   16.1279  -22.9979  -12.6942 N   0  0  0  0  0  0  0  0  0  0  0  0
   19.6212  -19.3623  -15.3176 C   0  0  0  0  0  0  0  0  0  0  0  0
   19.5352  -17.9171  -15.2462 C   0  0  0  0  0  0  0  0  0  0  0  0
   20.2573  -17.2560  -16.3513 O   0  0  0  0  0  0  0  0  0  0  0  0
   20.9681  -17.9865  -17.0894 O   0  0  0  0  0  0  0  0  0  0  0  0
  2  3  2  0
  2  1  1  0
  4  2  1  0
  5  4  1  0
  6  5  1  0
  7  6  1  0
  8 10  1  0
  8  7  1  0
  8  9  1  6
 10 12  1  0
 11 10  2  0
 12 13  1  0
 13 14  1  6
 14 15  1  0
 16 17  2  0
 16 15  1  0
 18 13  1  0
 19 18  2  0
 20 16  1  0
 21 18  1  0
 22 21  1  0
 23 22  1  0
 24 23  2  0
 25 23  1  0
M  END
$$$$
