REG.pdb
     RDKit          3D

 25 24  0  0  1  0  0  0  0  0999 V2000
   25.4405  -20.2143  -11.8062 N   0  0  0  0  0  0  0  0  0  0  0  0
   25.5222  -21.4755  -12.4784 C   0  0  0  0  0  0  0  0  0  0  0  0
   24.7250  -22.4419  -12.1717 N   0  0  0  0  0  0  0  0  0  0  0  0
   26.4789  -21.7066  -13.5014 N   0  0  0  0  0  0  0  0  0  0  0  0
   27.2480  -20.6289  -14.0385 C   0  0  0  0  0  0  0  0  0  0  0  0
   28.1642  -20.9886  -15.1609 C   0  0  0  0  0  0  0  0  0  0  0  0
   27.2831  -21.3020  -16.3764 C   0  0  0  0  0  0  0  0  0  0  0  0
   26.8795  -20.0079  -17.0492 C   0  0  2  0  0  0  0  0  0  0  0  0
   27.2728  -18.8605  -16.2657 N   0  0  0  0  0  0  0  0  0  0  0  0
   25.3893  -20.0254  -17.2413 C   0  0  0  0  0  0  0  0  0  0  0  0
   24.8362  -20.9440  -17.9133 O   0  0  0  0  0  0  0  0  0  0  0  0
   24.8057  -23.3989  -12.5499 N   0  0  0  0  0  0  0  0  0  0  0  0
   24.5548  -19.0359  -16.6917 C   0  0  1  0  0  0  0  0  0  0  0  0
   23.0872  -19.0597  -16.9163 C   0  0  0  0  0  0  0  0  0  0  0  0
   22.4393  -19.4627  -15.6138 C   0  0  0  0  0  0  0  0  0  0  0  0
   22.5334  -20.9043  -15.2629 C   0  0  0  0  0  0  0  0  0  0  0  0
   21.8705  -21.1176  -13.9403 O   0  0  0  0  0  0  0  0  0  0  0  0
   21.3111  -20.1502  -13.3905 C   0  0  0  0  0  0  0  0  0  0  0  0
   22.6998  -17.7146  -17.3827 O   0  0  0  0  0  0  0  0  0  0  0  0
   23.2944  -16.6722  -16.9390 O   0  0  0  0  0  0  0  0  0  0  0  0
   21.8635  -22.3450  -13.3218 N   0  0  0  0  0  0  0  0  0  0  0  0
   21.6762  -17.4366  -18.3330 C   0  0  0  0  0  0  0  0  0  0  0  0
   21.3159  -16.0825  -18.7040 C   0  0  0  0  0  0  0  0  0  0  0  0
   20.2817  -15.5133  -17.8173 O   0  0  0  0  0  0  0  0  0  0  0  0
   19.9052  -16.2216  -16.8477 O   0  0  0  0  0  0  0  0  0  0  0  0
  2  3  2  0
  2  1  1  0
  4  2  1  0
  5  4  1  0
  6  5  1  0
  7  6  1  0
  8 10  1  0
  8  7  1  0
  8  9  1  1
 10 12  1  0
 11 10  2  0
 12 13  1  0
 13 14  1  6
 14 15  1  0
 16 17  2  0
 16 15  1  0
 18 13  1  0
 19 18  2  0
 20 16  1  0
 21 18  1  0
 22 21  1  0
 23 22  1  0
 24 23  2  0
 25 23  1  0
M  END
$$$$
