REG.pdb
     RDKit          3D

 25 24  0  0  1  0  0  0  0  0999 V2000
   11.9243  -15.9062    4.7943 N   0  0  0  0  0  0  0  0  0  0  0  0
   11.6611  -16.7469    3.6660 C   0  0  0  0  0  0  0  0  0  0  0  0
   10.6209  -17.5089    3.6366 N   0  0  0  0  0  0  0  0  0  0  0  0
   12.5314  -16.7721    2.5448 N   0  0  0  0  0  0  0  0  0  0  0  0
   13.9338  -16.9872    2.7140 C   0  0  0  0  0  0  0  0  0  0  0  0
   14.6687  -15.9057    3.4343 C   0  0  0  0  0  0  0  0  0  0  0  0
   16.1554  -16.2814    3.4113 C   0  0  0  0  0  0  0  0  0  0  0  0
   16.9279  -15.3217    4.2902 C   0  0  2  0  0  0  0  0  0  0  0  0
   17.3711  -14.1655    3.5473 N   0  0  0  0  0  0  0  0  0  0  0  0
   18.1050  -16.0579    4.8651 C   0  0  0  0  0  0  0  0  0  0  0  0
   19.2288  -16.0315    4.2840 O   0  0  0  0  0  0  0  0  0  0  0  0
   10.4174  -18.1788    2.8782 N   0  0  0  0  0  0  0  0  0  0  0  0
   18.0118  -16.7989    6.0567 C   0  0  2  0  0  0  0  0  0  0  0  0
   19.2052  -17.4587    6.6441 C   0  0  0  0  0  0  0  0  0  0  0  0
   19.1397  -17.2586    8.1389 C   0  0  0  0  0  0  0  0  0  0  0  0
   19.3499  -15.8662    8.6154 C   0  0  0  0  0  0  0  0  0  0  0  0
   19.2223  -15.8471   10.1045 O   0  0  0  0  0  0  0  0  0  0  0  0
   18.4717  -16.6780   10.6496 C   0  0  0  0  0  0  0  0  0  0  0  0
   19.1632  -18.8745    6.2307 O   0  0  0  0  0  0  0  0  0  0  0  0
   18.0466  -19.4572    6.0057 O   0  0  0  0  0  0  0  0  0  0  0  0
   19.9075  -14.9424   10.8798 N   0  0  0  0  0  0  0  0  0  0  0  0
   20.3007  -19.7100    6.0409 C   0  0  0  0  0  0  0  0  0  0  0  0
   20.1857  -21.0686    5.5487 C   0  0  0  0  0  0  0  0  0  0  0  0
   19.5825  -21.9774    6.5436 O   0  0  0  0  0  0  0  0  0  0  0  0
   19.1951  -21.4660    7.6261 O   0  0  0  0  0  0  0  0  0  0  0  0
  2  3  2  0
  2  1  1  0
  4  2  1  0
  5  4  1  0
  6  5  1  0
  7  6  1  0
  8 10  1  0
  8  7  1  0
  8  9  1  6
 10 12  1  0
 11 10  2  0
 12 13  1  0
 13 14  1  6
 14 15  1  0
 16 17  2  0
 16 15  1  0
 18 13  1  0
 19 18  2  0
 20 16  1  0
 21 18  1  0
 22 21  1  0
 23 22  1  0
 24 23  2  0
 25 23  1  0
M  END
$$$$
