REG.pdb
     RDKit          3D

 25 24  0  0  1  0  0  0  0  0999 V2000
   13.7436   -3.8360   -6.3103 N   0  0  0  0  0  0  0  0  0  0  0  0
   12.8176   -4.9037   -6.5373 C   0  0  0  0  0  0  0  0  0  0  0  0
   11.5463   -4.7098   -6.4377 N   0  0  0  0  0  0  0  0  0  0  0  0
   13.2630   -6.2078   -6.8783 N   0  0  0  0  0  0  0  0  0  0  0  0
   14.3229   -6.3946   -7.8180 C   0  0  0  0  0  0  0  0  0  0  0  0
   14.7530   -7.8083   -8.0306 C   0  0  0  0  0  0  0  0  0  0  0  0
   15.8349   -7.7894   -9.1173 C   0  0  0  0  0  0  0  0  0  0  0  0
   15.3020   -8.4577  -10.3662 C   0  0  2  0  0  0  0  0  0  0  0  0
   14.7239   -9.7472  -10.0692 N   0  0  0  0  0  0  0  0  0  0  0  0
   16.4374   -8.6041  -11.3394 C   0  0  0  0  0  0  0  0  0  0  0  0
   17.1531   -9.6477  -11.3435 O   0  0  0  0  0  0  0  0  0  0  0  0
   10.8369   -5.4445   -6.5870 N   0  0  0  0  0  0  0  0  0  0  0  0
   16.7514   -7.6025  -12.2752 C   0  0  2  0  0  0  0  0  0  0  0  0
   17.8091   -7.8120  -13.2961 C   0  0  0  0  0  0  0  0  0  0  0  0
   17.1306   -7.8574  -14.6439 C   0  0  0  0  0  0  0  0  0  0  0  0
   16.1756   -8.9779  -14.8503 C   0  0  0  0  0  0  0  0  0  0  0  0
   16.9532  -10.2179  -15.1534 O   0  0  0  0  0  0  0  0  0  0  0  0
   18.1743  -10.1167  -15.3762 C   0  0  0  0  0  0  0  0  0  0  0  0
   18.7735   -6.7046  -13.1523 O   0  0  0  0  0  0  0  0  0  0  0  0
   18.4071   -5.5764  -12.6729 O   0  0  0  0  0  0  0  0  0  0  0  0
   16.3581  -11.4562  -15.1920 N   0  0  0  0  0  0  0  0  0  0  0  0
   20.1512   -6.7623  -13.5082 C   0  0  0  0  0  0  0  0  0  0  0  0
   21.0366   -5.6256  -13.3495 C   0  0  0  0  0  0  0  0  0  0  0  0
   22.4082   -5.9126  -13.8143 O   0  0  0  0  0  0  0  0  0  0  0  0
   22.7076   -7.1199  -14.0052 O   0  0  0  0  0  0  0  0  0  0  0  0
  2  3  2  0
  2  1  1  0
  4  2  1  0
  5  4  1  0
  6  5  1  0
  7  6  1  0
  8 10  1  0
  8  7  1  0
  8  9  1  1
 10 12  1  0
 11 10  2  0
 12 13  1  0
 13 14  1  1
 14 15  1  0
 16 17  2  0
 16 15  1  0
 18 13  1  0
 19 18  2  0
 20 16  1  0
 21 18  1  0
 22 21  1  0
 23 22  1  0
 24 23  2  0
 25 23  1  0
M  END
$$$$
