REG.pdb
     RDKit          3D

 25 24  0  0  1  0  0  0  0  0999 V2000
   30.8932  -21.6299   -7.9756 N   0  0  0  0  0  0  0  0  0  0  0  0
   31.3930  -22.1672   -9.2046 C   0  0  0  0  0  0  0  0  0  0  0  0
   32.1461  -23.2143   -9.2115 N   0  0  0  0  0  0  0  0  0  0  0  0
   31.0795  -21.5696  -10.4535 N   0  0  0  0  0  0  0  0  0  0  0  0
   29.7794  -21.0300  -10.6986 C   0  0  0  0  0  0  0  0  0  0  0  0
   28.6769  -22.0307  -10.8070 C   0  0  0  0  0  0  0  0  0  0  0  0
   27.3973  -21.2541  -11.1407 C   0  0  0  0  0  0  0  0  0  0  0  0
   27.2504  -21.1532  -12.6435 C   0  0  2  0  0  0  0  0  0  0  0  0
   28.3977  -20.5145  -13.2444 N   0  0  0  0  0  0  0  0  0  0  0  0
   26.0011  -20.3728  -12.9401 C   0  0  0  0  0  0  0  0  0  0  0  0
   25.9893  -19.1114  -12.8399 O   0  0  0  0  0  0  0  0  0  0  0  0
   32.5548  -23.6257  -10.0654 N   0  0  0  0  0  0  0  0  0  0  0  0
   24.8063  -21.0000  -13.3360 C   0  0  1  0  0  0  0  0  0  0  0  0
   23.5909  -20.2060  -13.6480 C   0  0  0  0  0  0  0  0  0  0  0  0
   23.2513  -20.4544  -15.0977 C   0  0  0  0  0  0  0  0  0  0  0  0
   21.9967  -19.8235  -15.5858 C   0  0  0  0  0  0  0  0  0  0  0  0
   21.8079  -20.1867  -17.0233 O   0  0  0  0  0  0  0  0  0  0  0  0
   20.8297  -20.8906  -17.3373 C   0  0  0  0  0  0  0  0  0  0  0  0
   22.5394  -20.6387  -12.7077 O   0  0  0  0  0  0  0  0  0  0  0  0
   22.4455  -21.8635  -12.3500 O   0  0  0  0  0  0  0  0  0  0  0  0
   22.6805  -19.7662  -17.9985 N   0  0  0  0  0  0  0  0  0  0  0  0
   21.5619  -19.7871  -12.1183 C   0  0  0  0  0  0  0  0  0  0  0  0
   20.4939  -20.3014  -11.2841 C   0  0  0  0  0  0  0  0  0  0  0  0
   19.2692  -20.5929  -12.0554 O   0  0  0  0  0  0  0  0  0  0  0  0
   19.3252  -20.4315  -13.3021 O   0  0  0  0  0  0  0  0  0  0  0  0
  2  3  2  0
  2  1  1  0
  4  2  1  0
  5  4  1  0
  6  5  1  0
  7  6  1  0
  8 10  1  0
  8  7  1  0
  8  9  1  1
 10 12  1  0
 11 10  2  0
 12 13  1  0
 13 14  1  6
 14 15  1  0
 16 17  2  0
 16 15  1  0
 18 13  1  0
 19 18  2  0
 20 16  1  0
 21 18  1  0
 22 21  1  0
 23 22  1  0
 24 23  2  0
 25 23  1  0
M  END
$$$$
