NNI.pdb
     RDKit          3D

 25 24  0  0  1  0  0  0  0  0999 V2000
   16.3950  -14.6724  -13.8363 N   0  0  0  0  0  0  0  0  0  0  0  0
   16.5515  -14.3840  -15.2116 C   0  0  0  0  0  0  0  0  0  0  0  0
   15.9927  -15.1113  -16.0566 O   0  0  0  0  0  0  0  0  0  0  0  0
   17.3616  -13.2422  -15.6507 C   0  0  0  0  0  0  0  0  0  0  0  0
   16.5148  -12.3670  -16.5678 C   0  0  2  0  0  0  0  0  0  0  0  0
   16.3219  -13.0659  -17.8131 N   0  0  0  0  0  0  0  0  0  0  0  0
   17.1901  -11.0772  -16.7205 C   0  0  0  0  0  0  0  0  0  0  0  0
   18.1503  -10.9547  -17.5235 O   0  0  0  0  0  0  0  0  0  0  0  0
   18.3804   -5.8646  -16.2327 N   0  0  0  0  0  0  0  0  0  0  0  0
   17.0890   -6.1995  -15.8116 C   0  0  0  0  0  0  0  0  0  0  0  0
   16.3051   -5.2513  -15.5192 O   0  0  0  0  0  0  0  0  0  0  0  0
   16.5394   -7.5641  -15.6715 C   0  0  0  0  0  0  0  0  0  0  0  0
   17.4838   -8.6431  -16.1381 C   0  0  2  0  0  0  0  0  0  0  0  0
   16.8142   -9.9168  -15.9919 N   0  0  0  0  0  0  0  0  0  0  0  0
   18.6662   -8.6406  -15.2253 C   0  0  0  0  0  0  0  0  0  0  0  0
   18.5219   -8.9598  -14.0324 O   0  0  0  0  0  0  0  0  0  0  0  0
   23.9948  -10.7533  -14.5497 C   0  0  0  0  0  0  0  0  0  0  0  0
   23.1665   -9.5518  -14.1940 C   0  0  0  0  0  0  0  0  0  0  0  0
   21.9671   -9.4515  -15.0961 C   0  0  2  0  0  0  0  0  0  0  0  0
   22.4053   -9.4011  -16.5295 C   0  0  0  0  0  0  0  0  0  0  0  0
   21.0610   -8.2945  -14.7329 C   0  0  2  0  0  0  0  0  0  0  0  0
   19.9643   -8.2843  -15.6701 N   0  0  0  0  0  0  0  0  0  0  0  0
   21.7540   -6.9986  -14.7698 C   0  0  0  0  0  0  0  0  0  0  0  0
   21.6401   -6.2765  -15.7909 O   0  0  0  0  0  0  0  0  0  0  0  0
   22.5418   -6.4985  -13.7431 O   0  0  0  0  0  0  0  0  0  0  0  0
  2  3  2  0
  2  1  1  0
  4  2  1  0
  5  4  1  0
  5  6  1  6
  7  5  1  0
  8  7  2  0
  9 10  1  0
 10 12  1  0
 11 10  2  0
 13 12  1  1
 13 14  1  0
 14  7  1  0
 15 22  1  0
 15 13  1  0
 16 15  2  0
 18 17  1  0
 19 21  1  0
 19 18  1  0
 19 20  1  6
 21 23  1  0
 21 22  1  6
 23 25  1  0
 24 23  2  0
M  END
$$$$
