NNI.pdb
     RDKit          3D

 25 24  0  0  1  0  0  0  0  0999 V2000
   24.9766  -21.5894   -9.5888 N   0  0  0  0  0  0  0  0  0  0  0  0
   25.7834  -20.4336   -9.4774 C   0  0  0  0  0  0  0  0  0  0  0  0
   26.1133  -20.0247   -8.3464 O   0  0  0  0  0  0  0  0  0  0  0  0
   26.2332  -19.7151  -10.6749 C   0  0  0  0  0  0  0  0  0  0  0  0
   25.6035  -20.3672  -11.9006 C   0  0  2  0  0  0  0  0  0  0  0  0
   26.1483  -21.6940  -12.0405 N   0  0  0  0  0  0  0  0  0  0  0  0
   25.8574  -19.5069  -13.0575 C   0  0  0  0  0  0  0  0  0  0  0  0
   25.5366  -18.2912  -13.0269 O   0  0  0  0  0  0  0  0  0  0  0  0
   28.6649  -19.4521  -18.5708 N   0  0  0  0  0  0  0  0  0  0  0  0
   28.2684  -18.9146  -17.3416 C   0  0  0  0  0  0  0  0  0  0  0  0
   28.1960  -17.6555  -17.2502 O   0  0  0  0  0  0  0  0  0  0  0  0
   27.9208  -19.6759  -16.1236 C   0  0  0  0  0  0  0  0  0  0  0  0
   26.7199  -19.1278  -15.3947 C   0  0  2  0  0  0  0  0  0  0  0  0
   26.4640  -19.9779  -14.2529 N   0  0  0  0  0  0  0  0  0  0  0  0
   25.5449  -19.2275  -16.3116 C   0  0  0  0  0  0  0  0  0  0  0  0
   25.1693  -20.3440  -16.7094 O   0  0  0  0  0  0  0  0  0  0  0  0
   20.5345  -18.6751  -15.7376 C   0  0  0  0  0  0  0  0  0  0  0  0
   21.3457  -18.7421  -17.0000 C   0  0  0  0  0  0  0  0  0  0  0  0
   22.4750  -17.7495  -16.9553 C   0  0  2  0  0  0  0  0  0  0  0  0
   22.0164  -16.4256  -17.4904 C   0  0  0  0  0  0  0  0  0  0  0  0
   23.7189  -18.2513  -17.6569 C   0  0  2  0  0  0  0  0  0  0  0  0
   24.8306  -18.0851  -16.7527 N   0  0  0  0  0  0  0  0  0  0  0  0
   23.9909  -17.5337  -18.9108 C   0  0  0  0  0  0  0  0  0  0  0  0
   23.4193  -17.9104  -19.9637 O   0  0  0  0  0  0  0  0  0  0  0  0
   24.8481  -16.4489  -19.0262 O   0  0  0  0  0  0  0  0  0  0  0  0
  2  3  2  0
  2  1  1  0
  4  2  1  0
  5  4  1  0
  5  6  1  6
  7  5  1  0
  8  7  2  0
  9 10  1  0
 10 12  1  0
 11 10  2  0
 13 12  1  6
 13 14  1  0
 14  7  1  0
 15 22  1  0
 15 13  1  0
 16 15  2  0
 18 17  1  0
 19 21  1  0
 19 18  1  0
 19 20  1  6
 21 23  1  0
 21 22  1  1
 23 25  1  0
 24 23  2  0
M  END
$$$$
