NNI.pdb
     RDKit          3D

 25 24  0  0  1  0  0  0  0  0999 V2000
   19.3652  -17.4488  -16.6936 N   0  0  0  0  0  0  0  0  0  0  0  0
   19.8083  -17.0291  -17.9689 C   0  0  0  0  0  0  0  0  0  0  0  0
   19.8849  -17.8615  -18.8944 O   0  0  0  0  0  0  0  0  0  0  0  0
   20.1771  -15.6299  -18.2114 C   0  0  0  0  0  0  0  0  0  0  0  0
   19.4856  -14.7557  -17.1713 C   0  0  2  0  0  0  0  0  0  0  0  0
   18.0624  -14.9484  -17.2886 N   0  0  0  0  0  0  0  0  0  0  0  0
   19.9069  -13.3702  -17.3854 C   0  0  0  0  0  0  0  0  0  0  0  0
   21.0438  -13.1188  -17.8608 O   0  0  0  0  0  0  0  0  0  0  0  0
   15.9669  -10.2184  -18.2620 N   0  0  0  0  0  0  0  0  0  0  0  0
   17.3597  -10.0986  -18.3176 C   0  0  0  0  0  0  0  0  0  0  0  0
   17.8984  -10.0652  -19.4612 O   0  0  0  0  0  0  0  0  0  0  0  0
   18.2778  -10.0057  -17.1635 C   0  0  0  0  0  0  0  0  0  0  0  0
   19.4956  -10.8858  -17.2921 C   0  0  2  0  0  0  0  0  0  0  0  0
   19.0818  -12.2551  -17.0779 N   0  0  0  0  0  0  0  0  0  0  0  0
   20.4423  -10.5176  -16.1970 C   0  0  0  0  0  0  0  0  0  0  0  0
   20.1272  -10.7340  -15.0139 O   0  0  0  0  0  0  0  0  0  0  0  0
   26.1806  -10.7578  -14.7673 C   0  0  0  0  0  0  0  0  0  0  0  0
   24.8820  -10.0608  -14.4773 C   0  0  0  0  0  0  0  0  0  0  0  0
   23.9057  -10.2741  -15.6015 C   0  0  2  0  0  0  0  0  0  0  0  0
   24.5198   -9.8503  -16.9024 C   0  0  0  0  0  0  0  0  0  0  0  0
   22.5732   -9.6010  -15.3506 C   0  0  2  0  0  0  0  0  0  0  0  0
   21.7033   -9.9232  -16.4554 N   0  0  0  0  0  0  0  0  0  0  0  0
   22.6907   -8.1411  -15.2243 C   0  0  0  0  0  0  0  0  0  0  0  0
   23.1156   -7.6558  -14.1467 O   0  0  0  0  0  0  0  0  0  0  0  0
   22.3622   -7.2362  -16.2233 O   0  0  0  0  0  0  0  0  0  0  0  0
  2  3  2  0
  2  1  1  0
  4  2  1  0
  5  4  1  0
  5  6  1  6
  7  5  1  0
  8  7  2  0
  9 10  1  0
 10 12  1  0
 11 10  2  0
 13 12  1  1
 13 14  1  0
 14  7  1  0
 15 22  1  0
 15 13  1  0
 16 15  2  0
 18 17  1  0
 19 21  1  0
 19 18  1  0
 19 20  1  6
 21 23  1  0
 21 22  1  6
 23 25  1  0
 24 23  2  0
M  END
$$$$
