NNI.pdb
     RDKit          3D

 25 24  0  0  1  0  0  0  0  0999 V2000
   25.8319  -15.9886  -18.4888 N   0  0  0  0  0  0  0  0  0  0  0  0
   25.9302  -15.8793  -17.0826 C   0  0  0  0  0  0  0  0  0  0  0  0
   26.5521  -14.9194  -16.5857 O   0  0  0  0  0  0  0  0  0  0  0  0
   25.3100  -16.8806  -16.2077 C   0  0  0  0  0  0  0  0  0  0  0  0
   26.3897  -17.4881  -15.3193 C   0  0  2  0  0  0  0  0  0  0  0  0
   27.4115  -18.0511  -16.1652 N   0  0  0  0  0  0  0  0  0  0  0  0
   25.7568  -18.4692  -14.4363 C   0  0  0  0  0  0  0  0  0  0  0  0
   24.8097  -18.1271  -13.6828 O   0  0  0  0  0  0  0  0  0  0  0  0
   24.5314  -23.1206  -12.0457 N   0  0  0  0  0  0  0  0  0  0  0  0
   25.1381  -23.2533  -13.2992 C   0  0  0  0  0  0  0  0  0  0  0  0
   25.2059  -24.4143  -13.7958 O   0  0  0  0  0  0  0  0  0  0  0  0
   25.7149  -22.1633  -14.1133 C   0  0  0  0  0  0  0  0  0  0  0  0
   25.5441  -20.7978  -13.4967 C   0  0  2  0  0  0  0  0  0  0  0  0
   26.1614  -19.8299  -14.3765 N   0  0  0  0  0  0  0  0  0  0  0  0
   26.2927  -20.7839  -12.2042 C   0  0  0  0  0  0  0  0  0  0  0  0
   27.4685  -21.1868  -12.1711 O   0  0  0  0  0  0  0  0  0  0  0  0
   28.3102  -19.4488   -6.9892 C   0  0  0  0  0  0  0  0  0  0  0  0
   27.4504  -20.4668   -7.6826 C   0  0  0  0  0  0  0  0  0  0  0  0
   26.9470  -19.9278   -8.9935 C   0  0  2  0  0  0  0  0  0  0  0  0
   26.2311  -18.6285   -8.7736 C   0  0  0  0  0  0  0  0  0  0  0  0
   26.0981  -20.9294   -9.7470 C   0  0  2  0  0  0  0  0  0  0  0  0
   25.7092  -20.3234  -10.9970 N   0  0  0  0  0  0  0  0  0  0  0  0
   24.8983  -21.3317   -8.9989 C   0  0  0  0  0  0  0  0  0  0  0  0
   25.0344  -21.9986   -7.9435 O   0  0  0  0  0  0  0  0  0  0  0  0
   23.5981  -21.0265   -9.3746 O   0  0  0  0  0  0  0  0  0  0  0  0
  2  3  2  0
  2  1  1  0
  4  2  1  0
  5  4  1  0
  5  6  1  6
  7  5  1  0
  8  7  2  0
  9 10  1  0
 10 12  1  0
 11 10  2  0
 13 12  1  6
 13 14  1  0
 14  7  1  0
 15 22  1  0
 15 13  1  0
 16 15  2  0
 18 17  1  0
 19 21  1  0
 19 18  1  0
 19 20  1  1
 21 23  1  0
 21 22  1  6
 23 25  1  0
 24 23  2  0
M  END
$$$$
