NNI.pdb
     RDKit          3D

 25 24  0  0  1  0  0  0  0  0999 V2000
   28.2121  -21.9897  -15.8880 N   0  0  0  0  0  0  0  0  0  0  0  0
   27.4683  -20.7946  -15.7561 C   0  0  0  0  0  0  0  0  0  0  0  0
   26.6820  -20.4599  -16.6643 O   0  0  0  0  0  0  0  0  0  0  0  0
   27.6131  -19.9490  -14.5657 C   0  0  0  0  0  0  0  0  0  0  0  0
   27.5913  -20.8399  -13.3288 C   0  0  2  0  0  0  0  0  0  0  0  0
   26.9264  -22.0726  -13.6675 N   0  0  0  0  0  0  0  0  0  0  0  0
   26.9382  -20.1026  -12.2458 C   0  0  0  0  0  0  0  0  0  0  0  0
   27.1384  -18.8688  -12.1070 O   0  0  0  0  0  0  0  0  0  0  0  0
   24.1342  -19.9689  -12.6814 N   0  0  0  0  0  0  0  0  0  0  0  0
   23.4514  -20.0987  -11.4673 C   0  0  0  0  0  0  0  0  0  0  0  0
   22.1889  -20.1583  -11.5101 O   0  0  0  0  0  0  0  0  0  0  0  0
   24.0606  -20.1744  -10.1232 C   0  0  0  0  0  0  0  0  0  0  0  0
   25.5624  -20.0382  -10.1355 C   0  0  2  0  0  0  0  0  0  0  0  0
   26.0629  -20.7173  -11.3104 N   0  0  0  0  0  0  0  0  0  0  0  0
   26.0949  -20.7492   -8.9347 C   0  0  0  0  0  0  0  0  0  0  0  0
   26.3299  -21.9685   -8.9968 O   0  0  0  0  0  0  0  0  0  0  0  0
   29.1810  -18.0523   -5.5480 C   0  0  0  0  0  0  0  0  0  0  0  0
   28.6917  -19.2208   -6.3552 C   0  0  0  0  0  0  0  0  0  0  0  0
   27.5502  -19.9055   -5.6547 C   0  0  2  0  0  0  0  0  0  0  0  0
   28.0458  -20.5950   -4.4185 C   0  0  0  0  0  0  0  0  0  0  0  0
   26.7861  -20.8421   -6.5659 C   0  0  2  0  0  0  0  0  0  0  0  0
   26.3470  -20.0809   -7.7100 N   0  0  0  0  0  0  0  0  0  0  0  0
   25.6245  -21.4538   -5.9045 C   0  0  0  0  0  0  0  0  0  0  0  0
   24.4877  -20.9507   -6.0833 O   0  0  0  0  0  0  0  0  0  0  0  0
   25.6853  -22.5679   -5.0799 O   0  0  0  0  0  0  0  0  0  0  0  0
  2  3  2  0
  2  1  1  0
  4  2  1  0
  5  4  1  0
  5  6  1  6
  7  5  1  0
  8  7  2  0
  9 10  1  0
 10 12  1  0
 11 10  2  0
 13 12  1  1
 13 14  1  0
 14  7  1  0
 15 22  1  0
 15 13  1  0
 16 15  2  0
 18 17  1  0
 19 21  1  0
 19 18  1  0
 19 20  1  1
 21 23  1  0
 21 22  1  6
 23 25  1  0
 24 23  2  0
M  END
$$$$
