NNI.pdb
     RDKit          3D

 25 24  0  0  1  0  0  0  0  0999 V2000
   17.7685  -14.3262  -19.9323 N   0  0  0  0  0  0  0  0  0  0  0  0
   16.6916  -14.1053  -19.0432 C   0  0  0  0  0  0  0  0  0  0  0  0
   15.5979  -14.6655  -19.2559 O   0  0  0  0  0  0  0  0  0  0  0  0
   16.8491  -13.2271  -17.8784 C   0  0  0  0  0  0  0  0  0  0  0  0
   18.2857  -12.7181  -17.8418 C   0  0  2  0  0  0  0  0  0  0  0  0
   19.1288  -13.7711  -17.3350 N   0  0  0  0  0  0  0  0  0  0  0  0
   18.3190  -11.5011  -17.0289 C   0  0  0  0  0  0  0  0  0  0  0  0
   17.4349  -11.2949  -16.1584 O   0  0  0  0  0  0  0  0  0  0  0  0
   22.0865   -7.5447  -14.7168 N   0  0  0  0  0  0  0  0  0  0  0  0
   21.0413   -8.4618  -14.5635 C   0  0  0  0  0  0  0  0  0  0  0  0
   20.2841   -8.3229  -13.5602 O   0  0  0  0  0  0  0  0  0  0  0  0
   20.7265   -9.5901  -15.4643 C   0  0  0  0  0  0  0  0  0  0  0  0
   19.4595   -9.3906  -16.2573 C   0  0  2  0  0  0  0  0  0  0  0  0
   19.3228  -10.5053  -17.1688 N   0  0  0  0  0  0  0  0  0  0  0  0
   19.6224   -8.1500  -17.0731 C   0  0  0  0  0  0  0  0  0  0  0  0
   20.3523   -8.1681  -18.0794 O   0  0  0  0  0  0  0  0  0  0  0  0
   16.5291   -3.9021  -19.6464 C   0  0  0  0  0  0  0  0  0  0  0  0
   17.8743   -4.1904  -19.0433 C   0  0  0  0  0  0  0  0  0  0  0  0
   17.8203   -5.4370  -18.2033 C   0  0  2  0  0  0  0  0  0  0  0  0
   16.7325   -5.3183  -17.1777 C   0  0  0  0  0  0  0  0  0  0  0  0
   19.1580   -5.7790  -17.5829 C   0  0  2  0  0  0  0  0  0  0  0  0
   18.9694   -6.9359  -16.7420 N   0  0  0  0  0  0  0  0  0  0  0  0
   19.7122   -4.6748  -16.7863 C   0  0  0  0  0  0  0  0  0  0  0  0
   19.4423   -4.6130  -15.5613 O   0  0  0  0  0  0  0  0  0  0  0  0
   20.5281   -3.6728  -17.2914 O   0  0  0  0  0  0  0  0  0  0  0  0
  2  3  2  0
  2  1  1  0
  4  2  1  0
  5  4  1  0
  5  6  1  1
  7  5  1  0
  8  7  2  0
  9 10  1  0
 10 12  1  0
 11 10  2  0
 13 12  1  1
 13 14  1  0
 14  7  1  0
 15 22  1  0
 15 13  1  0
 16 15  2  0
 18 17  1  0
 19 21  1  0
 19 18  1  0
 19 20  1  1
 21 23  1  0
 21 22  1  1
 23 25  1  0
 24 23  2  0
M  END
$$$$
