NNI.pdb
     RDKit          3D

 25 24  0  0  1  0  0  0  0  0999 V2000
   28.9081  -21.3325  -16.8190 N   0  0  0  0  0  0  0  0  0  0  0  0
   28.4689  -19.9924  -16.7177 C   0  0  0  0  0  0  0  0  0  0  0  0
   28.7412  -19.1886  -17.6315 O   0  0  0  0  0  0  0  0  0  0  0  0
   27.6997  -19.5417  -15.5524 C   0  0  0  0  0  0  0  0  0  0  0  0
   27.7011  -20.6519  -14.5077 C   0  0  2  0  0  0  0  0  0  0  0  0
   27.0761  -21.8170  -15.0809 N   0  0  0  0  0  0  0  0  0  0  0  0
   27.0215  -20.1541  -13.3105 C   0  0  0  0  0  0  0  0  0  0  0  0
   27.4000  -19.0868  -12.7633 O   0  0  0  0  0  0  0  0  0  0  0  0
   23.4013  -19.1038  -13.5107 N   0  0  0  0  0  0  0  0  0  0  0  0
   22.9770  -20.1290  -12.6585 C   0  0  0  0  0  0  0  0  0  0  0  0
   21.7814  -20.5252  -12.7707 O   0  0  0  0  0  0  0  0  0  0  0  0
   23.7920  -20.8052  -11.6279 C   0  0  0  0  0  0  0  0  0  0  0  0
   25.2131  -20.3052  -11.5620 C   0  0  2  0  0  0  0  0  0  0  0  0
   25.9237  -20.8263  -12.7089 N   0  0  0  0  0  0  0  0  0  0  0  0
   25.8423  -20.8791  -10.3347 C   0  0  0  0  0  0  0  0  0  0  0  0
   26.1115  -22.0921  -10.2924 O   0  0  0  0  0  0  0  0  0  0  0  0
   28.5691  -19.3420   -5.0546 C   0  0  0  0  0  0  0  0  0  0  0  0
   27.7825  -20.3527   -5.8394 C   0  0  0  0  0  0  0  0  0  0  0  0
   27.3164  -19.7630   -7.1423 C   0  0  2  0  0  0  0  0  0  0  0  0
   26.5998  -18.4693   -6.8933 C   0  0  0  0  0  0  0  0  0  0  0  0
   26.4842  -20.7318   -7.9549 C   0  0  2  0  0  0  0  0  0  0  0  0
   26.1492  -20.0858   -9.2005 N   0  0  0  0  0  0  0  0  0  0  0  0
   25.2527  -21.1395   -7.2634 C   0  0  0  0  0  0  0  0  0  0  0  0
   24.1744  -20.5634   -7.5506 O   0  0  0  0  0  0  0  0  0  0  0  0
   25.1854  -22.1326   -6.2969 O   0  0  0  0  0  0  0  0  0  0  0  0
  2  3  2  0
  2  1  1  0
  4  2  1  0
  5  4  1  0
  5  6  1  6
  7  5  1  0
  8  7  2  0
  9 10  1  0
 10 12  1  0
 11 10  2  0
 13 12  1  6
 13 14  1  0
 14  7  1  0
 15 22  1  0
 15 13  1  0
 16 15  2  0
 18 17  1  0
 19 21  1  0
 19 18  1  0
 19 20  1  1
 21 23  1  0
 21 22  1  6
 23 25  1  0
 24 23  2  0
M  END
$$$$
