NNI.pdb
     RDKit          3D

 25 24  0  0  1  0  0  0  0  0999 V2000
   24.0781  -21.9454  -16.3457 N   0  0  0  0  0  0  0  0  0  0  0  0
   25.3089  -21.3727  -15.9506 C   0  0  0  0  0  0  0  0  0  0  0  0
   26.3457  -21.6537  -16.5839 O   0  0  0  0  0  0  0  0  0  0  0  0
   25.3761  -20.4553  -14.8075 C   0  0  0  0  0  0  0  0  0  0  0  0
   26.3630  -21.0156  -13.7895 C   0  0  2  0  0  0  0  0  0  0  0  0
   25.9875  -22.3747  -13.4922 N   0  0  0  0  0  0  0  0  0  0  0  0
   26.3581  -20.1388  -12.6173 C   0  0  0  0  0  0  0  0  0  0  0  0
   26.2130  -18.8970  -12.7542 O   0  0  0  0  0  0  0  0  0  0  0  0
   23.0460  -20.9359   -8.2065 N   0  0  0  0  0  0  0  0  0  0  0  0
   23.2935  -20.3052   -9.4305 C   0  0  0  0  0  0  0  0  0  0  0  0
   22.6155  -19.2734   -9.7041 O   0  0  0  0  0  0  0  0  0  0  0  0
   24.2778  -20.7253  -10.4495 C   0  0  0  0  0  0  0  0  0  0  0  0
   25.6682  -20.2001  -10.1944 C   0  0  2  0  0  0  0  0  0  0  0  0
   26.5130  -20.6217  -11.2900 N   0  0  0  0  0  0  0  0  0  0  0  0
   26.1786  -20.8464   -8.9483 C   0  0  0  0  0  0  0  0  0  0  0  0
   26.1365  -22.0840   -8.8367 O   0  0  0  0  0  0  0  0  0  0  0  0
   29.0061  -17.9197   -4.9326 C   0  0  0  0  0  0  0  0  0  0  0  0
   27.8634  -18.6262   -5.6043 C   0  0  0  0  0  0  0  0  0  0  0  0
   28.2906  -19.9878   -6.0799 C   0  0  2  0  0  0  0  0  0  0  0  0
   29.4495  -19.8619   -7.0234 C   0  0  0  0  0  0  0  0  0  0  0  0
   27.1480  -20.7801   -6.6782 C   0  0  2  0  0  0  0  0  0  0  0  0
   26.7168  -20.0958   -7.8727 N   0  0  0  0  0  0  0  0  0  0  0  0
   26.0133  -20.9239   -5.7547 C   0  0  0  0  0  0  0  0  0  0  0  0
   24.9054  -20.4230   -6.0694 O   0  0  0  0  0  0  0  0  0  0  0  0
   26.0701  -21.5838   -4.5357 O   0  0  0  0  0  0  0  0  0  0  0  0
  2  3  2  0
  2  1  1  0
  4  2  1  0
  5  4  1  0
  5  6  1  1
  7  5  1  0
  8  7  2  0
  9 10  1  0
 10 12  1  0
 11 10  2  0
 13 12  1  6
 13 14  1  0
 14  7  1  0
 15 22  1  0
 15 13  1  0
 16 15  2  0
 18 17  1  0
 19 21  1  0
 19 18  1  0
 19 20  1  6
 21 23  1  0
 21 22  1  6
 23 25  1  0
 24 23  2  0
M  END
$$$$
