NNI.pdb
     RDKit          3D

 25 24  0  0  1  0  0  0  0  0999 V2000
   16.5182  -16.0288  -15.5176 N   0  0  0  0  0  0  0  0  0  0  0  0
   17.7830  -15.6036  -15.0500 C   0  0  0  0  0  0  0  0  0  0  0  0
   18.3772  -16.2831  -14.1896 O   0  0  0  0  0  0  0  0  0  0  0  0
   18.3989  -14.3758  -15.5657 C   0  0  0  0  0  0  0  0  0  0  0  0
   17.3851  -13.6538  -16.4461 C   0  0  2  0  0  0  0  0  0  0  0  0
   17.2096  -14.4156  -17.6567 N   0  0  0  0  0  0  0  0  0  0  0  0
   17.8690  -12.2919  -16.6782 C   0  0  0  0  0  0  0  0  0  0  0  0
   18.5864  -12.0351  -17.6788 O   0  0  0  0  0  0  0  0  0  0  0  0
   18.6385   -7.0012  -16.1195 N   0  0  0  0  0  0  0  0  0  0  0  0
   17.4598   -7.4857  -15.5424 C   0  0  0  0  0  0  0  0  0  0  0  0
   16.6329   -6.6367  -15.1013 O   0  0  0  0  0  0  0  0  0  0  0  0
   17.0764   -8.9050  -15.3932 C   0  0  0  0  0  0  0  0  0  0  0  0
   18.0477   -9.8609  -16.0388 C   0  0  2  0  0  0  0  0  0  0  0  0
   17.5676  -11.2064  -15.8123 N   0  0  0  0  0  0  0  0  0  0  0  0
   19.3599   -9.7198  -15.3393 C   0  0  0  0  0  0  0  0  0  0  0  0
   19.4351   -9.9558  -14.1210 O   0  0  0  0  0  0  0  0  0  0  0  0
   24.5389  -11.1431  -14.5521 C   0  0  0  0  0  0  0  0  0  0  0  0
   24.1597   -9.8436  -15.2032 C   0  0  0  0  0  0  0  0  0  0  0  0
   22.8351   -9.9711  -15.9044 C   0  0  2  0  0  0  0  0  0  0  0  0
   22.9974   -9.6777  -17.3661 C   0  0  0  0  0  0  0  0  0  0  0  0
   21.7550   -9.1237  -15.2663 C   0  0  2  0  0  0  0  0  0  0  0  0
   20.5397   -9.3221  -16.0177 N   0  0  0  0  0  0  0  0  0  0  0  0
   22.0949   -7.6936  -15.2458 C   0  0  0  0  0  0  0  0  0  0  0  0
   21.8192   -6.9883  -16.2476 O   0  0  0  0  0  0  0  0  0  0  0  0
   22.7098   -7.0465  -14.1838 O   0  0  0  0  0  0  0  0  0  0  0  0
  2  3  2  0
  2  1  1  0
  4  2  1  0
  5  4  1  0
  5  6  1  6
  7  5  1  0
  8  7  2  0
  9 10  1  0
 10 12  1  0
 11 10  2  0
 13 12  1  1
 13 14  1  0
 14  7  1  0
 15 22  1  0
 15 13  1  0
 16 15  2  0
 18 17  1  0
 19 21  1  0
 19 18  1  0
 19 20  1  6
 21 23  1  0
 21 22  1  6
 23 25  1  0
 24 23  2  0
M  END
$$$$
