NNI.pdb
     RDKit          3D

 25 24  0  0  1  0  0  0  0  0999 V2000
   15.7807  -23.0322  -14.6899 N   0  0  0  0  0  0  0  0  0  0  0  0
   16.6423  -22.5460  -13.6798 C   0  0  0  0  0  0  0  0  0  0  0  0
   16.2447  -21.6401  -12.9205 O   0  0  0  0  0  0  0  0  0  0  0  0
   17.9932  -23.0954  -13.5182 C   0  0  0  0  0  0  0  0  0  0  0  0
   19.0018  -21.9620  -13.6670 C   0  0  2  0  0  0  0  0  0  0  0  0
   18.8153  -21.3536  -14.9600 N   0  0  0  0  0  0  0  0  0  0  0  0
   20.3430  -22.5146  -13.4698 C   0  0  0  0  0  0  0  0  0  0  0  0
   20.6627  -23.0260  -12.3661 O   0  0  0  0  0  0  0  0  0  0  0  0
   25.2799  -24.9025  -15.2160 N   0  0  0  0  0  0  0  0  0  0  0  0
   24.7242  -23.6594  -15.5368 C   0  0  0  0  0  0  0  0  0  0  0  0
   25.5209  -22.7135  -15.8010 O   0  0  0  0  0  0  0  0  0  0  0  0
   23.2843  -23.3333  -15.5997 C   0  0  0  0  0  0  0  0  0  0  0  0
   22.6918  -22.9680  -14.2620 C   0  0  2  0  0  0  0  0  0  0  0  0
   21.3387  -22.5075  -14.4834 N   0  0  0  0  0  0  0  0  0  0  0  0
   23.4796  -21.8248  -13.7109 C   0  0  0  0  0  0  0  0  0  0  0  0
   23.2182  -20.6657  -14.0770 O   0  0  0  0  0  0  0  0  0  0  0  0
   26.0160  -20.0051   -8.6122 C   0  0  0  0  0  0  0  0  0  0  0  0
   25.9868  -19.8275  -10.1035 C   0  0  0  0  0  0  0  0  0  0  0  0
   25.3649  -21.0263  -10.7659 C   0  0  2  0  0  0  0  0  0  0  0  0
   26.1221  -22.2672  -10.3972 C   0  0  0  0  0  0  0  0  0  0  0  0
   25.2329  -20.8596  -12.2647 C   0  0  2  0  0  0  0  0  0  0  0  0
   24.5276  -22.0103  -12.7742 N   0  0  0  0  0  0  0  0  0  0  0  0
   26.5340  -20.7398  -12.9384 C   0  0  0  0  0  0  0  0  0  0  0  0
   27.2014  -19.6865  -12.7898 O   0  0  0  0  0  0  0  0  0  0  0  0
   27.0959  -21.7200  -13.7436 O   0  0  0  0  0  0  0  0  0  0  0  0
  2  3  2  0
  2  1  1  0
  4  2  1  0
  5  4  1  0
  5  6  1  6
  7  5  1  0
  8  7  2  0
  9 10  1  0
 10 12  1  0
 11 10  2  0
 13 12  1  6
 13 14  1  0
 14  7  1  0
 15 22  1  0
 15 13  1  0
 16 15  2  0
 18 17  1  0
 19 21  1  0
 19 18  1  0
 19 20  1  6
 21 23  1  0
 21 22  1  6
 23 25  1  0
 24 23  2  0
M  END
$$$$
