YLE.pdb
     RDKit          3D

 30 30  0  0  1  0  0  0  0  0999 V2000
    7.4482  -13.9539   15.6736 O   0  0  0  0  0  0  0  0  0  0  0  0
    7.8256  -13.9670   17.0226 C   0  0  0  0  0  0  0  0  0  0  0  0
    8.5063  -15.0389   17.5462 C   0  0  0  0  0  0  0  0  0  0  0  0
    8.8902  -15.0594   18.9005 C   0  0  0  0  0  0  0  0  0  0  0  0
    8.6002  -14.0123   19.7437 C   0  0  0  0  0  0  0  0  0  0  0  0
    8.9925  -13.9824   21.1784 C   0  0  0  0  0  0  0  0  0  0  0  0
    8.9297  -15.3370   21.8397 C   0  0  2  0  0  0  0  0  0  0  0  0
    7.6925  -16.0187   21.5916 N   0  0  0  0  0  0  0  0  0  0  0  0
    9.1824  -15.1369   23.3300 C   0  0  0  0  0  0  0  0  0  0  0  0
   10.3330  -14.8222   23.6853 O   0  0  0  0  0  0  0  0  0  0  0  0
    7.9045  -12.9331   19.1795 C   0  0  0  0  0  0  0  0  0  0  0  0
    7.5264  -12.9111   17.8540 C   0  0  0  0  0  0  0  0  0  0  0  0
    8.1383  -12.3123   26.5958 C   0  0  0  0  0  0  0  0  0  0  0  0
    6.9227  -13.0564   26.1751 C   0  0  2  0  0  0  0  0  0  0  0  0
    5.6648  -12.4461   26.7729 C   0  0  0  0  0  0  0  0  0  0  0  0
    6.9626  -14.5368   26.2973 C   0  0  0  0  0  0  0  0  0  0  0  0
    8.0296  -15.2943   25.6246 C   0  0  2  0  0  0  0  0  0  0  0  0
    8.1194  -15.3116   24.2327 N   0  0  0  0  0  0  0  0  0  0  0  0
    8.3699  -16.5190   26.3963 C   0  0  0  0  0  0  0  0  0  0  0  0
    7.5385  -17.1689   27.0562 O   0  0  0  0  0  0  0  0  0  0  0  0
    9.7121  -17.0231   26.4151 N   0  0  0  0  0  0  0  0  0  0  0  0
   10.0652  -18.2676   27.0702 C   0  0  1  0  0  0  0  0  0  0  0  0
   11.1403  -19.0434   26.4130 C   0  0  0  0  0  0  0  0  0  0  0  0
   11.2559  -18.9391   24.9254 C   0  0  0  0  0  0  0  0  0  0  0  0
   12.4265  -19.6559   24.3954 C   0  0  0  0  0  0  0  0  0  0  0  0
   12.7753  -19.6523   23.1910 O   0  0  0  0  0  0  0  0  0  0  0  0
   10.3701  -18.0154   28.4874 C   0  0  0  0  0  0  0  0  0  0  0  0
   10.5739  -19.0981   29.3606 O   0  0  0  0  0  0  0  0  0  0  0  0
   13.2372  -20.4064   25.2647 O   0  0  0  0  0  0  0  0  0  0  0  0
   10.4635  -16.8623   28.9645 O   0  0  0  0  0  0  0  0  0  0  0  0
  2  1  1  0
  3  2  2  0
  4  3  1  0
  5  4  2  0
  5 11  1  0
  6  5  1  0
  7  8  1  1
  7  6  1  0
  9 10  2  0
  9  7  1  0
 11 12  2  0
 12  2  1  0
 14 16  1  0
 14 13  1  1
 15 14  1  0
 17 16  1  6
 17 19  1  0
 17 18  1  0
 18  9  1  0
 19 21  1  0
 20 19  2  0
 21 22  1  0
 22 27  1  0
 23 24  1  0
 22 23  1  6
 24 25  1  0
 25 26  2  0
 27 30  2  0
 27 28  1  0
 29 25  1  0
M  END
$$$$
