YLE.pdb
     RDKit          3D

 30 30  0  0  1  0  0  0  0  0999 V2000
    7.5795  -12.7422   16.4095 O   0  0  0  0  0  0  0  0  0  0  0  0
    7.5680  -13.2216   17.7257 C   0  0  0  0  0  0  0  0  0  0  0  0
    7.6443  -12.3515   18.7857 C   0  0  0  0  0  0  0  0  0  0  0  0
    7.6322  -12.8250   20.1115 C   0  0  0  0  0  0  0  0  0  0  0  0
    7.5431  -14.1685   20.3920 C   0  0  0  0  0  0  0  0  0  0  0  0
    7.5169  -14.7170   21.7746 C   0  0  0  0  0  0  0  0  0  0  0  0
    8.6410  -15.6846   22.0512 C   0  0  2  0  0  0  0  0  0  0  0  0
    8.2540  -17.0528   21.8638 N   0  0  0  0  0  0  0  0  0  0  0  0
    9.1404  -15.4214   23.4676 C   0  0  0  0  0  0  0  0  0  0  0  0
   10.3501  -15.1701   23.6179 O   0  0  0  0  0  0  0  0  0  0  0  0
    7.4668  -15.0310   19.2887 C   0  0  0  0  0  0  0  0  0  0  0  0
    7.4796  -14.5700   17.9897 C   0  0  0  0  0  0  0  0  0  0  0  0
    8.2283  -12.2620   26.5231 C   0  0  0  0  0  0  0  0  0  0  0  0
    7.0768  -13.1963   26.4256 C   0  0  2  0  0  0  0  0  0  0  0  0
    5.8656  -12.6630   27.1744 C   0  0  0  0  0  0  0  0  0  0  0  0
    7.3465  -14.6302   26.7069 C   0  0  0  0  0  0  0  0  0  0  0  0
    8.3590  -15.3492   25.9177 C   0  0  2  0  0  0  0  0  0  0  0  0
    8.2267  -15.4706   24.5345 N   0  0  0  0  0  0  0  0  0  0  0  0
    8.9318  -16.4759   26.7010 C   0  0  0  0  0  0  0  0  0  0  0  0
    8.2470  -17.2460   27.3990 O   0  0  0  0  0  0  0  0  0  0  0  0
   10.3419  -16.7353   26.6865 N   0  0  0  0  0  0  0  0  0  0  0  0
   10.9369  -17.8345   27.4215 C   0  0  1  0  0  0  0  0  0  0  0  0
   12.0981  -18.4762   26.7661 C   0  0  0  0  0  0  0  0  0  0  0  0
   12.0122  -18.7177   25.2925 C   0  0  0  0  0  0  0  0  0  0  0  0
   13.2991  -19.1273   24.7084 C   0  0  0  0  0  0  0  0  0  0  0  0
   14.3921  -19.1182   25.3227 O   0  0  0  0  0  0  0  0  0  0  0  0
   11.2604  -17.4014   28.7900 C   0  0  0  0  0  0  0  0  0  0  0  0
   11.7354  -18.3382   29.7244 O   0  0  0  0  0  0  0  0  0  0  0  0
   13.3509  -19.5673   23.3743 O   0  0  0  0  0  0  0  0  0  0  0  0
   11.1359  -16.2161   29.1717 O   0  0  0  0  0  0  0  0  0  0  0  0
  2  1  1  0
  3  2  2  0
  4  3  1  0
  5  4  2  0
  5 11  1  0
  6  5  1  0
  7  8  1  1
  7  6  1  0
  9 10  2  0
  9  7  1  0
 11 12  2  0
 12  2  1  0
 14 16  1  0
 14 13  1  1
 15 14  1  0
 17 16  1  1
 17 19  1  0
 17 18  1  0
 18  9  1  0
 19 21  1  0
 20 19  2  0
 21 22  1  0
 22 27  1  0
 23 24  1  0
 22 23  1  6
 24 25  1  0
 25 26  2  0
 27 30  2  0
 27 28  1  0
 29 25  1  0
M  END
$$$$
