YLE.pdb
     RDKit          3D

 30 30  0  0  1  0  0  0  0  0999 V2000
    7.4054  -23.4675   29.1153 O   0  0  0  0  0  0  0  0  0  0  0  0
    7.4713  -22.2741   28.3846 C   0  0  0  0  0  0  0  0  0  0  0  0
    8.6031  -21.9510   27.6768 C   0  0  0  0  0  0  0  0  0  0  0  0
    8.6769  -20.7542   26.9391 C   0  0  0  0  0  0  0  0  0  0  0  0
    7.6239  -19.8704   26.8997 C   0  0  0  0  0  0  0  0  0  0  0  0
    7.6496  -18.5989   26.1277 C   0  0  0  0  0  0  0  0  0  0  0  0
    6.6508  -18.5699   24.9974 C   0  0  2  0  0  0  0  0  0  0  0  0
    6.7301  -19.7296   24.1572 N   0  0  0  0  0  0  0  0  0  0  0  0
    6.8752  -17.2811   24.2141 C   0  0  0  0  0  0  0  0  0  0  0  0
    7.4562  -17.3640   23.1166 O   0  0  0  0  0  0  0  0  0  0  0  0
    6.4830  -20.2285   27.6323 C   0  0  0  0  0  0  0  0  0  0  0  0
    6.4085  -21.3991   28.3564 C   0  0  0  0  0  0  0  0  0  0  0  0
    6.5947  -11.5910   26.9875 C   0  0  0  0  0  0  0  0  0  0  0  0
    6.9355  -12.4102   25.7954 C   0  0  2  0  0  0  0  0  0  0  0  0
    6.7566  -11.6186   24.5095 C   0  0  0  0  0  0  0  0  0  0  0  0
    6.3471  -13.7729   25.7233 C   0  0  0  0  0  0  0  0  0  0  0  0
    7.0026  -14.8067   24.9072 C   0  0  2  0  0  0  0  0  0  0  0  0
    6.4214  -16.0655   24.7544 N   0  0  0  0  0  0  0  0  0  0  0  0
    8.4820  -14.6890   25.0005 C   0  0  0  0  0  0  0  0  0  0  0  0
    9.0897  -13.6038   24.9518 O   0  0  0  0  0  0  0  0  0  0  0  0
    9.3009  -15.8556   25.1568 N   0  0  0  0  0  0  0  0  0  0  0  0
   10.7448  -15.7817   25.2677 C   0  0  1  0  0  0  0  0  0  0  0  0
   11.3303  -16.5395   26.3958 C   0  0  0  0  0  0  0  0  0  0  0  0
   10.6501  -16.4357   27.7238 C   0  0  0  0  0  0  0  0  0  0  0  0
   11.0004  -17.5414   28.6291 C   0  0  0  0  0  0  0  0  0  0  0  0
   11.5583  -18.6046   28.2679 O   0  0  0  0  0  0  0  0  0  0  0  0
   11.3626  -16.1573   23.9862 C   0  0  0  0  0  0  0  0  0  0  0  0
   10.5655  -16.6851   22.9556 O   0  0  0  0  0  0  0  0  0  0  0  0
   10.7090  -17.4389   30.0006 O   0  0  0  0  0  0  0  0  0  0  0  0
   12.5863  -16.0242   23.7604 O   0  0  0  0  0  0  0  0  0  0  0  0
  2  1  1  0
  3  2  2  0
  4  3  1  0
  5  4  2  0
  5 11  1  0
  6  5  1  0
  7  8  1  6
  7  6  1  0
  9 10  2  0
  9  7  1  0
 11 12  2  0
 12  2  1  0
 14 16  1  0
 14 13  1  1
 15 14  1  0
 17 16  1  1
 17 19  1  0
 17 18  1  0
 18  9  1  0
 19 21  1  0
 20 19  2  0
 21 22  1  0
 22 27  1  0
 23 24  1  0
 22 23  1  1
 24 25  1  0
 25 26  2  0
 27 30  2  0
 27 28  1  0
 29 25  1  0
M  END
$$$$
