YLE.pdb
     RDKit          3D

 30 30  0  0  1  0  0  0  0  0999 V2000
    6.9689  -13.1170   16.3083 O   0  0  0  0  0  0  0  0  0  0  0  0
    7.2672  -13.6349   17.5752 C   0  0  0  0  0  0  0  0  0  0  0  0
    7.7138  -12.8102   18.5786 C   0  0  0  0  0  0  0  0  0  0  0  0
    8.0146  -13.3226   19.8549 C   0  0  0  0  0  0  0  0  0  0  0  0
    7.8720  -14.6599   20.1422 C   0  0  0  0  0  0  0  0  0  0  0  0
    8.1672  -15.2475   21.4767 C   0  0  0  0  0  0  0  0  0  0  0  0
    9.5814  -14.9947   21.9374 C   0  0  2  0  0  0  0  0  0  0  0  0
   10.5446  -15.7925   21.2353 N   0  0  0  0  0  0  0  0  0  0  0  0
    9.6284  -15.2361   23.4422 C   0  0  0  0  0  0  0  0  0  0  0  0
   10.5359  -15.9643   23.8840 O   0  0  0  0  0  0  0  0  0  0  0  0
    7.4144  -15.4757   19.0974 C   0  0  0  0  0  0  0  0  0  0  0  0
    7.1202  -14.9768   17.8464 C   0  0  0  0  0  0  0  0  0  0  0  0
    7.9628  -11.6514   26.4413 C   0  0  0  0  0  0  0  0  0  0  0  0
    6.9229  -12.6057   25.9761 C   0  0  2  0  0  0  0  0  0  0  0  0
    5.5376  -12.1860   26.4417 C   0  0  0  0  0  0  0  0  0  0  0  0
    7.1918  -14.0517   26.1880 C   0  0  0  0  0  0  0  0  0  0  0  0
    8.4152  -14.6534   25.6349 C   0  0  2  0  0  0  0  0  0  0  0  0
    8.6584  -14.6333   24.2615 N   0  0  0  0  0  0  0  0  0  0  0  0
    8.8248  -15.8383   26.4345 C   0  0  0  0  0  0  0  0  0  0  0  0
    8.6816  -15.9178   27.6683 O   0  0  0  0  0  0  0  0  0  0  0  0
    9.4206  -16.9784   25.8013 N   0  0  0  0  0  0  0  0  0  0  0  0
    9.8239  -18.1568   26.5439 C   0  0  1  0  0  0  0  0  0  0  0  0
    9.7361  -19.4324   25.7991 C   0  0  0  0  0  0  0  0  0  0  0  0
   10.1142  -20.6836   26.5263 C   0  0  0  0  0  0  0  0  0  0  0  0
   10.0038  -21.8851   25.6842 C   0  0  0  0  0  0  0  0  0  0  0  0
   10.6496  -22.0715   24.6257 O   0  0  0  0  0  0  0  0  0  0  0  0
   11.1667  -17.9534   27.1102 C   0  0  0  0  0  0  0  0  0  0  0  0
   11.9452  -16.8627   26.6851 O   0  0  0  0  0  0  0  0  0  0  0  0
    9.1277  -22.9196   26.0564 O   0  0  0  0  0  0  0  0  0  0  0  0
   11.6599  -18.7150   27.9720 O   0  0  0  0  0  0  0  0  0  0  0  0
  2  1  1  0
  3  2  2  0
  4  3  1  0
  5  4  2  0
  5 11  1  0
  6  5  1  0
  7  8  1  6
  7  6  1  0
  9 10  2  0
  9  7  1  0
 11 12  2  0
 12  2  1  0
 14 16  1  0
 14 13  1  1
 15 14  1  0
 17 16  1  6
 17 19  1  0
 17 18  1  0
 18  9  1  0
 19 21  1  0
 20 19  2  0
 21 22  1  0
 22 27  1  0
 23 24  1  0
 22 23  1  6
 24 25  1  0
 25 26  2  0
 27 30  2  0
 27 28  1  0
 29 25  1  0
M  END
$$$$
