YLE.pdb
     RDKit          3D

 30 30  0  0  1  0  0  0  0  0999 V2000
   12.3265  -16.2731   31.7524 O   0  0  0  0  0  0  0  0  0  0  0  0
   11.6283  -16.3385   30.5397 C   0  0  0  0  0  0  0  0  0  0  0  0
   11.1309  -15.1977   29.9587 C   0  0  0  0  0  0  0  0  0  0  0  0
   10.4291  -15.2546   28.7396 C   0  0  0  0  0  0  0  0  0  0  0  0
   10.2181  -16.4478   28.0891 C   0  0  0  0  0  0  0  0  0  0  0  0
    9.4920  -16.5587   26.7954 C   0  0  0  0  0  0  0  0  0  0  0  0
    8.0765  -17.0576   26.9495 C   0  0  2  0  0  0  0  0  0  0  0  0
    8.0127  -18.4513   27.2819 N   0  0  0  0  0  0  0  0  0  0  0  0
    7.3318  -16.7444   25.6564 C   0  0  0  0  0  0  0  0  0  0  0  0
    6.8632  -17.7004   25.0118 O   0  0  0  0  0  0  0  0  0  0  0  0
   10.7379  -17.5942   28.7073 C   0  0  0  0  0  0  0  0  0  0  0  0
   11.4244  -17.5414   29.9016 C   0  0  0  0  0  0  0  0  0  0  0  0
    5.5919  -12.6794   25.8992 C   0  0  0  0  0  0  0  0  0  0  0  0
    6.8545  -12.5102   25.1338 C   0  0  2  0  0  0  0  0  0  0  0  0
    7.1808  -11.0404   24.9212 C   0  0  0  0  0  0  0  0  0  0  0  0
    7.0080  -13.3222   23.8988 C   0  0  0  0  0  0  0  0  0  0  0  0
    7.1888  -14.7786   24.0028 C   0  0  2  0  0  0  0  0  0  0  0  0
    7.2036  -15.4054   25.2489 N   0  0  0  0  0  0  0  0  0  0  0  0
    8.0814  -15.2750   22.9220 C   0  0  0  0  0  0  0  0  0  0  0  0
    7.9304  -14.9888   21.7202 O   0  0  0  0  0  0  0  0  0  0  0  0
    9.1912  -16.1310   23.2244 N   0  0  0  0  0  0  0  0  0  0  0  0
   10.0176  -16.7253   22.1917 C   0  0  1  0  0  0  0  0  0  0  0  0
   10.7097  -15.7628   21.3061 C   0  0  0  0  0  0  0  0  0  0  0  0
   11.9035  -15.0515   21.8593 C   0  0  0  0  0  0  0  0  0  0  0  0
   12.9614  -14.8530   20.8561 C   0  0  0  0  0  0  0  0  0  0  0  0
   14.1711  -15.1290   21.0364 O   0  0  0  0  0  0  0  0  0  0  0  0
   10.9616  -17.6784   22.7961 C   0  0  0  0  0  0  0  0  0  0  0  0
   11.6992  -18.5471   21.9729 O   0  0  0  0  0  0  0  0  0  0  0  0
   12.6364  -14.3219   19.5957 O   0  0  0  0  0  0  0  0  0  0  0  0
   11.1487  -17.7542   24.0312 O   0  0  0  0  0  0  0  0  0  0  0  0
  2  1  1  0
  3  2  2  0
  4  3  1  0
  5  4  2  0
  5 11  1  0
  6  5  1  0
  7  8  1  6
  7  6  1  0
  9 10  2  0
  9  7  1  0
 11 12  2  0
 12  2  1  0
 14 16  1  0
 14 13  1  6
 15 14  1  0
 17 16  1  1
 17 19  1  0
 17 18  1  0
 18  9  1  0
 19 21  1  0
 20 19  2  0
 21 22  1  0
 22 27  1  0
 23 24  1  0
 22 23  1  1
 24 25  1  0
 25 26  2  0
 27 30  2  0
 27 28  1  0
 29 25  1  0
M  END
$$$$
