YLE.pdb
     RDKit          3D

 30 30  0  0  1  0  0  0  0  0999 V2000
   10.9686  -14.5746   30.9462 O   0  0  0  0  0  0  0  0  0  0  0  0
   10.5407  -14.7815   29.6284 C   0  0  0  0  0  0  0  0  0  0  0  0
    9.9841  -13.7543   28.9062 C   0  0  0  0  0  0  0  0  0  0  0  0
    9.5525  -13.9537   27.5811 C   0  0  0  0  0  0  0  0  0  0  0  0
    9.6728  -15.1771   26.9645 C   0  0  0  0  0  0  0  0  0  0  0  0
    9.2411  -15.4352   25.5644 C   0  0  0  0  0  0  0  0  0  0  0  0
    7.7900  -15.8330   25.4539 C   0  0  2  0  0  0  0  0  0  0  0  0
    7.4813  -17.0182   26.2004 N   0  0  0  0  0  0  0  0  0  0  0  0
    7.4645  -15.9903   23.9727 C   0  0  0  0  0  0  0  0  0  0  0  0
    7.1366  -17.1210   23.5686 O   0  0  0  0  0  0  0  0  0  0  0  0
   10.2447  -16.2053   27.7278 C   0  0  0  0  0  0  0  0  0  0  0  0
   10.6670  -16.0131   29.0259 C   0  0  0  0  0  0  0  0  0  0  0  0
    8.2848  -11.7617   19.2674 C   0  0  0  0  0  0  0  0  0  0  0  0
    8.1496  -13.1523   19.7738 C   0  0  2  0  0  0  0  0  0  0  0  0
    7.0591  -13.9087   19.0318 C   0  0  0  0  0  0  0  0  0  0  0  0
    8.0771  -13.3289   21.2475 C   0  0  0  0  0  0  0  0  0  0  0  0
    7.9603  -14.6818   21.8137 C   0  0  2  0  0  0  0  0  0  0  0  0
    7.5447  -14.8665   23.1324 N   0  0  0  0  0  0  0  0  0  0  0  0
    8.9940  -15.5825   21.2380 C   0  0  0  0  0  0  0  0  0  0  0  0
    8.7603  -16.4112   20.3393 O   0  0  0  0  0  0  0  0  0  0  0  0
   10.3487  -15.5352   21.7055 N   0  0  0  0  0  0  0  0  0  0  0  0
   11.3758  -16.4260   21.2012 C   0  0  1  0  0  0  0  0  0  0  0  0
   12.4922  -15.7635   20.4910 C   0  0  0  0  0  0  0  0  0  0  0  0
   12.1871  -15.1163   19.1775 C   0  0  0  0  0  0  0  0  0  0  0  0
   13.3646  -14.4715   18.5753 C   0  0  0  0  0  0  0  0  0  0  0  0
   14.3868  -14.1238   19.2126 O   0  0  0  0  0  0  0  0  0  0  0  0
   11.8638  -17.2894   22.2882 C   0  0  0  0  0  0  0  0  0  0  0  0
   11.3595  -17.1245   23.5900 O   0  0  0  0  0  0  0  0  0  0  0  0
   13.3870  -14.2111   17.1939 O   0  0  0  0  0  0  0  0  0  0  0  0
   12.7195  -18.1847   22.1086 O   0  0  0  0  0  0  0  0  0  0  0  0
  2  1  1  0
  3  2  2  0
  4  3  1  0
  5  4  2  0
  5 11  1  0
  6  5  1  0
  7  8  1  1
  7  6  1  0
  9 10  2  0
  9  7  1  0
 11 12  2  0
 12  2  1  0
 14 16  1  0
 14 13  1  1
 15 14  1  0
 17 16  1  1
 17 19  1  0
 17 18  1  0
 18  9  1  0
 19 21  1  0
 20 19  2  0
 21 22  1  0
 22 27  1  0
 23 24  1  0
 22 23  1  1
 24 25  1  0
 25 26  2  0
 27 30  2  0
 27 28  1  0
 29 25  1  0
M  END
$$$$
