YLE.pdb
     RDKit          3D

 30 30  0  0  1  0  0  0  0  0999 V2000
    6.8192  -10.5496   26.7307 O   0  0  0  0  0  0  0  0  0  0  0  0
    6.8912  -11.9479   26.6868 C   0  0  0  0  0  0  0  0  0  0  0  0
    8.0874  -12.5916   26.8897 C   0  0  0  0  0  0  0  0  0  0  0  0
    8.1681  -13.9965   26.8483 C   0  0  0  0  0  0  0  0  0  0  0  0
    7.0580  -14.7713   26.6056 C   0  0  0  0  0  0  0  0  0  0  0  0
    7.0900  -16.2580   26.5617 C   0  0  0  0  0  0  0  0  0  0  0  0
    6.6213  -16.8236   25.2439 C   0  0  2  0  0  0  0  0  0  0  0  0
    6.0242  -18.1207   25.3779 N   0  0  0  0  0  0  0  0  0  0  0  0
    7.8155  -16.8400   24.2960 C   0  0  0  0  0  0  0  0  0  0  0  0
    8.5378  -17.8535   24.2919 O   0  0  0  0  0  0  0  0  0  0  0  0
    5.8521  -14.0849   26.4025 C   0  0  0  0  0  0  0  0  0  0  0  0
    5.7706  -12.7093   26.4413 C   0  0  0  0  0  0  0  0  0  0  0  0
    6.9048  -14.9454   20.3521 C   0  0  0  0  0  0  0  0  0  0  0  0
    7.6000  -13.8808   21.1214 C   0  0  2  0  0  0  0  0  0  0  0  0
    7.6004  -12.5614   20.3655 C   0  0  0  0  0  0  0  0  0  0  0  0
    8.9285  -14.2209   21.6936 C   0  0  0  0  0  0  0  0  0  0  0  0
    9.0637  -15.3913   22.5748 C   0  0  2  0  0  0  0  0  0  0  0  0
    8.0501  -15.7249   23.4732 N   0  0  0  0  0  0  0  0  0  0  0  0
   10.4844  -15.5931   22.9648 C   0  0  0  0  0  0  0  0  0  0  0  0
   11.1500  -14.7520   23.5961 O   0  0  0  0  0  0  0  0  0  0  0  0
   11.1729  -16.8032   22.6219 N   0  0  0  0  0  0  0  0  0  0  0  0
   12.5266  -17.0781   23.0630 C   0  0  1  0  0  0  0  0  0  0  0  0
   12.7303  -18.4060   23.6834 C   0  0  0  0  0  0  0  0  0  0  0  0
   12.0788  -18.6568   25.0063 C   0  0  0  0  0  0  0  0  0  0  0  0
   11.8432  -20.0867   25.2610 C   0  0  0  0  0  0  0  0  0  0  0  0
   12.1384  -21.0077   24.4630 O   0  0  0  0  0  0  0  0  0  0  0  0
   13.4676  -16.8495   21.9551 C   0  0  0  0  0  0  0  0  0  0  0  0
   14.8501  -16.9747   22.1769 O   0  0  0  0  0  0  0  0  0  0  0  0
   11.2506  -20.4913   26.4699 O   0  0  0  0  0  0  0  0  0  0  0  0
   13.0922  -16.5472   20.8002 O   0  0  0  0  0  0  0  0  0  0  0  0
  2  1  1  0
  3  2  2  0
  4  3  1  0
  5  4  2  0
  5 11  1  0
  6  5  1  0
  7  8  1  1
  7  6  1  0
  9 10  2  0
  9  7  1  0
 11 12  2  0
 12  2  1  0
 14 16  1  0
 14 13  1  6
 15 14  1  0
 17 16  1  1
 17 19  1  0
 17 18  1  0
 18  9  1  0
 19 21  1  0
 20 19  2  0
 21 22  1  0
 22 27  1  0
 23 24  1  0
 22 23  1  6
 24 25  1  0
 25 26  2  0
 27 30  2  0
 27 28  1  0
 29 25  1  0
M  END
$$$$
