YLE.pdb
     RDKit          3D

 30 30  0  0  1  0  0  0  0  0999 V2000
    7.3612  -13.4508   15.6444 O   0  0  0  0  0  0  0  0  0  0  0  0
    7.4748  -13.8369   16.9862 C   0  0  0  0  0  0  0  0  0  0  0  0
    7.8223  -12.9209   17.9488 C   0  0  0  0  0  0  0  0  0  0  0  0
    7.9375  -13.3006   19.2995 C   0  0  0  0  0  0  0  0  0  0  0  0
    7.7066  -14.5951   19.7024 C   0  0  0  0  0  0  0  0  0  0  0  0
    7.8058  -15.0431   21.1175 C   0  0  0  0  0  0  0  0  0  0  0  0
    9.0939  -14.6267   21.7835 C   0  0  2  0  0  0  0  0  0  0  0  0
   10.2561  -15.0862   21.0797 N   0  0  0  0  0  0  0  0  0  0  0  0
    9.0581  -15.1361   23.2203 C   0  0  0  0  0  0  0  0  0  0  0  0
    9.8286  -16.0648   23.5249 O   0  0  0  0  0  0  0  0  0  0  0  0
    7.3538  -15.5065   18.6965 C   0  0  0  0  0  0  0  0  0  0  0  0
    7.2415  -15.1376   17.3731 C   0  0  0  0  0  0  0  0  0  0  0  0
    7.9868  -11.7642   26.5892 C   0  0  0  0  0  0  0  0  0  0  0  0
    6.8245  -12.5069   26.0360 C   0  0  2  0  0  0  0  0  0  0  0  0
    5.5087  -11.8906   26.4845 C   0  0  0  0  0  0  0  0  0  0  0  0
    6.8456  -13.9869   26.1679 C   0  0  0  0  0  0  0  0  0  0  0  0
    7.8897  -14.7641   25.4820 C   0  0  2  0  0  0  0  0  0  0  0  0
    8.1690  -14.5434   24.1333 N   0  0  0  0  0  0  0  0  0  0  0  0
    7.9599  -16.1453   26.0286 C   0  0  0  0  0  0  0  0  0  0  0  0
    7.1098  -17.0227   25.7905 O   0  0  0  0  0  0  0  0  0  0  0  0
    9.0435  -16.5416   26.8797 N   0  0  0  0  0  0  0  0  0  0  0  0
    9.5473  -17.9009   26.9136 C   0  0  1  0  0  0  0  0  0  0  0  0
   10.2341  -18.3499   25.6822 C   0  0  0  0  0  0  0  0  0  0  0  0
   10.7130  -19.7662   25.6365 C   0  0  0  0  0  0  0  0  0  0  0  0
   11.3689  -20.1028   24.3631 C   0  0  0  0  0  0  0  0  0  0  0  0
   12.4412  -19.5927   23.9606 O   0  0  0  0  0  0  0  0  0  0  0  0
   10.3930  -18.0892   28.1029 C   0  0  0  0  0  0  0  0  0  0  0  0
   10.7032  -16.9880   28.9198 O   0  0  0  0  0  0  0  0  0  0  0  0
   10.7881  -21.0580   23.5106 O   0  0  0  0  0  0  0  0  0  0  0  0
   10.8564  -19.2036   28.4339 O   0  0  0  0  0  0  0  0  0  0  0  0
  2  1  1  0
  3  2  2  0
  4  3  1  0
  5  4  2  0
  5 11  1  0
  6  5  1  0
  7  8  1  6
  7  6  1  0
  9 10  2  0
  9  7  1  0
 11 12  2  0
 12  2  1  0
 14 16  1  0
 14 13  1  1
 15 14  1  0
 17 16  1  6
 17 19  1  0
 17 18  1  0
 18  9  1  0
 19 21  1  0
 20 19  2  0
 21 22  1  0
 22 27  1  0
 23 24  1  0
 22 23  1  6
 24 25  1  0
 25 26  2  0
 27 30  2  0
 27 28  1  0
 29 25  1  0
M  END
$$$$
