SVW.pdb
     RDKit          3D

 28 29  0  0  1  0  0  0  0  0999 V2000
   11.0282  -12.8501   18.2338 O   0  0  0  0  0  0  0  0  0  0  0  0
   10.3084  -12.9481   19.4399 C   0  0  0  0  0  0  0  0  0  0  0  0
    8.9794  -13.5937   19.1233 C   0  0  2  0  0  0  0  0  0  0  0  0
    8.1080  -12.5754   18.6309 N   0  0  0  0  0  0  0  0  0  0  0  0
    8.4526  -14.2287   20.3892 C   0  0  0  0  0  0  0  0  0  0  0  0
    7.8515  -13.4816   21.1856 O   0  0  0  0  0  0  0  0  0  0  0  0
    6.4493  -17.5671   20.3926 C   0  0  0  0  0  0  0  0  0  0  0  0
    7.6346  -17.7442   21.3468 C   0  0  2  0  0  0  0  0  0  0  0  0
    7.1944  -18.6365   22.4525 C   0  0  0  0  0  0  0  0  0  0  0  0
    8.1706  -16.4053   21.7450 C   0  0  2  0  0  0  0  0  0  0  0  0
    8.6345  -15.5877   20.6466 N   0  0  0  0  0  0  0  0  0  0  0  0
    9.0780  -16.3586   22.8895 C   0  0  0  0  0  0  0  0  0  0  0  0
   10.3551  -16.2885   22.6941 O   0  0  0  0  0  0  0  0  0  0  0  0
    8.6764  -16.3754   24.2239 N   0  0  0  0  0  0  0  0  0  0  0  0
    9.6204  -16.3128   25.3488 C   0  0  1  0  0  0  0  0  0  0  0  0
    8.7396  -15.9951   26.5332 C   0  0  0  0  0  0  0  0  0  0  0  0
    7.6793  -15.0203   26.3096 C   0  0  0  0  0  0  0  0  0  0  0  0
    6.3488  -15.3263   25.9710 C   0  0  0  0  0  0  0  0  0  0  0  0
    5.6635  -14.1854   25.8081 N   0  0  0  0  0  0  0  0  0  0  0  0
    6.4624  -13.1209   26.0202 C   0  0  0  0  0  0  0  0  0  0  0  0
    6.1808  -11.7726   25.9796 C   0  0  0  0  0  0  0  0  0  0  0  0
    7.2009  -10.8929   26.2664 C   0  0  0  0  0  0  0  0  0  0  0  0
    8.4692  -11.3916   26.5847 C   0  0  0  0  0  0  0  0  0  0  0  0
    8.7107  -12.7419   26.6140 C   0  0  0  0  0  0  0  0  0  0  0  0
    7.7135  -13.6427   26.3317 C   0  0  0  0  0  0  0  0  0  0  0  0
   10.2468  -17.6142   25.5077 C   0  0  0  0  0  0  0  0  0  0  0  0
    9.7301  -18.7232   24.8598 O   0  0  0  0  0  0  0  0  0  0  0  0
   11.2700  -17.8323   26.2203 O   0  0  0  0  0  0  0  0  0  0  0  0
  2  1  1  0
  3  4  1  1
  3  2  1  0
  5  3  1  0
  6  5  2  0
  8  7  1  6
  8  9  1  0
 10  8  1  0
 10 11  1  6
 11  5  1  0
 12 10  1  0
 13 12  2  0
 14 12  1  0
 15 14  1  0
 15 16  1  1
 16 17  1  0
 17 25  1  0
 18 17  2  0
 18 19  1  0
 19 20  1  0
 20 21  1  0
 21 22  2  0
 23 22  1  0
 24 23  2  0
 25 20  2  0
 25 24  1  0
 26 15  1  0
 26 27  1  0
 28 26  2  0
M  END
$$$$
