SVW.pdb
     RDKit          3D

 28 29  0  0  1  0  0  0  0  0999 V2000
   10.6343  -19.4358   18.0799 O   0  0  0  0  0  0  0  0  0  0  0  0
   11.3071  -18.4653   18.8467 C   0  0  0  0  0  0  0  0  0  0  0  0
   10.9077  -17.1093   18.3127 C   0  0  2  0  0  0  0  0  0  0  0  0
   11.9931  -16.6143   17.5281 N   0  0  0  0  0  0  0  0  0  0  0  0
   10.6028  -16.2125   19.4900 C   0  0  0  0  0  0  0  0  0  0  0  0
   11.5783  -15.7635   20.1230 O   0  0  0  0  0  0  0  0  0  0  0  0
    7.5753  -13.5214   19.6676 C   0  0  0  0  0  0  0  0  0  0  0  0
    7.4515  -14.5454   20.8003 C   0  0  2  0  0  0  0  0  0  0  0  0
    6.8732  -13.8467   21.9792 C   0  0  0  0  0  0  0  0  0  0  0  0
    8.7644  -15.2312   21.0109 C   0  0  2  0  0  0  0  0  0  0  0  0
    9.2888  -15.9063   19.8449 N   0  0  0  0  0  0  0  0  0  0  0  0
    8.9185  -16.0283   22.2259 C   0  0  0  0  0  0  0  0  0  0  0  0
    8.7276  -17.3072   22.1836 O   0  0  0  0  0  0  0  0  0  0  0  0
    9.2738  -15.5168   23.4727 N   0  0  0  0  0  0  0  0  0  0  0  0
    9.5209  -16.3634   24.6486 C   0  0  1  0  0  0  0  0  0  0  0  0
    9.4832  -15.3888   25.8010 C   0  0  0  0  0  0  0  0  0  0  0  0
    8.1854  -14.8029   26.1125 C   0  0  0  0  0  0  0  0  0  0  0  0
    6.9572  -15.4885   26.0991 C   0  0  0  0  0  0  0  0  0  0  0  0
    5.9719  -14.6303   26.4002 N   0  0  0  0  0  0  0  0  0  0  0  0
    6.4704  -13.3973   26.6180 C   0  0  0  0  0  0  0  0  0  0  0  0
    5.8329  -12.2268   26.9677 C   0  0  0  0  0  0  0  0  0  0  0  0
    6.6065  -11.1022   27.1511 C   0  0  0  0  0  0  0  0  0  0  0  0
    7.9928  -11.1863   26.9787 C   0  0  0  0  0  0  0  0  0  0  0  0
    8.5910  -12.3706   26.6293 C   0  0  0  0  0  0  0  0  0  0  0  0
    7.8453  -13.5079   26.4390 C   0  0  0  0  0  0  0  0  0  0  0  0
    8.4459  -17.3346   24.7607 C   0  0  0  0  0  0  0  0  0  0  0  0
    8.6326  -18.5059   25.4746 O   0  0  0  0  0  0  0  0  0  0  0  0
    7.3015  -17.1969   24.2375 O   0  0  0  0  0  0  0  0  0  0  0  0
  2  1  1  0
  3  4  1  1
  3  2  1  0
  5  3  1  0
  6  5  2  0
  8  7  1  6
  8  9  1  0
 10  8  1  0
 10 11  1  6
 11  5  1  0
 12 10  1  0
 13 12  2  0
 14 12  1  0
 15 14  1  0
 15 16  1  1
 16 17  1  0
 17 25  1  0
 18 17  2  0
 18 19  1  0
 19 20  1  0
 20 21  1  0
 21 22  2  0
 23 22  1  0
 24 23  2  0
 25 20  2  0
 25 24  1  0
 26 15  1  0
 26 27  1  0
 28 26  2  0
M  END
$$$$
