SVW.pdb
     RDKit          3D

 28 29  0  0  1  0  0  0  0  0999 V2000
    8.0828  -19.1318   21.9321 O   0  0  0  0  0  0  0  0  0  0  0  0
    8.4754  -19.5380   20.6424 C   0  0  0  0  0  0  0  0  0  0  0  0
    8.1912  -18.3915   19.7000 C   0  0  2  0  0  0  0  0  0  0  0  0
    8.5420  -18.8149   18.3823 N   0  0  0  0  0  0  0  0  0  0  0  0
    9.0060  -17.2012   20.1499 C   0  0  0  0  0  0  0  0  0  0  0  0
   10.2325  -17.2438   19.9316 O   0  0  0  0  0  0  0  0  0  0  0  0
    7.0722  -13.3994   21.9230 C   0  0  0  0  0  0  0  0  0  0  0  0
    8.0619  -13.6560   20.7821 C   0  0  2  0  0  0  0  0  0  0  0  0
    7.2787  -13.7719   19.5228 C   0  0  0  0  0  0  0  0  0  0  0  0
    8.9446  -14.8140   21.1261 C   0  0  2  0  0  0  0  0  0  0  0  0
    8.4061  -16.1100   20.7789 N   0  0  0  0  0  0  0  0  0  0  0  0
    9.5705  -14.8121   22.4465 C   0  0  0  0  0  0  0  0  0  0  0  0
   10.2094  -13.7630   22.8530 O   0  0  0  0  0  0  0  0  0  0  0  0
    9.5335  -15.8764   23.3456 N   0  0  0  0  0  0  0  0  0  0  0  0
   10.1397  -15.8205   24.6835 C   0  0  1  0  0  0  0  0  0  0  0  0
    9.0548  -16.3561   25.5866 C   0  0  0  0  0  0  0  0  0  0  0  0
    7.8401  -15.5565   25.6854 C   0  0  0  0  0  0  0  0  0  0  0  0
    6.5380  -16.0154   25.4162 C   0  0  0  0  0  0  0  0  0  0  0  0
    5.6738  -15.0025   25.5747 N   0  0  0  0  0  0  0  0  0  0  0  0
    6.3246  -13.8799   25.9388 C   0  0  0  0  0  0  0  0  0  0  0  0
    5.8408  -12.6214   26.2233 C   0  0  0  0  0  0  0  0  0  0  0  0
    6.7458  -11.6533   26.5983 C   0  0  0  0  0  0  0  0  0  0  0  0
    8.1051  -11.9768   26.6764 C   0  0  0  0  0  0  0  0  0  0  0  0
    8.5484  -13.2419   26.3845 C   0  0  0  0  0  0  0  0  0  0  0  0
    7.6696  -14.2273   26.0071 C   0  0  0  0  0  0  0  0  0  0  0  0
   11.3041  -16.6894   24.7067 C   0  0  0  0  0  0  0  0  0  0  0  0
   11.5967  -17.4965   23.6207 O   0  0  0  0  0  0  0  0  0  0  0  0
   12.1105  -16.7772   25.6785 O   0  0  0  0  0  0  0  0  0  0  0  0
  2  1  1  0
  3  4  1  6
  3  2  1  0
  5  3  1  0
  6  5  2  0
  8  7  1  1
  8  9  1  0
 10  8  1  0
 10 11  1  1
 11  5  1  0
 12 10  1  0
 13 12  2  0
 14 12  1  0
 15 14  1  0
 15 16  1  1
 16 17  1  0
 17 25  1  0
 18 17  2  0
 18 19  1  0
 19 20  1  0
 20 21  1  0
 21 22  2  0
 23 22  1  0
 24 23  2  0
 25 20  2  0
 25 24  1  0
 26 15  1  0
 26 27  1  0
 28 26  2  0
M  END
$$$$
