SVW.pdb
     RDKit          3D

 28 29  0  0  1  0  0  0  0  0999 V2000
    7.1943  -20.7201   21.9704 O   0  0  0  0  0  0  0  0  0  0  0  0
    8.3399  -20.0912   21.4464 C   0  0  0  0  0  0  0  0  0  0  0  0
    7.8887  -19.1982   20.3140 C   0  0  2  0  0  0  0  0  0  0  0  0
    8.2985  -19.8083   19.0899 N   0  0  0  0  0  0  0  0  0  0  0  0
    8.5178  -17.8384   20.5094 C   0  0  0  0  0  0  0  0  0  0  0  0
    9.7437  -17.7503   20.3016 O   0  0  0  0  0  0  0  0  0  0  0  0
    7.6124  -12.9455   21.1260 C   0  0  0  0  0  0  0  0  0  0  0  0
    7.0927  -14.3524   20.8140 C   0  0  2  0  0  0  0  0  0  0  0  0
    5.7808  -14.5106   21.4969 C   0  0  0  0  0  0  0  0  0  0  0  0
    8.1419  -15.3664   21.1447 C   0  0  2  0  0  0  0  0  0  0  0  0
    7.7555  -16.7385   20.9035 N   0  0  0  0  0  0  0  0  0  0  0  0
    8.8535  -15.2079   22.4112 C   0  0  0  0  0  0  0  0  0  0  0  0
    9.4355  -14.0852   22.6847 O   0  0  0  0  0  0  0  0  0  0  0  0
    8.9594  -16.1920   23.3924 N   0  0  0  0  0  0  0  0  0  0  0  0
    9.8001  -16.0471   24.5893 C   0  0  1  0  0  0  0  0  0  0  0  0
    8.8267  -16.2256   25.7296 C   0  0  0  0  0  0  0  0  0  0  0  0
    7.7582  -15.2394   25.8302 C   0  0  0  0  0  0  0  0  0  0  0  0
    6.3913  -15.4940   25.6179 C   0  0  0  0  0  0  0  0  0  0  0  0
    5.7044  -14.3512   25.7593 N   0  0  0  0  0  0  0  0  0  0  0  0
    6.5371  -13.3344   26.0578 C   0  0  0  0  0  0  0  0  0  0  0  0
    6.2689  -12.0053   26.3038 C   0  0  0  0  0  0  0  0  0  0  0  0
    7.3283  -11.1810   26.6122 C   0  0  0  0  0  0  0  0  0  0  0  0
    8.6212  -11.7143   26.6645 C   0  0  0  0  0  0  0  0  0  0  0  0
    8.8481  -13.0437   26.4123 C   0  0  0  0  0  0  0  0  0  0  0  0
    7.8117  -13.8892   26.1015 C   0  0  0  0  0  0  0  0  0  0  0  0
   10.7963  -17.1049   24.5927 C   0  0  0  0  0  0  0  0  0  0  0  0
   11.7945  -17.1230   25.5516 O   0  0  0  0  0  0  0  0  0  0  0  0
   10.8328  -18.0543   23.7562 O   0  0  0  0  0  0  0  0  0  0  0  0
  2  1  1  0
  3  4  1  6
  3  2  1  0
  5  3  1  0
  6  5  2  0
  8  7  1  1
  8  9  1  0
 10  8  1  0
 10 11  1  1
 11  5  1  0
 12 10  1  0
 13 12  2  0
 14 12  1  0
 15 14  1  0
 15 16  1  1
 16 17  1  0
 17 25  1  0
 18 17  2  0
 18 19  1  0
 19 20  1  0
 20 21  1  0
 21 22  2  0
 23 22  1  0
 24 23  2  0
 25 20  2  0
 25 24  1  0
 26 15  1  0
 26 27  1  0
 28 26  2  0
M  END
$$$$
