SVW.pdb
     RDKit          3D

 28 29  0  0  1  0  0  0  0  0999 V2000
    5.6174  -15.6111   21.3647 O   0  0  0  0  0  0  0  0  0  0  0  0
    6.6634  -14.6969   21.1357 C   0  0  0  0  0  0  0  0  0  0  0  0
    7.7034  -15.3997   20.2942 C   0  0  2  0  0  0  0  0  0  0  0  0
    7.0335  -15.9936   19.1820 N   0  0  0  0  0  0  0  0  0  0  0  0
    8.3897  -16.4302   21.1603 C   0  0  0  0  0  0  0  0  0  0  0  0
    7.8975  -17.5754   21.1696 O   0  0  0  0  0  0  0  0  0  0  0  0
   12.5611  -16.2598   22.0434 C   0  0  0  0  0  0  0  0  0  0  0  0
   11.5898  -17.4236   22.2651 C   0  0  2  0  0  0  0  0  0  0  0  0
   11.5006  -18.1860   20.9911 C   0  0  0  0  0  0  0  0  0  0  0  0
   10.3011  -16.9099   22.8253 C   0  0  2  0  0  0  0  0  0  0  0  0
    9.5205  -16.1071   21.9107 N   0  0  0  0  0  0  0  0  0  0  0  0
   10.3333  -16.3400   24.1705 C   0  0  0  0  0  0  0  0  0  0  0  0
   10.6958  -15.1094   24.3381 O   0  0  0  0  0  0  0  0  0  0  0  0
    9.9881  -17.0263   25.3333 N   0  0  0  0  0  0  0  0  0  0  0  0
   10.1317  -16.4520   26.6788 C   0  0  1  0  0  0  0  0  0  0  0  0
    8.7239  -16.4707   27.2239 C   0  0  0  0  0  0  0  0  0  0  0  0
    7.7522  -15.6276   26.5388 C   0  0  0  0  0  0  0  0  0  0  0  0
    6.6914  -16.0904   25.7394 C   0  0  0  0  0  0  0  0  0  0  0  0
    6.0251  -15.0387   25.2417 N   0  0  0  0  0  0  0  0  0  0  0  0
    6.5803  -13.8857   25.6643 C   0  0  0  0  0  0  0  0  0  0  0  0
    6.2179  -12.5791   25.4187 C   0  0  0  0  0  0  0  0  0  0  0  0
    6.9631  -11.5824   26.0088 C   0  0  0  0  0  0  0  0  0  0  0  0
    8.0464  -11.9264   26.8254 C   0  0  0  0  0  0  0  0  0  0  0  0
    8.3765  -13.2398   27.0454 C   0  0  0  0  0  0  0  0  0  0  0  0
    7.6523  -14.2547   26.4699 C   0  0  0  0  0  0  0  0  0  0  0  0
   10.9995  -17.3124   27.4650 C   0  0  0  0  0  0  0  0  0  0  0  0
   11.4200  -16.9196   28.7240 O   0  0  0  0  0  0  0  0  0  0  0  0
   11.4245  -18.4411   27.0807 O   0  0  0  0  0  0  0  0  0  0  0  0
  2  1  1  0
  3  4  1  6
  3  2  1  0
  5  3  1  0
  6  5  2  0
  8  7  1  6
  8  9  1  0
 10  8  1  0
 10 11  1  6
 11  5  1  0
 12 10  1  0
 13 12  2  0
 14 12  1  0
 15 14  1  0
 15 16  1  1
 16 17  1  0
 17 25  1  0
 18 17  2  0
 18 19  1  0
 19 20  1  0
 20 21  1  0
 21 22  2  0
 23 22  1  0
 24 23  2  0
 25 20  2  0
 25 24  1  0
 26 15  1  0
 26 27  1  0
 28 26  2  0
M  END
$$$$
