SVW.pdb
     RDKit          3D

 28 29  0  0  1  0  0  0  0  0999 V2000
    7.3372  -19.1808   21.4472 O   0  0  0  0  0  0  0  0  0  0  0  0
    7.6683  -19.6826   20.1739 C   0  0  0  0  0  0  0  0  0  0  0  0
    7.4957  -18.5545   19.1834 C   0  0  2  0  0  0  0  0  0  0  0  0
    7.8165  -19.0612   17.8876 N   0  0  0  0  0  0  0  0  0  0  0  0
    8.4114  -17.4250   19.5942 C   0  0  0  0  0  0  0  0  0  0  0  0
    9.6291  -17.5807   19.3784 O   0  0  0  0  0  0  0  0  0  0  0  0
    8.5231  -12.5521   20.7051 C   0  0  0  0  0  0  0  0  0  0  0  0
    7.6863  -13.8150   20.4776 C   0  0  2  0  0  0  0  0  0  0  0  0
    6.5532  -13.7851   21.4407 C   0  0  0  0  0  0  0  0  0  0  0  0
    8.5674  -15.0233   20.5235 C   0  0  2  0  0  0  0  0  0  0  0  0
    7.9094  -16.2657   20.1863 N   0  0  0  0  0  0  0  0  0  0  0  0
    9.4549  -15.1639   21.6758 C   0  0  0  0  0  0  0  0  0  0  0  0
   10.5134  -14.4253   21.7651 O   0  0  0  0  0  0  0  0  0  0  0  0
    9.2523  -16.0502   22.7321 N   0  0  0  0  0  0  0  0  0  0  0  0
   10.1178  -16.0981   23.9192 C   0  0  1  0  0  0  0  0  0  0  0  0
    9.7786  -14.8251   24.6565 C   0  0  0  0  0  0  0  0  0  0  0  0
    8.3993  -14.6842   25.1062 C   0  0  0  0  0  0  0  0  0  0  0  0
    7.4311  -15.7045   25.0981 C   0  0  0  0  0  0  0  0  0  0  0  0
    6.2681  -15.2100   25.5464 N   0  0  0  0  0  0  0  0  0  0  0  0
    6.3995  -13.9056   25.8590 C   0  0  0  0  0  0  0  0  0  0  0  0
    5.4800  -13.0133   26.3661 C   0  0  0  0  0  0  0  0  0  0  0  0
    5.9019  -11.7264   26.6164 C   0  0  0  0  0  0  0  0  0  0  0  0
    7.2303  -11.3750   26.3510 C   0  0  0  0  0  0  0  0  0  0  0  0
    8.1164  -12.2922   25.8451 C   0  0  0  0  0  0  0  0  0  0  0  0
    7.7241  -13.5822   25.5849 C   0  0  0  0  0  0  0  0  0  0  0  0
    9.7615  -17.2625   24.7119 C   0  0  0  0  0  0  0  0  0  0  0  0
    8.7625  -18.1206   24.2851 O   0  0  0  0  0  0  0  0  0  0  0  0
   10.3095  -17.5742   25.8096 O   0  0  0  0  0  0  0  0  0  0  0  0
  2  1  1  0
  3  4  1  6
  3  2  1  0
  5  3  1  0
  6  5  2  0
  8  7  1  1
  8  9  1  0
 10  8  1  0
 10 11  1  1
 11  5  1  0
 12 10  1  0
 13 12  2  0
 14 12  1  0
 15 14  1  0
 15 16  1  1
 16 17  1  0
 17 25  1  0
 18 17  2  0
 18 19  1  0
 19 20  1  0
 20 21  1  0
 21 22  2  0
 23 22  1  0
 24 23  2  0
 25 20  2  0
 25 24  1  0
 26 15  1  0
 26 27  1  0
 28 26  2  0
M  END
$$$$
