SVW.pdb
     RDKit          3D

 28 29  0  0  1  0  0  0  0  0999 V2000
   10.5596  -12.7749   20.2714 O   0  0  0  0  0  0  0  0  0  0  0  0
    9.9738  -13.5075   19.2213 C   0  0  0  0  0  0  0  0  0  0  0  0
    8.4769  -13.4732   19.4248 C   0  0  2  0  0  0  0  0  0  0  0  0
    8.0818  -12.1041   19.5146 N   0  0  0  0  0  0  0  0  0  0  0  0
    8.1570  -14.2406   20.6865 C   0  0  0  0  0  0  0  0  0  0  0  0
    7.7045  -13.5844   21.6448 O   0  0  0  0  0  0  0  0  0  0  0  0
    6.4548  -17.8736   20.6270 C   0  0  0  0  0  0  0  0  0  0  0  0
    7.7490  -17.9216   21.4454 C   0  0  2  0  0  0  0  0  0  0  0  0
    7.5547  -18.9103   22.5395 C   0  0  0  0  0  0  0  0  0  0  0  0
    8.1394  -16.5381   21.8599 C   0  0  2  0  0  0  0  0  0  0  0  0
    8.3611  -15.6183   20.7666 N   0  0  0  0  0  0  0  0  0  0  0  0
    9.1552  -16.4110   22.9026 C   0  0  0  0  0  0  0  0  0  0  0  0
   10.3998  -16.2804   22.5744 O   0  0  0  0  0  0  0  0  0  0  0  0
    8.8937  -16.4097   24.2716 N   0  0  0  0  0  0  0  0  0  0  0  0
    9.9507  -16.3734   25.2923 C   0  0  1  0  0  0  0  0  0  0  0  0
    9.2786  -15.7184   26.4750 C   0  0  0  0  0  0  0  0  0  0  0  0
    8.0224  -15.0295   26.2073 C   0  0  0  0  0  0  0  0  0  0  0  0
    6.7970  -15.6540   25.9122 C   0  0  0  0  0  0  0  0  0  0  0  0
    5.8677  -14.7138   25.6877 N   0  0  0  0  0  0  0  0  0  0  0  0
    6.4013  -13.4830   25.8167 C   0  0  0  0  0  0  0  0  0  0  0  0
    5.8175  -12.2408   25.6940 C   0  0  0  0  0  0  0  0  0  0  0  0
    6.6088  -11.1337   25.9058 C   0  0  0  0  0  0  0  0  0  0  0  0
    7.9584  -11.3063   26.2337 C   0  0  0  0  0  0  0  0  0  0  0  0
    8.5035  -12.5603   26.3460 C   0  0  0  0  0  0  0  0  0  0  0  0
    7.7393  -13.6824   26.1397 C   0  0  0  0  0  0  0  0  0  0  0  0
   10.3403  -17.7363   25.6116 C   0  0  0  0  0  0  0  0  0  0  0  0
   11.4614  -17.9804   26.3862 O   0  0  0  0  0  0  0  0  0  0  0  0
    9.7158  -18.7671   25.2245 O   0  0  0  0  0  0  0  0  0  0  0  0
  2  1  1  0
  3  4  1  1
  3  2  1  0
  5  3  1  0
  6  5  2  0
  8  7  1  1
  8  9  1  0
 10  8  1  0
 10 11  1  6
 11  5  1  0
 12 10  1  0
 13 12  2  0
 14 12  1  0
 15 14  1  0
 15 16  1  1
 16 17  1  0
 17 25  1  0
 18 17  2  0
 18 19  1  0
 19 20  1  0
 20 21  1  0
 21 22  2  0
 23 22  1  0
 24 23  2  0
 25 20  2  0
 25 24  1  0
 26 15  1  0
 26 27  1  0
 28 26  2  0
M  END
$$$$
