SVW.pdb
     RDKit          3D

 28 29  0  0  1  0  0  0  0  0999 V2000
   11.4825  -12.9688   18.6604 O   0  0  0  0  0  0  0  0  0  0  0  0
   10.3019  -12.8954   19.4242 C   0  0  0  0  0  0  0  0  0  0  0  0
    9.3121  -13.8660   18.8229 C   0  0  2  0  0  0  0  0  0  0  0  0
    8.4211  -13.1199   17.9933 N   0  0  0  0  0  0  0  0  0  0  0  0
    8.5886  -14.5595   19.9537 C   0  0  0  0  0  0  0  0  0  0  0  0
    7.6115  -13.9628   20.4465 O   0  0  0  0  0  0  0  0  0  0  0  0
    9.2074  -18.8343   20.7082 C   0  0  0  0  0  0  0  0  0  0  0  0
    8.0355  -17.9630   21.1713 C   0  0  2  0  0  0  0  0  0  0  0  0
    6.9823  -18.0291   20.1231 C   0  0  0  0  0  0  0  0  0  0  0  0
    8.5295  -16.5981   21.5337 C   0  0  2  0  0  0  0  0  0  0  0  0
    9.0011  -15.8088   20.4180 N   0  0  0  0  0  0  0  0  0  0  0  0
    9.4067  -16.4884   22.6972 C   0  0  0  0  0  0  0  0  0  0  0  0
   10.6874  -16.4104   22.5309 O   0  0  0  0  0  0  0  0  0  0  0  0
    8.9714  -16.4510   24.0206 N   0  0  0  0  0  0  0  0  0  0  0  0
    9.8887  -16.3971   25.1679 C   0  0  1  0  0  0  0  0  0  0  0  0
    9.6923  -15.0031   25.7133 C   0  0  0  0  0  0  0  0  0  0  0  0
    8.3154  -14.5869   25.9484 C   0  0  0  0  0  0  0  0  0  0  0  0
    7.1995  -15.4426   25.9815 C   0  0  0  0  0  0  0  0  0  0  0  0
    6.0928  -14.7135   26.1853 N   0  0  0  0  0  0  0  0  0  0  0  0
    6.4023  -13.4063   26.2929 C   0  0  0  0  0  0  0  0  0  0  0  0
    5.5933  -12.3143   26.5206 C   0  0  0  0  0  0  0  0  0  0  0  0
    6.1916  -11.0768   26.6084 C   0  0  0  0  0  0  0  0  0  0  0  0
    7.5799  -10.9732   26.4655 C   0  0  0  0  0  0  0  0  0  0  0  0
    8.3519  -12.0845   26.2388 C   0  0  0  0  0  0  0  0  0  0  0  0
    7.7833  -13.3309   26.1457 C   0  0  0  0  0  0  0  0  0  0  0  0
    9.4785  -17.3936   26.1426 C   0  0  0  0  0  0  0  0  0  0  0  0
   10.2339  -17.6102   27.2823 O   0  0  0  0  0  0  0  0  0  0  0  0
    8.4436  -18.1145   26.0348 O   0  0  0  0  0  0  0  0  0  0  0  0
  2  1  1  0
  3  4  1  6
  3  2  1  0
  5  3  1  0
  6  5  2  0
  8  7  1  6
  8  9  1  0
 10  8  1  0
 10 11  1  6
 11  5  1  0
 12 10  1  0
 13 12  2  0
 14 12  1  0
 15 14  1  0
 15 16  1  1
 16 17  1  0
 17 25  1  0
 18 17  2  0
 18 19  1  0
 19 20  1  0
 20 21  1  0
 21 22  2  0
 23 22  1  0
 24 23  2  0
 25 20  2  0
 25 24  1  0
 26 15  1  0
 26 27  1  0
 28 26  2  0
M  END
$$$$
