DGP.pdb
     RDKit          3D

 20 20  0  0  1  0  0  0  0  0999 V2000
   24.4789  -14.0660  -18.3643 N   0  0  0  0  0  0  0  0  0  0  0  0
   25.1772  -14.0339  -19.6082 C   0  0  1  0  0  0  0  0  0  0  0  0
   24.3447  -13.4309  -20.7043 C   0  0  0  0  0  0  0  0  0  0  0  0
   23.1603  -14.2421  -21.0370 C   0  0  0  0  0  0  0  0  0  0  0  0
   22.1968  -14.2222  -20.2287 O   0  0  0  0  0  0  0  0  0  0  0  0
   26.5180  -13.4082  -19.5087 C   0  0  0  0  0  0  0  0  0  0  0  0
   27.2780  -13.4295  -20.5085 O   0  0  0  0  0  0  0  0  0  0  0  0
   23.0305  -15.0210  -22.1683 O   0  0  0  0  0  0  0  0  0  0  0  0
   26.9795  -12.7818  -18.3195 N   0  0  0  0  0  0  0  0  0  0  0  0
   28.2579  -12.1538  -18.1904 C   0  0  0  0  0  0  0  0  0  0  0  0
   28.2385  -10.7102  -18.5633 C   0  0  0  0  0  0  0  0  0  0  0  0
   27.2023  -10.3419  -19.1736 O   0  0  0  0  0  0  0  0  0  0  0  0
   29.3119   -9.8593  -18.2413 N   0  0  0  0  0  0  0  0  0  0  0  0
   30.4430  -10.2991  -17.3927 C   0  0  0  0  0  0  0  0  0  0  0  0
   31.6249   -9.7860  -18.2073 C   0  0  0  0  0  0  0  0  0  0  0  0
   31.0696   -8.7174  -19.1322 C   0  0  0  0  0  0  0  0  0  0  0  0
   29.6821   -8.5270  -18.5276 C   0  0  1  0  0  0  0  0  0  0  0  0
   28.8241   -7.6549  -19.2622 C   0  0  0  0  0  0  0  0  0  0  0  0
   28.6770   -7.9311  -20.6429 O   0  0  0  0  0  0  0  0  0  0  0  0
   28.1611   -6.6617  -18.8890 O   0  0  0  0  0  0  0  0  0  0  0  0
  2  1  1  1
  3  4  1  0
  3  2  1  0
  4  5  2  0
  6  7  2  0
  6  2  1  0
  8  4  1  0
  9  6  1  0
 10  9  1  0
 11 10  1  0
 12 11  2  0
 13 11  1  0
 13 17  1  0
 14 13  1  0
 14 15  1  0
 15 16  1  0
 17 16  1  0
 18 19  1  0
 17 18  1  6
 20 18  2  0
M  END
$$$$
