DGP.pdb
     RDKit          3D

 20 20  0  0  1  0  0  0  0  0999 V2000
   20.6564   -5.5588  -12.9182 N   0  0  0  0  0  0  0  0  0  0  0  0
   20.9792   -5.4977  -14.3068 C   0  0  1  0  0  0  0  0  0  0  0  0
   22.1542   -4.5992  -14.5713 C   0  0  0  0  0  0  0  0  0  0  0  0
   21.9152   -3.2056  -14.1562 C   0  0  0  0  0  0  0  0  0  0  0  0
   21.0108   -2.5682  -14.7544 O   0  0  0  0  0  0  0  0  0  0  0  0
   21.1400   -6.8346  -14.9278 C   0  0  0  0  0  0  0  0  0  0  0  0
   21.3304   -6.9140  -16.1669 O   0  0  0  0  0  0  0  0  0  0  0  0
   22.6094   -2.5492  -13.1608 O   0  0  0  0  0  0  0  0  0  0  0  0
   21.0868   -8.0368  -14.1718 N   0  0  0  0  0  0  0  0  0  0  0  0
   21.3278   -9.3366  -14.7177 C   0  0  0  0  0  0  0  0  0  0  0  0
   20.1819   -9.8537  -15.5194 C   0  0  0  0  0  0  0  0  0  0  0  0
   19.0515   -9.4703  -15.1233 O   0  0  0  0  0  0  0  0  0  0  0  0
   20.3880  -10.7008  -16.6240 N   0  0  0  0  0  0  0  0  0  0  0  0
   21.7023  -10.8189  -17.2958 C   0  0  0  0  0  0  0  0  0  0  0  0
   21.8233  -12.3336  -17.4181 C   0  0  0  0  0  0  0  0  0  0  0  0
   20.4155  -12.8837  -17.2729 C   0  0  0  0  0  0  0  0  0  0  0  0
   19.6059  -11.5959  -17.3862 C   0  0  1  0  0  0  0  0  0  0  0  0
   18.2058  -11.7472  -17.1553 C   0  0  0  0  0  0  0  0  0  0  0  0
   17.3512  -11.4448  -18.2429 O   0  0  0  0  0  0  0  0  0  0  0  0
   17.5846  -12.1104  -16.1318 O   0  0  0  0  0  0  0  0  0  0  0  0
  2  1  1  1
  3  4  1  0
  3  2  1  0
  4  5  2  0
  6  7  2  0
  6  2  1  0
  8  4  1  0
  9  6  1  0
 10  9  1  0
 11 10  1  0
 12 11  2  0
 13 11  1  0
 13 17  1  0
 14 13  1  0
 14 15  1  0
 15 16  1  0
 17 16  1  0
 18 19  1  0
 17 18  1  1
 20 18  2  0
M  END
$$$$
