DGP.pdb
     RDKit          3D

 20 20  0  0  1  0  0  0  0  0999 V2000
   14.8139   -9.0367   -9.3560 N   0  0  0  0  0  0  0  0  0  0  0  0
   15.6665   -8.0114   -9.8639 C   0  0  1  0  0  0  0  0  0  0  0  0
   15.6415   -6.7814   -9.0009 C   0  0  0  0  0  0  0  0  0  0  0  0
   14.3166   -6.1377   -8.9585 C   0  0  0  0  0  0  0  0  0  0  0  0
   13.9685   -5.5954   -7.8783 O   0  0  0  0  0  0  0  0  0  0  0  0
   17.0462   -8.4816  -10.1365 C   0  0  0  0  0  0  0  0  0  0  0  0
   17.6251   -9.2026   -9.2864 O   0  0  0  0  0  0  0  0  0  0  0  0
   13.4308   -6.0861  -10.0149 O   0  0  0  0  0  0  0  0  0  0  0  0
   17.7432   -8.1467  -11.3288 N   0  0  0  0  0  0  0  0  0  0  0  0
   19.0125   -8.6950  -11.6945 C   0  0  0  0  0  0  0  0  0  0  0  0
   19.5661   -8.1000  -12.9446 C   0  0  0  0  0  0  0  0  0  0  0  0
   18.7289   -7.4672  -13.6377 O   0  0  0  0  0  0  0  0  0  0  0  0
   20.9218   -8.2552  -13.2880 N   0  0  0  0  0  0  0  0  0  0  0  0
   21.9362   -8.7198  -12.3143 C   0  0  0  0  0  0  0  0  0  0  0  0
   22.6702   -9.7652  -13.1465 C   0  0  0  0  0  0  0  0  0  0  0  0
   22.3499   -9.4524  -14.5974 C   0  0  0  0  0  0  0  0  0  0  0  0
   21.7106   -8.0758  -14.4454 C   0  0  1  0  0  0  0  0  0  0  0  0
   21.1618   -7.5351  -15.6467 C   0  0  0  0  0  0  0  0  0  0  0  0
   20.1097   -8.2693  -16.2453 O   0  0  0  0  0  0  0  0  0  0  0  0
   21.4562   -6.4974  -16.2805 O   0  0  0  0  0  0  0  0  0  0  0  0
  2  1  1  1
  3  4  1  0
  3  2  1  0
  4  5  2  0
  6  7  2  0
  6  2  1  0
  8  4  1  0
  9  6  1  0
 10  9  1  0
 11 10  1  0
 12 11  2  0
 13 11  1  0
 13 17  1  0
 14 13  1  0
 14 15  1  0
 15 16  1  0
 17 16  1  0
 18 19  1  0
 17 18  1  6
 20 18  2  0
M  END
$$$$
