DGP.pdb
     RDKit          3D

 20 20  0  0  1  0  0  0  0  0999 V2000
   26.2824  -19.8382  -17.9265 N   0  0  0  0  0  0  0  0  0  0  0  0
   25.1743  -19.2458  -17.2501 C   0  0  1  0  0  0  0  0  0  0  0  0
   23.8600  -19.7359  -17.7891 C   0  0  0  0  0  0  0  0  0  0  0  0
   23.6670  -19.4096  -19.2132 C   0  0  0  0  0  0  0  0  0  0  0  0
   23.4913  -20.3670  -20.0099 O   0  0  0  0  0  0  0  0  0  0  0  0
   25.2593  -19.3663  -15.7745 C   0  0  0  0  0  0  0  0  0  0  0  0
   24.5493  -18.6175  -15.0584 O   0  0  0  0  0  0  0  0  0  0  0  0
   23.6647  -18.1330  -19.7364 O   0  0  0  0  0  0  0  0  0  0  0  0
   26.1175  -20.3012  -15.1350 N   0  0  0  0  0  0  0  0  0  0  0  0
   26.1990  -20.4731  -13.7175 C   0  0  0  0  0  0  0  0  0  0  0  0
   24.8709  -20.7071  -13.0814 C   0  0  0  0  0  0  0  0  0  0  0  0
   23.8921  -20.6153  -13.8659 O   0  0  0  0  0  0  0  0  0  0  0  0
   24.7610  -21.0043  -11.7105 N   0  0  0  0  0  0  0  0  0  0  0  0
   25.9127  -21.4778  -10.9090 C   0  0  0  0  0  0  0  0  0  0  0  0
   25.7826  -20.5924   -9.6749 C   0  0  0  0  0  0  0  0  0  0  0  0
   24.3520  -20.0835   -9.6679 C   0  0  0  0  0  0  0  0  0  0  0  0
   23.7377  -20.9807  -10.7378 C   0  0  1  0  0  0  0  0  0  0  0  0
   22.3887  -20.6655  -11.0805 C   0  0  0  0  0  0  0  0  0  0  0  0
   21.3792  -21.3355  -10.3481 O   0  0  0  0  0  0  0  0  0  0  0  0
   21.9299  -19.8790  -11.9385 O   0  0  0  0  0  0  0  0  0  0  0  0
  2  1  1  6
  3  4  1  0
  3  2  1  0
  4  5  2  0
  6  7  2  0
  6  2  1  0
  8  4  1  0
  9  6  1  0
 10  9  1  0
 11 10  1  0
 12 11  2  0
 13 11  1  0
 13 17  1  0
 14 13  1  0
 14 15  1  0
 15 16  1  0
 17 16  1  0
 18 19  1  0
 17 18  1  6
 20 18  2  0
M  END
$$$$
