DGP.pdb
     RDKit          3D

 20 20  0  0  1  0  0  0  0  0999 V2000
   23.4312  -20.5657  -14.6469 N   0  0  0  0  0  0  0  0  0  0  0  0
   22.6791  -19.3847  -14.3717 C   0  0  1  0  0  0  0  0  0  0  0  0
   21.8027  -18.9947  -15.5284 C   0  0  0  0  0  0  0  0  0  0  0  0
   22.5373  -18.9165  -16.8034 C   0  0  0  0  0  0  0  0  0  0  0  0
   23.7756  -18.7027  -16.7483 O   0  0  0  0  0  0  0  0  0  0  0  0
   21.9294  -19.4549  -13.0942 C   0  0  0  0  0  0  0  0  0  0  0  0
   20.7116  -19.1475  -13.0826 O   0  0  0  0  0  0  0  0  0  0  0  0
   21.9677  -19.0602  -18.0518 O   0  0  0  0  0  0  0  0  0  0  0  0
   22.5383  -19.8587  -11.8752 N   0  0  0  0  0  0  0  0  0  0  0  0
   21.8447  -19.9563  -10.6283 C   0  0  0  0  0  0  0  0  0  0  0  0
   20.9505  -21.1469  -10.5503 C   0  0  0  0  0  0  0  0  0  0  0  0
   20.3710  -21.4369  -11.6282 O   0  0  0  0  0  0  0  0  0  0  0  0
   20.7930  -21.8634   -9.3495 N   0  0  0  0  0  0  0  0  0  0  0  0
   21.7938  -21.8099   -8.2594 C   0  0  0  0  0  0  0  0  0  0  0  0
   20.8870  -21.6009   -7.0519 C   0  0  0  0  0  0  0  0  0  0  0  0
   19.4992  -22.0407   -7.4835 C   0  0  0  0  0  0  0  0  0  0  0  0
   19.8305  -22.7379   -8.7992 C   0  0  1  0  0  0  0  0  0  0  0  0
   18.6960  -23.1679   -9.5505 C   0  0  0  0  0  0  0  0  0  0  0  0
   18.3977  -24.5512   -9.5057 O   0  0  0  0  0  0  0  0  0  0  0  0
   17.8972  -22.5183  -10.2613 O   0  0  0  0  0  0  0  0  0  0  0  0
  2  1  1  6
  3  4  1  0
  3  2  1  0
  4  5  2  0
  6  7  2  0
  6  2  1  0
  8  4  1  0
  9  6  1  0
 10  9  1  0
 11 10  1  0
 12 11  2  0
 13 11  1  0
 13 17  1  0
 14 13  1  0
 14 15  1  0
 15 16  1  0
 17 16  1  0
 18 19  1  0
 17 18  1  6
 20 18  2  0
M  END
$$$$
