DGP.pdb
     RDKit          3D

 20 20  0  0  1  0  0  0  0  0999 V2000
   17.9078  -12.2903  -15.7060 N   0  0  0  0  0  0  0  0  0  0  0  0
   18.2559  -11.1527  -16.4939 C   0  0  1  0  0  0  0  0  0  0  0  0
   17.0568  -10.5485  -17.1686 C   0  0  0  0  0  0  0  0  0  0  0  0
   16.4060  -11.4715  -18.1153 C   0  0  0  0  0  0  0  0  0  0  0  0
   15.3275  -12.0089  -17.7543 O   0  0  0  0  0  0  0  0  0  0  0  0
   19.0499  -10.1469  -15.7475 C   0  0  0  0  0  0  0  0  0  0  0  0
   18.5914   -9.6795  -14.6756 O   0  0  0  0  0  0  0  0  0  0  0  0
   16.8918  -11.7894  -19.3668 O   0  0  0  0  0  0  0  0  0  0  0  0
   20.3166   -9.6884  -16.2001 N   0  0  0  0  0  0  0  0  0  0  0  0
   21.1318   -8.7554  -15.4856 C   0  0  0  0  0  0  0  0  0  0  0  0
   20.6343   -7.3531  -15.5824 C   0  0  0  0  0  0  0  0  0  0  0  0
   19.9415   -7.1136  -16.6043 O   0  0  0  0  0  0  0  0  0  0  0  0
   20.9364   -6.4020  -14.5903 N   0  0  0  0  0  0  0  0  0  0  0  0
   21.3592   -6.7899  -13.2252 C   0  0  0  0  0  0  0  0  0  0  0  0
   22.5518   -5.8621  -13.0233 C   0  0  0  0  0  0  0  0  0  0  0  0
   22.3916   -4.7406  -14.0342 C   0  0  0  0  0  0  0  0  0  0  0  0
   20.9604   -4.9932  -14.4979 C   0  0  1  0  0  0  0  0  0  0  0  0
   20.5266   -4.1664  -15.5771 C   0  0  0  0  0  0  0  0  0  0  0  0
   21.1421   -4.3931  -16.8317 O   0  0  0  0  0  0  0  0  0  0  0  0
   19.6740   -3.2513  -15.6090 O   0  0  0  0  0  0  0  0  0  0  0  0
  2  1  1  1
  3  4  1  0
  3  2  1  0
  4  5  2  0
  6  7  2  0
  6  2  1  0
  8  4  1  0
  9  6  1  0
 10  9  1  0
 11 10  1  0
 12 11  2  0
 13 11  1  0
 13 17  1  0
 14 13  1  0
 14 15  1  0
 15 16  1  0
 17 16  1  0
 18 19  1  0
 17 18  1  6
 20 18  2  0
M  END
$$$$
