PCV.pdb
     RDKit          3D

 21 21  0  0  1  0  0  0  0  0999 V2000
   24.5291  -13.7660  -17.9690 N   0  0  0  0  0  0  0  0  0  0  0  0
   24.4378  -13.8137  -19.3991 C   0  0  0  0  0  0  0  0  0  0  0  0
   24.6849  -12.4131  -19.9179 C   0  0  0  0  0  0  0  0  0  0  0  0
   25.4576  -11.8154  -18.7430 C   0  0  0  0  0  0  0  0  0  0  0  0
   24.6345  -12.3859  -17.5798 C   0  0  1  0  0  0  0  0  0  0  0  0
   23.2977  -11.7646  -17.5691 C   0  0  0  0  0  0  0  0  0  0  0  0
   22.6781  -11.5656  -18.6661 O   0  0  0  0  0  0  0  0  0  0  0  0
   22.6204  -11.3557  -16.3992 N   0  0  0  0  0  0  0  0  0  0  0  0
   21.3315  -10.7180  -16.3988 C   0  0  1  0  0  0  0  0  0  0  0  0
   20.3189  -11.4282  -15.5400 C   0  0  0  0  0  0  0  0  0  0  0  0
   18.7503  -10.5565  -15.4601 S   0  0  0  0  0  0  0  0  0  0  0  0
   21.4699   -9.3284  -15.8917 C   0  0  0  0  0  0  0  0  0  0  0  0
   22.1851   -9.0565  -14.8753 O   0  0  0  0  0  0  0  0  0  0  0  0
   20.2325   -6.1825  -18.2676 C   0  0  0  0  0  0  0  0  0  0  0  0
   21.2937   -6.0106  -17.2253 C   0  0  1  0  0  0  0  0  0  0  0  0
   21.5093   -4.5873  -16.8219 C   0  0  0  0  0  0  0  0  0  0  0  0
   20.9342   -6.8901  -16.0254 C   0  0  2  0  0  0  0  0  0  0  0  0
   20.7954   -8.2395  -16.5379 N   0  0  0  0  0  0  0  0  0  0  0  0
   19.6312   -6.3921  -15.5245 C   0  0  0  0  0  0  0  0  0  0  0  0
   19.6304   -5.3588  -14.6035 O   0  0  0  0  0  0  0  0  0  0  0  0
   18.5219   -6.8529  -15.8866 O   0  0  0  0  0  0  0  0  0  0  0  0
  1  2  1  0
  3  2  1  0
  4  5  1  0
  4  3  1  0
  5  1  1  0
  5  6  1  6
  6  8  1  0
  7  6  2  0
  9 10  1  1
  9  8  1  0
  9 12  1  0
 11 10  1  0
 12 18  1  0
 13 12  2  0
 15 14  1  6
 15 16  1  0
 17 15  1  0
 17 18  1  6
 19 17  1  0
 19 20  1  0
 21 19  2  0
M  END
$$$$
