PCV.pdb
     RDKit          3D

 21 21  0  0  1  0  0  0  0  0999 V2000
   28.8867  -20.7341  -15.2987 N   0  0  0  0  0  0  0  0  0  0  0  0
   28.0857  -20.6349  -16.4838 C   0  0  0  0  0  0  0  0  0  0  0  0
   27.0907  -19.5145  -16.2681 C   0  0  0  0  0  0  0  0  0  0  0  0
   27.8094  -18.7110  -15.1853 C   0  0  0  0  0  0  0  0  0  0  0  0
   28.3163  -19.8632  -14.3069 C   0  0  1  0  0  0  0  0  0  0  0  0
   27.1730  -20.5271  -13.6549 C   0  0  0  0  0  0  0  0  0  0  0  0
   26.5758  -21.4901  -14.2404 O   0  0  0  0  0  0  0  0  0  0  0  0
   26.6647  -20.1711  -12.3862 N   0  0  0  0  0  0  0  0  0  0  0  0
   25.5383  -20.8123  -11.7635 C   0  0  1  0  0  0  0  0  0  0  0  0
   25.4330  -20.5251  -10.2891 C   0  0  0  0  0  0  0  0  0  0  0  0
   24.0389  -21.3589   -9.5223 S   0  0  0  0  0  0  0  0  0  0  0  0
   24.2857  -20.3465  -12.4127 C   0  0  0  0  0  0  0  0  0  0  0  0
   24.0863  -19.1176  -12.6744 O   0  0  0  0  0  0  0  0  0  0  0  0
   20.4414  -21.2983  -15.1751 C   0  0  0  0  0  0  0  0  0  0  0  0
   21.7632  -21.6832  -14.5862 C   0  0  1  0  0  0  0  0  0  0  0  0
   22.8941  -21.6148  -15.5616 C   0  0  0  0  0  0  0  0  0  0  0  0
   22.0181  -20.8004  -13.3622 C   0  0  2  0  0  0  0  0  0  0  0  0
   23.2524  -21.2760  -12.7681 N   0  0  0  0  0  0  0  0  0  0  0  0
   20.8797  -21.0325  -12.4418 C   0  0  0  0  0  0  0  0  0  0  0  0
   20.8963  -22.1643  -11.6452 O   0  0  0  0  0  0  0  0  0  0  0  0
   19.8958  -20.2607  -12.3401 O   0  0  0  0  0  0  0  0  0  0  0  0
  1  2  1  0
  3  2  1  0
  4  5  1  0
  4  3  1  0
  5  1  1  0
  5  6  1  6
  6  8  1  0
  7  6  2  0
  9 10  1  1
  9  8  1  0
  9 12  1  0
 11 10  1  0
 12 18  1  0
 13 12  2  0
 15 14  1  6
 15 16  1  0
 17 15  1  0
 17 18  1  1
 19 17  1  0
 19 20  1  0
 21 19  2  0
M  END
$$$$
