PCV.pdb
     RDKit          3D

 21 21  0  0  1  0  0  0  0  0999 V2000
   26.7317  -20.9545  -16.4296 N   0  0  0  0  0  0  0  0  0  0  0  0
   25.3585  -20.5792  -16.2584 C   0  0  0  0  0  0  0  0  0  0  0  0
   25.3307  -19.3374  -15.3929 C   0  0  0  0  0  0  0  0  0  0  0  0
   26.7428  -18.8038  -15.6295 C   0  0  0  0  0  0  0  0  0  0  0  0
   27.5271  -20.1218  -15.5686 C   0  0  1  0  0  0  0  0  0  0  0  0
   27.4979  -20.6509  -14.1930 C   0  0  0  0  0  0  0  0  0  0  0  0
   26.4665  -21.2705  -13.7697 O   0  0  0  0  0  0  0  0  0  0  0  0
   28.5588  -20.5233  -13.2695 N   0  0  0  0  0  0  0  0  0  0  0  0
   28.5466  -21.0921  -11.9488 C   0  0  1  0  0  0  0  0  0  0  0  0
   29.9227  -21.2484  -11.3579 C   0  0  0  0  0  0  0  0  0  0  0  0
   30.9284  -22.4344  -12.2571 S   0  0  0  0  0  0  0  0  0  0  0  0
   27.7547  -20.2193  -11.0441 C   0  0  0  0  0  0  0  0  0  0  0  0
   27.6973  -18.9597  -11.2129 O   0  0  0  0  0  0  0  0  0  0  0  0
   24.2159  -20.2767  -10.1724 C   0  0  0  0  0  0  0  0  0  0  0  0
   24.9208  -20.4507   -8.8629 C   0  0  1  0  0  0  0  0  0  0  0  0
   24.9222  -21.8615   -8.3684 C   0  0  0  0  0  0  0  0  0  0  0  0
   26.3418  -19.9005   -9.0065 C   0  0  2  0  0  0  0  0  0  0  0  0
   27.0233  -20.7744   -9.9419 N   0  0  0  0  0  0  0  0  0  0  0  0
   26.9605  -20.0000   -7.6633 C   0  0  0  0  0  0  0  0  0  0  0  0
   26.6398  -19.0418   -6.7173 O   0  0  0  0  0  0  0  0  0  0  0  0
   27.7623  -20.9054   -7.3294 O   0  0  0  0  0  0  0  0  0  0  0  0
  1  2  1  0
  3  2  1  0
  4  5  1  0
  4  3  1  0
  5  1  1  0
  5  6  1  1
  6  8  1  0
  7  6  2  0
  9 10  1  1
  9  8  1  0
  9 12  1  0
 11 10  1  0
 12 18  1  0
 13 12  2  0
 15 14  1  6
 15 16  1  0
 17 15  1  0
 17 18  1  6
 19 17  1  0
 19 20  1  0
 21 19  2  0
M  END
$$$$
