PCV.pdb
     RDKit          3D

 21 21  0  0  1  0  0  0  0  0999 V2000
   27.9955  -23.1089  -17.8996 N   0  0  0  0  0  0  0  0  0  0  0  0
   28.5768  -22.0898  -18.7238 C   0  0  0  0  0  0  0  0  0  0  0  0
   29.9042  -21.7062  -18.1051 C   0  0  0  0  0  0  0  0  0  0  0  0
   30.2033  -22.9639  -17.2906 C   0  0  0  0  0  0  0  0  0  0  0  0
   28.8052  -23.2354  -16.7182 C   0  0  1  0  0  0  0  0  0  0  0  0
   28.4525  -22.1783  -15.7533 C   0  0  0  0  0  0  0  0  0  0  0  0
   29.1377  -22.0333  -14.6872 O   0  0  0  0  0  0  0  0  0  0  0  0
   27.3770  -21.2779  -15.9182 N   0  0  0  0  0  0  0  0  0  0  0  0
   27.0007  -20.2893  -14.9442 C   0  0  1  0  0  0  0  0  0  0  0  0
   26.3308  -19.0847  -15.5504 C   0  0  0  0  0  0  0  0  0  0  0  0
   27.4758  -17.7308  -15.8377 S   0  0  0  0  0  0  0  0  0  0  0  0
   26.0599  -20.8946  -13.9665 C   0  0  0  0  0  0  0  0  0  0  0  0
   25.1914  -21.7544  -14.3197 O   0  0  0  0  0  0  0  0  0  0  0  0
   24.4202  -20.9170   -9.3080 C   0  0  0  0  0  0  0  0  0  0  0  0
   25.5176  -20.5785  -10.2688 C   0  0  1  0  0  0  0  0  0  0  0  0
   26.8326  -21.1953   -9.9147 C   0  0  0  0  0  0  0  0  0  0  0  0
   25.0649  -20.9803  -11.6746 C   0  0  2  0  0  0  0  0  0  0  0  0
   26.1015  -20.5252  -12.5808 N   0  0  0  0  0  0  0  0  0  0  0  0
   23.8014  -20.2474  -11.9264 C   0  0  0  0  0  0  0  0  0  0  0  0
   22.6036  -20.8882  -11.6609 O   0  0  0  0  0  0  0  0  0  0  0  0
   23.7512  -19.0743  -12.3684 O   0  0  0  0  0  0  0  0  0  0  0  0
  1  2  1  0
  3  2  1  0
  4  5  1  0
  4  3  1  0
  5  1  1  0
  5  6  1  1
  6  8  1  0
  7  6  2  0
  9 10  1  6
  9  8  1  0
  9 12  1  0
 11 10  1  0
 12 18  1  0
 13 12  2  0
 15 14  1  1
 15 16  1  0
 17 15  1  0
 17 18  1  6
 19 17  1  0
 19 20  1  0
 21 19  2  0
M  END
$$$$
