PCV.pdb
     RDKit          3D

 21 21  0  0  1  0  0  0  0  0999 V2000
   28.7862  -22.7510  -16.8276 N   0  0  0  0  0  0  0  0  0  0  0  0
   27.8897  -23.6029  -17.5531 C   0  0  0  0  0  0  0  0  0  0  0  0
   27.1361  -22.7359  -18.5392 C   0  0  0  0  0  0  0  0  0  0  0  0
   28.0990  -21.5559  -18.6621 C   0  0  0  0  0  0  0  0  0  0  0  0
   28.4896  -21.3908  -17.1869 C   0  0  1  0  0  0  0  0  0  0  0  0
   27.3264  -20.9116  -16.4185 C   0  0  0  0  0  0  0  0  0  0  0  0
   26.5550  -21.7475  -15.8414 O   0  0  0  0  0  0  0  0  0  0  0  0
   26.9824  -19.5507  -16.2627 N   0  0  0  0  0  0  0  0  0  0  0  0
   25.9419  -19.0804  -15.3887 C   0  0  1  0  0  0  0  0  0  0  0  0
   26.3192  -17.8320  -14.6360 C   0  0  0  0  0  0  0  0  0  0  0  0
   27.7736  -18.0606  -13.6068 S   0  0  0  0  0  0  0  0  0  0  0  0
   24.7243  -18.7850  -16.1871 C   0  0  0  0  0  0  0  0  0  0  0  0
   24.7923  -18.2171  -17.3234 O   0  0  0  0  0  0  0  0  0  0  0  0
   19.9913  -19.7102  -16.9597 C   0  0  0  0  0  0  0  0  0  0  0  0
   21.2726  -20.0113  -16.2457 C   0  0  1  0  0  0  0  0  0  0  0  0
   21.8707  -21.3286  -16.6224 C   0  0  0  0  0  0  0  0  0  0  0  0
   22.2447  -18.8562  -16.4976 C   0  0  2  0  0  0  0  0  0  0  0  0
   23.4217  -19.1339  -15.6974 N   0  0  0  0  0  0  0  0  0  0  0  0
   21.5663  -17.6321  -16.0096 C   0  0  0  0  0  0  0  0  0  0  0  0
   20.8188  -16.8902  -16.9077 O   0  0  0  0  0  0  0  0  0  0  0  0
   21.6287  -17.2249  -14.8245 O   0  0  0  0  0  0  0  0  0  0  0  0
  1  2  1  0
  3  2  1  0
  4  5  1  0
  4  3  1  0
  5  1  1  0
  5  6  1  1
  6  8  1  0
  7  6  2  0
  9 10  1  6
  9  8  1  0
  9 12  1  0
 11 10  1  0
 12 18  1  0
 13 12  2  0
 15 14  1  6
 15 16  1  0
 17 15  1  0
 17 18  1  1
 19 17  1  0
 19 20  1  0
 21 19  2  0
M  END
$$$$
