PCV.pdb
     RDKit          3D

 21 21  0  0  1  0  0  0  0  0999 V2000
   20.5695  -13.5114  -18.5098 N   0  0  0  0  0  0  0  0  0  0  0  0
   19.1666  -13.4807  -18.8048 C   0  0  0  0  0  0  0  0  0  0  0  0
   18.8461  -12.1049  -19.3492 C   0  0  0  0  0  0  0  0  0  0  0  0
   20.2271  -11.6731  -19.8401 C   0  0  0  0  0  0  0  0  0  0  0  0
   21.0830  -12.1780  -18.6703 C   0  0  1  0  0  0  0  0  0  0  0  0
   20.7921  -11.3805  -17.4651 C   0  0  0  0  0  0  0  0  0  0  0  0
   19.7858  -11.6694  -16.7366 O   0  0  0  0  0  0  0  0  0  0  0  0
   21.5657  -10.2804  -17.0339 N   0  0  0  0  0  0  0  0  0  0  0  0
   21.4167   -9.6473  -15.7515 C   0  0  1  0  0  0  0  0  0  0  0  0
   22.1864  -10.3373  -14.6567 C   0  0  0  0  0  0  0  0  0  0  0  0
   23.9034  -10.6268  -15.0982 S   0  0  0  0  0  0  0  0  0  0  0  0
   21.8971   -8.2439  -15.8364 C   0  0  0  0  0  0  0  0  0  0  0  0
   22.8588   -7.9124  -16.6003 O   0  0  0  0  0  0  0  0  0  0  0  0
   20.8165   -3.5718  -15.5250 C   0  0  0  0  0  0  0  0  0  0  0  0
   20.4582   -5.0257  -15.5380 C   0  0  1  0  0  0  0  0  0  0  0  0
   19.8383   -5.4764  -16.8215 C   0  0  0  0  0  0  0  0  0  0  0  0
   21.7152   -5.8323  -15.2033 C   0  0  2  0  0  0  0  0  0  0  0  0
   21.2862   -7.2092  -15.0525 N   0  0  0  0  0  0  0  0  0  0  0  0
   22.2134   -5.3029  -13.9116 C   0  0  0  0  0  0  0  0  0  0  0  0
   21.7544   -5.8817  -12.7411 O   0  0  0  0  0  0  0  0  0  0  0  0
   23.0310   -4.3562  -13.8141 O   0  0  0  0  0  0  0  0  0  0  0  0
  1  2  1  0
  3  2  1  0
  4  5  1  0
  4  3  1  0
  5  1  1  0
  5  6  1  1
  6  8  1  0
  7  6  2  0
  9 10  1  1
  9  8  1  0
  9 12  1  0
 11 10  1  0
 12 18  1  0
 13 12  2  0
 15 14  1  6
 15 16  1  0
 17 15  1  0
 17 18  1  1
 19 17  1  0
 19 20  1  0
 21 19  2  0
M  END
$$$$
