PCV.pdb
     RDKit          3D

 21 21  0  0  1  0  0  0  0  0999 V2000
   25.5160  -14.5535  -17.1729 N   0  0  0  0  0  0  0  0  0  0  0  0
   26.9317  -14.4625  -17.3813 C   0  0  0  0  0  0  0  0  0  0  0  0
   27.5914  -14.4356  -16.0190 C   0  0  0  0  0  0  0  0  0  0  0  0
   26.5014  -15.0895  -15.1710 C   0  0  0  0  0  0  0  0  0  0  0  0
   25.2667  -14.3981  -15.7655 C   0  0  1  0  0  0  0  0  0  0  0  0
   25.2817  -12.9679  -15.4087 C   0  0  0  0  0  0  0  0  0  0  0  0
   25.3671  -12.6165  -14.1856 O   0  0  0  0  0  0  0  0  0  0  0  0
   25.2063  -11.9139  -16.3458 N   0  0  0  0  0  0  0  0  0  0  0  0
   25.1575  -10.5223  -15.9870 C   0  0  1  0  0  0  0  0  0  0  0  0
   26.2416   -9.7041  -16.6371 C   0  0  0  0  0  0  0  0  0  0  0  0
   27.8039   -9.8059  -15.7564 S   0  0  0  0  0  0  0  0  0  0  0  0
   23.8466   -9.9544  -16.3947 C   0  0  0  0  0  0  0  0  0  0  0  0
   23.4130  -10.0633  -17.5857 O   0  0  0  0  0  0  0  0  0  0  0  0
   19.4014   -8.5596  -15.2579 C   0  0  0  0  0  0  0  0  0  0  0  0
   20.6683   -9.3340  -15.0644 C   0  0  1  0  0  0  0  0  0  0  0  0
   20.5402  -10.7835  -15.4071 C   0  0  0  0  0  0  0  0  0  0  0  0
   21.7735   -8.6562  -15.8778 C   0  0  2  0  0  0  0  0  0  0  0  0
   23.0209   -9.2590  -15.4497 N   0  0  0  0  0  0  0  0  0  0  0  0
   21.7393   -7.2219  -15.5056 C   0  0  0  0  0  0  0  0  0  0  0  0
   20.9709   -6.3608  -16.2698 O   0  0  0  0  0  0  0  0  0  0  0  0
   22.3682   -6.7379  -14.5339 O   0  0  0  0  0  0  0  0  0  0  0  0
  1  2  1  0
  3  2  1  0
  4  5  1  0
  4  3  1  0
  5  1  1  0
  5  6  1  6
  6  8  1  0
  7  6  2  0
  9 10  1  6
  9  8  1  0
  9 12  1  0
 11 10  1  0
 12 18  1  0
 13 12  2  0
 15 14  1  6
 15 16  1  0
 17 15  1  0
 17 18  1  1
 19 17  1  0
 19 20  1  0
 21 19  2  0
M  END
$$$$
