PCV.pdb
     RDKit          3D

 21 21  0  0  1  0  0  0  0  0999 V2000
   29.5875  -14.4426  -19.3012 N   0  0  0  0  0  0  0  0  0  0  0  0
   30.1440  -15.1596  -20.4112 C   0  0  0  0  0  0  0  0  0  0  0  0
   31.5638  -15.5357  -20.0442 C   0  0  0  0  0  0  0  0  0  0  0  0
   31.4794  -15.4799  -18.5197 C   0  0  0  0  0  0  0  0  0  0  0  0
   30.6448  -14.2020  -18.3570 C   0  0  1  0  0  0  0  0  0  0  0  0
   31.4399  -13.0354  -18.7814 C   0  0  0  0  0  0  0  0  0  0  0  0
   32.1544  -13.1000  -19.8360 O   0  0  0  0  0  0  0  0  0  0  0  0
   31.4771  -11.8046  -18.0898 N   0  0  0  0  0  0  0  0  0  0  0  0
   32.1551  -10.6321  -18.5730 C   0  0  1  0  0  0  0  0  0  0  0  0
   31.6250  -10.1432  -19.8948 C   0  0  0  0  0  0  0  0  0  0  0  0
   32.3670   -8.5880  -20.4023 S   0  0  0  0  0  0  0  0  0  0  0  0
   32.0053   -9.5339  -17.5835 C   0  0  0  0  0  0  0  0  0  0  0  0
   30.8903   -9.2881  -17.0225 O   0  0  0  0  0  0  0  0  0  0  0  0
   34.2704   -6.1951  -14.7636 C   0  0  0  0  0  0  0  0  0  0  0  0
   34.3711   -7.3393  -15.7244 C   0  0  1  0  0  0  0  0  0  0  0  0
   35.0322   -8.5487  -15.1454 C   0  0  0  0  0  0  0  0  0  0  0  0
   32.9659   -7.6561  -16.2416 C   0  0  2  0  0  0  0  0  0  0  0  0
   33.1232   -8.7087  -17.2265 N   0  0  0  0  0  0  0  0  0  0  0  0
   32.4742   -6.4155  -16.8867 C   0  0  0  0  0  0  0  0  0  0  0  0
   32.8629   -6.1509  -18.1886 O   0  0  0  0  0  0  0  0  0  0  0  0
   31.7225   -5.5854  -16.3211 O   0  0  0  0  0  0  0  0  0  0  0  0
  1  2  1  0
  3  2  1  0
  4  5  1  0
  4  3  1  0
  5  1  1  0
  5  6  1  6
  6  8  1  0
  7  6  2  0
  9 10  1  6
  9  8  1  0
  9 12  1  0
 11 10  1  0
 12 18  1  0
 13 12  2  0
 15 14  1  1
 15 16  1  0
 17 15  1  0
 17 18  1  6
 19 17  1  0
 19 20  1  0
 21 19  2  0
M  END
$$$$
