PCV.pdb
     RDKit          3D

 21 21  0  0  1  0  0  0  0  0999 V2000
   18.8292  -10.9799  -16.1950 N   0  0  0  0  0  0  0  0  0  0  0  0
   17.7813  -11.0343  -17.1721 C   0  0  0  0  0  0  0  0  0  0  0  0
   17.2160   -9.6369  -17.3114 C   0  0  0  0  0  0  0  0  0  0  0  0
   18.3947   -8.8096  -16.8007 C   0  0  0  0  0  0  0  0  0  0  0  0
   18.8097   -9.6711  -15.6000 C   0  0  1  0  0  0  0  0  0  0  0  0
   17.7650   -9.6079  -14.5620 C   0  0  0  0  0  0  0  0  0  0  0  0
   16.7391  -10.3615  -14.6428 O   0  0  0  0  0  0  0  0  0  0  0  0
   17.8079   -8.7485  -13.4420 N   0  0  0  0  0  0  0  0  0  0  0  0
   17.0164   -8.9348  -12.2560 C   0  0  1  0  0  0  0  0  0  0  0  0
   17.3453  -10.2049  -11.5172 C   0  0  0  0  0  0  0  0  0  0  0  0
   16.5001  -10.3216   -9.9365 S   0  0  0  0  0  0  0  0  0  0  0  0
   17.2401   -7.7942  -11.3306 C   0  0  0  0  0  0  0  0  0  0  0  0
   18.4002   -7.5039  -10.8968 O   0  0  0  0  0  0  0  0  0  0  0  0
   16.2542   -4.2697  -11.9369 C   0  0  0  0  0  0  0  0  0  0  0  0
   15.5939   -4.6687  -10.6535 C   0  0  1  0  0  0  0  0  0  0  0  0
   14.1474   -5.0133  -10.8082 C   0  0  0  0  0  0  0  0  0  0  0  0
   16.3890   -5.8263  -10.0450 C   0  0  2  0  0  0  0  0  0  0  0  0
   16.1452   -6.9769  -10.8933 N   0  0  0  0  0  0  0  0  0  0  0  0
   15.8213   -6.0518   -8.6945 C   0  0  0  0  0  0  0  0  0  0  0  0
   16.2029   -5.2038   -7.6691 O   0  0  0  0  0  0  0  0  0  0  0  0
   15.0110   -6.9701   -8.4223 O   0  0  0  0  0  0  0  0  0  0  0  0
  1  2  1  0
  3  2  1  0
  4  5  1  0
  4  3  1  0
  5  1  1  0
  5  6  1  1
  6  8  1  0
  7  6  2  0
  9 10  1  1
  9  8  1  0
  9 12  1  0
 11 10  1  0
 12 18  1  0
 13 12  2  0
 15 14  1  6
 15 16  1  0
 17 15  1  0
 17 18  1  6
 19 17  1  0
 19 20  1  0
 21 19  2  0
M  END
$$$$
