STA.pdb
     RDKit          3D

 19 18  0  0  1  0  0  0  0  0999 V2000
    2.0614  -20.3711   22.5488 O   0  0  0  0  0  0  0  0  0  0  0  0
    2.4168  -19.0972   22.1395 C   0  0  0  0  0  0  0  0  0  0  0  0
    3.6338  -19.1606   21.2474 C   0  0  2  0  0  0  0  0  0  0  0  0
    3.2698  -19.9307   20.0736 N   0  0  0  0  0  0  0  0  0  0  0  0
    4.7806  -19.8468   21.8893 C   0  0  0  0  0  0  0  0  0  0  0  0
    5.0041  -21.0653   21.6633 O   0  0  0  0  0  0  0  0  0  0  0  0
    7.5136  -20.8514   21.2167 C   0  0  0  0  0  0  0  0  0  0  0  0
    7.9251  -19.9771   22.3775 C   0  0  1  0  0  0  0  0  0  0  0  0
    8.1527  -18.7061   21.8108 O   0  0  0  0  0  0  0  0  0  0  0  0
    6.8072  -19.8591   23.4260 C   0  0  2  0  0  0  0  0  0  0  0  0
    5.6732  -19.1876   22.7751 N   0  0  0  0  0  0  0  0  0  0  0  0
    7.2501  -19.0649   24.5898 C   0  0  0  0  0  0  0  0  0  0  0  0
    7.2146  -17.7914   24.5219 O   0  0  0  0  0  0  0  0  0  0  0  0
    6.9919  -18.6648   27.8874 C   0  0  0  0  0  0  0  0  0  0  0  0
    8.1566  -18.7625   26.9165 C   0  0  2  0  0  0  0  0  0  0  0  0
    7.7200  -19.5922   25.8074 N   0  0  0  0  0  0  0  0  0  0  0  0
    9.3073  -19.3994   27.6212 C   0  0  0  0  0  0  0  0  0  0  0  0
    9.6687  -20.5504   27.2931 O   0  0  0  0  0  0  0  0  0  0  0  0
    9.9964  -18.7619   28.6319 O   0  0  0  0  0  0  0  0  0  0  0  0
  1  2  1  0
  2  3  1  0
  3  4  1  6
  5  3  1  0
  6  5  2  0
  8  7  1  6
  8  9  1  0
  8 10  1  0
 10 11  1  6
 11  5  1  0
 12 10  1  0
 12 16  1  0
 13 12  2  0
 15 16  1  0
 15 14  1  1
 15 17  1  0
 17 18  2  0
 17 19  1  0
M  END
$$$$
