STA.pdb
     RDKit          3D

 19 18  0  0  1  0  0  0  0  0999 V2000
   11.4681  -12.8297   19.3182 O   0  0  0  0  0  0  0  0  0  0  0  0
   10.4504  -12.8923   20.2547 C   0  0  0  0  0  0  0  0  0  0  0  0
    9.7118  -14.2038   20.1301 C   0  0  2  0  0  0  0  0  0  0  0  0
    8.8060  -14.0844   19.0038 N   0  0  0  0  0  0  0  0  0  0  0  0
    8.8931  -14.5171   21.3257 C   0  0  0  0  0  0  0  0  0  0  0  0
    7.6822  -14.1757   21.3783 O   0  0  0  0  0  0  0  0  0  0  0  0
    7.4458  -17.3397   22.3563 C   0  0  0  0  0  0  0  0  0  0  0  0
    8.2640  -17.0099   23.5823 C   0  0  1  0  0  0  0  0  0  0  0  0
    9.4556  -17.7487   23.4320 O   0  0  0  0  0  0  0  0  0  0  0  0
    8.6132  -15.5144   23.6486 C   0  0  2  0  0  0  0  0  0  0  0  0
    9.4124  -15.2038   22.4546 N   0  0  0  0  0  0  0  0  0  0  0  0
    9.3959  -15.2034   24.8619 C   0  0  0  0  0  0  0  0  0  0  0  0
   10.6556  -15.4051   24.8565 O   0  0  0  0  0  0  0  0  0  0  0  0
    8.9177  -13.2985   28.0079 C   0  0  0  0  0  0  0  0  0  0  0  0
    9.7000  -14.3172   27.1962 C   0  0  2  0  0  0  0  0  0  0  0  0
    8.8719  -14.6866   26.0618 N   0  0  0  0  0  0  0  0  0  0  0  0
    9.9630  -15.5067   28.0576 C   0  0  0  0  0  0  0  0  0  0  0  0
   10.6877  -15.3852   29.0692 O   0  0  0  0  0  0  0  0  0  0  0  0
    9.4327  -16.7493   27.7796 O   0  0  0  0  0  0  0  0  0  0  0  0
  1  2  1  0
  2  3  1  0
  3  4  1  6
  5  3  1  0
  6  5  2  0
  8  7  1  6
  8  9  1  0
  8 10  1  0
 10 11  1  6
 11  5  1  0
 12 10  1  0
 12 16  1  0
 13 12  2  0
 15 16  1  0
 15 14  1  1
 15 17  1  0
 17 18  2  0
 17 19  1  0
M  END
$$$$
