STA.pdb
     RDKit          3D

 19 18  0  0  1  0  0  0  0  0999 V2000
   13.6473  -16.7044   19.8094 O   0  0  0  0  0  0  0  0  0  0  0  0
   12.8604  -16.6187   18.6736 C   0  0  0  0  0  0  0  0  0  0  0  0
   12.4748  -15.1810   18.4179 C   0  0  2  0  0  0  0  0  0  0  0  0
   13.7029  -14.4233   18.2729 N   0  0  0  0  0  0  0  0  0  0  0  0
   11.7149  -14.5823   19.5414 C   0  0  0  0  0  0  0  0  0  0  0  0
   12.2887  -13.8285   20.3709 O   0  0  0  0  0  0  0  0  0  0  0  0
    8.0607  -12.9453   19.1470 C   0  0  0  0  0  0  0  0  0  0  0  0
    8.1166  -13.9788   20.2470 C   0  0  1  0  0  0  0  0  0  0  0  0
    7.7150  -15.1831   19.6333 O   0  0  0  0  0  0  0  0  0  0  0  0
    9.5430  -14.1527   20.7931 C   0  0  2  0  0  0  0  0  0  0  0  0
   10.3295  -14.8172   19.7440 N   0  0  0  0  0  0  0  0  0  0  0  0
    9.5481  -14.9824   22.0149 C   0  0  0  0  0  0  0  0  0  0  0  0
    9.9420  -16.1936   21.9411 O   0  0  0  0  0  0  0  0  0  0  0  0
    8.6914  -14.5886   25.6415 C   0  0  0  0  0  0  0  0  0  0  0  0
    9.0847  -15.4383   24.4448 C   0  0  2  0  0  0  0  0  0  0  0  0
    9.1511  -14.5531   23.2954 N   0  0  0  0  0  0  0  0  0  0  0  0
    8.0362  -16.4798   24.2395 C   0  0  0  0  0  0  0  0  0  0  0  0
    7.1255  -16.2799   23.4065 O   0  0  0  0  0  0  0  0  0  0  0  0
    8.0311  -17.6681   24.9399 O   0  0  0  0  0  0  0  0  0  0  0  0
  1  2  1  0
  2  3  1  0
  3  4  1  1
  5  3  1  0
  6  5  2  0
  8  7  1  6
  8  9  1  0
  8 10  1  0
 10 11  1  6
 11  5  1  0
 12 10  1  0
 12 16  1  0
 13 12  2  0
 15 16  1  0
 15 14  1  1
 15 17  1  0
 17 18  2  0
 17 19  1  0
M  END
$$$$
