STA.pdb
     RDKit          3D

 19 18  0  0  1  0  0  0  0  0999 V2000
    8.4011  -19.4014   15.4168 O   0  0  0  0  0  0  0  0  0  0  0  0
    8.9203  -18.6837   16.4808 C   0  0  0  0  0  0  0  0  0  0  0  0
    9.3695  -17.3191   16.0151 C   0  0  2  0  0  0  0  0  0  0  0  0
   10.6051  -17.4992   15.2773 N   0  0  0  0  0  0  0  0  0  0  0  0
    9.6551  -16.3947   17.1385 C   0  0  0  0  0  0  0  0  0  0  0  0
   10.8228  -16.2889   17.5979 O   0  0  0  0  0  0  0  0  0  0  0  0
    8.0063  -12.5948   19.9503 C   0  0  0  0  0  0  0  0  0  0  0  0
    7.7677  -13.6688   18.9155 C   0  0  1  0  0  0  0  0  0  0  0  0
    7.7190  -12.9819   17.6851 O   0  0  0  0  0  0  0  0  0  0  0  0
    8.9216  -14.6835   18.8712 C   0  0  2  0  0  0  0  0  0  0  0  0
    8.6542  -15.5934   17.7482 N   0  0  0  0  0  0  0  0  0  0  0  0
    8.9990  -15.4573   20.1268 C   0  0  0  0  0  0  0  0  0  0  0  0
    8.0931  -16.3187   20.3818 O   0  0  0  0  0  0  0  0  0  0  0  0
   11.4785  -16.0666   22.8387 C   0  0  0  0  0  0  0  0  0  0  0  0
   10.0623  -16.1587   22.2957 C   0  0  2  0  0  0  0  0  0  0  0  0
   10.0087  -15.3361   21.1000 N   0  0  0  0  0  0  0  0  0  0  0  0
    9.1242  -15.6341   23.3306 C   0  0  0  0  0  0  0  0  0  0  0  0
    8.9390  -16.2873   24.3805 O   0  0  0  0  0  0  0  0  0  0  0  0
    8.4453  -14.4436   23.1738 O   0  0  0  0  0  0  0  0  0  0  0  0
  1  2  1  0
  2  3  1  0
  3  4  1  1
  5  3  1  0
  6  5  2  0
  8  7  1  1
  8  9  1  0
  8 10  1  0
 10 11  1  6
 11  5  1  0
 12 10  1  0
 12 16  1  0
 13 12  2  0
 15 16  1  0
 15 14  1  1
 15 17  1  0
 17 18  2  0
 17 19  1  0
M  END
$$$$
