STA.pdb
     RDKit          3D

 19 18  0  0  1  0  0  0  0  0999 V2000
   12.4014  -16.0632   19.7650 O   0  0  0  0  0  0  0  0  0  0  0  0
   11.3284  -15.4808   20.4178 C   0  0  0  0  0  0  0  0  0  0  0  0
   10.2707  -16.5199   20.7046 C   0  0  2  0  0  0  0  0  0  0  0  0
    9.4349  -16.6235   19.5239 N   0  0  0  0  0  0  0  0  0  0  0  0
    9.3915  -16.1460   21.8383 C   0  0  0  0  0  0  0  0  0  0  0  0
    8.3306  -15.4980   21.6375 O   0  0  0  0  0  0  0  0  0  0  0  0
    7.2908  -17.4987   25.9242 C   0  0  0  0  0  0  0  0  0  0  0  0
    8.1642  -17.6063   24.6966 C   0  0  1  0  0  0  0  0  0  0  0  0
    7.2973  -18.0393   23.6722 O   0  0  0  0  0  0  0  0  0  0  0  0
    8.7593  -16.2456   24.2998 C   0  0  2  0  0  0  0  0  0  0  0  0
    9.6857  -16.4877   23.1846 N   0  0  0  0  0  0  0  0  0  0  0  0
    9.4921  -15.6355   25.4276 C   0  0  0  0  0  0  0  0  0  0  0  0
   10.6820  -16.0223   25.6765 O   0  0  0  0  0  0  0  0  0  0  0  0
    9.0056  -12.8690   27.8935 C   0  0  0  0  0  0  0  0  0  0  0  0
    9.7317  -14.1161   27.4178 C   0  0  2  0  0  0  0  0  0  0  0  0
    8.9914  -14.6341   26.2809 N   0  0  0  0  0  0  0  0  0  0  0  0
    9.7408  -15.1109   28.5298 C   0  0  0  0  0  0  0  0  0  0  0  0
    8.8637  -16.0011   28.5658 O   0  0  0  0  0  0  0  0  0  0  0  0
   10.6891  -15.0876   29.5313 O   0  0  0  0  0  0  0  0  0  0  0  0
  1  2  1  0
  2  3  1  0
  3  4  1  6
  5  3  1  0
  6  5  2  0
  8  7  1  1
  8  9  1  0
  8 10  1  0
 10 11  1  6
 11  5  1  0
 12 10  1  0
 12 16  1  0
 13 12  2  0
 15 16  1  0
 15 14  1  1
 15 17  1  0
 17 18  2  0
 17 19  1  0
M  END
$$$$
