STA.pdb
     RDKit          3D

 19 18  0  0  1  0  0  0  0  0999 V2000
   13.6630  -18.5674   23.7158 O   0  0  0  0  0  0  0  0  0  0  0  0
   12.6676  -18.8928   22.8103 C   0  0  0  0  0  0  0  0  0  0  0  0
   12.2981  -17.6804   21.9889 C   0  0  2  0  0  0  0  0  0  0  0  0
   13.5253  -17.1463   21.4304 N   0  0  0  0  0  0  0  0  0  0  0  0
   11.6759  -16.6063   22.7995 C   0  0  0  0  0  0  0  0  0  0  0  0
   12.2937  -15.5307   23.0171 O   0  0  0  0  0  0  0  0  0  0  0  0
    7.5043  -14.8219   24.9150 C   0  0  0  0  0  0  0  0  0  0  0  0
    8.2431  -15.8642   24.1092 C   0  0  1  0  0  0  0  0  0  0  0  0
    7.8400  -15.6442   22.7760 O   0  0  0  0  0  0  0  0  0  0  0  0
    9.7666  -15.6820   24.2028 C   0  0  2  0  0  0  0  0  0  0  0  0
   10.3787  -16.7229   23.3646 N   0  0  0  0  0  0  0  0  0  0  0  0
   10.2362  -15.8291   25.5952 C   0  0  0  0  0  0  0  0  0  0  0  0
   10.6072  -16.9782   26.0070 O   0  0  0  0  0  0  0  0  0  0  0  0
   10.6747  -13.6554   28.6165 C   0  0  0  0  0  0  0  0  0  0  0  0
   10.7281  -15.0049   27.9202 C   0  0  2  0  0  0  0  0  0  0  0  0
   10.3204  -14.7915   26.5428 N   0  0  0  0  0  0  0  0  0  0  0  0
    9.7786  -15.9288   28.6066 C   0  0  0  0  0  0  0  0  0  0  0  0
   10.1179  -16.4735   29.6796 O   0  0  0  0  0  0  0  0  0  0  0  0
    8.5271  -16.2094   28.0991 O   0  0  0  0  0  0  0  0  0  0  0  0
  1  2  1  0
  2  3  1  0
  3  4  1  1
  5  3  1  0
  6  5  2  0
  8  7  1  1
  8  9  1  0
  8 10  1  0
 10 11  1  6
 11  5  1  0
 12 10  1  0
 12 16  1  0
 13 12  2  0
 15 16  1  0
 15 14  1  1
 15 17  1  0
 17 18  2  0
 17 19  1  0
M  END
$$$$
