STA.pdb
     RDKit          3D

 19 18  0  0  1  0  0  0  0  0999 V2000
    9.7110  -19.3741   18.8806 O   0  0  0  0  0  0  0  0  0  0  0  0
    8.7544  -18.6696   18.1698 C   0  0  0  0  0  0  0  0  0  0  0  0
    9.2595  -17.2808   17.8580 C   0  0  2  0  0  0  0  0  0  0  0  0
   10.4853  -17.4274   17.0969 N   0  0  0  0  0  0  0  0  0  0  0  0
    9.5851  -16.5017   19.0765 C   0  0  0  0  0  0  0  0  0  0  0  0
   10.7835  -16.3245   19.4204 O   0  0  0  0  0  0  0  0  0  0  0  0
    7.3400  -13.3260   20.4124 C   0  0  0  0  0  0  0  0  0  0  0  0
    7.6521  -14.3447   21.4831 C   0  0  1  0  0  0  0  0  0  0  0  0
    6.5305  -15.1989   21.5083 O   0  0  0  0  0  0  0  0  0  0  0  0
    8.8986  -15.1739   21.1343 C   0  0  2  0  0  0  0  0  0  0  0  0
    8.5902  -15.9229   19.9077 N   0  0  0  0  0  0  0  0  0  0  0  0
    9.2310  -16.1184   22.2199 C   0  0  0  0  0  0  0  0  0  0  0  0
    8.8046  -17.3188   22.1504 O   0  0  0  0  0  0  0  0  0  0  0  0
   11.6112  -17.2988   24.3181 C   0  0  0  0  0  0  0  0  0  0  0  0
   10.2011  -16.7493   24.4533 C   0  0  2  0  0  0  0  0  0  0  0  0
    9.9997  -15.8153   23.3595 N   0  0  0  0  0  0  0  0  0  0  0  0
   10.0914  -16.0462   25.7647 C   0  0  0  0  0  0  0  0  0  0  0  0
    9.8448  -14.8207   25.7868 O   0  0  0  0  0  0  0  0  0  0  0  0
   10.2531  -16.7015   26.9677 O   0  0  0  0  0  0  0  0  0  0  0  0
  1  2  1  0
  2  3  1  0
  3  4  1  6
  5  3  1  0
  6  5  2  0
  8  7  1  6
  8  9  1  0
  8 10  1  0
 10 11  1  6
 11  5  1  0
 12 10  1  0
 12 16  1  0
 13 12  2  0
 15 16  1  0
 15 14  1  6
 15 17  1  0
 17 18  2  0
 17 19  1  0
M  END
$$$$
