STA.pdb
     RDKit          3D

 19 18  0  0  1  0  0  0  0  0999 V2000
   14.1708  -17.5996   18.3475 O   0  0  0  0  0  0  0  0  0  0  0  0
   13.5992  -16.6436   19.1696 C   0  0  0  0  0  0  0  0  0  0  0  0
   13.0841  -15.4900   18.3420 C   0  0  2  0  0  0  0  0  0  0  0  0
   14.2189  -14.6441   18.0258 N   0  0  0  0  0  0  0  0  0  0  0  0
   12.0991  -14.6556   19.0711 C   0  0  0  0  0  0  0  0  0  0  0  0
   12.4854  -13.7706   19.8794 O   0  0  0  0  0  0  0  0  0  0  0  0
    7.3764  -13.1040   19.5124 C   0  0  0  0  0  0  0  0  0  0  0  0
    8.4328  -13.9498   18.8414 C   0  0  1  0  0  0  0  0  0  0  0  0
    8.7366  -13.2680   17.6451 O   0  0  0  0  0  0  0  0  0  0  0  0
    9.7087  -14.0490   19.6930 C   0  0  2  0  0  0  0  0  0  0  0  0
   10.6965  -14.8006   18.9056 N   0  0  0  0  0  0  0  0  0  0  0  0
    9.4478  -14.7559   20.9631 C   0  0  0  0  0  0  0  0  0  0  0  0
    9.6987  -16.0043   21.0415 O   0  0  0  0  0  0  0  0  0  0  0  0
    8.1219  -13.9396   24.3716 C   0  0  0  0  0  0  0  0  0  0  0  0
    8.7485  -14.9003   23.3750 C   0  0  2  0  0  0  0  0  0  0  0  0
    8.9357  -14.1678   22.1350 N   0  0  0  0  0  0  0  0  0  0  0  0
    7.8122  -16.0434   23.1676 C   0  0  0  0  0  0  0  0  0  0  0  0
    6.9897  -16.0018   22.2270 O   0  0  0  0  0  0  0  0  0  0  0  0
    7.8179  -17.1571   23.9814 O   0  0  0  0  0  0  0  0  0  0  0  0
  1  2  1  0
  2  3  1  0
  3  4  1  1
  5  3  1  0
  6  5  2  0
  8  7  1  1
  8  9  1  0
  8 10  1  0
 10 11  1  6
 11  5  1  0
 12 10  1  0
 12 16  1  0
 13 12  2  0
 15 16  1  0
 15 14  1  1
 15 17  1  0
 17 18  2  0
 17 19  1  0
M  END
$$$$
