KDD.pdb
     RDKit          3D

 26 25  0  0  1  0  0  0  0  0999 V2000
   26.3016  -22.4597  -10.9303 N   0  0  0  0  0  0  0  0  0  0  0  0
   25.9165  -21.1276  -11.0057 C   0  0  1  0  0  0  0  0  0  0  0  0
   26.9675  -20.0663  -10.9561 C   0  0  0  0  0  0  0  0  0  0  0  0
   28.1672  -20.3209  -10.1497 C   0  0  0  0  0  0  0  0  0  0  0  0
   29.2039  -21.2436  -10.5873 C   0  0  0  0  0  0  0  0  0  0  0  0
   30.4654  -21.3035   -9.8011 C   0  0  0  0  0  0  0  0  0  0  0  0
   31.3382  -22.3752  -10.3134 N   0  0  0  0  0  0  0  0  0  0  0  0
   25.0426  -20.8898  -12.1815 C   0  0  0  0  0  0  0  0  0  0  0  0
   24.7974  -19.6791  -12.5337 O   0  0  0  0  0  0  0  0  0  0  0  0
   24.4735  -21.9406  -12.9223 N   0  0  0  0  0  0  0  0  0  0  0  0
   23.6914  -21.6808  -14.1470 C   0  0  1  0  0  0  0  0  0  0  0  0
   23.9336  -22.7831  -15.1378 C   0  0  0  0  0  0  0  0  0  0  0  0
   25.2596  -22.7379  -15.7324 C   0  0  0  0  0  0  0  0  0  0  0  0
   25.7768  -21.7635  -16.3162 O   0  0  0  0  0  0  0  0  0  0  0  0
   22.2603  -21.5364  -13.7624 C   0  0  0  0  0  0  0  0  0  0  0  0
   21.7196  -22.1651  -12.8380 O   0  0  0  0  0  0  0  0  0  0  0  0
   26.0820  -23.8873  -15.6681 O   0  0  0  0  0  0  0  0  0  0  0  0
   21.3990  -20.6240  -14.4725 N   0  0  0  0  0  0  0  0  0  0  0  0
   20.0081  -20.4470  -14.1186 C   0  0  1  0  0  0  0  0  0  0  0  0
   19.3761  -19.2227  -14.6843 C   0  0  0  0  0  0  0  0  0  0  0  0
   17.9598  -19.1529  -14.2796 C   0  0  0  0  0  0  0  0  0  0  0  0
   17.0537  -19.7540  -14.9281 O   0  0  0  0  0  0  0  0  0  0  0  0
   19.2185  -21.6763  -14.4201 C   0  0  0  0  0  0  0  0  0  0  0  0
   19.4151  -22.2882  -15.4759 O   0  0  0  0  0  0  0  0  0  0  0  0
   17.5628  -18.4357  -13.1861 O   0  0  0  0  0  0  0  0  0  0  0  0
   18.2859  -22.0955  -13.5036 O   0  0  0  0  0  0  0  0  0  0  0  0
  2  1  1  6
  2  3  1  0
  3  4  1  0
  4  5  1  0
  6  5  1  0
  6  7  1  0
  8  2  1  0
  8  9  2  0
 10  8  1  0
 11 10  1  0
 11 12  1  6
 13 12  1  0
 13 17  1  0
 14 13  2  0
 15 11  1  0
 16 15  2  0
 18 15  1  0
 19 18  1  0
 19 20  1  6
 20 21  1  0
 21 25  1  0
 21 22  2  0
 23 19  1  0
 24 23  2  0
 26 23  1  0
M  END
$$$$
