KDD.pdb
     RDKit          3D

 26 25  0  0  1  0  0  0  0  0999 V2000
   18.2136  -13.4777  -16.5341 N   0  0  0  0  0  0  0  0  0  0  0  0
   17.3565  -12.3864  -16.5878 C   0  0  1  0  0  0  0  0  0  0  0  0
   15.9013  -12.5947  -16.3184 C   0  0  0  0  0  0  0  0  0  0  0  0
   15.3912  -13.9710  -16.3129 C   0  0  0  0  0  0  0  0  0  0  0  0
   14.7502  -14.5467  -15.1401 C   0  0  0  0  0  0  0  0  0  0  0  0
   13.3963  -15.1413  -15.3030 C   0  0  0  0  0  0  0  0  0  0  0  0
   13.4642  -16.6093  -15.1893 N   0  0  0  0  0  0  0  0  0  0  0  0
   17.8525  -11.2752  -15.7379 C   0  0  0  0  0  0  0  0  0  0  0  0
   17.5414  -11.2649  -14.4917 O   0  0  0  0  0  0  0  0  0  0  0  0
   18.6486  -10.2343  -16.2473 N   0  0  0  0  0  0  0  0  0  0  0  0
   19.1801   -9.1739  -15.3686 C   0  0  1  0  0  0  0  0  0  0  0  0
   20.6574   -9.3716  -15.1840 C   0  0  0  0  0  0  0  0  0  0  0  0
   21.2555   -8.4060  -14.2764 C   0  0  0  0  0  0  0  0  0  0  0  0
   20.6461   -7.5760  -13.5711 O   0  0  0  0  0  0  0  0  0  0  0  0
   18.8310   -7.8561  -15.9676 C   0  0  0  0  0  0  0  0  0  0  0  0
   19.0115   -7.5624  -17.1606 O   0  0  0  0  0  0  0  0  0  0  0  0
   22.6637   -8.3650  -14.1460 O   0  0  0  0  0  0  0  0  0  0  0  0
   18.2437   -6.8164  -15.1598 N   0  0  0  0  0  0  0  0  0  0  0  0
   17.8876   -5.5263  -15.7074 C   0  0  1  0  0  0  0  0  0  0  0  0
   16.7006   -4.8899  -15.0714 C   0  0  0  0  0  0  0  0  0  0  0  0
   16.4048   -3.6036  -15.7290 C   0  0  0  0  0  0  0  0  0  0  0  0
   16.5104   -2.5029  -15.1124 O   0  0  0  0  0  0  0  0  0  0  0  0
   19.0666   -4.6127  -15.7347 C   0  0  0  0  0  0  0  0  0  0  0  0
   19.8556   -4.6005  -14.7834 O   0  0  0  0  0  0  0  0  0  0  0  0
   16.0032   -3.5430  -17.0340 O   0  0  0  0  0  0  0  0  0  0  0  0
   19.2412   -3.8032  -16.8301 O   0  0  0  0  0  0  0  0  0  0  0  0
  2  1  1  1
  2  3  1  0
  3  4  1  0
  4  5  1  0
  6  5  1  0
  6  7  1  0
  8  2  1  0
  8  9  2  0
 10  8  1  0
 11 10  1  0
 11 12  1  6
 13 12  1  0
 13 17  1  0
 14 13  2  0
 15 11  1  0
 16 15  2  0
 18 15  1  0
 19 18  1  0
 19 20  1  1
 20 21  1  0
 21 25  1  0
 21 22  2  0
 23 19  1  0
 24 23  2  0
 26 23  1  0
M  END
$$$$
