KDD.pdb
     RDKit          3D

 26 25  0  0  1  0  0  0  0  0999 V2000
   20.6994  -11.2246  -17.2956 N   0  0  0  0  0  0  0  0  0  0  0  0
   19.9522  -10.3630  -18.0880 C   0  0  1  0  0  0  0  0  0  0  0  0
   19.3296  -10.8883  -19.3409 C   0  0  0  0  0  0  0  0  0  0  0  0
   20.1875  -11.6134  -20.2857 C   0  0  0  0  0  0  0  0  0  0  0  0
   21.2589  -12.4881  -19.8332 C   0  0  0  0  0  0  0  0  0  0  0  0
   22.0516  -13.2141  -20.8616 C   0  0  0  0  0  0  0  0  0  0  0  0
   23.0695  -14.0641  -20.2181 N   0  0  0  0  0  0  0  0  0  0  0  0
   18.9155   -9.6648  -17.2875 C   0  0  0  0  0  0  0  0  0  0  0  0
   18.1687   -8.7958  -17.8679 O   0  0  0  0  0  0  0  0  0  0  0  0
   18.7224   -9.9193  -15.9183 N   0  0  0  0  0  0  0  0  0  0  0  0
   17.7309   -9.1622  -15.1291 C   0  0  1  0  0  0  0  0  0  0  0  0
   17.1513  -10.0530  -14.0679 C   0  0  0  0  0  0  0  0  0  0  0  0
   16.4670  -11.2167  -14.6078 C   0  0  0  0  0  0  0  0  0  0  0  0
   16.6952  -12.4097  -14.3206 O   0  0  0  0  0  0  0  0  0  0  0  0
   18.4006   -7.9502  -14.5817 C   0  0  0  0  0  0  0  0  0  0  0  0
   17.8498   -7.1277  -13.8318 O   0  0  0  0  0  0  0  0  0  0  0  0
   15.4333  -11.0288  -15.5552 O   0  0  0  0  0  0  0  0  0  0  0  0
   19.7747   -7.6615  -14.9085 N   0  0  0  0  0  0  0  0  0  0  0  0
   20.4628   -6.5033  -14.3829 C   0  0  1  0  0  0  0  0  0  0  0  0
   21.9387   -6.6624  -14.2606 C   0  0  0  0  0  0  0  0  0  0  0  0
   22.5247   -5.4652  -13.6300 C   0  0  0  0  0  0  0  0  0  0  0  0
   23.0218   -4.5273  -14.3201 O   0  0  0  0  0  0  0  0  0  0  0  0
   20.0920   -5.2718  -15.1388 C   0  0  0  0  0  0  0  0  0  0  0  0
   19.8922   -4.2149  -14.5299 O   0  0  0  0  0  0  0  0  0  0  0  0
   22.5571   -5.3152  -12.2719 O   0  0  0  0  0  0  0  0  0  0  0  0
   19.9830   -5.3514  -16.5053 O   0  0  0  0  0  0  0  0  0  0  0  0
  2  1  1  1
  2  3  1  0
  3  4  1  0
  4  5  1  0
  6  5  1  0
  6  7  1  0
  8  2  1  0
  8  9  2  0
 10  8  1  0
 11 10  1  0
 11 12  1  1
 13 12  1  0
 13 17  1  0
 14 13  2  0
 15 11  1  0
 16 15  2  0
 18 15  1  0
 19 18  1  0
 19 20  1  6
 20 21  1  0
 21 25  1  0
 21 22  2  0
 23 19  1  0
 24 23  2  0
 26 23  1  0
M  END
$$$$
