KDD.pdb
     RDKit          3D

 26 25  0  0  1  0  0  0  0  0999 V2000
   24.6505  -34.3963   -9.4058 N   0  0  0  0  0  0  0  0  0  0  0  0
   24.7816  -33.3688   -8.4807 C   0  0  1  0  0  0  0  0  0  0  0  0
   23.6338  -32.4358   -8.2676 C   0  0  0  0  0  0  0  0  0  0  0  0
   22.5584  -32.4260   -9.2665 C   0  0  0  0  0  0  0  0  0  0  0  0
   22.4514  -31.3758  -10.2681 C   0  0  0  0  0  0  0  0  0  0  0  0
   21.3471  -31.4649  -11.2609 C   0  0  0  0  0  0  0  0  0  0  0  0
   21.4700  -30.3901  -12.2621 N   0  0  0  0  0  0  0  0  0  0  0  0
   25.2347  -33.8881   -7.1662 C   0  0  0  0  0  0  0  0  0  0  0  0
   24.6125  -34.8855   -6.6487 O   0  0  0  0  0  0  0  0  0  0  0  0
   26.3184  -33.3277   -6.4675 N   0  0  0  0  0  0  0  0  0  0  0  0
   26.7346  -33.8486   -5.1505 C   0  0  1  0  0  0  0  0  0  0  0  0
   28.0884  -33.3001   -4.8012 C   0  0  0  0  0  0  0  0  0  0  0  0
   28.5991  -33.7987   -3.5345 C   0  0  0  0  0  0  0  0  0  0  0  0
   29.1602  -33.1258   -2.6455 O   0  0  0  0  0  0  0  0  0  0  0  0
   25.6814  -33.4978   -4.1582 C   0  0  0  0  0  0  0  0  0  0  0  0
   25.1161  -32.3935   -4.1019 O   0  0  0  0  0  0  0  0  0  0  0  0
   28.4707  -35.1754   -3.2350 O   0  0  0  0  0  0  0  0  0  0  0  0
   25.2499  -34.4609   -3.1759 N   0  0  0  0  0  0  0  0  0  0  0  0
   24.2498  -34.1474   -2.1797 C   0  0  1  0  0  0  0  0  0  0  0  0
   23.1381  -35.1342   -2.0862 C   0  0  0  0  0  0  0  0  0  0  0  0
   22.1638  -34.7018   -1.0674 C   0  0  0  0  0  0  0  0  0  0  0  0
   22.1895  -33.5347   -0.5773 O   0  0  0  0  0  0  0  0  0  0  0  0
   24.8797  -33.8848   -0.8531 C   0  0  0  0  0  0  0  0  0  0  0  0
   24.1713  -33.5813    0.1132 O   0  0  0  0  0  0  0  0  0  0  0  0
   21.1895  -35.5424   -0.6069 O   0  0  0  0  0  0  0  0  0  0  0  0
   26.2445  -33.9898   -0.7451 O   0  0  0  0  0  0  0  0  0  0  0  0
  2  1  1  6
  2  3  1  0
  3  4  1  0
  4  5  1  0
  6  5  1  0
  6  7  1  0
  8  2  1  0
  8  9  2  0
 10  8  1  0
 11 10  1  0
 11 12  1  1
 13 12  1  0
 13 17  1  0
 14 13  2  0
 15 11  1  0
 16 15  2  0
 18 15  1  0
 19 18  1  0
 19 20  1  1
 20 21  1  0
 21 25  1  0
 21 22  2  0
 23 19  1  0
 24 23  2  0
 26 23  1  0
M  END
$$$$
