KDD.pdb
     RDKit          3D

 26 25  0  0  1  0  0  0  0  0999 V2000
   14.3742  -14.8375  -14.0087 N   0  0  0  0  0  0  0  0  0  0  0  0
   15.5513  -15.1852  -14.6582 C   0  0  1  0  0  0  0  0  0  0  0  0
   15.5720  -16.4115  -15.5121 C   0  0  0  0  0  0  0  0  0  0  0  0
   15.0308  -17.6538  -14.9481 C   0  0  0  0  0  0  0  0  0  0  0  0
   15.8807  -18.6252  -14.2760 C   0  0  0  0  0  0  0  0  0  0  0  0
   15.2519  -19.8752  -13.7711 C   0  0  0  0  0  0  0  0  0  0  0  0
   16.2314  -20.6700  -13.0086 N   0  0  0  0  0  0  0  0  0  0  0  0
   16.0888  -14.0424  -15.4380 C   0  0  0  0  0  0  0  0  0  0  0  0
   17.2152  -14.1809  -16.0396 O   0  0  0  0  0  0  0  0  0  0  0  0
   15.4108  -12.8150  -15.5410 N   0  0  0  0  0  0  0  0  0  0  0  0
   15.9407  -11.7123  -16.3671 C   0  0  1  0  0  0  0  0  0  0  0  0
   14.8146  -11.0710  -17.1262 C   0  0  0  0  0  0  0  0  0  0  0  0
   15.2450   -9.9598  -17.9593 C   0  0  0  0  0  0  0  0  0  0  0  0
   14.9589   -8.7562  -17.7946 O   0  0  0  0  0  0  0  0  0  0  0  0
   16.6631  -10.7670  -15.4720 C   0  0  0  0  0  0  0  0  0  0  0  0
   16.2613  -10.4261  -14.3474 O   0  0  0  0  0  0  0  0  0  0  0  0
   16.0706  -10.2187  -19.0787 O   0  0  0  0  0  0  0  0  0  0  0  0
   17.9132  -10.1783  -15.8835 N   0  0  0  0  0  0  0  0  0  0  0  0
   18.6351   -9.2446  -15.0479 C   0  0  1  0  0  0  0  0  0  0  0  0
   20.0463   -9.6286  -14.7662 C   0  0  0  0  0  0  0  0  0  0  0  0
   20.6826   -8.6153  -13.9044 C   0  0  0  0  0  0  0  0  0  0  0  0
   20.0943   -8.1455  -12.8865 O   0  0  0  0  0  0  0  0  0  0  0  0
   18.5275   -7.8555  -15.5810 C   0  0  0  0  0  0  0  0  0  0  0  0
   18.7139   -6.8932  -14.8280 O   0  0  0  0  0  0  0  0  0  0  0  0
   21.9363   -8.1384  -14.1667 O   0  0  0  0  0  0  0  0  0  0  0  0
   18.2208   -7.6866  -16.9087 O   0  0  0  0  0  0  0  0  0  0  0  0
  2  1  1  6
  2  3  1  0
  3  4  1  0
  4  5  1  0
  6  5  1  0
  6  7  1  0
  8  2  1  0
  8  9  2  0
 10  8  1  0
 11 10  1  0
 11 12  1  1
 13 12  1  0
 13 17  1  0
 14 13  2  0
 15 11  1  0
 16 15  2  0
 18 15  1  0
 19 18  1  0
 19 20  1  6
 20 21  1  0
 21 25  1  0
 21 22  2  0
 23 19  1  0
 24 23  2  0
 26 23  1  0
M  END
$$$$
