KDD.pdb
     RDKit          3D

 26 25  0  0  1  0  0  0  0  0999 V2000
   15.8711  -13.9215  -14.0705 N   0  0  0  0  0  0  0  0  0  0  0  0
   15.2552  -12.6771  -14.0464 C   0  0  1  0  0  0  0  0  0  0  0  0
   13.9703  -12.5197  -13.2995 C   0  0  0  0  0  0  0  0  0  0  0  0
   13.3431  -13.7250  -12.7445 C   0  0  0  0  0  0  0  0  0  0  0  0
   11.9707  -13.7221  -12.2604 C   0  0  0  0  0  0  0  0  0  0  0  0
   11.3786  -15.0158  -11.8260 C   0  0  0  0  0  0  0  0  0  0  0  0
    9.9609  -14.8352  -11.4655 N   0  0  0  0  0  0  0  0  0  0  0  0
   16.2020  -11.6207  -13.6100 C   0  0  0  0  0  0  0  0  0  0  0  0
   16.8246  -11.7713  -12.4966 O   0  0  0  0  0  0  0  0  0  0  0  0
   16.4409  -10.4621  -14.3698 N   0  0  0  0  0  0  0  0  0  0  0  0
   17.4407   -9.4608  -13.9492 C   0  0  1  0  0  0  0  0  0  0  0  0
   18.0832   -8.8552  -15.1641 C   0  0  0  0  0  0  0  0  0  0  0  0
   19.0879   -7.8548  -14.8422 C   0  0  0  0  0  0  0  0  0  0  0  0
   19.6430   -7.6915  -13.7363 O   0  0  0  0  0  0  0  0  0  0  0  0
   16.7600   -8.4611  -13.0808 C   0  0  0  0  0  0  0  0  0  0  0  0
   15.6542   -7.9556  -13.3336 O   0  0  0  0  0  0  0  0  0  0  0  0
   19.5101   -6.9550  -15.8490 O   0  0  0  0  0  0  0  0  0  0  0  0
   17.3757   -8.0137  -11.8564 N   0  0  0  0  0  0  0  0  0  0  0  0
   16.7067   -7.1133  -10.9439 C   0  0  1  0  0  0  0  0  0  0  0  0
   17.0611   -7.3081   -9.5104 C   0  0  0  0  0  0  0  0  0  0  0  0
   16.2978   -6.3675   -8.6695 C   0  0  0  0  0  0  0  0  0  0  0  0
   15.0528   -6.1981   -8.8250 O   0  0  0  0  0  0  0  0  0  0  0  0
   16.8717   -5.6946  -11.3747 C   0  0  0  0  0  0  0  0  0  0  0  0
   17.8168   -5.3818  -12.1072 O   0  0  0  0  0  0  0  0  0  0  0  0
   16.9011   -5.6368   -7.6847 O   0  0  0  0  0  0  0  0  0  0  0  0
   15.9567   -4.7682  -10.9387 O   0  0  0  0  0  0  0  0  0  0  0  0
  2  1  1  1
  2  3  1  0
  3  4  1  0
  4  5  1  0
  6  5  1  0
  6  7  1  0
  8  2  1  0
  8  9  2  0
 10  8  1  0
 11 10  1  0
 11 12  1  6
 13 12  1  0
 13 17  1  0
 14 13  2  0
 15 11  1  0
 16 15  2  0
 18 15  1  0
 19 18  1  0
 19 20  1  1
 20 21  1  0
 21 25  1  0
 21 22  2  0
 23 19  1  0
 24 23  2  0
 26 23  1  0
M  END
$$$$
