KDD.pdb
     RDKit          3D

 26 25  0  0  1  0  0  0  0  0999 V2000
   26.0300  -20.0355  -15.7446 N   0  0  0  0  0  0  0  0  0  0  0  0
   24.8334  -20.4980  -16.2763 C   0  0  1  0  0  0  0  0  0  0  0  0
   24.8717  -21.5407  -17.3463 C   0  0  0  0  0  0  0  0  0  0  0  0
   26.1825  -22.0511  -17.7651 C   0  0  0  0  0  0  0  0  0  0  0  0
   27.3426  -21.9970  -16.8883 C   0  0  0  0  0  0  0  0  0  0  0  0
   28.6215  -22.5745  -17.3823 C   0  0  0  0  0  0  0  0  0  0  0  0
   29.6792  -22.4207  -16.3674 N   0  0  0  0  0  0  0  0  0  0  0  0
   23.9069  -20.9381  -15.2035 C   0  0  0  0  0  0  0  0  0  0  0  0
   22.8759  -21.6334  -15.5252 O   0  0  0  0  0  0  0  0  0  0  0  0
   24.1163  -20.6210  -13.8499 N   0  0  0  0  0  0  0  0  0  0  0  0
   23.2195  -21.1314  -12.7943 C   0  0  1  0  0  0  0  0  0  0  0  0
   23.8412  -20.8869  -11.4491 C   0  0  0  0  0  0  0  0  0  0  0  0
   24.9621  -21.7689  -11.1673 C   0  0  0  0  0  0  0  0  0  0  0  0
   25.3457  -22.7269  -11.8693 O   0  0  0  0  0  0  0  0  0  0  0  0
   21.8910  -20.4794  -12.9581 C   0  0  0  0  0  0  0  0  0  0  0  0
   21.6899  -19.2617  -12.8205 O   0  0  0  0  0  0  0  0  0  0  0  0
   25.7233  -21.5604   -9.9931 O   0  0  0  0  0  0  0  0  0  0  0  0
   20.7279  -21.2609  -13.2975 N   0  0  0  0  0  0  0  0  0  0  0  0
   19.4203  -20.6641  -13.4554 C   0  0  1  0  0  0  0  0  0  0  0  0
   19.0763  -20.2875  -14.8549 C   0  0  0  0  0  0  0  0  0  0  0  0
   17.7359  -19.6744  -14.8975 C   0  0  0  0  0  0  0  0  0  0  0  0
   17.4417  -18.6713  -14.1832 O   0  0  0  0  0  0  0  0  0  0  0  0
   18.3657  -21.5120  -12.8274 C   0  0  0  0  0  0  0  0  0  0  0  0
   17.2668  -21.0191  -12.5498 O   0  0  0  0  0  0  0  0  0  0  0  0
   16.7516  -20.1622  -15.7104 O   0  0  0  0  0  0  0  0  0  0  0  0
   18.6520  -22.8309  -12.5740 O   0  0  0  0  0  0  0  0  0  0  0  0
  2  1  1  1
  2  3  1  0
  3  4  1  0
  4  5  1  0
  6  5  1  0
  6  7  1  0
  8  2  1  0
  8  9  2  0
 10  8  1  0
 11 10  1  0
 11 12  1  1
 13 12  1  0
 13 17  1  0
 14 13  2  0
 15 11  1  0
 16 15  2  0
 18 15  1  0
 19 18  1  0
 19 20  1  6
 20 21  1  0
 21 25  1  0
 21 22  2  0
 23 19  1  0
 24 23  2  0
 26 23  1  0
M  END
$$$$
