KDD.pdb
     RDKit          3D

 26 25  0  0  1  0  0  0  0  0999 V2000
   20.6563  -15.3499  -18.0959 N   0  0  0  0  0  0  0  0  0  0  0  0
   19.7202  -14.3591  -17.8304 C   0  0  1  0  0  0  0  0  0  0  0  0
   18.8780  -14.4696  -16.6007 C   0  0  0  0  0  0  0  0  0  0  0  0
   17.9600  -15.6098  -16.4937 C   0  0  0  0  0  0  0  0  0  0  0  0
   17.0395  -15.9567  -17.5662 C   0  0  0  0  0  0  0  0  0  0  0  0
   16.0572  -17.0465  -17.3207 C   0  0  0  0  0  0  0  0  0  0  0  0
   15.0989  -17.1337  -18.4373 N   0  0  0  0  0  0  0  0  0  0  0  0
   20.3415  -13.0119  -17.8730 C   0  0  0  0  0  0  0  0  0  0  0  0
   21.1698  -12.6846  -16.9474 O   0  0  0  0  0  0  0  0  0  0  0  0
   20.0559  -12.0819  -18.8880 N   0  0  0  0  0  0  0  0  0  0  0  0
   20.7097  -10.7589  -18.9233 C   0  0  1  0  0  0  0  0  0  0  0  0
   20.4753  -10.1212  -20.2626 C   0  0  0  0  0  0  0  0  0  0  0  0
   21.0910   -8.8101  -20.3884 C   0  0  0  0  0  0  0  0  0  0  0  0
   20.6580   -7.8494  -21.0573 O   0  0  0  0  0  0  0  0  0  0  0  0
   20.1877   -9.9524  -17.7857 C   0  0  0  0  0  0  0  0  0  0  0  0
   18.9814   -9.8077  -17.5288 O   0  0  0  0  0  0  0  0  0  0  0  0
   22.3014   -8.5499  -19.7038 O   0  0  0  0  0  0  0  0  0  0  0  0
   21.0930   -9.2735  -16.8923 N   0  0  0  0  0  0  0  0  0  0  0  0
   20.6224   -8.4591  -15.7940 C   0  0  1  0  0  0  0  0  0  0  0  0
   21.0256   -8.9456  -14.4452 C   0  0  0  0  0  0  0  0  0  0  0  0
   20.4885   -8.0498  -13.4043 C   0  0  0  0  0  0  0  0  0  0  0  0
   19.5350   -7.2517  -13.6426 O   0  0  0  0  0  0  0  0  0  0  0  0
   20.9758   -7.0247  -16.0016 C   0  0  0  0  0  0  0  0  0  0  0  0
   20.5304   -6.1656  -15.2327 O   0  0  0  0  0  0  0  0  0  0  0  0
   20.9968   -8.0416  -12.1356 O   0  0  0  0  0  0  0  0  0  0  0  0
   21.7956   -6.6989  -17.0539 O   0  0  0  0  0  0  0  0  0  0  0  0
  2  1  1  1
  2  3  1  0
  3  4  1  0
  4  5  1  0
  6  5  1  0
  6  7  1  0
  8  2  1  0
  8  9  2  0
 10  8  1  0
 11 10  1  0
 11 12  1  6
 13 12  1  0
 13 17  1  0
 14 13  2  0
 15 11  1  0
 16 15  2  0
 18 15  1  0
 19 18  1  0
 19 20  1  1
 20 21  1  0
 21 25  1  0
 21 22  2  0
 23 19  1  0
 24 23  2  0
 26 23  1  0
M  END
$$$$
