EMT.pdb
     RDKit          3D

 25 24  0  0  1  0  0  0  0  0999 V2000
    9.5983  -15.7136   19.3821 N   0  0  0  0  0  0  0  0  0  0  0  0
    8.4817  -15.9402   20.2953 C   0  0  1  0  0  0  0  0  0  0  0  0
    8.0319  -17.3633   20.2331 C   0  0  0  0  0  0  0  0  0  0  0  0
    9.0820  -18.3767   20.5428 C   0  0  0  0  0  0  0  0  0  0  0  0
    8.6405  -19.7743   20.4769 C   0  0  0  0  0  0  0  0  0  0  0  0
    8.5885  -20.5779   21.4362 O   0  0  0  0  0  0  0  0  0  0  0  0
    8.9039  -15.5887   21.6767 C   0  0  0  0  0  0  0  0  0  0  0  0
   10.0806  -15.6519   22.1037 O   0  0  0  0  0  0  0  0  0  0  0  0
    8.2417  -20.2537   19.2320 O   0  0  0  0  0  0  0  0  0  0  0  0
    6.9888  -11.4162   28.1424 C   0  0  0  0  0  0  0  0  0  0  0  0
    6.4606  -12.1304   26.5686 S   0  0  0  0  0  0  0  0  0  0  0  0
    7.6954  -13.2769   25.9184 C   0  0  0  0  0  0  0  0  0  0  0  0
    7.2918  -13.7600   24.5637 C   0  0  0  0  0  0  0  0  0  0  0  0
    8.3011  -14.7176   23.9649 C   0  0  2  0  0  0  0  0  0  0  0  0
    7.9276  -15.1350   22.6388 N   0  0  0  0  0  0  0  0  0  0  0  0
    8.5094  -15.9056   24.8306 C   0  0  0  0  0  0  0  0  0  0  0  0
    7.5702  -16.7435   24.9765 O   0  0  0  0  0  0  0  0  0  0  0  0
   10.5570  -18.8558   24.3682 C   0  0  0  0  0  0  0  0  0  0  0  0
   10.9578  -18.2808   25.6987 C   0  0  1  0  0  0  0  0  0  0  0  0
   12.2324  -17.7185   25.6825 O   0  0  0  0  0  0  0  0  0  0  0  0
    9.9354  -17.3606   26.2915 C   0  0  2  0  0  0  0  0  0  0  0  0
    9.7119  -16.1706   25.5184 N   0  0  0  0  0  0  0  0  0  0  0  0
   10.2523  -17.0831   27.7034 C   0  0  0  0  0  0  0  0  0  0  0  0
   10.4647  -15.9235   28.1126 O   0  0  0  0  0  0  0  0  0  0  0  0
   10.3154  -18.1370   28.5954 O   0  0  0  0  0  0  0  0  0  0  0  0
  2  1  1  6
  2  7  1  0
  3  2  1  0
  3  4  1  0
  5  4  1  0
  6  5  2  0
  7  8  2  0
  9  5  1  0
 10 11  1  0
 11 12  1  0
 13 12  1  0
 14 13  1  1
 14 16  1  0
 15  7  1  0
 15 14  1  0
 16 17  2  0
 19 18  1  6
 19 21  1  0
 20 19  1  0
 21 23  1  0
 22 16  1  0
 21 22  1  6
 23 24  2  0
 23 25  1  0
M  END
$$$$
