EMT.pdb
     RDKit          3D

 25 24  0  0  1  0  0  0  0  0999 V2000
   10.1187  -16.6100   20.1695 N   0  0  0  0  0  0  0  0  0  0  0  0
    9.2445  -17.0667   21.2462 C   0  0  1  0  0  0  0  0  0  0  0  0
    9.5281  -18.4937   21.5845 C   0  0  0  0  0  0  0  0  0  0  0  0
   10.9680  -18.8822   21.5486 C   0  0  0  0  0  0  0  0  0  0  0  0
   11.4662  -19.5470   22.7579 C   0  0  0  0  0  0  0  0  0  0  0  0
   12.6360  -19.9521   22.9486 O   0  0  0  0  0  0  0  0  0  0  0  0
    9.4465  -16.2004   22.4373 C   0  0  0  0  0  0  0  0  0  0  0  0
   10.4596  -15.4921   22.6441 O   0  0  0  0  0  0  0  0  0  0  0  0
   10.5547  -19.7469   23.7911 O   0  0  0  0  0  0  0  0  0  0  0  0
    6.2718  -10.9146   26.9090 C   0  0  0  0  0  0  0  0  0  0  0  0
    6.1817  -12.1411   25.5848 S   0  0  0  0  0  0  0  0  0  0  0  0
    7.1798  -13.5970   25.9669 C   0  0  0  0  0  0  0  0  0  0  0  0
    7.1368  -14.5674   24.8319 C   0  0  0  0  0  0  0  0  0  0  0  0
    8.4938  -15.1699   24.5322 C   0  0  2  0  0  0  0  0  0  0  0  0
    8.4325  -16.1317   23.4629 N   0  0  0  0  0  0  0  0  0  0  0  0
    9.0959  -15.7909   25.7389 C   0  0  0  0  0  0  0  0  0  0  0  0
    8.4715  -16.7130   26.3434 O   0  0  0  0  0  0  0  0  0  0  0  0
   10.5052  -13.8150   28.6911 C   0  0  0  0  0  0  0  0  0  0  0  0
   10.4152  -15.3157   28.7249 C   0  0  1  0  0  0  0  0  0  0  0  0
    9.1588  -15.7730   29.1169 O   0  0  0  0  0  0  0  0  0  0  0  0
   10.8982  -15.9780   27.4713 C   0  0  2  0  0  0  0  0  0  0  0  0
   10.3467  -15.4140   26.2707 N   0  0  0  0  0  0  0  0  0  0  0  0
   10.7194  -17.4378   27.5608 C   0  0  0  0  0  0  0  0  0  0  0  0
    9.9941  -18.0604   26.7585 O   0  0  0  0  0  0  0  0  0  0  0  0
   11.3734  -18.1327   28.5605 O   0  0  0  0  0  0  0  0  0  0  0  0
  2  1  1  6
  2  7  1  0
  3  2  1  0
  3  4  1  0
  5  4  1  0
  6  5  2  0
  7  8  2  0
  9  5  1  0
 10 11  1  0
 11 12  1  0
 13 12  1  0
 14 13  1  1
 14 16  1  0
 15  7  1  0
 15 14  1  0
 16 17  2  0
 19 18  1  6
 19 21  1  0
 20 19  1  0
 21 23  1  0
 22 16  1  0
 21 22  1  6
 23 24  2  0
 23 25  1  0
M  END
$$$$
