EMT.pdb
     RDKit          3D

 25 24  0  0  1  0  0  0  0  0999 V2000
    8.0954  -12.9513   18.9721 N   0  0  0  0  0  0  0  0  0  0  0  0
    7.3492  -13.8685   19.8288 C   0  0  1  0  0  0  0  0  0  0  0  0
    7.3194  -15.2380   19.2330 C   0  0  0  0  0  0  0  0  0  0  0  0
    8.1308  -15.4104   17.9931 C   0  0  0  0  0  0  0  0  0  0  0  0
    8.1148  -16.7602   17.4184 C   0  0  0  0  0  0  0  0  0  0  0  0
    7.4961  -17.7492   17.8743 O   0  0  0  0  0  0  0  0  0  0  0  0
    7.9812  -13.9008   21.1739 C   0  0  0  0  0  0  0  0  0  0  0  0
    9.2140  -13.8270   21.3878 O   0  0  0  0  0  0  0  0  0  0  0  0
    8.8563  -16.9622   16.2574 O   0  0  0  0  0  0  0  0  0  0  0  0
    7.3553  -11.7149   28.6171 C   0  0  0  0  0  0  0  0  0  0  0  0
    6.5902  -11.9096   26.9915 S   0  0  0  0  0  0  0  0  0  0  0  0
    7.3931  -13.2168   26.0382 C   0  0  0  0  0  0  0  0  0  0  0  0
    6.8060  -13.2934   24.6667 C   0  0  0  0  0  0  0  0  0  0  0  0
    7.7238  -13.9862   23.6808 C   0  0  2  0  0  0  0  0  0  0  0  0
    7.1617  -14.0248   22.3562 N   0  0  0  0  0  0  0  0  0  0  0  0
    8.0685  -15.3600   24.1257 C   0  0  0  0  0  0  0  0  0  0  0  0
    7.1981  -16.2776   24.0482 O   0  0  0  0  0  0  0  0  0  0  0  0
   10.2915  -17.9370   22.7747 C   0  0  0  0  0  0  0  0  0  0  0  0
   10.7214  -17.6972   24.1957 C   0  0  1  0  0  0  0  0  0  0  0  0
   11.9466  -17.0401   24.2860 O   0  0  0  0  0  0  0  0  0  0  0  0
    9.6667  -17.0581   25.0459 C   0  0  2  0  0  0  0  0  0  0  0  0
    9.3305  -15.7212   24.6416 N   0  0  0  0  0  0  0  0  0  0  0  0
   10.0261  -17.1591   26.4713 C   0  0  0  0  0  0  0  0  0  0  0  0
   10.1059  -16.1500   27.2009 O   0  0  0  0  0  0  0  0  0  0  0  0
   10.2810  -18.4057   27.0111 O   0  0  0  0  0  0  0  0  0  0  0  0
  2  1  1  6
  2  7  1  0
  3  2  1  0
  3  4  1  0
  5  4  1  0
  6  5  2  0
  7  8  2  0
  9  5  1  0
 10 11  1  0
 11 12  1  0
 13 12  1  0
 14 13  1  1
 14 16  1  0
 15  7  1  0
 15 14  1  0
 16 17  2  0
 19 18  1  6
 19 21  1  0
 20 19  1  0
 21 23  1  0
 22 16  1  0
 21 22  1  6
 23 24  2  0
 23 25  1  0
M  END
$$$$
