EMT.pdb
     RDKit          3D

 25 24  0  0  1  0  0  0  0  0999 V2000
    8.3994  -17.0602   20.7405 N   0  0  0  0  0  0  0  0  0  0  0  0
    9.5016  -17.6872   21.4643 C   0  0  1  0  0  0  0  0  0  0  0  0
   10.7543  -17.6483   20.6515 C   0  0  0  0  0  0  0  0  0  0  0  0
   11.0281  -16.3519   19.9660 C   0  0  0  0  0  0  0  0  0  0  0  0
   12.3006  -16.2861   19.2387 C   0  0  0  0  0  0  0  0  0  0  0  0
   13.4444  -16.3259   19.7475 O   0  0  0  0  0  0  0  0  0  0  0  0
    9.6992  -16.9804   22.7571 C   0  0  0  0  0  0  0  0  0  0  0  0
   10.7400  -17.0380   23.4530 O   0  0  0  0  0  0  0  0  0  0  0  0
   12.2319  -16.1685   17.8531 O   0  0  0  0  0  0  0  0  0  0  0  0
    7.0889  -11.1108   25.5569 C   0  0  0  0  0  0  0  0  0  0  0  0
    6.5052  -12.6104   26.3791 S   0  0  0  0  0  0  0  0  0  0  0  0
    7.6992  -13.9562   26.2193 C   0  0  0  0  0  0  0  0  0  0  0  0
    7.6724  -14.5110   24.8326 C   0  0  0  0  0  0  0  0  0  0  0  0
    8.7372  -15.5647   24.6087 C   0  0  2  0  0  0  0  0  0  0  0  0
    8.6470  -16.1526   23.2978 N   0  0  0  0  0  0  0  0  0  0  0  0
    8.6834  -16.6264   25.6453 C   0  0  0  0  0  0  0  0  0  0  0  0
    7.5758  -17.1794   25.9149 O   0  0  0  0  0  0  0  0  0  0  0  0
    9.7722  -20.0122   25.5573 C   0  0  0  0  0  0  0  0  0  0  0  0
   10.4525  -19.4110   26.7562 C   0  0  1  0  0  0  0  0  0  0  0  0
   11.8201  -19.2257   26.5651 O   0  0  0  0  0  0  0  0  0  0  0  0
    9.7773  -18.1808   27.2798 C   0  0  2  0  0  0  0  0  0  0  0  0
    9.8101  -17.0713   26.3678 N   0  0  0  0  0  0  0  0  0  0  0  0
   10.2907  -17.8447   28.6194 C   0  0  0  0  0  0  0  0  0  0  0  0
   10.9008  -16.7787   28.8399 O   0  0  0  0  0  0  0  0  0  0  0  0
   10.0896  -18.7356   29.6568 O   0  0  0  0  0  0  0  0  0  0  0  0
  2  1  1  6
  2  7  1  0
  3  2  1  0
  3  4  1  0
  5  4  1  0
  6  5  2  0
  7  8  2  0
  9  5  1  0
 10 11  1  0
 11 12  1  0
 13 12  1  0
 14 13  1  1
 14 16  1  0
 15  7  1  0
 15 14  1  0
 16 17  2  0
 19 18  1  6
 19 21  1  0
 20 19  1  0
 21 23  1  0
 22 16  1  0
 21 22  1  6
 23 24  2  0
 23 25  1  0
M  END
$$$$
