EMT.pdb
     RDKit          3D

 25 24  0  0  1  0  0  0  0  0999 V2000
   11.0182  -16.2074   14.5357 N   0  0  0  0  0  0  0  0  0  0  0  0
   10.0641  -16.3589   15.6306 C   0  0  1  0  0  0  0  0  0  0  0  0
    9.6856  -17.7935   15.8037 C   0  0  0  0  0  0  0  0  0  0  0  0
   10.7623  -18.7778   15.4915 C   0  0  0  0  0  0  0  0  0  0  0  0
   10.3924  -20.1863   15.6700 C   0  0  0  0  0  0  0  0  0  0  0  0
   10.0095  -20.9687   14.7699 O   0  0  0  0  0  0  0  0  0  0  0  0
   10.6689  -15.8268   16.8801 C   0  0  0  0  0  0  0  0  0  0  0  0
   11.8989  -15.7777   17.1157 O   0  0  0  0  0  0  0  0  0  0  0  0
   10.4741  -20.7032   16.9602 O   0  0  0  0  0  0  0  0  0  0  0  0
    7.7645  -11.9334   21.6342 C   0  0  0  0  0  0  0  0  0  0  0  0
    7.6397  -11.7503   19.8407 S   0  0  0  0  0  0  0  0  0  0  0  0
    8.9209  -12.6985   18.9913 C   0  0  0  0  0  0  0  0  0  0  0  0
    9.3635  -13.8466   19.8383 C   0  0  0  0  0  0  0  0  0  0  0  0
   10.3672  -14.7350   19.1328 C   0  0  2  0  0  0  0  0  0  0  0  0
    9.8236  -15.3160   17.9332 N   0  0  0  0  0  0  0  0  0  0  0  0
   10.8768  -15.8040   20.0281 C   0  0  0  0  0  0  0  0  0  0  0  0
   10.1934  -16.8582   20.1927 O   0  0  0  0  0  0  0  0  0  0  0  0
   14.2617  -17.6534   19.8295 C   0  0  0  0  0  0  0  0  0  0  0  0
   14.0496  -17.1334   21.2245 C   0  0  1  0  0  0  0  0  0  0  0  0
   14.9266  -16.1028   21.5561 O   0  0  0  0  0  0  0  0  0  0  0  0
   12.6240  -16.7906   21.5309 C   0  0  2  0  0  0  0  0  0  0  0  0
   12.1005  -15.7230   20.7248 N   0  0  0  0  0  0  0  0  0  0  0  0
   12.4503  -16.5639   22.9764 C   0  0  0  0  0  0  0  0  0  0  0  0
   11.9764  -15.4986   23.4212 O   0  0  0  0  0  0  0  0  0  0  0  0
   12.8231  -17.5590   23.8601 O   0  0  0  0  0  0  0  0  0  0  0  0
  2  1  1  6
  2  7  1  0
  3  2  1  0
  3  4  1  0
  5  4  1  0
  6  5  2  0
  7  8  2  0
  9  5  1  0
 10 11  1  0
 11 12  1  0
 13 12  1  0
 14 13  1  1
 14 16  1  0
 15  7  1  0
 15 14  1  0
 16 17  2  0
 19 18  1  6
 19 21  1  0
 20 19  1  0
 21 23  1  0
 22 16  1  0
 21 22  1  6
 23 24  2  0
 23 25  1  0
M  END
$$$$
