EMT.pdb
     RDKit          3D

 25 24  0  0  1  0  0  0  0  0999 V2000
    7.0242  -16.7079   20.8913 N   0  0  0  0  0  0  0  0  0  0  0  0
    8.4839  -16.6796   20.8718 C   0  0  1  0  0  0  0  0  0  0  0  0
    8.9801  -15.9732   19.6527 C   0  0  0  0  0  0  0  0  0  0  0  0
    8.0827  -16.0496   18.4635 C   0  0  0  0  0  0  0  0  0  0  0  0
    8.7669  -16.1122   17.1671 C   0  0  0  0  0  0  0  0  0  0  0  0
   10.0055  -16.1634   16.9881 O   0  0  0  0  0  0  0  0  0  0  0  0
    8.9737  -16.0012   22.1007 C   0  0  0  0  0  0  0  0  0  0  0  0
   10.1776  -15.7632   22.3557 O   0  0  0  0  0  0  0  0  0  0  0  0
    7.9658  -16.1150   16.0285 O   0  0  0  0  0  0  0  0  0  0  0  0
    6.0229  -11.3915   25.7104 C   0  0  0  0  0  0  0  0  0  0  0  0
    6.6557  -12.4786   27.0078 S   0  0  0  0  0  0  0  0  0  0  0  0
    7.8734  -13.6424   26.3558 C   0  0  0  0  0  0  0  0  0  0  0  0
    7.4575  -14.1251   25.0046 C   0  0  0  0  0  0  0  0  0  0  0  0
    8.4705  -15.0675   24.3882 C   0  0  2  0  0  0  0  0  0  0  0  0
    8.0369  -15.5630   23.1081 N   0  0  0  0  0  0  0  0  0  0  0  0
    8.7828  -16.2031   25.2921 C   0  0  0  0  0  0  0  0  0  0  0  0
    7.8808  -17.0504   25.5640 O   0  0  0  0  0  0  0  0  0  0  0  0
   12.8222  -17.3253   25.9132 C   0  0  0  0  0  0  0  0  0  0  0  0
   11.6518  -18.2618   26.0349 C   0  0  1  0  0  0  0  0  0  0  0  0
   11.9696  -19.4392   26.7086 O   0  0  0  0  0  0  0  0  0  0  0  0
   10.4130  -17.6133   26.5721 C   0  0  2  0  0  0  0  0  0  0  0  0
   10.0472  -16.4070   25.8831 N   0  0  0  0  0  0  0  0  0  0  0  0
   10.5174  -17.4380   28.0314 C   0  0  0  0  0  0  0  0  0  0  0  0
   10.4111  -16.3158   28.5667 O   0  0  0  0  0  0  0  0  0  0  0  0
   10.7389  -18.5476   28.8252 O   0  0  0  0  0  0  0  0  0  0  0  0
  2  1  1  1
  2  7  1  0
  3  2  1  0
  3  4  1  0
  5  4  1  0
  6  5  2  0
  7  8  2  0
  9  5  1  0
 10 11  1  0
 11 12  1  0
 13 12  1  0
 14 13  1  1
 14 16  1  0
 15  7  1  0
 15 14  1  0
 16 17  2  0
 19 18  1  1
 19 21  1  0
 20 19  1  0
 21 23  1  0
 22 16  1  0
 21 22  1  6
 23 24  2  0
 23 25  1  0
M  END
$$$$
