EMT.pdb
     RDKit          3D

 25 24  0  0  1  0  0  0  0  0999 V2000
    5.7304  -17.6226   21.5864 N   0  0  0  0  0  0  0  0  0  0  0  0
    7.0977  -18.1320   21.6425 C   0  0  1  0  0  0  0  0  0  0  0  0
    7.7526  -18.0294   20.3039 C   0  0  0  0  0  0  0  0  0  0  0  0
    7.2587  -16.9202   19.4372 C   0  0  0  0  0  0  0  0  0  0  0  0
    7.9076  -16.8157   18.1255 C   0  0  0  0  0  0  0  0  0  0  0  0
    7.3335  -16.8546   17.0129 O   0  0  0  0  0  0  0  0  0  0  0  0
    7.8633  -17.3596   22.6561 C   0  0  0  0  0  0  0  0  0  0  0  0
    9.1054  -17.4190   22.8134 O   0  0  0  0  0  0  0  0  0  0  0  0
    9.2909  -16.6583   18.1148 O   0  0  0  0  0  0  0  0  0  0  0  0
    5.8501  -11.6643   25.5361 C   0  0  0  0  0  0  0  0  0  0  0  0
    6.6946  -12.5396   26.8728 S   0  0  0  0  0  0  0  0  0  0  0  0
    7.7459  -13.8616   26.2330 C   0  0  0  0  0  0  0  0  0  0  0  0
    7.0357  -14.6128   25.1547 C   0  0  0  0  0  0  0  0  0  0  0  0
    7.8651  -15.7515   24.5982 C   0  0  2  0  0  0  0  0  0  0  0  0
    7.1758  -16.4594   23.5513 N   0  0  0  0  0  0  0  0  0  0  0  0
    8.2791  -16.6991   25.6636 C   0  0  0  0  0  0  0  0  0  0  0  0
    7.4048  -17.4181   26.2331 O   0  0  0  0  0  0  0  0  0  0  0  0
   10.5458  -19.7070   25.3735 C   0  0  0  0  0  0  0  0  0  0  0  0
   11.0643  -18.8053   26.4597 C   0  0  1  0  0  0  0  0  0  0  0  0
   12.2353  -18.1424   26.0985 O   0  0  0  0  0  0  0  0  0  0  0  0
   10.0307  -17.8756   27.0172 C   0  0  2  0  0  0  0  0  0  0  0  0
    9.6127  -16.8566   26.0950 N   0  0  0  0  0  0  0  0  0  0  0  0
   10.4728  -17.3361   28.3151 C   0  0  0  0  0  0  0  0  0  0  0  0
   10.6241  -16.1113   28.4994 O   0  0  0  0  0  0  0  0  0  0  0  0
   10.7256  -18.2124   29.3536 O   0  0  0  0  0  0  0  0  0  0  0  0
  2  1  1  6
  2  7  1  0
  3  2  1  0
  3  4  1  0
  5  4  1  0
  6  5  2  0
  7  8  2  0
  9  5  1  0
 10 11  1  0
 11 12  1  0
 13 12  1  0
 14 13  1  1
 14 16  1  0
 15  7  1  0
 15 14  1  0
 16 17  2  0
 19 18  1  6
 19 21  1  0
 20 19  1  0
 21 23  1  0
 22 16  1  0
 21 22  1  6
 23 24  2  0
 23 25  1  0
M  END
$$$$
