EMT.pdb
     RDKit          3D

 25 24  0  0  1  0  0  0  0  0999 V2000
    6.4969  -17.8151   21.0751 N   0  0  0  0  0  0  0  0  0  0  0  0
    7.9535  -17.9157   21.0565 C   0  0  1  0  0  0  0  0  0  0  0  0
    8.4918  -17.5097   19.7236 C   0  0  0  0  0  0  0  0  0  0  0  0
    9.5778  -16.4875   19.7604 C   0  0  0  0  0  0  0  0  0  0  0  0
   10.7828  -16.8281   18.9958 C   0  0  0  0  0  0  0  0  0  0  0  0
   10.8193  -17.4832   17.9289 O   0  0  0  0  0  0  0  0  0  0  0  0
    8.5145  -17.0518   22.1284 C   0  0  0  0  0  0  0  0  0  0  0  0
    9.7360  -16.8357   22.3080 O   0  0  0  0  0  0  0  0  0  0  0  0
   12.0005  -16.3820   19.5024 O   0  0  0  0  0  0  0  0  0  0  0  0
    7.1639  -11.5887   27.7263 C   0  0  0  0  0  0  0  0  0  0  0  0
    6.5893  -12.4810   26.2637 S   0  0  0  0  0  0  0  0  0  0  0  0
    7.6715  -13.8736   25.8745 C   0  0  0  0  0  0  0  0  0  0  0  0
    7.2341  -14.5316   24.6067 C   0  0  0  0  0  0  0  0  0  0  0  0
    8.1306  -15.6876   24.2139 C   0  0  2  0  0  0  0  0  0  0  0  0
    7.6326  -16.3880   23.0591 N   0  0  0  0  0  0  0  0  0  0  0  0
    8.3241  -16.6373   25.3386 C   0  0  0  0  0  0  0  0  0  0  0  0
    7.3124  -17.1022   25.9435 O   0  0  0  0  0  0  0  0  0  0  0  0
    9.8484  -20.0786   25.3140 C   0  0  0  0  0  0  0  0  0  0  0  0
   10.5502  -19.2559   26.3590 C   0  0  1  0  0  0  0  0  0  0  0  0
   11.8578  -18.9318   26.0033 O   0  0  0  0  0  0  0  0  0  0  0  0
    9.7689  -18.0608   26.8118 C   0  0  2  0  0  0  0  0  0  0  0  0
    9.5893  -17.0671   25.7900 N   0  0  0  0  0  0  0  0  0  0  0  0
   10.3402  -17.5158   28.0558 C   0  0  0  0  0  0  0  0  0  0  0  0
   10.7694  -16.3460   28.1234 O   0  0  0  0  0  0  0  0  0  0  0  0
   10.4009  -18.3240   29.1754 O   0  0  0  0  0  0  0  0  0  0  0  0
  2  1  1  6
  2  7  1  0
  3  2  1  0
  3  4  1  0
  5  4  1  0
  6  5  2  0
  7  8  2  0
  9  5  1  0
 10 11  1  0
 11 12  1  0
 13 12  1  0
 14 13  1  1
 14 16  1  0
 15  7  1  0
 15 14  1  0
 16 17  2  0
 19 18  1  6
 19 21  1  0
 20 19  1  0
 21 23  1  0
 22 16  1  0
 21 22  1  6
 23 24  2  0
 23 25  1  0
M  END
$$$$
