EMT.pdb
     RDKit          3D

 25 24  0  0  1  0  0  0  0  0999 V2000
    7.2078  -16.7411   20.8125 N   0  0  0  0  0  0  0  0  0  0  0  0
    8.6544  -16.9133   20.9116 C   0  0  1  0  0  0  0  0  0  0  0  0
    9.3411  -16.2725   19.7501 C   0  0  0  0  0  0  0  0  0  0  0  0
    8.4421  -15.5773   18.7837 C   0  0  0  0  0  0  0  0  0  0  0  0
    8.7608  -15.7924   17.3678 C   0  0  0  0  0  0  0  0  0  0  0  0
    8.1306  -15.3270   16.3905 O   0  0  0  0  0  0  0  0  0  0  0  0
    9.1288  -16.3180   22.1886 C   0  0  0  0  0  0  0  0  0  0  0  0
   10.3306  -16.2236   22.5318 O   0  0  0  0  0  0  0  0  0  0  0  0
    9.8671  -16.5880   17.0822 O   0  0  0  0  0  0  0  0  0  0  0  0
    5.8183  -11.8465   25.4031 C   0  0  0  0  0  0  0  0  0  0  0  0
    6.9447  -12.3074   26.7390 S   0  0  0  0  0  0  0  0  0  0  0  0
    8.0838  -13.6095   26.2200 C   0  0  0  0  0  0  0  0  0  0  0  0
    7.6670  -14.1662   24.8979 C   0  0  0  0  0  0  0  0  0  0  0  0
    8.5875  -15.2685   24.4165 C   0  0  2  0  0  0  0  0  0  0  0  0
    8.1779  -15.7944   23.1407 N   0  0  0  0  0  0  0  0  0  0  0  0
    8.6907  -16.3681   25.4088 C   0  0  0  0  0  0  0  0  0  0  0  0
    7.6678  -17.0675   25.6735 O   0  0  0  0  0  0  0  0  0  0  0  0
   10.1020  -19.5795   25.1159 C   0  0  0  0  0  0  0  0  0  0  0  0
   10.7858  -18.9684   26.3078 C   0  0  1  0  0  0  0  0  0  0  0  0
   12.1112  -18.6232   26.0522 O   0  0  0  0  0  0  0  0  0  0  0  0
   10.0155  -17.8488   26.9375 C   0  0  2  0  0  0  0  0  0  0  0  0
    9.8800  -16.6944   26.0933 N   0  0  0  0  0  0  0  0  0  0  0  0
   10.5651  -17.5326   28.2675 C   0  0  0  0  0  0  0  0  0  0  0  0
   11.0292  -16.4054   28.5346 O   0  0  0  0  0  0  0  0  0  0  0  0
   10.5653  -18.5122   29.2425 O   0  0  0  0  0  0  0  0  0  0  0  0
  2  1  1  6
  2  7  1  0
  3  2  1  0
  3  4  1  0
  5  4  1  0
  6  5  2  0
  7  8  2  0
  9  5  1  0
 10 11  1  0
 11 12  1  0
 13 12  1  0
 14 13  1  1
 14 16  1  0
 15  7  1  0
 15 14  1  0
 16 17  2  0
 19 18  1  6
 19 21  1  0
 20 19  1  0
 21 23  1  0
 22 16  1  0
 21 22  1  6
 23 24  2  0
 23 25  1  0
M  END
$$$$
