NVA.pdb
     RDKit          3D

 21 20  0  0  1  0  0  0  0  0999 V2000
   20.1328  -16.6593  -15.2665 N   0  0  0  0  0  0  0  0  0  0  0  0
   20.7691  -15.8753  -16.2549 C   0  0  0  0  0  0  0  0  0  0  0  0
   21.9097  -16.1976  -16.6453 O   0  0  0  0  0  0  0  0  0  0  0  0
   20.0910  -14.6914  -16.8162 C   0  0  0  0  0  0  0  0  0  0  0  0
   18.7290  -14.4698  -16.1946 C   0  0  2  0  0  0  0  0  0  0  0  0
   17.8777  -15.5955  -16.4318 N   0  0  0  0  0  0  0  0  0  0  0  0
   18.1897  -13.2039  -16.7297 C   0  0  0  0  0  0  0  0  0  0  0  0
   17.5865  -13.2554  -17.8351 O   0  0  0  0  0  0  0  0  0  0  0  0
   15.6245  -12.2092  -17.0827 C   0  0  0  0  0  0  0  0  0  0  0  0
   16.0763  -10.9440  -16.3983 C   0  0  1  0  0  0  0  0  0  0  0  0
   15.7246  -11.0198  -14.9392 C   0  0  0  0  0  0  0  0  0  0  0  0
   17.5722  -10.8065  -16.6230 C   0  0  2  0  0  0  0  0  0  0  0  0
   18.2964  -11.9490  -16.1039 N   0  0  0  0  0  0  0  0  0  0  0  0
   18.0090   -9.5756  -15.9062 C   0  0  0  0  0  0  0  0  0  0  0  0
   18.1424   -9.5779  -14.6678 O   0  0  0  0  0  0  0  0  0  0  0  0
   19.2422   -6.2136  -17.0079 C   0  0  0  0  0  0  0  0  0  0  0  0
   18.7744   -7.1717  -15.9200 C   0  0  2  0  0  0  0  0  0  0  0  0
   18.2877   -8.3616  -16.6046 N   0  0  0  0  0  0  0  0  0  0  0  0
   17.6535   -6.6192  -15.1379 C   0  0  0  0  0  0  0  0  0  0  0  0
   16.4346   -6.8798  -15.4149 O   0  0  0  0  0  0  0  0  0  0  0  0
   17.8386   -5.7747  -14.0422 O   0  0  0  0  0  0  0  0  0  0  0  0
  2  1  1  0
  3  2  2  0
  4  2  1  0
  5  4  1  0
  5  6  1  6
  7  8  2  0
  7  5  1  0
 10  9  1  6
 10 12  1  0
 11 10  1  0
 12 13  1  1
 12 14  1  0
 13  7  1  0
 14 18  1  0
 15 14  2  0
 17 19  1  0
 17 16  1  6
 18 17  1  0
 19 20  2  0
 19 21  1  0
M  END
$$$$
