NVA.pdb
     RDKit          3D

 21 20  0  0  1  0  0  0  0  0999 V2000
   20.1042  -14.2661  -16.4162 N   0  0  0  0  0  0  0  0  0  0  0  0
   21.1952  -13.6022  -17.0210 C   0  0  0  0  0  0  0  0  0  0  0  0
   22.2568  -14.2290  -17.2143 O   0  0  0  0  0  0  0  0  0  0  0  0
   21.0775  -12.1861  -17.4176 C   0  0  0  0  0  0  0  0  0  0  0  0
   19.7046  -11.6246  -17.1163 C   0  0  2  0  0  0  0  0  0  0  0  0
   18.7404  -12.1238  -18.0486 N   0  0  0  0  0  0  0  0  0  0  0  0
   19.8103  -10.1521  -17.1138 C   0  0  0  0  0  0  0  0  0  0  0  0
   20.0274   -9.5876  -18.2196 O   0  0  0  0  0  0  0  0  0  0  0  0
   17.4083   -7.6168  -16.7397 C   0  0  0  0  0  0  0  0  0  0  0  0
   18.4389   -7.2371  -15.7067 C   0  0  1  0  0  0  0  0  0  0  0  0
   17.9666   -7.6830  -14.3516 C   0  0  0  0  0  0  0  0  0  0  0  0
   19.7516   -7.8908  -16.1023 C   0  0  2  0  0  0  0  0  0  0  0  0
   19.6879   -9.3329  -15.9773 N   0  0  0  0  0  0  0  0  0  0  0  0
   20.7970   -7.3596  -15.1832 C   0  0  0  0  0  0  0  0  0  0  0  0
   20.9105   -7.8082  -14.0268 O   0  0  0  0  0  0  0  0  0  0  0  0
   23.6699   -4.9882  -15.5648 C   0  0  0  0  0  0  0  0  0  0  0  0
   22.7156   -5.7959  -14.6946 C   0  0  2  0  0  0  0  0  0  0  0  0
   21.6973   -6.3283  -15.5897 N   0  0  0  0  0  0  0  0  0  0  0  0
   22.0324   -4.9570  -13.6932 C   0  0  0  0  0  0  0  0  0  0  0  0
   20.9293   -4.3630  -13.9391 O   0  0  0  0  0  0  0  0  0  0  0  0
   22.5365   -4.7500  -12.4082 O   0  0  0  0  0  0  0  0  0  0  0  0
  2  1  1  0
  3  2  2  0
  4  2  1  0
  5  4  1  0
  5  6  1  6
  7  8  2  0
  7  5  1  0
 10  9  1  6
 10 12  1  0
 11 10  1  0
 12 13  1  1
 12 14  1  0
 13  7  1  0
 14 18  1  0
 15 14  2  0
 17 19  1  0
 17 16  1  6
 18 17  1  0
 19 20  2  0
 19 21  1  0
M  END
$$$$
