NVA.pdb
     RDKit          3D

 21 20  0  0  1  0  0  0  0  0999 V2000
   20.8764  -17.0486  -16.3667 N   0  0  0  0  0  0  0  0  0  0  0  0
   21.4727  -15.9422  -17.0124 C   0  0  0  0  0  0  0  0  0  0  0  0
   22.7068  -15.9389  -17.1975 O   0  0  0  0  0  0  0  0  0  0  0  0
   20.6440  -14.8070  -17.4609 C   0  0  0  0  0  0  0  0  0  0  0  0
   19.1940  -14.9691  -17.0586 C   0  0  2  0  0  0  0  0  0  0  0  0
   18.5871  -16.0434  -17.7837 N   0  0  0  0  0  0  0  0  0  0  0  0
   18.5216  -13.6706  -17.2625 C   0  0  0  0  0  0  0  0  0  0  0  0
   18.1692  -13.3818  -18.4375 O   0  0  0  0  0  0  0  0  0  0  0  0
   15.3577  -12.5497  -16.2261 C   0  0  0  0  0  0  0  0  0  0  0  0
   16.2343  -11.4012  -15.7948 C   0  0  1  0  0  0  0  0  0  0  0  0
   16.4389  -11.4684  -14.3075 C   0  0  0  0  0  0  0  0  0  0  0  0
   17.5417  -11.5056  -16.5607 C   0  0  2  0  0  0  0  0  0  0  0  0
   18.2446  -12.7341  -16.2506 N   0  0  0  0  0  0  0  0  0  0  0  0
   18.3778  -10.3407  -16.1559 C   0  0  0  0  0  0  0  0  0  0  0  0
   19.0690  -10.3869  -15.1207 O   0  0  0  0  0  0  0  0  0  0  0  0
   19.2136   -7.0347  -17.7136 C   0  0  0  0  0  0  0  0  0  0  0  0
   19.2012   -7.9844  -16.5227 C   0  0  2  0  0  0  0  0  0  0  0  0
   18.4171   -9.1420  -16.9310 N   0  0  0  0  0  0  0  0  0  0  0  0
   18.5391   -7.3916  -15.3465 C   0  0  0  0  0  0  0  0  0  0  0  0
   17.2886   -7.5271  -15.1271 O   0  0  0  0  0  0  0  0  0  0  0  0
   19.2248   -6.6418  -14.3896 O   0  0  0  0  0  0  0  0  0  0  0  0
  2  1  1  0
  3  2  2  0
  4  2  1  0
  5  4  1  0
  5  6  1  6
  7  8  2  0
  7  5  1  0
 10  9  1  6
 10 12  1  0
 11 10  1  0
 12 13  1  1
 12 14  1  0
 13  7  1  0
 14 18  1  0
 15 14  2  0
 17 19  1  0
 17 16  1  6
 18 17  1  0
 19 20  2  0
 19 21  1  0
M  END
$$$$
