NVA.pdb
     RDKit          3D

 21 20  0  0  1  0  0  0  0  0999 V2000
   20.4793  -17.4452  -15.7528 N   0  0  0  0  0  0  0  0  0  0  0  0
   19.4861  -16.4443  -15.6631 C   0  0  0  0  0  0  0  0  0  0  0  0
   18.3830  -16.7265  -15.1524 O   0  0  0  0  0  0  0  0  0  0  0  0
   19.7528  -15.0839  -16.1679 C   0  0  0  0  0  0  0  0  0  0  0  0
   18.5604  -14.5061  -16.8992 C   0  0  2  0  0  0  0  0  0  0  0  0
   18.2668  -15.2745  -18.0703 N   0  0  0  0  0  0  0  0  0  0  0  0
   18.8516  -13.0875  -17.1865 C   0  0  0  0  0  0  0  0  0  0  0  0
   19.3941  -12.8227  -18.2929 O   0  0  0  0  0  0  0  0  0  0  0  0
   16.7887  -10.0276  -15.4700 C   0  0  0  0  0  0  0  0  0  0  0  0
   17.4510   -9.8846  -16.8169 C   0  0  1  0  0  0  0  0  0  0  0  0
   17.6504   -8.4254  -17.1161 C   0  0  0  0  0  0  0  0  0  0  0  0
   18.7640  -10.6466  -16.7689 C   0  0  2  0  0  0  0  0  0  0  0  0
   18.5718  -12.0123  -16.3244 N   0  0  0  0  0  0  0  0  0  0  0  0
   19.6475   -9.9318  -15.8054 C   0  0  0  0  0  0  0  0  0  0  0  0
   19.4510  -10.0228  -14.5788 O   0  0  0  0  0  0  0  0  0  0  0  0
   22.7405   -7.8306  -16.1567 C   0  0  0  0  0  0  0  0  0  0  0  0
   21.6542   -8.4845  -15.3125 C   0  0  2  0  0  0  0  0  0  0  0  0
   20.7397   -9.1251  -16.2477 N   0  0  0  0  0  0  0  0  0  0  0  0
   20.8799   -7.4953  -14.5408 C   0  0  0  0  0  0  0  0  0  0  0  0
   19.9340   -6.8132  -15.0608 O   0  0  0  0  0  0  0  0  0  0  0  0
   21.1208   -7.2311  -13.1916 O   0  0  0  0  0  0  0  0  0  0  0  0
  2  1  1  0
  3  2  2  0
  4  2  1  0
  5  4  1  0
  5  6  1  6
  7  8  2  0
  7  5  1  0
 10  9  1  1
 10 12  1  0
 11 10  1  0
 12 13  1  1
 12 14  1  0
 13  7  1  0
 14 18  1  0
 15 14  2  0
 17 19  1  0
 17 16  1  6
 18 17  1  0
 19 20  2  0
 19 21  1  0
M  END
$$$$
