NVA.pdb
     RDKit          3D

 21 20  0  0  1  0  0  0  0  0999 V2000
   23.0952  -15.3686  -20.3764 N   0  0  0  0  0  0  0  0  0  0  0  0
   21.8626  -14.9296  -19.8430 C   0  0  0  0  0  0  0  0  0  0  0  0
   20.8096  -15.1695  -20.4683 O   0  0  0  0  0  0  0  0  0  0  0  0
   21.8244  -14.1971  -18.5630 C   0  0  0  0  0  0  0  0  0  0  0  0
   23.2100  -13.9671  -17.9992 C   0  0  2  0  0  0  0  0  0  0  0  0
   23.7600  -15.1902  -17.4996 N   0  0  0  0  0  0  0  0  0  0  0  0
   23.1102  -12.9079  -16.9757 C   0  0  0  0  0  0  0  0  0  0  0  0
   22.4598  -13.1758  -15.9299 O   0  0  0  0  0  0  0  0  0  0  0  0
   25.5912  -11.4098  -14.9065 C   0  0  0  0  0  0  0  0  0  0  0  0
   24.8814  -10.2064  -15.4734 C   0  0  1  0  0  0  0  0  0  0  0  0
   25.7320   -9.5941  -16.5504 C   0  0  0  0  0  0  0  0  0  0  0  0
   23.5339  -10.6704  -15.9987 C   0  0  2  0  0  0  0  0  0  0  0  0
   23.6827  -11.6273  -17.0765 N   0  0  0  0  0  0  0  0  0  0  0  0
   22.8237   -9.4619  -16.5037 C   0  0  0  0  0  0  0  0  0  0  0  0
   23.1378   -8.9536  -17.5966 O   0  0  0  0  0  0  0  0  0  0  0  0
   19.5732   -7.9257  -15.8815 C   0  0  0  0  0  0  0  0  0  0  0  0
   21.0279   -7.7048  -16.2752 C   0  0  2  0  0  0  0  0  0  0  0  0
   21.7688   -8.8488  -15.7617 N   0  0  0  0  0  0  0  0  0  0  0  0
   21.5937   -6.4936  -15.6535 C   0  0  0  0  0  0  0  0  0  0  0  0
   22.2724   -6.5350  -14.5728 O   0  0  0  0  0  0  0  0  0  0  0  0
   21.4313   -5.2179  -16.1959 O   0  0  0  0  0  0  0  0  0  0  0  0
  2  1  1  0
  3  2  2  0
  4  2  1  0
  5  4  1  0
  5  6  1  1
  7  8  2  0
  7  5  1  0
 10  9  1  6
 10 12  1  0
 11 10  1  0
 12 13  1  6
 12 14  1  0
 13  7  1  0
 14 18  1  0
 15 14  2  0
 17 19  1  0
 17 16  1  1
 18 17  1  0
 19 20  2  0
 19 21  1  0
M  END
$$$$
