NVA.pdb
     RDKit          3D

 21 20  0  0  1  0  0  0  0  0999 V2000
   24.6490  -21.7221  -10.4136 N   0  0  0  0  0  0  0  0  0  0  0  0
   25.3812  -20.5155  -10.4826 C   0  0  0  0  0  0  0  0  0  0  0  0
   25.6868  -19.9285   -9.4247 O   0  0  0  0  0  0  0  0  0  0  0  0
   25.7777  -19.9595  -11.7903 C   0  0  0  0  0  0  0  0  0  0  0  0
   25.2846  -20.8095  -12.9414 C   0  0  2  0  0  0  0  0  0  0  0  0
   26.0614  -22.0063  -13.0529 N   0  0  0  0  0  0  0  0  0  0  0  0
   25.3117  -19.9772  -14.1605 C   0  0  0  0  0  0  0  0  0  0  0  0
   26.4148  -19.8690  -14.7605 O   0  0  0  0  0  0  0  0  0  0  0  0
   21.9414  -19.1227  -16.3270 C   0  0  0  0  0  0  0  0  0  0  0  0
   23.2993  -19.1737  -16.9803 C   0  0  1  0  0  0  0  0  0  0  0  0
   23.2657  -18.3721  -18.2511 C   0  0  0  0  0  0  0  0  0  0  0  0
   24.3110  -18.6322  -15.9852 C   0  0  2  0  0  0  0  0  0  0  0  0
   24.2060  -19.2980  -14.7026 N   0  0  0  0  0  0  0  0  0  0  0  0
   24.0207  -17.1807  -15.8151 C   0  0  0  0  0  0  0  0  0  0  0  0
   22.9216  -16.8033  -15.3666 O   0  0  0  0  0  0  0  0  0  0  0  0
   26.0973  -14.0746  -16.0715 C   0  0  0  0  0  0  0  0  0  0  0  0
   24.7545  -14.7679  -15.8811 C   0  0  2  0  0  0  0  0  0  0  0  0
   24.9808  -16.1802  -16.1560 N   0  0  0  0  0  0  0  0  0  0  0  0
   23.7404  -14.2861  -16.8367 C   0  0  0  0  0  0  0  0  0  0  0  0
   22.8682  -13.4087  -16.5211 O   0  0  0  0  0  0  0  0  0  0  0  0
   23.6576  -14.7498  -18.1505 O   0  0  0  0  0  0  0  0  0  0  0  0
  2  1  1  0
  3  2  2  0
  4  2  1  0
  5  4  1  0
  5  6  1  6
  7  8  2  0
  7  5  1  0
 10  9  1  1
 10 12  1  0
 11 10  1  0
 12 13  1  1
 12 14  1  0
 13  7  1  0
 14 18  1  0
 15 14  2  0
 17 19  1  0
 17 16  1  6
 18 17  1  0
 19 20  2  0
 19 21  1  0
M  END
$$$$
