NVA.pdb
     RDKit          3D

 21 20  0  0  1  0  0  0  0  0999 V2000
   16.3375  -11.9792  -17.3902 N   0  0  0  0  0  0  0  0  0  0  0  0
   15.5985  -11.5790  -16.2543 C   0  0  0  0  0  0  0  0  0  0  0  0
   14.3564  -11.6992  -16.2638 O   0  0  0  0  0  0  0  0  0  0  0  0
   16.2894  -11.0267  -15.0736 C   0  0  0  0  0  0  0  0  0  0  0  0
   17.7807  -10.8977  -15.2976 C   0  0  2  0  0  0  0  0  0  0  0  0
   18.4012  -12.1873  -15.3134 N   0  0  0  0  0  0  0  0  0  0  0  0
   18.3176  -10.0015  -14.2545 C   0  0  0  0  0  0  0  0  0  0  0  0
   18.6047  -10.5186  -13.1416 O   0  0  0  0  0  0  0  0  0  0  0  0
   19.8909   -6.2600  -15.0679 C   0  0  0  0  0  0  0  0  0  0  0  0
   20.3749   -7.0789  -13.8981 C   0  0  1  0  0  0  0  0  0  0  0  0
   20.9674   -6.1618  -12.8655 C   0  0  0  0  0  0  0  0  0  0  0  0
   19.1893   -7.8612  -13.3603 C   0  0  2  0  0  0  0  0  0  0  0  0
   18.5328   -8.6199  -14.4057 N   0  0  0  0  0  0  0  0  0  0  0  0
   18.2334   -6.8687  -12.7937 C   0  0  0  0  0  0  0  0  0  0  0  0
   17.5171   -6.1798  -13.5445 O   0  0  0  0  0  0  0  0  0  0  0  0
   17.1792   -5.9368   -9.3141 C   0  0  0  0  0  0  0  0  0  0  0  0
   17.1583   -5.7199  -10.8216 C   0  0  2  0  0  0  0  0  0  0  0  0
   18.1048   -6.6729  -11.3850 N   0  0  0  0  0  0  0  0  0  0  0  0
   17.6135   -4.3682  -11.1945 C   0  0  0  0  0  0  0  0  0  0  0  0
   18.8315   -4.1133  -11.4807 O   0  0  0  0  0  0  0  0  0  0  0  0
   16.7529   -3.2715  -11.2626 O   0  0  0  0  0  0  0  0  0  0  0  0
  2  1  1  0
  3  2  2  0
  4  2  1  0
  5  4  1  0
  5  6  1  1
  7  8  2  0
  7  5  1  0
 10  9  1  6
 10 12  1  0
 11 10  1  0
 12 13  1  6
 12 14  1  0
 13  7  1  0
 14 18  1  0
 15 14  2  0
 17 19  1  0
 17 16  1  1
 18 17  1  0
 19 20  2  0
 19 21  1  0
M  END
$$$$
