NVA.pdb
     RDKit          3D

 21 20  0  0  1  0  0  0  0  0999 V2000
   17.0417  -10.5425  -18.9081 N   0  0  0  0  0  0  0  0  0  0  0  0
   16.6591   -9.2570  -18.4636 C   0  0  0  0  0  0  0  0  0  0  0  0
   15.9315   -8.5531  -19.1931 O   0  0  0  0  0  0  0  0  0  0  0  0
   17.1158   -8.7563  -17.1531 C   0  0  0  0  0  0  0  0  0  0  0  0
   18.0143   -9.7493  -16.4479 C   0  0  2  0  0  0  0  0  0  0  0  0
   17.2461  -10.8308  -15.9108 N   0  0  0  0  0  0  0  0  0  0  0  0
   18.7851   -9.0135  -15.4262 C   0  0  0  0  0  0  0  0  0  0  0  0
   18.1830   -8.7001  -14.3642 O   0  0  0  0  0  0  0  0  0  0  0  0
   21.8074  -10.0393  -13.6207 C   0  0  0  0  0  0  0  0  0  0  0  0
   22.1236   -8.6474  -14.1066 C   0  0  1  0  0  0  0  0  0  0  0  0
   23.0451   -8.7358  -15.2905 C   0  0  0  0  0  0  0  0  0  0  0  0
   20.8090   -7.9687  -14.4503 C   0  0  2  0  0  0  0  0  0  0  0  0
   20.1347   -8.6364  -15.5453 N   0  0  0  0  0  0  0  0  0  0  0  0
   21.1319   -6.5694  -14.8470 C   0  0  0  0  0  0  0  0  0  0  0  0
   21.6895   -6.3325  -15.9353 O   0  0  0  0  0  0  0  0  0  0  0  0
   20.0592   -3.2157  -13.7352 C   0  0  0  0  0  0  0  0  0  0  0  0
   21.1240   -4.0890  -14.3859 C   0  0  2  0  0  0  0  0  0  0  0  0
   20.8176   -5.4607  -14.0036 N   0  0  0  0  0  0  0  0  0  0  0  0
   22.4765   -3.7802  -13.8871 C   0  0  0  0  0  0  0  0  0  0  0  0
   23.0017   -4.4072  -12.9066 O   0  0  0  0  0  0  0  0  0  0  0  0
   23.2803   -2.7851  -14.4453 O   0  0  0  0  0  0  0  0  0  0  0  0
  2  1  1  0
  3  2  2  0
  4  2  1  0
  5  4  1  0
  5  6  1  1
  7  8  2  0
  7  5  1  0
 10  9  1  6
 10 12  1  0
 11 10  1  0
 12 13  1  6
 12 14  1  0
 13  7  1  0
 14 18  1  0
 15 14  2  0
 17 19  1  0
 17 16  1  1
 18 17  1  0
 19 20  2  0
 19 21  1  0
M  END
$$$$
