IAC.pdb
     RDKit          3D

 20 19  0  0  1  0  0  0  0  0999 V2000
   27.7923  -16.8352  -15.8820 C   0  0  0  0  0  0  0  0  0  0  0  0
   26.3824  -17.0898  -15.4514 C   0  0  0  0  0  0  0  0  0  0  0  0
   25.4232  -16.0385  -15.9158 C   0  0  2  0  0  0  0  0  0  0  0  0
   25.8201  -14.7234  -15.2992 C   0  0  0  0  0  0  0  0  0  0  0  0
   24.0230  -16.4323  -15.5185 C   0  0  2  0  0  0  0  0  0  0  0  0
   23.7714  -17.8065  -15.8137 N   0  0  0  0  0  0  0  0  0  0  0  0
   22.9952  -15.5849  -16.1618 C   0  0  0  0  0  0  0  0  0  0  0  0
   22.9465  -15.5247  -17.4303 O   0  0  0  0  0  0  0  0  0  0  0  0
   19.9013  -13.7198  -15.1101 C   0  0  0  0  0  0  0  0  0  0  0  0
   21.0602  -13.9614  -16.0680 C   0  0  2  0  0  0  0  0  0  0  0  0
   22.0460  -14.8233  -15.4431 N   0  0  0  0  0  0  0  0  0  0  0  0
   21.6355  -12.6871  -16.5253 C   0  0  0  0  0  0  0  0  0  0  0  0
   22.5146  -12.1513  -15.8028 O   0  0  0  0  0  0  0  0  0  0  0  0
   21.2730  -12.0172  -17.7204 N   0  0  0  0  0  0  0  0  0  0  0  0
   21.8484  -10.7594  -18.1470 C   0  0  1  0  0  0  0  0  0  0  0  0
   21.4797  -10.6134  -19.6301 C   0  0  0  0  0  0  0  0  0  0  0  0
   22.2743  -11.9006  -20.6051 S   0  0  0  0  0  0  0  0  0  0  0  0
   21.1398   -9.6646  -17.4426 C   0  0  0  0  0  0  0  0  0  0  0  0
   20.1167   -9.8677  -16.7324 O   0  0  0  0  0  0  0  0  0  0  0  0
   21.5874   -8.3731  -17.5466 O   0  0  0  0  0  0  0  0  0  0  0  0
  2  1  1  0
  3  2  1  0
  3  5  1  0
  3  4  1  1
  5  7  1  0
  5  6  1  6
  7 11  1  0
  7  8  2  0
 10  9  1  1
 10 12  1  0
 11 10  1  0
 12 14  1  0
 13 12  2  0
 14 15  1  0
 15 18  1  0
 15 16  1  6
 16 17  1  0
 18 20  1  0
 19 18  2  0
M  END
$$$$
