IAC.pdb
     RDKit          3D

 20 19  0  0  1  0  0  0  0  0999 V2000
   21.5480  -16.3590  -20.0808 C   0  0  0  0  0  0  0  0  0  0  0  0
   20.9740  -15.7377  -18.8468 C   0  0  0  0  0  0  0  0  0  0  0  0
   20.9946  -14.2411  -18.8738 C   0  0  2  0  0  0  0  0  0  0  0  0
   22.4249  -13.7848  -18.9884 C   0  0  0  0  0  0  0  0  0  0  0  0
   20.3470  -13.7121  -17.6191 C   0  0  2  0  0  0  0  0  0  0  0  0
   19.0619  -14.3002  -17.4158 N   0  0  0  0  0  0  0  0  0  0  0  0
   20.2285  -12.2375  -17.6248 C   0  0  0  0  0  0  0  0  0  0  0  0
   21.2847  -11.5307  -17.6259 O   0  0  0  0  0  0  0  0  0  0  0  0
   17.4145   -9.7057  -17.8044 C   0  0  0  0  0  0  0  0  0  0  0  0
   18.8712  -10.1054  -17.6113 C   0  0  2  0  0  0  0  0  0  0  0  0
   18.9932  -11.5511  -17.6291 N   0  0  0  0  0  0  0  0  0  0  0  0
   19.4189   -9.5093  -16.3831 C   0  0  0  0  0  0  0  0  0  0  0  0
   19.1492  -10.0718  -15.2910 O   0  0  0  0  0  0  0  0  0  0  0  0
   20.2289   -8.3472  -16.3381 N   0  0  0  0  0  0  0  0  0  0  0  0
   20.6912   -7.7326  -15.1119 C   0  0  1  0  0  0  0  0  0  0  0  0
   22.2167   -7.6254  -15.2481 C   0  0  0  0  0  0  0  0  0  0  0  0
   23.0010   -9.1716  -14.7655 S   0  0  0  0  0  0  0  0  0  0  0  0
   20.1879   -6.3390  -15.0752 C   0  0  0  0  0  0  0  0  0  0  0  0
   19.6625   -5.7826  -16.0786 O   0  0  0  0  0  0  0  0  0  0  0  0
   20.2821   -5.6009  -13.9239 O   0  0  0  0  0  0  0  0  0  0  0  0
  2  1  1  0
  3  2  1  0
  3  5  1  0
  3  4  1  1
  5  7  1  0
  5  6  1  6
  7 11  1  0
  7  8  2  0
 10  9  1  1
 10 12  1  0
 11 10  1  0
 12 14  1  0
 13 12  2  0
 14 15  1  0
 15 18  1  0
 15 16  1  6
 16 17  1  0
 18 20  1  0
 19 18  2  0
M  END
$$$$
