IAC.pdb
     RDKit          3D

 20 19  0  0  1  0  0  0  0  0999 V2000
   22.8181  -15.8872  -15.6029 C   0  0  0  0  0  0  0  0  0  0  0  0
   21.7887  -14.8446  -15.3007 C   0  0  0  0  0  0  0  0  0  0  0  0
   22.2247  -13.4597  -15.6657 C   0  0  2  0  0  0  0  0  0  0  0  0
   23.4706  -13.1302  -14.8871 C   0  0  0  0  0  0  0  0  0  0  0  0
   21.1113  -12.4906  -15.3584 C   0  0  2  0  0  0  0  0  0  0  0  0
   19.8695  -12.9457  -15.8966 N   0  0  0  0  0  0  0  0  0  0  0  0
   21.4006  -11.1256  -15.8498 C   0  0  0  0  0  0  0  0  0  0  0  0
   22.4645  -10.5427  -15.4707 O   0  0  0  0  0  0  0  0  0  0  0  0
   19.7139   -8.6019  -18.1220 C   0  0  0  0  0  0  0  0  0  0  0  0
   20.7256   -9.0119  -17.0603 C   0  0  2  0  0  0  0  0  0  0  0  0
   20.5544  -10.4144  -16.7304 N   0  0  0  0  0  0  0  0  0  0  0  0
   20.6276   -8.1399  -15.8797 C   0  0  0  0  0  0  0  0  0  0  0  0
   19.8212   -8.4727  -14.9737 O   0  0  0  0  0  0  0  0  0  0  0  0
   21.3748   -6.9512  -15.6864 N   0  0  0  0  0  0  0  0  0  0  0  0
   21.1660   -6.0369  -14.5840 C   0  0  1  0  0  0  0  0  0  0  0  0
   22.4691   -5.2357  -14.4535 C   0  0  0  0  0  0  0  0  0  0  0  0
   22.3444   -4.0477  -13.1074 S   0  0  0  0  0  0  0  0  0  0  0  0
   20.1266   -5.0593  -14.9850 C   0  0  0  0  0  0  0  0  0  0  0  0
   19.2527   -4.6325  -14.1809 O   0  0  0  0  0  0  0  0  0  0  0  0
   20.0863   -4.5821  -16.2695 O   0  0  0  0  0  0  0  0  0  0  0  0
  2  1  1  0
  3  2  1  0
  3  5  1  0
  3  4  1  1
  5  7  1  0
  5  6  1  6
  7 11  1  0
  7  8  2  0
 10  9  1  6
 10 12  1  0
 11 10  1  0
 12 14  1  0
 13 12  2  0
 14 15  1  0
 15 18  1  0
 15 16  1  6
 16 17  1  0
 18 20  1  0
 19 18  2  0
M  END
$$$$
