IAC.pdb
     RDKit          3D

 20 19  0  0  1  0  0  0  0  0999 V2000
   27.6749  -15.9054  -15.7743 C   0  0  0  0  0  0  0  0  0  0  0  0
   26.2369  -15.7385  -16.1515 C   0  0  0  0  0  0  0  0  0  0  0  0
   25.8829  -14.3327  -16.5251 C   0  0  2  0  0  0  0  0  0  0  0  0
   25.9243  -13.4831  -15.2826 C   0  0  0  0  0  0  0  0  0  0  0  0
   24.5145  -14.3158  -17.1579 C   0  0  2  0  0  0  0  0  0  0  0  0
   24.4163  -15.2891  -18.1981 N   0  0  0  0  0  0  0  0  0  0  0  0
   24.1533  -12.9813  -17.6842 C   0  0  0  0  0  0  0  0  0  0  0  0
   24.7750  -12.5241  -18.6940 O   0  0  0  0  0  0  0  0  0  0  0  0
   21.4044  -10.7923  -18.1354 C   0  0  0  0  0  0  0  0  0  0  0  0
   22.8283  -10.8306  -17.5970 C   0  0  2  0  0  0  0  0  0  0  0  0
   23.1424  -12.1665  -17.1259 N   0  0  0  0  0  0  0  0  0  0  0  0
   23.0227   -9.8072  -16.5584 C   0  0  0  0  0  0  0  0  0  0  0  0
   22.6343  -10.0774  -15.3931 O   0  0  0  0  0  0  0  0  0  0  0  0
   23.6157   -8.5379  -16.7728 N   0  0  0  0  0  0  0  0  0  0  0  0
   23.8841   -7.5840  -15.7179 C   0  0  1  0  0  0  0  0  0  0  0  0
   25.2915   -7.0378  -15.9971 C   0  0  0  0  0  0  0  0  0  0  0  0
   26.5398   -8.1324  -15.3027 S   0  0  0  0  0  0  0  0  0  0  0  0
   22.9619   -6.4360  -15.8875 C   0  0  0  0  0  0  0  0  0  0  0  0
   22.3807   -6.1906  -16.9803 O   0  0  0  0  0  0  0  0  0  0  0  0
   22.7106   -5.5913  -14.8375 O   0  0  0  0  0  0  0  0  0  0  0  0
  2  1  1  0
  3  2  1  0
  3  5  1  0
  3  4  1  1
  5  7  1  0
  5  6  1  6
  7 11  1  0
  7  8  2  0
 10  9  1  1
 10 12  1  0
 11 10  1  0
 12 14  1  0
 13 12  2  0
 14 15  1  0
 15 18  1  0
 15 16  1  6
 16 17  1  0
 18 20  1  0
 19 18  2  0
M  END
$$$$
