IAC.pdb
     RDKit          3D

 20 19  0  0  1  0  0  0  0  0999 V2000
   18.8777  -12.6095  -16.9418 C   0  0  0  0  0  0  0  0  0  0  0  0
   20.0050  -11.6262  -16.9198 C   0  0  0  0  0  0  0  0  0  0  0  0
   19.6034  -10.2775  -16.4091 C   0  0  2  0  0  0  0  0  0  0  0  0
   18.5044   -9.7415  -17.2878 C   0  0  0  0  0  0  0  0  0  0  0  0
   20.8048   -9.3663  -16.4128 C   0  0  2  0  0  0  0  0  0  0  0  0
   21.9188   -9.9806  -15.7643 N   0  0  0  0  0  0  0  0  0  0  0  0
   20.5203   -8.0563  -15.7875 C   0  0  0  0  0  0  0  0  0  0  0  0
   19.5293   -7.3751  -16.1987 O   0  0  0  0  0  0  0  0  0  0  0  0
   21.9981   -5.9409  -13.0122 C   0  0  0  0  0  0  0  0  0  0  0  0
   21.1401   -6.1453  -14.2536 C   0  0  2  0  0  0  0  0  0  0  0  0
   21.2941   -7.5027  -14.7424 N   0  0  0  0  0  0  0  0  0  0  0  0
   21.4550   -5.1386  -15.2789 C   0  0  0  0  0  0  0  0  0  0  0  0
   22.4563   -5.3452  -16.0113 O   0  0  0  0  0  0  0  0  0  0  0  0
   20.7136   -3.9517  -15.5034 N   0  0  0  0  0  0  0  0  0  0  0  0
   21.0664   -2.9545  -16.4914 C   0  0  1  0  0  0  0  0  0  0  0  0
   19.9760   -3.0311  -17.5695 C   0  0  0  0  0  0  0  0  0  0  0  0
   20.1864   -4.5105  -18.5724 S   0  0  0  0  0  0  0  0  0  0  0  0
   20.9278   -1.6171  -15.8678 C   0  0  0  0  0  0  0  0  0  0  0  0
   20.4175   -1.4526  -14.7255 O   0  0  0  0  0  0  0  0  0  0  0  0
   21.3603   -0.4979  -16.5308 O   0  0  0  0  0  0  0  0  0  0  0  0
  2  1  1  0
  3  2  1  0
  3  5  1  0
  3  4  1  6
  5  7  1  0
  5  6  1  1
  7 11  1  0
  7  8  2  0
 10  9  1  1
 10 12  1  0
 11 10  1  0
 12 14  1  0
 13 12  2  0
 14 15  1  0
 15 18  1  0
 15 16  1  6
 16 17  1  0
 18 20  1  0
 19 18  2  0
M  END
$$$$
