LDE.pdb
     RDKit          3D

 26 25  0  0  1  0  0  0  0  0999 V2000
    6.5546  -12.5457   20.0871 C   0  0  0  0  0  0  0  0  0  0  0  0
    7.8271  -13.3358   19.9600 C   0  0  1  0  0  0  0  0  0  0  0  0
    8.9116  -12.3922   19.4921 C   0  0  0  0  0  0  0  0  0  0  0  0
    8.2244  -14.0555   21.2139 C   0  0  0  0  0  0  0  0  0  0  0  0
    9.5416  -14.7435   21.0641 C   0  0  2  0  0  0  0  0  0  0  0  0
    9.5311  -15.4970   19.8184 N   0  0  0  0  0  0  0  0  0  0  0  0
    9.7791  -15.7132   22.1536 C   0  0  0  0  0  0  0  0  0  0  0  0
    9.1751  -15.6278   23.2594 O   0  0  0  0  0  0  0  0  0  0  0  0
   10.7038  -16.8069   22.0289 N   0  0  0  0  0  0  0  0  0  0  0  0
   10.9632  -17.6856   23.1359 C   0  0  1  0  0  0  0  0  0  0  0  0
   11.9462  -18.7670   22.8082 C   0  0  0  0  0  0  0  0  0  0  0  0
   12.2091  -19.7035   23.9195 C   0  0  0  0  0  0  0  0  0  0  0  0
   13.3819  -19.9499   24.2907 O   0  0  0  0  0  0  0  0  0  0  0  0
   11.4524  -16.9305   24.3189 C   0  0  0  0  0  0  0  0  0  0  0  0
   12.3821  -16.1002   24.1684 O   0  0  0  0  0  0  0  0  0  0  0  0
   11.1730  -20.3378   24.5853 O   0  0  0  0  0  0  0  0  0  0  0  0
   10.9074  -17.1176   25.5967 N   0  0  0  0  0  0  0  0  0  0  0  0
   11.3002  -16.3050   26.7683 C   0  0  1  0  0  0  0  0  0  0  0  0
   10.6405  -14.9684   26.7245 C   0  0  0  0  0  0  0  0  0  0  0  0
    9.1752  -15.0089   26.9202 C   0  0  0  0  0  0  0  0  0  0  0  0
    8.5120  -13.7056   26.8840 C   0  0  0  0  0  0  0  0  0  0  0  0
    7.7778  -13.3569   25.9290 O   0  0  0  0  0  0  0  0  0  0  0  0
   10.9487  -17.0793   27.9672 C   0  0  0  0  0  0  0  0  0  0  0  0
   11.3664  -16.6643   29.2181 O   0  0  0  0  0  0  0  0  0  0  0  0
    8.6751  -12.7903   27.9262 O   0  0  0  0  0  0  0  0  0  0  0  0
   10.2664  -18.1353   27.9266 O   0  0  0  0  0  0  0  0  0  0  0  0
  2  4  1  0
  2  1  1  1
  3  2  1  0
  4  5  1  0
  5  7  1  0
  5  6  1  6
  7  8  2  0
  9 10  1  0
  9  7  1  0
 11 12  1  0
 10 11  1  6
 12 16  1  0
 13 12  2  0
 14 10  1  0
 14 15  2  0
 17 14  1  0
 18 17  1  0
 18 23  1  0
 18 19  1  1
 20 19  1  0
 21 22  2  0
 21 20  1  0
 23 26  2  0
 23 24  1  0
 25 21  1  0
M  END
$$$$
