LDE.pdb
     RDKit          3D

 26 25  0  0  1  0  0  0  0  0999 V2000
    7.6927  -12.5163   19.6043 C   0  0  0  0  0  0  0  0  0  0  0  0
    8.2416  -13.3645   20.7174 C   0  0  1  0  0  0  0  0  0  0  0  0
    8.3180  -12.5045   21.9584 C   0  0  0  0  0  0  0  0  0  0  0  0
    7.4640  -14.6224   20.9642 C   0  0  0  0  0  0  0  0  0  0  0  0
    8.0401  -15.4181   22.0893 C   0  0  2  0  0  0  0  0  0  0  0  0
    9.4558  -15.0983   22.2049 N   0  0  0  0  0  0  0  0  0  0  0  0
    7.9446  -16.8710   21.8368 C   0  0  0  0  0  0  0  0  0  0  0  0
    6.8368  -17.4766   21.8659 O   0  0  0  0  0  0  0  0  0  0  0  0
    9.0941  -17.6834   21.5443 N   0  0  0  0  0  0  0  0  0  0  0  0
    8.9728  -19.1065   21.3872 C   0  0  1  0  0  0  0  0  0  0  0  0
    9.9006  -19.6631   20.3516 C   0  0  0  0  0  0  0  0  0  0  0  0
    9.7952  -19.0109   19.0307 C   0  0  0  0  0  0  0  0  0  0  0  0
    8.6946  -18.9405   18.4328 O   0  0  0  0  0  0  0  0  0  0  0  0
    9.2070  -19.8117   22.6744 C   0  0  0  0  0  0  0  0  0  0  0  0
    9.2109  -21.0672   22.6881 O   0  0  0  0  0  0  0  0  0  0  0  0
   10.9044  -18.4579   18.4117 O   0  0  0  0  0  0  0  0  0  0  0  0
    9.4233  -19.1175   23.8728 N   0  0  0  0  0  0  0  0  0  0  0  0
    9.6159  -19.7941   25.1738 C   0  0  1  0  0  0  0  0  0  0  0  0
   10.4881  -18.9772   26.0656 C   0  0  0  0  0  0  0  0  0  0  0  0
   10.6338  -19.5198   27.4337 C   0  0  0  0  0  0  0  0  0  0  0  0
   11.5031  -18.7418   28.3163 C   0  0  0  0  0  0  0  0  0  0  0  0
   11.1606  -18.4254   29.4804 O   0  0  0  0  0  0  0  0  0  0  0  0
    8.2796  -20.0310   25.7383 C   0  0  0  0  0  0  0  0  0  0  0  0
    8.0909  -20.9899   26.7163 O   0  0  0  0  0  0  0  0  0  0  0  0
   12.7629  -18.3177   27.8879 O   0  0  0  0  0  0  0  0  0  0  0  0
    7.2581  -19.3933   25.3749 O   0  0  0  0  0  0  0  0  0  0  0  0
  2  4  1  0
  2  1  1  6
  3  2  1  0
  4  5  1  0
  5  7  1  0
  5  6  1  6
  7  8  2  0
  9 10  1  0
  9  7  1  0
 11 12  1  0
 10 11  1  6
 12 16  1  0
 13 12  2  0
 14 10  1  0
 14 15  2  0
 17 14  1  0
 18 17  1  0
 18 23  1  0
 18 19  1  1
 20 19  1  0
 21 22  2  0
 21 20  1  0
 23 26  2  0
 23 24  1  0
 25 21  1  0
M  END
$$$$
