LDE.pdb
     RDKit          3D

 26 25  0  0  1  0  0  0  0  0999 V2000
    5.2785  -11.5884   26.1959 C   0  0  0  0  0  0  0  0  0  0  0  0
    6.5844  -12.2198   25.8014 C   0  0  1  0  0  0  0  0  0  0  0  0
    7.6096  -11.8537   26.8505 C   0  0  0  0  0  0  0  0  0  0  0  0
    6.5066  -13.7034   25.5992 C   0  0  0  0  0  0  0  0  0  0  0  0
    7.8525  -14.3454   25.6844 C   0  0  2  0  0  0  0  0  0  0  0  0
    8.8644  -13.3388   25.3971 N   0  0  0  0  0  0  0  0  0  0  0  0
    8.0117  -15.4172   24.6795 C   0  0  0  0  0  0  0  0  0  0  0  0
    7.2047  -16.3862   24.6115 O   0  0  0  0  0  0  0  0  0  0  0  0
    9.0844  -15.4282   23.7224 N   0  0  0  0  0  0  0  0  0  0  0  0
    9.2813  -16.5494   22.8455 C   0  0  1  0  0  0  0  0  0  0  0  0
    9.5722  -16.1450   21.4332 C   0  0  0  0  0  0  0  0  0  0  0  0
    9.7119  -17.2774   20.4954 C   0  0  0  0  0  0  0  0  0  0  0  0
    8.7393  -18.0285   20.2426 O   0  0  0  0  0  0  0  0  0  0  0  0
   10.3777  -17.4270   23.3322 C   0  0  0  0  0  0  0  0  0  0  0  0
   10.6867  -18.4426   22.6619 O   0  0  0  0  0  0  0  0  0  0  0  0
   10.9170  -17.5458   19.8671 O   0  0  0  0  0  0  0  0  0  0  0  0
   11.0765  -17.1547   24.5164 N   0  0  0  0  0  0  0  0  0  0  0  0
   11.8350  -18.1837   25.2604 C   0  0  1  0  0  0  0  0  0  0  0  0
   11.2406  -18.3993   26.6108 C   0  0  0  0  0  0  0  0  0  0  0  0
   11.8987  -19.4628   27.4001 C   0  0  0  0  0  0  0  0  0  0  0  0
   11.3912  -19.6231   28.7627 C   0  0  0  0  0  0  0  0  0  0  0  0
   10.3204  -20.2274   29.0089 O   0  0  0  0  0  0  0  0  0  0  0  0
   11.8374  -19.3991   24.4337 C   0  0  0  0  0  0  0  0  0  0  0  0
   10.6819  -20.1410   24.2735 O   0  0  0  0  0  0  0  0  0  0  0  0
   12.0908  -19.1014   29.8530 O   0  0  0  0  0  0  0  0  0  0  0  0
   12.8621  -19.8236   23.8404 O   0  0  0  0  0  0  0  0  0  0  0  0
  2  4  1  0
  2  1  1  1
  3  2  1  0
  4  5  1  0
  5  7  1  0
  5  6  1  6
  7  8  2  0
  9 10  1  0
  9  7  1  0
 11 12  1  0
 10 11  1  6
 12 16  1  0
 13 12  2  0
 14 10  1  0
 14 15  2  0
 17 14  1  0
 18 17  1  0
 18 23  1  0
 18 19  1  1
 20 19  1  0
 21 22  2  0
 21 20  1  0
 23 26  2  0
 23 24  1  0
 25 21  1  0
M  END
$$$$
