LDE.pdb
     RDKit          3D

 26 25  0  0  1  0  0  0  0  0999 V2000
    6.8623  -11.8695   24.9113 C   0  0  0  0  0  0  0  0  0  0  0  0
    6.9902  -12.8632   26.0320 C   0  0  1  0  0  0  0  0  0  0  0  0
    5.9588  -12.5122   27.0800 C   0  0  0  0  0  0  0  0  0  0  0  0
    6.8695  -14.2923   25.5950 C   0  0  0  0  0  0  0  0  0  0  0  0
    8.1991  -14.8819   25.2550 C   0  0  2  0  0  0  0  0  0  0  0  0
    8.6886  -14.2490   24.0387 N   0  0  0  0  0  0  0  0  0  0  0  0
    8.1005  -16.3303   24.9788 C   0  0  0  0  0  0  0  0  0  0  0  0
    7.2445  -17.0576   25.5560 O   0  0  0  0  0  0  0  0  0  0  0  0
    8.9633  -17.0009   24.0447 N   0  0  0  0  0  0  0  0  0  0  0  0
    8.9242  -18.4297   23.8967 C   0  0  1  0  0  0  0  0  0  0  0  0
    9.1911  -18.8812   22.4939 C   0  0  0  0  0  0  0  0  0  0  0  0
    8.5217  -18.0685   21.4583 C   0  0  0  0  0  0  0  0  0  0  0  0
    7.3008  -17.7932   21.5446 O   0  0  0  0  0  0  0  0  0  0  0  0
    9.8925  -19.0917   24.8096 C   0  0  0  0  0  0  0  0  0  0  0  0
    9.9529  -20.3457   24.8262 O   0  0  0  0  0  0  0  0  0  0  0  0
    9.2179  -17.5856   20.3622 O   0  0  0  0  0  0  0  0  0  0  0  0
   10.7395  -18.3584   25.6520 N   0  0  0  0  0  0  0  0  0  0  0  0
   11.6059  -18.9884   26.6717 C   0  0  1  0  0  0  0  0  0  0  0  0
   13.0206  -18.5487   26.5019 C   0  0  0  0  0  0  0  0  0  0  0  0
   13.6345  -18.9623   25.2215 C   0  0  0  0  0  0  0  0  0  0  0  0
   15.0325  -18.5666   25.0518 C   0  0  0  0  0  0  0  0  0  0  0  0
   15.3596  -17.5078   24.4647 O   0  0  0  0  0  0  0  0  0  0  0  0
   11.0498  -18.6373   27.9862 C   0  0  0  0  0  0  0  0  0  0  0  0
   11.5841  -19.1775   29.1412 O   0  0  0  0  0  0  0  0  0  0  0  0
   16.0672  -19.3649   25.5443 O   0  0  0  0  0  0  0  0  0  0  0  0
   10.0823  -17.8470   28.1333 O   0  0  0  0  0  0  0  0  0  0  0  0
  2  4  1  0
  2  1  1  6
  3  2  1  0
  4  5  1  0
  5  7  1  0
  5  6  1  6
  7  8  2  0
  9 10  1  0
  9  7  1  0
 11 12  1  0
 10 11  1  6
 12 16  1  0
 13 12  2  0
 14 10  1  0
 14 15  2  0
 17 14  1  0
 18 17  1  0
 18 23  1  0
 18 19  1  1
 20 19  1  0
 21 22  2  0
 21 20  1  0
 23 26  2  0
 23 24  1  0
 25 21  1  0
M  END
$$$$
