LDE.pdb
     RDKit          3D

 26 25  0  0  1  0  0  0  0  0999 V2000
    6.3138  -13.2147   20.8073 C   0  0  0  0  0  0  0  0  0  0  0  0
    7.4961  -13.9119   20.1943 C   0  0  1  0  0  0  0  0  0  0  0  0
    8.4168  -12.8522   19.6331 C   0  0  0  0  0  0  0  0  0  0  0  0
    8.2180  -14.8281   21.1363 C   0  0  0  0  0  0  0  0  0  0  0  0
    9.3867  -15.4879   20.4807 C   0  0  2  0  0  0  0  0  0  0  0  0
    8.8937  -16.3549   19.4200 N   0  0  0  0  0  0  0  0  0  0  0  0
   10.1330  -16.3437   21.4264 C   0  0  0  0  0  0  0  0  0  0  0  0
    9.5475  -17.1945   22.1531 O   0  0  0  0  0  0  0  0  0  0  0  0
   11.5602  -16.2657   21.5807 N   0  0  0  0  0  0  0  0  0  0  0  0
   12.2495  -17.1083   22.5186 C   0  0  1  0  0  0  0  0  0  0  0  0
   13.7399  -17.0157   22.4046 C   0  0  0  0  0  0  0  0  0  0  0  0
   14.2625  -17.2946   21.0517 C   0  0  0  0  0  0  0  0  0  0  0  0
   14.8599  -16.4074   20.3961 O   0  0  0  0  0  0  0  0  0  0  0  0
   11.8516  -16.7956   23.9161 C   0  0  0  0  0  0  0  0  0  0  0  0
   12.2265  -15.7117   24.4270 O   0  0  0  0  0  0  0  0  0  0  0  0
   14.1102  -18.5404   20.4652 O   0  0  0  0  0  0  0  0  0  0  0  0
   11.0711  -17.6740   24.6802 N   0  0  0  0  0  0  0  0  0  0  0  0
   10.6811  -17.3975   26.0798 C   0  0  1  0  0  0  0  0  0  0  0  0
    9.2041  -17.2240   26.1882 C   0  0  0  0  0  0  0  0  0  0  0  0
    8.4398  -17.8236   25.0731 C   0  0  0  0  0  0  0  0  0  0  0  0
    7.0508  -18.1583   25.3872 C   0  0  0  0  0  0  0  0  0  0  0  0
    6.5555  -17.9541   26.5210 O   0  0  0  0  0  0  0  0  0  0  0  0
   11.1897  -18.5088   26.8964 C   0  0  0  0  0  0  0  0  0  0  0  0
   11.1069  -18.4614   28.2757 O   0  0  0  0  0  0  0  0  0  0  0  0
    6.2154  -18.7252   24.4222 O   0  0  0  0  0  0  0  0  0  0  0  0
   11.7154  -19.5392   26.4022 O   0  0  0  0  0  0  0  0  0  0  0  0
  2  4  1  0
  2  1  1  1
  3  2  1  0
  4  5  1  0
  5  7  1  0
  5  6  1  6
  7  8  2  0
  9 10  1  0
  9  7  1  0
 11 12  1  0
 10 11  1  1
 12 16  1  0
 13 12  2  0
 14 10  1  0
 14 15  2  0
 17 14  1  0
 18 17  1  0
 18 23  1  0
 18 19  1  6
 20 19  1  0
 21 22  2  0
 21 20  1  0
 23 26  2  0
 23 24  1  0
 25 21  1  0
M  END
$$$$
