LDE.pdb
     RDKit          3D

 26 25  0  0  1  0  0  0  0  0999 V2000
    5.0976  -12.4700   26.9728 C   0  0  0  0  0  0  0  0  0  0  0  0
    6.3405  -12.6668   26.1506 C   0  0  1  0  0  0  0  0  0  0  0  0
    7.4184  -11.7744   26.7224 C   0  0  0  0  0  0  0  0  0  0  0  0
    6.7931  -14.0935   26.0637 C   0  0  0  0  0  0  0  0  0  0  0  0
    8.1786  -14.2028   25.5164 C   0  0  2  0  0  0  0  0  0  0  0  0
    8.3714  -13.1486   24.5310 N   0  0  0  0  0  0  0  0  0  0  0  0
    8.3918  -15.4890   24.8205 C   0  0  0  0  0  0  0  0  0  0  0  0
    7.9279  -16.5723   25.2745 O   0  0  0  0  0  0  0  0  0  0  0  0
    9.1336  -15.5917   23.5933 N   0  0  0  0  0  0  0  0  0  0  0  0
    9.3690  -16.8680   22.9765 C   0  0  1  0  0  0  0  0  0  0  0  0
    9.7210  -16.7615   21.5247 C   0  0  0  0  0  0  0  0  0  0  0  0
    9.8721  -18.0619   20.8411 C   0  0  0  0  0  0  0  0  0  0  0  0
    8.8685  -18.7505   20.5371 O   0  0  0  0  0  0  0  0  0  0  0  0
   10.4437  -17.6155   23.6804 C   0  0  0  0  0  0  0  0  0  0  0  0
   10.5105  -18.8613   23.5395 O   0  0  0  0  0  0  0  0  0  0  0  0
   11.1225  -18.5613   20.5148 O   0  0  0  0  0  0  0  0  0  0  0  0
   11.3841  -16.9717   24.4964 N   0  0  0  0  0  0  0  0  0  0  0  0
   12.4414  -17.6955   25.2350 C   0  0  1  0  0  0  0  0  0  0  0  0
   13.7405  -16.9701   25.1364 C   0  0  0  0  0  0  0  0  0  0  0  0
   13.7657  -15.9091   24.1064 C   0  0  0  0  0  0  0  0  0  0  0  0
   14.8408  -16.0310   23.1219 C   0  0  0  0  0  0  0  0  0  0  0  0
   14.6111  -16.1579   21.8956 O   0  0  0  0  0  0  0  0  0  0  0  0
   11.9728  -17.8475   26.6199 C   0  0  0  0  0  0  0  0  0  0  0  0
   12.6771  -18.6285   27.5173 O   0  0  0  0  0  0  0  0  0  0  0  0
   16.1798  -16.0100   23.5180 O   0  0  0  0  0  0  0  0  0  0  0  0
   10.9327  -17.2916   27.0574 O   0  0  0  0  0  0  0  0  0  0  0  0
  2  4  1  0
  2  1  1  1
  3  2  1  0
  4  5  1  0
  5  7  1  0
  5  6  1  6
  7  8  2  0
  9 10  1  0
  9  7  1  0
 11 12  1  0
 10 11  1  6
 12 16  1  0
 13 12  2  0
 14 10  1  0
 14 15  2  0
 17 14  1  0
 18 17  1  0
 18 23  1  0
 18 19  1  1
 20 19  1  0
 21 22  2  0
 21 20  1  0
 23 26  2  0
 23 24  1  0
 25 21  1  0
M  END
$$$$
