LDE.pdb
     RDKit          3D

 26 25  0  0  1  0  0  0  0  0999 V2000
    6.5376  -11.9107   27.0049 C   0  0  0  0  0  0  0  0  0  0  0  0
    6.5310  -12.5860   25.6619 C   0  0  1  0  0  0  0  0  0  0  0  0
    7.0070  -11.5812   24.6376 C   0  0  0  0  0  0  0  0  0  0  0  0
    7.3367  -13.8495   25.6121 C   0  0  0  0  0  0  0  0  0  0  0  0
    7.5425  -14.3203   24.2096 C   0  0  2  0  0  0  0  0  0  0  0  0
    6.2830  -14.8539   23.7111 N   0  0  0  0  0  0  0  0  0  0  0  0
    8.5331  -15.4147   24.1401 C   0  0  0  0  0  0  0  0  0  0  0  0
    8.6211  -16.2869   25.0491 O   0  0  0  0  0  0  0  0  0  0  0  0
    9.4530  -15.5581   23.0445 N   0  0  0  0  0  0  0  0  0  0  0  0
   10.3244  -16.6971   22.9552 C   0  0  1  0  0  0  0  0  0  0  0  0
   10.9952  -16.8189   21.6217 C   0  0  0  0  0  0  0  0  0  0  0  0
   10.0662  -17.0330   20.4937 C   0  0  0  0  0  0  0  0  0  0  0  0
   10.2355  -16.4444   19.3989 O   0  0  0  0  0  0  0  0  0  0  0  0
   11.3636  -16.6640   24.0173 C   0  0  0  0  0  0  0  0  0  0  0  0
   11.9862  -15.5938   24.2257 O   0  0  0  0  0  0  0  0  0  0  0  0
    8.9819  -17.8877   20.6079 O   0  0  0  0  0  0  0  0  0  0  0  0
   11.6692  -17.7910   24.7926 N   0  0  0  0  0  0  0  0  0  0  0  0
   12.7042  -17.7870   25.8492 C   0  0  1  0  0  0  0  0  0  0  0  0
   12.3503  -18.7474   26.9336 C   0  0  0  0  0  0  0  0  0  0  0  0
   11.1554  -18.3643   27.7165 C   0  0  0  0  0  0  0  0  0  0  0  0
   10.8012  -19.2891   28.7932 C   0  0  0  0  0  0  0  0  0  0  0  0
   10.8880  -18.9693   30.0027 O   0  0  0  0  0  0  0  0  0  0  0  0
   13.9846  -18.1017   25.1995 C   0  0  0  0  0  0  0  0  0  0  0  0
   15.1809  -17.8009   25.8238 O   0  0  0  0  0  0  0  0  0  0  0  0
   10.3475  -20.5789   28.5087 O   0  0  0  0  0  0  0  0  0  0  0  0
   14.0647  -18.6476   24.0691 O   0  0  0  0  0  0  0  0  0  0  0  0
  2  4  1  0
  2  1  1  1
  3  2  1  0
  4  5  1  0
  5  7  1  0
  5  6  1  1
  7  8  2  0
  9 10  1  0
  9  7  1  0
 11 12  1  0
 10 11  1  6
 12 16  1  0
 13 12  2  0
 14 10  1  0
 14 15  2  0
 17 14  1  0
 18 17  1  0
 18 23  1  0
 18 19  1  1
 20 19  1  0
 21 22  2  0
 21 20  1  0
 23 26  2  0
 23 24  1  0
 25 21  1  0
M  END
$$$$
