LDE.pdb
     RDKit          3D

 26 25  0  0  1  0  0  0  0  0999 V2000
    6.7957  -13.0691   20.3499 C   0  0  0  0  0  0  0  0  0  0  0  0
    7.8154  -13.1860   19.2516 C   0  0  1  0  0  0  0  0  0  0  0  0
    8.1435  -11.7891   18.7757 C   0  0  0  0  0  0  0  0  0  0  0  0
    9.0503  -13.9396   19.6454 C   0  0  0  0  0  0  0  0  0  0  0  0
   10.0919  -13.8938   18.5759 C   0  0  2  0  0  0  0  0  0  0  0  0
    9.5668  -14.5550   17.3899 N   0  0  0  0  0  0  0  0  0  0  0  0
   11.3146  -14.6234   18.9717 C   0  0  0  0  0  0  0  0  0  0  0  0
   11.3771  -15.2732   20.0528 O   0  0  0  0  0  0  0  0  0  0  0  0
   12.5018  -14.6421   18.1611 N   0  0  0  0  0  0  0  0  0  0  0  0
   13.6809  -15.3404   18.5932 C   0  0  1  0  0  0  0  0  0  0  0  0
   14.7873  -15.3027   17.5845 C   0  0  0  0  0  0  0  0  0  0  0  0
   14.4555  -15.9465   16.2974 C   0  0  0  0  0  0  0  0  0  0  0  0
   14.8024  -15.4276   15.2091 O   0  0  0  0  0  0  0  0  0  0  0  0
   14.1845  -14.7992   19.8827 C   0  0  0  0  0  0  0  0  0  0  0  0
   14.4530  -13.5755   19.9652 O   0  0  0  0  0  0  0  0  0  0  0  0
   13.7532  -17.1397   16.2505 O   0  0  0  0  0  0  0  0  0  0  0  0
   14.3685  -15.6136   21.0086 N   0  0  0  0  0  0  0  0  0  0  0  0
   14.6772  -15.0761   22.3514 C   0  0  1  0  0  0  0  0  0  0  0  0
   13.7216  -15.6116   23.3631 C   0  0  0  0  0  0  0  0  0  0  0  0
   14.0959  -16.9336   23.9103 C   0  0  0  0  0  0  0  0  0  0  0  0
   13.2546  -17.4065   25.0097 C   0  0  0  0  0  0  0  0  0  0  0  0
   12.3299  -16.7088   25.4899 O   0  0  0  0  0  0  0  0  0  0  0  0
   16.0756  -15.4224   22.6432 C   0  0  0  0  0  0  0  0  0  0  0  0
   16.7398  -14.8282   23.7001 O   0  0  0  0  0  0  0  0  0  0  0  0
   13.4542  -18.6695   25.5715 O   0  0  0  0  0  0  0  0  0  0  0  0
   16.7315  -16.2563   21.9674 O   0  0  0  0  0  0  0  0  0  0  0  0
  2  4  1  0
  2  1  1  1
  3  2  1  0
  4  5  1  0
  5  7  1  0
  5  6  1  6
  7  8  2  0
  9 10  1  0
  9  7  1  0
 11 12  1  0
 10 11  1  6
 12 16  1  0
 13 12  2  0
 14 10  1  0
 14 15  2  0
 17 14  1  0
 18 17  1  0
 18 23  1  0
 18 19  1  1
 20 19  1  0
 21 22  2  0
 21 20  1  0
 23 26  2  0
 23 24  1  0
 25 21  1  0
M  END
$$$$
