SDC.pdb
     RDKit          3D

 21 20  0  0  1  0  0  0  0  0999 V2000
   17.0172  -12.5511  -14.3475 O   0  0  0  0  0  0  0  0  0  0  0  0
   17.7451  -11.4036  -14.7399 C   0  0  0  0  0  0  0  0  0  0  0  0
   16.9565  -10.6782  -15.8218 C   0  0  2  0  0  0  0  0  0  0  0  0
   16.8369  -11.4965  -17.0091 N   0  0  0  0  0  0  0  0  0  0  0  0
   17.6272   -9.3911  -16.1294 C   0  0  0  0  0  0  0  0  0  0  0  0
   18.5362   -9.3340  -16.9936 O   0  0  0  0  0  0  0  0  0  0  0  0
   17.2583   -8.2142  -15.4610 N   0  0  0  0  0  0  0  0  0  0  0  0
   17.8983   -6.9055  -15.8547 C   0  0  1  0  0  0  0  0  0  0  0  0
   16.7773   -5.9125  -15.7336 C   0  0  0  0  0  0  0  0  0  0  0  0
   17.0519   -4.5176  -15.9382 C   0  0  0  0  0  0  0  0  0  0  0  0
   16.4192   -3.5810  -15.4625 O   0  0  0  0  0  0  0  0  0  0  0  0
   19.0172   -6.6905  -14.9092 C   0  0  0  0  0  0  0  0  0  0  0  0
   18.7758   -6.8863  -13.6674 O   0  0  0  0  0  0  0  0  0  0  0  0
   18.1463   -4.1766  -16.7586 O   0  0  0  0  0  0  0  0  0  0  0  0
   20.3285   -6.3015  -15.1773 N   0  0  0  0  0  0  0  0  0  0  0  0
   21.3528   -6.1008  -14.1854 C   0  0  1  0  0  0  0  0  0  0  0  0
   22.6195   -6.8356  -14.4247 C   0  0  0  0  0  0  0  0  0  0  0  0
   22.4264   -8.6171  -14.5071 S   0  0  0  0  0  0  0  0  0  0  0  0
   21.6422   -4.6631  -13.9844 C   0  0  0  0  0  0  0  0  0  0  0  0
   22.4547   -4.3064  -12.9179 O   0  0  0  0  0  0  0  0  0  0  0  0
   21.1889   -3.7681  -14.7288 O   0  0  0  0  0  0  0  0  0  0  0  0
  2  1  1  0
  3  5  1  0
  3  2  1  0
  3  4  1  6
  5  6  2  0
  7  5  1  0
  7  8  1  0
  8  9  1  1
  9 10  1  0
 10 14  1  0
 11 10  2  0
 12 15  1  0
 12  8  1  0
 13 12  2  0
 16 17  1  6
 16 19  1  0
 16 15  1  0
 18 17  1  0
 19 20  1  0
 21 19  2  0
M  END
$$$$
