SDC.pdb
     RDKit          3D

 21 20  0  0  1  0  0  0  0  0999 V2000
   17.1699  -13.7573  -14.3951 O   0  0  0  0  0  0  0  0  0  0  0  0
   17.7523  -12.5878  -14.9372 C   0  0  0  0  0  0  0  0  0  0  0  0
   16.6525  -11.7548  -15.5817 C   0  0  2  0  0  0  0  0  0  0  0  0
   16.1333  -12.4109  -16.7622 N   0  0  0  0  0  0  0  0  0  0  0  0
   17.1924  -10.4135  -15.9139 C   0  0  0  0  0  0  0  0  0  0  0  0
   17.9588  -10.2578  -16.8961 O   0  0  0  0  0  0  0  0  0  0  0  0
   16.8567   -9.2945  -15.1374 N   0  0  0  0  0  0  0  0  0  0  0  0
   17.3910   -7.9368  -15.5224 C   0  0  1  0  0  0  0  0  0  0  0  0
   16.4122   -6.9815  -14.9006 C   0  0  0  0  0  0  0  0  0  0  0  0
   16.7027   -5.5749  -14.9114 C   0  0  0  0  0  0  0  0  0  0  0  0
   16.6304   -4.8164  -13.9505 O   0  0  0  0  0  0  0  0  0  0  0  0
   18.7628   -7.8598  -14.9707 C   0  0  0  0  0  0  0  0  0  0  0  0
   18.9548   -8.3733  -13.8139 O   0  0  0  0  0  0  0  0  0  0  0  0
   17.1099   -4.9973  -16.1310 O   0  0  0  0  0  0  0  0  0  0  0  0
   19.9061   -7.3014  -15.5399 N   0  0  0  0  0  0  0  0  0  0  0  0
   21.2114   -7.2853  -14.9321 C   0  0  1  0  0  0  0  0  0  0  0  0
   22.2010   -8.2148  -15.5311 C   0  0  0  0  0  0  0  0  0  0  0  0
   23.8573   -8.0483  -14.8628 S   0  0  0  0  0  0  0  0  0  0  0  0
   21.7758   -5.9176  -14.8898 C   0  0  0  0  0  0  0  0  0  0  0  0
   22.5593   -5.5710  -13.7985 O   0  0  0  0  0  0  0  0  0  0  0  0
   21.5769   -5.0723  -15.7879 O   0  0  0  0  0  0  0  0  0  0  0  0
  2  1  1  0
  3  5  1  0
  3  2  1  0
  3  4  1  6
  5  6  2  0
  7  5  1  0
  7  8  1  0
  8  9  1  1
  9 10  1  0
 10 14  1  0
 11 10  2  0
 12 15  1  0
 12  8  1  0
 13 12  2  0
 16 17  1  6
 16 19  1  0
 16 15  1  0
 18 17  1  0
 19 20  1  0
 21 19  2  0
M  END
$$$$
