SDC.pdb
     RDKit          3D

 21 20  0  0  1  0  0  0  0  0999 V2000
   14.7165  -12.8387  -10.5242 O   0  0  0  0  0  0  0  0  0  0  0  0
   14.9685  -11.5290  -10.9950 C   0  0  0  0  0  0  0  0  0  0  0  0
   14.6209  -10.5427   -9.8881 C   0  0  2  0  0  0  0  0  0  0  0  0
   13.2122  -10.6065   -9.5641 N   0  0  0  0  0  0  0  0  0  0  0  0
   15.0054   -9.1760  -10.3186 C   0  0  0  0  0  0  0  0  0  0  0  0
   14.3120   -8.5512  -11.1584 O   0  0  0  0  0  0  0  0  0  0  0  0
   16.1501   -8.5564   -9.7956 N   0  0  0  0  0  0  0  0  0  0  0  0
   16.5972   -7.2288  -10.3567 C   0  0  1  0  0  0  0  0  0  0  0  0
   16.4912   -6.2950   -9.1846 C   0  0  0  0  0  0  0  0  0  0  0  0
   16.9244   -4.9335   -9.3320 C   0  0  0  0  0  0  0  0  0  0  0  0
   16.9547   -4.2961  -10.3793 O   0  0  0  0  0  0  0  0  0  0  0  0
   17.9749   -7.4341  -10.8587 C   0  0  0  0  0  0  0  0  0  0  0  0
   18.8204   -7.9467  -10.0457 O   0  0  0  0  0  0  0  0  0  0  0  0
   17.3574   -4.2527   -8.1763 O   0  0  0  0  0  0  0  0  0  0  0  0
   18.5001   -7.1495  -12.1181 N   0  0  0  0  0  0  0  0  0  0  0  0
   19.8705   -7.3536  -12.5100 C   0  0  1  0  0  0  0  0  0  0  0  0
   20.0923   -8.4379  -13.4984 C   0  0  0  0  0  0  0  0  0  0  0  0
   19.3759  -10.0136  -13.0275 S   0  0  0  0  0  0  0  0  0  0  0  0
   20.4897   -6.1010  -12.9987 C   0  0  0  0  0  0  0  0  0  0  0  0
   21.8711   -6.0638  -13.1225 O   0  0  0  0  0  0  0  0  0  0  0  0
   19.8251   -5.0872  -13.3006 O   0  0  0  0  0  0  0  0  0  0  0  0
  2  1  1  0
  3  5  1  0
  3  2  1  0
  3  4  1  6
  5  6  2  0
  7  5  1  0
  7  8  1  0
  8  9  1  1
  9 10  1  0
 10 14  1  0
 11 10  2  0
 12 15  1  0
 12  8  1  0
 13 12  2  0
 16 17  1  6
 16 19  1  0
 16 15  1  0
 18 17  1  0
 19 20  1  0
 21 19  2  0
M  END
$$$$
