SDC.pdb
     RDKit          3D

 21 20  0  0  1  0  0  0  0  0999 V2000
   15.5791  -13.0560  -16.1258 O   0  0  0  0  0  0  0  0  0  0  0  0
   16.5035  -13.0096  -17.1954 C   0  0  0  0  0  0  0  0  0  0  0  0
   17.9044  -13.2058  -16.6318 C   0  0  2  0  0  0  0  0  0  0  0  0
   17.9923  -14.4438  -15.8879 N   0  0  0  0  0  0  0  0  0  0  0  0
   18.2483  -12.0453  -15.7739 C   0  0  0  0  0  0  0  0  0  0  0  0
   18.2143  -12.1426  -14.5226 O   0  0  0  0  0  0  0  0  0  0  0  0
   18.6181  -10.8183  -16.3444 N   0  0  0  0  0  0  0  0  0  0  0  0
   18.9921   -9.6650  -15.4460 C   0  0  1  0  0  0  0  0  0  0  0  0
   20.3372   -9.2370  -15.9603 C   0  0  0  0  0  0  0  0  0  0  0  0
   20.9755   -8.0879  -15.3812 C   0  0  0  0  0  0  0  0  0  0  0  0
   21.2768   -7.9491  -14.2006 O   0  0  0  0  0  0  0  0  0  0  0  0
   17.9219   -8.6539  -15.6028 C   0  0  0  0  0  0  0  0  0  0  0  0
   17.6014   -8.3259  -16.7980 O   0  0  0  0  0  0  0  0  0  0  0  0
   21.2917   -7.0118  -16.2349 O   0  0  0  0  0  0  0  0  0  0  0  0
   17.1897   -7.9929  -14.6180 N   0  0  0  0  0  0  0  0  0  0  0  0
   16.3365   -6.8550  -14.8429 C   0  0  1  0  0  0  0  0  0  0  0  0
   15.4055   -6.5318  -13.7335 C   0  0  0  0  0  0  0  0  0  0  0  0
   14.4541   -5.0331  -13.9913 S   0  0  0  0  0  0  0  0  0  0  0  0
   17.1182   -5.6506  -15.2029 C   0  0  0  0  0  0  0  0  0  0  0  0
   18.1990   -5.3134  -14.4012 O   0  0  0  0  0  0  0  0  0  0  0  0
   16.8462   -4.9337  -16.1891 O   0  0  0  0  0  0  0  0  0  0  0  0
  2  1  1  0
  3  5  1  0
  3  2  1  0
  3  4  1  1
  5  6  2  0
  7  5  1  0
  7  8  1  0
  8  9  1  6
  9 10  1  0
 10 14  1  0
 11 10  2  0
 12 15  1  0
 12  8  1  0
 13 12  2  0
 16 17  1  1
 16 19  1  0
 16 15  1  0
 18 17  1  0
 19 20  1  0
 21 19  2  0
M  END
$$$$
