SDC.pdb
     RDKit          3D

 21 20  0  0  1  0  0  0  0  0999 V2000
   17.8952   -9.8741  -17.4042 O   0  0  0  0  0  0  0  0  0  0  0  0
   19.2763  -10.1789  -17.4201 C   0  0  0  0  0  0  0  0  0  0  0  0
   19.6934  -10.6028  -16.0183 C   0  0  2  0  0  0  0  0  0  0  0  0
   18.8374  -11.6588  -15.5227 N   0  0  0  0  0  0  0  0  0  0  0  0
   19.6517   -9.4210  -15.1224 C   0  0  0  0  0  0  0  0  0  0  0  0
   18.8605   -9.3846  -14.1481 O   0  0  0  0  0  0  0  0  0  0  0  0
   20.4952   -8.3228  -15.3466 N   0  0  0  0  0  0  0  0  0  0  0  0
   20.4490   -7.1467  -14.4023 C   0  0  1  0  0  0  0  0  0  0  0  0
   21.8655   -6.6461  -14.3903 C   0  0  0  0  0  0  0  0  0  0  0  0
   22.1879   -5.4740  -13.6253 C   0  0  0  0  0  0  0  0  0  0  0  0
   22.9131   -4.5537  -13.9874 O   0  0  0  0  0  0  0  0  0  0  0  0
   19.4646   -6.1977  -14.9704 C   0  0  0  0  0  0  0  0  0  0  0  0
   19.5367   -5.9671  -16.2275 O   0  0  0  0  0  0  0  0  0  0  0  0
   21.6272   -5.3549  -12.3376 O   0  0  0  0  0  0  0  0  0  0  0  0
   18.4424   -5.5043  -14.3246 N   0  0  0  0  0  0  0  0  0  0  0  0
   17.5462   -4.5710  -14.9563 C   0  0  1  0  0  0  0  0  0  0  0  0
   16.1092   -4.7559  -14.6358 C   0  0  0  0  0  0  0  0  0  0  0  0
   15.5161   -6.4313  -14.8790 S   0  0  0  0  0  0  0  0  0  0  0  0
   17.9396   -3.1698  -14.6860 C   0  0  0  0  0  0  0  0  0  0  0  0
   19.0226   -2.9488  -13.8475 O   0  0  0  0  0  0  0  0  0  0  0  0
   17.3417   -2.1892  -15.1775 O   0  0  0  0  0  0  0  0  0  0  0  0
  2  1  1  0
  3  5  1  0
  3  2  1  0
  3  4  1  1
  5  6  2  0
  7  5  1  0
  7  8  1  0
  8  9  1  6
  9 10  1  0
 10 14  1  0
 11 10  2  0
 12 15  1  0
 12  8  1  0
 13 12  2  0
 16 17  1  1
 16 19  1  0
 16 15  1  0
 18 17  1  0
 19 20  1  0
 21 19  2  0
M  END
$$$$
