SDC.pdb
     RDKit          3D

 21 20  0  0  1  0  0  0  0  0999 V2000
   19.1594  -13.8015  -17.9100 O   0  0  0  0  0  0  0  0  0  0  0  0
   19.6321  -12.5565  -18.3867 C   0  0  0  0  0  0  0  0  0  0  0  0
   20.5433  -11.9488  -17.3287 C   0  0  2  0  0  0  0  0  0  0  0  0
   20.5444  -12.7527  -16.1256 N   0  0  0  0  0  0  0  0  0  0  0  0
   20.0956  -10.5639  -17.0415 C   0  0  0  0  0  0  0  0  0  0  0  0
   20.0914   -9.6926  -17.9455 O   0  0  0  0  0  0  0  0  0  0  0  0
   19.6684  -10.2021  -15.7552 N   0  0  0  0  0  0  0  0  0  0  0  0
   19.1712   -8.7994  -15.5056 C   0  0  1  0  0  0  0  0  0  0  0  0
   18.0706   -8.9873  -14.5004 C   0  0  0  0  0  0  0  0  0  0  0  0
   16.7730   -9.4059  -14.9521 C   0  0  0  0  0  0  0  0  0  0  0  0
   16.2511   -9.1080  -16.0211 O   0  0  0  0  0  0  0  0  0  0  0  0
   20.3346   -8.0297  -15.0094 C   0  0  0  0  0  0  0  0  0  0  0  0
   20.9282   -8.4785  -13.9678 O   0  0  0  0  0  0  0  0  0  0  0  0
   16.0169  -10.2363  -14.1004 O   0  0  0  0  0  0  0  0  0  0  0  0
   20.8966   -6.8623  -15.5233 N   0  0  0  0  0  0  0  0  0  0  0  0
   22.0355   -6.1771  -14.9694 C   0  0  1  0  0  0  0  0  0  0  0  0
   23.0045   -5.6523  -15.9631 C   0  0  0  0  0  0  0  0  0  0  0  0
   24.3108   -4.6501  -15.2511 S   0  0  0  0  0  0  0  0  0  0  0  0
   21.6243   -5.0895  -14.0533 C   0  0  0  0  0  0  0  0  0  0  0  0
   20.6161   -4.2333  -14.4718 O   0  0  0  0  0  0  0  0  0  0  0  0
   22.1435   -4.9139  -12.9307 O   0  0  0  0  0  0  0  0  0  0  0  0
  2  1  1  0
  3  5  1  0
  3  2  1  0
  3  4  1  1
  5  6  2  0
  7  5  1  0
  7  8  1  0
  8  9  1  1
  9 10  1  0
 10 14  1  0
 11 10  2  0
 12 15  1  0
 12  8  1  0
 13 12  2  0
 16 17  1  6
 16 19  1  0
 16 15  1  0
 18 17  1  0
 19 20  1  0
 21 19  2  0
M  END
$$$$
