SDC.pdb
     RDKit          3D

 21 20  0  0  1  0  0  0  0  0999 V2000
   23.4789   -8.5864  -15.8204 O   0  0  0  0  0  0  0  0  0  0  0  0
   22.1909   -8.7804  -16.3717 C   0  0  0  0  0  0  0  0  0  0  0  0
   21.4536   -7.4481  -16.3568 C   0  0  2  0  0  0  0  0  0  0  0  0
   22.2562   -6.4215  -15.7280 N   0  0  0  0  0  0  0  0  0  0  0  0
   20.1603   -7.6182  -15.6500 C   0  0  0  0  0  0  0  0  0  0  0  0
   19.8646   -6.8875  -14.6726 O   0  0  0  0  0  0  0  0  0  0  0  0
   19.2438   -8.5976  -16.0603 N   0  0  0  0  0  0  0  0  0  0  0  0
   17.9153   -8.7132  -15.3540 C   0  0  1  0  0  0  0  0  0  0  0  0
   17.2588   -7.3873  -15.6149 C   0  0  0  0  0  0  0  0  0  0  0  0
   15.9479   -7.1379  -15.0836 C   0  0  0  0  0  0  0  0  0  0  0  0
   14.9223   -6.9828  -15.7379 O   0  0  0  0  0  0  0  0  0  0  0  0
   17.2234   -9.8735  -15.9602 C   0  0  0  0  0  0  0  0  0  0  0  0
   17.1464   -9.9031  -17.2377 O   0  0  0  0  0  0  0  0  0  0  0  0
   15.8101   -7.0616  -13.6829 O   0  0  0  0  0  0  0  0  0  0  0  0
   16.6328  -10.9681  -15.3312 N   0  0  0  0  0  0  0  0  0  0  0  0
   15.9671  -12.0520  -16.0059 C   0  0  1  0  0  0  0  0  0  0  0  0
   15.7707  -13.2787  -15.1943 C   0  0  0  0  0  0  0  0  0  0  0  0
   17.1687  -13.6957  -14.1505 S   0  0  0  0  0  0  0  0  0  0  0  0
   14.6719  -11.6229  -16.5799 C   0  0  0  0  0  0  0  0  0  0  0  0
   13.9925  -12.5184  -17.3931 O   0  0  0  0  0  0  0  0  0  0  0  0
   14.1718  -10.4988  -16.3634 O   0  0  0  0  0  0  0  0  0  0  0  0
  2  1  1  0
  3  5  1  0
  3  2  1  0
  3  4  1  1
  5  6  2  0
  7  5  1  0
  7  8  1  0
  8  9  1  6
  9 10  1  0
 10 14  1  0
 11 10  2  0
 12 15  1  0
 12  8  1  0
 13 12  2  0
 16 17  1  1
 16 19  1  0
 16 15  1  0
 18 17  1  0
 19 20  1  0
 21 19  2  0
M  END
$$$$
