SDC.pdb
     RDKit          3D

 21 20  0  0  1  0  0  0  0  0999 V2000
   14.9748  -12.7823  -10.0794 O   0  0  0  0  0  0  0  0  0  0  0  0
   15.2982  -11.5547  -10.7031 C   0  0  0  0  0  0  0  0  0  0  0  0
   14.5547  -10.4372   -9.9838 C   0  0  2  0  0  0  0  0  0  0  0  0
   13.1277  -10.5475  -10.1957 N   0  0  0  0  0  0  0  0  0  0  0  0
   15.0634   -9.1292  -10.4648 C   0  0  0  0  0  0  0  0  0  0  0  0
   14.6171   -8.6187  -11.5216 O   0  0  0  0  0  0  0  0  0  0  0  0
   16.0518   -8.4383   -9.7483 N   0  0  0  0  0  0  0  0  0  0  0  0
   16.5772   -7.1286  -10.2830 C   0  0  1  0  0  0  0  0  0  0  0  0
   16.6106   -6.2395   -9.0724 C   0  0  0  0  0  0  0  0  0  0  0  0
   15.4531   -5.4529   -8.7488 C   0  0  0  0  0  0  0  0  0  0  0  0
   14.8598   -4.6963   -9.5100 O   0  0  0  0  0  0  0  0  0  0  0  0
   17.9050   -7.4230  -10.8684 C   0  0  0  0  0  0  0  0  0  0  0  0
   18.5724   -8.3818  -10.3449 O   0  0  0  0  0  0  0  0  0  0  0  0
   14.9389   -5.5481   -7.4399 O   0  0  0  0  0  0  0  0  0  0  0  0
   18.5505   -6.7989  -11.9345 N   0  0  0  0  0  0  0  0  0  0  0  0
   19.7821   -7.2442  -12.5331 C   0  0  1  0  0  0  0  0  0  0  0  0
   19.7680   -8.6339  -13.0531 C   0  0  0  0  0  0  0  0  0  0  0  0
   21.3045   -9.1395  -13.8284 S   0  0  0  0  0  0  0  0  0  0  0  0
   20.2363   -6.3199  -13.5964 C   0  0  0  0  0  0  0  0  0  0  0  0
   19.2705   -5.6272  -14.3120 O   0  0  0  0  0  0  0  0  0  0  0  0
   21.4415   -6.1410  -13.8720 O   0  0  0  0  0  0  0  0  0  0  0  0
  2  1  1  0
  3  5  1  0
  3  2  1  0
  3  4  1  6
  5  6  2  0
  7  5  1  0
  7  8  1  0
  8  9  1  1
  9 10  1  0
 10 14  1  0
 11 10  2  0
 12 15  1  0
 12  8  1  0
 13 12  2  0
 16 17  1  6
 16 19  1  0
 16 15  1  0
 18 17  1  0
 19 20  1  0
 21 19  2  0
M  END
$$$$
