FPG.pdb
     RDKit          3D

 23 24  0  0  1  0  0  0  0  0999 V2000
   23.5894   -9.1379  -17.7258 N   0  0  0  0  0  0  0  0  0  0  0  0
   24.4778   -9.6458  -16.6799 C   0  0  1  0  0  0  0  0  0  0  0  0
   23.9215   -9.2528  -15.3210 C   0  0  0  0  0  0  0  0  0  0  0  0
   23.4930   -7.8523  -15.2787 C   0  0  0  0  0  0  0  0  0  0  0  0
   24.4264   -6.8542  -15.4623 C   0  0  0  0  0  0  0  0  0  0  0  0
   24.1189   -5.5096  -15.4398 C   0  0  0  0  0  0  0  0  0  0  0  0
   22.7873   -5.1791  -15.2176 C   0  0  0  0  0  0  0  0  0  0  0  0
   21.8505   -6.1774  -15.0334 C   0  0  0  0  0  0  0  0  0  0  0  0
   22.1653   -7.5183  -15.0573 C   0  0  0  0  0  0  0  0  0  0  0  0
   24.6510  -11.1039  -16.8343 C   0  0  0  0  0  0  0  0  0  0  0  0
   23.6732  -11.7159  -17.3846 O   0  0  0  0  0  0  0  0  0  0  0  0
   25.7803  -11.8552  -16.4359 N   0  0  0  0  0  0  0  0  0  0  0  0
   26.9057  -11.2170  -15.7233 C   0  0  0  0  0  0  0  0  0  0  0  0
   27.9293  -12.2592  -15.4694 C   0  0  0  0  0  0  0  0  0  0  0  0
   27.5383  -13.4198  -16.3172 C   0  0  0  0  0  0  0  0  0  0  0  0
   26.0530  -13.2546  -16.5892 C   0  0  1  0  0  0  0  0  0  0  0  0
   25.2399  -14.0999  -15.6825 C   0  0  0  0  0  0  0  0  0  0  0  0
   24.9382  -13.6568  -14.5467 O   0  0  0  0  0  0  0  0  0  0  0  0
   24.7823  -15.3917  -16.0345 N   0  0  0  0  0  0  0  0  0  0  0  0
   23.8755  -16.1630  -15.2156 C   0  0  0  0  0  0  0  0  0  0  0  0
   22.5077  -16.0076  -15.7425 C   0  0  0  0  0  0  0  0  0  0  0  0
   21.9502  -16.9428  -16.5936 O   0  0  0  0  0  0  0  0  0  0  0  0
   21.8345  -15.0070  -15.4130 O   0  0  0  0  0  0  0  0  0  0  0  0
  2 10  1  0
  2  1  1  6
  3  2  1  0
  4  3  1  0
  5  4  2  0
  6  5  1  0
  7  6  2  0
  7  8  1  0
  8  9  2  0
  9  4  1  0
 10 12  1  0
 11 10  2  0
 12 13  1  0
 12 16  1  0
 13 14  1  0
 14 15  1  0
 16 15  1  0
 16 17  1  1
 17 19  1  0
 18 17  2  0
 20 19  1  0
 21 20  1  0
 22 21  1  0
 23 21  2  0
M  END
$$$$
