FPG.pdb
     RDKit          3D

 23 24  0  0  1  0  0  0  0  0999 V2000
   24.1803  -21.3530  -16.5465 N   0  0  0  0  0  0  0  0  0  0  0  0
   24.9218  -20.3098  -15.8372 C   0  0  1  0  0  0  0  0  0  0  0  0
   24.0787  -19.0461  -15.7887 C   0  0  0  0  0  0  0  0  0  0  0  0
   23.9270  -18.4270  -17.1081 C   0  0  0  0  0  0  0  0  0  0  0  0
   22.7574  -18.6168  -17.8131 C   0  0  0  0  0  0  0  0  0  0  0  0
   22.5225  -18.0753  -19.0599 C   0  0  0  0  0  0  0  0  0  0  0  0
   23.5410  -17.3023  -19.6049 C   0  0  0  0  0  0  0  0  0  0  0  0
   24.7137  -17.1109  -18.9003 C   0  0  0  0  0  0  0  0  0  0  0  0
   24.9409  -17.6550  -17.6553 C   0  0  0  0  0  0  0  0  0  0  0  0
   25.3136  -20.7955  -14.4991 C   0  0  0  0  0  0  0  0  0  0  0  0
   24.4197  -21.4635  -13.8760 O   0  0  0  0  0  0  0  0  0  0  0  0
   26.5631  -20.5889  -13.8710 N   0  0  0  0  0  0  0  0  0  0  0  0
   27.6750  -19.9315  -14.5874 C   0  0  0  0  0  0  0  0  0  0  0  0
   28.8395  -19.8866  -13.6708 C   0  0  0  0  0  0  0  0  0  0  0  0
   28.5003  -20.8032  -12.5467 C   0  0  0  0  0  0  0  0  0  0  0  0
   26.9850  -20.9080  -12.5382 C   0  0  1  0  0  0  0  0  0  0  0  0
   26.3869  -20.0140  -11.5180 C   0  0  0  0  0  0  0  0  0  0  0  0
   26.0078  -18.8673  -11.8623 O   0  0  0  0  0  0  0  0  0  0  0  0
   26.2197  -20.3903  -10.1643 N   0  0  0  0  0  0  0  0  0  0  0  0
   25.3275  -21.4439   -9.7378 C   0  0  0  0  0  0  0  0  0  0  0  0
   23.9483  -20.9237   -9.7228 C   0  0  0  0  0  0  0  0  0  0  0  0
   23.2785  -20.6173  -10.8922 O   0  0  0  0  0  0  0  0  0  0  0  0
   23.3692  -20.7551   -8.6278 O   0  0  0  0  0  0  0  0  0  0  0  0
  2 10  1  0
  2  1  1  1
  3  2  1  0
  4  3  1  0
  5  4  2  0
  6  5  1  0
  7  6  2  0
  7  8  1  0
  8  9  2  0
  9  4  1  0
 10 12  1  0
 11 10  2  0
 12 13  1  0
 12 16  1  0
 13 14  1  0
 14 15  1  0
 16 15  1  0
 16 17  1  1
 17 19  1  0
 18 17  2  0
 20 19  1  0
 21 20  1  0
 22 21  1  0
 23 21  2  0
M  END
$$$$
