FPG.pdb
     RDKit          3D

 23 24  0  0  1  0  0  0  0  0999 V2000
   24.1889  -20.5560  -10.7612 N   0  0  0  0  0  0  0  0  0  0  0  0
   25.5772  -20.4217  -11.2033 C   0  0  1  0  0  0  0  0  0  0  0  0
   26.4536  -21.3506  -10.3790 C   0  0  0  0  0  0  0  0  0  0  0  0
   27.0352  -20.6790   -9.2138 C   0  0  0  0  0  0  0  0  0  0  0  0
   28.3663  -20.8778   -8.9140 C   0  0  0  0  0  0  0  0  0  0  0  0
   29.0017  -20.2898   -7.8400 C   0  0  0  0  0  0  0  0  0  0  0  0
   28.2286  -19.4584   -7.0381 C   0  0  0  0  0  0  0  0  0  0  0  0
   26.8948  -19.2579   -7.3366 C   0  0  0  0  0  0  0  0  0  0  0  0
   26.2673  -19.8487   -8.4112 C   0  0  0  0  0  0  0  0  0  0  0  0
   25.6678  -20.6775  -12.6545 C   0  0  0  0  0  0  0  0  0  0  0  0
   24.7179  -21.3764  -13.1473 O   0  0  0  0  0  0  0  0  0  0  0  0
   26.6903  -20.2225  -13.5183 N   0  0  0  0  0  0  0  0  0  0  0  0
   27.8798  -19.5257  -12.9879 C   0  0  0  0  0  0  0  0  0  0  0  0
   28.7417  -19.1631  -14.1385 C   0  0  0  0  0  0  0  0  0  0  0  0
   27.8980  -19.3625  -15.3498 C   0  0  0  0  0  0  0  0  0  0  0  0
   26.8098  -20.3408  -14.9423 C   0  0  1  0  0  0  0  0  0  0  0  0
   27.1325  -21.7207  -15.3778 C   0  0  0  0  0  0  0  0  0  0  0  0
   27.9944  -22.3735  -14.7388 O   0  0  0  0  0  0  0  0  0  0  0  0
   26.5135  -22.3453  -16.4863 N   0  0  0  0  0  0  0  0  0  0  0  0
   26.5513  -23.7712  -16.7170 C   0  0  0  0  0  0  0  0  0  0  0  0
   25.3757  -24.3890  -16.0773 C   0  0  0  0  0  0  0  0  0  0  0  0
   24.1176  -24.3058  -16.6431 O   0  0  0  0  0  0  0  0  0  0  0  0
   25.5179  -25.0029  -14.9976 O   0  0  0  0  0  0  0  0  0  0  0  0
  2 10  1  0
  2  1  1  1
  3  2  1  0
  4  3  1  0
  5  4  2  0
  6  5  1  0
  7  6  2  0
  7  8  1  0
  8  9  2  0
  9  4  1  0
 10 12  1  0
 11 10  2  0
 12 13  1  0
 12 16  1  0
 13 14  1  0
 14 15  1  0
 16 15  1  0
 16 17  1  1
 17 19  1  0
 18 17  2  0
 20 19  1  0
 21 20  1  0
 22 21  1  0
 23 21  2  0
M  END
$$$$
