FPG.pdb
     RDKit          3D

 23 24  0  0  1  0  0  0  0  0999 V2000
   21.2221  -20.0109  -13.0756 N   0  0  0  0  0  0  0  0  0  0  0  0
   22.2025  -20.6078  -12.1681 C   0  0  1  0  0  0  0  0  0  0  0  0
   21.9242  -22.0970  -12.0453 C   0  0  0  0  0  0  0  0  0  0  0  0
   20.7270  -22.3757  -11.2478 C   0  0  0  0  0  0  0  0  0  0  0  0
   19.5661  -22.7613  -11.8840 C   0  0  0  0  0  0  0  0  0  0  0  0
   18.3909  -23.0448  -11.2195 C   0  0  0  0  0  0  0  0  0  0  0  0
   18.4141  -22.9251   -9.8350 C   0  0  0  0  0  0  0  0  0  0  0  0
   19.5761  -22.5389   -9.1956 C   0  0  0  0  0  0  0  0  0  0  0  0
   20.7460  -22.2575   -9.8662 C   0  0  0  0  0  0  0  0  0  0  0  0
   23.5691  -20.3119  -12.6423 C   0  0  0  0  0  0  0  0  0  0  0  0
   23.6466  -19.8369  -13.8264 O   0  0  0  0  0  0  0  0  0  0  0  0
   24.7640  -20.5040  -11.9117 N   0  0  0  0  0  0  0  0  0  0  0  0
   24.7303  -20.8857  -10.4852 C   0  0  0  0  0  0  0  0  0  0  0  0
   26.1314  -20.9860  -10.0108 C   0  0  0  0  0  0  0  0  0  0  0  0
   26.9604  -20.3495  -11.0722 C   0  0  0  0  0  0  0  0  0  0  0  0
   26.1287  -20.4100  -12.3418 C   0  0  1  0  0  0  0  0  0  0  0  0
   26.5379  -21.5455  -13.2027 C   0  0  0  0  0  0  0  0  0  0  0  0
   25.8985  -22.6240  -13.1303 O   0  0  0  0  0  0  0  0  0  0  0  0
   27.6215  -21.4753  -14.1099 N   0  0  0  0  0  0  0  0  0  0  0  0
   27.5576  -20.7702  -15.3696 C   0  0  0  0  0  0  0  0  0  0  0  0
   27.2135  -21.7287  -16.4354 C   0  0  0  0  0  0  0  0  0  0  0  0
   28.1267  -22.0851  -17.4096 O   0  0  0  0  0  0  0  0  0  0  0  0
   26.0695  -22.2321  -16.4604 O   0  0  0  0  0  0  0  0  0  0  0  0
  2 10  1  0
  2  1  1  6
  3  2  1  0
  4  3  1  0
  5  4  2  0
  6  5  1  0
  7  6  2  0
  7  8  1  0
  8  9  2  0
  9  4  1  0
 10 12  1  0
 11 10  2  0
 12 13  1  0
 12 16  1  0
 13 14  1  0
 14 15  1  0
 16 15  1  0
 16 17  1  1
 17 19  1  0
 18 17  2  0
 20 19  1  0
 21 20  1  0
 22 21  1  0
 23 21  2  0
M  END
$$$$
