FPG.pdb
     RDKit          3D

 23 24  0  0  1  0  0  0  0  0999 V2000
   25.2429  -18.9674  -16.5972 N   0  0  0  0  0  0  0  0  0  0  0  0
   25.8830  -18.6095  -15.3311 C   0  0  1  0  0  0  0  0  0  0  0  0
   25.2701  -17.3193  -14.8113 C   0  0  0  0  0  0  0  0  0  0  0  0
   25.6078  -16.1655  -15.6490 C   0  0  0  0  0  0  0  0  0  0  0  0
   24.6695  -15.6734  -16.5313 C   0  0  0  0  0  0  0  0  0  0  0  0
   24.8946  -14.5933  -17.3593 C   0  0  0  0  0  0  0  0  0  0  0  0
   26.1452  -13.9930  -17.2735 C   0  0  0  0  0  0  0  0  0  0  0  0
   27.0868  -14.4844  -16.3902 C   0  0  0  0  0  0  0  0  0  0  0  0
   26.8545  -15.5637  -15.5663 C   0  0  0  0  0  0  0  0  0  0  0  0
   25.7675  -19.7303  -14.3769 C   0  0  0  0  0  0  0  0  0  0  0  0
   24.6535  -20.3564  -14.4006 O   0  0  0  0  0  0  0  0  0  0  0  0
   26.7625  -20.1556  -13.4672 N   0  0  0  0  0  0  0  0  0  0  0  0
   28.1138  -19.5594  -13.4845 C   0  0  0  0  0  0  0  0  0  0  0  0
   28.9172  -20.2300  -12.4343 C   0  0  0  0  0  0  0  0  0  0  0  0
   28.1307  -21.4295  -12.0328 C   0  0  0  0  0  0  0  0  0  0  0  0
   26.6922  -21.1324  -12.4198 C   0  0  1  0  0  0  0  0  0  0  0  0
   25.9037  -20.6671  -11.2538 C   0  0  0  0  0  0  0  0  0  0  0  0
   25.9958  -19.4660  -10.8984 O   0  0  0  0  0  0  0  0  0  0  0  0
   25.0449  -21.5145  -10.5147 N   0  0  0  0  0  0  0  0  0  0  0  0
   24.1118  -21.0296   -9.5236 C   0  0  0  0  0  0  0  0  0  0  0  0
   22.7419  -21.1703  -10.0494 C   0  0  0  0  0  0  0  0  0  0  0  0
   22.5017  -21.6597  -11.3193 O   0  0  0  0  0  0  0  0  0  0  0  0
   21.7733  -20.8399   -9.3313 O   0  0  0  0  0  0  0  0  0  0  0  0
  2 10  1  0
  2  1  1  6
  3  2  1  0
  4  3  1  0
  5  4  2  0
  6  5  1  0
  7  6  2  0
  7  8  1  0
  8  9  2  0
  9  4  1  0
 10 12  1  0
 11 10  2  0
 12 13  1  0
 12 16  1  0
 13 14  1  0
 14 15  1  0
 16 15  1  0
 16 17  1  1
 17 19  1  0
 18 17  2  0
 20 19  1  0
 21 20  1  0
 22 21  1  0
 23 21  2  0
M  END
$$$$
