FPG.pdb
     RDKit          3D

 23 24  0  0  1  0  0  0  0  0999 V2000
   20.2347  -11.0623  -18.0915 N   0  0  0  0  0  0  0  0  0  0  0  0
   21.4836  -10.6064  -17.4802 C   0  0  1  0  0  0  0  0  0  0  0  0
   22.3688   -9.9956  -18.5543 C   0  0  0  0  0  0  0  0  0  0  0  0
   22.6891  -10.9485  -19.6202 C   0  0  0  0  0  0  0  0  0  0  0  0
   22.2705  -10.6878  -20.9078 C   0  0  0  0  0  0  0  0  0  0  0  0
   22.5237  -11.5237  -21.9756 C   0  0  0  0  0  0  0  0  0  0  0  0
   23.2420  -12.6820  -21.7028 C   0  0  0  0  0  0  0  0  0  0  0  0
   23.6623  -12.9451  -20.4135 C   0  0  0  0  0  0  0  0  0  0  0  0
   23.4055  -12.1053  -19.3522 C   0  0  0  0  0  0  0  0  0  0  0  0
   21.1888   -9.6738  -16.3743 C   0  0  0  0  0  0  0  0  0  0  0  0
   20.2747   -8.8131  -16.6132 O   0  0  0  0  0  0  0  0  0  0  0  0
   21.8167   -9.6587  -15.1078 N   0  0  0  0  0  0  0  0  0  0  0  0
   22.8414  -10.6623  -14.7549 C   0  0  0  0  0  0  0  0  0  0  0  0
   23.2826  -10.3888  -13.3661 C   0  0  0  0  0  0  0  0  0  0  0  0
   22.2846   -9.4335  -12.8093 C   0  0  0  0  0  0  0  0  0  0  0  0
   21.6447   -8.7547  -14.0081 C   0  0  1  0  0  0  0  0  0  0  0  0
   22.2465   -7.4235  -14.2607 C   0  0  0  0  0  0  0  0  0  0  0  0
   23.2926   -7.3510  -14.9519 O   0  0  0  0  0  0  0  0  0  0  0  0
   21.6976   -6.2201  -13.7584 N   0  0  0  0  0  0  0  0  0  0  0  0
   22.1465   -4.9100  -14.1710 C   0  0  0  0  0  0  0  0  0  0  0  0
   21.0958   -4.2831  -14.9931 C   0  0  0  0  0  0  0  0  0  0  0  0
   20.0656   -3.5605  -14.4217 O   0  0  0  0  0  0  0  0  0  0  0  0
   21.1358   -4.4066  -16.2365 O   0  0  0  0  0  0  0  0  0  0  0  0
  2 10  1  0
  2  1  1  6
  3  2  1  0
  4  3  1  0
  5  4  2  0
  6  5  1  0
  7  6  2  0
  7  8  1  0
  8  9  2  0
  9  4  1  0
 10 12  1  0
 11 10  2  0
 12 13  1  0
 12 16  1  0
 13 14  1  0
 14 15  1  0
 16 15  1  0
 16 17  1  6
 17 19  1  0
 18 17  2  0
 20 19  1  0
 21 20  1  0
 22 21  1  0
 23 21  2  0
M  END
$$$$
