FPG.pdb
     RDKit          3D

 23 24  0  0  1  0  0  0  0  0999 V2000
   24.9498  -19.3859  -16.9145 N   0  0  0  0  0  0  0  0  0  0  0  0
   25.4198  -18.8039  -15.6570 C   0  0  1  0  0  0  0  0  0  0  0  0
   24.5191  -17.6386  -15.2812 C   0  0  0  0  0  0  0  0  0  0  0  0
   24.5884  -16.5451  -16.2541 C   0  0  0  0  0  0  0  0  0  0  0  0
   25.5759  -15.5910  -16.1290 C   0  0  0  0  0  0  0  0  0  0  0  0
   25.7213  -14.5266  -16.9944 C   0  0  0  0  0  0  0  0  0  0  0  0
   24.8059  -14.4423  -18.0369 C   0  0  0  0  0  0  0  0  0  0  0  0
   23.8158  -15.3971  -18.1641 C   0  0  0  0  0  0  0  0  0  0  0  0
   23.6770  -16.4574  -17.2957 C   0  0  0  0  0  0  0  0  0  0  0  0
   25.4811  -19.8472  -14.6142 C   0  0  0  0  0  0  0  0  0  0  0  0
   24.4497  -20.5972  -14.5291 O   0  0  0  0  0  0  0  0  0  0  0  0
   26.5593  -20.0780  -13.7293 N   0  0  0  0  0  0  0  0  0  0  0  0
   27.8070  -19.2940  -13.8300 C   0  0  0  0  0  0  0  0  0  0  0  0
   28.7367  -19.7880  -12.7860 C   0  0  0  0  0  0  0  0  0  0  0  0
   28.1494  -21.0673  -12.2991 C   0  0  0  0  0  0  0  0  0  0  0  0
   26.6701  -21.0014  -12.6379 C   0  0  1  0  0  0  0  0  0  0  0  0
   25.8635  -20.5978  -11.4613 C   0  0  0  0  0  0  0  0  0  0  0  0
   25.7897  -19.3797  -11.1643 O   0  0  0  0  0  0  0  0  0  0  0  0
   25.1662  -21.5230  -10.6490 N   0  0  0  0  0  0  0  0  0  0  0  0
   24.1610  -21.1341   -9.6865 C   0  0  0  0  0  0  0  0  0  0  0  0
   22.8660  -20.9993  -10.3776 C   0  0  0  0  0  0  0  0  0  0  0  0
   22.1829  -22.1019  -10.8546 O   0  0  0  0  0  0  0  0  0  0  0  0
   22.3723  -19.8618  -10.5369 O   0  0  0  0  0  0  0  0  0  0  0  0
  2 10  1  0
  2  1  1  6
  3  2  1  0
  4  3  1  0
  5  4  2  0
  6  5  1  0
  7  6  2  0
  7  8  1  0
  8  9  2  0
  9  4  1  0
 10 12  1  0
 11 10  2  0
 12 13  1  0
 12 16  1  0
 13 14  1  0
 14 15  1  0
 16 15  1  0
 16 17  1  1
 17 19  1  0
 18 17  2  0
 20 19  1  0
 21 20  1  0
 22 21  1  0
 23 21  2  0
M  END
$$$$
