FRY.pdb
     RDKit          3D

 35 36  0  0  1  0  0  0  0  0999 V2000
    6.2927  -17.5110   25.4954 N   0  0  0  0  0  0  0  0  0  0  0  0
    6.9958  -16.3037   25.1458 C   0  0  1  0  0  0  0  0  0  0  0  0
    7.6726  -15.6699   26.3308 C   0  0  0  0  0  0  0  0  0  0  0  0
    7.2397  -14.2535   26.4403 C   0  0  0  0  0  0  0  0  0  0  0  0
    8.0689  -13.2574   25.9643 C   0  0  0  0  0  0  0  0  0  0  0  0
    7.7231  -11.9215   26.0394 C   0  0  0  0  0  0  0  0  0  0  0  0
    6.5277  -11.5352   26.5973 C   0  0  0  0  0  0  0  0  0  0  0  0
    5.6808  -12.5291   27.0820 C   0  0  0  0  0  0  0  0  0  0  0  0
    6.0410  -13.8611   26.9994 C   0  0  0  0  0  0  0  0  0  0  0  0
    7.8898  -16.5633   24.0174 C   0  0  0  0  0  0  0  0  0  0  0  0
    8.3920  -17.7054   23.8719 O   0  0  0  0  0  0  0  0  0  0  0  0
    8.5746  -14.7193   16.4741 N   0  0  0  0  0  0  0  0  0  0  0  0
    7.9338  -14.1030   17.5747 C   0  0  0  0  0  0  0  0  0  0  0  0
    7.8962  -12.8066   17.5963 N   0  0  0  0  0  0  0  0  0  0  0  0
    7.3466  -14.8637   18.6291 N   0  0  0  0  0  0  0  0  0  0  0  0
    6.6852  -14.2466   19.7387 C   0  0  0  0  0  0  0  0  0  0  0  0
    7.5823  -14.0384   20.9245 C   0  0  0  0  0  0  0  0  0  0  0  0
    8.8678  -14.8051   20.7868 C   0  0  0  0  0  0  0  0  0  0  0  0
    9.0840  -15.7882   21.9129 C   0  0  2  0  0  0  0  0  0  0  0  0
    8.2370  -15.5746   23.0444 N   0  0  0  0  0  0  0  0  0  0  0  0
   10.5385  -15.6672   22.2826 C   0  0  0  0  0  0  0  0  0  0  0  0
   11.3642  -15.8224   21.3526 O   0  0  0  0  0  0  0  0  0  0  0  0
    7.4233  -12.2951   18.3534 O   0  0  0  0  0  0  0  0  0  0  0  0
   10.2835  -14.2751   30.0368 C   0  0  0  0  0  0  0  0  0  0  0  0
   10.5598  -14.9723   28.8609 C   0  0  0  0  0  0  0  0  0  0  0  0
   11.0057  -16.2704   28.8967 C   0  0  0  0  0  0  0  0  0  0  0  0
   11.2831  -16.9728   27.7481 C   0  0  0  0  0  0  0  0  0  0  0  0
   11.1081  -16.3560   26.5387 C   0  0  0  0  0  0  0  0  0  0  0  0
   11.4070  -17.0824   25.2947 C   0  0  2  0  0  0  0  0  0  0  0  0
   12.0252  -16.1887   24.2646 N   0  0  0  0  0  0  0  0  0  0  0  0
   10.9942  -15.3986   23.5735 C   0  0  0  0  0  0  0  0  0  0  0  0
   12.9069  -16.8612   23.3024 O   0  0  0  0  0  0  0  0  0  0  0  0
   12.4166  -18.0150   22.6568 C   0  0  0  0  0  0  0  0  0  0  0  0
   10.6601  -15.0505   26.4803 C   0  0  0  0  0  0  0  0  0  0  0  0
   10.3873  -14.3619   27.6337 O   0  0  0  0  0  0  0  0  0  0  0  0
  2  1  1  1
  2  3  1  0
  3  4  1  0
  4  5  2  0
  5  6  1  0
  7  6  2  0
  8  7  1  0
  9  4  1  0
  9  8  2  0
 10  2  1  0
 11 10  2  0
 13 12  1  0
 14 13  2  0
 15 13  1  0
 16 17  1  0
 16 15  1  0
 17 18  1  0
 19 18  1  6
 19 20  1  0
 19 21  1  0
 20 10  1  0
 21 30  1  0
 22 21  2  0
 23 24  1  0
 24 25  2  0
 24 34  1  0
 25 26  1  0
 26 27  2  0
 27 28  1  0
 29 28  1  1
 29 31  1  0
 30 29  1  0
 31 35  2  0
 31 32  1  0
 33 27  1  0
 34 33  2  0
M  END
$$$$
