FRY.pdb
     RDKit          3D

 35 36  0  0  1  0  0  0  0  0999 V2000
    6.8532  -16.0039   26.0893 N   0  0  0  0  0  0  0  0  0  0  0  0
    6.9692  -15.1691   24.9215 C   0  0  1  0  0  0  0  0  0  0  0  0
    7.8092  -13.9460   25.1711 C   0  0  0  0  0  0  0  0  0  0  0  0
    7.1326  -13.0857   26.1749 C   0  0  0  0  0  0  0  0  0  0  0  0
    5.9354  -12.4814   25.8460 C   0  0  0  0  0  0  0  0  0  0  0  0
    5.2592  -11.6684   26.7357 C   0  0  0  0  0  0  0  0  0  0  0  0
    5.7620  -11.4313   27.9929 C   0  0  0  0  0  0  0  0  0  0  0  0
    6.9690  -12.0340   28.3389 C   0  0  0  0  0  0  0  0  0  0  0  0
    7.6334  -12.8448   27.4376 C   0  0  0  0  0  0  0  0  0  0  0  0
    7.4115  -15.9736   23.7826 C   0  0  0  0  0  0  0  0  0  0  0  0
    8.1609  -16.9634   23.9743 O   0  0  0  0  0  0  0  0  0  0  0  0
   10.0575  -15.2334   16.9423 N   0  0  0  0  0  0  0  0  0  0  0  0
    8.9341  -14.8288   16.1833 C   0  0  0  0  0  0  0  0  0  0  0  0
    8.8446  -15.2679   14.9660 N   0  0  0  0  0  0  0  0  0  0  0  0
    7.9292  -13.9706   16.7209 N   0  0  0  0  0  0  0  0  0  0  0  0
    7.9548  -13.5237   18.0807 C   0  0  0  0  0  0  0  0  0  0  0  0
    8.3470  -14.5989   19.0525 C   0  0  0  0  0  0  0  0  0  0  0  0
    7.5118  -14.5474   20.3010 C   0  0  0  0  0  0  0  0  0  0  0  0
    7.9386  -15.5669   21.3307 C   0  0  2  0  0  0  0  0  0  0  0  0
    7.0355  -15.6983   22.4308 N   0  0  0  0  0  0  0  0  0  0  0  0
    9.3055  -15.1322   21.7886 C   0  0  0  0  0  0  0  0  0  0  0  0
    9.4911  -13.8971   21.8930 O   0  0  0  0  0  0  0  0  0  0  0  0
    8.0580  -15.0063   14.3567 O   0  0  0  0  0  0  0  0  0  0  0  0
   11.9367  -15.8212   29.6830 C   0  0  0  0  0  0  0  0  0  0  0  0
   11.4322  -15.9542   28.3896 C   0  0  0  0  0  0  0  0  0  0  0  0
   11.8229  -15.1013   27.3870 C   0  0  0  0  0  0  0  0  0  0  0  0
   11.3360  -15.2173   26.1067 C   0  0  0  0  0  0  0  0  0  0  0  0
   10.4375  -16.2121   25.8299 C   0  0  0  0  0  0  0  0  0  0  0  0
    9.8939  -16.3520   24.4699 C   0  0  2  0  0  0  0  0  0  0  0  0
   10.9481  -16.1467   23.4266 N   0  0  0  0  0  0  0  0  0  0  0  0
   10.3423  -16.0148   22.0924 C   0  0  0  0  0  0  0  0  0  0  0  0
   12.0238  -17.1457   23.4206 O   0  0  0  0  0  0  0  0  0  0  0  0
   12.8899  -17.1856   24.5327 C   0  0  0  0  0  0  0  0  0  0  0  0
   10.0314  -17.0811   26.8240 C   0  0  0  0  0  0  0  0  0  0  0  0
   10.5250  -16.9540   28.0964 O   0  0  0  0  0  0  0  0  0  0  0  0
  2  1  1  1
  2  3  1  0
  3  4  1  0
  4  5  2  0
  5  6  1  0
  7  6  2  0
  8  7  1  0
  9  4  1  0
  9  8  2  0
 10  2  1  0
 11 10  2  0
 13 12  1  0
 14 13  2  0
 15 13  1  0
 16 17  1  0
 16 15  1  0
 17 18  1  0
 19 18  1  6
 19 20  1  0
 19 21  1  0
 20 10  1  0
 21 30  1  0
 22 21  2  0
 23 24  1  0
 24 25  2  0
 24 34  1  0
 25 26  1  0
 26 27  2  0
 27 28  1  0
 29 28  1  1
 29 31  1  0
 30 29  1  0
 31 35  2  0
 31 32  1  0
 33 27  1  0
 34 33  2  0
M  END
$$$$
