FRY.pdb
     RDKit          3D

 35 36  0  0  1  0  0  0  0  0999 V2000
    6.0655  -17.4915   25.8393 N   0  0  0  0  0  0  0  0  0  0  0  0
    6.7140  -16.2664   25.4485 C   0  0  1  0  0  0  0  0  0  0  0  0
    7.1450  -15.4423   26.6313 C   0  0  0  0  0  0  0  0  0  0  0  0
    6.7322  -14.0315   26.4198 C   0  0  0  0  0  0  0  0  0  0  0  0
    7.6978  -13.0450   26.3888 C   0  0  0  0  0  0  0  0  0  0  0  0
    7.3765  -11.7146   26.1977 C   0  0  0  0  0  0  0  0  0  0  0  0
    6.0691  -11.3242   26.0302 C   0  0  0  0  0  0  0  0  0  0  0  0
    5.0840  -12.3084   26.0594 C   0  0  0  0  0  0  0  0  0  0  0  0
    5.4215  -13.6351   26.2514 C   0  0  0  0  0  0  0  0  0  0  0  0
    7.7903  -16.5589   24.5020 C   0  0  0  0  0  0  0  0  0  0  0  0
    8.5734  -17.5149   24.7269 O   0  0  0  0  0  0  0  0  0  0  0  0
    8.2906  -12.4888   18.0084 N   0  0  0  0  0  0  0  0  0  0  0  0
    7.9725  -13.8513   17.7979 C   0  0  0  0  0  0  0  0  0  0  0  0
    6.8918  -14.1178   17.1320 N   0  0  0  0  0  0  0  0  0  0  0  0
    8.7980  -14.9043   18.2930 N   0  0  0  0  0  0  0  0  0  0  0  0
   10.0445  -14.6522   18.9506 C   0  0  0  0  0  0  0  0  0  0  0  0
   10.1989  -15.4052   20.2404 C   0  0  0  0  0  0  0  0  0  0  0  0
    9.0774  -15.1034   21.1946 C   0  0  0  0  0  0  0  0  0  0  0  0
    9.1745  -15.8948   22.4775 C   0  0  2  0  0  0  0  0  0  0  0  0
    8.0133  -15.8068   23.3064 N   0  0  0  0  0  0  0  0  0  0  0  0
   10.3969  -15.3723   23.1842 C   0  0  0  0  0  0  0  0  0  0  0  0
   10.2239  -14.3910   23.9445 O   0  0  0  0  0  0  0  0  0  0  0  0
    6.6709  -15.0750   16.8265 O   0  0  0  0  0  0  0  0  0  0  0  0
   10.3138  -14.3397   29.7627 C   0  0  0  0  0  0  0  0  0  0  0  0
   10.6836  -15.0402   28.6148 C   0  0  0  0  0  0  0  0  0  0  0  0
   11.1415  -14.3809   27.5009 C   0  0  0  0  0  0  0  0  0  0  0  0
   11.5102  -15.0547   26.3608 C   0  0  0  0  0  0  0  0  0  0  0  0
   11.4158  -16.4202   26.3416 C   0  0  0  0  0  0  0  0  0  0  0  0
   11.7949  -17.1647   25.1306 C   0  0  2  0  0  0  0  0  0  0  0  0
   12.5403  -16.3028   24.1593 N   0  0  0  0  0  0  0  0  0  0  0  0
   11.6738  -15.9143   23.0355 C   0  0  0  0  0  0  0  0  0  0  0  0
   13.8106  -16.8592   23.6775 O   0  0  0  0  0  0  0  0  0  0  0  0
   14.9788  -16.5584   24.4076 C   0  0  0  0  0  0  0  0  0  0  0  0
   10.9577  -17.1030   27.4517 C   0  0  0  0  0  0  0  0  0  0  0  0
   10.5936  -16.4183   28.5819 O   0  0  0  0  0  0  0  0  0  0  0  0
  2  1  1  1
  2  3  1  0
  3  4  1  0
  4  5  2  0
  5  6  1  0
  7  6  2  0
  8  7  1  0
  9  4  1  0
  9  8  2  0
 10  2  1  0
 11 10  2  0
 13 12  1  0
 14 13  2  0
 15 13  1  0
 16 17  1  0
 16 15  1  0
 17 18  1  0
 19 18  1  6
 19 20  1  0
 19 21  1  0
 20 10  1  0
 21 30  1  0
 22 21  2  0
 23 24  1  0
 24 25  2  0
 24 34  1  0
 25 26  1  0
 26 27  2  0
 27 28  1  0
 29 28  1  1
 29 31  1  0
 30 29  1  0
 31 35  2  0
 31 32  1  0
 33 27  1  0
 34 33  2  0
M  END
$$$$
