FRY.pdb
     RDKit          3D

 35 36  0  0  1  0  0  0  0  0999 V2000
    6.2144  -16.8298   25.2222 N   0  0  0  0  0  0  0  0  0  0  0  0
    7.2260  -15.9955   24.6266 C   0  0  1  0  0  0  0  0  0  0  0  0
    7.9393  -15.1445   25.6419 C   0  0  0  0  0  0  0  0  0  0  0  0
    7.2216  -13.8525   25.7866 C   0  0  0  0  0  0  0  0  0  0  0  0
    6.1161  -13.7851   26.6112 C   0  0  0  0  0  0  0  0  0  0  0  0
    5.4054  -12.6128   26.7853 C   0  0  0  0  0  0  0  0  0  0  0  0
    5.7798  -11.4607   26.1355 C   0  0  0  0  0  0  0  0  0  0  0  0
    6.8930  -11.5134   25.3001 C   0  0  0  0  0  0  0  0  0  0  0  0
    7.5936  -12.6939   25.1364 C   0  0  0  0  0  0  0  0  0  0  0  0
    8.1166  -16.8129   23.8028 C   0  0  0  0  0  0  0  0  0  0  0  0
    8.3655  -17.9964   24.1421 O   0  0  0  0  0  0  0  0  0  0  0  0
    9.0417  -12.3953   18.1207 N   0  0  0  0  0  0  0  0  0  0  0  0
    7.9518  -13.2720   17.9084 C   0  0  0  0  0  0  0  0  0  0  0  0
    6.7877  -12.7398   17.6980 N   0  0  0  0  0  0  0  0  0  0  0  0
    8.1096  -14.6898   17.9223 N   0  0  0  0  0  0  0  0  0  0  0  0
    9.2293  -15.3270   18.5467 C   0  0  0  0  0  0  0  0  0  0  0  0
    8.9263  -15.8470   19.9222 C   0  0  0  0  0  0  0  0  0  0  0  0
   10.1550  -16.4015   20.5869 C   0  0  0  0  0  0  0  0  0  0  0  0
    9.8805  -16.9236   21.9775 C   0  0  2  0  0  0  0  0  0  0  0  0
    8.7374  -16.3384   22.6052 N   0  0  0  0  0  0  0  0  0  0  0  0
   11.1368  -16.6600   22.7645 C   0  0  0  0  0  0  0  0  0  0  0  0
   11.7283  -15.5814   22.5243 O   0  0  0  0  0  0  0  0  0  0  0  0
    5.9390  -13.3163   17.6211 O   0  0  0  0  0  0  0  0  0  0  0  0
   11.2428  -15.1403   31.0970 C   0  0  0  0  0  0  0  0  0  0  0  0
   11.0780  -15.4994   29.7594 C   0  0  0  0  0  0  0  0  0  0  0  0
   10.9799  -16.8177   29.3882 C   0  0  0  0  0  0  0  0  0  0  0  0
   10.8174  -17.1902   28.0750 C   0  0  0  0  0  0  0  0  0  0  0  0
   10.7524  -16.2158   27.1158 C   0  0  0  0  0  0  0  0  0  0  0  0
   10.5884  -16.5880   25.7019 C   0  0  2  0  0  0  0  0  0  0  0  0
   11.8369  -17.1929   25.1385 N   0  0  0  0  0  0  0  0  0  0  0  0
   11.6558  -17.5349   23.7191 C   0  0  0  0  0  0  0  0  0  0  0  0
   12.3729  -18.3337   25.8913 O   0  0  0  0  0  0  0  0  0  0  0  0
   11.6680  -19.5532   25.8269 C   0  0  0  0  0  0  0  0  0  0  0  0
   10.8488  -14.8834   27.4679 C   0  0  0  0  0  0  0  0  0  0  0  0
   11.0106  -14.5262   28.7813 O   0  0  0  0  0  0  0  0  0  0  0  0
  2  1  1  1
  2  3  1  0
  3  4  1  0
  4  5  2  0
  5  6  1  0
  7  6  2  0
  8  7  1  0
  9  4  1  0
  9  8  2  0
 10  2  1  0
 11 10  2  0
 13 12  1  0
 14 13  2  0
 15 13  1  0
 16 17  1  0
 16 15  1  0
 17 18  1  0
 19 18  1  6
 19 20  1  0
 19 21  1  0
 20 10  1  0
 21 30  1  0
 22 21  2  0
 23 24  1  0
 24 25  2  0
 24 34  1  0
 25 26  1  0
 26 27  2  0
 27 28  1  0
 29 28  1  6
 29 31  1  0
 30 29  1  0
 31 35  2  0
 31 32  1  0
 33 27  1  0
 34 33  2  0
M  END
$$$$
