FRY.pdb
     RDKit          3D

 35 36  0  0  1  0  0  0  0  0999 V2000
    5.6469  -18.9460   24.0940 N   0  0  0  0  0  0  0  0  0  0  0  0
    6.3283  -17.6801   24.0096 C   0  0  1  0  0  0  0  0  0  0  0  0
    6.2701  -16.9096   25.3007 C   0  0  0  0  0  0  0  0  0  0  0  0
    7.0978  -15.6829   25.1749 C   0  0  0  0  0  0  0  0  0  0  0  0
    6.8938  -14.8405   24.1000 C   0  0  0  0  0  0  0  0  0  0  0  0
    7.6332  -13.6859   23.9267 C   0  0  0  0  0  0  0  0  0  0  0  0
    8.6080  -13.3333   24.8295 C   0  0  0  0  0  0  0  0  0  0  0  0
    8.8252  -14.1736   25.9188 C   0  0  0  0  0  0  0  0  0  0  0  0
    8.0772  -15.3251   26.0782 C   0  0  0  0  0  0  0  0  0  0  0  0
    7.6833  -17.8830   23.4973 C   0  0  0  0  0  0  0  0  0  0  0  0
    8.4583  -18.6770   24.0862 O   0  0  0  0  0  0  0  0  0  0  0  0
    9.5587  -12.7428   18.8485 N   0  0  0  0  0  0  0  0  0  0  0  0
    8.2953  -13.1992   18.4044 C   0  0  0  0  0  0  0  0  0  0  0  0
    7.3285  -12.3355   18.3602 N   0  0  0  0  0  0  0  0  0  0  0  0
    8.0758  -14.5545   18.0166 N   0  0  0  0  0  0  0  0  0  0  0  0
    8.9094  -15.6242   18.4754 C   0  0  0  0  0  0  0  0  0  0  0  0
    8.8953  -15.7907   19.9675 C   0  0  0  0  0  0  0  0  0  0  0  0
    9.7000  -16.9850   20.3982 C   0  0  0  0  0  0  0  0  0  0  0  0
    9.5422  -17.2951   21.8681 C   0  0  2  0  0  0  0  0  0  0  0  0
    8.1948  -17.2184   22.3391 N   0  0  0  0  0  0  0  0  0  0  0  0
   10.4336  -16.3171   22.5864 C   0  0  0  0  0  0  0  0  0  0  0  0
   10.2320  -15.1028   22.3505 O   0  0  0  0  0  0  0  0  0  0  0  0
    6.3826  -12.6025   18.0562 O   0  0  0  0  0  0  0  0  0  0  0  0
   10.6195  -14.6574   30.9349 C   0  0  0  0  0  0  0  0  0  0  0  0
   10.5310  -15.0715   29.6060 C   0  0  0  0  0  0  0  0  0  0  0  0
   10.3896  -14.1597   28.5893 C   0  0  0  0  0  0  0  0  0  0  0  0
   10.3006  -14.5496   27.2740 C   0  0  0  0  0  0  0  0  0  0  0  0
   10.3550  -15.8845   26.9762 C   0  0  0  0  0  0  0  0  0  0  0  0
   10.2525  -16.3288   25.5774 C   0  0  1  0  0  0  0  0  0  0  0  0
   11.5549  -16.1865   24.8526 N   0  0  0  0  0  0  0  0  0  0  0  0
   11.4425  -16.6901   23.4748 C   0  0  0  0  0  0  0  0  0  0  0  0
   12.7162  -16.7714   25.5344 O   0  0  0  0  0  0  0  0  0  0  0  0
   13.6459  -15.8894   26.1226 C   0  0  0  0  0  0  0  0  0  0  0  0
   10.4972  -16.8184   27.9842 C   0  0  0  0  0  0  0  0  0  0  0  0
   10.5848  -16.4156   29.2915 O   0  0  0  0  0  0  0  0  0  0  0  0
  2  1  1  1
  2  3  1  0
  3  4  1  0
  4  5  2  0
  5  6  1  0
  7  6  2  0
  8  7  1  0
  9  4  1  0
  9  8  2  0
 10  2  1  0
 11 10  2  0
 13 12  1  0
 14 13  2  0
 15 13  1  0
 16 17  1  0
 16 15  1  0
 17 18  1  0
 19 18  1  6
 19 20  1  0
 19 21  1  0
 20 10  1  0
 21 30  1  0
 22 21  2  0
 23 24  1  0
 24 25  2  0
 24 34  1  0
 25 26  1  0
 26 27  2  0
 27 28  1  0
 29 28  1  6
 29 31  1  0
 30 29  1  0
 31 35  2  0
 31 32  1  0
 33 27  1  0
 34 33  2  0
M  END
$$$$
