HIG.pdb
     RDKit          3D

 23 23  0  0  1  0  0  0  0  0999 V2000
   10.2764  -15.8654   21.5971 N   0  0  0  0  0  0  0  0  0  0  0  0
    9.1873  -15.0551   22.1085 C   0  0  1  0  0  0  0  0  0  0  0  0
    7.9387  -15.4622   21.3676 C   0  0  0  0  0  0  0  0  0  0  0  0
    7.7924  -14.5531   20.2079 C   0  0  0  0  0  0  0  0  0  0  0  0
    8.6854  -13.5748   19.8330 C   0  0  0  0  0  0  0  0  0  0  0  0
    8.2104  -12.9438   18.7177 N   0  0  0  0  0  0  0  0  0  0  0  0
    7.0452  -13.5203   18.4074 C   0  0  0  0  0  0  0  0  0  0  0  0
    6.7952  -14.4953   19.3131 N   0  0  0  0  0  0  0  0  0  0  0  0
    9.0637  -15.1278   23.5652 C   0  0  0  0  0  0  0  0  0  0  0  0
    9.9944  -15.6321   24.2466 O   0  0  0  0  0  0  0  0  0  0  0  0
    5.9716  -11.2304   26.0028 C   0  0  0  0  0  0  0  0  0  0  0  0
    7.1209  -12.1157   25.6106 C   0  0  0  0  0  0  0  0  0  0  0  0
    6.9017  -13.4789   26.1847 C   0  0  2  0  0  0  0  0  0  0  0  0
    6.7616  -13.4837   27.6865 C   0  0  0  0  0  0  0  0  0  0  0  0
    7.9272  -14.4936   25.7249 C   0  0  2  0  0  0  0  0  0  0  0  0
    7.9391  -14.6588   24.2952 N   0  0  0  0  0  0  0  0  0  0  0  0
    7.6982  -15.8123   26.3653 C   0  0  0  0  0  0  0  0  0  0  0  0
    7.7836  -15.9049   27.6145 O   0  0  0  0  0  0  0  0  0  0  0  0
    7.3834  -16.9794   25.5998 N   0  0  0  0  0  0  0  0  0  0  0  0
    6.9942  -18.1607   26.3022 C   0  0  0  0  0  0  0  0  0  0  0  0
    8.1525  -18.8952   26.8489 C   0  0  0  0  0  0  0  0  0  0  0  0
    7.9861  -20.0606   27.5775 O   0  0  0  0  0  0  0  0  0  0  0  0
    9.3118  -18.4610   26.6534 O   0  0  0  0  0  0  0  0  0  0  0  0
  2  1  1  6
  3  2  1  0
  4  8  1  0
  4  3  1  0
  5  4  2  0
  6  5  1  0
  6  7  1  0
  7  8  2  0
  9  2  1  0
 10  9  2  0
 11 12  1  0
 13 12  1  0
 13 14  1  1
 15 13  1  0
 15 16  1  6
 16  9  1  0
 17 18  2  0
 17 15  1  0
 19 17  1  0
 20 19  1  0
 21 20  1  0
 22 21  1  0
 23 21  2  0
M  END
$$$$
