HIG.pdb
     RDKit          3D

 23 23  0  0  1  0  0  0  0  0999 V2000
   10.1106  -15.0905   21.2092 N   0  0  0  0  0  0  0  0  0  0  0  0
    8.9062  -14.5560   21.8157 C   0  0  1  0  0  0  0  0  0  0  0  0
    7.7313  -15.1762   21.1026 C   0  0  0  0  0  0  0  0  0  0  0  0
    7.6640  -14.5770   19.7502 C   0  0  0  0  0  0  0  0  0  0  0  0
    8.2475  -13.3914   19.3639 C   0  0  0  0  0  0  0  0  0  0  0  0
    7.9676  -13.1677   18.0451 N   0  0  0  0  0  0  0  0  0  0  0  0
    7.2249  -14.1952   17.6222 C   0  0  0  0  0  0  0  0  0  0  0  0
    7.0430  -15.0474   18.6586 N   0  0  0  0  0  0  0  0  0  0  0  0
    8.8788  -14.7312   23.2687 C   0  0  0  0  0  0  0  0  0  0  0  0
    9.8382  -15.3056   23.8467 O   0  0  0  0  0  0  0  0  0  0  0  0
    6.1014  -11.0460   26.3242 C   0  0  0  0  0  0  0  0  0  0  0  0
    7.1976  -11.9238   25.7893 C   0  0  0  0  0  0  0  0  0  0  0  0
    6.9245  -13.3389   26.1877 C   0  0  2  0  0  0  0  0  0  0  0  0
    6.8521  -13.5402   27.6808 C   0  0  0  0  0  0  0  0  0  0  0  0
    7.8667  -14.3341   25.5439 C   0  0  2  0  0  0  0  0  0  0  0  0
    7.8198  -14.2895   24.1060 N   0  0  0  0  0  0  0  0  0  0  0  0
    7.5753  -15.7164   25.9976 C   0  0  0  0  0  0  0  0  0  0  0  0
    7.7008  -15.9960   27.2152 O   0  0  0  0  0  0  0  0  0  0  0  0
    7.1560  -16.7377   25.0876 N   0  0  0  0  0  0  0  0  0  0  0  0
    6.8314  -18.0226   25.6205 C   0  0  0  0  0  0  0  0  0  0  0  0
    8.0321  -18.8417   25.8798 C   0  0  0  0  0  0  0  0  0  0  0  0
    7.9298  -20.1319   26.3715 O   0  0  0  0  0  0  0  0  0  0  0  0
    9.1692  -18.3664   25.6526 O   0  0  0  0  0  0  0  0  0  0  0  0
  2  1  1  6
  3  2  1  0
  4  8  1  0
  4  3  1  0
  5  4  2  0
  6  5  1  0
  6  7  1  0
  7  8  2  0
  9  2  1  0
 10  9  2  0
 11 12  1  0
 13 12  1  0
 13 14  1  1
 15 13  1  0
 15 16  1  6
 16  9  1  0
 17 18  2  0
 17 15  1  0
 19 17  1  0
 20 19  1  0
 21 20  1  0
 22 21  1  0
 23 21  2  0
M  END
$$$$
