HIG.pdb
     RDKit          3D

 23 23  0  0  1  0  0  0  0  0999 V2000
    8.0639  -15.9730   21.5950 N   0  0  0  0  0  0  0  0  0  0  0  0
    8.5658  -14.6120   21.5929 C   0  0  1  0  0  0  0  0  0  0  0  0
    7.5366  -13.7553   20.8999 C   0  0  0  0  0  0  0  0  0  0  0  0
    7.5993  -14.0658   19.4534 C   0  0  0  0  0  0  0  0  0  0  0  0
    8.5088  -13.5512   18.5572 C   0  0  0  0  0  0  0  0  0  0  0  0
    8.2530  -14.0684   17.3184 N   0  0  0  0  0  0  0  0  0  0  0  0
    7.2048  -14.8880   17.4446 C   0  0  0  0  0  0  0  0  0  0  0  0
    6.8114  -14.8837   18.7402 N   0  0  0  0  0  0  0  0  0  0  0  0
    8.9276  -14.1404   22.9305 C   0  0  0  0  0  0  0  0  0  0  0  0
    9.8218  -13.2644   23.0632 O   0  0  0  0  0  0  0  0  0  0  0  0
    5.5985  -12.1627   26.3752 C   0  0  0  0  0  0  0  0  0  0  0  0
    6.8460  -12.4803   25.5999 C   0  0  0  0  0  0  0  0  0  0  0  0
    7.5369  -13.6389   26.2450 C   0  0  2  0  0  0  0  0  0  0  0  0
    7.9233  -13.3853   27.6808 C   0  0  0  0  0  0  0  0  0  0  0  0
    8.7119  -14.1571   25.4428 C   0  0  2  0  0  0  0  0  0  0  0  0
    8.3294  -14.6087   24.1308 N   0  0  0  0  0  0  0  0  0  0  0  0
    9.4004  -15.2611   26.1559 C   0  0  0  0  0  0  0  0  0  0  0  0
    9.9409  -15.0255   27.2645 O   0  0  0  0  0  0  0  0  0  0  0  0
    9.4654  -16.5845   25.6162 N   0  0  0  0  0  0  0  0  0  0  0  0
   10.1980  -17.5728   26.3423 C   0  0  0  0  0  0  0  0  0  0  0  0
    9.3171  -18.4554   27.1327 C   0  0  0  0  0  0  0  0  0  0  0  0
    9.5743  -19.8108   27.2488 O   0  0  0  0  0  0  0  0  0  0  0  0
    8.3152  -17.9752   27.7126 O   0  0  0  0  0  0  0  0  0  0  0  0
  2  1  1  1
  3  2  1  0
  4  8  1  0
  4  3  1  0
  5  4  2  0
  6  5  1  0
  6  7  1  0
  7  8  2  0
  9  2  1  0
 10  9  2  0
 11 12  1  0
 13 12  1  0
 13 14  1  1
 15 13  1  0
 15 16  1  6
 16  9  1  0
 17 18  2  0
 17 15  1  0
 19 17  1  0
 20 19  1  0
 21 20  1  0
 22 21  1  0
 23 21  2  0
M  END
$$$$
