HIG.pdb
     RDKit          3D

 23 23  0  0  1  0  0  0  0  0999 V2000
    7.9122  -15.6785   20.5240 N   0  0  0  0  0  0  0  0  0  0  0  0
    7.3597  -16.1108   21.7936 C   0  0  1  0  0  0  0  0  0  0  0  0
    7.3133  -17.6178   21.7732 C   0  0  0  0  0  0  0  0  0  0  0  0
    6.3133  -18.0190   20.7575 C   0  0  0  0  0  0  0  0  0  0  0  0
    4.9527  -18.0959   20.9524 C   0  0  0  0  0  0  0  0  0  0  0  0
    4.3597  -18.5006   19.7896 N   0  0  0  0  0  0  0  0  0  0  0  0
    5.3343  -18.6712   18.8912 C   0  0  0  0  0  0  0  0  0  0  0  0
    6.5171  -18.3783   19.4817 N   0  0  0  0  0  0  0  0  0  0  0  0
    8.0774  -15.5543   22.9417 C   0  0  0  0  0  0  0  0  0  0  0  0
    9.3282  -15.4212   22.8916 O   0  0  0  0  0  0  0  0  0  0  0  0
    5.9421  -11.8257   26.0586 C   0  0  0  0  0  0  0  0  0  0  0  0
    7.0328  -12.5537   25.3247 C   0  0  0  0  0  0  0  0  0  0  0  0
    7.4824  -13.7158   26.1513 C   0  0  2  0  0  0  0  0  0  0  0  0
    8.3031  -13.3178   27.3525 C   0  0  0  0  0  0  0  0  0  0  0  0
    8.1764  -14.7918   25.3432 C   0  0  2  0  0  0  0  0  0  0  0  0
    7.4532  -15.1388   24.1481 N   0  0  0  0  0  0  0  0  0  0  0  0
    8.3905  -16.0153   26.1549 C   0  0  0  0  0  0  0  0  0  0  0  0
    7.3953  -16.5959   26.6540 O   0  0  0  0  0  0  0  0  0  0  0  0
    9.6972  -16.5507   26.3843 N   0  0  0  0  0  0  0  0  0  0  0  0
    9.8056  -17.7714   27.1182 C   0  0  0  0  0  0  0  0  0  0  0  0
   10.2834  -17.5554   28.4983 C   0  0  0  0  0  0  0  0  0  0  0  0
   10.4418  -18.6126   29.3781 O   0  0  0  0  0  0  0  0  0  0  0  0
   10.5527  -16.3951   28.8879 O   0  0  0  0  0  0  0  0  0  0  0  0
  2  1  1  6
  3  2  1  0
  4  8  1  0
  4  3  1  0
  5  4  2  0
  6  5  1  0
  6  7  1  0
  7  8  2  0
  9  2  1  0
 10  9  2  0
 11 12  1  0
 13 12  1  0
 13 14  1  1
 15 13  1  0
 15 16  1  6
 16  9  1  0
 17 18  2  0
 17 15  1  0
 19 17  1  0
 20 19  1  0
 21 20  1  0
 22 21  1  0
 23 21  2  0
M  END
$$$$
