HIG.pdb
     RDKit          3D

 23 23  0  0  1  0  0  0  0  0999 V2000
    8.0387  -15.6666   20.6412 N   0  0  0  0  0  0  0  0  0  0  0  0
    8.0174  -16.2986   21.9467 C   0  0  1  0  0  0  0  0  0  0  0  0
    8.6268  -17.6691   21.7920 C   0  0  0  0  0  0  0  0  0  0  0  0
    7.8147  -18.4082   20.7987 C   0  0  0  0  0  0  0  0  0  0  0  0
    6.4501  -18.5849   20.8442 C   0  0  0  0  0  0  0  0  0  0  0  0
    6.0608  -19.3179   19.7585 N   0  0  0  0  0  0  0  0  0  0  0  0
    7.1631  -19.5902   19.0536 C   0  0  0  0  0  0  0  0  0  0  0  0
    8.2242  -19.0371   19.6872 N   0  0  0  0  0  0  0  0  0  0  0  0
    8.6514  -15.4803   22.9817 C   0  0  0  0  0  0  0  0  0  0  0  0
    9.6890  -14.8218   22.7088 O   0  0  0  0  0  0  0  0  0  0  0  0
    5.5942  -12.5265   26.2727 C   0  0  0  0  0  0  0  0  0  0  0  0
    6.7534  -12.9036   25.3939 C   0  0  0  0  0  0  0  0  0  0  0  0
    7.6604  -13.8188   26.1526 C   0  0  2  0  0  0  0  0  0  0  0  0
    8.2634  -13.1851   27.3814 C   0  0  0  0  0  0  0  0  0  0  0  0
    8.7239  -14.4602   25.2866 C   0  0  2  0  0  0  0  0  0  0  0  0
    8.1724  -15.3668   24.3141 N   0  0  0  0  0  0  0  0  0  0  0  0
    9.7225  -15.1820   26.1134 C   0  0  0  0  0  0  0  0  0  0  0  0
   10.4708  -14.5230   26.8764 O   0  0  0  0  0  0  0  0  0  0  0  0
    9.8560  -16.6056   26.0652 N   0  0  0  0  0  0  0  0  0  0  0  0
   10.8729  -17.2141   26.8627 C   0  0  0  0  0  0  0  0  0  0  0  0
   10.3202  -17.9048   28.0447 C   0  0  0  0  0  0  0  0  0  0  0  0
   11.1478  -18.4909   28.9872 O   0  0  0  0  0  0  0  0  0  0  0  0
    9.0786  -17.9656   28.2045 O   0  0  0  0  0  0  0  0  0  0  0  0
  2  1  1  6
  3  2  1  0
  4  8  1  0
  4  3  1  0
  5  4  2  0
  6  5  1  0
  6  7  1  0
  7  8  2  0
  9  2  1  0
 10  9  2  0
 11 12  1  0
 13 12  1  0
 13 14  1  1
 15 13  1  0
 15 16  1  6
 16  9  1  0
 17 18  2  0
 17 15  1  0
 19 17  1  0
 20 19  1  0
 21 20  1  0
 22 21  1  0
 23 21  2  0
M  END
$$$$
