HIG.pdb
     RDKit          3D

 23 23  0  0  1  0  0  0  0  0999 V2000
    8.3895  -18.6128   27.6350 N   0  0  0  0  0  0  0  0  0  0  0  0
    8.7106  -17.2140   27.4247 C   0  0  1  0  0  0  0  0  0  0  0  0
   10.2136  -17.0940   27.4214 C   0  0  0  0  0  0  0  0  0  0  0  0
   10.5852  -16.1213   28.4743 C   0  0  0  0  0  0  0  0  0  0  0  0
   10.4304  -14.7554   28.4006 C   0  0  0  0  0  0  0  0  0  0  0  0
   10.8855  -14.1937   29.5604 N   0  0  0  0  0  0  0  0  0  0  0  0
   11.3142  -15.1927   30.3379 C   0  0  0  0  0  0  0  0  0  0  0  0
   11.1305  -16.3596   29.6761 N   0  0  0  0  0  0  0  0  0  0  0  0
    8.0681  -16.6593   26.2321 C   0  0  0  0  0  0  0  0  0  0  0  0
    7.6223  -17.4337   25.3454 O   0  0  0  0  0  0  0  0  0  0  0  0
    7.0090  -11.0011   25.6182 C   0  0  0  0  0  0  0  0  0  0  0  0
    7.6751  -12.3283   25.3877 C   0  0  0  0  0  0  0  0  0  0  0  0
    6.6251  -13.3586   25.1195 C   0  0  2  0  0  0  0  0  0  0  0  0
    5.5448  -13.4043   26.1710 C   0  0  0  0  0  0  0  0  0  0  0  0
    7.1932  -14.7369   24.8546 C   0  0  2  0  0  0  0  0  0  0  0  0
    7.9024  -15.2698   25.9881 N   0  0  0  0  0  0  0  0  0  0  0  0
    8.0960  -14.7255   23.6772 C   0  0  0  0  0  0  0  0  0  0  0  0
    7.6113  -14.4990   22.5413 O   0  0  0  0  0  0  0  0  0  0  0  0
    9.5011  -14.9650   23.8002 N   0  0  0  0  0  0  0  0  0  0  0  0
   10.3100  -14.8442   22.6291 C   0  0  0  0  0  0  0  0  0  0  0  0
   10.8602  -16.1425   22.1913 C   0  0  0  0  0  0  0  0  0  0  0  0
   11.8245  -16.2174   21.2008 O   0  0  0  0  0  0  0  0  0  0  0  0
   10.4509  -17.2013   22.7223 O   0  0  0  0  0  0  0  0  0  0  0  0
  2  1  1  6
  3  2  1  0
  4  8  1  0
  4  3  1  0
  5  4  2  0
  6  5  1  0
  6  7  1  0
  7  8  2  0
  9  2  1  0
 10  9  2  0
 11 12  1  0
 13 12  1  0
 13 14  1  1
 15 13  1  0
 15 16  1  1
 16  9  1  0
 17 18  2  0
 17 15  1  0
 19 17  1  0
 20 19  1  0
 21 20  1  0
 22 21  1  0
 23 21  2  0
M  END
$$$$
