HIG.pdb
     RDKit          3D

 23 23  0  0  1  0  0  0  0  0999 V2000
   10.1121  -14.5901   21.1195 N   0  0  0  0  0  0  0  0  0  0  0  0
    8.7898  -14.3928   21.6821 C   0  0  1  0  0  0  0  0  0  0  0  0
    7.8214  -15.1858   20.8414 C   0  0  0  0  0  0  0  0  0  0  0  0
    7.7545  -14.5402   19.5104 C   0  0  0  0  0  0  0  0  0  0  0  0
    8.4851  -13.4449   19.1082 C   0  0  0  0  0  0  0  0  0  0  0  0
    8.1535  -13.1392   17.8182 N   0  0  0  0  0  0  0  0  0  0  0  0
    7.2348  -14.0283   17.4284 C   0  0  0  0  0  0  0  0  0  0  0  0
    6.9956  -14.8759   18.4569 N   0  0  0  0  0  0  0  0  0  0  0  0
    8.7303  -14.7059   23.1108 C   0  0  0  0  0  0  0  0  0  0  0  0
    9.6317  -15.4123   23.6334 O   0  0  0  0  0  0  0  0  0  0  0  0
    5.8300  -11.3031   26.2995 C   0  0  0  0  0  0  0  0  0  0  0  0
    6.9553  -12.1154   25.7232 C   0  0  0  0  0  0  0  0  0  0  0  0
    6.7946  -13.5394   26.1502 C   0  0  2  0  0  0  0  0  0  0  0  0
    6.9014  -13.7358   27.6418 C   0  0  0  0  0  0  0  0  0  0  0  0
    7.7023  -14.4939   25.4036 C   0  0  2  0  0  0  0  0  0  0  0  0
    7.7015  -14.2608   23.9832 N   0  0  0  0  0  0  0  0  0  0  0  0
    7.3252  -15.9048   25.6653 C   0  0  0  0  0  0  0  0  0  0  0  0
    6.1439  -16.2694   25.4460 O   0  0  0  0  0  0  0  0  0  0  0  0
    8.2688  -16.8598   26.1600 N   0  0  0  0  0  0  0  0  0  0  0  0
    7.7866  -18.1511   26.5349 C   0  0  0  0  0  0  0  0  0  0  0  0
    8.4073  -18.6411   27.7817 C   0  0  0  0  0  0  0  0  0  0  0  0
    8.1128  -19.8961   28.2864 O   0  0  0  0  0  0  0  0  0  0  0  0
    9.2175  -17.9121   28.4004 O   0  0  0  0  0  0  0  0  0  0  0  0
  2  1  1  6
  3  2  1  0
  4  8  1  0
  4  3  1  0
  5  4  2  0
  6  5  1  0
  6  7  1  0
  7  8  2  0
  9  2  1  0
 10  9  2  0
 11 12  1  0
 13 12  1  0
 13 14  1  1
 15 13  1  0
 15 16  1  6
 16  9  1  0
 17 18  2  0
 17 15  1  0
 19 17  1  0
 20 19  1  0
 21 20  1  0
 22 21  1  0
 23 21  2  0
M  END
$$$$
