HIG.pdb
     RDKit          3D

 23 23  0  0  1  0  0  0  0  0999 V2000
   10.3135  -14.4652   20.9379 N   0  0  0  0  0  0  0  0  0  0  0  0
    8.9922  -14.3452   21.5243 C   0  0  1  0  0  0  0  0  0  0  0  0
    8.0600  -15.2067   20.7105 C   0  0  0  0  0  0  0  0  0  0  0  0
    7.8589  -14.5363   19.4056 C   0  0  0  0  0  0  0  0  0  0  0  0
    8.4468  -13.3573   19.0060 C   0  0  0  0  0  0  0  0  0  0  0  0
    8.0213  -13.0546   17.7431 N   0  0  0  0  0  0  0  0  0  0  0  0
    7.1855  -14.0274   17.3673 C   0  0  0  0  0  0  0  0  0  0  0  0
    7.0896  -14.9237   18.3777 N   0  0  0  0  0  0  0  0  0  0  0  0
    8.9796  -14.6456   22.9568 C   0  0  0  0  0  0  0  0  0  0  0  0
    9.9412  -15.2740   23.4717 O   0  0  0  0  0  0  0  0  0  0  0  0
    6.0064  -11.3717   26.2489 C   0  0  0  0  0  0  0  0  0  0  0  0
    7.1047  -12.1482   25.5787 C   0  0  0  0  0  0  0  0  0  0  0  0
    7.0276  -13.5756   26.0174 C   0  0  2  0  0  0  0  0  0  0  0  0
    7.1655  -13.7548   27.5086 C   0  0  0  0  0  0  0  0  0  0  0  0
    7.9757  -14.4849   25.2644 C   0  0  2  0  0  0  0  0  0  0  0  0
    7.9331  -14.2718   23.8416 N   0  0  0  0  0  0  0  0  0  0  0  0
    7.6883  -15.9120   25.5515 C   0  0  0  0  0  0  0  0  0  0  0  0
    6.4994  -16.3137   25.5081 O   0  0  0  0  0  0  0  0  0  0  0  0
    8.7265  -16.8414   25.8758 N   0  0  0  0  0  0  0  0  0  0  0  0
    8.3500  -18.1641   26.2617 C   0  0  0  0  0  0  0  0  0  0  0  0
    8.7722  -18.4879   27.6390 C   0  0  0  0  0  0  0  0  0  0  0  0
    8.5085  -19.7261   28.1994 O   0  0  0  0  0  0  0  0  0  0  0  0
    9.3816  -17.6301   28.3197 O   0  0  0  0  0  0  0  0  0  0  0  0
  2  1  1  6
  3  2  1  0
  4  8  1  0
  4  3  1  0
  5  4  2  0
  6  5  1  0
  6  7  1  0
  7  8  2  0
  9  2  1  0
 10  9  2  0
 11 12  1  0
 13 12  1  0
 13 14  1  1
 15 13  1  0
 15 16  1  6
 16  9  1  0
 17 18  2  0
 17 15  1  0
 19 17  1  0
 20 19  1  0
 21 20  1  0
 22 21  1  0
 23 21  2  0
M  END
$$$$
