HMY.pdb
     RDKit          3D

 31 32  0  0  1  0  0  0  0  0999 V2000
   30.8035  -24.6971  -17.2774 N   0  0  0  0  0  0  0  0  0  0  0  0
   29.4666  -24.5687  -17.7678 C   0  0  1  0  0  0  0  0  0  0  0  0
   28.7928  -25.9268  -17.8224 C   0  0  0  0  0  0  0  0  0  0  0  0
   29.4253  -26.8224  -18.8010 C   0  0  0  0  0  0  0  0  0  0  0  0
   29.9516  -28.0576  -18.5181 C   0  0  0  0  0  0  0  0  0  0  0  0
   30.4300  -28.5619  -19.6495 N   0  0  0  0  0  0  0  0  0  0  0  0
   30.2056  -27.6575  -20.6181 C   0  0  0  0  0  0  0  0  0  0  0  0
   29.5861  -26.5800  -20.1057 N   0  0  0  0  0  0  0  0  0  0  0  0
   28.6283  -23.6521  -16.9920 C   0  0  0  0  0  0  0  0  0  0  0  0
   28.5898  -23.7041  -15.7388 O   0  0  0  0  0  0  0  0  0  0  0  0
   30.2669  -19.1108  -17.9313 C   0  0  0  0  0  0  0  0  0  0  0  0
   29.2192  -19.3136  -16.4872 S   0  0  0  0  0  0  0  0  0  0  0  0
   27.4992  -19.2219  -16.8883 C   0  0  0  0  0  0  0  0  0  0  0  0
   26.7046  -20.4058  -17.1894 C   0  0  0  0  0  0  0  0  0  0  0  0
   26.9823  -21.7718  -16.8023 C   0  0  2  0  0  0  0  0  0  0  0  0
   27.7883  -22.6262  -17.6099 N   0  0  0  0  0  0  0  0  0  0  0  0
   25.6577  -22.4808  -16.5860 C   0  0  0  0  0  0  0  0  0  0  0  0
   25.0633  -23.0249  -17.5514 O   0  0  0  0  0  0  0  0  0  0  0  0
   18.5126  -25.7692  -12.4039 O   0  0  0  0  0  0  0  0  0  0  0  0
   19.7319  -25.1760  -12.7143 C   0  0  0  0  0  0  0  0  0  0  0  0
   19.9325  -23.8101  -12.6795 C   0  0  0  0  0  0  0  0  0  0  0  0
   21.1573  -23.2424  -12.9933 C   0  0  0  0  0  0  0  0  0  0  0  0
   22.2190  -24.0569  -13.3539 C   0  0  0  0  0  0  0  0  0  0  0  0
   23.5284  -23.4925  -13.6941 C   0  0  0  0  0  0  0  0  0  0  0  0
   23.7321  -23.2507  -15.1717 C   0  0  2  0  0  0  0  0  0  0  0  0
   25.0302  -22.5712  -15.3271 N   0  0  0  0  0  0  0  0  0  0  0  0
   22.6523  -22.4584  -15.7958 C   0  0  0  0  0  0  0  0  0  0  0  0
   22.6457  -21.2096  -15.6880 O   0  0  0  0  0  0  0  0  0  0  0  0
   21.9909  -25.4193  -13.3805 C   0  0  0  0  0  0  0  0  0  0  0  0
   20.7795  -25.9964  -13.0711 C   0  0  0  0  0  0  0  0  0  0  0  0
   21.6258  -23.0573  -16.5104 O   0  0  0  0  0  0  0  0  0  0  0  0
  2  1  1  1
  2  3  1  0
  3  4  1  0
  4  8  1  0
  5  6  1  0
  5  4  2  0
  6  7  1  0
  7  8  2  0
  9  2  1  0
  9 10  2  0
 12 11  1  0
 13 12  1  0
 14 13  1  0
 15 14  1  6
 15 16  1  0
 16  9  1  0
 17 26  1  0
 17 15  1  0
 18 17  2  0
 20 19  1  0
 20 30  2  0
 21 20  1  0
 22 21  2  0
 22 23  1  0
 23 29  2  0
 24 23  1  0
 25 24  1  1
 25 26  1  0
 25 27  1  0
 27 31  1  0
 28 27  2  0
 29 30  1  0
M  END
$$$$
