HMY.pdb
     RDKit          3D

 31 32  0  0  1  0  0  0  0  0999 V2000
   26.1096  -22.1816  -17.4027 N   0  0  0  0  0  0  0  0  0  0  0  0
   24.9570  -21.4152  -17.0441 C   0  0  1  0  0  0  0  0  0  0  0  0
   23.9341  -21.4469  -18.1639 C   0  0  0  0  0  0  0  0  0  0  0  0
   24.4584  -20.8758  -19.4125 C   0  0  0  0  0  0  0  0  0  0  0  0
   24.2751  -19.5811  -19.8281 C   0  0  0  0  0  0  0  0  0  0  0  0
   24.8931  -19.4398  -20.9949 N   0  0  0  0  0  0  0  0  0  0  0  0
   25.4504  -20.6243  -21.2994 C   0  0  0  0  0  0  0  0  0  0  0  0
   25.1885  -21.5179  -20.3297 N   0  0  0  0  0  0  0  0  0  0  0  0
   24.3145  -21.8439  -15.7999 C   0  0  0  0  0  0  0  0  0  0  0  0
   24.0390  -23.0499  -15.5888 O   0  0  0  0  0  0  0  0  0  0  0  0
   23.7138  -21.8092   -7.9664 C   0  0  0  0  0  0  0  0  0  0  0  0
   24.4660  -21.1027   -9.4358 S   0  0  0  0  0  0  0  0  0  0  0  0
   23.6115  -21.5627  -10.9142 C   0  0  0  0  0  0  0  0  0  0  0  0
   24.0454  -21.1238  -12.2343 C   0  0  0  0  0  0  0  0  0  0  0  0
   23.4111  -21.4011  -13.5046 C   0  0  2  0  0  0  0  0  0  0  0  0
   23.9525  -20.9143  -14.7301 N   0  0  0  0  0  0  0  0  0  0  0  0
   21.9730  -20.9212  -13.4300 C   0  0  0  0  0  0  0  0  0  0  0  0
   21.7095  -19.6928  -13.4841 O   0  0  0  0  0  0  0  0  0  0  0  0
   20.0392  -19.9560  -19.4402 O   0  0  0  0  0  0  0  0  0  0  0  0
   19.6816  -20.4069  -18.1739 C   0  0  0  0  0  0  0  0  0  0  0  0
   18.6647  -19.8366  -17.4336 C   0  0  0  0  0  0  0  0  0  0  0  0
   18.3268  -20.3038  -16.1733 C   0  0  0  0  0  0  0  0  0  0  0  0
   19.0208  -21.3726  -15.6288 C   0  0  0  0  0  0  0  0  0  0  0  0
   18.6929  -21.8929  -14.2982 C   0  0  0  0  0  0  0  0  0  0  0  0
   19.5013  -21.2798  -13.1784 C   0  0  2  0  0  0  0  0  0  0  0  0
   20.8758  -21.7965  -13.2998 N   0  0  0  0  0  0  0  0  0  0  0  0
   18.9570  -21.5602  -11.8337 C   0  0  0  0  0  0  0  0  0  0  0  0
   17.8142  -21.1519  -11.5201 O   0  0  0  0  0  0  0  0  0  0  0  0
   20.0329  -21.9242  -16.3905 C   0  0  0  0  0  0  0  0  0  0  0  0
   20.3789  -21.4700  -17.6437 C   0  0  0  0  0  0  0  0  0  0  0  0
   19.6781  -22.2725  -10.8872 O   0  0  0  0  0  0  0  0  0  0  0  0
  2  1  1  6
  2  3  1  0
  3  4  1  0
  4  8  1  0
  5  6  1  0
  5  4  2  0
  6  7  1  0
  7  8  2  0
  9  2  1  0
  9 10  2  0
 12 11  1  0
 13 12  1  0
 14 13  1  0
 15 14  1  1
 15 16  1  0
 16  9  1  0
 17 26  1  0
 17 15  1  0
 18 17  2  0
 20 19  1  0
 20 30  2  0
 21 20  1  0
 22 21  2  0
 22 23  1  0
 23 29  2  0
 24 23  1  0
 25 24  1  6
 25 26  1  0
 25 27  1  0
 27 31  1  0
 28 27  2  0
 29 30  1  0
M  END
$$$$
