HMY.pdb
     RDKit          3D

 31 32  0  0  1  0  0  0  0  0999 V2000
   28.5115  -21.7035  -15.9748 N   0  0  0  0  0  0  0  0  0  0  0  0
   27.8234  -20.6320  -15.3245 C   0  0  1  0  0  0  0  0  0  0  0  0
   27.1746  -19.7227  -16.3509 C   0  0  0  0  0  0  0  0  0  0  0  0
   28.1285  -18.7645  -16.9269 C   0  0  0  0  0  0  0  0  0  0  0  0
   28.1924  -17.4292  -16.6176 C   0  0  0  0  0  0  0  0  0  0  0  0
   29.1747  -16.8950  -17.3338 N   0  0  0  0  0  0  0  0  0  0  0  0
   29.7119  -17.8794  -18.0746 C   0  0  0  0  0  0  0  0  0  0  0  0
   29.0739  -19.0375  -17.8315 N   0  0  0  0  0  0  0  0  0  0  0  0
   26.8074  -21.0668  -14.3635 C   0  0  0  0  0  0  0  0  0  0  0  0
   26.0920  -22.0747  -14.5804 O   0  0  0  0  0  0  0  0  0  0  0  0
   29.6157  -21.4399   -9.1788 C   0  0  0  0  0  0  0  0  0  0  0  0
   28.2947  -21.5837  -10.3865 S   0  0  0  0  0  0  0  0  0  0  0  0
   26.8309  -20.7276   -9.8846 C   0  0  0  0  0  0  0  0  0  0  0  0
   25.6785  -20.5726  -10.7630 C   0  0  0  0  0  0  0  0  0  0  0  0
   25.6019  -20.8816  -12.1742 C   0  0  2  0  0  0  0  0  0  0  0  0
   26.5557  -20.3704  -13.1020 N   0  0  0  0  0  0  0  0  0  0  0  0
   24.2285  -20.4718  -12.6743 C   0  0  0  0  0  0  0  0  0  0  0  0
   24.1159  -19.6596  -13.6278 O   0  0  0  0  0  0  0  0  0  0  0  0
   17.2197  -20.5561  -17.3540 O   0  0  0  0  0  0  0  0  0  0  0  0
   18.3515  -20.7499  -16.5689 C   0  0  0  0  0  0  0  0  0  0  0  0
   18.5201  -21.8523  -15.7543 C   0  0  0  0  0  0  0  0  0  0  0  0
   19.6574  -22.0232  -14.9808 C   0  0  0  0  0  0  0  0  0  0  0  0
   20.6613  -21.0685  -15.0164 C   0  0  0  0  0  0  0  0  0  0  0  0
   21.8774  -21.2143  -14.2110 C   0  0  0  0  0  0  0  0  0  0  0  0
   21.7348  -20.7369  -12.7845 C   0  0  2  0  0  0  0  0  0  0  0  0
   23.0296  -20.9619  -12.1182 N   0  0  0  0  0  0  0  0  0  0  0  0
   20.6453  -21.4052  -12.0432 C   0  0  0  0  0  0  0  0  0  0  0  0
   19.5695  -20.8000  -11.8252 O   0  0  0  0  0  0  0  0  0  0  0  0
   20.4670  -19.9761  -15.8396 C   0  0  0  0  0  0  0  0  0  0  0  0
   19.3424  -19.7939  -16.6131 C   0  0  0  0  0  0  0  0  0  0  0  0
   20.7716  -22.7027  -11.5704 O   0  0  0  0  0  0  0  0  0  0  0  0
  2  1  1  6
  2  3  1  0
  3  4  1  0
  4  8  1  0
  5  6  1  0
  5  4  2  0
  6  7  1  0
  7  8  2  0
  9  2  1  0
  9 10  2  0
 12 11  1  0
 13 12  1  0
 14 13  1  0
 15 14  1  1
 15 16  1  0
 16  9  1  0
 17 26  1  0
 17 15  1  0
 18 17  2  0
 20 19  1  0
 20 30  2  0
 21 20  1  0
 22 21  2  0
 22 23  1  0
 23 29  2  0
 24 23  1  0
 25 24  1  6
 25 26  1  0
 25 27  1  0
 27 31  1  0
 28 27  2  0
 29 30  1  0
M  END
$$$$
