HMY.pdb
     RDKit          3D

 31 32  0  0  1  0  0  0  0  0999 V2000
   27.7313  -21.2497  -15.0045 N   0  0  0  0  0  0  0  0  0  0  0  0
   27.3025  -20.3120  -14.0139 C   0  0  1  0  0  0  0  0  0  0  0  0
   26.5827  -19.1475  -14.6674 C   0  0  0  0  0  0  0  0  0  0  0  0
   27.4400  -18.4274  -15.6194 C   0  0  0  0  0  0  0  0  0  0  0  0
   27.2330  -18.3578  -16.9741 C   0  0  0  0  0  0  0  0  0  0  0  0
   28.2091  -17.6236  -17.4949 N   0  0  0  0  0  0  0  0  0  0  0  0
   29.0083  -17.2435  -16.4834 C   0  0  0  0  0  0  0  0  0  0  0  0
   28.5431  -17.7339  -15.3213 N   0  0  0  0  0  0  0  0  0  0  0  0
   26.4393  -20.8850  -12.9788 C   0  0  0  0  0  0  0  0  0  0  0  0
   25.5338  -21.7057  -13.2640 O   0  0  0  0  0  0  0  0  0  0  0  0
   26.9742  -19.2948   -6.6706 C   0  0  0  0  0  0  0  0  0  0  0  0
   27.8918  -20.7781   -7.0970 S   0  0  0  0  0  0  0  0  0  0  0  0
   27.3174  -21.5135   -8.5993 C   0  0  0  0  0  0  0  0  0  0  0  0
   26.0312  -21.1713   -9.1929 C   0  0  0  0  0  0  0  0  0  0  0  0
   25.6942  -21.1374  -10.5994 C   0  0  2  0  0  0  0  0  0  0  0  0
   26.5665  -20.5488  -11.5609 N   0  0  0  0  0  0  0  0  0  0  0  0
   24.3446  -20.4585  -10.7462 C   0  0  0  0  0  0  0  0  0  0  0  0
   24.2545  -19.2054  -10.6916 O   0  0  0  0  0  0  0  0  0  0  0  0
   17.8970  -16.9986  -15.0027 O   0  0  0  0  0  0  0  0  0  0  0  0
   18.9706  -17.6613  -14.4168 C   0  0  0  0  0  0  0  0  0  0  0  0
   19.7496  -17.0982  -13.4252 C   0  0  0  0  0  0  0  0  0  0  0  0
   20.8146  -17.7788  -12.8566 C   0  0  0  0  0  0  0  0  0  0  0  0
   21.1174  -19.0611  -13.2860 C   0  0  0  0  0  0  0  0  0  0  0  0
   22.2371  -19.8110  -12.7094 C   0  0  0  0  0  0  0  0  0  0  0  0
   21.9193  -20.4816  -11.3931 C   0  0  2  0  0  0  0  0  0  0  0  0
   23.1439  -21.1690  -10.9474 N   0  0  0  0  0  0  0  0  0  0  0  0
   20.7890  -21.4302  -11.4702 C   0  0  0  0  0  0  0  0  0  0  0  0
   20.9638  -22.5800  -11.9376 O   0  0  0  0  0  0  0  0  0  0  0  0
   20.3222  -19.6004  -14.2789 C   0  0  0  0  0  0  0  0  0  0  0  0
   19.2613  -18.9355  -14.8522 C   0  0  0  0  0  0  0  0  0  0  0  0
   19.5171  -21.0885  -11.0361 O   0  0  0  0  0  0  0  0  0  0  0  0
  2  1  1  6
  2  3  1  0
  3  4  1  0
  4  8  1  0
  5  6  1  0
  5  4  2  0
  6  7  1  0
  7  8  2  0
  9  2  1  0
  9 10  2  0
 12 11  1  0
 13 12  1  0
 14 13  1  0
 15 14  1  1
 15 16  1  0
 16  9  1  0
 17 26  1  0
 17 15  1  0
 18 17  2  0
 20 19  1  0
 20 30  2  0
 21 20  1  0
 22 21  2  0
 22 23  1  0
 23 29  2  0
 24 23  1  0
 25 24  1  6
 25 26  1  0
 25 27  1  0
 27 31  1  0
 28 27  2  0
 29 30  1  0
M  END
$$$$
