HMY.pdb
     RDKit          3D

 31 32  0  0  1  0  0  0  0  0999 V2000
   24.0841  -18.4907  -17.0571 N   0  0  0  0  0  0  0  0  0  0  0  0
   24.5527  -18.0566  -15.7779 C   0  0  1  0  0  0  0  0  0  0  0  0
   24.1245  -16.6246  -15.5182 C   0  0  0  0  0  0  0  0  0  0  0  0
   24.6163  -15.7012  -16.5503 C   0  0  0  0  0  0  0  0  0  0  0  0
   25.9096  -15.2569  -16.6626 C   0  0  0  0  0  0  0  0  0  0  0  0
   25.9678  -14.4429  -17.7102 N   0  0  0  0  0  0  0  0  0  0  0  0
   24.7340  -14.3821  -18.2396 C   0  0  0  0  0  0  0  0  0  0  0  0
   23.8919  -15.1548  -17.5318 N   0  0  0  0  0  0  0  0  0  0  0  0
   24.1122  -18.8954  -14.6611 C   0  0  0  0  0  0  0  0  0  0  0  0
   22.8969  -19.1432  -14.4699 O   0  0  0  0  0  0  0  0  0  0  0  0
   24.2307  -24.6900  -15.2095 C   0  0  0  0  0  0  0  0  0  0  0  0
   24.3196  -24.7608  -13.4175 S   0  0  0  0  0  0  0  0  0  0  0  0
   24.2375  -23.1564  -12.6780 C   0  0  0  0  0  0  0  0  0  0  0  0
   24.6717  -21.9530  -13.3759 C   0  0  0  0  0  0  0  0  0  0  0  0
   24.6276  -20.5913  -12.8894 C   0  0  2  0  0  0  0  0  0  0  0  0
   25.0399  -19.4955  -13.7026 N   0  0  0  0  0  0  0  0  0  0  0  0
   25.4328  -20.5216  -11.6046 C   0  0  0  0  0  0  0  0  0  0  0  0
   26.5509  -19.9466  -11.5860 O   0  0  0  0  0  0  0  0  0  0  0  0
   29.1865  -18.8352   -4.1672 O   0  0  0  0  0  0  0  0  0  0  0  0
   28.4301  -19.0404   -5.3164 C   0  0  0  0  0  0  0  0  0  0  0  0
   27.1075  -19.4365   -5.2836 C   0  0  0  0  0  0  0  0  0  0  0  0
   26.3744  -19.6346   -6.4430 C   0  0  0  0  0  0  0  0  0  0  0  0
   26.9731  -19.4332   -7.6764 C   0  0  0  0  0  0  0  0  0  0  0  0
   26.2301  -19.6345   -8.9238 C   0  0  0  0  0  0  0  0  0  0  0  0
   25.8492  -21.0722   -9.1912 C   0  0  2  0  0  0  0  0  0  0  0  0
   24.9903  -21.0800  -10.3883 N   0  0  0  0  0  0  0  0  0  0  0  0
   25.1645  -21.7237   -8.0554 C   0  0  0  0  0  0  0  0  0  0  0  0
   23.9174  -21.6560   -7.9502 O   0  0  0  0  0  0  0  0  0  0  0  0
   28.2968  -19.0373   -7.6803 C   0  0  0  0  0  0  0  0  0  0  0  0
   29.0367  -18.8368   -6.5363 C   0  0  0  0  0  0  0  0  0  0  0  0
   25.8647  -22.4210   -7.0824 O   0  0  0  0  0  0  0  0  0  0  0  0
  2  1  1  6
  2  3  1  0
  3  4  1  0
  4  8  1  0
  5  6  1  0
  5  4  2  0
  6  7  1  0
  7  8  2  0
  9  2  1  0
  9 10  2  0
 12 11  1  0
 13 12  1  0
 14 13  1  0
 15 14  1  6
 15 16  1  0
 16  9  1  0
 17 26  1  0
 17 15  1  0
 18 17  2  0
 20 19  1  0
 20 30  2  0
 21 20  1  0
 22 21  2  0
 22 23  1  0
 23 29  2  0
 24 23  1  0
 25 24  1  1
 25 26  1  0
 25 27  1  0
 27 31  1  0
 28 27  2  0
 29 30  1  0
M  END
$$$$
