HMY.pdb
     RDKit          3D

 31 32  0  0  1  0  0  0  0  0999 V2000
   28.0990  -21.6785  -16.8889 N   0  0  0  0  0  0  0  0  0  0  0  0
   27.6901  -20.6405  -15.9947 C   0  0  1  0  0  0  0  0  0  0  0  0
   27.0514  -19.5014  -16.7667 C   0  0  0  0  0  0  0  0  0  0  0  0
   28.0097  -18.8222  -17.6500 C   0  0  0  0  0  0  0  0  0  0  0  0
   29.3148  -18.5408  -17.3334 C   0  0  0  0  0  0  0  0  0  0  0  0
   29.8601  -17.9260  -18.3765 N   0  0  0  0  0  0  0  0  0  0  0  0
   28.9122  -17.8269  -19.3241 C   0  0  0  0  0  0  0  0  0  0  0  0
   27.7661  -18.3766  -18.8865 N   0  0  0  0  0  0  0  0  0  0  0  0
   26.7679  -21.0808  -14.9457 C   0  0  0  0  0  0  0  0  0  0  0  0
   25.8870  -21.9457  -15.1711 O   0  0  0  0  0  0  0  0  0  0  0  0
   24.2489  -21.2702   -7.2932 C   0  0  0  0  0  0  0  0  0  0  0  0
   25.5553  -20.7549   -8.4121 S   0  0  0  0  0  0  0  0  0  0  0  0
   25.1718  -21.1128  -10.1010 C   0  0  0  0  0  0  0  0  0  0  0  0
   26.0728  -20.7713  -11.1943 C   0  0  0  0  0  0  0  0  0  0  0  0
   25.8710  -21.0120  -12.6065 C   0  0  2  0  0  0  0  0  0  0  0  0
   26.8045  -20.5540  -13.5816 N   0  0  0  0  0  0  0  0  0  0  0  0
   24.5129  -20.4545  -12.9921 C   0  0  0  0  0  0  0  0  0  0  0  0
   24.4258  -19.3563  -13.5985 O   0  0  0  0  0  0  0  0  0  0  0  0
   17.2366  -18.6834  -17.0204 O   0  0  0  0  0  0  0  0  0  0  0  0
   18.4057  -19.1622  -16.4382 C   0  0  0  0  0  0  0  0  0  0  0  0
   18.5805  -20.4856  -16.0844 C   0  0  0  0  0  0  0  0  0  0  0  0
   19.7552  -20.9389  -15.5053 C   0  0  0  0  0  0  0  0  0  0  0  0
   20.7915  -20.0497  -15.2690 C   0  0  0  0  0  0  0  0  0  0  0  0
   22.0477  -20.4921  -14.6568 C   0  0  0  0  0  0  0  0  0  0  0  0
   22.0097  -20.5595  -13.1477 C   0  0  2  0  0  0  0  0  0  0  0  0
   23.3007  -21.1136  -12.7036 N   0  0  0  0  0  0  0  0  0  0  0  0
   20.8889  -21.3645  -12.6196 C   0  0  0  0  0  0  0  0  0  0  0  0
   21.0336  -22.5948  -12.4282 O   0  0  0  0  0  0  0  0  0  0  0  0
   20.5901  -18.7321  -15.6326 C   0  0  0  0  0  0  0  0  0  0  0  0
   19.4285  -18.2684  -16.2086 C   0  0  0  0  0  0  0  0  0  0  0  0
   19.6586  -20.7980  -12.3222 O   0  0  0  0  0  0  0  0  0  0  0  0
  2  1  1  6
  2  3  1  0
  3  4  1  0
  4  8  1  0
  5  6  1  0
  5  4  2  0
  6  7  1  0
  7  8  2  0
  9  2  1  0
  9 10  2  0
 12 11  1  0
 13 12  1  0
 14 13  1  0
 15 14  1  1
 15 16  1  0
 16  9  1  0
 17 26  1  0
 17 15  1  0
 18 17  2  0
 20 19  1  0
 20 30  2  0
 21 20  1  0
 22 21  2  0
 22 23  1  0
 23 29  2  0
 24 23  1  0
 25 24  1  6
 25 26  1  0
 25 27  1  0
 27 31  1  0
 28 27  2  0
 29 30  1  0
M  END
$$$$
