DTL.pdb
     RDKit          3D

 24 23  0  0  1  0  0  0  0  0999 V2000
   16.7529  -10.8353  -17.2907 N   0  0  0  0  0  0  0  0  0  0  0  0
   17.8844  -10.0388  -17.8008 C   0  0  1  0  0  0  0  0  0  0  0  0
   17.3008   -8.8107  -18.4260 C   0  0  0  0  0  0  0  0  0  0  0  0
   16.7001   -9.0836  -19.7361 C   0  0  0  0  0  0  0  0  0  0  0  0
   15.4840   -9.3107  -19.9100 O   0  0  0  0  0  0  0  0  0  0  0  0
   18.6949   -9.6735  -16.6054 C   0  0  0  0  0  0  0  0  0  0  0  0
   18.1810   -9.4331  -15.4665 O   0  0  0  0  0  0  0  0  0  0  0  0
   17.4908   -9.1042  -20.9050 O   0  0  0  0  0  0  0  0  0  0  0  0
   23.0936   -9.2160  -14.4661 C   0  0  0  0  0  0  0  0  0  0  0  0
   22.2087   -9.8337  -15.5134 C   0  0  1  0  0  0  0  0  0  0  0  0
   22.0524  -11.1999  -15.3350 O   0  0  0  0  0  0  0  0  0  0  0  0
   20.8817   -9.1235  -15.5607 C   0  0  2  0  0  0  0  0  0  0  0  0
   20.1069   -9.5837  -16.7191 N   0  0  0  0  0  0  0  0  0  0  0  0
   21.0255   -7.6604  -15.6067 C   0  0  0  0  0  0  0  0  0  0  0  0
   20.9618   -7.0785  -16.7385 O   0  0  0  0  0  0  0  0  0  0  0  0
   18.5320   -2.8451  -15.0679 C   0  0  0  0  0  0  0  0  0  0  0  0
   19.9905   -3.3204  -14.9476 C   0  0  2  0  0  0  0  0  0  0  0  0
   20.6262   -2.8459  -16.2626 C   0  0  0  0  0  0  0  0  0  0  0  0
   19.9671   -4.8065  -14.8375 C   0  0  0  0  0  0  0  0  0  0  0  0
   21.3046   -5.4508  -14.5720 C   0  0  2  0  0  0  0  0  0  0  0  0
   21.2281   -6.8733  -14.4608 N   0  0  0  0  0  0  0  0  0  0  0  0
   22.0393   -4.9012  -13.4300 C   0  0  0  0  0  0  0  0  0  0  0  0
   22.0119   -5.5186  -12.3338 O   0  0  0  0  0  0  0  0  0  0  0  0
   22.7838   -3.7288  -13.4477 O   0  0  0  0  0  0  0  0  0  0  0  0
  2  1  1  1
  2  6  1  0
  3  2  1  0
  3  4  1  0
  4  5  2  0
  4  8  1  0
  6  7  2  0
 10  9  1  1
 10 12  1  0
 11 10  1  0
 12 14  1  0
 13  6  1  0
 12 13  1  6
 14 21  1  0
 15 14  2  0
 17 16  1  6
 17 18  1  0
 19 17  1  0
 20 19  1  1
 21 20  1  0
 22 20  1  0
 23 22  2  0
 24 22  1  0
M  END
$$$$
