DTL.pdb
     RDKit          3D

 24 23  0  0  1  0  0  0  0  0999 V2000
   20.4131  -21.4413  -12.4957 N   0  0  0  0  0  0  0  0  0  0  0  0
   21.0456  -21.0807  -13.7782 C   0  0  1  0  0  0  0  0  0  0  0  0
   20.1220  -20.1207  -14.4604 C   0  0  0  0  0  0  0  0  0  0  0  0
   18.9978  -20.7982  -15.1150 C   0  0  0  0  0  0  0  0  0  0  0  0
   18.8822  -22.0399  -15.1901 O   0  0  0  0  0  0  0  0  0  0  0  0
   22.3240  -20.4028  -13.4237 C   0  0  0  0  0  0  0  0  0  0  0  0
   22.3776  -19.3629  -12.6925 O   0  0  0  0  0  0  0  0  0  0  0  0
   17.9553  -20.0582  -15.7129 O   0  0  0  0  0  0  0  0  0  0  0  0
   27.2212  -20.4314  -13.2400 C   0  0  0  0  0  0  0  0  0  0  0  0
   25.9277  -21.1711  -13.4426 C   0  0  1  0  0  0  0  0  0  0  0  0
   25.6702  -22.0753  -12.4234 O   0  0  0  0  0  0  0  0  0  0  0  0
   24.7926  -20.1980  -13.6227 C   0  0  2  0  0  0  0  0  0  0  0  0
   23.5503  -20.9237  -13.9128 N   0  0  0  0  0  0  0  0  0  0  0  0
   25.0549  -19.2146  -14.6845 C   0  0  0  0  0  0  0  0  0  0  0  0
   24.7318  -19.5108  -15.8809 O   0  0  0  0  0  0  0  0  0  0  0  0
   27.0840  -13.4234  -15.5200 C   0  0  0  0  0  0  0  0  0  0  0  0
   26.5361  -14.7057  -16.1706 C   0  0  2  0  0  0  0  0  0  0  0  0
   25.2554  -14.2274  -16.8702 C   0  0  0  0  0  0  0  0  0  0  0  0
   26.2509  -15.6745  -15.0746 C   0  0  0  0  0  0  0  0  0  0  0  0
   25.9098  -17.0721  -15.5272 C   0  0  2  0  0  0  0  0  0  0  0  0
   25.6437  -17.9623  -14.4416 N   0  0  0  0  0  0  0  0  0  0  0  0
   26.8793  -17.6792  -16.4423 C   0  0  0  0  0  0  0  0  0  0  0  0
   27.9109  -18.2199  -15.9658 O   0  0  0  0  0  0  0  0  0  0  0  0
   26.7602  -17.7131  -17.8257 O   0  0  0  0  0  0  0  0  0  0  0  0
  2  1  1  1
  2  6  1  0
  3  2  1  0
  3  4  1  0
  4  5  2  0
  4  8  1  0
  6  7  2  0
 10  9  1  1
 10 12  1  0
 11 10  1  0
 12 14  1  0
 13  6  1  0
 12 13  1  6
 14 21  1  0
 15 14  2  0
 17 16  1  1
 17 18  1  0
 19 17  1  0
 20 19  1  1
 21 20  1  0
 22 20  1  0
 23 22  2  0
 24 22  1  0
M  END
$$$$
