DTL.pdb
     RDKit          3D

 24 23  0  0  1  0  0  0  0  0999 V2000
   15.1792  -10.7955  -17.8486 N   0  0  0  0  0  0  0  0  0  0  0  0
   15.3887  -10.0187  -16.6126 C   0  0  1  0  0  0  0  0  0  0  0  0
   15.7860  -10.9957  -15.5507 C   0  0  0  0  0  0  0  0  0  0  0  0
   14.7052  -11.9308  -15.2208 C   0  0  0  0  0  0  0  0  0  0  0  0
   13.5101  -11.5928  -15.0853 O   0  0  0  0  0  0  0  0  0  0  0  0
   16.5147   -9.0880  -16.9044 C   0  0  0  0  0  0  0  0  0  0  0  0
   17.3153   -9.2527  -17.8795 O   0  0  0  0  0  0  0  0  0  0  0  0
   14.9685  -13.3047  -15.0335 O   0  0  0  0  0  0  0  0  0  0  0  0
   16.4086   -5.4249  -17.5734 C   0  0  0  0  0  0  0  0  0  0  0  0
   17.3379   -5.6265  -16.4084 C   0  0  1  0  0  0  0  0  0  0  0  0
   16.7624   -5.2560  -15.2025 O   0  0  0  0  0  0  0  0  0  0  0  0
   17.8324   -7.0485  -16.3751 C   0  0  2  0  0  0  0  0  0  0  0  0
   16.7226   -7.9590  -16.0696 N   0  0  0  0  0  0  0  0  0  0  0  0
   18.9203   -7.2456  -15.4050 C   0  0  0  0  0  0  0  0  0  0  0  0
   18.6393   -7.7561  -14.2719 O   0  0  0  0  0  0  0  0  0  0  0  0
   24.4016   -9.3197  -14.8216 C   0  0  0  0  0  0  0  0  0  0  0  0
   23.3818   -8.3969  -14.1315 C   0  0  2  0  0  0  0  0  0  0  0  0
   22.9608   -9.2001  -12.8920 C   0  0  0  0  0  0  0  0  0  0  0  0
   22.2514   -8.1930  -15.0811 C   0  0  0  0  0  0  0  0  0  0  0  0
   21.2643   -7.1246  -14.6827 C   0  0  2  0  0  0  0  0  0  0  0  0
   20.2558   -6.8988  -15.6693 N   0  0  0  0  0  0  0  0  0  0  0  0
   21.8628   -5.8490  -14.2818 C   0  0  0  0  0  0  0  0  0  0  0  0
   22.5682   -5.8075  -13.2407 O   0  0  0  0  0  0  0  0  0  0  0  0
   21.7183   -4.6484  -14.9652 O   0  0  0  0  0  0  0  0  0  0  0  0
  2  1  1  6
  2  6  1  0
  3  2  1  0
  3  4  1  0
  4  5  2  0
  4  8  1  0
  6  7  2  0
 10  9  1  6
 10 12  1  0
 11 10  1  0
 12 14  1  0
 13  6  1  0
 12 13  1  1
 14 21  1  0
 15 14  2  0
 17 16  1  6
 17 18  1  0
 19 17  1  0
 20 19  1  6
 21 20  1  0
 22 20  1  0
 23 22  2  0
 24 22  1  0
M  END
$$$$
