DTL.pdb
     RDKit          3D

 24 23  0  0  1  0  0  0  0  0999 V2000
   22.4163  -16.8044  -19.3935 N   0  0  0  0  0  0  0  0  0  0  0  0
   23.4317  -17.0287  -20.4393 C   0  0  1  0  0  0  0  0  0  0  0  0
   22.7025  -17.5176  -21.6514 C   0  0  0  0  0  0  0  0  0  0  0  0
   21.4475  -16.7926  -21.8772 C   0  0  0  0  0  0  0  0  0  0  0  0
   20.5384  -16.6938  -21.0261 O   0  0  0  0  0  0  0  0  0  0  0  0
   24.0404  -15.6955  -20.7064 C   0  0  0  0  0  0  0  0  0  0  0  0
   25.0880  -15.5405  -21.4118 O   0  0  0  0  0  0  0  0  0  0  0  0
   21.1947  -16.1487  -23.1074 O   0  0  0  0  0  0  0  0  0  0  0  0
   22.1931  -12.5763  -21.9852 C   0  0  0  0  0  0  0  0  0  0  0  0
   22.9405  -12.2166  -20.7308 C   0  0  1  0  0  0  0  0  0  0  0  0
   22.0999  -12.0717  -19.6375 O   0  0  0  0  0  0  0  0  0  0  0  0
   24.0296  -13.2221  -20.4655 C   0  0  2  0  0  0  0  0  0  0  0  0
   23.4409  -14.5311  -20.1593 N   0  0  0  0  0  0  0  0  0  0  0  0
   24.9247  -12.8103  -19.3734 C   0  0  0  0  0  0  0  0  0  0  0  0
   24.8032  -13.3801  -18.2402 O   0  0  0  0  0  0  0  0  0  0  0  0
   29.6617  -13.5168  -17.0742 C   0  0  0  0  0  0  0  0  0  0  0  0
   28.5026  -12.5307  -16.8466 C   0  0  2  0  0  0  0  0  0  0  0  0
   27.9799  -12.9152  -15.4547 C   0  0  0  0  0  0  0  0  0  0  0  0
   27.4927  -12.7758  -17.9149 C   0  0  0  0  0  0  0  0  0  0  0  0
   26.8130  -11.5404  -18.4500 C   0  0  2  0  0  0  0  0  0  0  0  0
   25.9090  -11.8188  -19.5210 N   0  0  0  0  0  0  0  0  0  0  0  0
   27.7180  -10.4539  -18.8325 C   0  0  0  0  0  0  0  0  0  0  0  0
   28.0009  -10.2962  -20.0485 O   0  0  0  0  0  0  0  0  0  0  0  0
   28.3082   -9.5574  -17.9510 O   0  0  0  0  0  0  0  0  0  0  0  0
  2  1  1  1
  2  6  1  0
  3  2  1  0
  3  4  1  0
  4  5  2  0
  4  8  1  0
  6  7  2  0
 10  9  1  6
 10 12  1  0
 11 10  1  0
 12 14  1  0
 13  6  1  0
 12 13  1  1
 14 21  1  0
 15 14  2  0
 17 16  1  6
 17 18  1  0
 19 17  1  0
 20 19  1  6
 21 20  1  0
 22 20  1  0
 23 22  2  0
 24 22  1  0
M  END
$$$$
