DTL.pdb
     RDKit          3D

 24 23  0  0  1  0  0  0  0  0999 V2000
   15.2270   -5.9386  -18.6849 N   0  0  0  0  0  0  0  0  0  0  0  0
   15.0026   -6.6697  -17.4239 C   0  0  1  0  0  0  0  0  0  0  0  0
   15.7664   -7.9527  -17.5267 C   0  0  0  0  0  0  0  0  0  0  0  0
   15.1369   -8.9040  -18.4487 C   0  0  0  0  0  0  0  0  0  0  0  0
   14.0882   -8.6662  -19.0847 O   0  0  0  0  0  0  0  0  0  0  0  0
   15.5773   -5.8121  -16.3499 C   0  0  0  0  0  0  0  0  0  0  0  0
   16.3214   -4.8079  -16.5884 O   0  0  0  0  0  0  0  0  0  0  0  0
   15.7020  -10.1779  -18.6720 O   0  0  0  0  0  0  0  0  0  0  0  0
   13.5472   -5.3287  -12.8758 C   0  0  0  0  0  0  0  0  0  0  0  0
   14.6067   -4.3991  -13.3998 C   0  0  1  0  0  0  0  0  0  0  0  0
   15.0201   -3.4786  -12.4487 O   0  0  0  0  0  0  0  0  0  0  0  0
   15.7653   -5.1866  -13.9521 C   0  0  2  0  0  0  0  0  0  0  0  0
   15.2949   -6.1102  -14.9912 N   0  0  0  0  0  0  0  0  0  0  0  0
   16.4879   -5.9335  -12.9113 C   0  0  0  0  0  0  0  0  0  0  0  0
   16.0816   -7.1028  -12.6092 O   0  0  0  0  0  0  0  0  0  0  0  0
   22.1365   -6.9555  -11.2477 C   0  0  0  0  0  0  0  0  0  0  0  0
   20.6681   -7.1753  -10.8438 C   0  0  2  0  0  0  0  0  0  0  0  0
   20.4480   -8.6712  -11.1127 C   0  0  0  0  0  0  0  0  0  0  0  0
   19.8297   -6.3151  -11.7261 C   0  0  0  0  0  0  0  0  0  0  0  0
   18.3668   -6.2587  -11.3638 C   0  0  2  0  0  0  0  0  0  0  0  0
   17.6068   -5.4191  -12.2350 N   0  0  0  0  0  0  0  0  0  0  0  0
   18.0889   -5.9093   -9.9685 C   0  0  0  0  0  0  0  0  0  0  0  0
   17.7186   -4.7380   -9.6961 O   0  0  0  0  0  0  0  0  0  0  0  0
   18.1999   -6.7771   -8.8898 O   0  0  0  0  0  0  0  0  0  0  0  0
  2  1  1  6
  2  6  1  0
  3  2  1  0
  3  4  1  0
  4  5  2  0
  4  8  1  0
  6  7  2  0
 10  9  1  1
 10 12  1  0
 11 10  1  0
 12 14  1  0
 13  6  1  0
 12 13  1  6
 14 21  1  0
 15 14  2  0
 17 16  1  6
 17 18  1  0
 19 17  1  0
 20 19  1  6
 21 20  1  0
 22 20  1  0
 23 22  2  0
 24 22  1  0
M  END
$$$$
