DTL.pdb
     RDKit          3D

 24 23  0  0  1  0  0  0  0  0999 V2000
   20.1450   -7.2136  -14.4603 N   0  0  0  0  0  0  0  0  0  0  0  0
   20.8793   -7.4485  -15.7175 C   0  0  1  0  0  0  0  0  0  0  0  0
   21.9507   -6.4063  -15.7930 C   0  0  0  0  0  0  0  0  0  0  0  0
   21.4091   -5.0675  -16.0494 C   0  0  0  0  0  0  0  0  0  0  0  0
   20.1938   -4.8282  -16.2127 O   0  0  0  0  0  0  0  0  0  0  0  0
   21.4857   -8.8029  -15.5861 C   0  0  0  0  0  0  0  0  0  0  0  0
   21.6886   -9.3656  -14.4631 O   0  0  0  0  0  0  0  0  0  0  0  0
   22.2606   -3.9447  -16.1273 O   0  0  0  0  0  0  0  0  0  0  0  0
   20.1335  -11.8853  -16.1923 C   0  0  0  0  0  0  0  0  0  0  0  0
   21.3199  -11.8637  -17.1160 C   0  0  1  0  0  0  0  0  0  0  0  0
   20.9628  -11.5986  -18.4294 O   0  0  0  0  0  0  0  0  0  0  0  0
   22.3548  -10.8919  -16.6140 C   0  0  2  0  0  0  0  0  0  0  0  0
   21.8618   -9.5166  -16.7539 N   0  0  0  0  0  0  0  0  0  0  0  0
   23.6445  -11.0320  -17.3072 C   0  0  0  0  0  0  0  0  0  0  0  0
   23.9825  -10.1374  -18.1492 O   0  0  0  0  0  0  0  0  0  0  0  0
   28.0958  -11.2115  -15.9751 C   0  0  0  0  0  0  0  0  0  0  0  0
   27.2483  -12.4674  -15.7064 C   0  0  2  0  0  0  0  0  0  0  0  0
   28.2324  -13.4137  -15.0032 C   0  0  0  0  0  0  0  0  0  0  0  0
   26.8046  -12.9964  -17.0272 C   0  0  0  0  0  0  0  0  0  0  0  0
   25.7869  -12.1484  -17.7482 C   0  0  2  0  0  0  0  0  0  0  0  0
   24.5228  -12.1055  -17.0836 N   0  0  0  0  0  0  0  0  0  0  0  0
   25.5949  -12.4819  -19.1617 C   0  0  0  0  0  0  0  0  0  0  0  0
   24.6129  -13.1966  -19.4910 O   0  0  0  0  0  0  0  0  0  0  0  0
   26.4206  -12.0697  -20.1997 O   0  0  0  0  0  0  0  0  0  0  0  0
  2  1  1  1
  2  6  1  0
  3  2  1  0
  3  4  1  0
  4  5  2  0
  4  8  1  0
  6  7  2  0
 10  9  1  1
 10 12  1  0
 11 10  1  0
 12 14  1  0
 13  6  1  0
 12 13  1  6
 14 21  1  0
 15 14  2  0
 17 16  1  6
 17 18  1  0
 19 17  1  0
 20 19  1  1
 21 20  1  0
 22 20  1  0
 23 22  2  0
 24 22  1  0
M  END
$$$$
