DTL.pdb
     RDKit          3D

 24 23  0  0  1  0  0  0  0  0999 V2000
   18.2085  -15.5481  -18.0189 N   0  0  0  0  0  0  0  0  0  0  0  0
   19.0292  -15.1258  -16.8687 C   0  0  1  0  0  0  0  0  0  0  0  0
   20.1263  -16.1339  -16.7278 C   0  0  0  0  0  0  0  0  0  0  0  0
   19.6277  -17.4440  -16.2962 C   0  0  0  0  0  0  0  0  0  0  0  0
   18.4241  -17.6897  -16.0684 O   0  0  0  0  0  0  0  0  0  0  0  0
   19.5937  -13.7977  -17.2389 C   0  0  0  0  0  0  0  0  0  0  0  0
   20.1270  -13.5620  -18.3698 O   0  0  0  0  0  0  0  0  0  0  0  0
   20.5105  -18.5294  -16.1102 O   0  0  0  0  0  0  0  0  0  0  0  0
   17.7749  -10.5824  -17.3570 C   0  0  0  0  0  0  0  0  0  0  0  0
   18.9511  -10.3736  -16.4437 C   0  0  1  0  0  0  0  0  0  0  0  0
   18.5858  -10.3573  -15.1061 O   0  0  0  0  0  0  0  0  0  0  0  0
   20.0140  -11.4046  -16.7174 C   0  0  2  0  0  0  0  0  0  0  0  0
   19.5447  -12.7319  -16.3028 N   0  0  0  0  0  0  0  0  0  0  0  0
   21.2869  -11.0947  -16.0488 C   0  0  0  0  0  0  0  0  0  0  0  0
   21.9187  -12.0411  -15.4755 O   0  0  0  0  0  0  0  0  0  0  0  0
   25.7261  -10.5167  -14.4215 C   0  0  0  0  0  0  0  0  0  0  0  0
   25.6118  -10.1971  -15.9223 C   0  0  2  0  0  0  0  0  0  0  0  0
   26.0106   -8.7160  -15.9994 C   0  0  0  0  0  0  0  0  0  0  0  0
   24.1924  -10.4194  -16.3184 C   0  0  0  0  0  0  0  0  0  0  0  0
   23.1781   -9.6094  -15.5505 C   0  0  2  0  0  0  0  0  0  0  0  0
   21.8404   -9.8039  -16.0135 N   0  0  0  0  0  0  0  0  0  0  0  0
   23.4707   -8.1767  -15.4619 C   0  0  0  0  0  0  0  0  0  0  0  0
   23.1168   -7.4233  -16.4056 O   0  0  0  0  0  0  0  0  0  0  0  0
   24.1209   -7.5576  -14.4022 O   0  0  0  0  0  0  0  0  0  0  0  0
  2  1  1  6
  2  6  1  0
  3  2  1  0
  3  4  1  0
  4  5  2  0
  4  8  1  0
  6  7  2  0
 10  9  1  6
 10 12  1  0
 11 10  1  0
 12 14  1  0
 13  6  1  0
 12 13  1  1
 14 21  1  0
 15 14  2  0
 17 16  1  1
 17 18  1  0
 19 17  1  0
 20 19  1  6
 21 20  1  0
 22 20  1  0
 23 22  2  0
 24 22  1  0
M  END
$$$$
