DTL.pdb
     RDKit          3D

 24 23  0  0  1  0  0  0  0  0999 V2000
   19.4213  -22.0983  -15.2774 N   0  0  0  0  0  0  0  0  0  0  0  0
   19.9671  -21.2647  -14.1901 C   0  0  1  0  0  0  0  0  0  0  0  0
   18.9724  -21.3069  -13.0727 C   0  0  0  0  0  0  0  0  0  0  0  0
   17.9231  -20.2929  -13.2217 C   0  0  0  0  0  0  0  0  0  0  0  0
   16.7303  -20.4732  -12.8970 O   0  0  0  0  0  0  0  0  0  0  0  0
   21.2380  -21.9215  -13.7743 C   0  0  0  0  0  0  0  0  0  0  0  0
   21.2868  -23.1048  -13.3091 O   0  0  0  0  0  0  0  0  0  0  0  0
   18.2168  -19.0203  -13.7567 O   0  0  0  0  0  0  0  0  0  0  0  0
   23.7064  -23.1561  -15.7746 C   0  0  0  0  0  0  0  0  0  0  0  0
   24.4534  -22.1643  -14.9263 C   0  0  1  0  0  0  0  0  0  0  0  0
   24.7063  -20.9781  -15.5985 O   0  0  0  0  0  0  0  0  0  0  0  0
   23.7191  -21.9254  -13.6335 C   0  0  2  0  0  0  0  0  0  0  0  0
   22.4623  -21.2135  -13.8940 N   0  0  0  0  0  0  0  0  0  0  0  0
   24.5237  -21.1752  -12.6572 C   0  0  0  0  0  0  0  0  0  0  0  0
   24.0162  -20.1367  -12.1210 O   0  0  0  0  0  0  0  0  0  0  0  0
   28.2943  -20.9769   -8.7570 C   0  0  0  0  0  0  0  0  0  0  0  0
   26.9203  -20.2949   -8.8787 C   0  0  2  0  0  0  0  0  0  0  0  0
   26.3201  -20.4566   -7.4744 C   0  0  0  0  0  0  0  0  0  0  0  0
   26.1443  -21.0376   -9.9118 C   0  0  0  0  0  0  0  0  0  0  0  0
   26.5549  -20.7693  -11.3379 C   0  0  2  0  0  0  0  0  0  0  0  0
   25.8258  -21.5506  -12.2864 N   0  0  0  0  0  0  0  0  0  0  0  0
   27.9919  -20.8833  -11.5990 C   0  0  0  0  0  0  0  0  0  0  0  0
   28.4647  -22.0027  -11.9257 O   0  0  0  0  0  0  0  0  0  0  0  0
   28.9046  -19.8397  -11.5165 O   0  0  0  0  0  0  0  0  0  0  0  0
  2  1  1  6
  2  6  1  0
  3  2  1  0
  3  4  1  0
  4  5  2  0
  4  8  1  0
  6  7  2  0
 10  9  1  6
 10 12  1  0
 11 10  1  0
 12 14  1  0
 13  6  1  0
 12 13  1  6
 14 21  1  0
 15 14  2  0
 17 16  1  1
 17 18  1  0
 19 17  1  0
 20 19  1  1
 21 20  1  0
 22 20  1  0
 23 22  2  0
 24 22  1  0
M  END
$$$$
