DTL.pdb
     RDKit          3D

 24 23  0  0  1  0  0  0  0  0999 V2000
   16.3408  -14.6159  -17.5621 N   0  0  0  0  0  0  0  0  0  0  0  0
   16.0192  -13.5028  -16.6496 C   0  0  1  0  0  0  0  0  0  0  0  0
   16.3109  -13.9834  -15.2626 C   0  0  0  0  0  0  0  0  0  0  0  0
   15.4440  -15.0975  -14.8646 C   0  0  0  0  0  0  0  0  0  0  0  0
   14.1969  -15.0673  -14.9330 O   0  0  0  0  0  0  0  0  0  0  0  0
   16.9461  -12.3960  -17.0175 C   0  0  0  0  0  0  0  0  0  0  0  0
   17.9773  -12.5676  -17.7427 O   0  0  0  0  0  0  0  0  0  0  0  0
   15.9918  -16.2997  -14.3680 O   0  0  0  0  0  0  0  0  0  0  0  0
   15.8884   -8.9049  -18.3749 C   0  0  0  0  0  0  0  0  0  0  0  0
   16.7996   -8.7347  -17.1908 C   0  0  1  0  0  0  0  0  0  0  0  0
   16.1176   -8.3338  -16.0519 O   0  0  0  0  0  0  0  0  0  0  0  0
   17.5871   -9.9958  -16.9524 C   0  0  2  0  0  0  0  0  0  0  0  0
   16.6861  -11.0817  -16.5487 N   0  0  0  0  0  0  0  0  0  0  0  0
   18.6413   -9.8210  -15.9417 C   0  0  0  0  0  0  0  0  0  0  0  0
   18.4162  -10.2212  -14.7531 O   0  0  0  0  0  0  0  0  0  0  0  0
   24.5524  -10.2724  -15.2746 C   0  0  0  0  0  0  0  0  0  0  0  0
   23.2786   -9.7286  -14.6041 C   0  0  2  0  0  0  0  0  0  0  0  0
   23.0991  -10.6491  -13.3880 C   0  0  0  0  0  0  0  0  0  0  0  0
   22.1650   -9.8672  -15.5847 C   0  0  0  0  0  0  0  0  0  0  0  0
   20.8892   -9.1551  -15.2108 C   0  0  2  0  0  0  0  0  0  0  0  0
   19.8861   -9.2347  -16.2253 N   0  0  0  0  0  0  0  0  0  0  0  0
   21.0599   -7.7629  -14.7881 C   0  0  0  0  0  0  0  0  0  0  0  0
   21.2417   -7.5147  -13.5679 O   0  0  0  0  0  0  0  0  0  0  0  0
   21.0387   -6.6620  -15.6347 O   0  0  0  0  0  0  0  0  0  0  0  0
  2  1  1  6
  2  6  1  0
  3  2  1  0
  3  4  1  0
  4  5  2  0
  4  8  1  0
  6  7  2  0
 10  9  1  6
 10 12  1  0
 11 10  1  0
 12 14  1  0
 13  6  1  0
 12 13  1  1
 14 21  1  0
 15 14  2  0
 17 16  1  6
 17 18  1  0
 19 17  1  0
 20 19  1  6
 21 20  1  0
 22 20  1  0
 23 22  2  0
 24 22  1  0
M  END
$$$$
