KKG.pdb
     RDKit          3D

 23 22  0  0  1  0  0  0  0  0999 V2000
   24.4512  -19.8413  -14.3886 N   0  0  0  0  0  0  0  0  0  0  0  0
   23.8680  -19.4184  -15.6434 C   0  0  1  0  0  0  0  0  0  0  0  0
   23.5246  -20.6207  -16.4742 C   0  0  0  0  0  0  0  0  0  0  0  0
   24.6942  -21.4999  -16.7147 C   0  0  0  0  0  0  0  0  0  0  0  0
   25.4103  -21.3331  -18.0138 C   0  0  0  0  0  0  0  0  0  0  0  0
   25.9517  -22.7006  -18.4601 C   0  0  0  0  0  0  0  0  0  0  0  0
   27.3840  -22.7681  -18.2821 N   0  0  0  0  0  0  0  0  0  0  0  0
   22.6441  -18.6129  -15.3419 C   0  0  0  0  0  0  0  0  0  0  0  0
   21.9866  -18.8166  -14.2907 O   0  0  0  0  0  0  0  0  0  0  0  0
   22.1751  -17.5946  -16.2147 N   0  0  0  0  0  0  0  0  0  0  0  0
   21.0259  -16.7557  -15.8925 C   0  0  1  0  0  0  0  0  0  0  0  0
   21.1921  -15.3555  -16.3542 C   0  0  0  0  0  0  0  0  0  0  0  0
   20.0684  -14.4885  -15.9125 C   0  0  0  0  0  0  0  0  0  0  0  0
   20.0542  -13.0827  -16.3872 C   0  0  0  0  0  0  0  0  0  0  0  0
   18.9126  -12.2338  -15.9637 C   0  0  0  0  0  0  0  0  0  0  0  0
   18.9726  -10.8896  -16.4514 N   0  0  0  0  0  0  0  0  0  0  0  0
   19.7712  -17.3563  -16.3047 C   0  0  0  0  0  0  0  0  0  0  0  0
   19.5028  -17.9090  -17.3998 O   0  0  0  0  0  0  0  0  0  0  0  0
   18.6475  -17.3506  -15.3821 N   0  0  0  0  0  0  0  0  0  0  0  0
   17.3885  -17.9394  -15.7355 C   0  0  0  0  0  0  0  0  0  0  0  0
   17.2596  -19.2562  -15.0871 C   0  0  0  0  0  0  0  0  0  0  0  0
   16.0705  -19.9370  -14.9899 O   0  0  0  0  0  0  0  0  0  0  0  0
   18.2765  -19.8130  -14.5810 O   0  0  0  0  0  0  0  0  0  0  0  0
  2  1  1  1
  3  2  1  0
  4  3  1  0
  5  4  1  0
  6  5  1  0
  7  6  1  0
  8  9  2  0
  8  2  1  0
 10  8  1  0
 11 10  1  0
 11 12  1  6
 13 12  1  0
 13 14  1  0
 15 14  1  0
 16 15  1  0
 17 11  1  0
 18 17  2  0
 19 17  1  0
 20 19  1  0
 21 20  1  0
 21 22  1  0
 23 21  2  0
M  END
$$$$
