KKG.pdb
     RDKit          3D

 23 22  0  0  1  0  0  0  0  0999 V2000
   23.0427  -20.6268  -12.6415 N   0  0  0  0  0  0  0  0  0  0  0  0
   22.5510  -20.6574  -14.0020 C   0  0  1  0  0  0  0  0  0  0  0  0
   21.0498  -20.6458  -13.9994 C   0  0  0  0  0  0  0  0  0  0  0  0
   20.4713  -21.9022  -13.4648 C   0  0  0  0  0  0  0  0  0  0  0  0
   19.0154  -22.1312  -13.7016 C   0  0  0  0  0  0  0  0  0  0  0  0
   18.6558  -23.5522  -13.2391 C   0  0  0  0  0  0  0  0  0  0  0  0
   17.2465  -23.8107  -13.4248 N   0  0  0  0  0  0  0  0  0  0  0  0
   23.0910  -19.4620  -14.7210 C   0  0  0  0  0  0  0  0  0  0  0  0
   23.1737  -18.3500  -14.1419 O   0  0  0  0  0  0  0  0  0  0  0  0
   23.5304  -19.5261  -16.0706 N   0  0  0  0  0  0  0  0  0  0  0  0
   24.1096  -18.3786  -16.7605 C   0  0  1  0  0  0  0  0  0  0  0  0
   25.3839  -18.7063  -17.4461 C   0  0  0  0  0  0  0  0  0  0  0  0
   26.0910  -17.4862  -17.9161 C   0  0  0  0  0  0  0  0  0  0  0  0
   27.3847  -17.6669  -18.6198 C   0  0  0  0  0  0  0  0  0  0  0  0
   28.0526  -16.4468  -19.1381 C   0  0  0  0  0  0  0  0  0  0  0  0
   29.2962  -16.6990  -19.8001 N   0  0  0  0  0  0  0  0  0  0  0  0
   23.1491  -17.7055  -17.6146 C   0  0  0  0  0  0  0  0  0  0  0  0
   22.2420  -18.2217  -18.3128 O   0  0  0  0  0  0  0  0  0  0  0  0
   23.1883  -16.2558  -17.7178 N   0  0  0  0  0  0  0  0  0  0  0  0
   22.3230  -15.5476  -18.6158 C   0  0  0  0  0  0  0  0  0  0  0  0
   22.5909  -14.1017  -18.5225 C   0  0  0  0  0  0  0  0  0  0  0  0
   21.9487  -13.1633  -19.2931 O   0  0  0  0  0  0  0  0  0  0  0  0
   23.4533  -13.6710  -17.7033 O   0  0  0  0  0  0  0  0  0  0  0  0
  2  1  1  1
  3  2  1  0
  4  3  1  0
  5  4  1  0
  6  5  1  0
  7  6  1  0
  8  9  2  0
  8  2  1  0
 10  8  1  0
 11 10  1  0
 11 12  1  6
 13 12  1  0
 13 14  1  0
 15 14  1  0
 16 15  1  0
 17 11  1  0
 18 17  2  0
 19 17  1  0
 20 19  1  0
 21 20  1  0
 21 22  1  0
 23 21  2  0
M  END
$$$$
