KKG.pdb
     RDKit          3D

 23 22  0  0  1  0  0  0  0  0999 V2000
   18.7035  -12.2746  -15.4136 N   0  0  0  0  0  0  0  0  0  0  0  0
   19.4774  -11.2628  -16.0997 C   0  0  1  0  0  0  0  0  0  0  0  0
   19.1486  -11.2787  -17.5644 C   0  0  0  0  0  0  0  0  0  0  0  0
   19.7769  -12.4172  -18.2770 C   0  0  0  0  0  0  0  0  0  0  0  0
   19.1081  -13.7458  -18.1521 C   0  0  0  0  0  0  0  0  0  0  0  0
   19.9248  -14.7870  -18.9340 C   0  0  0  0  0  0  0  0  0  0  0  0
   19.3287  -16.0981  -18.8188 N   0  0  0  0  0  0  0  0  0  0  0  0
   19.1497   -9.9343  -15.4953 C   0  0  0  0  0  0  0  0  0  0  0  0
   17.9569   -9.5516  -15.3988 O   0  0  0  0  0  0  0  0  0  0  0  0
   20.1552   -9.0566  -15.0080 N   0  0  0  0  0  0  0  0  0  0  0  0
   19.8500   -7.7272  -14.4906 C   0  0  1  0  0  0  0  0  0  0  0  0
   19.7313   -7.7020  -13.0119 C   0  0  0  0  0  0  0  0  0  0  0  0
   19.2914   -6.3726  -12.5130 C   0  0  0  0  0  0  0  0  0  0  0  0
   19.1819   -6.1887  -11.0447 C   0  0  0  0  0  0  0  0  0  0  0  0
   18.6926   -4.8742  -10.5591 C   0  0  0  0  0  0  0  0  0  0  0  0
   18.7053   -4.7370   -9.1345 N   0  0  0  0  0  0  0  0  0  0  0  0
   20.7423   -6.7116  -15.0173 C   0  0  0  0  0  0  0  0  0  0  0  0
   21.9963   -6.6810  -14.9606 O   0  0  0  0  0  0  0  0  0  0  0  0
   20.1779   -5.5628  -15.7068 N   0  0  0  0  0  0  0  0  0  0  0  0
   21.0133   -4.5190  -16.2258 C   0  0  0  0  0  0  0  0  0  0  0  0
   21.4937   -3.6742  -15.1182 C   0  0  0  0  0  0  0  0  0  0  0  0
   22.7826   -3.2077  -15.0284 O   0  0  0  0  0  0  0  0  0  0  0  0
   20.7046   -3.3476  -14.1850 O   0  0  0  0  0  0  0  0  0  0  0  0
  2  1  1  1
  3  2  1  0
  4  3  1  0
  5  4  1  0
  6  5  1  0
  7  6  1  0
  8  9  2  0
  8  2  1  0
 10  8  1  0
 11 10  1  0
 11 12  1  1
 13 12  1  0
 13 14  1  0
 15 14  1  0
 16 15  1  0
 17 11  1  0
 18 17  2  0
 19 17  1  0
 20 19  1  0
 21 20  1  0
 21 22  1  0
 23 21  2  0
M  END
$$$$
