KKG.pdb
     RDKit          3D

 23 22  0  0  1  0  0  0  0  0999 V2000
   25.8732  -21.9489  -15.0197 N   0  0  0  0  0  0  0  0  0  0  0  0
   25.1700  -20.7789  -14.5399 C   0  0  1  0  0  0  0  0  0  0  0  0
   25.4980  -19.5984  -15.4074 C   0  0  0  0  0  0  0  0  0  0  0  0
   26.9421  -19.2621  -15.3898 C   0  0  0  0  0  0  0  0  0  0  0  0
   27.8281  -20.0353  -16.3093 C   0  0  0  0  0  0  0  0  0  0  0  0
   28.3184  -19.1008  -17.4267 C   0  0  0  0  0  0  0  0  0  0  0  0
   29.2438  -19.7863  -18.2994 N   0  0  0  0  0  0  0  0  0  0  0  0
   23.7032  -21.0702  -14.5702 C   0  0  0  0  0  0  0  0  0  0  0  0
   23.2259  -21.8661  -15.4173 O   0  0  0  0  0  0  0  0  0  0  0  0
   22.7943  -20.4718  -13.6566 N   0  0  0  0  0  0  0  0  0  0  0  0
   21.3683  -20.7791  -13.6566 C   0  0  1  0  0  0  0  0  0  0  0  0
   20.8280  -20.9892  -12.2909 C   0  0  0  0  0  0  0  0  0  0  0  0
   19.4139  -21.4465  -12.3178 C   0  0  0  0  0  0  0  0  0  0  0  0
   19.0393  -22.5816  -11.4385 C   0  0  0  0  0  0  0  0  0  0  0  0
   17.6157  -23.0017  -11.4404 C   0  0  0  0  0  0  0  0  0  0  0  0
   17.2995  -23.9957  -10.4604 N   0  0  0  0  0  0  0  0  0  0  0  0
   20.5998  -19.8334  -14.4442 C   0  0  0  0  0  0  0  0  0  0  0  0
   20.6761  -18.5801  -14.4358 O   0  0  0  0  0  0  0  0  0  0  0  0
   19.6035  -20.3345  -15.3769 N   0  0  0  0  0  0  0  0  0  0  0  0
   18.8538  -19.4463  -16.2169 C   0  0  0  0  0  0  0  0  0  0  0  0
   17.5170  -19.2283  -15.6367 C   0  0  0  0  0  0  0  0  0  0  0  0
   16.5524  -18.4528  -16.2326 O   0  0  0  0  0  0  0  0  0  0  0  0
   17.2126  -19.7658  -14.5328 O   0  0  0  0  0  0  0  0  0  0  0  0
  2  1  1  6
  3  2  1  0
  4  3  1  0
  5  4  1  0
  6  5  1  0
  7  6  1  0
  8  9  2  0
  8  2  1  0
 10  8  1  0
 11 10  1  0
 11 12  1  1
 13 12  1  0
 13 14  1  0
 15 14  1  0
 16 15  1  0
 17 11  1  0
 18 17  2  0
 19 17  1  0
 20 19  1  0
 21 20  1  0
 21 22  1  0
 23 21  2  0
M  END
$$$$
