KKG.pdb
     RDKit          3D

 23 22  0  0  1  0  0  0  0  0999 V2000
   24.5466  -16.6422  -19.0501 N   0  0  0  0  0  0  0  0  0  0  0  0
   23.3749  -17.4876  -19.1260 C   0  0  1  0  0  0  0  0  0  0  0  0
   23.3106  -18.1460  -20.4736 C   0  0  0  0  0  0  0  0  0  0  0  0
   23.5082  -17.1863  -21.5867 C   0  0  0  0  0  0  0  0  0  0  0  0
   23.4580  -15.7341  -21.2449 C   0  0  0  0  0  0  0  0  0  0  0  0
   23.5007  -14.9172  -22.5462 C   0  0  0  0  0  0  0  0  0  0  0  0
   24.6571  -14.0513  -22.5703 N   0  0  0  0  0  0  0  0  0  0  0  0
   23.4652  -18.5102  -18.0381 C   0  0  0  0  0  0  0  0  0  0  0  0
   22.6098  -19.4261  -17.9478 O   0  0  0  0  0  0  0  0  0  0  0  0
   24.5063  -18.4958  -17.0713 N   0  0  0  0  0  0  0  0  0  0  0  0
   24.6056  -19.4949  -16.0130 C   0  0  1  0  0  0  0  0  0  0  0  0
   26.0000  -19.7021  -15.5505 C   0  0  0  0  0  0  0  0  0  0  0  0
   26.5096  -21.0512  -15.9108 C   0  0  0  0  0  0  0  0  0  0  0  0
   27.8978  -21.3928  -15.5136 C   0  0  0  0  0  0  0  0  0  0  0  0
   28.4420  -22.6886  -15.9911 C   0  0  0  0  0  0  0  0  0  0  0  0
   28.7124  -22.7256  -17.3961 N   0  0  0  0  0  0  0  0  0  0  0  0
   23.6677  -19.2505  -14.9334 C   0  0  0  0  0  0  0  0  0  0  0  0
   23.5369  -18.2082  -14.2455 O   0  0  0  0  0  0  0  0  0  0  0  0
   22.7376  -20.3012  -14.5530 N   0  0  0  0  0  0  0  0  0  0  0  0
   21.7752  -20.1040  -13.5081 C   0  0  0  0  0  0  0  0  0  0  0  0
   20.9201  -21.2984  -13.3923 C   0  0  0  0  0  0  0  0  0  0  0  0
   19.9212  -21.4244  -12.4579 O   0  0  0  0  0  0  0  0  0  0  0  0
   21.0920  -22.2764  -14.1762 O   0  0  0  0  0  0  0  0  0  0  0  0
  2  1  1  6
  3  2  1  0
  4  3  1  0
  5  4  1  0
  6  5  1  0
  7  6  1  0
  8  9  2  0
  8  2  1  0
 10  8  1  0
 11 10  1  0
 11 12  1  1
 13 12  1  0
 13 14  1  0
 15 14  1  0
 16 15  1  0
 17 11  1  0
 18 17  2  0
 19 17  1  0
 20 19  1  0
 21 20  1  0
 21 22  1  0
 23 21  2  0
M  END
$$$$
