KKG.pdb
     RDKit          3D

 23 22  0  0  1  0  0  0  0  0999 V2000
   19.8184  -12.9266  -15.8183 N   0  0  0  0  0  0  0  0  0  0  0  0
   19.4401  -11.6749  -16.4377 C   0  0  1  0  0  0  0  0  0  0  0  0
   18.1324  -11.2031  -15.8710 C   0  0  0  0  0  0  0  0  0  0  0  0
   16.9943  -12.0659  -16.2696 C   0  0  0  0  0  0  0  0  0  0  0  0
   16.9664  -13.4499  -15.7111 C   0  0  0  0  0  0  0  0  0  0  0  0
   15.6770  -14.1457  -16.1758 C   0  0  0  0  0  0  0  0  0  0  0  0
   15.5451  -15.4458  -15.5594 N   0  0  0  0  0  0  0  0  0  0  0  0
   20.5240  -10.6778  -16.1761 C   0  0  0  0  0  0  0  0  0  0  0  0
   20.9918  -10.5294  -15.0195 O   0  0  0  0  0  0  0  0  0  0  0  0
   21.0685   -9.8650  -17.2065 N   0  0  0  0  0  0  0  0  0  0  0  0
   22.2318   -9.0102  -16.9967 C   0  0  1  0  0  0  0  0  0  0  0  0
   23.2185   -9.1054  -18.1006 C   0  0  0  0  0  0  0  0  0  0  0  0
   23.6315  -10.5102  -18.3562 C   0  0  0  0  0  0  0  0  0  0  0  0
   24.5432  -10.7640  -19.4991 C   0  0  0  0  0  0  0  0  0  0  0  0
   24.8489  -12.1799  -19.8232 C   0  0  0  0  0  0  0  0  0  0  0  0
   25.5251  -12.3597  -21.0717 N   0  0  0  0  0  0  0  0  0  0  0  0
   21.8624   -7.6465  -16.6663 C   0  0  0  0  0  0  0  0  0  0  0  0
   21.2801   -6.8062  -17.3954 O   0  0  0  0  0  0  0  0  0  0  0  0
   22.1763   -7.1292  -15.3444 N   0  0  0  0  0  0  0  0  0  0  0  0
   21.8681   -5.7770  -14.9793 C   0  0  0  0  0  0  0  0  0  0  0  0
   22.1614   -5.5722  -13.5499 C   0  0  0  0  0  0  0  0  0  0  0  0
   22.1230   -4.3421  -12.9397 O   0  0  0  0  0  0  0  0  0  0  0  0
   22.4714   -6.5588  -12.8213 O   0  0  0  0  0  0  0  0  0  0  0  0
  2  1  1  1
  3  2  1  0
  4  3  1  0
  5  4  1  0
  6  5  1  0
  7  6  1  0
  8  9  2  0
  8  2  1  0
 10  8  1  0
 11 10  1  0
 11 12  1  6
 13 12  1  0
 13 14  1  0
 15 14  1  0
 16 15  1  0
 17 11  1  0
 18 17  2  0
 19 17  1  0
 20 19  1  0
 21 20  1  0
 21 22  1  0
 23 21  2  0
M  END
$$$$
