KKG.pdb
     RDKit          3D

 23 22  0  0  1  0  0  0  0  0999 V2000
   20.7308  -25.7159  -16.3263 N   0  0  0  0  0  0  0  0  0  0  0  0
   21.5886  -24.6474  -15.8615 C   0  0  1  0  0  0  0  0  0  0  0  0
   22.3008  -24.0248  -17.0272 C   0  0  0  0  0  0  0  0  0  0  0  0
   23.4842  -24.8085  -17.4565 C   0  0  0  0  0  0  0  0  0  0  0  0
   24.5253  -25.0830  -16.4226 C   0  0  0  0  0  0  0  0  0  0  0  0
   25.6527  -25.9091  -17.0620 C   0  0  0  0  0  0  0  0  0  0  0  0
   26.6570  -26.2518  -16.0814 N   0  0  0  0  0  0  0  0  0  0  0  0
   20.7382  -23.6384  -15.1570 C   0  0  0  0  0  0  0  0  0  0  0  0
   19.7329  -23.1412  -15.7234 O   0  0  0  0  0  0  0  0  0  0  0  0
   21.0211  -23.2021  -13.8347 N   0  0  0  0  0  0  0  0  0  0  0  0
   20.2292  -22.1782  -13.1621 C   0  0  1  0  0  0  0  0  0  0  0  0
   19.9870  -22.4897  -11.7318 C   0  0  0  0  0  0  0  0  0  0  0  0
   19.2859  -23.7888  -11.5578 C   0  0  0  0  0  0  0  0  0  0  0  0
   18.8986  -24.1845  -10.1811 C   0  0  0  0  0  0  0  0  0  0  0  0
   18.3544  -25.5528   -9.9950 C   0  0  0  0  0  0  0  0  0  0  0  0
   18.2202  -25.9459   -8.6254 N   0  0  0  0  0  0  0  0  0  0  0  0
   20.7511  -20.8426  -13.3835 C   0  0  0  0  0  0  0  0  0  0  0  0
   21.9316  -20.4408  -13.2359 O   0  0  0  0  0  0  0  0  0  0  0  0
   19.8478  -19.7956  -13.8324 N   0  0  0  0  0  0  0  0  0  0  0  0
   20.3230  -18.4745  -14.1250 C   0  0  0  0  0  0  0  0  0  0  0  0
   19.1964  -17.6289  -14.5575 C   0  0  0  0  0  0  0  0  0  0  0  0
   18.1520  -18.0937  -15.3191 O   0  0  0  0  0  0  0  0  0  0  0  0
   19.1619  -16.4074  -14.2302 O   0  0  0  0  0  0  0  0  0  0  0  0
  2  1  1  6
  3  2  1  0
  4  3  1  0
  5  4  1  0
  6  5  1  0
  7  6  1  0
  8  9  2  0
  8  2  1  0
 10  8  1  0
 11 10  1  0
 11 12  1  1
 13 12  1  0
 13 14  1  0
 15 14  1  0
 16 15  1  0
 17 11  1  0
 18 17  2  0
 19 17  1  0
 20 19  1  0
 21 20  1  0
 21 22  1  0
 23 21  2  0
M  END
$$$$
