KKG.pdb
     RDKit          3D

 23 22  0  0  1  0  0  0  0  0999 V2000
   27.4003  -22.0360  -10.6996 N   0  0  0  0  0  0  0  0  0  0  0  0
   26.3189  -21.0753  -10.6677 C   0  0  1  0  0  0  0  0  0  0  0  0
   26.7932  -19.7979  -10.0374 C   0  0  0  0  0  0  0  0  0  0  0  0
   26.7136  -19.8293   -8.5570 C   0  0  0  0  0  0  0  0  0  0  0  0
   27.2379  -18.6381   -7.8259 C   0  0  0  0  0  0  0  0  0  0  0  0
   27.2230  -18.9363   -6.3182 C   0  0  0  0  0  0  0  0  0  0  0  0
   26.3493  -18.0194   -5.6227 N   0  0  0  0  0  0  0  0  0  0  0  0
   25.8630  -20.8381  -12.0724 C   0  0  0  0  0  0  0  0  0  0  0  0
   26.6871  -20.8338  -13.0209 O   0  0  0  0  0  0  0  0  0  0  0  0
   24.4983  -20.6114  -12.3965 N   0  0  0  0  0  0  0  0  0  0  0  0
   24.0419  -20.4130  -13.7677 C   0  0  1  0  0  0  0  0  0  0  0  0
   22.6696  -20.9294  -13.9947 C   0  0  0  0  0  0  0  0  0  0  0  0
   22.5981  -22.4052  -13.8323 C   0  0  0  0  0  0  0  0  0  0  0  0
   23.5944  -23.2283  -14.5613 C   0  0  0  0  0  0  0  0  0  0  0  0
   23.4507  -24.7032  -14.4757 C   0  0  0  0  0  0  0  0  0  0  0  0
   24.4205  -25.4290  -15.2380 N   0  0  0  0  0  0  0  0  0  0  0  0
   24.2286  -19.0469  -14.2195 C   0  0  0  0  0  0  0  0  0  0  0  0
   24.0490  -17.9876  -13.5696 O   0  0  0  0  0  0  0  0  0  0  0  0
   24.6779  -18.8074  -15.5812 N   0  0  0  0  0  0  0  0  0  0  0  0
   25.5958  -17.7494  -15.8893 C   0  0  0  0  0  0  0  0  0  0  0  0
   26.7024  -18.2777  -16.7063 C   0  0  0  0  0  0  0  0  0  0  0  0
   26.5480  -18.7004  -18.0042 O   0  0  0  0  0  0  0  0  0  0  0  0
   27.8651  -18.3628  -16.2152 O   0  0  0  0  0  0  0  0  0  0  0  0
  2  1  1  6
  3  2  1  0
  4  3  1  0
  5  4  1  0
  6  5  1  0
  7  6  1  0
  8  9  2  0
  8  2  1  0
 10  8  1  0
 11 10  1  0
 11 12  1  1
 13 12  1  0
 13 14  1  0
 15 14  1  0
 16 15  1  0
 17 11  1  0
 18 17  2  0
 19 17  1  0
 20 19  1  0
 21 20  1  0
 21 22  1  0
 23 21  2  0
M  END
$$$$
