KKG.pdb
     RDKit          3D

 23 22  0  0  1  0  0  0  0  0999 V2000
   18.8077  -12.0209  -15.8893 N   0  0  0  0  0  0  0  0  0  0  0  0
   20.1535  -11.6319  -16.2510 C   0  0  1  0  0  0  0  0  0  0  0  0
   20.4880  -12.1678  -17.6129 C   0  0  0  0  0  0  0  0  0  0  0  0
   19.9517  -13.5323  -17.8357 C   0  0  0  0  0  0  0  0  0  0  0  0
   20.6828  -14.6608  -17.1874 C   0  0  0  0  0  0  0  0  0  0  0  0
   20.0434  -15.9858  -17.6325 C   0  0  0  0  0  0  0  0  0  0  0  0
   20.6983  -17.1086  -17.0015 N   0  0  0  0  0  0  0  0  0  0  0  0
   20.2287  -10.1381  -16.2339 C   0  0  0  0  0  0  0  0  0  0  0  0
   21.2176   -9.5412  -16.7283 O   0  0  0  0  0  0  0  0  0  0  0  0
   19.2016   -9.3357  -15.6682 N   0  0  0  0  0  0  0  0  0  0  0  0
   19.2385   -7.8778  -15.7032 C   0  0  1  0  0  0  0  0  0  0  0  0
   17.8847   -7.2715  -15.7328 C   0  0  0  0  0  0  0  0  0  0  0  0
   17.0979   -7.7276  -16.9085 C   0  0  0  0  0  0  0  0  0  0  0  0
   15.6887   -8.1325  -16.6803 C   0  0  0  0  0  0  0  0  0  0  0  0
   14.8928   -8.5241  -17.8704 C   0  0  0  0  0  0  0  0  0  0  0  0
   13.5382   -8.8794  -17.5752 N   0  0  0  0  0  0  0  0  0  0  0  0
   20.0993   -7.3226  -14.6757 C   0  0  0  0  0  0  0  0  0  0  0  0
   20.0563   -7.5293  -13.4379 O   0  0  0  0  0  0  0  0  0  0  0  0
   21.1621   -6.4085  -15.0611 N   0  0  0  0  0  0  0  0  0  0  0  0
   22.0387   -5.8288  -14.0853 C   0  0  0  0  0  0  0  0  0  0  0  0
   21.8867   -4.3632  -14.0935 C   0  0  0  0  0  0  0  0  0  0  0  0
   22.6218   -3.5231  -13.2929 O   0  0  0  0  0  0  0  0  0  0  0  0
   21.0421   -3.8203  -14.8631 O   0  0  0  0  0  0  0  0  0  0  0  0
  2  1  1  6
  3  2  1  0
  4  3  1  0
  5  4  1  0
  6  5  1  0
  7  6  1  0
  8  9  2  0
  8  2  1  0
 10  8  1  0
 11 10  1  0
 11 12  1  1
 13 12  1  0
 13 14  1  0
 15 14  1  0
 16 15  1  0
 17 11  1  0
 18 17  2  0
 19 17  1  0
 20 19  1  0
 21 20  1  0
 21 22  1  0
 23 21  2  0
M  END
$$$$
