VIL.pdb
     RDKit          3D

 24 23  0  0  1  0  0  0  0  0999 V2000
   11.8722  -20.5406   19.5718 C   0  0  0  0  0  0  0  0  0  0  0  0
   11.7157  -19.3420   20.4983 C   0  0  2  0  0  0  0  0  0  0  0  0
   10.8962  -19.7842   21.6902 C   0  0  0  0  0  0  0  0  0  0  0  0
   11.0030  -18.2049   19.7970 C   0  0  2  0  0  0  0  0  0  0  0  0
   11.7708  -17.8231   18.6277 N   0  0  0  0  0  0  0  0  0  0  0  0
   10.7607  -17.0589   20.6756 C   0  0  0  0  0  0  0  0  0  0  0  0
   11.7643  -16.3565   21.0385 O   0  0  0  0  0  0  0  0  0  0  0  0
    6.7960  -13.4582   19.9970 C   0  0  0  0  0  0  0  0  0  0  0  0
    8.1351  -14.0756   20.3203 C   0  0  0  0  0  0  0  0  0  0  0  0
    8.0054  -14.7777   21.6436 C   0  0  2  0  0  0  0  0  0  0  0  0
    7.6998  -13.7375   22.7077 C   0  0  0  0  0  0  0  0  0  0  0  0
    9.2913  -15.5037   22.0184 C   0  0  2  0  0  0  0  0  0  0  0  0
    9.5102  -16.6537   21.1637 N   0  0  0  0  0  0  0  0  0  0  0  0
    9.3086  -15.8459   23.4440 C   0  0  0  0  0  0  0  0  0  0  0  0
    8.7979  -16.9178   23.8453 O   0  0  0  0  0  0  0  0  0  0  0  0
   10.8883  -13.2037   28.7753 C   0  0  0  0  0  0  0  0  0  0  0  0
   10.5373  -14.5604   28.1168 C   0  0  1  0  0  0  0  0  0  0  0  0
    9.3202  -15.0563   28.8510 C   0  0  0  0  0  0  0  0  0  0  0  0
   10.3471  -14.2842   26.6749 C   0  0  0  0  0  0  0  0  0  0  0  0
    9.9740  -15.4007   25.7757 C   0  0  2  0  0  0  0  0  0  0  0  0
    9.8904  -15.0012   24.4177 N   0  0  0  0  0  0  0  0  0  0  0  0
    8.7977  -16.1716   26.2439 C   0  0  0  0  0  0  0  0  0  0  0  0
    8.9891  -17.3791   26.9016 O   0  0  0  0  0  0  0  0  0  0  0  0
    7.6066  -15.7997   26.0834 O   0  0  0  0  0  0  0  0  0  0  0  0
  2  1  1  6
  2  3  1  0
  2  4  1  0
  4  5  1  6
  6  7  2  0
  6  4  1  0
  9 10  1  0
  9  8  1  0
 10 11  1  1
 12 10  1  0
 12 13  1  6
 13  6  1  0
 14 12  1  0
 15 14  2  0
 17 16  1  1
 17 19  1  0
 18 17  1  0
 20 19  1  1
 20 21  1  0
 21 14  1  0
 22 23  1  0
 22 20  1  0
 24 22  2  0
M  END
$$$$
