VIL.pdb
     RDKit          3D

 24 23  0  0  1  0  0  0  0  0999 V2000
    9.3553  -18.3455   19.4601 C   0  0  0  0  0  0  0  0  0  0  0  0
    9.6555  -17.7404   20.8251 C   0  0  2  0  0  0  0  0  0  0  0  0
    8.9598  -18.5866   21.8679 C   0  0  0  0  0  0  0  0  0  0  0  0
    9.1415  -16.3188   20.9121 C   0  0  2  0  0  0  0  0  0  0  0  0
    9.7916  -15.5238   19.8884 N   0  0  0  0  0  0  0  0  0  0  0  0
    9.3210  -15.7305   22.2408 C   0  0  0  0  0  0  0  0  0  0  0  0
   10.4979  -15.3727   22.5863 O   0  0  0  0  0  0  0  0  0  0  0  0
    5.7822  -12.3734   25.0534 C   0  0  0  0  0  0  0  0  0  0  0  0
    7.0567  -12.9377   24.4735 C   0  0  0  0  0  0  0  0  0  0  0  0
    7.2425  -14.3183   25.0397 C   0  0  2  0  0  0  0  0  0  0  0  0
    7.3404  -14.2048   26.5514 C   0  0  0  0  0  0  0  0  0  0  0  0
    8.5131  -14.9718   24.5108 C   0  0  2  0  0  0  0  0  0  0  0  0
    8.3059  -15.5195   23.1849 N   0  0  0  0  0  0  0  0  0  0  0  0
    9.0313  -15.9631   25.4586 C   0  0  0  0  0  0  0  0  0  0  0  0
    8.7690  -17.1797   25.3108 O   0  0  0  0  0  0  0  0  0  0  0  0
   11.2760  -14.6496   30.5162 C   0  0  0  0  0  0  0  0  0  0  0  0
   10.6304  -14.7840   29.1152 C   0  0  1  0  0  0  0  0  0  0  0  0
   10.9859  -13.5138   28.3895 C   0  0  0  0  0  0  0  0  0  0  0  0
   11.1715  -16.0302   28.5274 C   0  0  0  0  0  0  0  0  0  0  0  0
   10.5278  -16.5880   27.3155 C   0  0  2  0  0  0  0  0  0  0  0  0
    9.8365  -15.6038   26.5643 N   0  0  0  0  0  0  0  0  0  0  0  0
    9.7285  -17.8086   27.5769 C   0  0  0  0  0  0  0  0  0  0  0  0
    8.3750  -17.8189   27.2683 O   0  0  0  0  0  0  0  0  0  0  0  0
   10.2019  -18.8641   28.0717 O   0  0  0  0  0  0  0  0  0  0  0  0
  2  1  1  6
  2  3  1  0
  2  4  1  0
  4  5  1  6
  6  7  2  0
  6  4  1  0
  9 10  1  0
  9  8  1  0
 10 11  1  1
 12 10  1  0
 12 13  1  6
 13  6  1  0
 14 12  1  0
 15 14  2  0
 17 16  1  1
 17 19  1  0
 18 17  1  0
 20 19  1  1
 20 21  1  0
 21 14  1  0
 22 23  1  0
 22 20  1  0
 24 22  2  0
M  END
$$$$
