VIL.pdb
     RDKit          3D

 24 23  0  0  1  0  0  0  0  0999 V2000
    8.7939  -20.0847   23.5284 C   0  0  0  0  0  0  0  0  0  0  0  0
    7.6354  -20.0028   22.5433 C   0  0  2  0  0  0  0  0  0  0  0  0
    7.1492  -21.4115   22.2848 C   0  0  0  0  0  0  0  0  0  0  0  0
    8.0789  -19.3804   21.2361 C   0  0  2  0  0  0  0  0  0  0  0  0
    9.0577  -20.2501   20.6132 N   0  0  0  0  0  0  0  0  0  0  0  0
    8.5990  -18.0218   21.4019 C   0  0  0  0  0  0  0  0  0  0  0  0
    9.8510  -17.8785   21.6126 O   0  0  0  0  0  0  0  0  0  0  0  0
    7.8132  -12.1509   20.0013 C   0  0  0  0  0  0  0  0  0  0  0  0
    8.4045  -13.1221   20.9944 C   0  0  0  0  0  0  0  0  0  0  0  0
    7.8058  -14.4740   20.7211 C   0  0  2  0  0  0  0  0  0  0  0  0
    6.2994  -14.3712   20.8872 C   0  0  0  0  0  0  0  0  0  0  0  0
    8.3379  -15.5254   21.6869 C   0  0  2  0  0  0  0  0  0  0  0  0
    7.8395  -16.8441   21.3501 N   0  0  0  0  0  0  0  0  0  0  0  0
    8.0613  -15.1534   23.0778 C   0  0  0  0  0  0  0  0  0  0  0  0
    6.9322  -15.3657   23.5786 O   0  0  0  0  0  0  0  0  0  0  0  0
    7.7568  -11.8545   27.1009 C   0  0  0  0  0  0  0  0  0  0  0  0
    6.8704  -13.0226   26.6034 C   0  0  1  0  0  0  0  0  0  0  0  0
    5.4650  -12.4829   26.6008 C   0  0  0  0  0  0  0  0  0  0  0  0
    7.4076  -13.4164   25.2814 C   0  0  0  0  0  0  0  0  0  0  0  0
    8.7109  -14.1176   25.2186 C   0  0  2  0  0  0  0  0  0  0  0  0
    9.0344  -14.5489   23.9071 N   0  0  0  0  0  0  0  0  0  0  0  0
    8.8672  -15.1721   26.2485 C   0  0  0  0  0  0  0  0  0  0  0  0
    8.9175  -16.5043   25.8610 O   0  0  0  0  0  0  0  0  0  0  0  0
    8.9599  -14.9399   27.4815 O   0  0  0  0  0  0  0  0  0  0  0  0
  2  1  1  1
  2  3  1  0
  2  4  1  0
  4  5  1  1
  6  7  2  0
  6  4  1  0
  9 10  1  0
  9  8  1  0
 10 11  1  1
 12 10  1  0
 12 13  1  6
 13  6  1  0
 14 12  1  0
 15 14  2  0
 17 16  1  6
 17 19  1  0
 18 17  1  0
 20 19  1  6
 20 21  1  0
 21 14  1  0
 22 23  1  0
 22 20  1  0
 24 22  2  0
M  END
$$$$
