VIL.pdb
     RDKit          3D

 24 23  0  0  1  0  0  0  0  0999 V2000
   10.5935  -20.7339   21.0703 C   0  0  0  0  0  0  0  0  0  0  0  0
   10.5403  -19.3398   21.6810 C   0  0  2  0  0  0  0  0  0  0  0  0
    9.4397  -19.3324   22.7185 C   0  0  0  0  0  0  0  0  0  0  0  0
   10.2378  -18.2973   20.6254 C   0  0  2  0  0  0  0  0  0  0  0  0
   11.2912  -18.3222   19.6292 N   0  0  0  0  0  0  0  0  0  0  0  0
   10.0631  -16.9559   21.1857 C   0  0  0  0  0  0  0  0  0  0  0  0
   11.1044  -16.3269   21.5764 O   0  0  0  0  0  0  0  0  0  0  0  0
    7.2208  -12.8837   19.1833 C   0  0  0  0  0  0  0  0  0  0  0  0
    8.2743  -13.6970   19.8956 C   0  0  0  0  0  0  0  0  0  0  0  0
    7.7065  -14.1145   21.2239 C   0  0  2  0  0  0  0  0  0  0  0  0
    7.4346  -12.8632   22.0411 C   0  0  0  0  0  0  0  0  0  0  0  0
    8.6773  -15.0034   21.9911 C   0  0  2  0  0  0  0  0  0  0  0  0
    8.8404  -16.2861   21.3361 N   0  0  0  0  0  0  0  0  0  0  0  0
    8.2789  -15.1314   23.3963 C   0  0  0  0  0  0  0  0  0  0  0  0
    7.2323  -15.7478   23.7052 O   0  0  0  0  0  0  0  0  0  0  0  0
    5.5424  -12.7107   26.4069 C   0  0  0  0  0  0  0  0  0  0  0  0
    7.0263  -12.8843   26.0003 C   0  0  1  0  0  0  0  0  0  0  0  0
    7.7996  -11.9746   26.9173 C   0  0  0  0  0  0  0  0  0  0  0  0
    7.3251  -14.3284   26.1297 C   0  0  0  0  0  0  0  0  0  0  0  0
    8.6884  -14.8088   25.8059 C   0  0  2  0  0  0  0  0  0  0  0  0
    9.0398  -14.5773   24.4517 N   0  0  0  0  0  0  0  0  0  0  0  0
    8.9529  -16.1942   26.2619 C   0  0  0  0  0  0  0  0  0  0  0  0
    9.4048  -17.1394   25.3509 O   0  0  0  0  0  0  0  0  0  0  0  0
    8.7929  -16.5849   27.4470 O   0  0  0  0  0  0  0  0  0  0  0  0
  2  1  1  6
  2  3  1  0
  2  4  1  0
  4  5  1  6
  6  7  2  0
  6  4  1  0
  9 10  1  0
  9  8  1  0
 10 11  1  1
 12 10  1  0
 12 13  1  6
 13  6  1  0
 14 12  1  0
 15 14  2  0
 17 16  1  1
 17 19  1  0
 18 17  1  0
 20 19  1  6
 20 21  1  0
 21 14  1  0
 22 23  1  0
 22 20  1  0
 24 22  2  0
M  END
$$$$
