VIL.pdb
     RDKit          3D

 24 23  0  0  1  0  0  0  0  0999 V2000
    6.0398  -20.9629   25.0749 C   0  0  0  0  0  0  0  0  0  0  0  0
    6.9265  -19.7442   24.8562 C   0  0  2  0  0  0  0  0  0  0  0  0
    7.5335  -19.3700   26.1900 C   0  0  0  0  0  0  0  0  0  0  0  0
    6.1205  -18.5756   24.3294 C   0  0  2  0  0  0  0  0  0  0  0  0
    5.4513  -18.9822   23.1090 N   0  0  0  0  0  0  0  0  0  0  0  0
    6.9318  -17.3748   24.1200 C   0  0  0  0  0  0  0  0  0  0  0  0
    7.7487  -17.3645   23.1376 O   0  0  0  0  0  0  0  0  0  0  0  0
    5.2874  -12.4851   25.9193 C   0  0  0  0  0  0  0  0  0  0  0  0
    5.8898  -13.4711   24.9478 C   0  0  0  0  0  0  0  0  0  0  0  0
    7.2463  -13.8550   25.4708 C   0  0  2  0  0  0  0  0  0  0  0  0
    8.1947  -12.6917   25.2367 C   0  0  0  0  0  0  0  0  0  0  0  0
    7.7909  -15.0866   24.7582 C   0  0  2  0  0  0  0  0  0  0  0  0
    6.8955  -16.2163   24.9093 N   0  0  0  0  0  0  0  0  0  0  0  0
    9.1591  -15.3861   25.1918 C   0  0  0  0  0  0  0  0  0  0  0  0
   10.1387  -14.8844   24.5922 O   0  0  0  0  0  0  0  0  0  0  0  0
   10.1054  -14.6473   30.1617 C   0  0  0  0  0  0  0  0  0  0  0  0
   10.0534  -14.6911   28.6148 C   0  0  1  0  0  0  0  0  0  0  0  0
   10.5867  -13.3585   28.1606 C   0  0  0  0  0  0  0  0  0  0  0  0
   10.8480  -15.8716   28.2068 C   0  0  0  0  0  0  0  0  0  0  0  0
   10.7494  -16.3521   26.8091 C   0  0  2  0  0  0  0  0  0  0  0  0
    9.4364  -16.2384   26.2857 N   0  0  0  0  0  0  0  0  0  0  0  0
   11.3632  -17.6843   26.5952 C   0  0  0  0  0  0  0  0  0  0  0  0
   12.6682  -17.9108   27.0113 O   0  0  0  0  0  0  0  0  0  0  0  0
   10.7700  -18.6501   26.0491 O   0  0  0  0  0  0  0  0  0  0  0  0
  2  1  1  1
  2  3  1  0
  2  4  1  0
  4  5  1  6
  6  7  2  0
  6  4  1  0
  9 10  1  0
  9  8  1  0
 10 11  1  6
 12 10  1  0
 12 13  1  1
 13  6  1  0
 14 12  1  0
 15 14  2  0
 17 16  1  1
 17 19  1  0
 18 17  1  0
 20 19  1  1
 20 21  1  0
 21 14  1  0
 22 23  1  0
 22 20  1  0
 24 22  2  0
M  END
$$$$
