VIL.pdb
     RDKit          3D

 24 23  0  0  1  0  0  0  0  0999 V2000
    7.8275  -20.2241   24.4560 C   0  0  0  0  0  0  0  0  0  0  0  0
    6.5043  -19.4838   24.3136 C   0  0  2  0  0  0  0  0  0  0  0  0
    5.3913  -20.4732   24.5780 C   0  0  0  0  0  0  0  0  0  0  0  0
    6.3477  -18.9180   22.9179 C   0  0  2  0  0  0  0  0  0  0  0  0
    6.2856  -20.0163   21.9731 N   0  0  0  0  0  0  0  0  0  0  0  0
    7.4072  -17.9701   22.5673 C   0  0  0  0  0  0  0  0  0  0  0  0
    8.3591  -18.3810   21.8207 O   0  0  0  0  0  0  0  0  0  0  0  0
    6.5782  -13.0552   20.7013 C   0  0  0  0  0  0  0  0  0  0  0  0
    7.2573  -14.3880   20.9047 C   0  0  0  0  0  0  0  0  0  0  0  0
    7.9551  -14.3452   22.2359 C   0  0  2  0  0  0  0  0  0  0  0  0
    9.0915  -13.3411   22.1468 C   0  0  0  0  0  0  0  0  0  0  0  0
    8.5280  -15.7066   22.6095 C   0  0  2  0  0  0  0  0  0  0  0  0
    7.4760  -16.6320   22.9810 N   0  0  0  0  0  0  0  0  0  0  0  0
    9.5615  -15.5798   23.6417 C   0  0  0  0  0  0  0  0  0  0  0  0
   10.4203  -14.6698   23.5710 O   0  0  0  0  0  0  0  0  0  0  0  0
   10.8247  -13.4475   27.6538 C   0  0  0  0  0  0  0  0  0  0  0  0
    9.4760  -14.1987   27.7729 C   0  0  1  0  0  0  0  0  0  0  0  0
    8.4811  -13.1621   28.2224 C   0  0  0  0  0  0  0  0  0  0  0  0
    9.2182  -14.8003   26.4451 C   0  0  0  0  0  0  0  0  0  0  0  0
   10.0028  -15.9871   26.0328 C   0  0  2  0  0  0  0  0  0  0  0  0
    9.6396  -16.4597   24.7461 N   0  0  0  0  0  0  0  0  0  0  0  0
   10.0574  -17.0498   27.0647 C   0  0  0  0  0  0  0  0  0  0  0  0
    9.3691  -18.2379   26.8598 O   0  0  0  0  0  0  0  0  0  0  0  0
   10.7001  -16.9491   28.1416 O   0  0  0  0  0  0  0  0  0  0  0  0
  2  1  1  6
  2  3  1  0
  2  4  1  0
  4  5  1  6
  6  7  2  0
  6  4  1  0
  9 10  1  0
  9  8  1  0
 10 11  1  6
 12 10  1  0
 12 13  1  1
 13  6  1  0
 14 12  1  0
 15 14  2  0
 17 16  1  6
 17 19  1  0
 18 17  1  0
 20 19  1  1
 20 21  1  0
 21 14  1  0
 22 23  1  0
 22 20  1  0
 24 22  2  0
M  END
$$$$
