VIL.pdb
     RDKit          3D

 24 23  0  0  1  0  0  0  0  0999 V2000
    7.3671  -19.3590   23.8772 C   0  0  0  0  0  0  0  0  0  0  0  0
    6.1497  -18.8991   23.0861 C   0  0  2  0  0  0  0  0  0  0  0  0
    5.1828  -20.0597   23.0113 C   0  0  0  0  0  0  0  0  0  0  0  0
    6.5405  -18.4840   21.6833 C   0  0  2  0  0  0  0  0  0  0  0  0
    7.0965  -19.6324   20.9944 N   0  0  0  0  0  0  0  0  0  0  0  0
    7.4654  -17.3491   21.6640 C   0  0  0  0  0  0  0  0  0  0  0  0
    8.7145  -17.5930   21.5514 O   0  0  0  0  0  0  0  0  0  0  0  0
    6.8722  -12.5507   19.2070 C   0  0  0  0  0  0  0  0  0  0  0  0
    7.4788  -13.8069   19.7840 C   0  0  0  0  0  0  0  0  0  0  0  0
    7.5485  -13.6352   21.2762 C   0  0  2  0  0  0  0  0  0  0  0  0
    8.5209  -12.5089   21.5820 C   0  0  0  0  0  0  0  0  0  0  0  0
    8.0342  -14.9060   21.9620 C   0  0  2  0  0  0  0  0  0  0  0  0
    7.1029  -15.9979   21.7589 N   0  0  0  0  0  0  0  0  0  0  0  0
    8.3236  -14.6643   23.3789 C   0  0  0  0  0  0  0  0  0  0  0  0
    8.6142  -13.5129   23.7795 O   0  0  0  0  0  0  0  0  0  0  0  0
    6.2250  -12.3447   26.2989 C   0  0  0  0  0  0  0  0  0  0  0  0
    7.5519  -13.0218   25.8763 C   0  0  1  0  0  0  0  0  0  0  0  0
    8.6317  -12.2785   26.6166 C   0  0  0  0  0  0  0  0  0  0  0  0
    7.4124  -14.4555   26.2173 C   0  0  0  0  0  0  0  0  0  0  0  0
    8.4327  -15.4104   25.7261 C   0  0  2  0  0  0  0  0  0  0  0  0
    8.2899  -15.6969   24.3446 N   0  0  0  0  0  0  0  0  0  0  0  0
    8.5717  -16.6182   26.5740 C   0  0  0  0  0  0  0  0  0  0  0  0
    8.4466  -17.8756   25.9989 O   0  0  0  0  0  0  0  0  0  0  0  0
    8.8010  -16.5842   27.8106 O   0  0  0  0  0  0  0  0  0  0  0  0
  2  1  1  1
  2  3  1  0
  2  4  1  0
  4  5  1  1
  6  7  2  0
  6  4  1  0
  9 10  1  0
  9  8  1  0
 10 11  1  6
 12 10  1  0
 12 13  1  1
 13  6  1  0
 14 12  1  0
 15 14  2  0
 17 16  1  1
 17 19  1  0
 18 17  1  0
 20 19  1  1
 20 21  1  0
 21 14  1  0
 22 23  1  0
 22 20  1  0
 24 22  2  0
M  END
$$$$
