VIL.pdb
     RDKit          3D

 24 23  0  0  1  0  0  0  0  0999 V2000
    8.4806  -12.6253   18.1098 C   0  0  0  0  0  0  0  0  0  0  0  0
    7.8336  -13.3168   19.3025 C   0  0  2  0  0  0  0  0  0  0  0  0
    8.2767  -12.5905   20.5531 C   0  0  0  0  0  0  0  0  0  0  0  0
    8.2649  -14.7658   19.3878 C   0  0  2  0  0  0  0  0  0  0  0  0
    7.8068  -15.4600   18.2000 N   0  0  0  0  0  0  0  0  0  0  0  0
    7.7968  -15.4267   20.6077 C   0  0  0  0  0  0  0  0  0  0  0  0
    6.5365  -15.5353   20.7873 O   0  0  0  0  0  0  0  0  0  0  0  0
    8.1412  -20.2408   21.8794 C   0  0  0  0  0  0  0  0  0  0  0  0
    7.7872  -18.7793   21.7469 C   0  0  0  0  0  0  0  0  0  0  0  0
    8.4379  -18.0477   22.8881 C   0  0  2  0  0  0  0  0  0  0  0  0
    7.9027  -18.6206   24.1892 C   0  0  0  0  0  0  0  0  0  0  0  0
    8.1303  -16.5562   22.8424 C   0  0  2  0  0  0  0  0  0  0  0  0
    8.6154  -15.9601   21.6135 N   0  0  0  0  0  0  0  0  0  0  0  0
    8.6343  -15.8759   24.0395 C   0  0  0  0  0  0  0  0  0  0  0  0
    9.8668  -15.7357   24.2178 O   0  0  0  0  0  0  0  0  0  0  0  0
    5.7026  -11.9518   26.6701 C   0  0  0  0  0  0  0  0  0  0  0  0
    6.7306  -12.7438   25.8254 C   0  0  1  0  0  0  0  0  0  0  0  0
    7.6450  -11.7045   25.2337 C   0  0  0  0  0  0  0  0  0  0  0  0
    7.3700  -13.7083   26.7486 C   0  0  0  0  0  0  0  0  0  0  0  0
    8.2910  -14.7272   26.1936 C   0  0  2  0  0  0  0  0  0  0  0  0
    7.7727  -15.3545   25.0324 N   0  0  0  0  0  0  0  0  0  0  0  0
    8.8024  -15.6796   27.2078 C   0  0  0  0  0  0  0  0  0  0  0  0
    9.6570  -15.2252   28.2031 O   0  0  0  0  0  0  0  0  0  0  0  0
    8.5094  -16.9029   27.2316 O   0  0  0  0  0  0  0  0  0  0  0  0
  2  1  1  6
  2  3  1  0
  2  4  1  0
  4  5  1  6
  6  7  2  0
  6  4  1  0
  9 10  1  0
  9  8  1  0
 10 11  1  1
 12 10  1  0
 12 13  1  6
 13  6  1  0
 14 12  1  0
 15 14  2  0
 17 16  1  1
 17 19  1  0
 18 17  1  0
 20 19  1  1
 20 21  1  0
 21 14  1  0
 22 23  1  0
 22 20  1  0
 24 22  2  0
M  END
$$$$
