WYS.pdb
     RDKit          3D

 33 35  0  0  1  0  0  0  0  0999 V2000
   20.6178  -19.9702  -15.3659 N   0  0  0  0  0  0  0  0  0  0  0  0
   22.0302  -19.8169  -15.4884 C   0  0  1  0  0  0  0  0  0  0  0  0
   22.3657  -18.6573  -16.3768 C   0  0  0  0  0  0  0  0  0  0  0  0
   21.8590  -18.7912  -17.7536 C   0  0  0  0  0  0  0  0  0  0  0  0
   20.8450  -18.0241  -18.3104 C   0  0  0  0  0  0  0  0  0  0  0  0
   20.6626  -18.4008  -19.5845 N   0  0  0  0  0  0  0  0  0  0  0  0
   21.5211  -19.3941  -19.8953 C   0  0  0  0  0  0  0  0  0  0  0  0
   21.6897  -20.0884  -21.0754 C   0  0  0  0  0  0  0  0  0  0  0  0
   22.6382  -21.0730  -21.1382 C   0  0  0  0  0  0  0  0  0  0  0  0
   23.3986  -21.3444  -20.0223 C   0  0  0  0  0  0  0  0  0  0  0  0
   23.2239  -20.6423  -18.8390 C   0  0  0  0  0  0  0  0  0  0  0  0
   22.2652  -19.6388  -18.7594 C   0  0  0  0  0  0  0  0  0  0  0  0
   22.6271  -19.6866  -14.1417 C   0  0  0  0  0  0  0  0  0  0  0  0
   22.4997  -18.6126  -13.5164 O   0  0  0  0  0  0  0  0  0  0  0  0
   18.0491  -19.2538  -10.4671 O   0  0  0  0  0  0  0  0  0  0  0  0
   19.3290  -19.7658  -10.6521 C   0  0  0  0  0  0  0  0  0  0  0  0
   20.4218  -19.2687   -9.9737 C   0  0  0  0  0  0  0  0  0  0  0  0
   21.6913  -19.7493  -10.1328 C   0  0  0  0  0  0  0  0  0  0  0  0
   21.8811  -20.7995  -11.0324 C   0  0  0  0  0  0  0  0  0  0  0  0
   23.1998  -21.3785  -11.2744 C   0  0  0  0  0  0  0  0  0  0  0  0
   24.0440  -20.6582  -12.2938 C   0  0  2  0  0  0  0  0  0  0  0  0
   23.3379  -20.7546  -13.5509 N   0  0  0  0  0  0  0  0  0  0  0  0
   25.3967  -21.2413  -12.4436 C   0  0  0  0  0  0  0  0  0  0  0  0
   25.5789  -22.4536  -12.1652 O   0  0  0  0  0  0  0  0  0  0  0  0
   20.7951  -21.3102  -11.7217 C   0  0  0  0  0  0  0  0  0  0  0  0
   19.5223  -20.8078  -11.5437 C   0  0  0  0  0  0  0  0  0  0  0  0
   28.1776  -18.7818  -13.6218 O   0  0  0  0  0  0  0  0  0  0  0  0
   28.8370  -19.9703  -13.2971 C   0  0  0  0  0  0  0  0  0  0  0  0
   27.8436  -20.8489  -12.5612 C   0  0  2  0  0  0  0  0  0  0  0  0
   26.4950  -20.4546  -12.8971 N   0  0  0  0  0  0  0  0  0  0  0  0
   28.0719  -20.7659  -11.1069 C   0  0  0  0  0  0  0  0  0  0  0  0
   27.1498  -20.3953  -10.3527 O   0  0  0  0  0  0  0  0  0  0  0  0
   29.3045  -21.0966  -10.5669 O   0  0  0  0  0  0  0  0  0  0  0  0
  2  1  1  1
  3  2  1  0
  4  3  1  0
  4  5  2  0
  6  5  1  0
  7  6  1  0
  8  7  2  0
  9  8  1  0
 10  9  2  0
 10 11  1  0
 11 12  2  0
 12  7  1  0
 12  4  1  0
 13  2  1  0
 14 13  2  0
 16 15  1  0
 16 17  2  0
 18 17  1  0
 19 18  2  0
 20 19  1  0
 21 20  1  1
 21 22  1  0
 22 13  1  0
 23 21  1  0
 24 23  2  0
 25 26  2  0
 25 19  1  0
 26 16  1  0
 27 28  1  0
 29 28  1  6
 29 30  1  0
 30 23  1  0
 31 33  1  0
 31 29  1  0
 32 31  2  0
M  END
$$$$
