WYS.pdb
     RDKit          3D

 33 35  0  0  1  0  0  0  0  0999 V2000
   15.2258  -13.6301    6.9353 N   0  0  0  0  0  0  0  0  0  0  0  0
   16.1164  -14.7025    6.6347 C   0  0  1  0  0  0  0  0  0  0  0  0
   17.5411  -14.2871    6.8441 C   0  0  0  0  0  0  0  0  0  0  0  0
   18.1085  -13.5096    5.7289 C   0  0  0  0  0  0  0  0  0  0  0  0
   18.5177  -12.1853    5.8042 C   0  0  0  0  0  0  0  0  0  0  0  0
   19.0035  -11.8104    4.6119 N   0  0  0  0  0  0  0  0  0  0  0  0
   18.9313  -12.8407    3.7438 C   0  0  0  0  0  0  0  0  0  0  0  0
   19.3046  -12.9156    2.4178 C   0  0  0  0  0  0  0  0  0  0  0  0
   19.1197  -14.0901    1.7401 C   0  0  0  0  0  0  0  0  0  0  0  0
   18.5660  -15.1653    2.3993 C   0  0  0  0  0  0  0  0  0  0  0  0
   18.1931  -15.0830    3.7327 C   0  0  0  0  0  0  0  0  0  0  0  0
   18.3752  -13.8974    4.4352 C   0  0  0  0  0  0  0  0  0  0  0  0
   15.7492  -15.8849    7.4432 C   0  0  0  0  0  0  0  0  0  0  0  0
   15.3150  -15.7230    8.6034 O   0  0  0  0  0  0  0  0  0  0  0  0
   15.3353  -20.6099    1.6467 O   0  0  0  0  0  0  0  0  0  0  0  0
   15.1068  -20.2375    2.9671 C   0  0  0  0  0  0  0  0  0  0  0  0
   15.2539  -21.1231    4.0138 C   0  0  0  0  0  0  0  0  0  0  0  0
   15.0373  -20.7888    5.3211 C   0  0  0  0  0  0  0  0  0  0  0  0
   14.6465  -19.4784    5.6012 C   0  0  0  0  0  0  0  0  0  0  0  0
   14.3875  -19.0260    6.9653 C   0  0  0  0  0  0  0  0  0  0  0  0
   15.5594  -18.3909    7.6683 C   0  0  2  0  0  0  0  0  0  0  0  0
   15.8806  -17.1929    6.9267 N   0  0  0  0  0  0  0  0  0  0  0  0
   16.7497  -19.2698    7.7223 C   0  0  0  0  0  0  0  0  0  0  0  0
   17.6371  -19.1597    6.8385 O   0  0  0  0  0  0  0  0  0  0  0  0
   14.4940  -18.5767    4.5624 C   0  0  0  0  0  0  0  0  0  0  0  0
   14.7188  -18.9384    3.2499 C   0  0  0  0  0  0  0  0  0  0  0  0
   19.6842  -22.0921   10.1612 O   0  0  0  0  0  0  0  0  0  0  0  0
   18.5777  -21.2396   10.2014 C   0  0  0  0  0  0  0  0  0  0  0  0
   18.0844  -21.0760    8.7765 C   0  0  2  0  0  0  0  0  0  0  0  0
   16.9083  -20.2374    8.7564 N   0  0  0  0  0  0  0  0  0  0  0  0
   17.8030  -22.3955    8.1817 C   0  0  0  0  0  0  0  0  0  0  0  0
   16.6278  -22.7219    7.9199 O   0  0  0  0  0  0  0  0  0  0  0  0
   18.8342  -23.2802    7.9092 O   0  0  0  0  0  0  0  0  0  0  0  0
  2  1  1  1
  3  2  1  0
  4  3  1  0
  4  5  2  0
  6  5  1  0
  7  6  1  0
  8  7  2  0
  9  8  1  0
 10  9  2  0
 10 11  1  0
 11 12  2  0
 12  7  1  0
 12  4  1  0
 13  2  1  0
 14 13  2  0
 16 15  1  0
 16 17  2  0
 18 17  1  0
 19 18  2  0
 20 19  1  0
 21 20  1  6
 21 22  1  0
 22 13  1  0
 23 21  1  0
 24 23  2  0
 25 26  2  0
 25 19  1  0
 26 16  1  0
 27 28  1  0
 29 28  1  1
 29 30  1  0
 30 23  1  0
 31 33  1  0
 31 29  1  0
 32 31  2  0
M  END
$$$$
