WYS.pdb
     RDKit          3D

 33 35  0  0  1  0  0  0  0  0999 V2000
   23.1819  -16.4239  -18.3658 N   0  0  0  0  0  0  0  0  0  0  0  0
   23.3227  -17.8077  -18.0517 C   0  0  1  0  0  0  0  0  0  0  0  0
   24.7117  -18.2841  -18.3520 C   0  0  0  0  0  0  0  0  0  0  0  0
   25.1085  -18.1233  -19.7615 C   0  0  0  0  0  0  0  0  0  0  0  0
   26.1254  -17.2952  -20.2164 C   0  0  0  0  0  0  0  0  0  0  0  0
   26.2248  -17.4176  -21.5481 N   0  0  0  0  0  0  0  0  0  0  0  0
   25.3075  -18.2995  -21.9963 C   0  0  0  0  0  0  0  0  0  0  0  0
   25.0397  -18.7312  -23.2789 C   0  0  0  0  0  0  0  0  0  0  0  0
   24.0366  -19.6405  -23.4789 C   0  0  0  0  0  0  0  0  0  0  0  0
   23.3214  -20.0999  -22.3951 C   0  0  0  0  0  0  0  0  0  0  0  0
   23.5961  -19.6617  -21.1082 C   0  0  0  0  0  0  0  0  0  0  0  0
   24.6123  -18.7391  -20.8884 C   0  0  0  0  0  0  0  0  0  0  0  0
   22.9432  -18.0303  -16.6399 C   0  0  0  0  0  0  0  0  0  0  0  0
   23.7594  -17.7542  -15.7353 O   0  0  0  0  0  0  0  0  0  0  0  0
   17.1799  -15.0044  -18.2421 O   0  0  0  0  0  0  0  0  0  0  0  0
   18.0457  -15.5911  -17.3252 C   0  0  0  0  0  0  0  0  0  0  0  0
   19.3859  -15.2704  -17.2746 C   0  0  0  0  0  0  0  0  0  0  0  0
   20.2621  -15.8284  -16.3864 C   0  0  0  0  0  0  0  0  0  0  0  0
   19.7637  -16.7721  -15.4868 C   0  0  0  0  0  0  0  0  0  0  0  0
   20.6210  -17.4269  -14.5025 C   0  0  0  0  0  0  0  0  0  0  0  0
   21.2197  -18.7390  -14.9388 C   0  0  2  0  0  0  0  0  0  0  0  0
   21.6750  -18.5490  -16.2971 N   0  0  0  0  0  0  0  0  0  0  0  0
   20.2538  -19.8604  -14.8964 C   0  0  0  0  0  0  0  0  0  0  0  0
   19.4201  -19.9907  -15.8284 O   0  0  0  0  0  0  0  0  0  0  0  0
   18.4209  -17.1055  -15.5240 C   0  0  0  0  0  0  0  0  0  0  0  0
   17.5558  -16.5280  -16.4306 C   0  0  0  0  0  0  0  0  0  0  0  0
   17.5769  -21.6669  -11.5389 O   0  0  0  0  0  0  0  0  0  0  0  0
   18.7557  -21.0234  -11.9250 C   0  0  0  0  0  0  0  0  0  0  0  0
   19.0037  -21.3743  -13.3796 C   0  0  2  0  0  0  0  0  0  0  0  0
   20.2513  -20.7940  -13.8197 N   0  0  0  0  0  0  0  0  0  0  0  0
   17.8806  -20.9078  -14.2132 C   0  0  0  0  0  0  0  0  0  0  0  0
   17.0582  -21.7298  -14.6651 O   0  0  0  0  0  0  0  0  0  0  0  0
   17.7284  -19.5609  -14.5012 O   0  0  0  0  0  0  0  0  0  0  0  0
  2  1  1  1
  3  2  1  0
  4  3  1  0
  4  5  2  0
  6  5  1  0
  7  6  1  0
  8  7  2  0
  9  8  1  0
 10  9  2  0
 10 11  1  0
 11 12  2  0
 12  7  1  0
 12  4  1  0
 13  2  1  0
 14 13  2  0
 16 15  1  0
 16 17  2  0
 18 17  1  0
 19 18  2  0
 20 19  1  0
 21 20  1  6
 21 22  1  0
 22 13  1  0
 23 21  1  0
 24 23  2  0
 25 26  2  0
 25 19  1  0
 26 16  1  0
 27 28  1  0
 29 28  1  1
 29 30  1  0
 30 23  1  0
 31 33  1  0
 31 29  1  0
 32 31  2  0
M  END
$$$$
