WYS.pdb
     RDKit          3D

 33 35  0  0  1  0  0  0  0  0999 V2000
   25.8006  -20.8330  -17.6437 N   0  0  0  0  0  0  0  0  0  0  0  0
   24.4015  -21.0592  -17.8008 C   0  0  1  0  0  0  0  0  0  0  0  0
   24.1407  -22.0440  -18.9001 C   0  0  0  0  0  0  0  0  0  0  0  0
   24.4612  -21.5381  -20.2461 C   0  0  0  0  0  0  0  0  0  0  0  0
   25.1479  -22.2453  -21.2234 C   0  0  0  0  0  0  0  0  0  0  0  0
   25.2373  -21.4890  -22.3272 N   0  0  0  0  0  0  0  0  0  0  0  0
   24.6333  -20.3009  -22.1181 C   0  0  0  0  0  0  0  0  0  0  0  0
   24.4843  -19.2176  -22.9591 C   0  0  0  0  0  0  0  0  0  0  0  0
   23.8277  -18.1068  -22.5030 C   0  0  0  0  0  0  0  0  0  0  0  0
   23.3337  -18.0998  -21.2173 C   0  0  0  0  0  0  0  0  0  0  0  0
   23.4870  -19.1927  -20.3771 C   0  0  0  0  0  0  0  0  0  0  0  0
   24.1507  -20.3287  -20.8257 C   0  0  0  0  0  0  0  0  0  0  0  0
   23.8274  -21.4917  -16.5085 C   0  0  0  0  0  0  0  0  0  0  0  0
   23.9161  -22.6908  -16.1693 O   0  0  0  0  0  0  0  0  0  0  0  0
   28.5872  -21.5452  -12.1393 O   0  0  0  0  0  0  0  0  0  0  0  0
   27.2856  -21.1661  -12.4502 C   0  0  0  0  0  0  0  0  0  0  0  0
   27.0121  -20.1283  -13.3160 C   0  0  0  0  0  0  0  0  0  0  0  0
   25.7455  -19.7315  -13.6419 C   0  0  0  0  0  0  0  0  0  0  0  0
   24.6788  -20.4201  -13.0620 C   0  0  0  0  0  0  0  0  0  0  0  0
   23.2897  -20.0689  -13.3444 C   0  0  0  0  0  0  0  0  0  0  0  0
   22.6035  -20.9271  -14.3755 C   0  0  2  0  0  0  0  0  0  0  0  0
   23.1812  -20.5732  -15.6519 N   0  0  0  0  0  0  0  0  0  0  0  0
   21.1386  -20.7172  -14.4236 C   0  0  0  0  0  0  0  0  0  0  0  0
   20.6827  -19.6809  -14.9702 O   0  0  0  0  0  0  0  0  0  0  0  0
   24.9356  -21.4644  -12.1908 C   0  0  0  0  0  0  0  0  0  0  0  0
   26.2240  -21.8464  -11.8773 C   0  0  0  0  0  0  0  0  0  0  0  0
   18.4916  -23.3917  -12.6883 O   0  0  0  0  0  0  0  0  0  0  0  0
   18.0747  -22.7652  -13.8658 C   0  0  0  0  0  0  0  0  0  0  0  0
   18.8126  -21.4432  -13.9571 C   0  0  2  0  0  0  0  0  0  0  0  0
   20.2366  -21.6671  -13.8624 N   0  0  0  0  0  0  0  0  0  0  0  0
   18.3496  -20.5288  -12.8970 C   0  0  0  0  0  0  0  0  0  0  0  0
   19.1566  -20.1042  -12.0458 O   0  0  0  0  0  0  0  0  0  0  0  0
   17.0225  -20.1346  -12.8363 O   0  0  0  0  0  0  0  0  0  0  0  0
  2  1  1  1
  3  2  1  0
  4  3  1  0
  4  5  2  0
  6  5  1  0
  7  6  1  0
  8  7  2  0
  9  8  1  0
 10  9  2  0
 10 11  1  0
 11 12  2  0
 12  7  1  0
 12  4  1  0
 13  2  1  0
 14 13  2  0
 16 15  1  0
 16 17  2  0
 18 17  1  0
 19 18  2  0
 20 19  1  0
 21 20  1  1
 21 22  1  0
 22 13  1  0
 23 21  1  0
 24 23  2  0
 25 26  2  0
 25 19  1  0
 26 16  1  0
 27 28  1  0
 29 28  1  1
 29 30  1  0
 30 23  1  0
 31 33  1  0
 31 29  1  0
 32 31  2  0
M  END
$$$$
