WYS.pdb
     RDKit          3D

 33 35  0  0  1  0  0  0  0  0999 V2000
   27.1602  -19.0400  -17.9748 N   0  0  0  0  0  0  0  0  0  0  0  0
   26.6561  -18.4183  -16.7946 C   0  0  1  0  0  0  0  0  0  0  0  0
   25.7886  -17.2455  -17.1385 C   0  0  0  0  0  0  0  0  0  0  0  0
   26.5395  -16.0322  -17.5053 C   0  0  0  0  0  0  0  0  0  0  0  0
   26.7061  -15.5554  -18.7982 C   0  0  0  0  0  0  0  0  0  0  0  0
   27.4206  -14.4214  -18.7561 N   0  0  0  0  0  0  0  0  0  0  0  0
   27.7363  -14.1265  -17.4780 C   0  0  0  0  0  0  0  0  0  0  0  0
   28.4574  -13.0708  -16.9598 C   0  0  0  0  0  0  0  0  0  0  0  0
   28.6503  -12.9974  -15.6069 C   0  0  0  0  0  0  0  0  0  0  0  0
   28.1199  -13.9790  -14.7992 C   0  0  0  0  0  0  0  0  0  0  0  0
   27.3958  -15.0377  -15.3270 C   0  0  0  0  0  0  0  0  0  0  0  0
   27.1905  -15.1260  -16.6990 C   0  0  0  0  0  0  0  0  0  0  0  0
   25.9453  -19.4247  -15.9768 C   0  0  0  0  0  0  0  0  0  0  0  0
   25.3730  -20.3804  -16.5424 O   0  0  0  0  0  0  0  0  0  0  0  0
   22.6269  -22.2585   -8.1301 O   0  0  0  0  0  0  0  0  0  0  0  0
   23.3570  -21.7108   -9.1796 C   0  0  0  0  0  0  0  0  0  0  0  0
   22.9053  -21.7445  -10.4820 C   0  0  0  0  0  0  0  0  0  0  0  0
   23.5982  -21.2158  -11.5348 C   0  0  0  0  0  0  0  0  0  0  0  0
   24.8276  -20.6117  -11.2667 C   0  0  0  0  0  0  0  0  0  0  0  0
   25.6437  -20.0219  -12.3243 C   0  0  0  0  0  0  0  0  0  0  0  0
   25.1004  -20.1767  -13.7213 C   0  0  2  0  0  0  0  0  0  0  0  0
   25.9025  -19.3240  -14.5686 N   0  0  0  0  0  0  0  0  0  0  0  0
   23.6770  -19.7860  -13.8372 C   0  0  0  0  0  0  0  0  0  0  0  0
   23.3515  -18.5849  -13.6582 O   0  0  0  0  0  0  0  0  0  0  0  0
   25.2958  -20.5692   -9.9650 C   0  0  0  0  0  0  0  0  0  0  0  0
   24.5774  -21.1103   -8.9185 C   0  0  0  0  0  0  0  0  0  0  0  0
   21.2122  -21.1605  -16.4460 O   0  0  0  0  0  0  0  0  0  0  0  0
   20.9585  -20.0073  -15.6988 C   0  0  0  0  0  0  0  0  0  0  0  0
   21.2915  -20.3257  -14.2537 C   0  0  2  0  0  0  0  0  0  0  0  0
   22.6697  -20.7453  -14.1475 N   0  0  0  0  0  0  0  0  0  0  0  0
   20.3813  -21.3656  -13.7399 C   0  0  0  0  0  0  0  0  0  0  0  0
   20.8382  -22.4685  -13.3779 O   0  0  0  0  0  0  0  0  0  0  0  0
   19.0184  -21.1298  -13.6544 O   0  0  0  0  0  0  0  0  0  0  0  0
  2  1  1  6
  3  2  1  0
  4  3  1  0
  4  5  2  0
  6  5  1  0
  7  6  1  0
  8  7  2  0
  9  8  1  0
 10  9  2  0
 10 11  1  0
 11 12  2  0
 12  7  1  0
 12  4  1  0
 13  2  1  0
 14 13  2  0
 16 15  1  0
 16 17  2  0
 18 17  1  0
 19 18  2  0
 20 19  1  0
 21 20  1  1
 21 22  1  0
 22 13  1  0
 23 21  1  0
 24 23  2  0
 25 26  2  0
 25 19  1  0
 26 16  1  0
 27 28  1  0
 29 28  1  6
 29 30  1  0
 30 23  1  0
 31 33  1  0
 31 29  1  0
 32 31  2  0
M  END
$$$$
