SRK.pdb
     RDKit          3D

 27 26  0  0  1  0  0  0  0  0999 V2000
   22.6259   -5.3702  -12.9277 O   0  0  0  0  0  0  0  0  0  0  0  0
   21.2795   -5.2525  -12.6498 C   0  0  0  0  0  0  0  0  0  0  0  0
   20.6699   -6.6269  -12.5547 C   0  0  2  0  0  0  0  0  0  0  0  0
   20.8270   -7.3133  -13.8126 N   0  0  0  0  0  0  0  0  0  0  0  0
   19.2353   -6.5421  -12.2073 C   0  0  0  0  0  0  0  0  0  0  0  0
   18.3972   -6.2999  -13.1029 O   0  0  0  0  0  0  0  0  0  0  0  0
   13.1708  -11.7635   -9.2848 N   0  0  0  0  0  0  0  0  0  0  0  0
   12.6189  -10.4520   -9.3567 C   0  0  0  0  0  0  0  0  0  0  0  0
   11.3371  -10.3364   -9.2984 N   0  0  0  0  0  0  0  0  0  0  0  0
   13.4334   -9.3082   -9.4798 N   0  0  0  0  0  0  0  0  0  0  0  0
   14.8715   -9.3864   -9.6027 C   0  0  0  0  0  0  0  0  0  0  0  0
   15.4123   -8.0050   -9.8235 C   0  0  0  0  0  0  0  0  0  0  0  0
   16.8724   -7.9798  -10.1236 C   0  0  0  0  0  0  0  0  0  0  0  0
   17.4085   -6.6319  -10.5434 C   0  0  2  0  0  0  0  0  0  0  0  0
   18.8167   -6.7333  -10.8706 N   0  0  0  0  0  0  0  0  0  0  0  0
   17.2648   -5.6203   -9.4757 C   0  0  0  0  0  0  0  0  0  0  0  0
   17.8196   -5.8152   -8.3765 O   0  0  0  0  0  0  0  0  0  0  0  0
   10.8713   -9.4082   -9.3633 N   0  0  0  0  0  0  0  0  0  0  0  0
   16.5171   -4.4691   -9.7045 C   0  0  2  0  0  0  0  0  0  0  0  0
   16.3129   -3.5575   -8.4948 C   0  0  0  0  0  0  0  0  0  0  0  0
   17.1581   -2.3941   -8.7902 C   0  0  0  0  0  0  0  0  0  0  0  0
   17.2146   -1.1923   -7.9960 C   0  0  0  0  0  0  0  0  0  0  0  0
   17.9637    0.0226   -8.3080 C   0  0  0  0  0  0  0  0  0  0  0  0
   17.8612    1.0623   -7.2267 N   0  0  0  0  0  0  0  0  0  0  0  0
   18.6992    2.2052   -7.4229 C   0  0  0  0  0  0  0  0  0  0  0  0
   14.8388   -3.3248   -8.6611 O   0  0  0  0  0  0  0  0  0  0  0  0
   14.0849   -3.6734   -9.7157 O   0  0  0  0  0  0  0  0  0  0  0  0
  2  1  1  0
  3  4  1  6
  3  2  1  0
  5  3  1  0
  6  5  2  0
  7  8  1  0
  8 10  1  0
  9  8  2  0
 11 10  1  0
 11 12  1  0
 14 13  1  1
 13 12  1  0
 14 15  1  0
 15  5  1  0
 16 17  2  0
 16 14  1  0
 18 16  1  0
 19 18  1  0
 20 21  1  0
 19 20  1  6
 22 21  1  0
 23 22  1  0
 24 23  1  0
 25 26  1  0
 25 19  1  0
 27 25  2  0
M  END
$$$$
