SRK.pdb
     RDKit          3D

 27 26  0  0  1  0  0  0  0  0999 V2000
   11.9737   -7.8330   -8.3390 O   0  0  0  0  0  0  0  0  0  0  0  0
   13.2631   -7.5747   -8.7569 C   0  0  0  0  0  0  0  0  0  0  0  0
   13.8193   -8.7984   -9.4371 C   0  0  2  0  0  0  0  0  0  0  0  0
   14.1582   -9.7897   -8.4468 N   0  0  0  0  0  0  0  0  0  0  0  0
   15.0175   -8.4575  -10.2335 C   0  0  0  0  0  0  0  0  0  0  0  0
   16.0870   -8.1775   -9.6494 O   0  0  0  0  0  0  0  0  0  0  0  0
   17.4596  -13.8849  -15.3910 N   0  0  0  0  0  0  0  0  0  0  0  0
   16.1971  -13.2691  -15.1534 C   0  0  0  0  0  0  0  0  0  0  0  0
   15.1746  -13.7336  -15.7848 N   0  0  0  0  0  0  0  0  0  0  0  0
   16.0522  -12.1921  -14.2556 N   0  0  0  0  0  0  0  0  0  0  0  0
   17.1419  -11.7082  -13.4384 C   0  0  0  0  0  0  0  0  0  0  0  0
   16.6365  -10.5929  -12.5721 C   0  0  0  0  0  0  0  0  0  0  0  0
   16.5329   -9.2877  -13.2848 C   0  0  0  0  0  0  0  0  0  0  0  0
   16.1370   -8.1205  -12.4122 C   0  0  2  0  0  0  0  0  0  0  0  0
   14.9516   -8.4483  -11.6456 N   0  0  0  0  0  0  0  0  0  0  0  0
   15.8408   -6.9095  -13.2057 C   0  0  0  0  0  0  0  0  0  0  0  0
   14.7437   -6.8209  -13.7910 O   0  0  0  0  0  0  0  0  0  0  0  0
   14.2270  -13.3217  -15.6628 N   0  0  0  0  0  0  0  0  0  0  0  0
   16.7816   -5.8877  -13.2927 C   0  0  1  0  0  0  0  0  0  0  0  0
   16.4262   -4.7347  -14.2309 C   0  0  0  0  0  0  0  0  0  0  0  0
   15.4363   -3.9613  -13.4712 C   0  0  0  0  0  0  0  0  0  0  0  0
   14.8804   -2.6979  -13.8872 C   0  0  0  0  0  0  0  0  0  0  0  0
   13.9234   -1.8814  -13.1442 C   0  0  0  0  0  0  0  0  0  0  0  0
   13.4512   -0.6856  -13.9239 N   0  0  0  0  0  0  0  0  0  0  0  0
   12.5306    0.1540  -13.2206 C   0  0  0  0  0  0  0  0  0  0  0  0
   17.7890   -4.1092  -14.3110 O   0  0  0  0  0  0  0  0  0  0  0  0
   18.9111   -4.5514  -13.7217 O   0  0  0  0  0  0  0  0  0  0  0  0
  2  1  1  0
  3  4  1  1
  3  2  1  0
  5  3  1  0
  6  5  2  0
  7  8  1  0
  8 10  1  0
  9  8  2  0
 11 10  1  0
 11 12  1  0
 14 13  1  6
 13 12  1  0
 14 15  1  0
 15  5  1  0
 16 17  2  0
 16 14  1  0
 18 16  1  0
 19 18  1  0
 20 21  1  0
 19 20  1  6
 22 21  1  0
 23 22  1  0
 24 23  1  0
 25 26  1  0
 25 19  1  0
 27 25  2  0
M  END
$$$$
