SRK.pdb
     RDKit          3D

 27 26  0  0  1  0  0  0  0  0999 V2000
   23.8164  -18.5066  -17.8763 O   0  0  0  0  0  0  0  0  0  0  0  0
   24.9760  -18.6014  -17.1345 C   0  0  0  0  0  0  0  0  0  0  0  0
   25.0938  -19.9941  -16.5725 C   0  0  2  0  0  0  0  0  0  0  0  0
   25.1690  -20.9462  -17.6524 N   0  0  0  0  0  0  0  0  0  0  0  0
   23.9376  -20.3105  -15.7069 C   0  0  0  0  0  0  0  0  0  0  0  0
   23.0123  -21.0249  -16.1504 O   0  0  0  0  0  0  0  0  0  0  0  0
   26.4534  -22.7495  -11.7608 N   0  0  0  0  0  0  0  0  0  0  0  0
   26.6673  -21.3557  -11.9646 C   0  0  0  0  0  0  0  0  0  0  0  0
   27.6595  -21.0032  -12.7068 N   0  0  0  0  0  0  0  0  0  0  0  0
   25.8269  -20.3823  -11.3875 N   0  0  0  0  0  0  0  0  0  0  0  0
   24.7399  -20.7216  -10.4972 C   0  0  0  0  0  0  0  0  0  0  0  0
   23.5144  -20.9990  -11.3163 C   0  0  0  0  0  0  0  0  0  0  0  0
   23.0497  -19.8234  -12.1065 C   0  0  0  0  0  0  0  0  0  0  0  0
   22.7366  -20.1183  -13.5541 C   0  0  2  0  0  0  0  0  0  0  0  0
   23.8809  -19.8069  -14.3871 N   0  0  0  0  0  0  0  0  0  0  0  0
   21.5906  -19.3259  -14.0467 C   0  0  0  0  0  0  0  0  0  0  0  0
   21.7576  -18.1202  -14.3162 O   0  0  0  0  0  0  0  0  0  0  0  0
   27.8285  -20.0060  -12.9511 N   0  0  0  0  0  0  0  0  0  0  0  0
   20.3454  -19.9271  -14.2034 C   0  0  1  0  0  0  0  0  0  0  0  0
   19.2188  -19.0095  -14.6773 C   0  0  0  0  0  0  0  0  0  0  0  0
   18.6823  -19.6990  -15.8571 C   0  0  0  0  0  0  0  0  0  0  0  0
   17.6095  -19.2059  -16.6842 C   0  0  0  0  0  0  0  0  0  0  0  0
   16.2024  -19.5910  -16.6055 C   0  0  0  0  0  0  0  0  0  0  0  0
   15.3631  -18.9476  -17.6743 N   0  0  0  0  0  0  0  0  0  0  0  0
   13.9668  -19.2488  -17.5921 C   0  0  0  0  0  0  0  0  0  0  0  0
   18.3567  -19.0945  -13.4507 O   0  0  0  0  0  0  0  0  0  0  0  0
   18.4761  -19.9755  -12.4450 O   0  0  0  0  0  0  0  0  0  0  0  0
  2  1  1  0
  3  4  1  6
  3  2  1  0
  5  3  1  0
  6  5  2  0
  7  8  1  0
  8 10  1  0
  9  8  2  0
 11 10  1  0
 11 12  1  0
 14 13  1  1
 13 12  1  0
 14 15  1  0
 15  5  1  0
 16 17  2  0
 16 14  1  0
 18 16  1  0
 19 18  1  0
 20 21  1  0
 19 20  1  1
 22 21  1  0
 23 22  1  0
 24 23  1  0
 25 26  1  0
 25 19  1  0
 27 25  2  0
M  END
$$$$
