SRK.pdb
     RDKit          3D

 27 26  0  0  1  0  0  0  0  0999 V2000
   27.7696  -17.9755  -18.2146 O   0  0  0  0  0  0  0  0  0  0  0  0
   27.1508  -19.2086  -18.2274 C   0  0  0  0  0  0  0  0  0  0  0  0
   27.7433  -20.0730  -17.1452 C   0  0  2  0  0  0  0  0  0  0  0  0
   28.7380  -20.9471  -17.7152 N   0  0  0  0  0  0  0  0  0  0  0  0
   26.6942  -20.8757  -16.4810 C   0  0  0  0  0  0  0  0  0  0  0  0
   26.4173  -22.0132  -16.9202 O   0  0  0  0  0  0  0  0  0  0  0  0
   25.8607  -19.2981   -9.6495 N   0  0  0  0  0  0  0  0  0  0  0  0
   25.1735  -20.5289   -9.8562 C   0  0  0  0  0  0  0  0  0  0  0  0
   24.0306  -20.6819   -9.2817 N   0  0  0  0  0  0  0  0  0  0  0  0
   25.7079  -21.5521  -10.6651 N   0  0  0  0  0  0  0  0  0  0  0  0
   26.9811  -21.4273  -11.3381 C   0  0  0  0  0  0  0  0  0  0  0  0
   26.7432  -21.4010  -12.8187 C   0  0  0  0  0  0  0  0  0  0  0  0
   25.3137  -21.1927  -13.1870 C   0  0  0  0  0  0  0  0  0  0  0  0
   25.0377  -21.1858  -14.6716 C   0  0  2  0  0  0  0  0  0  0  0  0
   26.0099  -20.3581  -15.3574 N   0  0  0  0  0  0  0  0  0  0  0  0
   23.6938  -20.6564  -14.9840 C   0  0  0  0  0  0  0  0  0  0  0  0
   23.5057  -19.4243  -14.9576 O   0  0  0  0  0  0  0  0  0  0  0  0
   23.4997  -21.5736   -9.3560 N   0  0  0  0  0  0  0  0  0  0  0  0
   22.6585  -21.5305  -15.3013 C   0  0  2  0  0  0  0  0  0  0  0  0
   21.2847  -20.8905  -15.4987 C   0  0  0  0  0  0  0  0  0  0  0  0
   20.5849  -21.8347  -16.3785 C   0  0  0  0  0  0  0  0  0  0  0  0
   19.2822  -21.6146  -16.9553 C   0  0  0  0  0  0  0  0  0  0  0  0
   18.5467  -22.5342  -17.8202 C   0  0  0  0  0  0  0  0  0  0  0  0
   17.1820  -22.0209  -18.1870 N   0  0  0  0  0  0  0  0  0  0  0  0
   16.4100  -22.9156  -18.9935 C   0  0  0  0  0  0  0  0  0  0  0  0
   20.8397  -20.9159  -14.0648 O   0  0  0  0  0  0  0  0  0  0  0  0
   19.9543  -20.0907  -13.4842 O   0  0  0  0  0  0  0  0  0  0  0  0
  2  1  1  0
  3  4  1  6
  3  2  1  0
  5  3  1  0
  6  5  2  0
  7  8  1  0
  8 10  1  0
  9  8  2  0
 11 10  1  0
 11 12  1  0
 14 13  1  1
 13 12  1  0
 14 15  1  0
 15  5  1  0
 16 17  2  0
 16 14  1  0
 18 16  1  0
 19 18  1  0
 20 21  1  0
 19 20  1  6
 22 21  1  0
 23 22  1  0
 24 23  1  0
 25 26  1  0
 25 19  1  0
 27 25  2  0
M  END
$$$$
