SRK.pdb
     RDKit          3D

 27 26  0  0  1  0  0  0  0  0999 V2000
   31.0276   -9.6631  -17.1502 O   0  0  0  0  0  0  0  0  0  0  0  0
   29.6815   -9.7322  -17.4452 C   0  0  0  0  0  0  0  0  0  0  0  0
   29.2631  -11.1775  -17.5205 C   0  0  2  0  0  0  0  0  0  0  0  0
   29.8801  -11.8002  -18.6649 N   0  0  0  0  0  0  0  0  0  0  0  0
   27.7925  -11.2939  -17.6204 C   0  0  0  0  0  0  0  0  0  0  0  0
   27.2514  -11.3239  -18.7472 O   0  0  0  0  0  0  0  0  0  0  0  0
   22.9229  -17.3201  -14.7935 N   0  0  0  0  0  0  0  0  0  0  0  0
   23.6181  -16.8542  -15.9465 C   0  0  0  0  0  0  0  0  0  0  0  0
   24.1051  -17.7354  -16.7503 N   0  0  0  0  0  0  0  0  0  0  0  0
   23.7706  -15.4795  -16.2179 N   0  0  0  0  0  0  0  0  0  0  0  0
   23.3375  -14.4520  -15.2981 C   0  0  0  0  0  0  0  0  0  0  0  0
   23.7014  -13.1122  -15.8658 C   0  0  0  0  0  0  0  0  0  0  0  0
   25.1709  -12.8650  -15.9095 C   0  0  0  0  0  0  0  0  0  0  0  0
   25.5741  -11.5643  -16.5624 C   0  0  2  0  0  0  0  0  0  0  0  0
   27.0057  -11.3700  -16.4483 N   0  0  0  0  0  0  0  0  0  0  0  0
   24.9095  -10.4009  -15.9391 C   0  0  0  0  0  0  0  0  0  0  0  0
   25.3528   -9.9532  -14.8633 O   0  0  0  0  0  0  0  0  0  0  0  0
   24.6019  -17.4605  -17.6222 N   0  0  0  0  0  0  0  0  0  0  0  0
   23.8034   -9.8206  -16.5527 C   0  0  2  0  0  0  0  0  0  0  0  0
   23.3002   -8.5211  -15.9250 C   0  0  0  0  0  0  0  0  0  0  0  0
   22.6668   -7.8163  -17.0462 C   0  0  0  0  0  0  0  0  0  0  0  0
   21.9914   -6.5466  -16.9469 C   0  0  0  0  0  0  0  0  0  0  0  0
   21.2617   -5.8633  -18.0124 C   0  0  0  0  0  0  0  0  0  0  0  0
   20.6906   -4.5440  -17.5720 N   0  0  0  0  0  0  0  0  0  0  0  0
   19.9114   -3.8742  -18.5676 C   0  0  0  0  0  0  0  0  0  0  0  0
   22.3431   -9.1277  -14.9396 O   0  0  0  0  0  0  0  0  0  0  0  0
   21.7917  -10.3498  -15.0042 O   0  0  0  0  0  0  0  0  0  0  0  0
  2  1  1  0
  3  4  1  6
  3  2  1  0
  5  3  1  0
  6  5  2  0
  7  8  1  0
  8 10  1  0
  9  8  2  0
 11 10  1  0
 11 12  1  0
 14 13  1  1
 13 12  1  0
 14 15  1  0
 15  5  1  0
 16 17  2  0
 16 14  1  0
 18 16  1  0
 19 18  1  0
 20 21  1  0
 19 20  1  6
 22 21  1  0
 23 22  1  0
 24 23  1  0
 25 26  1  0
 25 19  1  0
 27 25  2  0
M  END
$$$$
