SRK.pdb
     RDKit          3D

 27 26  0  0  1  0  0  0  0  0999 V2000
   24.1763  -24.6299  -15.6289 O   0  0  0  0  0  0  0  0  0  0  0  0
   24.5528  -23.6933  -16.5696 C   0  0  0  0  0  0  0  0  0  0  0  0
   25.1826  -22.5152  -15.8731 C   0  0  2  0  0  0  0  0  0  0  0  0
   26.3560  -22.9482  -15.1563 N   0  0  0  0  0  0  0  0  0  0  0  0
   24.2272  -21.8875  -14.9353 C   0  0  0  0  0  0  0  0  0  0  0  0
   24.4513  -21.9305  -13.7060 O   0  0  0  0  0  0  0  0  0  0  0  0
   19.3981  -16.2853  -12.3356 N   0  0  0  0  0  0  0  0  0  0  0  0
   18.4889  -16.6496  -13.3702 C   0  0  0  0  0  0  0  0  0  0  0  0
   17.2287  -16.5959  -13.1079 N   0  0  0  0  0  0  0  0  0  0  0  0
   18.9356  -17.0500  -14.6458 N   0  0  0  0  0  0  0  0  0  0  0  0
   20.3374  -17.1701  -14.9771 C   0  0  0  0  0  0  0  0  0  0  0  0
   20.8982  -18.3699  -14.2730 C   0  0  0  0  0  0  0  0  0  0  0  0
   21.7637  -19.2176  -15.1417 C   0  0  0  0  0  0  0  0  0  0  0  0
   22.2155  -20.5137  -14.5120 C   0  0  2  0  0  0  0  0  0  0  0  0
   23.0687  -21.2442  -15.4278 N   0  0  0  0  0  0  0  0  0  0  0  0
   21.0762  -21.3875  -14.1620 C   0  0  0  0  0  0  0  0  0  0  0  0
   20.5846  -22.1242  -15.0393 O   0  0  0  0  0  0  0  0  0  0  0  0
   16.5136  -16.8436  -13.8220 N   0  0  0  0  0  0  0  0  0  0  0  0
   20.5659  -21.3797  -12.8673 C   0  0  2  0  0  0  0  0  0  0  0  0
   19.4801  -22.4147  -12.5744 C   0  0  0  0  0  0  0  0  0  0  0  0
   19.5644  -22.6044  -11.1210 C   0  0  0  0  0  0  0  0  0  0  0  0
   18.8950  -23.6476  -10.3849 C   0  0  0  0  0  0  0  0  0  0  0  0
   19.0081  -23.9121   -8.9525 C   0  0  0  0  0  0  0  0  0  0  0  0
   18.0803  -25.0000   -8.4875 N   0  0  0  0  0  0  0  0  0  0  0  0
   18.1556  -25.2839   -7.0872 C   0  0  0  0  0  0  0  0  0  0  0  0
   18.3004  -21.6097  -13.0381 O   0  0  0  0  0  0  0  0  0  0  0  0
   17.1375  -22.0874  -13.5086 O   0  0  0  0  0  0  0  0  0  0  0  0
  2  1  1  0
  3  4  1  1
  3  2  1  0
  5  3  1  0
  6  5  2  0
  7  8  1  0
  8 10  1  0
  9  8  2  0
 11 10  1  0
 11 12  1  0
 14 13  1  6
 13 12  1  0
 14 15  1  0
 15  5  1  0
 16 17  2  0
 16 14  1  0
 18 16  1  0
 19 18  1  0
 20 21  1  0
 19 20  1  1
 22 21  1  0
 23 22  1  0
 24 23  1  0
 25 26  1  0
 25 19  1  0
 27 25  2  0
M  END
$$$$
