SRK.pdb
     RDKit          3D

 27 26  0  0  1  0  0  0  0  0999 V2000
   21.2192   -6.2952  -11.9507 O   0  0  0  0  0  0  0  0  0  0  0  0
   21.2743   -7.6485  -11.6873 C   0  0  0  0  0  0  0  0  0  0  0  0
   20.3198   -8.3717  -12.6014 C   0  0  2  0  0  0  0  0  0  0  0  0
   20.5902   -8.0061  -13.9694 N   0  0  0  0  0  0  0  0  0  0  0  0
   18.9184   -8.0427  -12.2637 C   0  0  0  0  0  0  0  0  0  0  0  0
   18.3254   -7.1444  -12.8998 O   0  0  0  0  0  0  0  0  0  0  0  0
   11.8758  -12.7921   -9.5109 N   0  0  0  0  0  0  0  0  0  0  0  0
   11.5487  -11.4059   -9.5441 C   0  0  0  0  0  0  0  0  0  0  0  0
   10.3283  -11.0713   -9.3022 N   0  0  0  0  0  0  0  0  0  0  0  0
   12.5168  -10.4199   -9.8228 N   0  0  0  0  0  0  0  0  0  0  0  0
   13.9056  -10.7393  -10.0644 C   0  0  0  0  0  0  0  0  0  0  0  0
   14.6493   -9.4691  -10.3531 C   0  0  0  0  0  0  0  0  0  0  0  0
   16.0982   -9.6799  -10.6336 C   0  0  0  0  0  0  0  0  0  0  0  0
   16.8768   -8.4181  -10.9204 C   0  0  2  0  0  0  0  0  0  0  0  0
   18.2560   -8.7402  -11.2277 N   0  0  0  0  0  0  0  0  0  0  0  0
   16.8754   -7.4913   -9.7694 C   0  0  0  0  0  0  0  0  0  0  0  0
   17.6031   -7.7408   -8.7885 O   0  0  0  0  0  0  0  0  0  0  0  0
   10.0146  -10.0809   -9.3588 N   0  0  0  0  0  0  0  0  0  0  0  0
   16.0679   -6.3580   -9.7901 C   0  0  2  0  0  0  0  0  0  0  0  0
   16.1226   -5.4796   -8.5405 C   0  0  0  0  0  0  0  0  0  0  0  0
   16.3552   -4.1317   -9.0735 C   0  0  0  0  0  0  0  0  0  0  0  0
   16.6813   -2.9747   -8.2777 C   0  0  0  0  0  0  0  0  0  0  0  0
   17.0280   -1.6456   -8.7756 C   0  0  0  0  0  0  0  0  0  0  0  0
   17.2447   -0.6494   -7.6705 N   0  0  0  0  0  0  0  0  0  0  0  0
   17.5091    0.6835   -8.1183 C   0  0  0  0  0  0  0  0  0  0  0  0
   14.7253   -5.7324   -8.0521 O   0  0  0  0  0  0  0  0  0  0  0  0
   14.2971   -6.8011   -7.3619 O   0  0  0  0  0  0  0  0  0  0  0  0
  2  1  1  0
  3  4  1  6
  3  2  1  0
  5  3  1  0
  6  5  2  0
  7  8  1  0
  8 10  1  0
  9  8  2  0
 11 10  1  0
 11 12  1  0
 14 13  1  1
 13 12  1  0
 14 15  1  0
 15  5  1  0
 16 17  2  0
 16 14  1  0
 18 16  1  0
 19 18  1  0
 20 21  1  0
 19 20  1  6
 22 21  1  0
 23 22  1  0
 24 23  1  0
 25 26  1  0
 25 19  1  0
 27 25  2  0
M  END
$$$$
