SRK.pdb
     RDKit          3D

 27 26  0  0  1  0  0  0  0  0999 V2000
   29.0561  -22.9782  -16.9538 O   0  0  0  0  0  0  0  0  0  0  0  0
   27.8985  -23.1867  -16.2324 C   0  0  0  0  0  0  0  0  0  0  0  0
   26.9366  -22.0585  -16.4998 C   0  0  2  0  0  0  0  0  0  0  0  0
   27.5832  -20.7983  -16.2315 N   0  0  0  0  0  0  0  0  0  0  0  0
   25.7276  -22.1890  -15.6588 C   0  0  0  0  0  0  0  0  0  0  0  0
   25.0518  -23.2398  -15.7090 O   0  0  0  0  0  0  0  0  0  0  0  0
   22.9601  -20.2266   -9.9080 N   0  0  0  0  0  0  0  0  0  0  0  0
   23.8110  -21.0436   -9.1091 C   0  0  0  0  0  0  0  0  0  0  0  0
   23.2934  -21.6255   -8.0828 N   0  0  0  0  0  0  0  0  0  0  0  0
   25.1734  -21.2262   -9.4209 N   0  0  0  0  0  0  0  0  0  0  0  0
   25.8274  -20.5162  -10.4968 C   0  0  0  0  0  0  0  0  0  0  0  0
   25.5623  -21.2401  -11.7834 C   0  0  0  0  0  0  0  0  0  0  0  0
   24.4710  -20.6291  -12.5946 C   0  0  0  0  0  0  0  0  0  0  0  0
   24.2088  -21.3101  -13.9167 C   0  0  2  0  0  0  0  0  0  0  0  0
   25.3400  -21.1311  -14.8048 N   0  0  0  0  0  0  0  0  0  0  0  0
   23.0130  -20.7663  -14.5937 C   0  0  0  0  0  0  0  0  0  0  0  0
   23.0879  -19.6587  -15.1611 O   0  0  0  0  0  0  0  0  0  0  0  0
   23.8326  -22.3134   -7.5183 N   0  0  0  0  0  0  0  0  0  0  0  0
   21.8236  -21.4887  -14.5912 C   0  0  2  0  0  0  0  0  0  0  0  0
   20.7106  -20.9403  -15.4837 C   0  0  0  0  0  0  0  0  0  0  0  0
   20.3013  -22.1025  -16.2819 C   0  0  0  0  0  0  0  0  0  0  0  0
   21.0016  -22.5949  -17.4418 C   0  0  0  0  0  0  0  0  0  0  0  0
   20.5848  -23.6951  -18.3080 C   0  0  0  0  0  0  0  0  0  0  0  0
   21.6122  -24.0337  -19.3522 N   0  0  0  0  0  0  0  0  0  0  0  0
   21.2819  -25.1656  -20.1627 C   0  0  0  0  0  0  0  0  0  0  0  0
   19.7502  -20.5517  -14.3968 O   0  0  0  0  0  0  0  0  0  0  0  0
   18.7109  -19.7094  -14.5072 O   0  0  0  0  0  0  0  0  0  0  0  0
  2  1  1  0
  3  4  1  1
  3  2  1  0
  5  3  1  0
  6  5  2  0
  7  8  1  0
  8 10  1  0
  9  8  2  0
 11 10  1  0
 11 12  1  0
 14 13  1  1
 13 12  1  0
 14 15  1  0
 15  5  1  0
 16 17  2  0
 16 14  1  0
 18 16  1  0
 19 18  1  0
 20 21  1  0
 19 20  1  6
 22 21  1  0
 23 22  1  0
 24 23  1  0
 25 26  1  0
 25 19  1  0
 27 25  2  0
M  END
$$$$
