SRK.pdb
     RDKit          3D

 27 26  0  0  1  0  0  0  0  0999 V2000
   25.2402  -19.0672  -18.1706 O   0  0  0  0  0  0  0  0  0  0  0  0
   24.8875  -20.4002  -18.1225 C   0  0  0  0  0  0  0  0  0  0  0  0
   25.7527  -21.1069  -17.1118 C   0  0  2  0  0  0  0  0  0  0  0  0
   26.2346  -22.3455  -17.6700 N   0  0  0  0  0  0  0  0  0  0  0  0
   24.9956  -21.3788  -15.8712 C   0  0  0  0  0  0  0  0  0  0  0  0
   24.2770  -22.3995  -15.7985 O   0  0  0  0  0  0  0  0  0  0  0  0
   28.3280  -20.8325   -8.3579 N   0  0  0  0  0  0  0  0  0  0  0  0
   28.4756  -21.2678   -9.7064 C   0  0  0  0  0  0  0  0  0  0  0  0
   29.6538  -21.6072  -10.1018 N   0  0  0  0  0  0  0  0  0  0  0  0
   27.3790  -21.3383  -10.5893 N   0  0  0  0  0  0  0  0  0  0  0  0
   26.0203  -21.0886  -10.1640 C   0  0  0  0  0  0  0  0  0  0  0  0
   25.0933  -21.4103  -11.2984 C   0  0  0  0  0  0  0  0  0  0  0  0
   25.0569  -20.3570  -12.3527 C   0  0  0  0  0  0  0  0  0  0  0  0
   24.2825  -20.7312  -13.5940 C   0  0  2  0  0  0  0  0  0  0  0  0
   25.0847  -20.4890  -14.7763 N   0  0  0  0  0  0  0  0  0  0  0  0
   23.0353  -19.9497  -13.7268 C   0  0  0  0  0  0  0  0  0  0  0  0
   23.1064  -18.7140  -13.8755 O   0  0  0  0  0  0  0  0  0  0  0  0
   29.8369  -21.8882  -11.0868 N   0  0  0  0  0  0  0  0  0  0  0  0
   21.8027  -20.5944  -13.6842 C   0  0  1  0  0  0  0  0  0  0  0  0
   20.5748  -19.6862  -13.7428 C   0  0  0  0  0  0  0  0  0  0  0  0
   19.7816  -20.2454  -14.8443 C   0  0  0  0  0  0  0  0  0  0  0  0
   18.6181  -19.6212  -15.4230 C   0  0  0  0  0  0  0  0  0  0  0  0
   17.7277  -20.2007  -16.4260 C   0  0  0  0  0  0  0  0  0  0  0  0
   16.6888  -19.2285  -16.9118 N   0  0  0  0  0  0  0  0  0  0  0  0
   15.7112  -19.7959  -17.7889 C   0  0  0  0  0  0  0  0  0  0  0  0
   20.0406  -19.9765  -12.3698 O   0  0  0  0  0  0  0  0  0  0  0  0
   19.1224  -19.2637  -11.6983 O   0  0  0  0  0  0  0  0  0  0  0  0
  2  1  1  0
  3  4  1  6
  3  2  1  0
  5  3  1  0
  6  5  2  0
  7  8  1  0
  8 10  1  0
  9  8  2  0
 11 10  1  0
 11 12  1  0
 14 13  1  1
 13 12  1  0
 14 15  1  0
 15  5  1  0
 16 17  2  0
 16 14  1  0
 18 16  1  0
 19 18  1  0
 20 21  1  0
 19 20  1  6
 22 21  1  0
 23 22  1  0
 24 23  1  0
 25 26  1  0
 25 19  1  0
 27 25  2  0
M  END
$$$$
