SRK.pdb
     RDKit          3D

 27 26  0  0  1  0  0  0  0  0999 V2000
   22.3890  -18.1250  -18.0714 O   0  0  0  0  0  0  0  0  0  0  0  0
   23.6044  -17.9177  -17.4520 C   0  0  0  0  0  0  0  0  0  0  0  0
   24.1509  -19.2384  -16.9760 C   0  0  2  0  0  0  0  0  0  0  0  0
   24.3589  -20.1105  -18.1049 N   0  0  0  0  0  0  0  0  0  0  0  0
   23.2235  -19.8754  -16.0166 C   0  0  0  0  0  0  0  0  0  0  0  0
   22.5578  -20.8723  -16.3716 O   0  0  0  0  0  0  0  0  0  0  0  0
   25.9022  -22.4898  -11.4332 N   0  0  0  0  0  0  0  0  0  0  0  0
   26.0440  -21.1211  -11.0638 C   0  0  0  0  0  0  0  0  0  0  0  0
   27.2082  -20.5835  -11.1886 N   0  0  0  0  0  0  0  0  0  0  0  0
   24.9564  -20.3640  -10.5835 N   0  0  0  0  0  0  0  0  0  0  0  0
   23.6370  -20.9258  -10.4018 C   0  0  0  0  0  0  0  0  0  0  0  0
   22.9977  -21.0999  -11.7474 C   0  0  0  0  0  0  0  0  0  0  0  0
   22.5824  -19.8147  -12.3784 C   0  0  0  0  0  0  0  0  0  0  0  0
   22.1124  -19.9352  -13.8085 C   0  0  2  0  0  0  0  0  0  0  0  0
   23.0920  -19.3583  -14.7074 N   0  0  0  0  0  0  0  0  0  0  0  0
   20.8289  -19.2376  -14.0316 C   0  0  0  0  0  0  0  0  0  0  0  0
   20.8032  -17.9915  -14.0068 O   0  0  0  0  0  0  0  0  0  0  0  0
   27.3675  -19.5769  -10.9789 N   0  0  0  0  0  0  0  0  0  0  0  0
   19.6698  -19.9717  -14.2647 C   0  0  1  0  0  0  0  0  0  0  0  0
   18.3884  -19.1557  -14.4326 C   0  0  0  0  0  0  0  0  0  0  0  0
   17.5430  -20.0071  -15.2785 C   0  0  0  0  0  0  0  0  0  0  0  0
   16.2214  -19.6604  -15.7385 C   0  0  0  0  0  0  0  0  0  0  0  0
   15.3660  -20.4609  -16.6115 C   0  0  0  0  0  0  0  0  0  0  0  0
   14.0548  -19.7901  -16.9142 N   0  0  0  0  0  0  0  0  0  0  0  0
   13.2217  -20.5054  -17.8314 C   0  0  0  0  0  0  0  0  0  0  0  0
   17.9870  -19.1062  -12.9865 O   0  0  0  0  0  0  0  0  0  0  0  0
   17.2995  -18.1274  -12.3772 O   0  0  0  0  0  0  0  0  0  0  0  0
  2  1  1  0
  3  4  1  6
  3  2  1  0
  5  3  1  0
  6  5  2  0
  7  8  1  0
  8 10  1  0
  9  8  2  0
 11 10  1  0
 11 12  1  0
 14 13  1  1
 13 12  1  0
 14 15  1  0
 15  5  1  0
 16 17  2  0
 16 14  1  0
 18 16  1  0
 19 18  1  0
 20 21  1  0
 19 20  1  6
 22 21  1  0
 23 22  1  0
 24 23  1  0
 25 26  1  0
 25 19  1  0
 27 25  2  0
M  END
$$$$
