AKW.pdb
     RDKit          3D

 29 30  0  0  1  0  0  0  0  0999 V2000
   29.4746  -24.4065  -16.3846 C   0  0  0  0  0  0  0  0  0  0  0  0
   28.9816  -23.6582  -17.6307 C   0  0  2  0  0  0  0  0  0  0  0  0
   30.1520  -23.1799  -18.3147 N   0  0  0  0  0  0  0  0  0  0  0  0
   28.1920  -22.5110  -17.1558 C   0  0  0  0  0  0  0  0  0  0  0  0
   28.7667  -21.5981  -16.5165 O   0  0  0  0  0  0  0  0  0  0  0  0
   26.7883  -22.3609  -17.3767 N   0  0  0  0  0  0  0  0  0  0  0  0
   26.0582  -21.1933  -16.9375 C   0  0  1  0  0  0  0  0  0  0  0  0
   24.9881  -20.8342  -17.9622 C   0  0  0  0  0  0  0  0  0  0  0  0
   24.1043  -19.7291  -17.4963 C   0  0  0  0  0  0  0  0  0  0  0  0
   23.1188  -19.4075  -18.5909 C   0  0  0  0  0  0  0  0  0  0  0  0
   22.2063  -18.2640  -18.2228 C   0  0  0  0  0  0  0  0  0  0  0  0
   21.2017  -18.1299  -19.2709 N   0  0  0  0  0  0  0  0  0  0  0  0
   25.3292  -21.5204  -15.6840 C   0  0  0  0  0  0  0  0  0  0  0  0
   24.7854  -22.6674  -15.6247 O   0  0  0  0  0  0  0  0  0  0  0  0
   25.2267  -20.6333  -14.6033 N   0  0  0  0  0  0  0  0  0  0  0  0
   24.5095  -21.0618  -13.3947 C   0  0  1  0  0  0  0  0  0  0  0  0
   24.9588  -20.1291  -12.3187 C   0  0  0  0  0  0  0  0  0  0  0  0
   24.3021  -20.4016  -11.0414 C   0  0  0  0  0  0  0  0  0  0  0  0
   24.9350  -21.1089  -10.0132 C   0  0  0  0  0  0  0  0  0  0  0  0
   24.0423  -21.2070   -9.0229 N   0  0  0  0  0  0  0  0  0  0  0  0
   22.8929  -20.6089   -9.3591 C   0  0  0  0  0  0  0  0  0  0  0  0
   21.6961  -20.4351   -8.6665 C   0  0  0  0  0  0  0  0  0  0  0  0
   20.6705  -19.7499   -9.2562 C   0  0  0  0  0  0  0  0  0  0  0  0
   20.8416  -19.2446  -10.5246 C   0  0  0  0  0  0  0  0  0  0  0  0
   22.0087  -19.4026  -11.2276 C   0  0  0  0  0  0  0  0  0  0  0  0
   23.0402  -20.0969  -10.6257 C   0  0  0  0  0  0  0  0  0  0  0  0
   23.0633  -21.1089  -13.6303 C   0  0  0  0  0  0  0  0  0  0  0  0
   22.5387  -20.1895  -14.3337 O   0  0  0  0  0  0  0  0  0  0  0  0
   22.2129  -22.0796  -13.1540 O   0  0  0  0  0  0  0  0  0  0  0  0
  2  3  1  0
  2  1  1  1
  4  5  2  0
  4  2  1  0
  6  4  1  0
  7  6  1  0
  7 13  1  0
  7  8  1  6
  9  8  1  0
 10  9  1  0
 11 10  1  0
 12 11  1  0
 13 14  2  0
 13 15  1  0
 15 16  1  0
 16 17  1  1
 16 27  1  0
 18 19  2  0
 18 17  1  0
 20 19  1  0
 21 26  2  0
 21 20  1  0
 22 21  1  0
 23 24  1  0
 23 22  2  0
 24 25  2  0
 25 26  1  0
 26 18  1  0
 27 29  1  0
 28 27  2  0
M  END
$$$$
