AKW.pdb
     RDKit          3D

 29 30  0  0  1  0  0  0  0  0999 V2000
   28.5389  -18.4037  -15.2947 C   0  0  0  0  0  0  0  0  0  0  0  0
   27.1034  -18.7895  -15.6771 C   0  0  2  0  0  0  0  0  0  0  0  0
   26.6485  -17.8039  -16.6196 N   0  0  0  0  0  0  0  0  0  0  0  0
   26.2955  -18.7000  -14.4506 C   0  0  0  0  0  0  0  0  0  0  0  0
   26.0869  -17.5744  -13.9387 O   0  0  0  0  0  0  0  0  0  0  0  0
   25.7202  -19.8281  -13.7887 N   0  0  0  0  0  0  0  0  0  0  0  0
   24.9257  -19.6964  -12.5884 C   0  0  1  0  0  0  0  0  0  0  0  0
   23.6131  -20.4551  -12.7487 C   0  0  0  0  0  0  0  0  0  0  0  0
   23.1507  -20.4963  -14.1643 C   0  0  0  0  0  0  0  0  0  0  0  0
   21.8720  -21.2921  -14.2295 C   0  0  0  0  0  0  0  0  0  0  0  0
   21.2624  -21.2854  -15.6095 C   0  0  0  0  0  0  0  0  0  0  0  0
   20.0299  -22.0630  -15.5647 N   0  0  0  0  0  0  0  0  0  0  0  0
   25.6395  -20.3502  -11.4603 C   0  0  0  0  0  0  0  0  0  0  0  0
   26.0811  -21.5233  -11.6696 O   0  0  0  0  0  0  0  0  0  0  0  0
   25.8336  -19.7339  -10.2161 N   0  0  0  0  0  0  0  0  0  0  0  0
   26.5906  -20.4464   -9.1779 C   0  0  1  0  0  0  0  0  0  0  0  0
   27.2997  -19.3821   -8.4072 C   0  0  0  0  0  0  0  0  0  0  0  0
   28.1382  -19.9347   -7.3448 C   0  0  0  0  0  0  0  0  0  0  0  0
   28.9269  -21.0750   -7.5340 C   0  0  0  0  0  0  0  0  0  0  0  0
   29.5202  -21.3175   -6.3609 N   0  0  0  0  0  0  0  0  0  0  0  0
   29.1586  -20.4069   -5.4488 C   0  0  0  0  0  0  0  0  0  0  0  0
   29.5184  -20.2321   -4.1139 C   0  0  0  0  0  0  0  0  0  0  0  0
   29.0017  -19.1803   -3.4096 C   0  0  0  0  0  0  0  0  0  0  0  0
   28.1349  -18.3138   -4.0353 C   0  0  0  0  0  0  0  0  0  0  0  0
   27.7645  -18.4642   -5.3473 C   0  0  0  0  0  0  0  0  0  0  0  0
   28.2898  -19.5298   -6.0521 C   0  0  0  0  0  0  0  0  0  0  0  0
   25.7127  -21.3198   -8.3931 C   0  0  0  0  0  0  0  0  0  0  0  0
   24.4953  -20.9816   -8.2558 O   0  0  0  0  0  0  0  0  0  0  0  0
   26.0966  -22.4941   -7.7883 O   0  0  0  0  0  0  0  0  0  0  0  0
  2  3  1  0
  2  1  1  1
  4  5  2  0
  4  2  1  0
  6  4  1  0
  7  6  1  0
  7 13  1  0
  7  8  1  6
  9  8  1  0
 10  9  1  0
 11 10  1  0
 12 11  1  0
 13 14  2  0
 13 15  1  0
 15 16  1  0
 16 17  1  1
 16 27  1  0
 18 19  2  0
 18 17  1  0
 20 19  1  0
 21 26  2  0
 21 20  1  0
 22 21  1  0
 23 24  1  0
 23 22  2  0
 24 25  2  0
 25 26  1  0
 26 18  1  0
 27 29  1  0
 28 27  2  0
M  END
$$$$
