AKW.pdb
     RDKit          3D

 29 30  0  0  1  0  0  0  0  0999 V2000
   20.0872  -19.8597  -12.0482 C   0  0  0  0  0  0  0  0  0  0  0  0
   20.3917  -20.8737  -13.1595 C   0  0  2  0  0  0  0  0  0  0  0  0
   19.3753  -21.8873  -13.0829 N   0  0  0  0  0  0  0  0  0  0  0  0
   21.6997  -21.4708  -12.8466 C   0  0  0  0  0  0  0  0  0  0  0  0
   21.7797  -22.3129  -11.9210 O   0  0  0  0  0  0  0  0  0  0  0  0
   22.9092  -21.1522  -13.5375 N   0  0  0  0  0  0  0  0  0  0  0  0
   24.1750  -21.7628  -13.1995 C   0  0  1  0  0  0  0  0  0  0  0  0
   25.0601  -21.8425  -14.4381 C   0  0  0  0  0  0  0  0  0  0  0  0
   26.3812  -22.4689  -14.1523 C   0  0  0  0  0  0  0  0  0  0  0  0
   27.1831  -22.5039  -15.4284 C   0  0  0  0  0  0  0  0  0  0  0  0
   26.8553  -23.7063  -16.2785 C   0  0  0  0  0  0  0  0  0  0  0  0
   27.7651  -23.7181  -17.4177 N   0  0  0  0  0  0  0  0  0  0  0  0
   24.8952  -20.8859  -12.2393 C   0  0  0  0  0  0  0  0  0  0  0  0
   24.9494  -19.6495  -12.5279 O   0  0  0  0  0  0  0  0  0  0  0  0
   25.4955  -21.3645  -11.0662 N   0  0  0  0  0  0  0  0  0  0  0  0
   26.2917  -20.4420  -10.2453 C   0  0  1  0  0  0  0  0  0  0  0  0
   26.2241  -20.9908   -8.8582 C   0  0  0  0  0  0  0  0  0  0  0  0
   26.8647  -20.1096   -7.8835 C   0  0  0  0  0  0  0  0  0  0  0  0
   26.4829  -18.7731   -7.7222 C   0  0  0  0  0  0  0  0  0  0  0  0
   27.2935  -18.2631   -6.7895 N   0  0  0  0  0  0  0  0  0  0  0  0
   28.1572  -19.1883   -6.3539 C   0  0  0  0  0  0  0  0  0  0  0  0
   29.1657  -19.1421   -5.3932 C   0  0  0  0  0  0  0  0  0  0  0  0
   29.8962  -20.2671   -5.1293 C   0  0  0  0  0  0  0  0  0  0  0  0
   29.6197  -21.4250   -5.8195 C   0  0  0  0  0  0  0  0  0  0  0  0
   28.6335  -21.4966   -6.7700 C   0  0  0  0  0  0  0  0  0  0  0  0
   27.9003  -20.3555   -7.0320 C   0  0  0  0  0  0  0  0  0  0  0  0
   27.6399  -20.2769  -10.7972 C   0  0  0  0  0  0  0  0  0  0  0  0
   28.1141  -21.2122  -11.5151 O   0  0  0  0  0  0  0  0  0  0  0  0
   28.4458  -19.1783  -10.6076 O   0  0  0  0  0  0  0  0  0  0  0  0
  2  3  1  0
  2  1  1  1
  4  5  2  0
  4  2  1  0
  6  4  1  0
  7  6  1  0
  7 13  1  0
  7  8  1  6
  9  8  1  0
 10  9  1  0
 11 10  1  0
 12 11  1  0
 13 14  2  0
 13 15  1  0
 15 16  1  0
 16 17  1  1
 16 27  1  0
 18 19  2  0
 18 17  1  0
 20 19  1  0
 21 26  2  0
 21 20  1  0
 22 21  1  0
 23 24  1  0
 23 22  2  0
 24 25  2  0
 25 26  1  0
 26 18  1  0
 27 29  1  0
 28 27  2  0
M  END
$$$$
