AKW.pdb
     RDKit          3D

 29 30  0  0  1  0  0  0  0  0999 V2000
   25.0636  -20.5585  -20.1641 C   0  0  0  0  0  0  0  0  0  0  0  0
   25.3872  -19.8544  -18.8392 C   0  0  2  0  0  0  0  0  0  0  0  0
   26.5848  -19.0904  -19.0598 N   0  0  0  0  0  0  0  0  0  0  0  0
   25.6577  -20.9092  -17.8495 C   0  0  0  0  0  0  0  0  0  0  0  0
   24.7446  -21.7159  -17.5533 O   0  0  0  0  0  0  0  0  0  0  0  0
   26.9130  -21.0825  -17.1894 N   0  0  0  0  0  0  0  0  0  0  0  0
   27.1297  -22.1152  -16.2015 C   0  0  1  0  0  0  0  0  0  0  0  0
   28.4908  -22.7660  -16.4206 C   0  0  0  0  0  0  0  0  0  0  0  0
   28.5180  -23.6300  -17.6339 C   0  0  0  0  0  0  0  0  0  0  0  0
   29.8781  -24.2720  -17.7367 C   0  0  0  0  0  0  0  0  0  0  0  0
   30.0032  -25.4935  -16.8601 C   0  0  0  0  0  0  0  0  0  0  0  0
   31.3088  -26.0948  -17.1036 N   0  0  0  0  0  0  0  0  0  0  0  0
   27.1878  -21.4920  -14.8533 C   0  0  0  0  0  0  0  0  0  0  0  0
   27.8557  -20.4156  -14.7522 O   0  0  0  0  0  0  0  0  0  0  0  0
   26.5509  -22.0363  -13.7293 N   0  0  0  0  0  0  0  0  0  0  0  0
   26.6993  -21.3650  -12.4308 C   0  0  1  0  0  0  0  0  0  0  0  0
   26.0086  -20.0503  -12.5860 C   0  0  0  0  0  0  0  0  0  0  0  0
   24.5560  -20.1729  -12.4761 C   0  0  0  0  0  0  0  0  0  0  0  0
   23.9046  -20.2420  -11.2396 C   0  0  0  0  0  0  0  0  0  0  0  0
   22.6038  -20.3886  -11.5104 N   0  0  0  0  0  0  0  0  0  0  0  0
   22.3942  -20.4153  -12.8323 C   0  0  0  0  0  0  0  0  0  0  0  0
   21.2293  -20.5307  -13.5884 C   0  0  0  0  0  0  0  0  0  0  0  0
   21.3074  -20.5069  -14.9531 C   0  0  0  0  0  0  0  0  0  0  0  0
   22.5379  -20.3689  -15.5534 C   0  0  0  0  0  0  0  0  0  0  0  0
   23.6989  -20.2544  -14.8322 C   0  0  0  0  0  0  0  0  0  0  0  0
   23.6122  -20.2804  -13.4538 C   0  0  0  0  0  0  0  0  0  0  0  0
   26.2096  -22.2142  -11.3407 C   0  0  0  0  0  0  0  0  0  0  0  0
   25.6131  -23.2951  -11.6425 O   0  0  0  0  0  0  0  0  0  0  0  0
   26.3469  -21.9415   -9.9994 O   0  0  0  0  0  0  0  0  0  0  0  0
  2  3  1  0
  2  1  1  6
  4  5  2  0
  4  2  1  0
  6  4  1  0
  7  6  1  0
  7 13  1  0
  7  8  1  6
  9  8  1  0
 10  9  1  0
 11 10  1  0
 12 11  1  0
 13 14  2  0
 13 15  1  0
 15 16  1  0
 16 17  1  6
 16 27  1  0
 18 19  2  0
 18 17  1  0
 20 19  1  0
 21 26  2  0
 21 20  1  0
 22 21  1  0
 23 24  1  0
 23 22  2  0
 24 25  2  0
 25 26  1  0
 26 18  1  0
 27 29  1  0
 28 27  2  0
M  END
$$$$
