AKW.pdb
     RDKit          3D

 29 30  0  0  1  0  0  0  0  0999 V2000
   27.9878  -19.9661  -17.0426 C   0  0  0  0  0  0  0  0  0  0  0  0
   28.3363  -21.0816  -16.0475 C   0  0  2  0  0  0  0  0  0  0  0  0
   28.7018  -22.2318  -16.8286 N   0  0  0  0  0  0  0  0  0  0  0  0
   27.1100  -21.3770  -15.2899 C   0  0  0  0  0  0  0  0  0  0  0  0
   26.2228  -22.0880  -15.8189 O   0  0  0  0  0  0  0  0  0  0  0  0
   26.8540  -20.9013  -13.9670 N   0  0  0  0  0  0  0  0  0  0  0  0
   25.6637  -21.2660  -13.2324 C   0  0  1  0  0  0  0  0  0  0  0  0
   25.7852  -20.8039  -11.7847 C   0  0  0  0  0  0  0  0  0  0  0  0
   24.5796  -21.1429  -10.9778 C   0  0  0  0  0  0  0  0  0  0  0  0
   24.8288  -20.7374   -9.5473 C   0  0  0  0  0  0  0  0  0  0  0  0
   23.6074  -20.9155   -8.6800 C   0  0  0  0  0  0  0  0  0  0  0  0
   23.8787  -20.3057   -7.3837 N   0  0  0  0  0  0  0  0  0  0  0  0
   24.5010  -20.5328  -13.7984 C   0  0  0  0  0  0  0  0  0  0  0  0
   24.5798  -19.2645  -13.8121 O   0  0  0  0  0  0  0  0  0  0  0  0
   23.3602  -21.1752  -14.2997 N   0  0  0  0  0  0  0  0  0  0  0  0
   22.2390  -20.3600  -14.7865 C   0  0  1  0  0  0  0  0  0  0  0  0
   22.2745  -20.4897  -16.2737 C   0  0  0  0  0  0  0  0  0  0  0  0
   21.2018  -19.7354  -16.9199 C   0  0  0  0  0  0  0  0  0  0  0  0
   21.2961  -18.3597  -17.1580 C   0  0  0  0  0  0  0  0  0  0  0  0
   20.1374  -17.9973  -17.7176 N   0  0  0  0  0  0  0  0  0  0  0  0
   19.3228  -19.0516  -17.8477 C   0  0  0  0  0  0  0  0  0  0  0  0
   18.0409  -19.1782  -18.3795 C   0  0  0  0  0  0  0  0  0  0  0  0
   17.4408  -20.4062  -18.4047 C   0  0  0  0  0  0  0  0  0  0  0  0
   18.1167  -21.4949  -17.9033 C   0  0  0  0  0  0  0  0  0  0  0  0
   19.3783  -21.3969  -17.3740 C   0  0  0  0  0  0  0  0  0  0  0  0
   19.9778  -20.1527  -17.3509 C   0  0  0  0  0  0  0  0  0  0  0  0
   20.9822  -20.7575  -14.1448 C   0  0  0  0  0  0  0  0  0  0  0  0
   20.8710  -21.9539  -13.7308 O   0  0  0  0  0  0  0  0  0  0  0  0
   19.8989  -19.9340  -13.9435 O   0  0  0  0  0  0  0  0  0  0  0  0
  2  3  1  0
  2  1  1  6
  4  5  2  0
  4  2  1  0
  6  4  1  0
  7  6  1  0
  7 13  1  0
  7  8  1  1
  9  8  1  0
 10  9  1  0
 11 10  1  0
 12 11  1  0
 13 14  2  0
 13 15  1  0
 15 16  1  0
 16 17  1  6
 16 27  1  0
 18 19  2  0
 18 17  1  0
 20 19  1  0
 21 26  2  0
 21 20  1  0
 22 21  1  0
 23 24  1  0
 23 22  2  0
 24 25  2  0
 25 26  1  0
 26 18  1  0
 27 29  1  0
 28 27  2  0
M  END
$$$$
