QYH.pdb
     RDKit          3D

 32 33  0  0  1  0  0  0  0  0999 V2000
   28.2029  -16.5523  -17.6643 N   0  0  0  0  0  0  0  0  0  0  0  0
   28.0287  -16.6880  -19.0713 C   0  0  0  0  0  0  0  0  0  0  0  0
   28.5882  -15.8870  -19.8630 O   0  0  0  0  0  0  0  0  0  0  0  0
   27.1793  -17.7808  -19.5743 C   0  0  0  0  0  0  0  0  0  0  0  0
   26.6615  -18.7016  -18.5394 C   0  0  0  0  0  0  0  0  0  0  0  0
   27.6309  -19.6862  -17.9792 C   0  0  2  0  0  0  0  0  0  0  0  0
   27.8911  -20.7407  -18.8971 N   0  0  0  0  0  0  0  0  0  0  0  0
   26.9960  -20.2868  -16.7462 C   0  0  0  0  0  0  0  0  0  0  0  0
   26.1939  -21.2532  -16.8711 O   0  0  0  0  0  0  0  0  0  0  0  0
   24.7990  -21.1955   -8.2592 O   0  0  0  0  0  0  0  0  0  0  0  0
   25.4261  -20.8259   -9.4365 C   0  0  0  0  0  0  0  0  0  0  0  0
   25.9827  -21.8297  -10.2296 C   0  0  0  0  0  0  0  0  0  0  0  0
   26.6201  -21.5202  -11.3992 C   0  0  0  0  0  0  0  0  0  0  0  0
   26.7138  -20.2036  -11.8020 C   0  0  0  0  0  0  0  0  0  0  0  0
   27.4003  -19.8879  -13.0621 C   0  0  0  0  0  0  0  0  0  0  0  0
   26.5686  -20.2939  -14.2732 C   0  0  2  0  0  0  0  0  0  0  0  0
   27.2656  -19.8104  -15.4473 N   0  0  0  0  0  0  0  0  0  0  0  0
   25.1927  -19.7782  -14.1768 C   0  0  0  0  0  0  0  0  0  0  0  0
   24.9054  -18.5484  -14.2383 O   0  0  0  0  0  0  0  0  0  0  0  0
   26.1681  -19.1886  -11.0319 C   0  0  0  0  0  0  0  0  0  0  0  0
   25.5301  -19.5062   -9.8604 C   0  0  0  0  0  0  0  0  0  0  0  0
   24.0364  -20.6047  -14.0075 N   0  0  0  0  0  0  0  0  0  0  0  0
   22.7109  -20.1818  -13.8372 C   0  0  1  0  0  0  0  0  0  0  0  0
   21.6968  -20.6535  -14.8261 C   0  0  0  0  0  0  0  0  0  0  0  0
   21.7757  -19.7570  -16.0280 C   0  0  0  0  0  0  0  0  0  0  0  0
   22.5706  -18.6123  -16.1193 C   0  0  0  0  0  0  0  0  0  0  0  0
   22.4164  -18.0398  -17.3194 N   0  0  0  0  0  0  0  0  0  0  0  0
   21.5544  -18.7855  -17.9854 C   0  0  0  0  0  0  0  0  0  0  0  0
   21.1574  -19.8324  -17.2132 N   0  0  0  0  0  0  0  0  0  0  0  0
   22.2404  -20.4581  -12.4741 C   0  0  0  0  0  0  0  0  0  0  0  0
   22.8614  -21.2052  -11.6574 O   0  0  0  0  0  0  0  0  0  0  0  0
   21.0611  -19.8838  -12.0271 O   0  0  0  0  0  0  0  0  0  0  0  0
  1  2  1  0
  2  4  1  0
  2  3  2  0
  4  5  1  0
  6  7  1  6
  6  5  1  0
  8  6  1  0
  8  9  2  0
 10 11  1  0
 11 21  2  0
 11 12  1  0
 12 13  2  0
 13 14  1  0
 14 15  1  0
 16 15  1  1
 16 17  1  0
 17  8  1  0
 18 16  1  0
 19 18  2  0
 20 14  2  0
 21 20  1  0
 22 18  1  0
 23 22  1  0
 23 30  1  0
 23 24  1  6
 25 29  1  0
 25 24  1  0
 26 25  2  0
 27 26  1  0
 27 28  1  0
 28 29  2  0
 30 32  1  0
 31 30  2  0
M  END
$$$$
