QYH.pdb
     RDKit          3D

 32 33  0  0  1  0  0  0  0  0999 V2000
   23.6341  -20.7754  -20.3709 N   0  0  0  0  0  0  0  0  0  0  0  0
   24.9006  -21.2208  -19.8955 C   0  0  0  0  0  0  0  0  0  0  0  0
   25.7838  -21.6086  -20.7024 O   0  0  0  0  0  0  0  0  0  0  0  0
   25.1489  -21.2198  -18.4440 C   0  0  0  0  0  0  0  0  0  0  0  0
   24.0143  -20.7629  -17.6127 C   0  0  0  0  0  0  0  0  0  0  0  0
   23.2525  -21.8196  -16.8874 C   0  0  2  0  0  0  0  0  0  0  0  0
   22.6032  -22.7059  -17.7903 N   0  0  0  0  0  0  0  0  0  0  0  0
   22.1884  -21.1231  -16.0711 C   0  0  0  0  0  0  0  0  0  0  0  0
   22.5332  -20.3435  -15.1403 O   0  0  0  0  0  0  0  0  0  0  0  0
   23.0188  -15.4403  -17.1042 O   0  0  0  0  0  0  0  0  0  0  0  0
   22.0811  -16.4311  -16.8700 C   0  0  0  0  0  0  0  0  0  0  0  0
   21.7926  -17.3227  -17.9037 C   0  0  0  0  0  0  0  0  0  0  0  0
   20.8695  -18.3163  -17.7291 C   0  0  0  0  0  0  0  0  0  0  0  0
   20.2166  -18.4416  -16.5198 C   0  0  0  0  0  0  0  0  0  0  0  0
   19.2288  -19.5156  -16.3478 C   0  0  0  0  0  0  0  0  0  0  0  0
   19.7849  -20.6636  -15.5135 C   0  0  2  0  0  0  0  0  0  0  0  0
   20.8110  -21.3067  -16.3081 N   0  0  0  0  0  0  0  0  0  0  0  0
   18.7195  -21.5930  -15.1015 C   0  0  0  0  0  0  0  0  0  0  0  0
   18.3153  -22.5503  -15.8219 O   0  0  0  0  0  0  0  0  0  0  0  0
   20.4865  -17.5688  -15.4774 C   0  0  0  0  0  0  0  0  0  0  0  0
   21.4137  -16.5750  -15.6593 C   0  0  0  0  0  0  0  0  0  0  0  0
   18.0308  -21.5191  -13.8489 N   0  0  0  0  0  0  0  0  0  0  0  0
   16.9824  -22.3391  -13.4094 C   0  0  1  0  0  0  0  0  0  0  0  0
   17.0503  -22.8694  -12.0156 C   0  0  0  0  0  0  0  0  0  0  0  0
   17.8891  -24.1145  -12.0383 C   0  0  0  0  0  0  0  0  0  0  0  0
   18.5366  -24.6204  -13.1675 C   0  0  0  0  0  0  0  0  0  0  0  0
   19.2019  -25.7389  -12.8539 N   0  0  0  0  0  0  0  0  0  0  0  0
   18.9966  -25.9519  -11.5673 C   0  0  0  0  0  0  0  0  0  0  0  0
   18.2014  -24.9726  -11.0590 N   0  0  0  0  0  0  0  0  0  0  0  0
   15.6813  -21.6964  -13.6328 C   0  0  0  0  0  0  0  0  0  0  0  0
   15.5507  -20.4813  -13.9754 O   0  0  0  0  0  0  0  0  0  0  0  0
   14.5177  -22.4315  -13.4718 O   0  0  0  0  0  0  0  0  0  0  0  0
  1  2  1  0
  2  4  1  0
  2  3  2  0
  4  5  1  0
  6  7  1  6
  6  5  1  0
  8  6  1  0
  8  9  2  0
 10 11  1  0
 11 21  2  0
 11 12  1  0
 12 13  2  0
 13 14  1  0
 14 15  1  0
 16 15  1  6
 16 17  1  0
 17  8  1  0
 18 16  1  0
 19 18  2  0
 20 14  2  0
 21 20  1  0
 22 18  1  0
 23 22  1  0
 23 30  1  0
 23 24  1  1
 25 29  1  0
 25 24  1  0
 26 25  2  0
 27 26  1  0
 27 28  1  0
 28 29  2  0
 30 32  1  0
 31 30  2  0
M  END
$$$$
