QYH.pdb
     RDKit          3D

 32 33  0  0  1  0  0  0  0  0999 V2000
   24.6762  -13.7266  -21.7703 N   0  0  0  0  0  0  0  0  0  0  0  0
   25.7811  -13.5929  -20.8817 C   0  0  0  0  0  0  0  0  0  0  0  0
   26.6835  -12.7470  -21.1094 O   0  0  0  0  0  0  0  0  0  0  0  0
   25.8434  -14.4664  -19.6979 C   0  0  0  0  0  0  0  0  0  0  0  0
   24.6283  -15.2707  -19.4457 C   0  0  0  0  0  0  0  0  0  0  0  0
   24.8390  -16.7082  -19.1109 C   0  0  2  0  0  0  0  0  0  0  0  0
   25.5271  -17.3899  -20.1522 N   0  0  0  0  0  0  0  0  0  0  0  0
   23.4731  -17.3380  -18.9640 C   0  0  0  0  0  0  0  0  0  0  0  0
   22.6534  -17.2695  -19.9212 O   0  0  0  0  0  0  0  0  0  0  0  0
   17.0271  -22.7118  -16.7262 O   0  0  0  0  0  0  0  0  0  0  0  0
   18.2175  -22.0652  -17.0104 C   0  0  0  0  0  0  0  0  0  0  0  0
   19.1205  -21.8588  -15.9672 C   0  0  0  0  0  0  0  0  0  0  0  0
   20.3084  -21.2193  -16.1905 C   0  0  0  0  0  0  0  0  0  0  0  0
   20.6202  -20.7741  -17.4590 C   0  0  0  0  0  0  0  0  0  0  0  0
   21.9012  -20.0903  -17.6826 C   0  0  0  0  0  0  0  0  0  0  0  0
   21.7480  -18.5748  -17.6250 C   0  0  2  0  0  0  0  0  0  0  0  0
   23.0708  -18.0086  -17.7912 N   0  0  0  0  0  0  0  0  0  0  0  0
   21.1005  -18.1480  -16.3732 C   0  0  0  0  0  0  0  0  0  0  0  0
   21.7184  -18.0283  -15.2766 O   0  0  0  0  0  0  0  0  0  0  0  0
   19.7400  -20.9680  -18.5120 C   0  0  0  0  0  0  0  0  0  0  0  0
   18.5508  -21.6105  -18.2810 C   0  0  0  0  0  0  0  0  0  0  0  0
   19.7117  -17.8204  -16.2598 N   0  0  0  0  0  0  0  0  0  0  0  0
   19.0118  -17.4925  -15.0905 C   0  0  1  0  0  0  0  0  0  0  0  0
   19.7702  -16.8332  -13.9866 C   0  0  0  0  0  0  0  0  0  0  0  0
   20.1632  -17.8956  -13.0010 C   0  0  0  0  0  0  0  0  0  0  0  0
   19.8377  -19.2489  -13.1138 C   0  0  0  0  0  0  0  0  0  0  0  0
   20.3379  -19.9305  -12.0759 N   0  0  0  0  0  0  0  0  0  0  0  0
   20.9676  -19.0531  -11.3165 C   0  0  0  0  0  0  0  0  0  0  0  0
   20.8700  -17.8132  -11.8667 N   0  0  0  0  0  0  0  0  0  0  0  0
   17.8064  -16.7129  -15.3987 C   0  0  0  0  0  0  0  0  0  0  0  0
   17.4679  -16.3841  -16.5769 O   0  0  0  0  0  0  0  0  0  0  0  0
   16.9736  -16.3039  -14.3695 O   0  0  0  0  0  0  0  0  0  0  0  0
  1  2  1  0
  2  4  1  0
  2  3  2  0
  4  5  1  0
  6  7  1  6
  6  5  1  0
  8  6  1  0
  8  9  2  0
 10 11  1  0
 11 21  2  0
 11 12  1  0
 12 13  2  0
 13 14  1  0
 14 15  1  0
 16 15  1  1
 16 17  1  0
 17  8  1  0
 18 16  1  0
 19 18  2  0
 20 14  2  0
 21 20  1  0
 22 18  1  0
 23 22  1  0
 23 30  1  0
 23 24  1  1
 25 29  1  0
 25 24  1  0
 26 25  2  0
 27 26  1  0
 27 28  1  0
 28 29  2  0
 30 32  1  0
 31 30  2  0
M  END
$$$$
