QYH.pdb
     RDKit          3D

 32 33  0  0  1  0  0  0  0  0999 V2000
   23.0059  -17.7261  -22.4010 N   0  0  0  0  0  0  0  0  0  0  0  0
   23.3698  -17.6994  -21.0244 C   0  0  0  0  0  0  0  0  0  0  0  0
   23.0755  -18.6604  -20.2685 O   0  0  0  0  0  0  0  0  0  0  0  0
   24.0920  -16.5242  -20.5088 C   0  0  0  0  0  0  0  0  0  0  0  0
   23.5486  -15.9514  -19.2583 C   0  0  0  0  0  0  0  0  0  0  0  0
   22.2577  -15.2137  -19.3699 C   0  0  2  0  0  0  0  0  0  0  0  0
   22.4669  -13.8436  -19.6883 N   0  0  0  0  0  0  0  0  0  0  0  0
   21.5859  -15.2811  -18.0179 C   0  0  0  0  0  0  0  0  0  0  0  0
   22.1392  -14.7354  -17.0235 O   0  0  0  0  0  0  0  0  0  0  0  0
   18.9770   -9.7144  -16.7774 O   0  0  0  0  0  0  0  0  0  0  0  0
   18.8300  -11.0883  -16.6969 C   0  0  0  0  0  0  0  0  0  0  0  0
   18.7748  -11.8158  -17.8861 C   0  0  0  0  0  0  0  0  0  0  0  0
   18.6235  -13.1747  -17.8650 C   0  0  0  0  0  0  0  0  0  0  0  0
   18.5255  -13.8355  -16.6574 C   0  0  0  0  0  0  0  0  0  0  0  0
   18.3649  -15.2959  -16.6518 C   0  0  0  0  0  0  0  0  0  0  0  0
   19.7058  -16.0092  -16.5232 C   0  0  2  0  0  0  0  0  0  0  0  0
   20.3523  -15.9330  -17.8171 N   0  0  0  0  0  0  0  0  0  0  0  0
   19.5341  -17.3947  -16.0546 C   0  0  0  0  0  0  0  0  0  0  0  0
   18.9074  -17.6990  -14.9995 O   0  0  0  0  0  0  0  0  0  0  0  0
   18.5784  -13.1352  -15.4625 C   0  0  0  0  0  0  0  0  0  0  0  0
   18.7308  -11.7727  -15.4911 C   0  0  0  0  0  0  0  0  0  0  0  0
   20.0502  -18.5420  -16.7374 N   0  0  0  0  0  0  0  0  0  0  0  0
   19.8563  -19.8879  -16.3973 C   0  0  1  0  0  0  0  0  0  0  0  0
   20.8766  -20.5395  -15.5238 C   0  0  0  0  0  0  0  0  0  0  0  0
   22.2240  -20.0029  -15.9125 C   0  0  0  0  0  0  0  0  0  0  0  0
   22.4417  -19.0084  -16.8685 C   0  0  0  0  0  0  0  0  0  0  0  0
   23.7516  -18.7551  -16.9786 N   0  0  0  0  0  0  0  0  0  0  0  0
   24.3636  -19.5540  -16.1242 C   0  0  0  0  0  0  0  0  0  0  0  0
   23.4478  -20.3171  -15.4694 N   0  0  0  0  0  0  0  0  0  0  0  0
   18.5154  -20.1027  -15.8389 C   0  0  0  0  0  0  0  0  0  0  0  0
   17.7073  -19.1598  -15.5768 O   0  0  0  0  0  0  0  0  0  0  0  0
   18.0810  -21.3923  -15.5775 O   0  0  0  0  0  0  0  0  0  0  0  0
  1  2  1  0
  2  4  1  0
  2  3  2  0
  4  5  1  0
  6  7  1  1
  6  5  1  0
  8  6  1  0
  8  9  2  0
 10 11  1  0
 11 21  2  0
 11 12  1  0
 12 13  2  0
 13 14  1  0
 14 15  1  0
 16 15  1  6
 16 17  1  0
 17  8  1  0
 18 16  1  0
 19 18  2  0
 20 14  2  0
 21 20  1  0
 22 18  1  0
 23 22  1  0
 23 30  1  0
 23 24  1  1
 25 29  1  0
 25 24  1  0
 26 25  2  0
 27 26  1  0
 27 28  1  0
 28 29  2  0
 30 32  1  0
 31 30  2  0
M  END
$$$$
