QYH.pdb
     RDKit          3D

 32 33  0  0  1  0  0  0  0  0999 V2000
   35.1902  -28.4453  -17.3555 N   0  0  0  0  0  0  0  0  0  0  0  0
   35.6346  -27.6576  -18.4556 C   0  0  0  0  0  0  0  0  0  0  0  0
   35.5239  -26.4051  -18.4286 O   0  0  0  0  0  0  0  0  0  0  0  0
   36.2206  -28.3410  -19.6210 C   0  0  0  0  0  0  0  0  0  0  0  0
   36.4121  -29.7990  -19.4637 C   0  0  0  0  0  0  0  0  0  0  0  0
   37.6624  -30.2360  -18.7790 C   0  0  2  0  0  0  0  0  0  0  0  0
   38.5613  -30.8619  -19.6861 N   0  0  0  0  0  0  0  0  0  0  0  0
   37.2678  -31.2553  -17.7353 C   0  0  0  0  0  0  0  0  0  0  0  0
   36.9123  -32.4099  -18.1006 O   0  0  0  0  0  0  0  0  0  0  0  0
   36.5353  -35.2990   -9.9945 O   0  0  0  0  0  0  0  0  0  0  0  0
   36.8255  -34.4036  -11.0093 C   0  0  0  0  0  0  0  0  0  0  0  0
   36.0814  -33.2257  -11.0813 C   0  0  0  0  0  0  0  0  0  0  0  0
   36.3213  -32.3094  -12.0676 C   0  0  0  0  0  0  0  0  0  0  0  0
   37.3092  -32.5488  -13.0010 C   0  0  0  0  0  0  0  0  0  0  0  0
   37.5556  -31.5536  -14.0533 C   0  0  0  0  0  0  0  0  0  0  0  0
   36.8473  -31.9205  -15.3522 C   0  0  2  0  0  0  0  0  0  0  0  0
   37.2817  -30.9698  -16.3550 N   0  0  0  0  0  0  0  0  0  0  0  0
   35.3848  -31.9362  -15.1801 C   0  0  0  0  0  0  0  0  0  0  0  0
   34.7279  -30.9564  -14.7252 O   0  0  0  0  0  0  0  0  0  0  0  0
   38.0626  -33.7111  -12.9500 C   0  0  0  0  0  0  0  0  0  0  0  0
   37.8169  -34.6254  -11.9580 C   0  0  0  0  0  0  0  0  0  0  0  0
   34.5505  -33.0519  -15.5089 N   0  0  0  0  0  0  0  0  0  0  0  0
   33.1497  -33.0782  -15.5511 C   0  0  1  0  0  0  0  0  0  0  0  0
   32.4534  -31.9673  -16.2650 C   0  0  0  0  0  0  0  0  0  0  0  0
   30.9910  -32.0553  -15.9359 C   0  0  0  0  0  0  0  0  0  0  0  0
   30.4338  -32.9347  -15.0051 C   0  0  0  0  0  0  0  0  0  0  0  0
   29.1078  -32.7609  -14.9446 N   0  0  0  0  0  0  0  0  0  0  0  0
   28.8133  -31.8021  -15.8030 C   0  0  0  0  0  0  0  0  0  0  0  0
   29.9478  -31.3639  -16.4118 N   0  0  0  0  0  0  0  0  0  0  0  0
   32.6615  -34.3705  -16.0487 C   0  0  0  0  0  0  0  0  0  0  0  0
   31.4561  -34.5804  -16.3859 O   0  0  0  0  0  0  0  0  0  0  0  0
   33.5414  -35.4341  -16.1704 O   0  0  0  0  0  0  0  0  0  0  0  0
  1  2  1  0
  2  4  1  0
  2  3  2  0
  4  5  1  0
  6  7  1  6
  6  5  1  0
  8  6  1  0
  8  9  2  0
 10 11  1  0
 11 21  2  0
 11 12  1  0
 12 13  2  0
 13 14  1  0
 14 15  1  0
 16 15  1  1
 16 17  1  0
 17  8  1  0
 18 16  1  0
 19 18  2  0
 20 14  2  0
 21 20  1  0
 22 18  1  0
 23 22  1  0
 23 30  1  0
 23 24  1  6
 25 29  1  0
 25 24  1  0
 26 25  2  0
 27 26  1  0
 27 28  1  0
 28 29  2  0
 30 32  1  0
 31 30  2  0
M  END
$$$$
