QYH.pdb
     RDKit          3D

 32 33  0  0  1  0  0  0  0  0999 V2000
   24.8610  -13.0985  -18.7693 N   0  0  0  0  0  0  0  0  0  0  0  0
   24.9395  -13.6019  -20.0992 C   0  0  0  0  0  0  0  0  0  0  0  0
   25.9714  -14.2033  -20.4932 O   0  0  0  0  0  0  0  0  0  0  0  0
   23.7912  -13.3994  -20.9986 C   0  0  0  0  0  0  0  0  0  0  0  0
   22.6325  -12.7085  -20.3926 C   0  0  0  0  0  0  0  0  0  0  0  0
   21.8627  -13.4723  -19.3694 C   0  0  2  0  0  0  0  0  0  0  0  0
   21.0825  -14.5010  -19.9656 N   0  0  0  0  0  0  0  0  0  0  0  0
   20.9192  -12.4990  -18.7012 C   0  0  0  0  0  0  0  0  0  0  0  0
   19.8875  -12.1143  -19.3179 O   0  0  0  0  0  0  0  0  0  0  0  0
   16.0962  -15.9478  -16.9190 O   0  0  0  0  0  0  0  0  0  0  0  0
   16.9463  -14.9112  -16.5743 C   0  0  0  0  0  0  0  0  0  0  0  0
   18.3024  -15.1970  -16.4142 C   0  0  0  0  0  0  0  0  0  0  0  0
   19.1856  -14.2122  -16.0674 C   0  0  0  0  0  0  0  0  0  0  0  0
   18.7341  -12.9224  -15.8748 C   0  0  0  0  0  0  0  0  0  0  0  0
   19.6960  -11.8754  -15.5042 C   0  0  0  0  0  0  0  0  0  0  0  0
   20.2075  -11.1226  -16.7270 C   0  0  2  0  0  0  0  0  0  0  0  0
   21.1430  -11.9979  -17.4028 N   0  0  0  0  0  0  0  0  0  0  0  0
   20.8079   -9.8318  -16.3502 C   0  0  0  0  0  0  0  0  0  0  0  0
   21.9552   -9.7243  -15.8299 O   0  0  0  0  0  0  0  0  0  0  0  0
   17.3918  -12.6133  -16.0289 C   0  0  0  0  0  0  0  0  0  0  0  0
   16.5118  -13.6057  -16.3771 C   0  0  0  0  0  0  0  0  0  0  0  0
   20.1664   -8.5653  -16.5325 N   0  0  0  0  0  0  0  0  0  0  0  0
   20.6568   -7.3063  -16.1595 C   0  0  1  0  0  0  0  0  0  0  0  0
   20.0210   -6.1020  -16.7710 C   0  0  0  0  0  0  0  0  0  0  0  0
   20.7539   -4.8911  -16.2697 C   0  0  0  0  0  0  0  0  0  0  0  0
   21.6799   -4.1546  -17.0116 C   0  0  0  0  0  0  0  0  0  0  0  0
   22.1501   -3.1368  -16.2801 N   0  0  0  0  0  0  0  0  0  0  0  0
   21.5507   -3.2073  -15.1059 C   0  0  0  0  0  0  0  0  0  0  0  0
   20.6994   -4.2678  -15.0859 N   0  0  0  0  0  0  0  0  0  0  0  0
   20.6863   -7.1637  -14.6985 C   0  0  0  0  0  0  0  0  0  0  0  0
   19.8336   -7.6993  -13.9258 O   0  0  0  0  0  0  0  0  0  0  0  0
   21.6882   -6.4137  -14.1036 O   0  0  0  0  0  0  0  0  0  0  0  0
  1  2  1  0
  2  4  1  0
  2  3  2  0
  4  5  1  0
  6  7  1  6
  6  5  1  0
  8  6  1  0
  8  9  2  0
 10 11  1  0
 11 21  2  0
 11 12  1  0
 12 13  2  0
 13 14  1  0
 14 15  1  0
 16 15  1  1
 16 17  1  0
 17  8  1  0
 18 16  1  0
 19 18  2  0
 20 14  2  0
 21 20  1  0
 22 18  1  0
 23 22  1  0
 23 30  1  0
 23 24  1  6
 25 29  1  0
 25 24  1  0
 26 25  2  0
 27 26  1  0
 27 28  1  0
 28 29  2  0
 30 32  1  0
 31 30  2  0
M  END
$$$$
