QYH.pdb
     RDKit          3D

 32 33  0  0  1  0  0  0  0  0999 V2000
   25.5767  -25.4735  -19.4681 N   0  0  0  0  0  0  0  0  0  0  0  0
   26.6491  -24.7887  -20.1077 C   0  0  0  0  0  0  0  0  0  0  0  0
   27.3088  -25.3486  -21.0202 O   0  0  0  0  0  0  0  0  0  0  0  0
   26.9679  -23.4176  -19.6750 C   0  0  0  0  0  0  0  0  0  0  0  0
   26.1614  -22.9124  -18.5430 C   0  0  0  0  0  0  0  0  0  0  0  0
   26.8857  -22.6811  -17.2604 C   0  0  2  0  0  0  0  0  0  0  0  0
   27.6439  -23.8217  -16.8777 N   0  0  0  0  0  0  0  0  0  0  0  0
   25.8419  -22.4359  -16.1954 C   0  0  0  0  0  0  0  0  0  0  0  0
   25.1496  -23.4028  -15.7727 O   0  0  0  0  0  0  0  0  0  0  0  0
   23.5656  -21.0437   -8.3704 O   0  0  0  0  0  0  0  0  0  0  0  0
   24.0207  -20.7950   -9.6537 C   0  0  0  0  0  0  0  0  0  0  0  0
   23.2115  -20.0426  -10.5055 C   0  0  0  0  0  0  0  0  0  0  0  0
   23.6089  -19.7729  -11.7858 C   0  0  0  0  0  0  0  0  0  0  0  0
   24.8222  -20.2468  -12.2418 C   0  0  0  0  0  0  0  0  0  0  0  0
   25.2354  -19.9468  -13.6195 C   0  0  0  0  0  0  0  0  0  0  0  0
   24.6154  -20.9181  -14.6173 C   0  0  2  0  0  0  0  0  0  0  0  0
   25.6066  -21.1595  -15.6456 N   0  0  0  0  0  0  0  0  0  0  0  0
   23.3500  -20.3954  -15.1596 C   0  0  0  0  0  0  0  0  0  0  0  0
   23.1899  -20.0852  -16.3749 O   0  0  0  0  0  0  0  0  0  0  0  0
   25.6443  -20.9957  -11.4145 C   0  0  0  0  0  0  0  0  0  0  0  0
   25.2396  -21.2620  -10.1317 C   0  0  0  0  0  0  0  0  0  0  0  0
   22.1688  -20.1853  -14.3789 N   0  0  0  0  0  0  0  0  0  0  0  0
   20.8504  -20.4991  -14.7367 C   0  0  1  0  0  0  0  0  0  0  0  0
   20.5679  -21.8875  -15.2069 C   0  0  0  0  0  0  0  0  0  0  0  0
   20.6733  -21.8954  -16.7047 C   0  0  0  0  0  0  0  0  0  0  0  0
   20.8673  -20.7621  -17.4973 C   0  0  0  0  0  0  0  0  0  0  0  0
   20.9197  -21.1079  -18.7895 N   0  0  0  0  0  0  0  0  0  0  0  0
   20.7674  -22.4185  -18.8359 C   0  0  0  0  0  0  0  0  0  0  0  0
   20.6173  -22.9100  -17.5767 N   0  0  0  0  0  0  0  0  0  0  0  0
   19.9133  -20.1379  -13.6656 C   0  0  0  0  0  0  0  0  0  0  0  0
   20.2786  -19.6603  -12.5478 O   0  0  0  0  0  0  0  0  0  0  0  0
   18.5524  -20.3135  -13.8582 O   0  0  0  0  0  0  0  0  0  0  0  0
  1  2  1  0
  2  4  1  0
  2  3  2  0
  4  5  1  0
  6  7  1  1
  6  5  1  0
  8  6  1  0
  8  9  2  0
 10 11  1  0
 11 21  2  0
 11 12  1  0
 12 13  2  0
 13 14  1  0
 14 15  1  0
 16 15  1  1
 16 17  1  0
 17  8  1  0
 18 16  1  0
 19 18  2  0
 20 14  2  0
 21 20  1  0
 22 18  1  0
 23 22  1  0
 23 30  1  0
 23 24  1  1
 25 29  1  0
 25 24  1  0
 26 25  2  0
 27 26  1  0
 27 28  1  0
 28 29  2  0
 30 32  1  0
 31 30  2  0
M  END
$$$$
