QYH.pdb
     RDKit          3D

 32 33  0  0  1  0  0  0  0  0999 V2000
   24.6809  -26.2604  -16.6643 N   0  0  0  0  0  0  0  0  0  0  0  0
   26.0290  -26.3838  -17.1067 C   0  0  0  0  0  0  0  0  0  0  0  0
   26.3364  -27.2285  -17.9862 O   0  0  0  0  0  0  0  0  0  0  0  0
   27.0498  -25.5057  -16.5106 C   0  0  0  0  0  0  0  0  0  0  0  0
   26.5357  -24.5079  -15.5476 C   0  0  0  0  0  0  0  0  0  0  0  0
   25.8810  -23.2999  -16.1264 C   0  0  2  0  0  0  0  0  0  0  0  0
   26.7957  -22.5307  -16.8971 N   0  0  0  0  0  0  0  0  0  0  0  0
   25.4132  -22.4473  -14.9696 C   0  0  0  0  0  0  0  0  0  0  0  0
   24.5736  -22.9179  -14.1533 O   0  0  0  0  0  0  0  0  0  0  0  0
   28.3199  -16.2772  -17.5894 O   0  0  0  0  0  0  0  0  0  0  0  0
   27.8826  -17.0146  -16.5027 C   0  0  0  0  0  0  0  0  0  0  0  0
   28.3023  -18.3407  -16.3947 C   0  0  0  0  0  0  0  0  0  0  0  0
   27.8950  -19.1170  -15.3452 C   0  0  0  0  0  0  0  0  0  0  0  0
   27.0619  -18.5858  -14.3816 C   0  0  0  0  0  0  0  0  0  0  0  0
   26.6346  -19.4324  -13.2594 C   0  0  0  0  0  0  0  0  0  0  0  0
   25.4546  -20.3189  -13.6405 C   0  0  2  0  0  0  0  0  0  0  0  0
   25.8810  -21.1344  -14.7590 N   0  0  0  0  0  0  0  0  0  0  0  0
   24.2576  -19.5173  -13.9456 C   0  0  0  0  0  0  0  0  0  0  0  0
   23.7826  -18.6498  -13.1579 O   0  0  0  0  0  0  0  0  0  0  0  0
   26.6321  -17.2708  -14.4663 C   0  0  0  0  0  0  0  0  0  0  0  0
   27.0448  -16.4980  -15.5212 C   0  0  0  0  0  0  0  0  0  0  0  0
   23.5066  -19.6273  -15.1592 N   0  0  0  0  0  0  0  0  0  0  0  0
   22.6203  -18.6828  -15.6950 C   0  0  1  0  0  0  0  0  0  0  0  0
   23.0889  -17.2694  -15.8007 C   0  0  0  0  0  0  0  0  0  0  0  0
   21.9226  -16.4302  -16.2369 C   0  0  0  0  0  0  0  0  0  0  0  0
   20.6206  -16.9033  -16.4135 C   0  0  0  0  0  0  0  0  0  0  0  0
   19.8176  -15.9057  -16.8035 N   0  0  0  0  0  0  0  0  0  0  0  0
   20.5692  -14.8227  -16.8760 C   0  0  0  0  0  0  0  0  0  0  0  0
   21.8500  -15.1266  -16.5340 N   0  0  0  0  0  0  0  0  0  0  0  0
   22.0945  -19.1292  -16.9911 C   0  0  0  0  0  0  0  0  0  0  0  0
   22.4291  -20.2220  -17.5433 O   0  0  0  0  0  0  0  0  0  0  0  0
   21.1805  -18.3381  -17.6686 O   0  0  0  0  0  0  0  0  0  0  0  0
  1  2  1  0
  2  4  1  0
  2  3  2  0
  4  5  1  0
  6  7  1  1
  6  5  1  0
  8  6  1  0
  8  9  2  0
 10 11  1  0
 11 21  2  0
 11 12  1  0
 12 13  2  0
 13 14  1  0
 14 15  1  0
 16 15  1  6
 16 17  1  0
 17  8  1  0
 18 16  1  0
 19 18  2  0
 20 14  2  0
 21 20  1  0
 22 18  1  0
 23 22  1  0
 23 30  1  0
 23 24  1  6
 25 29  1  0
 25 24  1  0
 26 25  2  0
 27 26  1  0
 27 28  1  0
 28 29  2  0
 30 32  1  0
 31 30  2  0
M  END
$$$$
