VTD.pdb
     RDKit          3D

 23 22  0  0  1  0  0  0  0  0999 V2000
   17.3862  -11.4509  -16.6966 C   0  0  0  0  0  0  0  0  0  0  0  0
   18.3512  -11.8707  -17.7638 C   0  0  2  0  0  0  0  0  0  0  0  0
   17.6741  -12.9335  -18.6038 C   0  0  0  0  0  0  0  0  0  0  0  0
   19.6656  -12.3515  -17.2600 C   0  0  2  0  0  0  0  0  0  0  0  0
   19.5331  -13.7286  -16.8468 N   0  0  0  0  0  0  0  0  0  0  0  0
   20.2748  -11.5670  -16.2029 C   0  0  0  0  0  0  0  0  0  0  0  0
   20.0457  -11.6956  -14.9711 O   0  0  0  0  0  0  0  0  0  0  0  0
   23.7490  -11.1369  -14.9138 C   0  0  0  0  0  0  0  0  0  0  0  0
   23.2764   -9.8117  -15.4300 C   0  0  1  0  0  0  0  0  0  0  0  0
   23.9019   -9.5327  -16.6449 O   0  0  0  0  0  0  0  0  0  0  0  0
   21.7912   -9.6918  -15.5031 C   0  0  2  0  0  0  0  0  0  0  0  0
   21.2156  -10.5565  -16.5422 N   0  0  0  0  0  0  0  0  0  0  0  0
   21.4592   -8.2588  -15.8034 C   0  0  0  0  0  0  0  0  0  0  0  0
   20.8100   -7.9882  -16.8300 O   0  0  0  0  0  0  0  0  0  0  0  0
   21.8843   -7.2310  -14.9221 N   0  0  0  0  0  0  0  0  0  0  0  0
   21.5044   -5.8105  -15.1525 C   0  0  1  0  0  0  0  0  0  0  0  0
   20.0031   -5.7864  -15.0116 C   0  0  0  0  0  0  0  0  0  0  0  0
   19.3847   -4.4727  -15.0774 C   0  0  0  0  0  0  0  0  0  0  0  0
   18.7693   -3.9732  -14.1171 O   0  0  0  0  0  0  0  0  0  0  0  0
   22.1581   -4.9895  -14.0790 C   0  0  0  0  0  0  0  0  0  0  0  0
   22.3834   -5.4406  -12.9421 O   0  0  0  0  0  0  0  0  0  0  0  0
   19.4412   -3.6761  -16.2353 O   0  0  0  0  0  0  0  0  0  0  0  0
   22.5444   -3.6616  -14.3248 O   0  0  0  0  0  0  0  0  0  0  0  0
  2  1  1  1
  2  3  1  0
  2  4  1  0
  4  6  1  0
  4  5  1  1
  6  7  2  0
  9 10  1  0
  9  8  1  6
 11  9  1  0
 12  6  1  0
 11 12  1  6
 13 14  2  0
 13 11  1  0
 15 13  1  0
 16 17  1  1
 16 15  1  0
 17 18  1  0
 18 19  2  0
 18 22  1  0
 20 16  1  0
 21 20  2  0
 23 20  1  0
M  END
$$$$
