VTD.pdb
     RDKit          3D

 23 22  0  0  1  0  0  0  0  0999 V2000
   19.8968  -12.3700  -20.8095 C   0  0  0  0  0  0  0  0  0  0  0  0
   19.3924  -11.5543  -19.6577 C   0  0  2  0  0  0  0  0  0  0  0  0
   18.0174  -11.0380  -20.0271 C   0  0  0  0  0  0  0  0  0  0  0  0
   20.2852  -10.4373  -19.2481 C   0  0  2  0  0  0  0  0  0  0  0  0
   21.5369  -10.9857  -18.7818 N   0  0  0  0  0  0  0  0  0  0  0  0
   19.7481   -9.5106  -18.2699 C   0  0  0  0  0  0  0  0  0  0  0  0
   18.6548   -8.8933  -18.3698 O   0  0  0  0  0  0  0  0  0  0  0  0
   18.7308  -10.2811  -14.8142 C   0  0  0  0  0  0  0  0  0  0  0  0
   19.7531   -9.1878  -14.7389 C   0  0  1  0  0  0  0  0  0  0  0  0
   20.9587   -9.7063  -14.2669 O   0  0  0  0  0  0  0  0  0  0  0  0
   19.9100   -8.4252  -16.0114 C   0  0  2  0  0  0  0  0  0  0  0  0
   20.4863   -9.2480  -17.0835 N   0  0  0  0  0  0  0  0  0  0  0  0
   20.8105   -7.2552  -15.7388 C   0  0  0  0  0  0  0  0  0  0  0  0
   22.0180   -7.3380  -16.0284 O   0  0  0  0  0  0  0  0  0  0  0  0
   20.2835   -6.0728  -15.1577 N   0  0  0  0  0  0  0  0  0  0  0  0
   21.1611   -4.9164  -14.8295 C   0  0  1  0  0  0  0  0  0  0  0  0
   20.2166   -3.7530  -14.6599 C   0  0  0  0  0  0  0  0  0  0  0  0
   20.8336   -2.4875  -14.2985 C   0  0  0  0  0  0  0  0  0  0  0  0
   22.0678   -2.3227  -14.2890 O   0  0  0  0  0  0  0  0  0  0  0  0
   21.8603   -5.2333  -13.5394 C   0  0  0  0  0  0  0  0  0  0  0  0
   21.3127   -5.8781  -12.6278 O   0  0  0  0  0  0  0  0  0  0  0  0
   20.0735   -1.3614  -13.9343 O   0  0  0  0  0  0  0  0  0  0  0  0
   23.1790   -4.8058  -13.3129 O   0  0  0  0  0  0  0  0  0  0  0  0
  2  1  1  6
  2  3  1  0
  2  4  1  0
  4  6  1  0
  4  5  1  1
  6  7  2  0
  9 10  1  0
  9  8  1  6
 11  9  1  0
 12  6  1  0
 11 12  1  6
 13 14  2  0
 13 11  1  0
 15 13  1  0
 16 17  1  1
 16 15  1  0
 17 18  1  0
 18 19  2  0
 18 22  1  0
 20 16  1  0
 21 20  2  0
 23 20  1  0
M  END
$$$$
