VTD.pdb
     RDKit          3D

 23 22  0  0  1  0  0  0  0  0999 V2000
   27.2359  -10.4986  -16.8576 C   0  0  0  0  0  0  0  0  0  0  0  0
   26.6673  -11.3189  -15.7395 C   0  0  2  0  0  0  0  0  0  0  0  0
   27.7070  -12.3487  -15.3497 C   0  0  0  0  0  0  0  0  0  0  0  0
   25.3654  -11.9702  -16.0454 C   0  0  2  0  0  0  0  0  0  0  0  0
   25.5945  -13.0722  -16.9498 N   0  0  0  0  0  0  0  0  0  0  0  0
   24.3201  -11.1068  -16.5612 C   0  0  0  0  0  0  0  0  0  0  0  0
   24.1955  -10.7451  -17.7612 O   0  0  0  0  0  0  0  0  0  0  0  0
   20.8973  -11.4413  -17.2850 C   0  0  0  0  0  0  0  0  0  0  0  0
   20.9560  -10.3617  -16.2472 C   0  0  1  0  0  0  0  0  0  0  0  0
   20.5160  -10.8649  -15.0232 O   0  0  0  0  0  0  0  0  0  0  0  0
   22.2859   -9.6924  -16.1530 C   0  0  2  0  0  0  0  0  0  0  0  0
   23.3325  -10.6039  -15.6707 N   0  0  0  0  0  0  0  0  0  0  0  0
   22.1531   -8.5358  -15.2051 C   0  0  0  0  0  0  0  0  0  0  0  0
   23.0111   -8.3764  -14.3178 O   0  0  0  0  0  0  0  0  0  0  0  0
   21.0595   -7.6397  -15.3258 N   0  0  0  0  0  0  0  0  0  0  0  0
   20.9393   -6.4453  -14.4460 C   0  0  1  0  0  0  0  0  0  0  0  0
   22.1873   -5.6425  -14.7152 C   0  0  0  0  0  0  0  0  0  0  0  0
   22.2444   -4.3349  -14.0831 C   0  0  0  0  0  0  0  0  0  0  0  0
   21.6911   -4.0926  -12.9942 O   0  0  0  0  0  0  0  0  0  0  0  0
   19.7132   -5.6921  -14.8739 C   0  0  0  0  0  0  0  0  0  0  0  0
   19.3721   -5.6004  -16.0663 O   0  0  0  0  0  0  0  0  0  0  0  0
   22.9313   -3.2529  -14.6627 O   0  0  0  0  0  0  0  0  0  0  0  0
   18.8950   -5.0540  -13.9272 O   0  0  0  0  0  0  0  0  0  0  0  0
  2  1  1  6
  2  3  1  0
  2  4  1  0
  4  6  1  0
  4  5  1  6
  6  7  2  0
  9 10  1  0
  9  8  1  6
 11  9  1  0
 12  6  1  0
 11 12  1  1
 13 14  2  0
 13 11  1  0
 15 13  1  0
 16 17  1  6
 16 15  1  0
 17 18  1  0
 18 19  2  0
 18 22  1  0
 20 16  1  0
 21 20  2  0
 23 20  1  0
M  END
$$$$
