VTD.pdb
     RDKit          3D

 23 22  0  0  1  0  0  0  0  0999 V2000
   17.4302  -14.3246  -16.9778 C   0  0  0  0  0  0  0  0  0  0  0  0
   16.6199  -13.6320  -15.9242 C   0  0  2  0  0  0  0  0  0  0  0  0
   15.4420  -12.9719  -16.6099 C   0  0  0  0  0  0  0  0  0  0  0  0
   17.3760  -12.6470  -15.1051 C   0  0  2  0  0  0  0  0  0  0  0  0
   16.5658  -12.2581  -13.9751 N   0  0  0  0  0  0  0  0  0  0  0  0
   17.8635  -11.4715  -15.8013 C   0  0  0  0  0  0  0  0  0  0  0  0
   18.7227  -11.4702  -16.7222 O   0  0  0  0  0  0  0  0  0  0  0  0
   16.2040   -9.1967  -18.1264 C   0  0  0  0  0  0  0  0  0  0  0  0
   16.6405   -8.3831  -16.9459 C   0  0  1  0  0  0  0  0  0  0  0  0
   15.5374   -8.0950  -16.1426 O   0  0  0  0  0  0  0  0  0  0  0  0
   17.7687   -8.9914  -16.1828 C   0  0  2  0  0  0  0  0  0  0  0  0
   17.3550  -10.1926  -15.4447 N   0  0  0  0  0  0  0  0  0  0  0  0
   18.2797   -7.9615  -15.2173 C   0  0  0  0  0  0  0  0  0  0  0  0
   17.9839   -8.0592  -14.0124 O   0  0  0  0  0  0  0  0  0  0  0  0
   19.0896   -6.8925  -15.6809 N   0  0  0  0  0  0  0  0  0  0  0  0
   19.4781   -5.7720  -14.7817 C   0  0  1  0  0  0  0  0  0  0  0  0
   20.9108   -6.0581  -14.4078 C   0  0  0  0  0  0  0  0  0  0  0  0
   21.5524   -5.0645  -13.5631 C   0  0  0  0  0  0  0  0  0  0  0  0
   20.9552   -4.0556  -13.1437 O   0  0  0  0  0  0  0  0  0  0  0  0
   19.3730   -4.5013  -15.5740 C   0  0  0  0  0  0  0  0  0  0  0  0
   19.4875   -4.4789  -16.8122 O   0  0  0  0  0  0  0  0  0  0  0  0
   22.8959   -5.1781  -13.1622 O   0  0  0  0  0  0  0  0  0  0  0  0
   19.1378   -3.2730  -14.9345 O   0  0  0  0  0  0  0  0  0  0  0  0
  2  1  1  6
  2  3  1  0
  2  4  1  0
  4  6  1  0
  4  5  1  1
  6  7  2  0
  9 10  1  0
  9  8  1  6
 11  9  1  0
 12  6  1  0
 11 12  1  1
 13 14  2  0
 13 11  1  0
 15 13  1  0
 16 17  1  6
 16 15  1  0
 17 18  1  0
 18 19  2  0
 18 22  1  0
 20 16  1  0
 21 20  2  0
 23 20  1  0
M  END
$$$$
