VTD.pdb
     RDKit          3D

 23 22  0  0  1  0  0  0  0  0999 V2000
   24.3901  -15.5487  -15.5541 C   0  0  0  0  0  0  0  0  0  0  0  0
   24.1112  -14.1973  -16.1390 C   0  0  2  0  0  0  0  0  0  0  0  0
   24.5639  -13.1588  -15.1339 C   0  0  0  0  0  0  0  0  0  0  0  0
   22.6951  -13.9703  -16.5338 C   0  0  2  0  0  0  0  0  0  0  0  0
   22.2996  -14.9971  -17.4686 N   0  0  0  0  0  0  0  0  0  0  0  0
   22.3784  -12.6585  -17.0658 C   0  0  0  0  0  0  0  0  0  0  0  0
   22.9354  -12.1168  -18.0572 O   0  0  0  0  0  0  0  0  0  0  0  0
   19.8467  -11.2004  -19.0099 C   0  0  0  0  0  0  0  0  0  0  0  0
   19.7822  -10.4778  -17.6984 C   0  0  1  0  0  0  0  0  0  0  0  0
   18.6848  -10.9321  -16.9675 O   0  0  0  0  0  0  0  0  0  0  0  0
   21.0554  -10.5291  -16.9226 C   0  0  2  0  0  0  0  0  0  0  0  0
   21.3596  -11.8850  -16.4453 N   0  0  0  0  0  0  0  0  0  0  0  0
   20.9163   -9.6042  -15.7482 C   0  0  0  0  0  0  0  0  0  0  0  0
   20.6244  -10.0765  -14.6345 O   0  0  0  0  0  0  0  0  0  0  0  0
   21.1170   -8.2092  -15.9144 N   0  0  0  0  0  0  0  0  0  0  0  0
   20.8734   -7.2558  -14.7978 C   0  0  1  0  0  0  0  0  0  0  0  0
   22.1273   -6.4213  -14.7245 C   0  0  0  0  0  0  0  0  0  0  0  0
   22.1218   -5.3609  -13.7304 C   0  0  0  0  0  0  0  0  0  0  0  0
   21.1614   -5.1687  -12.9614 O   0  0  0  0  0  0  0  0  0  0  0  0
   19.6889   -6.4139  -15.1745 C   0  0  0  0  0  0  0  0  0  0  0  0
   19.3807   -6.1928  -16.3590 O   0  0  0  0  0  0  0  0  0  0  0  0
   23.2055   -4.4784  -13.5714 O   0  0  0  0  0  0  0  0  0  0  0  0
   18.8740   -5.8370  -14.1866 O   0  0  0  0  0  0  0  0  0  0  0  0
  2  1  1  1
  2  3  1  0
  2  4  1  0
  4  6  1  0
  4  5  1  6
  6  7  2  0
  9 10  1  0
  9  8  1  6
 11  9  1  0
 12  6  1  0
 11 12  1  1
 13 14  2  0
 13 11  1  0
 15 13  1  0
 16 17  1  6
 16 15  1  0
 17 18  1  0
 18 19  2  0
 18 22  1  0
 20 16  1  0
 21 20  2  0
 23 20  1  0
M  END
$$$$
