IWA.pdb
     RDKit          3D

 28 29  0  0  1  0  0  0  0  0999 V2000
   27.8306  -19.1271   -6.3401 C   0  0  0  0  0  0  0  0  0  0  0  0
   27.8741  -19.4849   -7.7952 C   0  0  0  0  0  0  0  0  0  0  0  0
   27.6844  -20.9911   -7.9798 C   0  0  2  0  0  0  0  0  0  0  0  0
   28.8513  -21.6590   -7.2839 C   0  0  0  0  0  0  0  0  0  0  0  0
   27.7960  -21.3328   -9.4523 C   0  0  2  0  0  0  0  0  0  0  0  0
   29.0680  -20.7896   -9.8909 N   0  0  0  0  0  0  0  0  0  0  0  0
   26.7289  -20.6773  -10.2463 C   0  0  0  0  0  0  0  0  0  0  0  0
   26.6440  -19.4433  -10.3055 O   0  0  0  0  0  0  0  0  0  0  0  0
   25.7610  -21.4624  -10.9711 N   0  0  0  0  0  0  0  0  0  0  0  0
   24.8480  -20.8742  -11.9079 C   0  0  1  0  0  0  0  0  0  0  0  0
   25.1698  -21.1391  -13.3516 C   0  0  0  0  0  0  0  0  0  0  0  0
   24.2833  -20.5345  -14.3276 C   0  0  0  0  0  0  0  0  0  0  0  0
   23.8475  -19.2252  -14.3554 C   0  0  0  0  0  0  0  0  0  0  0  0
   23.0215  -19.0379  -15.4000 N   0  0  0  0  0  0  0  0  0  0  0  0
   22.8941  -20.1921  -16.0736 C   0  0  0  0  0  0  0  0  0  0  0  0
   22.1643  -20.4829  -17.2034 C   0  0  0  0  0  0  0  0  0  0  0  0
   22.2239  -21.7711  -17.6910 C   0  0  0  0  0  0  0  0  0  0  0  0
   22.9969  -22.7408  -17.0591 C   0  0  0  0  0  0  0  0  0  0  0  0
   23.7031  -22.4004  -15.9395 C   0  0  0  0  0  0  0  0  0  0  0  0
   23.6838  -21.1393  -15.4075 C   0  0  0  0  0  0  0  0  0  0  0  0
   23.4543  -21.2210  -11.5615 C   0  0  0  0  0  0  0  0  0  0  0  0
   23.2114  -22.3901  -11.1705 O   0  0  0  0  0  0  0  0  0  0  0  0
   20.2773  -19.4127  -10.9245 C   0  0  0  0  0  0  0  0  0  0  0  0
   20.9999  -20.6940  -11.3569 C   0  0  2  0  0  0  0  0  0  0  0  0
   22.3715  -20.3208  -11.6411 N   0  0  0  0  0  0  0  0  0  0  0  0
   20.3202  -21.2895  -12.5080 C   0  0  0  0  0  0  0  0  0  0  0  0
   20.8208  -21.2611  -13.6592 O   0  0  0  0  0  0  0  0  0  0  0  0
   19.0901  -21.9070  -12.3493 O   0  0  0  0  0  0  0  0  0  0  0  0
  2  1  1  0
  3  2  1  0
  3  5  1  0
  3  4  1  1
  5  7  1  0
  5  6  1  6
  7  8  2  0
  9 10  1  0
  9  7  1  0
 10 11  1  6
 11 12  1  0
 12 20  1  0
 13 14  1  0
 13 12  2  0
 14 15  1  0
 15 20  2  0
 15 16  1  0
 16 17  2  0
 17 18  1  0
 19 18  2  0
 20 19  1  0
 21 10  1  0
 22 21  2  0
 24 23  1  6
 24 26  1  0
 24 25  1  0
 25 21  1  0
 26 28  1  0
 27 26  2  0
M  END
$$$$
