IWA.pdb
     RDKit          3D

 28 29  0  0  1  0  0  0  0  0999 V2000
   23.7058  -18.6022  -15.6866 C   0  0  0  0  0  0  0  0  0  0  0  0
   25.0573  -19.2438  -15.5912 C   0  0  0  0  0  0  0  0  0  0  0  0
   25.1421  -20.1254  -14.3445 C   0  0  2  0  0  0  0  0  0  0  0  0
   24.1304  -21.2356  -14.5344 C   0  0  0  0  0  0  0  0  0  0  0  0
   24.6972  -19.3268  -13.1355 C   0  0  2  0  0  0  0  0  0  0  0  0
   25.5161  -18.1290  -13.1273 N   0  0  0  0  0  0  0  0  0  0  0  0
   24.9581  -20.0589  -11.8727 C   0  0  0  0  0  0  0  0  0  0  0  0
   24.7487  -21.2763  -11.7856 O   0  0  0  0  0  0  0  0  0  0  0  0
   25.4634  -19.3697  -10.7115 N   0  0  0  0  0  0  0  0  0  0  0  0
   25.7528  -20.0529   -9.4839 C   0  0  1  0  0  0  0  0  0  0  0  0
   26.7683  -19.3728   -8.6095 C   0  0  0  0  0  0  0  0  0  0  0  0
   27.1922  -20.1044   -7.4308 C   0  0  0  0  0  0  0  0  0  0  0  0
   27.0140  -21.4497   -7.1794 C   0  0  0  0  0  0  0  0  0  0  0  0
   27.5242  -21.7636   -5.9753 N   0  0  0  0  0  0  0  0  0  0  0  0
   28.0408  -20.6590   -5.4139 C   0  0  0  0  0  0  0  0  0  0  0  0
   28.6684  -20.4921   -4.2007 C   0  0  0  0  0  0  0  0  0  0  0  0
   29.1128  -19.2276   -3.8778 C   0  0  0  0  0  0  0  0  0  0  0  0
   28.9310  -18.1596   -4.7516 C   0  0  0  0  0  0  0  0  0  0  0  0
   28.3012  -18.3787   -5.9447 C   0  0  0  0  0  0  0  0  0  0  0  0
   27.8373  -19.6103   -6.3214 C   0  0  0  0  0  0  0  0  0  0  0  0
   24.5043  -20.3755   -8.7630 C   0  0  0  0  0  0  0  0  0  0  0  0
   23.6200  -19.4871   -8.6771 O   0  0  0  0  0  0  0  0  0  0  0  0
   23.1586  -23.3403   -6.8924 C   0  0  0  0  0  0  0  0  0  0  0  0
   23.0055  -21.9241   -7.4597 C   0  0  2  0  0  0  0  0  0  0  0  0
   24.2378  -21.6228   -8.1610 N   0  0  0  0  0  0  0  0  0  0  0  0
   22.7177  -20.9793   -6.3797 C   0  0  0  0  0  0  0  0  0  0  0  0
   21.5413  -20.6816   -6.0572 O   0  0  0  0  0  0  0  0  0  0  0  0
   23.7541  -20.3836   -5.6792 O   0  0  0  0  0  0  0  0  0  0  0  0
  2  1  1  0
  3  2  1  0
  3  5  1  0
  3  4  1  6
  5  7  1  0
  5  6  1  1
  7  8  2  0
  9 10  1  0
  9  7  1  0
 10 11  1  1
 11 12  1  0
 12 20  1  0
 13 14  1  0
 13 12  2  0
 14 15  1  0
 15 20  2  0
 15 16  1  0
 16 17  2  0
 17 18  1  0
 19 18  2  0
 20 19  1  0
 21 10  1  0
 22 21  2  0
 24 23  1  1
 24 26  1  0
 24 25  1  0
 25 21  1  0
 26 28  1  0
 27 26  2  0
M  END
$$$$
