IWA.pdb
     RDKit          3D

 28 29  0  0  1  0  0  0  0  0999 V2000
   26.5709  -15.3304  -17.8323 C   0  0  0  0  0  0  0  0  0  0  0  0
   26.2048  -15.6640  -16.4175 C   0  0  0  0  0  0  0  0  0  0  0  0
   26.7612  -17.0353  -16.0319 C   0  0  2  0  0  0  0  0  0  0  0  0
   26.1691  -18.0287  -17.0089 C   0  0  0  0  0  0  0  0  0  0  0  0
   26.2506  -17.4137  -14.6558 C   0  0  2  0  0  0  0  0  0  0  0  0
   26.8654  -16.4782  -13.7327 N   0  0  0  0  0  0  0  0  0  0  0  0
   26.6846  -18.7780  -14.2696 C   0  0  0  0  0  0  0  0  0  0  0  0
   27.8830  -19.0444  -14.1065 O   0  0  0  0  0  0  0  0  0  0  0  0
   25.7198  -19.8312  -14.0739 N   0  0  0  0  0  0  0  0  0  0  0  0
   26.1083  -21.1686  -13.7310 C   0  0  1  0  0  0  0  0  0  0  0  0
   25.4893  -21.6999  -12.4690 C   0  0  0  0  0  0  0  0  0  0  0  0
   25.9809  -21.1350  -11.2266 C   0  0  0  0  0  0  0  0  0  0  0  0
   25.2596  -20.4072  -10.3021 C   0  0  0  0  0  0  0  0  0  0  0  0
   26.0580  -20.0355   -9.2858 N   0  0  0  0  0  0  0  0  0  0  0  0
   27.2985  -20.4981   -9.5079 C   0  0  0  0  0  0  0  0  0  0  0  0
   28.4398  -20.3738   -8.7492 C   0  0  0  0  0  0  0  0  0  0  0  0
   29.5917  -20.9651   -9.2227 C   0  0  0  0  0  0  0  0  0  0  0  0
   29.5956  -21.6628  -10.4270 C   0  0  0  0  0  0  0  0  0  0  0  0
   28.4350  -21.7569  -11.1428 C   0  0  0  0  0  0  0  0  0  0  0  0
   27.2604  -21.1911  -10.7256 C   0  0  0  0  0  0  0  0  0  0  0  0
   25.9212  -22.0745  -14.8830 C   0  0  0  0  0  0  0  0  0  0  0  0
   24.8573  -21.9835  -15.5452 O   0  0  0  0  0  0  0  0  0  0  0  0
   27.9732  -24.6265  -16.6980 C   0  0  0  0  0  0  0  0  0  0  0  0
   26.6180  -23.9987  -16.3510 C   0  0  2  0  0  0  0  0  0  0  0  0
   26.8639  -23.0409  -15.2911 N   0  0  0  0  0  0  0  0  0  0  0  0
   25.6651  -25.0415  -15.9683 C   0  0  0  0  0  0  0  0  0  0  0  0
   25.2814  -25.9177  -16.7816 O   0  0  0  0  0  0  0  0  0  0  0  0
   25.1581  -25.0843  -14.6796 O   0  0  0  0  0  0  0  0  0  0  0  0
  2  1  1  0
  3  2  1  0
  3  5  1  0
  3  4  1  6
  5  7  1  0
  5  6  1  1
  7  8  2  0
  9 10  1  0
  9  7  1  0
 10 11  1  1
 11 12  1  0
 12 20  1  0
 13 14  1  0
 13 12  2  0
 14 15  1  0
 15 20  2  0
 15 16  1  0
 16 17  2  0
 17 18  1  0
 19 18  2  0
 20 19  1  0
 21 10  1  0
 22 21  2  0
 24 23  1  1
 24 26  1  0
 24 25  1  0
 25 21  1  0
 26 28  1  0
 27 26  2  0
M  END
$$$$
