IWA.pdb
     RDKit          3D

 28 29  0  0  1  0  0  0  0  0999 V2000
   28.9597  -18.2952  -15.1980 C   0  0  0  0  0  0  0  0  0  0  0  0
   28.4465  -19.5995  -15.7297 C   0  0  0  0  0  0  0  0  0  0  0  0
   27.4145  -20.1967  -14.7720 C   0  0  2  0  0  0  0  0  0  0  0  0
   26.3125  -19.1679  -14.6330 C   0  0  0  0  0  0  0  0  0  0  0  0
   28.0397  -20.3598  -13.4009 C   0  0  2  0  0  0  0  0  0  0  0  0
   29.0868  -21.3520  -13.5571 N   0  0  0  0  0  0  0  0  0  0  0  0
   27.0640  -20.8865  -12.4163 C   0  0  0  0  0  0  0  0  0  0  0  0
   26.5581  -22.0082  -12.5562 O   0  0  0  0  0  0  0  0  0  0  0  0
   26.6789  -20.1038  -11.2684 N   0  0  0  0  0  0  0  0  0  0  0  0
   25.7278  -20.5780  -10.3052 C   0  0  1  0  0  0  0  0  0  0  0  0
   25.9301  -20.0551   -8.9109 C   0  0  0  0  0  0  0  0  0  0  0  0
   27.1699  -20.4314   -8.2586 C   0  0  0  0  0  0  0  0  0  0  0  0
   28.2020  -21.1710   -8.7994 C   0  0  0  0  0  0  0  0  0  0  0  0
   29.1780  -21.3326   -7.8884 N   0  0  0  0  0  0  0  0  0  0  0  0
   28.8236  -20.7176   -6.7490 C   0  0  0  0  0  0  0  0  0  0  0  0
   29.4974  -20.6087   -5.5541 C   0  0  0  0  0  0  0  0  0  0  0  0
   28.8902  -19.9017   -4.5381 C   0  0  0  0  0  0  0  0  0  0  0  0
   27.6390  -19.3198   -4.7191 C   0  0  0  0  0  0  0  0  0  0  0  0
   27.0117  -19.4575   -5.9256 C   0  0  0  0  0  0  0  0  0  0  0  0
   27.5627  -20.1475   -6.9715 C   0  0  0  0  0  0  0  0  0  0  0  0
   24.3487  -20.3764  -10.7952 C   0  0  0  0  0  0  0  0  0  0  0  0
   23.9579  -19.2011  -11.0064 O   0  0  0  0  0  0  0  0  0  0  0  0
   21.5140  -22.5966  -11.8502 C   0  0  0  0  0  0  0  0  0  0  0  0
   22.0961  -21.2096  -11.5535 C   0  0  2  0  0  0  0  0  0  0  0  0
   23.4361  -21.4227  -11.0433 N   0  0  0  0  0  0  0  0  0  0  0  0
   21.2339  -20.4943  -10.6119 C   0  0  0  0  0  0  0  0  0  0  0  0
   20.2062  -19.8805  -10.9910 O   0  0  0  0  0  0  0  0  0  0  0  0
   21.5383  -20.4791   -9.2603 O   0  0  0  0  0  0  0  0  0  0  0  0
  2  1  1  0
  3  2  1  0
  3  5  1  0
  3  4  1  1
  5  7  1  0
  5  6  1  6
  7  8  2  0
  9 10  1  0
  9  7  1  0
 10 11  1  1
 11 12  1  0
 12 20  1  0
 13 14  1  0
 13 12  2  0
 14 15  1  0
 15 20  2  0
 15 16  1  0
 16 17  2  0
 17 18  1  0
 19 18  2  0
 20 19  1  0
 21 10  1  0
 22 21  2  0
 24 23  1  1
 24 26  1  0
 24 25  1  0
 25 21  1  0
 26 28  1  0
 27 26  2  0
M  END
$$$$
