IWA.pdb
     RDKit          3D

 28 29  0  0  1  0  0  0  0  0999 V2000
   27.3587  -20.9603   -3.6126 C   0  0  0  0  0  0  0  0  0  0  0  0
   28.0283  -20.2362   -4.7415 C   0  0  0  0  0  0  0  0  0  0  0  0
   27.1010  -20.1676   -5.9556 C   0  0  2  0  0  0  0  0  0  0  0  0
   26.7310  -21.5962   -6.2940 C   0  0  0  0  0  0  0  0  0  0  0  0
   27.8691  -19.6193   -7.1417 C   0  0  2  0  0  0  0  0  0  0  0  0
   28.2362  -18.2618   -6.7842 N   0  0  0  0  0  0  0  0  0  0  0  0
   27.0208  -19.5511   -8.3560 C   0  0  0  0  0  0  0  0  0  0  0  0
   26.0504  -18.7840   -8.4146 O   0  0  0  0  0  0  0  0  0  0  0  0
   27.3053  -20.3785   -9.5019 N   0  0  0  0  0  0  0  0  0  0  0  0
   26.7035  -20.1427  -10.7823 C   0  0  1  0  0  0  0  0  0  0  0  0
   27.5676  -20.4989  -11.9590 C   0  0  0  0  0  0  0  0  0  0  0  0
   27.0661  -20.1106  -13.2637 C   0  0  0  0  0  0  0  0  0  0  0  0
   26.9118  -18.8267  -13.7459 C   0  0  0  0  0  0  0  0  0  0  0  0
   26.4029  -18.8613  -14.9902 N   0  0  0  0  0  0  0  0  0  0  0  0
   26.2128  -20.1396  -15.3533 C   0  0  0  0  0  0  0  0  0  0  0  0
   25.7222  -20.6639  -16.5272 C   0  0  0  0  0  0  0  0  0  0  0  0
   25.6413  -22.0363  -16.6318 C   0  0  0  0  0  0  0  0  0  0  0  0
   26.0432  -22.8592  -15.5837 C   0  0  0  0  0  0  0  0  0  0  0  0
   26.5233  -22.2881  -14.4386 C   0  0  0  0  0  0  0  0  0  0  0  0
   26.6270  -20.9330  -14.2747 C   0  0  0  0  0  0  0  0  0  0  0  0
   25.3650  -20.7645  -10.8488 C   0  0  0  0  0  0  0  0  0  0  0  0
   25.2381  -21.9484  -10.4479 O   0  0  0  0  0  0  0  0  0  0  0  0
   21.8705  -19.6286  -11.3882 C   0  0  0  0  0  0  0  0  0  0  0  0
   22.9147  -20.7505  -11.4312 C   0  0  2  0  0  0  0  0  0  0  0  0
   24.2129  -20.1126  -11.3356 N   0  0  0  0  0  0  0  0  0  0  0  0
   22.7546  -21.5386  -12.6539 C   0  0  0  0  0  0  0  0  0  0  0  0
   21.7812  -22.3146  -12.8180 O   0  0  0  0  0  0  0  0  0  0  0  0
   23.6889  -21.4434  -13.6726 O   0  0  0  0  0  0  0  0  0  0  0  0
  2  1  1  0
  3  2  1  0
  3  5  1  0
  3  4  1  6
  5  7  1  0
  5  6  1  1
  7  8  2  0
  9 10  1  0
  9  7  1  0
 10 11  1  6
 11 12  1  0
 12 20  1  0
 13 14  1  0
 13 12  2  0
 14 15  1  0
 15 20  2  0
 15 16  1  0
 16 17  2  0
 17 18  1  0
 19 18  2  0
 20 19  1  0
 21 10  1  0
 22 21  2  0
 24 23  1  6
 24 26  1  0
 24 25  1  0
 25 21  1  0
 26 28  1  0
 27 26  2  0
M  END
$$$$
