IWA.pdb
     RDKit          3D

 28 29  0  0  1  0  0  0  0  0999 V2000
   30.3460  -17.8775  -15.5220 C   0  0  0  0  0  0  0  0  0  0  0  0
   28.8990  -17.6088  -15.2368 C   0  0  0  0  0  0  0  0  0  0  0  0
   28.2136  -18.8740  -14.7193 C   0  0  2  0  0  0  0  0  0  0  0  0
   28.4220  -19.9377  -15.7763 C   0  0  0  0  0  0  0  0  0  0  0  0
   26.7201  -18.6321  -14.6269 C   0  0  2  0  0  0  0  0  0  0  0  0
   26.5433  -17.6293  -13.5932 N   0  0  0  0  0  0  0  0  0  0  0  0
   25.9958  -19.8529  -14.1982 C   0  0  0  0  0  0  0  0  0  0  0  0
   25.9697  -20.8638  -14.9130 O   0  0  0  0  0  0  0  0  0  0  0  0
   25.3020  -19.8935  -12.9351 N   0  0  0  0  0  0  0  0  0  0  0  0
   24.5540  -21.0417  -12.5113 C   0  0  1  0  0  0  0  0  0  0  0  0
   24.6891  -21.3776  -11.0528 C   0  0  0  0  0  0  0  0  0  0  0  0
   25.8242  -20.7945  -10.3630 C   0  0  0  0  0  0  0  0  0  0  0  0
   25.7884  -19.8731   -9.3361 C   0  0  0  0  0  0  0  0  0  0  0  0
   27.0400  -19.5525   -8.9626 N   0  0  0  0  0  0  0  0  0  0  0  0
   27.9141  -20.2386   -9.7158 C   0  0  0  0  0  0  0  0  0  0  0  0
   29.2900  -20.2427   -9.6947 C   0  0  0  0  0  0  0  0  0  0  0  0
   29.9422  -21.0628  -10.5908 C   0  0  0  0  0  0  0  0  0  0  0  0
   29.2296  -21.8575  -11.4840 C   0  0  0  0  0  0  0  0  0  0  0  0
   27.8636  -21.8164  -11.4642 C   0  0  0  0  0  0  0  0  0  0  0  0
   27.1596  -21.0227  -10.5993 C   0  0  0  0  0  0  0  0  0  0  0  0
   23.1454  -20.9314  -12.9429 C   0  0  0  0  0  0  0  0  0  0  0  0
   22.5276  -19.8665  -12.6920 O   0  0  0  0  0  0  0  0  0  0  0  0
   20.7430  -23.0073  -14.9303 C   0  0  0  0  0  0  0  0  0  0  0  0
   21.0339  -21.8663  -13.9483 C   0  0  2  0  0  0  0  0  0  0  0  0
   22.4440  -21.9490  -13.6224 N   0  0  0  0  0  0  0  0  0  0  0  0
   20.1688  -21.9824  -12.7736 C   0  0  0  0  0  0  0  0  0  0  0  0
   20.6003  -22.4076  -11.6737 O   0  0  0  0  0  0  0  0  0  0  0  0
   18.8338  -21.6197  -12.8515 O   0  0  0  0  0  0  0  0  0  0  0  0
  2  1  1  0
  3  2  1  0
  3  5  1  0
  3  4  1  6
  5  7  1  0
  5  6  1  1
  7  8  2  0
  9 10  1  0
  9  7  1  0
 10 11  1  1
 11 12  1  0
 12 20  1  0
 13 14  1  0
 13 12  2  0
 14 15  1  0
 15 20  2  0
 15 16  1  0
 16 17  2  0
 17 18  1  0
 19 18  2  0
 20 19  1  0
 21 10  1  0
 22 21  2  0
 24 23  1  6
 24 26  1  0
 24 25  1  0
 25 21  1  0
 26 28  1  0
 27 26  2  0
M  END
$$$$
