IWA.pdb
     RDKit          3D

 28 29  0  0  1  0  0  0  0  0999 V2000
   15.9026  -21.6778    6.0391 C   0  0  0  0  0  0  0  0  0  0  0  0
   15.8598  -20.1842    5.9184 C   0  0  0  0  0  0  0  0  0  0  0  0
   17.1361  -19.5662    6.4908 C   0  0  2  0  0  0  0  0  0  0  0  0
   17.1462  -19.8944    7.9688 C   0  0  0  0  0  0  0  0  0  0  0  0
   17.0566  -18.0569    6.3758 C   0  0  2  0  0  0  0  0  0  0  0  0
   17.0201  -17.7681    4.9543 N   0  0  0  0  0  0  0  0  0  0  0  0
   18.2635  -17.4033    6.9369 C   0  0  0  0  0  0  0  0  0  0  0  0
   19.3355  -17.4021    6.3170 O   0  0  0  0  0  0  0  0  0  0  0  0
   18.2189  -16.7509    8.2218 N   0  0  0  0  0  0  0  0  0  0  0  0
   19.3714  -16.1217    8.7991 C   0  0  1  0  0  0  0  0  0  0  0  0
   19.1386  -14.7267    9.3071 C   0  0  0  0  0  0  0  0  0  0  0  0
   19.3081  -13.6564    8.3427 C   0  0  0  0  0  0  0  0  0  0  0  0
   18.3881  -13.2274    7.4076 C   0  0  0  0  0  0  0  0  0  0  0  0
   18.9084  -12.2251    6.6774 N   0  0  0  0  0  0  0  0  0  0  0  0
   20.1565  -11.9722    7.1021 C   0  0  0  0  0  0  0  0  0  0  0  0
   21.0696  -11.0400    6.6651 C   0  0  0  0  0  0  0  0  0  0  0  0
   22.2937  -10.9963    7.2979 C   0  0  0  0  0  0  0  0  0  0  0  0
   22.5914  -11.8667    8.3423 C   0  0  0  0  0  0  0  0  0  0  0  0
   21.6494  -12.7743    8.7384 C   0  0  0  0  0  0  0  0  0  0  0  0
   20.4172  -12.8667    8.1493 C   0  0  0  0  0  0  0  0  0  0  0  0
   19.9899  -17.0015    9.8120 C   0  0  0  0  0  0  0  0  0  0  0  0
   19.2391  -17.5762   10.6395 O   0  0  0  0  0  0  0  0  0  0  0  0
   22.9003  -19.0505   10.2654 C   0  0  0  0  0  0  0  0  0  0  0  0
   21.9746  -18.0445   10.9595 C   0  0  2  0  0  0  0  0  0  0  0  0
   21.3763  -17.2404    9.9121 N   0  0  0  0  0  0  0  0  0  0  0  0
   22.7324  -17.2497   11.9268 C   0  0  0  0  0  0  0  0  0  0  0  0
   23.3061  -17.7770   12.9114 O   0  0  0  0  0  0  0  0  0  0  0  0
   22.8343  -15.8764   11.7741 O   0  0  0  0  0  0  0  0  0  0  0  0
  2  1  1  0
  3  2  1  0
  3  5  1  0
  3  4  1  1
  5  7  1  0
  5  6  1  6
  7  8  2  0
  9 10  1  0
  9  7  1  0
 10 11  1  1
 11 12  1  0
 12 20  1  0
 13 14  1  0
 13 12  2  0
 14 15  1  0
 15 20  2  0
 15 16  1  0
 16 17  2  0
 17 18  1  0
 19 18  2  0
 20 19  1  0
 21 10  1  0
 22 21  2  0
 24 23  1  6
 24 26  1  0
 24 25  1  0
 25 21  1  0
 26 28  1  0
 27 26  2  0
M  END
$$$$
