IWA.pdb
     RDKit          3D

 28 29  0  0  1  0  0  0  0  0999 V2000
   30.0636  -20.3417  -17.3611 C   0  0  0  0  0  0  0  0  0  0  0  0
   28.9654  -19.5693  -16.6945 C   0  0  0  0  0  0  0  0  0  0  0  0
   28.2337  -20.4498  -15.6805 C   0  0  2  0  0  0  0  0  0  0  0  0
   27.7282  -21.6549  -16.4448 C   0  0  0  0  0  0  0  0  0  0  0  0
   27.0140  -19.7121  -15.1653 C   0  0  2  0  0  0  0  0  0  0  0  0
   27.5180  -18.5191  -14.5110 N   0  0  0  0  0  0  0  0  0  0  0  0
   26.2844  -20.5084  -14.1492 C   0  0  0  0  0  0  0  0  0  0  0  0
   25.8082  -21.6170  -14.4283 O   0  0  0  0  0  0  0  0  0  0  0  0
   26.1108  -20.0106  -12.8074 N   0  0  0  0  0  0  0  0  0  0  0  0
   25.2421  -20.6502  -11.8620 C   0  0  1  0  0  0  0  0  0  0  0  0
   25.4810  -20.2675  -10.4286 C   0  0  0  0  0  0  0  0  0  0  0  0
   26.7557  -20.6661   -9.8624 C   0  0  0  0  0  0  0  0  0  0  0  0
   27.7521  -21.3890  -10.4863 C   0  0  0  0  0  0  0  0  0  0  0  0
   28.7792  -21.5811   -9.6396 N   0  0  0  0  0  0  0  0  0  0  0  0
   28.4939  -21.0028   -8.4622 C   0  0  0  0  0  0  0  0  0  0  0  0
   29.2367  -20.9335   -7.3059 C   0  0  0  0  0  0  0  0  0  0  0  0
   28.6921  -20.2590   -6.2338 C   0  0  0  0  0  0  0  0  0  0  0  0
   27.4341  -19.6701   -6.3224 C   0  0  0  0  0  0  0  0  0  0  0  0
   26.7370  -19.7680   -7.4940 C   0  0  0  0  0  0  0  0  0  0  0  0
   27.2238  -20.4245   -8.5921 C   0  0  0  0  0  0  0  0  0  0  0  0
   23.8298  -20.4930  -12.2664 C   0  0  0  0  0  0  0  0  0  0  0  0
   23.3640  -19.3301  -12.3621 O   0  0  0  0  0  0  0  0  0  0  0  0
   21.3640  -22.4978  -14.0704 C   0  0  0  0  0  0  0  0  0  0  0  0
   21.6069  -21.3963  -13.0318 C   0  0  2  0  0  0  0  0  0  0  0  0
   22.9646  -21.5690  -12.5540 N   0  0  0  0  0  0  0  0  0  0  0  0
   20.6103  -21.4850  -11.9638 C   0  0  0  0  0  0  0  0  0  0  0  0
   19.4048  -21.1925  -12.1580 O   0  0  0  0  0  0  0  0  0  0  0  0
   20.9821  -21.9002  -10.6953 O   0  0  0  0  0  0  0  0  0  0  0  0
  2  1  1  0
  3  2  1  0
  3  5  1  0
  3  4  1  6
  5  7  1  0
  5  6  1  1
  7  8  2  0
  9 10  1  0
  9  7  1  0
 10 11  1  1
 11 12  1  0
 12 20  1  0
 13 14  1  0
 13 12  2  0
 14 15  1  0
 15 20  2  0
 15 16  1  0
 16 17  2  0
 17 18  1  0
 19 18  2  0
 20 19  1  0
 21 10  1  0
 22 21  2  0
 24 23  1  6
 24 26  1  0
 24 25  1  0
 25 21  1  0
 26 28  1  0
 27 26  2  0
M  END
$$$$
