IWA.pdb
     RDKit          3D

 28 29  0  0  1  0  0  0  0  0999 V2000
   24.6063  -20.9149  -17.2454 C   0  0  0  0  0  0  0  0  0  0  0  0
   25.2731  -20.0506  -16.2180 C   0  0  0  0  0  0  0  0  0  0  0  0
   24.8197  -20.4470  -14.8123 C   0  0  2  0  0  0  0  0  0  0  0  0
   24.3712  -19.1717  -14.1306 C   0  0  0  0  0  0  0  0  0  0  0  0
   26.0093  -20.9685  -14.0311 C   0  0  2  0  0  0  0  0  0  0  0  0
   26.3481  -22.2463  -14.6292 N   0  0  0  0  0  0  0  0  0  0  0  0
   25.6630  -21.2143  -12.6104 C   0  0  0  0  0  0  0  0  0  0  0  0
   24.8815  -22.1205  -12.2914 O   0  0  0  0  0  0  0  0  0  0  0  0
   26.2291  -20.4024  -11.5622 N   0  0  0  0  0  0  0  0  0  0  0  0
   25.9242  -20.6212  -10.1778 C   0  0  1  0  0  0  0  0  0  0  0  0
   26.9351  -20.0649   -9.2151 C   0  0  0  0  0  0  0  0  0  0  0  0
   26.7344  -20.3897   -7.8156 C   0  0  0  0  0  0  0  0  0  0  0  0
   25.7491  -21.1962   -7.2831 C   0  0  0  0  0  0  0  0  0  0  0  0
   25.8711  -21.2479   -5.9448 N   0  0  0  0  0  0  0  0  0  0  0  0
   26.9164  -20.4944   -5.5681 C   0  0  0  0  0  0  0  0  0  0  0  0
   27.4258  -20.2494   -4.3135 C   0  0  0  0  0  0  0  0  0  0  0  0
   28.5298  -19.4289   -4.2191 C   0  0  0  0  0  0  0  0  0  0  0  0
   29.1059  -18.8699   -5.3560 C   0  0  0  0  0  0  0  0  0  0  0  0
   28.5612  -19.1448   -6.5791 C   0  0  0  0  0  0  0  0  0  0  0  0
   27.4661  -19.9508   -6.7372 C   0  0  0  0  0  0  0  0  0  0  0  0
   24.5464  -20.1826   -9.8744 C   0  0  0  0  0  0  0  0  0  0  0  0
   24.2721  -18.9617   -9.9870 O   0  0  0  0  0  0  0  0  0  0  0  0
   21.5049  -20.7759  -10.7371 C   0  0  0  0  0  0  0  0  0  0  0  0
   22.1273  -20.6389   -9.3426 C   0  0  2  0  0  0  0  0  0  0  0  0
   23.5122  -21.0494   -9.4643 N   0  0  0  0  0  0  0  0  0  0  0  0
   21.3766  -21.4423   -8.3768 C   0  0  0  0  0  0  0  0  0  0  0  0
   20.1682  -21.2135   -8.1234 O   0  0  0  0  0  0  0  0  0  0  0  0
   21.9933  -22.4892   -7.7110 O   0  0  0  0  0  0  0  0  0  0  0  0
  2  1  1  0
  3  2  1  0
  3  5  1  0
  3  4  1  1
  5  7  1  0
  5  6  1  6
  7  8  2  0
  9 10  1  0
  9  7  1  0
 10 11  1  1
 11 12  1  0
 12 20  1  0
 13 14  1  0
 13 12  2  0
 14 15  1  0
 15 20  2  0
 15 16  1  0
 16 17  2  0
 17 18  1  0
 19 18  2  0
 20 19  1  0
 21 10  1  0
 22 21  2  0
 24 23  1  6
 24 26  1  0
 24 25  1  0
 25 21  1  0
 26 28  1  0
 27 26  2  0
M  END
$$$$
