IWA.pdb
     RDKit          3D

 28 29  0  0  1  0  0  0  0  0999 V2000
   24.6049  -24.2498  -19.2793 C   0  0  0  0  0  0  0  0  0  0  0  0
   25.6817  -24.1452  -18.2416 C   0  0  0  0  0  0  0  0  0  0  0  0
   25.1064  -23.6141  -16.9280 C   0  0  2  0  0  0  0  0  0  0  0  0
   24.6530  -22.1955  -17.2007 C   0  0  0  0  0  0  0  0  0  0  0  0
   26.2121  -23.5316  -15.8945 C   0  0  2  0  0  0  0  0  0  0  0  0
   26.6924  -24.8892  -15.7172 N   0  0  0  0  0  0  0  0  0  0  0  0
   25.7000  -23.0608  -14.5850 C   0  0  0  0  0  0  0  0  0  0  0  0
   24.5133  -23.2199  -14.2690 O   0  0  0  0  0  0  0  0  0  0  0  0
   26.5734  -22.4043  -13.6443 N   0  0  0  0  0  0  0  0  0  0  0  0
   26.0926  -21.8599  -12.4075 C   0  0  1  0  0  0  0  0  0  0  0  0
   27.1625  -21.3311  -11.4944 C   0  0  0  0  0  0  0  0  0  0  0  0
   26.7205  -20.8522  -10.1984 C   0  0  0  0  0  0  0  0  0  0  0  0
   25.4281  -20.5473   -9.8221 C   0  0  0  0  0  0  0  0  0  0  0  0
   25.4100  -20.1166   -8.5482 N   0  0  0  0  0  0  0  0  0  0  0  0
   26.6612  -20.1262   -8.0618 C   0  0  0  0  0  0  0  0  0  0  0  0
   27.1305  -19.7779   -6.8160 C   0  0  0  0  0  0  0  0  0  0  0  0
   28.4848  -19.8946   -6.5856 C   0  0  0  0  0  0  0  0  0  0  0  0
   29.3441  -20.3494   -7.5816 C   0  0  0  0  0  0  0  0  0  0  0  0
   28.8272  -20.6824   -8.8023 C   0  0  0  0  0  0  0  0  0  0  0  0
   27.4926  -20.5875   -9.0917 C   0  0  0  0  0  0  0  0  0  0  0  0
   25.0183  -20.8766  -12.6564 C   0  0  0  0  0  0  0  0  0  0  0  0
   25.3365  -19.7505  -13.1138 O   0  0  0  0  0  0  0  0  0  0  0  0
   22.1302  -20.4274  -14.1254 C   0  0  0  0  0  0  0  0  0  0  0  0
   22.6054  -20.1556  -12.6933 C   0  0  2  0  0  0  0  0  0  0  0  0
   23.6506  -21.1202  -12.4131 N   0  0  0  0  0  0  0  0  0  0  0  0
   21.4785  -20.2491  -11.7643 C   0  0  0  0  0  0  0  0  0  0  0  0
   21.3690  -21.1993  -10.9508 O   0  0  0  0  0  0  0  0  0  0  0  0
   20.4928  -19.2755  -11.7628 O   0  0  0  0  0  0  0  0  0  0  0  0
  2  1  1  0
  3  2  1  0
  3  5  1  0
  3  4  1  6
  5  7  1  0
  5  6  1  1
  7  8  2  0
  9 10  1  0
  9  7  1  0
 10 11  1  6
 11 12  1  0
 12 20  1  0
 13 14  1  0
 13 12  2  0
 14 15  1  0
 15 20  2  0
 15 16  1  0
 16 17  2  0
 17 18  1  0
 19 18  2  0
 20 19  1  0
 21 10  1  0
 22 21  2  0
 24 23  1  6
 24 26  1  0
 24 25  1  0
 25 21  1  0
 26 28  1  0
 27 26  2  0
M  END
$$$$
