IWA.pdb
     RDKit          3D

 28 29  0  0  1  0  0  0  0  0999 V2000
   28.1228  -18.3439  -17.8934 C   0  0  0  0  0  0  0  0  0  0  0  0
   28.6877  -19.0440  -16.6942 C   0  0  0  0  0  0  0  0  0  0  0  0
   27.5625  -19.6217  -15.8348 C   0  0  2  0  0  0  0  0  0  0  0  0
   26.7975  -18.4395  -15.2785 C   0  0  0  0  0  0  0  0  0  0  0  0
   28.1623  -20.3540  -14.6510 C   0  0  2  0  0  0  0  0  0  0  0  0
   28.9195  -21.4588  -15.2094 N   0  0  0  0  0  0  0  0  0  0  0  0
   27.1118  -20.9259  -13.7747 C   0  0  0  0  0  0  0  0  0  0  0  0
   26.5253  -21.9728  -14.0807 O   0  0  0  0  0  0  0  0  0  0  0  0
   26.7460  -20.2757  -12.5410 N   0  0  0  0  0  0  0  0  0  0  0  0
   25.7880  -20.8404  -11.6351 C   0  0  1  0  0  0  0  0  0  0  0  0
   25.9675  -20.4385  -10.1983 C   0  0  0  0  0  0  0  0  0  0  0  0
   27.2023  -20.8599   -9.5641 C   0  0  0  0  0  0  0  0  0  0  0  0
   28.1628  -21.6990  -10.0915 C   0  0  0  0  0  0  0  0  0  0  0  0
   29.1581  -21.8733   -9.2041 N   0  0  0  0  0  0  0  0  0  0  0  0
   28.8868  -21.1695   -8.0936 C   0  0  0  0  0  0  0  0  0  0  0  0
   29.6090  -21.0370   -6.9298 C   0  0  0  0  0  0  0  0  0  0  0  0
   29.0871  -20.2315   -5.9400 C   0  0  0  0  0  0  0  0  0  0  0  0
   27.8716  -19.5769   -6.1160 C   0  0  0  0  0  0  0  0  0  0  0  0
   27.1934  -19.7420   -7.2911 C   0  0  0  0  0  0  0  0  0  0  0  0
   27.6593  -20.5284   -8.3101 C   0  0  0  0  0  0  0  0  0  0  0  0
   24.4130  -20.6097  -12.1241 C   0  0  0  0  0  0  0  0  0  0  0  0
   24.0339  -19.4245  -12.2974 O   0  0  0  0  0  0  0  0  0  0  0  0
   21.6714  -22.6912  -13.5516 C   0  0  0  0  0  0  0  0  0  0  0  0
   22.1434  -21.3947  -12.8829 C   0  0  2  0  0  0  0  0  0  0  0  0
   23.4921  -21.6387  -12.4109 N   0  0  0  0  0  0  0  0  0  0  0  0
   21.2221  -21.0195  -11.8095 C   0  0  0  0  0  0  0  0  0  0  0  0
   21.5257  -21.1575  -10.5989 O   0  0  0  0  0  0  0  0  0  0  0  0
   19.9754  -20.4958  -12.1112 O   0  0  0  0  0  0  0  0  0  0  0  0
  2  1  1  0
  3  2  1  0
  3  5  1  0
  3  4  1  1
  5  7  1  0
  5  6  1  6
  7  8  2  0
  9 10  1  0
  9  7  1  0
 10 11  1  1
 11 12  1  0
 12 20  1  0
 13 14  1  0
 13 12  2  0
 14 15  1  0
 15 20  2  0
 15 16  1  0
 16 17  2  0
 17 18  1  0
 19 18  2  0
 20 19  1  0
 21 10  1  0
 22 21  2  0
 24 23  1  1
 24 26  1  0
 24 25  1  0
 25 21  1  0
 26 28  1  0
 27 26  2  0
M  END
$$$$
