IWA.pdb
     RDKit          3D

 28 29  0  0  1  0  0  0  0  0999 V2000
   26.1469  -15.9922  -20.3511 C   0  0  0  0  0  0  0  0  0  0  0  0
   27.1401  -16.5581  -19.3813 C   0  0  0  0  0  0  0  0  0  0  0  0
   26.4471  -17.5029  -18.3987 C   0  0  2  0  0  0  0  0  0  0  0  0
   25.4355  -16.6684  -17.6420 C   0  0  0  0  0  0  0  0  0  0  0  0
   27.4574  -17.9976  -17.3828 C   0  0  2  0  0  0  0  0  0  0  0  0
   28.4480  -18.7421  -18.1377 N   0  0  0  0  0  0  0  0  0  0  0  0
   26.8396  -18.9298  -16.4092 C   0  0  0  0  0  0  0  0  0  0  0  0
   26.2376  -19.9431  -16.7891 O   0  0  0  0  0  0  0  0  0  0  0  0
   26.9247  -18.6791  -14.9920 N   0  0  0  0  0  0  0  0  0  0  0  0
   26.4063  -19.5991  -14.0213 C   0  0  1  0  0  0  0  0  0  0  0  0
   27.1287  -19.5972  -12.7036 C   0  0  0  0  0  0  0  0  0  0  0  0
   26.6718  -20.5610  -11.7204 C   0  0  0  0  0  0  0  0  0  0  0  0
   26.4529  -21.9092  -11.9181 C   0  0  0  0  0  0  0  0  0  0  0  0
   26.0153  -22.4755  -10.7795 N   0  0  0  0  0  0  0  0  0  0  0  0
   25.9362  -21.5373   -9.8227 C   0  0  0  0  0  0  0  0  0  0  0  0
   25.5479  -21.6439   -8.5068 C   0  0  0  0  0  0  0  0  0  0  0  0
   25.5704  -20.5002   -7.7373 C   0  0  0  0  0  0  0  0  0  0  0  0
   25.9728  -19.2819   -8.2767 C   0  0  0  0  0  0  0  0  0  0  0  0
   26.3489  -19.2297   -9.5897 C   0  0  0  0  0  0  0  0  0  0  0  0
   26.3472  -20.3300  -10.4042 C   0  0  0  0  0  0  0  0  0  0  0  0
   24.9466  -19.4273  -13.8715 C   0  0  0  0  0  0  0  0  0  0  0  0
   24.5043  -18.2759  -13.6318 O   0  0  0  0  0  0  0  0  0  0  0  0
   21.8763  -21.1524  -14.8239 C   0  0  0  0  0  0  0  0  0  0  0  0
   22.5880  -20.3042  -13.7634 C   0  0  2  0  0  0  0  0  0  0  0  0
   24.0109  -20.4769  -13.9806 N   0  0  0  0  0  0  0  0  0  0  0  0
   22.1613  -20.7129  -12.4245 C   0  0  0  0  0  0  0  0  0  0  0  0
   22.9278  -21.3321  -11.6462 O   0  0  0  0  0  0  0  0  0  0  0  0
   20.8819  -20.4207  -11.9804 O   0  0  0  0  0  0  0  0  0  0  0  0
  2  1  1  0
  3  2  1  0
  3  5  1  0
  3  4  1  1
  5  7  1  0
  5  6  1  6
  7  8  2  0
  9 10  1  0
  9  7  1  0
 10 11  1  1
 11 12  1  0
 12 20  1  0
 13 14  1  0
 13 12  2  0
 14 15  1  0
 15 20  2  0
 15 16  1  0
 16 17  2  0
 17 18  1  0
 19 18  2  0
 20 19  1  0
 21 10  1  0
 22 21  2  0
 24 23  1  6
 24 26  1  0
 24 25  1  0
 25 21  1  0
 26 28  1  0
 27 26  2  0
M  END
$$$$
