DGK.pdb
     RDKit          3D

 22 21  0  0  1  0  0  0  0  0999 V2000
    3.8415  -20.8914   21.3758 N   0  0  0  0  0  0  0  0  0  0  0  0
    4.1851  -19.6296   20.6384 C   0  0  1  0  0  0  0  0  0  0  0  0
    2.9466  -18.8666   20.3492 C   0  0  0  0  0  0  0  0  0  0  0  0
    1.7133  -19.4334   20.9021 C   0  0  0  0  0  0  0  0  0  0  0  0
    1.1611  -20.4193   20.3520 O   0  0  0  0  0  0  0  0  0  0  0  0
    5.1065  -18.9582   21.6172 C   0  0  0  0  0  0  0  0  0  0  0  0
    6.3717  -18.9656   21.3522 O   0  0  0  0  0  0  0  0  0  0  0  0
    1.1143  -18.9242   22.0269 O   0  0  0  0  0  0  0  0  0  0  0  0
    4.7666  -18.3144   22.8088 N   0  0  0  0  0  0  0  0  0  0  0  0
    5.7434  -17.6010   23.6099 C   0  0  0  0  0  0  0  0  0  0  0  0
    6.3618  -18.4136   24.6776 C   0  0  0  0  0  0  0  0  0  0  0  0
    5.6366  -18.6562   25.6806 O   0  0  0  0  0  0  0  0  0  0  0  0
    7.6629  -18.9238   24.6533 N   0  0  0  0  0  0  0  0  0  0  0  0
    8.2830  -19.6375   25.7657 C   0  0  1  0  0  0  0  0  0  0  0  0
    8.9065  -20.9098   25.3220 C   0  0  0  0  0  0  0  0  0  0  0  0
    9.5216  -21.6741   26.4586 C   0  0  0  0  0  0  0  0  0  0  0  0
   10.1952  -22.9548   26.0264 C   0  0  0  0  0  0  0  0  0  0  0  0
   10.7542  -23.5913   27.3069 C   0  0  0  0  0  0  0  0  0  0  0  0
   11.4690  -24.8072   26.9681 N   0  0  0  0  0  0  0  0  0  0  0  0
    9.2160  -18.7364   26.4466 C   0  0  0  0  0  0  0  0  0  0  0  0
    9.4145  -18.8619   27.8348 O   0  0  0  0  0  0  0  0  0  0  0  0
    9.8869  -17.8237   25.9027 O   0  0  0  0  0  0  0  0  0  0  0  0
  2  3  1  0
  2  1  1  1
  3  4  1  0
  4  5  2  0
  4  8  1  0
  6  7  2  0
  6  2  1  0
  9  6  1  0
 10  9  1  0
 10 11  1  0
 11 12  2  0
 13 11  1  0
 13 14  1  0
 14 15  1  6
 15 16  1  0
 16 17  1  0
 17 18  1  0
 18 19  1  0
 20 21  1  0
 20 14  1  0
 22 20  2  0
M  END
$$$$
