DGK.pdb
     RDKit          3D

 22 21  0  0  1  0  0  0  0  0999 V2000
    9.9966  -17.0285   20.5907 N   0  0  0  0  0  0  0  0  0  0  0  0
   10.9912  -18.1525   20.6248 C   0  0  1  0  0  0  0  0  0  0  0  0
   11.6597  -18.2687   19.3060 C   0  0  0  0  0  0  0  0  0  0  0  0
   10.7961  -18.6796   18.1955 C   0  0  0  0  0  0  0  0  0  0  0  0
    9.6799  -19.2128   18.4181 O   0  0  0  0  0  0  0  0  0  0  0  0
   11.8988  -17.7089   21.7373 C   0  0  0  0  0  0  0  0  0  0  0  0
   12.7971  -18.5430   22.1472 O   0  0  0  0  0  0  0  0  0  0  0  0
   11.1583  -18.5041   16.8834 O   0  0  0  0  0  0  0  0  0  0  0  0
   11.8958  -16.4833   22.4065 N   0  0  0  0  0  0  0  0  0  0  0  0
   12.8414  -16.1751   23.4628 C   0  0  0  0  0  0  0  0  0  0  0  0
   12.2570  -16.1782   24.8197 C   0  0  0  0  0  0  0  0  0  0  0  0
   13.0601  -15.9721   25.7701 O   0  0  0  0  0  0  0  0  0  0  0  0
   10.9070  -16.3849   25.1172 N   0  0  0  0  0  0  0  0  0  0  0  0
   10.3626  -16.4141   26.4715 C   0  0  1  0  0  0  0  0  0  0  0  0
    8.9565  -15.9384   26.5081 C   0  0  0  0  0  0  0  0  0  0  0  0
    8.8475  -14.4550   26.3030 C   0  0  0  0  0  0  0  0  0  0  0  0
    7.4259  -13.9466   26.3381 C   0  0  0  0  0  0  0  0  0  0  0  0
    7.5172  -12.4238   26.1654 C   0  0  0  0  0  0  0  0  0  0  0  0
    6.1845  -11.8530   26.2105 N   0  0  0  0  0  0  0  0  0  0  0  0
   10.5385  -17.7591   27.0248 C   0  0  0  0  0  0  0  0  0  0  0  0
   10.5270  -17.9427   28.4207 O   0  0  0  0  0  0  0  0  0  0  0  0
   10.7064  -18.8121   26.3601 O   0  0  0  0  0  0  0  0  0  0  0  0
  2  3  1  0
  2  1  1  6
  3  4  1  0
  4  5  2  0
  4  8  1  0
  6  7  2  0
  6  2  1  0
  9  6  1  0
 10  9  1  0
 10 11  1  0
 11 12  2  0
 13 11  1  0
 13 14  1  0
 14 15  1  6
 15 16  1  0
 16 17  1  0
 17 18  1  0
 18 19  1  0
 20 21  1  0
 20 14  1  0
 22 20  2  0
M  END
$$$$
