DGK.pdb
     RDKit          3D

 22 21  0  0  1  0  0  0  0  0999 V2000
   10.1114  -17.7607   20.4327 N   0  0  0  0  0  0  0  0  0  0  0  0
    8.8765  -17.3360   19.6923 C   0  0  1  0  0  0  0  0  0  0  0  0
    8.5310  -18.3543   18.6709 C   0  0  0  0  0  0  0  0  0  0  0  0
    9.5184  -18.5369   17.6034 C   0  0  0  0  0  0  0  0  0  0  0  0
   10.0757  -17.5433   17.0723 O   0  0  0  0  0  0  0  0  0  0  0  0
    7.8827  -17.2287   20.8143 C   0  0  0  0  0  0  0  0  0  0  0  0
    6.7319  -16.7038   20.5481 O   0  0  0  0  0  0  0  0  0  0  0  0
    9.8758  -19.7790   17.1420 O   0  0  0  0  0  0  0  0  0  0  0  0
    8.0456  -17.6282   22.1424 N   0  0  0  0  0  0  0  0  0  0  0  0
    6.9952  -17.4761   23.1315 C   0  0  0  0  0  0  0  0  0  0  0  0
    7.4371  -16.8482   24.3937 C   0  0  0  0  0  0  0  0  0  0  0  0
    8.3949  -16.0327   24.3020 O   0  0  0  0  0  0  0  0  0  0  0  0
    6.8789  -17.0860   25.6529 N   0  0  0  0  0  0  0  0  0  0  0  0
    7.5083  -17.9030   26.6862 C   0  0  1  0  0  0  0  0  0  0  0  0
    7.5274  -19.3402   26.3135 C   0  0  0  0  0  0  0  0  0  0  0  0
    6.9571  -20.2191   27.3889 C   0  0  0  0  0  0  0  0  0  0  0  0
    6.9442  -21.6843   27.0232 C   0  0  0  0  0  0  0  0  0  0  0  0
    6.3361  -22.4155   28.2285 C   0  0  0  0  0  0  0  0  0  0  0  0
    6.3231  -23.8427   27.9699 N   0  0  0  0  0  0  0  0  0  0  0  0
    8.8363  -17.3580   26.9787 C   0  0  0  0  0  0  0  0  0  0  0  0
    9.1922  -17.0734   28.3108 O   0  0  0  0  0  0  0  0  0  0  0  0
    9.7307  -17.1055   26.1330 O   0  0  0  0  0  0  0  0  0  0  0  0
  2  3  1  0
  2  1  1  1
  3  4  1  0
  4  5  2  0
  4  8  1  0
  6  7  2  0
  6  2  1  0
  9  6  1  0
 10  9  1  0
 10 11  1  0
 11 12  2  0
 13 11  1  0
 13 14  1  0
 14 15  1  6
 15 16  1  0
 16 17  1  0
 17 18  1  0
 18 19  1  0
 20 21  1  0
 20 14  1  0
 22 20  2  0
M  END
$$$$
