DGK.pdb
     RDKit          3D

 22 21  0  0  1  0  0  0  0  0999 V2000
    9.7165  -19.2092   18.7629 N   0  0  0  0  0  0  0  0  0  0  0  0
    8.6985  -18.2577   18.2043 C   0  0  1  0  0  0  0  0  0  0  0  0
    7.8187  -18.9719   17.2474 C   0  0  0  0  0  0  0  0  0  0  0  0
    8.3935  -19.2115   15.9207 C   0  0  0  0  0  0  0  0  0  0  0  0
    9.5545  -19.6784   15.8026 O   0  0  0  0  0  0  0  0  0  0  0  0
    8.0034  -17.8019   19.4562 C   0  0  0  0  0  0  0  0  0  0  0  0
    7.4349  -16.6411   19.4380 O   0  0  0  0  0  0  0  0  0  0  0  0
    7.7035  -18.9431   14.7652 O   0  0  0  0  0  0  0  0  0  0  0  0
    7.8920  -18.4842   20.6695 N   0  0  0  0  0  0  0  0  0  0  0  0
    7.0271  -18.0248   21.7400 C   0  0  0  0  0  0  0  0  0  0  0  0
    7.6215  -16.9734   22.5908 C   0  0  0  0  0  0  0  0  0  0  0  0
    8.8631  -16.7922   22.4629 O   0  0  0  0  0  0  0  0  0  0  0  0
    6.9202  -16.1809   23.5040 N   0  0  0  0  0  0  0  0  0  0  0  0
    7.5319  -15.1362   24.3199 C   0  0  1  0  0  0  0  0  0  0  0  0
    6.5093  -14.3017   25.0000 C   0  0  0  0  0  0  0  0  0  0  0  0
    7.1202  -13.2245   25.8489 C   0  0  0  0  0  0  0  0  0  0  0  0
    6.0989  -12.3536   26.5412 C   0  0  0  0  0  0  0  0  0  0  0  0
    6.8957  -11.2477   27.2476 C   0  0  0  0  0  0  0  0  0  0  0  0
    5.9782  -10.3441   27.9150 N   0  0  0  0  0  0  0  0  0  0  0  0
    8.4890  -15.7532   25.2415 C   0  0  0  0  0  0  0  0  0  0  0  0
    9.6901  -15.0845   25.5458 O   0  0  0  0  0  0  0  0  0  0  0  0
    8.3486  -16.8628   25.8142 O   0  0  0  0  0  0  0  0  0  0  0  0
  2  3  1  0
  2  1  1  1
  3  4  1  0
  4  5  2  0
  4  8  1  0
  6  7  2  0
  6  2  1  0
  9  6  1  0
 10  9  1  0
 10 11  1  0
 11 12  2  0
 13 11  1  0
 13 14  1  0
 14 15  1  1
 15 16  1  0
 16 17  1  0
 17 18  1  0
 18 19  1  0
 20 21  1  0
 20 14  1  0
 22 20  2  0
M  END
$$$$
