DGK.pdb
     RDKit          3D

 22 21  0  0  1  0  0  0  0  0999 V2000
   10.2569  -17.1445   18.3862 N   0  0  0  0  0  0  0  0  0  0  0  0
    8.9340  -17.8541   18.4000 C   0  0  1  0  0  0  0  0  0  0  0  0
    9.1319  -19.2730   18.7836 C   0  0  0  0  0  0  0  0  0  0  0  0
    9.9728  -20.0598   17.8770 C   0  0  0  0  0  0  0  0  0  0  0  0
    9.5071  -20.5017   16.7964 O   0  0  0  0  0  0  0  0  0  0  0  0
    8.1755  -17.0434   19.4127 C   0  0  0  0  0  0  0  0  0  0  0  0
    6.9318  -16.7899   19.1682 O   0  0  0  0  0  0  0  0  0  0  0  0
   11.2850  -20.3455   18.1594 O   0  0  0  0  0  0  0  0  0  0  0  0
    8.6520  -16.5107   20.6123 N   0  0  0  0  0  0  0  0  0  0  0  0
    7.7737  -16.1979   21.7240 C   0  0  0  0  0  0  0  0  0  0  0  0
    8.4639  -15.6325   22.9015 C   0  0  0  0  0  0  0  0  0  0  0  0
    9.5161  -16.2252   23.2653 O   0  0  0  0  0  0  0  0  0  0  0  0
    8.0447  -14.5104   23.6219 N   0  0  0  0  0  0  0  0  0  0  0  0
    8.8230  -13.8832   24.6859 C   0  0  1  0  0  0  0  0  0  0  0  0
    8.1901  -12.6270   25.1612 C   0  0  0  0  0  0  0  0  0  0  0  0
    6.9840  -12.8812   26.0185 C   0  0  0  0  0  0  0  0  0  0  0  0
    6.3193  -11.6174   26.5102 C   0  0  0  0  0  0  0  0  0  0  0  0
    5.0299  -12.0641   27.2138 C   0  0  0  0  0  0  0  0  0  0  0  0
    4.3334  -10.9002   27.7277 N   0  0  0  0  0  0  0  0  0  0  0  0
    9.0471  -14.8635   25.7511 C   0  0  0  0  0  0  0  0  0  0  0  0
    8.2365  -16.0128   25.8190 O   0  0  0  0  0  0  0  0  0  0  0  0
    9.9215  -14.7864   26.6502 O   0  0  0  0  0  0  0  0  0  0  0  0
  2  3  1  0
  2  1  1  1
  3  4  1  0
  4  5  2  0
  4  8  1  0
  6  7  2  0
  6  2  1  0
  9  6  1  0
 10  9  1  0
 10 11  1  0
 11 12  2  0
 13 11  1  0
 13 14  1  0
 14 15  1  1
 15 16  1  0
 16 17  1  0
 17 18  1  0
 18 19  1  0
 20 21  1  0
 20 14  1  0
 22 20  2  0
M  END
$$$$
