PNN.pdb
     RDKit          3D

 24 24  0  0  1  0  0  0  0  0999 V2000
    8.5100  -14.5019   17.7293 N   0  0  0  0  0  0  0  0  0  0  0  0
    7.8592  -13.5526   16.8435 C   0  0  0  0  0  0  0  0  0  0  0  0
    6.8497  -12.8878   17.7482 C   0  0  0  0  0  0  0  0  0  0  0  0
    7.5013  -12.8984   19.1123 C   0  0  0  0  0  0  0  0  0  0  0  0
    8.6810  -13.7455   18.9804 C   0  0  1  0  0  0  0  0  0  0  0  0
    9.0948  -14.6012   20.0719 C   0  0  0  0  0  0  0  0  0  0  0  0
    9.0988  -14.1319   21.2397 O   0  0  0  0  0  0  0  0  0  0  0  0
    7.1308  -18.6005   20.8415 N   0  0  0  0  0  0  0  0  0  0  0  0
    8.3348  -18.3919   20.1332 C   0  0  0  0  0  0  0  0  0  0  0  0
    8.3192  -18.3736   18.8903 O   0  0  0  0  0  0  0  0  0  0  0  0
    9.5962  -18.1977   20.8623 C   0  0  0  0  0  0  0  0  0  0  0  0
   10.0173  -16.7550   20.9997 C   0  0  2  0  0  0  0  0  0  0  0  0
    9.5066  -15.9610   19.9301 N   0  0  0  0  0  0  0  0  0  0  0  0
   11.5003  -16.6414   21.1695 C   0  0  0  0  0  0  0  0  0  0  0  0
   12.1035  -15.6782   20.6362 O   0  0  0  0  0  0  0  0  0  0  0  0
   15.3218  -16.0195   25.0355 N   0  0  0  0  0  0  0  0  0  0  0  0
   15.0899  -15.9171   23.6418 C   0  0  0  0  0  0  0  0  0  0  0  0
   16.0479  -15.6298   22.8956 O   0  0  0  0  0  0  0  0  0  0  0  0
   13.7385  -16.1497   23.1051 C   0  0  0  0  0  0  0  0  0  0  0  0
   13.5597  -17.4298   22.3623 C   0  0  2  0  0  0  0  0  0  0  0  0
   12.2009  -17.6138   21.9223 N   0  0  0  0  0  0  0  0  0  0  0  0
   14.0284  -18.6372   23.0914 C   0  0  0  0  0  0  0  0  0  0  0  0
   15.1326  -19.1896   22.8875 O   0  0  0  0  0  0  0  0  0  0  0  0
   13.2086  -19.1978   24.0536 O   0  0  0  0  0  0  0  0  0  0  0  0
  1  5  1  0
  1  2  1  0
  2  3  1  0
  4  3  1  0
  5  4  1  0
  6 13  1  0
  5  6  1  1
  7  6  2  0
  8  9  1  0
  9 11  1  0
 10  9  2  0
 12 11  1  6
 12 13  1  0
 14 12  1  0
 15 14  2  0
 16 17  1  0
 17 19  1  0
 17 18  2  0
 20 19  1  1
 20 22  1  0
 20 21  1  0
 21 14  1  0
 22 24  1  0
 23 22  2  0
M  END
$$$$
