PNN.pdb
     RDKit          3D

 24 24  0  0  1  0  0  0  0  0999 V2000
    8.4046  -14.7068   18.6269 N   0  0  0  0  0  0  0  0  0  0  0  0
    7.9639  -13.8270   17.5586 C   0  0  0  0  0  0  0  0  0  0  0  0
    7.0588  -12.8551   18.2767 C   0  0  0  0  0  0  0  0  0  0  0  0
    7.6513  -12.7419   19.6630 C   0  0  0  0  0  0  0  0  0  0  0  0
    8.6649  -13.7871   19.7463 C   0  0  1  0  0  0  0  0  0  0  0  0
    8.8821  -14.5003   20.9868 C   0  0  0  0  0  0  0  0  0  0  0  0
    9.1026  -13.8382   22.0341 O   0  0  0  0  0  0  0  0  0  0  0  0
    6.2171  -17.7996   21.1236 N   0  0  0  0  0  0  0  0  0  0  0  0
    6.8413  -17.4824   22.3502 C   0  0  0  0  0  0  0  0  0  0  0  0
    6.1779  -16.9468   23.2548 O   0  0  0  0  0  0  0  0  0  0  0  0
    8.2652  -17.7847   22.5539 C   0  0  0  0  0  0  0  0  0  0  0  0
    9.1866  -16.6105   22.3304 C   0  0  2  0  0  0  0  0  0  0  0  0
    8.8662  -15.9216   21.1229 N   0  0  0  0  0  0  0  0  0  0  0  0
   10.6214  -17.0292   22.4137 C   0  0  0  0  0  0  0  0  0  0  0  0
   11.3624  -16.8706   21.4128 O   0  0  0  0  0  0  0  0  0  0  0  0
   15.4362  -16.9218   22.8799 N   0  0  0  0  0  0  0  0  0  0  0  0
   14.6560  -16.3403   23.9093 C   0  0  0  0  0  0  0  0  0  0  0  0
   15.2395  -15.8468   24.8958 O   0  0  0  0  0  0  0  0  0  0  0  0
   13.1878  -16.3282   23.7977 C   0  0  0  0  0  0  0  0  0  0  0  0
   12.5291  -17.6606   23.9130 C   0  0  2  0  0  0  0  0  0  0  0  0
   11.1228  -17.5961   23.6097 N   0  0  0  0  0  0  0  0  0  0  0  0
   12.7397  -18.3426   25.2167 C   0  0  0  0  0  0  0  0  0  0  0  0
   11.9883  -18.1999   26.2072 O   0  0  0  0  0  0  0  0  0  0  0  0
   13.8256  -19.1863   25.3624 O   0  0  0  0  0  0  0  0  0  0  0  0
  1  5  1  0
  1  2  1  0
  2  3  1  0
  4  3  1  0
  5  4  1  0
  6 13  1  0
  5  6  1  1
  7  6  2  0
  8  9  1  0
  9 11  1  0
 10  9  2  0
 12 11  1  6
 12 13  1  0
 14 12  1  0
 15 14  2  0
 16 17  1  0
 17 19  1  0
 17 18  2  0
 20 19  1  1
 20 22  1  0
 20 21  1  0
 21 14  1  0
 22 24  1  0
 23 22  2  0
M  END
$$$$
