PNN.pdb
     RDKit          3D

 24 24  0  0  1  0  0  0  0  0999 V2000
    9.0922  -14.2697   19.6292 N   0  0  0  0  0  0  0  0  0  0  0  0
    8.8247  -13.5007   18.4266 C   0  0  0  0  0  0  0  0  0  0  0  0
    7.3167  -13.4320   18.4011 C   0  0  0  0  0  0  0  0  0  0  0  0
    6.9148  -13.4282   19.8585 C   0  0  0  0  0  0  0  0  0  0  0  0
    8.1307  -13.7306   20.6047 C   0  0  1  0  0  0  0  0  0  0  0  0
    8.0730  -14.5391   21.8038 C   0  0  0  0  0  0  0  0  0  0  0  0
    7.1851  -14.2884   22.6597 O   0  0  0  0  0  0  0  0  0  0  0  0
   10.9538  -19.0868   24.8856 N   0  0  0  0  0  0  0  0  0  0  0  0
    9.7893  -18.4101   24.4600 C   0  0  0  0  0  0  0  0  0  0  0  0
    8.7376  -18.5312   25.1116 O   0  0  0  0  0  0  0  0  0  0  0  0
    9.8230  -17.5689   23.2552 C   0  0  0  0  0  0  0  0  0  0  0  0
    8.9522  -16.3387   23.3333 C   0  0  2  0  0  0  0  0  0  0  0  0
    8.9578  -15.6196   22.1011 N   0  0  0  0  0  0  0  0  0  0  0  0
    9.3167  -15.4960   24.5156 C   0  0  0  0  0  0  0  0  0  0  0  0
   10.4860  -15.0487   24.6089 O   0  0  0  0  0  0  0  0  0  0  0  0
    5.5603  -12.4235   26.0313 N   0  0  0  0  0  0  0  0  0  0  0  0
    6.9526  -12.6645   26.1303 C   0  0  0  0  0  0  0  0  0  0  0  0
    7.7224  -12.0462   25.3672 O   0  0  0  0  0  0  0  0  0  0  0  0
    7.4606  -13.6285   27.1208 C   0  0  0  0  0  0  0  0  0  0  0  0
    8.6362  -14.4331   26.6819 C   0  0  2  0  0  0  0  0  0  0  0  0
    8.3474  -15.2158   25.5082 N   0  0  0  0  0  0  0  0  0  0  0  0
    9.2230  -15.2965   27.7399 C   0  0  0  0  0  0  0  0  0  0  0  0
    9.6016  -14.8727   28.8548 O   0  0  0  0  0  0  0  0  0  0  0  0
    9.3683  -16.6497   27.4947 O   0  0  0  0  0  0  0  0  0  0  0  0
  1  5  1  0
  1  2  1  0
  2  3  1  0
  4  3  1  0
  5  4  1  0
  6 13  1  0
  5  6  1  1
  7  6  2  0
  8  9  1  0
  9 11  1  0
 10  9  2  0
 12 11  1  6
 12 13  1  0
 14 12  1  0
 15 14  2  0
 16 17  1  0
 17 19  1  0
 17 18  2  0
 20 19  1  1
 20 22  1  0
 20 21  1  0
 21 14  1  0
 22 24  1  0
 23 22  2  0
M  END
$$$$
