PNN.pdb
     RDKit          3D

 24 24  0  0  1  0  0  0  0  0999 V2000
    9.1843  -14.4373   18.9689 N   0  0  0  0  0  0  0  0  0  0  0  0
    8.7022  -13.5658   17.9118 C   0  0  0  0  0  0  0  0  0  0  0  0
    7.2665  -13.3197   18.3090 C   0  0  0  0  0  0  0  0  0  0  0  0
    7.2806  -13.3634   19.8200 C   0  0  0  0  0  0  0  0  0  0  0  0
    8.6035  -13.8537   20.1891 C   0  0  1  0  0  0  0  0  0  0  0  0
    8.7694  -14.7260   21.3321 C   0  0  0  0  0  0  0  0  0  0  0  0
    8.1487  -14.4566   22.3932 O   0  0  0  0  0  0  0  0  0  0  0  0
   10.5109  -18.8427   19.7282 N   0  0  0  0  0  0  0  0  0  0  0  0
    9.7991  -18.7467   20.9445 C   0  0  0  0  0  0  0  0  0  0  0  0
    8.6662  -19.2506   21.0328 O   0  0  0  0  0  0  0  0  0  0  0  0
   10.3957  -18.0560   22.0965 C   0  0  0  0  0  0  0  0  0  0  0  0
    9.7043  -16.7687   22.4740 C   0  0  2  0  0  0  0  0  0  0  0  0
    9.5955  -15.8904   21.3551 N   0  0  0  0  0  0  0  0  0  0  0  0
   10.3557  -16.1374   23.6649 C   0  0  0  0  0  0  0  0  0  0  0  0
   11.4384  -15.5204   23.5125 O   0  0  0  0  0  0  0  0  0  0  0  0
   11.0231  -14.1161   28.3942 N   0  0  0  0  0  0  0  0  0  0  0  0
    9.6968  -13.9487   27.9258 C   0  0  0  0  0  0  0  0  0  0  0  0
    8.9359  -13.1788   28.5468 O   0  0  0  0  0  0  0  0  0  0  0  0
    9.2454  -14.6770   26.7283 C   0  0  0  0  0  0  0  0  0  0  0  0
   10.2626  -15.5713   26.1054 C   0  0  2  0  0  0  0  0  0  0  0  0
    9.7497  -16.2431   24.9395 N   0  0  0  0  0  0  0  0  0  0  0  0
   10.8709  -16.5570   27.0367 C   0  0  0  0  0  0  0  0  0  0  0  0
   10.4049  -17.6999   27.2437 O   0  0  0  0  0  0  0  0  0  0  0  0
   12.0183  -16.2074   27.7248 O   0  0  0  0  0  0  0  0  0  0  0  0
  1  5  1  0
  1  2  1  0
  2  3  1  0
  4  3  1  0
  5  4  1  0
  6 13  1  0
  5  6  1  1
  7  6  2  0
  8  9  1  0
  9 11  1  0
 10  9  2  0
 12 11  1  6
 12 13  1  0
 14 12  1  0
 15 14  2  0
 16 17  1  0
 17 19  1  0
 17 18  2  0
 20 19  1  1
 20 22  1  0
 20 21  1  0
 21 14  1  0
 22 24  1  0
 23 22  2  0
M  END
$$$$
