PNN.pdb
     RDKit          3D

 24 24  0  0  1  0  0  0  0  0999 V2000
    9.0413  -14.0784   18.0547 N   0  0  0  0  0  0  0  0  0  0  0  0
    8.3249  -12.9186   17.5538 C   0  0  0  0  0  0  0  0  0  0  0  0
    7.3303  -12.6378   18.6545 C   0  0  0  0  0  0  0  0  0  0  0  0
    8.0353  -13.0721   19.9194 C   0  0  0  0  0  0  0  0  0  0  0  0
    9.2363  -13.7739   19.4816 C   0  0  1  0  0  0  0  0  0  0  0  0
    9.7211  -14.9244   20.2139 C   0  0  0  0  0  0  0  0  0  0  0  0
    9.8726  -14.8280   21.4595 O   0  0  0  0  0  0  0  0  0  0  0  0
   10.8313  -19.5977   21.9464 N   0  0  0  0  0  0  0  0  0  0  0  0
   10.1922  -19.7531   20.6965 C   0  0  0  0  0  0  0  0  0  0  0  0
    9.7483  -20.8673   20.3696 O   0  0  0  0  0  0  0  0  0  0  0  0
   10.0535  -18.6042   19.7903 C   0  0  0  0  0  0  0  0  0  0  0  0
   10.5508  -17.2993   20.3626 C   0  0  2  0  0  0  0  0  0  0  0  0
   10.0475  -16.1848   19.6278 N   0  0  0  0  0  0  0  0  0  0  0  0
   12.0421  -17.3023   20.4920 C   0  0  0  0  0  0  0  0  0  0  0  0
   12.7448  -17.2730   19.4521 O   0  0  0  0  0  0  0  0  0  0  0  0
   14.6553  -15.1790   20.4875 N   0  0  0  0  0  0  0  0  0  0  0  0
   14.9238  -15.1512   21.8780 C   0  0  0  0  0  0  0  0  0  0  0  0
   15.3877  -14.1056   22.3768 O   0  0  0  0  0  0  0  0  0  0  0  0
   14.6532  -16.3423   22.7003 C   0  0  0  0  0  0  0  0  0  0  0  0
   14.0569  -17.4978   21.9712 C   0  0  2  0  0  0  0  0  0  0  0  0
   12.6392  -17.3391   21.7747 N   0  0  0  0  0  0  0  0  0  0  0  0
   14.3432  -18.8244   22.5772 C   0  0  0  0  0  0  0  0  0  0  0  0
   13.4632  -19.5820   23.0439 O   0  0  0  0  0  0  0  0  0  0  0  0
   15.6532  -19.2627   22.6394 O   0  0  0  0  0  0  0  0  0  0  0  0
  1  5  1  0
  1  2  1  0
  2  3  1  0
  4  3  1  0
  5  4  1  0
  6 13  1  0
  5  6  1  1
  7  6  2  0
  8  9  1  0
  9 11  1  0
 10  9  2  0
 12 11  1  6
 12 13  1  0
 14 12  1  0
 15 14  2  0
 16 17  1  0
 17 19  1  0
 17 18  2  0
 20 19  1  1
 20 22  1  0
 20 21  1  0
 21 14  1  0
 22 24  1  0
 23 22  2  0
M  END
$$$$
