REF.pdb
     RDKit          3D

 32 32  0  0  1  0  0  0  0  0999 V2000
   28.2104  -18.0936  -20.2108 N   0  0  0  0  0  0  0  0  0  0  0  0
   28.3055  -19.4910  -20.4554 C   0  0  0  0  0  0  0  0  0  0  0  0
   28.8440  -19.8796  -21.5472 N   0  0  0  0  0  0  0  0  0  0  0  0
   27.8136  -20.4233  -19.5094 N   0  0  0  0  0  0  0  0  0  0  0  0
   27.2989  -19.9758  -18.2508 C   0  0  0  0  0  0  0  0  0  0  0  0
   28.3291  -19.2331  -17.4210 C   0  0  0  0  0  0  0  0  0  0  0  0
   27.7490  -18.8757  -16.0680 C   0  0  0  0  0  0  0  0  0  0  0  0
   28.0685  -20.0009  -15.1043 C   0  0  2  0  0  0  0  0  0  0  0  0
   27.6557  -21.2345  -15.7387 N   0  0  0  0  0  0  0  0  0  0  0  0
   27.2844  -19.7360  -13.8563 C   0  0  0  0  0  0  0  0  0  0  0  0
   27.3928  -18.6510  -13.2294 O   0  0  0  0  0  0  0  0  0  0  0  0
   28.9086  -20.8452  -21.8988 N   0  0  0  0  0  0  0  0  0  0  0  0
   26.3700  -20.6896  -13.2989 C   0  0  1  0  0  0  0  0  0  0  0  0
   25.5288  -20.3369  -12.1839 C   0  0  0  0  0  0  0  0  0  0  0  0
   24.1210  -20.7956  -12.4701 C   0  0  0  0  0  0  0  0  0  0  0  0
   23.1858  -20.1682  -11.4743 C   0  0  0  0  0  0  0  0  0  0  0  0
   21.7770  -20.6237  -11.7240 O   0  0  0  0  0  0  0  0  0  0  0  0
   21.4364  -20.8953  -12.8999 C   0  0  0  0  0  0  0  0  0  0  0  0
   25.9605  -20.9456  -10.8964 O   0  0  0  0  0  0  0  0  0  0  0  0
   26.2324  -22.1544  -10.7472 O   0  0  0  0  0  0  0  0  0  0  0  0
   20.8813  -20.7423  -10.6797 N   0  0  0  0  0  0  0  0  0  0  0  0
   26.0555  -20.0545   -9.7933 C   0  0  2  0  0  0  0  0  0  0  0  0
   26.5129  -20.5276   -8.4800 C   0  0  0  0  0  0  0  0  0  0  0  0
   26.9774  -19.3007   -7.7256 C   0  0  0  0  0  0  0  0  0  0  0  0
   27.9740  -19.5833   -6.6755 C   0  0  0  0  0  0  0  0  0  0  0  0
   29.2798  -19.9009   -6.9712 C   0  0  0  0  0  0  0  0  0  0  0  0
   30.1950  -20.1594   -5.9756 C   0  0  0  0  0  0  0  0  0  0  0  0
   29.8349  -20.1103   -4.6359 C   0  0  0  0  0  0  0  0  0  0  0  0
   28.5301  -19.7925   -4.3487 C   0  0  0  0  0  0  0  0  0  0  0  0
   27.6121  -19.5331   -5.3389 C   0  0  0  0  0  0  0  0  0  0  0  0
   25.4312  -21.1693   -7.7298 O   0  0  0  0  0  0  0  0  0  0  0  0
   24.2440  -20.8726   -7.9599 O   0  0  0  0  0  0  0  0  0  0  0  0
  1  2  1  0
  2  3  2  0
  4  2  1  0
  5  4  1  0
  6  5  1  0
  7  6  1  0
  8  7  1  0
  8  9  1  6
 10  8  1  0
 11 10  2  0
 12 10  1  0
 13 12  1  0
 14 15  1  0
 13 14  1  6
 15 16  1  0
 16 17  2  0
 18 13  1  0
 18 21  1  0
 19 18  2  0
 20 16  1  0
 22 21  1  0
 22 30  1  0
 22 23  1  6
 23 24  1  0
 24 29  2  0
 24 25  1  0
 25 26  2  0
 27 26  1  0
 28 27  2  0
 29 28  1  0
 30 32  1  0
 31 30  2  0
M  END
$$$$
