REF.pdb
     RDKit          3D

 32 32  0  0  1  0  0  0  0  0999 V2000
   33.2603  -25.4378  -18.6553 N   0  0  0  0  0  0  0  0  0  0  0  0
   33.5411  -25.6933  -17.2851 C   0  0  0  0  0  0  0  0  0  0  0  0
   34.3975  -26.5981  -17.0007 N   0  0  0  0  0  0  0  0  0  0  0  0
   32.8845  -24.9608  -16.2661 N   0  0  0  0  0  0  0  0  0  0  0  0
   31.4661  -24.7720  -16.3083 C   0  0  0  0  0  0  0  0  0  0  0  0
   31.0169  -23.9270  -17.4855 C   0  0  0  0  0  0  0  0  0  0  0  0
   30.0461  -22.8608  -17.0212 C   0  0  0  0  0  0  0  0  0  0  0  0
   28.8635  -23.5493  -16.3698 C   0  0  2  0  0  0  0  0  0  0  0  0
   28.1303  -24.2213  -17.4213 N   0  0  0  0  0  0  0  0  0  0  0  0
   28.0407  -22.4766  -15.7258 C   0  0  0  0  0  0  0  0  0  0  0  0
   28.5582  -21.6163  -14.9683 O   0  0  0  0  0  0  0  0  0  0  0  0
   34.6778  -26.9153  -16.0622 N   0  0  0  0  0  0  0  0  0  0  0  0
   26.6255  -22.3604  -15.9262 C   0  0  1  0  0  0  0  0  0  0  0  0
   25.8522  -21.4059  -15.1737 C   0  0  0  0  0  0  0  0  0  0  0  0
   24.6497  -21.0008  -15.9886 C   0  0  0  0  0  0  0  0  0  0  0  0
   25.1124  -20.3075  -17.2396 C   0  0  0  0  0  0  0  0  0  0  0  0
   24.5955  -18.8983  -17.2757 O   0  0  0  0  0  0  0  0  0  0  0  0
   25.3011  -18.0168  -17.8212 C   0  0  0  0  0  0  0  0  0  0  0  0
   25.3700  -21.9286  -13.8665 O   0  0  0  0  0  0  0  0  0  0  0  0
   25.6825  -23.0417  -13.3966 O   0  0  0  0  0  0  0  0  0  0  0  0
   23.3696  -18.5850  -16.7223 N   0  0  0  0  0  0  0  0  0  0  0  0
   24.4998  -21.0702  -13.1414 C   0  0  2  0  0  0  0  0  0  0  0  0
   24.5077  -21.0557  -11.6726 C   0  0  0  0  0  0  0  0  0  0  0  0
   25.8926  -20.6060  -11.2605 C   0  0  0  0  0  0  0  0  0  0  0  0
   26.0725  -20.4762   -9.8022 C   0  0  0  0  0  0  0  0  0  0  0  0
   25.1194  -20.9022   -8.9056 C   0  0  0  0  0  0  0  0  0  0  0  0
   25.3079  -20.7734   -7.5479 C   0  0  0  0  0  0  0  0  0  0  0  0
   26.4660  -20.2082   -7.0320 C   0  0  0  0  0  0  0  0  0  0  0  0
   27.4126  -19.7857   -7.9329 C   0  0  0  0  0  0  0  0  0  0  0  0
   27.2297  -19.9121   -9.2897 C   0  0  0  0  0  0  0  0  0  0  0  0
   23.5205  -20.1165  -11.1359 O   0  0  0  0  0  0  0  0  0  0  0  0
   22.8541  -20.4129  -10.1267 O   0  0  0  0  0  0  0  0  0  0  0  0
  1  2  1  0
  2  3  2  0
  4  2  1  0
  5  4  1  0
  6  5  1  0
  7  6  1  0
  8  7  1  0
  8  9  1  6
 10  8  1  0
 11 10  2  0
 12 10  1  0
 13 12  1  0
 14 15  1  0
 13 14  1  1
 15 16  1  0
 16 17  2  0
 18 13  1  0
 18 21  1  0
 19 18  2  0
 20 16  1  0
 22 21  1  0
 22 30  1  0
 22 23  1  6
 23 24  1  0
 24 29  2  0
 24 25  1  0
 25 26  2  0
 27 26  1  0
 28 27  2  0
 29 28  1  0
 30 32  1  0
 31 30  2  0
M  END
$$$$
