REF.pdb
     RDKit          3D

 32 32  0  0  1  0  0  0  0  0999 V2000
   29.5086  -19.0880  -19.1104 N   0  0  0  0  0  0  0  0  0  0  0  0
   29.3263  -17.9774  -18.2414 C   0  0  0  0  0  0  0  0  0  0  0  0
   29.4275  -16.8017  -18.7317 N   0  0  0  0  0  0  0  0  0  0  0  0
   29.0406  -18.1760  -16.8685 N   0  0  0  0  0  0  0  0  0  0  0  0
   28.0925  -19.1682  -16.4614 C   0  0  0  0  0  0  0  0  0  0  0  0
   26.7063  -18.9300  -17.0303 C   0  0  0  0  0  0  0  0  0  0  0  0
   25.7251  -19.9251  -16.4456 C   0  0  0  0  0  0  0  0  0  0  0  0
   26.4657  -20.7853  -15.4414 C   0  0  2  0  0  0  0  0  0  0  0  0
   27.0307  -21.9003  -16.1710 N   0  0  0  0  0  0  0  0  0  0  0  0
   25.4545  -21.2427  -14.4361 C   0  0  0  0  0  0  0  0  0  0  0  0
   24.7392  -22.2574  -14.6376 O   0  0  0  0  0  0  0  0  0  0  0  0
   29.3970  -15.9098  -18.2183 N   0  0  0  0  0  0  0  0  0  0  0  0
   25.2359  -20.5627  -13.1927 C   0  0  2  0  0  0  0  0  0  0  0  0
   24.1894  -20.9854  -12.2974 C   0  0  0  0  0  0  0  0  0  0  0  0
   24.6354  -20.7453  -10.8770 C   0  0  0  0  0  0  0  0  0  0  0  0
   26.0768  -21.1486  -10.7377 C   0  0  0  0  0  0  0  0  0  0  0  0
   26.5739  -20.8359   -9.3558 O   0  0  0  0  0  0  0  0  0  0  0  0
   27.7994  -20.9583   -9.1197 C   0  0  0  0  0  0  0  0  0  0  0  0
   22.9022  -20.2681  -12.5053 O   0  0  0  0  0  0  0  0  0  0  0  0
   22.7540  -19.0367  -12.3672 O   0  0  0  0  0  0  0  0  0  0  0  0
   25.6988  -20.4206   -8.3715 N   0  0  0  0  0  0  0  0  0  0  0  0
   21.7981  -21.0785  -12.8851 C   0  0  1  0  0  0  0  0  0  0  0  0
   20.4768  -20.4851  -13.1289 C   0  0  0  0  0  0  0  0  0  0  0  0
   20.6496  -19.5265  -14.2871 C   0  0  0  0  0  0  0  0  0  0  0  0
   20.9866  -20.1829  -15.5644 C   0  0  0  0  0  0  0  0  0  0  0  0
   20.1168  -21.0388  -16.2002 C   0  0  0  0  0  0  0  0  0  0  0  0
   20.4503  -21.6398  -17.3931 C   0  0  0  0  0  0  0  0  0  0  0  0
   21.6769  -21.4058  -17.9993 C   0  0  0  0  0  0  0  0  0  0  0  0
   22.5396  -20.5503  -17.3590 C   0  0  0  0  0  0  0  0  0  0  0  0
   22.2115  -19.9472  -16.1677 C   0  0  0  0  0  0  0  0  0  0  0  0
   19.4867  -21.5010  -13.4926 O   0  0  0  0  0  0  0  0  0  0  0  0
   18.2939  -21.1851  -13.6606 O   0  0  0  0  0  0  0  0  0  0  0  0
  1  2  1  0
  2  3  2  0
  4  2  1  0
  5  4  1  0
  6  5  1  0
  7  6  1  0
  8  7  1  0
  8  9  1  6
 10  8  1  0
 11 10  2  0
 12 10  1  0
 13 12  1  0
 14 15  1  0
 13 14  1  6
 15 16  1  0
 16 17  2  0
 18 13  1  0
 18 21  1  0
 19 18  2  0
 20 16  1  0
 22 21  1  0
 22 30  1  0
 22 23  1  1
 23 24  1  0
 24 29  2  0
 24 25  1  0
 25 26  2  0
 27 26  1  0
 28 27  2  0
 29 28  1  0
 30 32  1  0
 31 30  2  0
M  END
$$$$
