REF.pdb
     RDKit          3D

 32 32  0  0  1  0  0  0  0  0999 V2000
   26.8743  -22.5026  -17.7832 N   0  0  0  0  0  0  0  0  0  0  0  0
   27.5068  -23.1938  -16.7136 C   0  0  0  0  0  0  0  0  0  0  0  0
   27.1302  -24.3877  -16.4571 N   0  0  0  0  0  0  0  0  0  0  0  0
   28.5270  -22.5691  -15.9553 N   0  0  0  0  0  0  0  0  0  0  0  0
   28.6055  -21.1416  -15.8829 C   0  0  0  0  0  0  0  0  0  0  0  0
   27.3971  -20.4516  -16.4872 C   0  0  0  0  0  0  0  0  0  0  0  0
   27.4476  -18.9653  -16.1991 C   0  0  0  0  0  0  0  0  0  0  0  0
   26.2719  -18.3085  -16.8943 C   0  0  2  0  0  0  0  0  0  0  0  0
   26.7253  -17.0189  -17.3700 N   0  0  0  0  0  0  0  0  0  0  0  0
   25.1892  -18.1662  -15.8697 C   0  0  0  0  0  0  0  0  0  0  0  0
   24.9893  -17.0785  -15.2707 O   0  0  0  0  0  0  0  0  0  0  0  0
   27.4341  -24.9797  -15.6716 N   0  0  0  0  0  0  0  0  0  0  0  0
   24.3195  -19.2470  -15.5066 C   0  0  1  0  0  0  0  0  0  0  0  0
   22.8916  -19.0605  -15.4677 C   0  0  0  0  0  0  0  0  0  0  0  0
   22.4384  -18.4833  -16.7852 C   0  0  0  0  0  0  0  0  0  0  0  0
   20.9976  -18.0694  -16.6729 C   0  0  0  0  0  0  0  0  0  0  0  0
   20.8985  -16.5944  -16.4102 O   0  0  0  0  0  0  0  0  0  0  0  0
   20.4318  -16.2133  -15.3104 C   0  0  0  0  0  0  0  0  0  0  0  0
   22.1331  -20.3183  -15.2287 O   0  0  0  0  0  0  0  0  0  0  0  0
   21.0888  -20.6347  -15.8342 O   0  0  0  0  0  0  0  0  0  0  0  0
   21.3154  -15.6821  -17.3594 N   0  0  0  0  0  0  0  0  0  0  0  0
   22.6704  -21.1846  -14.2384 C   0  0  2  0  0  0  0  0  0  0  0  0
   22.1491  -21.1740  -12.8652 C   0  0  0  0  0  0  0  0  0  0  0  0
   22.7523  -19.9603  -12.1920 C   0  0  0  0  0  0  0  0  0  0  0  0
   24.2211  -20.0112  -12.0667 C   0  0  0  0  0  0  0  0  0  0  0  0
   24.8766  -21.1166  -11.5746 C   0  0  0  0  0  0  0  0  0  0  0  0
   26.2489  -21.1443  -11.4676 C   0  0  0  0  0  0  0  0  0  0  0  0
   27.0233  -20.0580  -11.8513 C   0  0  0  0  0  0  0  0  0  0  0  0
   26.3621  -18.9587  -12.3415 C   0  0  0  0  0  0  0  0  0  0  0  0
   24.9919  -18.9258  -12.4509 C   0  0  0  0  0  0  0  0  0  0  0  0
   20.6894  -21.0577  -12.8420 O   0  0  0  0  0  0  0  0  0  0  0  0
   20.0941  -20.4308  -13.7382 O   0  0  0  0  0  0  0  0  0  0  0  0
  1  2  1  0
  2  3  2  0
  4  2  1  0
  5  4  1  0
  6  5  1  0
  7  6  1  0
  8  7  1  0
  8  9  1  1
 10  8  1  0
 11 10  2  0
 12 10  1  0
 13 12  1  0
 14 15  1  0
 13 14  1  6
 15 16  1  0
 16 17  2  0
 18 13  1  0
 18 21  1  0
 19 18  2  0
 20 16  1  0
 22 21  1  0
 22 30  1  0
 22 23  1  6
 23 24  1  0
 24 29  2  0
 24 25  1  0
 25 26  2  0
 27 26  1  0
 28 27  2  0
 29 28  1  0
 30 32  1  0
 31 30  2  0
M  END
$$$$
