REF.pdb
     RDKit          3D

 32 32  0  0  1  0  0  0  0  0999 V2000
   30.5692  -23.5586  -18.3880 N   0  0  0  0  0  0  0  0  0  0  0  0
   30.5295  -24.0512  -17.0548 C   0  0  0  0  0  0  0  0  0  0  0  0
   31.3824  -24.9387  -16.7113 N   0  0  0  0  0  0  0  0  0  0  0  0
   29.5663  -23.5670  -16.1361 N   0  0  0  0  0  0  0  0  0  0  0  0
   28.6795  -22.5064  -16.5072 C   0  0  0  0  0  0  0  0  0  0  0  0
   29.2064  -21.1352  -16.1279 C   0  0  0  0  0  0  0  0  0  0  0  0
   28.5868  -20.6820  -14.8219 C   0  0  0  0  0  0  0  0  0  0  0  0
   27.0830  -20.8335  -14.9341 C   0  0  2  0  0  0  0  0  0  0  0  0
   26.6508  -19.9892  -16.0273 N   0  0  0  0  0  0  0  0  0  0  0  0
   26.5051  -20.3809  -13.6290 C   0  0  0  0  0  0  0  0  0  0  0  0
   26.8215  -19.2764  -13.1173 O   0  0  0  0  0  0  0  0  0  0  0  0
   31.4321  -25.4372  -15.8118 N   0  0  0  0  0  0  0  0  0  0  0  0
   25.5649  -21.1666  -12.8840 C   0  0  2  0  0  0  0  0  0  0  0  0
   25.0135  -20.6760  -11.6469 C   0  0  0  0  0  0  0  0  0  0  0  0
   23.5644  -21.0848  -11.5619 C   0  0  0  0  0  0  0  0  0  0  0  0
   22.7857  -20.3655  -12.6277 C   0  0  0  0  0  0  0  0  0  0  0  0
   21.3257  -20.6994  -12.5210 O   0  0  0  0  0  0  0  0  0  0  0  0
   20.5497  -19.8397  -12.0403 C   0  0  0  0  0  0  0  0  0  0  0  0
   25.7111  -21.1923  -10.4380 O   0  0  0  0  0  0  0  0  0  0  0  0
   25.9422  -22.3995  -10.2222 O   0  0  0  0  0  0  0  0  0  0  0  0
   20.8524  -21.9250  -12.9464 N   0  0  0  0  0  0  0  0  0  0  0  0
   26.1226  -20.2107   -9.4961 C   0  0  1  0  0  0  0  0  0  0  0  0
   26.6754  -20.6023   -8.1928 C   0  0  0  0  0  0  0  0  0  0  0  0
   27.4655  -19.4126   -7.6925 C   0  0  0  0  0  0  0  0  0  0  0  0
   27.9484  -19.5528   -6.3058 C   0  0  0  0  0  0  0  0  0  0  0  0
   27.2236  -19.0981   -5.2281 C   0  0  0  0  0  0  0  0  0  0  0  0
   27.6918  -19.2406   -3.9412 C   0  0  0  0  0  0  0  0  0  0  0  0
   28.9130  -19.8477   -3.6822 C   0  0  0  0  0  0  0  0  0  0  0  0
   29.6304  -20.2991   -4.7628 C   0  0  0  0  0  0  0  0  0  0  0  0
   29.1675  -20.1596   -6.0499 C   0  0  0  0  0  0  0  0  0  0  0  0
   25.6179  -20.9138   -7.2287 O   0  0  0  0  0  0  0  0  0  0  0  0
   25.8801  -21.5516   -6.1918 O   0  0  0  0  0  0  0  0  0  0  0  0
  1  2  1  0
  2  3  2  0
  4  2  1  0
  5  4  1  0
  6  5  1  0
  7  6  1  0
  8  7  1  0
  8  9  1  6
 10  8  1  0
 11 10  2  0
 12 10  1  0
 13 12  1  0
 14 15  1  0
 13 14  1  6
 15 16  1  0
 16 17  2  0
 18 13  1  0
 18 21  1  0
 19 18  2  0
 20 16  1  0
 22 21  1  0
 22 30  1  0
 22 23  1  1
 23 24  1  0
 24 29  2  0
 24 25  1  0
 25 26  2  0
 27 26  1  0
 28 27  2  0
 29 28  1  0
 30 32  1  0
 31 30  2  0
M  END
$$$$
