REF.pdb
     RDKit          3D

 32 32  0  0  1  0  0  0  0  0999 V2000
   18.5223  -21.5195  -16.3570 N   0  0  0  0  0  0  0  0  0  0  0  0
   17.9225  -20.4256  -15.6748 C   0  0  0  0  0  0  0  0  0  0  0  0
   17.0263  -20.6759  -14.7989 N   0  0  0  0  0  0  0  0  0  0  0  0
   18.3122  -19.0950  -15.9638 N   0  0  0  0  0  0  0  0  0  0  0  0
   19.4661  -18.8366  -16.7706 C   0  0  0  0  0  0  0  0  0  0  0  0
   20.7146  -19.5275  -16.2552 C   0  0  0  0  0  0  0  0  0  0  0  0
   21.8191  -18.5137  -16.0380 C   0  0  0  0  0  0  0  0  0  0  0  0
   23.0538  -18.9945  -16.7737 C   0  0  2  0  0  0  0  0  0  0  0  0
   22.5982  -19.7594  -17.9147 N   0  0  0  0  0  0  0  0  0  0  0  0
   23.8239  -19.8469  -15.8132 C   0  0  0  0  0  0  0  0  0  0  0  0
   23.2502  -20.4827  -14.8921 O   0  0  0  0  0  0  0  0  0  0  0  0
   16.5039  -19.9935  -14.2320 N   0  0  0  0  0  0  0  0  0  0  0  0
   25.2491  -19.9927  -15.8776 C   0  0  1  0  0  0  0  0  0  0  0  0
   25.9484  -20.8118  -14.9209 C   0  0  0  0  0  0  0  0  0  0  0  0
   27.2940  -21.1862  -15.4897 C   0  0  0  0  0  0  0  0  0  0  0  0
   27.1234  -22.3339  -16.4454 C   0  0  0  0  0  0  0  0  0  0  0  0
   28.4563  -22.7624  -16.9879 O   0  0  0  0  0  0  0  0  0  0  0  0
   29.0900  -23.6565  -16.3784 C   0  0  0  0  0  0  0  0  0  0  0  0
   26.1707  -20.1400  -13.6118 O   0  0  0  0  0  0  0  0  0  0  0  0
   26.1812  -18.9026  -13.4500 O   0  0  0  0  0  0  0  0  0  0  0  0
   28.9673  -22.1848  -18.1335 N   0  0  0  0  0  0  0  0  0  0  0  0
   26.3797  -21.0034  -12.5024 C   0  0  1  0  0  0  0  0  0  0  0  0
   26.7948  -20.4682  -11.1990 C   0  0  0  0  0  0  0  0  0  0  0  0
   25.6791  -19.5541  -10.7411 C   0  0  0  0  0  0  0  0  0  0  0  0
   24.3995  -20.2454  -10.4953 C   0  0  0  0  0  0  0  0  0  0  0  0
   24.0656  -20.7516   -9.2601 C   0  0  0  0  0  0  0  0  0  0  0  0
   22.8648  -21.3920   -9.0515 C   0  0  0  0  0  0  0  0  0  0  0  0
   21.9458  -21.5521  -10.0794 C   0  0  0  0  0  0  0  0  0  0  0  0
   22.2860  -21.0442  -11.3092 C   0  0  0  0  0  0  0  0  0  0  0  0
   23.4836  -20.4035  -11.5230 C   0  0  0  0  0  0  0  0  0  0  0  0
   26.9768  -21.5331  -10.2103 O   0  0  0  0  0  0  0  0  0  0  0  0
   26.8123  -22.7248  -10.5320 O   0  0  0  0  0  0  0  0  0  0  0  0
  1  2  1  0
  2  3  2  0
  4  2  1  0
  5  4  1  0
  6  5  1  0
  7  6  1  0
  8  7  1  0
  8  9  1  6
 10  8  1  0
 11 10  2  0
 12 10  1  0
 13 12  1  0
 14 15  1  0
 13 14  1  1
 15 16  1  0
 16 17  2  0
 18 13  1  0
 18 21  1  0
 19 18  2  0
 20 16  1  0
 22 21  1  0
 22 30  1  0
 22 23  1  6
 23 24  1  0
 24 29  2  0
 24 25  1  0
 25 26  2  0
 27 26  1  0
 28 27  2  0
 29 28  1  0
 30 32  1  0
 31 30  2  0
M  END
$$$$
