REF.pdb
     RDKit          3D

 32 32  0  0  1  0  0  0  0  0999 V2000
   26.5504  -27.2843  -16.6167 N   0  0  0  0  0  0  0  0  0  0  0  0
   25.2942  -26.9857  -17.2121 C   0  0  0  0  0  0  0  0  0  0  0  0
   24.4254  -27.9193  -17.2938 N   0  0  0  0  0  0  0  0  0  0  0  0
   25.0193  -25.6850  -17.7007 N   0  0  0  0  0  0  0  0  0  0  0  0
   25.9043  -24.5987  -17.4078 C   0  0  0  0  0  0  0  0  0  0  0  0
   25.6311  -23.9607  -16.0587 C   0  0  0  0  0  0  0  0  0  0  0  0
   26.3871  -22.6536  -15.9379 C   0  0  0  0  0  0  0  0  0  0  0  0
   25.9253  -21.7354  -17.0517 C   0  0  2  0  0  0  0  0  0  0  0  0
   27.0267  -20.8466  -17.3545 N   0  0  0  0  0  0  0  0  0  0  0  0
   24.7409  -20.9835  -16.5280 C   0  0  0  0  0  0  0  0  0  0  0  0
   24.8340  -20.2201  -15.5328 O   0  0  0  0  0  0  0  0  0  0  0  0
   23.4757  -27.8515  -17.6856 N   0  0  0  0  0  0  0  0  0  0  0  0
   23.4376  -21.0829  -17.1178 C   0  0  2  0  0  0  0  0  0  0  0  0
   22.2870  -20.5211  -16.4578 C   0  0  0  0  0  0  0  0  0  0  0  0
   21.2163  -20.2543  -17.4857 C   0  0  0  0  0  0  0  0  0  0  0  0
   20.0733  -19.5301  -16.8308 C   0  0  0  0  0  0  0  0  0  0  0  0
   18.9822  -19.2687  -17.8286 O   0  0  0  0  0  0  0  0  0  0  0  0
   17.9678  -18.6346  -17.4524 C   0  0  0  0  0  0  0  0  0  0  0  0
   21.7109  -21.4062  -15.4093 O   0  0  0  0  0  0  0  0  0  0  0  0
   21.6332  -22.6482  -15.5034 O   0  0  0  0  0  0  0  0  0  0  0  0
   19.0985  -19.7153  -19.1302 N   0  0  0  0  0  0  0  0  0  0  0  0
   21.2311  -20.7506  -14.2432 C   0  0  1  0  0  0  0  0  0  0  0  0
   20.7236  -21.5215  -13.1005 C   0  0  0  0  0  0  0  0  0  0  0  0
   21.5623  -21.1146  -11.9084 C   0  0  0  0  0  0  0  0  0  0  0  0
   22.9700  -21.5479  -11.9887 C   0  0  0  0  0  0  0  0  0  0  0  0
   24.0055  -20.6523  -12.1271 C   0  0  0  0  0  0  0  0  0  0  0  0
   25.3129  -21.0777  -12.1983 C   0  0  0  0  0  0  0  0  0  0  0  0
   25.6361  -22.4261  -12.1341 C   0  0  0  0  0  0  0  0  0  0  0  0
   24.5974  -23.3138  -11.9958 C   0  0  0  0  0  0  0  0  0  0  0  0
   23.2899  -22.8945  -11.9238 C   0  0  0  0  0  0  0  0  0  0  0  0
   19.3185  -21.2158  -12.8234 O   0  0  0  0  0  0  0  0  0  0  0  0
   18.7677  -20.2406  -13.3677 O   0  0  0  0  0  0  0  0  0  0  0  0
  1  2  1  0
  2  3  2  0
  4  2  1  0
  5  4  1  0
  6  5  1  0
  7  6  1  0
  8  7  1  0
  8  9  1  1
 10  8  1  0
 11 10  2  0
 12 10  1  0
 13 12  1  0
 14 15  1  0
 13 14  1  6
 15 16  1  0
 16 17  2  0
 18 13  1  0
 18 21  1  0
 19 18  2  0
 20 16  1  0
 22 21  1  0
 22 30  1  0
 22 23  1  1
 23 24  1  0
 24 29  2  0
 24 25  1  0
 25 26  2  0
 27 26  1  0
 28 27  2  0
 29 28  1  0
 30 32  1  0
 31 30  2  0
M  END
$$$$
