REF.pdb
     RDKit          3D

 32 32  0  0  1  0  0  0  0  0999 V2000
   27.2700  -24.5723  -17.0270 N   0  0  0  0  0  0  0  0  0  0  0  0
   28.4117  -24.1345  -17.7527 C   0  0  0  0  0  0  0  0  0  0  0  0
   28.6445  -24.6634  -18.8924 N   0  0  0  0  0  0  0  0  0  0  0  0
   29.2655  -23.1378  -17.2200 N   0  0  0  0  0  0  0  0  0  0  0  0
   28.8686  -22.3817  -16.0712 C   0  0  0  0  0  0  0  0  0  0  0  0
   28.4715  -20.9570  -16.4093 C   0  0  0  0  0  0  0  0  0  0  0  0
   28.0907  -20.2090  -15.1483 C   0  0  0  0  0  0  0  0  0  0  0  0
   26.7084  -20.6657  -14.7267 C   0  0  2  0  0  0  0  0  0  0  0  0
   25.7770  -20.1750  -15.7200 N   0  0  0  0  0  0  0  0  0  0  0  0
   26.4457  -20.0618  -13.3819 C   0  0  0  0  0  0  0  0  0  0  0  0
   26.9303  -18.9481  -13.0551 O   0  0  0  0  0  0  0  0  0  0  0  0
   29.4339  -24.4611  -19.5216 N   0  0  0  0  0  0  0  0  0  0  0  0
   25.6355  -20.7048  -12.3888 C   0  0  1  0  0  0  0  0  0  0  0  0
   25.4124  -20.0850  -11.1077 C   0  0  0  0  0  0  0  0  0  0  0  0
   23.9499  -19.7402  -10.9800 C   0  0  0  0  0  0  0  0  0  0  0  0
   23.1444  -21.0092  -10.9543 C   0  0  0  0  0  0  0  0  0  0  0  0
   21.6773  -20.6939  -10.9041 O   0  0  0  0  0  0  0  0  0  0  0  0
   21.3216  -19.4930  -10.9673 C   0  0  0  0  0  0  0  0  0  0  0  0
   25.7859  -20.9491   -9.9551 O   0  0  0  0  0  0  0  0  0  0  0  0
   25.7054  -22.1945   -9.9557 O   0  0  0  0  0  0  0  0  0  0  0  0
   20.7443  -21.7061  -10.7939 N   0  0  0  0  0  0  0  0  0  0  0  0
   26.2599  -20.2683   -8.8011 C   0  0  2  0  0  0  0  0  0  0  0  0
   26.7111  -21.0141   -7.6188 C   0  0  0  0  0  0  0  0  0  0  0  0
   28.1731  -20.6705   -7.4331 C   0  0  0  0  0  0  0  0  0  0  0  0
   28.4705  -19.9762   -6.1661 C   0  0  0  0  0  0  0  0  0  0  0  0
   28.5717  -20.6473   -4.9691 C   0  0  0  0  0  0  0  0  0  0  0  0
   28.8519  -19.9802   -3.7978 C   0  0  0  0  0  0  0  0  0  0  0  0
   29.0421  -18.6053   -3.7798 C   0  0  0  0  0  0  0  0  0  0  0  0
   28.9397  -17.9425   -4.9783 C   0  0  0  0  0  0  0  0  0  0  0  0
   28.6604  -18.6037   -6.1510 C   0  0  0  0  0  0  0  0  0  0  0  0
   25.9713  -20.6217   -6.4173 O   0  0  0  0  0  0  0  0  0  0  0  0
   26.0337  -21.3160   -5.3855 O   0  0  0  0  0  0  0  0  0  0  0  0
  1  2  1  0
  2  3  2  0
  4  2  1  0
  5  4  1  0
  6  5  1  0
  7  6  1  0
  8  7  1  0
  8  9  1  6
 10  8  1  0
 11 10  2  0
 12 10  1  0
 13 12  1  0
 14 15  1  0
 13 14  1  6
 15 16  1  0
 16 17  2  0
 18 13  1  0
 18 21  1  0
 19 18  2  0
 20 16  1  0
 22 21  1  0
 22 30  1  0
 22 23  1  6
 23 24  1  0
 24 29  2  0
 24 25  1  0
 25 26  2  0
 27 26  1  0
 28 27  2  0
 29 28  1  0
 30 32  1  0
 31 30  2  0
M  END
$$$$
