REF.pdb
     RDKit          3D

 32 32  0  0  1  0  0  0  0  0999 V2000
   22.9444  -16.8078  -21.3018 N   0  0  0  0  0  0  0  0  0  0  0  0
   24.3306  -16.7448  -20.9920 C   0  0  0  0  0  0  0  0  0  0  0  0
   25.0881  -16.0422  -21.7441 N   0  0  0  0  0  0  0  0  0  0  0  0
   24.8525  -17.4456  -19.8773 N   0  0  0  0  0  0  0  0  0  0  0  0
   23.9854  -17.8847  -18.8264 C   0  0  0  0  0  0  0  0  0  0  0  0
   23.6417  -16.7813  -17.8436 C   0  0  0  0  0  0  0  0  0  0  0  0
   23.4453  -17.3606  -16.4577 C   0  0  0  0  0  0  0  0  0  0  0  0
   24.8082  -17.7065  -15.8922 C   0  0  2  0  0  0  0  0  0  0  0  0
   25.6207  -18.1727  -16.9955 N   0  0  0  0  0  0  0  0  0  0  0  0
   24.5926  -18.7842  -14.8752 C   0  0  0  0  0  0  0  0  0  0  0  0
   23.9244  -18.5779  -13.8298 O   0  0  0  0  0  0  0  0  0  0  0  0
   26.0921  -15.8549  -21.6136 N   0  0  0  0  0  0  0  0  0  0  0  0
   25.1276  -20.1065  -15.0224 C   0  0  1  0  0  0  0  0  0  0  0  0
   24.8278  -21.1328  -14.0569 C   0  0  0  0  0  0  0  0  0  0  0  0
   25.0002  -22.4818  -14.7087 C   0  0  0  0  0  0  0  0  0  0  0  0
   24.4386  -23.5423  -13.8034 C   0  0  0  0  0  0  0  0  0  0  0  0
   24.5782  -24.8960  -14.4378 O   0  0  0  0  0  0  0  0  0  0  0  0
   24.0797  -25.8855  -13.8505 C   0  0  0  0  0  0  0  0  0  0  0  0
   25.6979  -21.0877  -12.8505 O   0  0  0  0  0  0  0  0  0  0  0  0
   26.9454  -21.0773  -12.8841 O   0  0  0  0  0  0  0  0  0  0  0  0
   25.2385  -25.0431  -15.6418 N   0  0  0  0  0  0  0  0  0  0  0  0
   25.0205  -21.0553  -11.6015 C   0  0  1  0  0  0  0  0  0  0  0  0
   25.7539  -21.2363  -10.3418 C   0  0  0  0  0  0  0  0  0  0  0  0
   26.7397  -20.0913  -10.2568 C   0  0  0  0  0  0  0  0  0  0  0  0
   27.3684  -19.9376   -8.9313 C   0  0  0  0  0  0  0  0  0  0  0  0
   28.5406  -20.5766   -8.5978 C   0  0  0  0  0  0  0  0  0  0  0  0
   29.1119  -20.4180   -7.3553 C   0  0  0  0  0  0  0  0  0  0  0  0
   28.5268  -19.6083   -6.3916 C   0  0  0  0  0  0  0  0  0  0  0  0
   27.3573  -18.9738   -6.7318 C   0  0  0  0  0  0  0  0  0  0  0  0
   26.7826  -19.1283   -7.9712 C   0  0  0  0  0  0  0  0  0  0  0  0
   24.8596  -21.1844   -9.1833 O   0  0  0  0  0  0  0  0  0  0  0  0
   23.7146  -20.7076   -9.2934 O   0  0  0  0  0  0  0  0  0  0  0  0
  1  2  1  0
  2  3  2  0
  4  2  1  0
  5  4  1  0
  6  5  1  0
  7  6  1  0
  8  7  1  0
  8  9  1  6
 10  8  1  0
 11 10  2  0
 12 10  1  0
 13 12  1  0
 14 15  1  0
 13 14  1  6
 15 16  1  0
 16 17  2  0
 18 13  1  0
 18 21  1  0
 19 18  2  0
 20 16  1  0
 22 21  1  0
 22 30  1  0
 22 23  1  1
 23 24  1  0
 24 29  2  0
 24 25  1  0
 25 26  2  0
 27 26  1  0
 28 27  2  0
 29 28  1  0
 30 32  1  0
 31 30  2  0
M  END
$$$$
