REF.pdb
     RDKit          3D

 32 32  0  0  1  0  0  0  0  0999 V2000
   12.6770  -11.2704  -12.7954 N   0  0  0  0  0  0  0  0  0  0  0  0
   12.9926  -12.4431  -13.5349 C   0  0  0  0  0  0  0  0  0  0  0  0
   12.2428  -13.4683  -13.3939 N   0  0  0  0  0  0  0  0  0  0  0  0
   14.1112  -12.4681  -14.4033 N   0  0  0  0  0  0  0  0  0  0  0  0
   14.9447  -11.3130  -14.5452 C   0  0  0  0  0  0  0  0  0  0  0  0
   16.0660  -11.5125  -15.5475 C   0  0  0  0  0  0  0  0  0  0  0  0
   16.8267  -10.2171  -15.7430 C   0  0  0  0  0  0  0  0  0  0  0  0
   17.9813  -10.4846  -16.6875 C   0  0  2  0  0  0  0  0  0  0  0  0
   18.7143  -11.6130  -16.1546 N   0  0  0  0  0  0  0  0  0  0  0  0
   18.8200   -9.2442  -16.7060 C   0  0  0  0  0  0  0  0  0  0  0  0
   20.0313   -9.2642  -16.3680 O   0  0  0  0  0  0  0  0  0  0  0  0
   12.3461  -14.3819  -13.8573 N   0  0  0  0  0  0  0  0  0  0  0  0
   18.3048   -7.9665  -17.1042 C   0  0  2  0  0  0  0  0  0  0  0  0
   19.1536   -6.8027  -17.1162 C   0  0  0  0  0  0  0  0  0  0  0  0
   18.5565   -5.7724  -18.0415 C   0  0  0  0  0  0  0  0  0  0  0  0
   18.8276   -6.1719  -19.4651 C   0  0  0  0  0  0  0  0  0  0  0  0
   19.5602   -5.0755  -20.1833 O   0  0  0  0  0  0  0  0  0  0  0  0
   19.1564   -3.8965  -20.0445 C   0  0  0  0  0  0  0  0  0  0  0  0
   19.3251   -6.1771  -15.7769 O   0  0  0  0  0  0  0  0  0  0  0  0
   18.5144   -6.2984  -14.8359 O   0  0  0  0  0  0  0  0  0  0  0  0
   20.6548   -5.3630  -20.9748 N   0  0  0  0  0  0  0  0  0  0  0  0
   20.5030   -5.4006  -15.6043 C   0  0  2  0  0  0  0  0  0  0  0  0
   20.8246   -4.7988  -14.3036 C   0  0  0  0  0  0  0  0  0  0  0  0
   22.1853   -5.3341  -13.9136 C   0  0  0  0  0  0  0  0  0  0  0  0
   22.2186   -6.7937  -13.7033 C   0  0  0  0  0  0  0  0  0  0  0  0
   21.6727   -7.3858  -12.5875 C   0  0  0  0  0  0  0  0  0  0  0  0
   21.7128   -8.7506  -12.4114 C   0  0  0  0  0  0  0  0  0  0  0  0
   22.3061   -9.5811  -13.3522 C   0  0  0  0  0  0  0  0  0  0  0  0
   22.8485   -8.9830  -14.4631 C   0  0  0  0  0  0  0  0  0  0  0  0
   22.8110   -7.6205  -14.6443 C   0  0  0  0  0  0  0  0  0  0  0  0
   20.8908   -3.3381  -14.3853 O   0  0  0  0  0  0  0  0  0  0  0  0
   21.0769   -2.6586  -13.3586 O   0  0  0  0  0  0  0  0  0  0  0  0
  1  2  1  0
  2  3  2  0
  4  2  1  0
  5  4  1  0
  6  5  1  0
  7  6  1  0
  8  7  1  0
  8  9  1  1
 10  8  1  0
 11 10  2  0
 12 10  1  0
 13 12  1  0
 14 15  1  0
 13 14  1  6
 15 16  1  0
 16 17  2  0
 18 13  1  0
 18 21  1  0
 19 18  2  0
 20 16  1  0
 22 21  1  0
 22 30  1  0
 22 23  1  6
 23 24  1  0
 24 29  2  0
 24 25  1  0
 25 26  2  0
 27 26  1  0
 28 27  2  0
 29 28  1  0
 30 32  1  0
 31 30  2  0
M  END
$$$$
