LMF.pdb
     RDKit          3D

 28 28  0  0  1  0  0  0  0  0999 V2000
   20.6950  -15.1237  -20.0417 C   0  0  0  0  0  0  0  0  0  0  0  0
   21.5373  -16.3165  -19.6537 C   0  0  2  0  0  0  0  0  0  0  0  0
   22.7219  -16.3436  -20.6081 C   0  0  0  0  0  0  0  0  0  0  0  0
   20.8085  -17.6270  -19.8144 C   0  0  0  0  0  0  0  0  0  0  0  0
   20.9329  -18.5143  -18.6020 C   0  0  2  0  0  0  0  0  0  0  0  0
   22.2555  -19.0243  -18.4142 N   0  0  0  0  0  0  0  0  0  0  0  0
   19.9744  -19.6333  -18.6118 C   0  0  0  0  0  0  0  0  0  0  0  0
   18.7786  -19.4237  -18.8919 O   0  0  0  0  0  0  0  0  0  0  0  0
   22.0655  -25.4246  -20.0041 C   0  0  0  0  0  0  0  0  0  0  0  0
   20.5380  -25.0518  -20.8674 S   0  0  0  0  0  0  0  0  0  0  0  0
   19.6556  -23.6613  -20.1615 C   0  0  0  0  0  0  0  0  0  0  0  0
   20.0039  -23.3175  -18.7663 C   0  0  0  0  0  0  0  0  0  0  0  0
   19.4161  -22.0523  -18.2049 C   0  0  2  0  0  0  0  0  0  0  0  0
   20.3524  -20.9801  -18.3095 N   0  0  0  0  0  0  0  0  0  0  0  0
   18.9227  -22.2537  -16.8187 C   0  0  0  0  0  0  0  0  0  0  0  0
   18.1294  -23.2038  -16.6103 O   0  0  0  0  0  0  0  0  0  0  0  0
   19.3043  -21.4313  -15.7409 N   0  0  0  0  0  0  0  0  0  0  0  0
   18.7527  -21.6207  -14.4256 C   0  0  1  0  0  0  0  0  0  0  0  0
   19.8547  -21.8845  -13.4138 C   0  0  0  0  0  0  0  0  0  0  0  0
   19.9920  -20.7941  -12.4295 C   0  0  0  0  0  0  0  0  0  0  0  0
   20.7281  -19.6662  -12.7199 C   0  0  0  0  0  0  0  0  0  0  0  0
   20.8345  -18.6643  -11.7719 C   0  0  0  0  0  0  0  0  0  0  0  0
   20.2134  -18.7986  -10.5630 C   0  0  0  0  0  0  0  0  0  0  0  0
   19.4733  -19.9152  -10.2504 C   0  0  0  0  0  0  0  0  0  0  0  0
   19.3714  -20.9149  -11.2055 C   0  0  0  0  0  0  0  0  0  0  0  0
   17.9600  -20.4349  -14.0628 C   0  0  0  0  0  0  0  0  0  0  0  0
   18.2577  -19.3156  -14.5210 O   0  0  0  0  0  0  0  0  0  0  0  0
   16.8812  -20.5539  -13.2126 O   0  0  0  0  0  0  0  0  0  0  0  0
  2  1  1  6
  2  3  1  0
  4  2  1  0
  5  6  1  6
  5  4  1  0
  7  5  1  0
  8  7  2  0
  9 10  1  0
 10 11  1  0
 11 12  1  0
 13 12  1  1
 13 14  1  0
 14  7  1  0
 15 13  1  0
 15 16  2  0
 17 18  1  0
 17 15  1  0
 18 19  1  1
 20 19  1  0
 21 20  2  0
 22 21  1  0
 23 24  1  0
 23 22  2  0
 24 25  2  0
 25 20  1  0
 26 28  1  0
 26 18  1  0
 27 26  2  0
M  END
$$$$
