LMF.pdb
     RDKit          3D

 28 28  0  0  1  0  0  0  0  0999 V2000
   29.4093  -21.3763  -19.6813 C   0  0  0  0  0  0  0  0  0  0  0  0
   27.8994  -21.3880  -19.7348 C   0  0  2  0  0  0  0  0  0  0  0  0
   27.5008  -20.6226  -20.9879 C   0  0  0  0  0  0  0  0  0  0  0  0
   27.2650  -20.6813  -18.5632 C   0  0  0  0  0  0  0  0  0  0  0  0
   27.6361  -21.3007  -17.2398 C   0  0  2  0  0  0  0  0  0  0  0  0
   28.0535  -22.6635  -17.3564 N   0  0  0  0  0  0  0  0  0  0  0  0
   26.5576  -21.2037  -16.2407 C   0  0  0  0  0  0  0  0  0  0  0  0
   25.8500  -20.1796  -16.1888 O   0  0  0  0  0  0  0  0  0  0  0  0
   22.2698  -25.7353  -14.4621 C   0  0  0  0  0  0  0  0  0  0  0  0
   22.0969  -24.4966  -15.7478 S   0  0  0  0  0  0  0  0  0  0  0  0
   23.2616  -23.1453  -15.5799 C   0  0  0  0  0  0  0  0  0  0  0  0
   24.2557  -23.2818  -14.4940 C   0  0  0  0  0  0  0  0  0  0  0  0
   25.2411  -22.1591  -14.3216 C   0  0  2  0  0  0  0  0  0  0  0  0
   26.2724  -22.2478  -15.3043 N   0  0  0  0  0  0  0  0  0  0  0  0
   25.7691  -22.1110  -12.9343 C   0  0  0  0  0  0  0  0  0  0  0  0
   26.5043  -23.0542  -12.5531 O   0  0  0  0  0  0  0  0  0  0  0  0
   25.4814  -21.0622  -12.0394 N   0  0  0  0  0  0  0  0  0  0  0  0
   26.0247  -21.0477  -10.7072 C   0  0  1  0  0  0  0  0  0  0  0  0
   27.1796  -20.0658  -10.6087 C   0  0  0  0  0  0  0  0  0  0  0  0
   27.7216  -19.9650   -9.2402 C   0  0  0  0  0  0  0  0  0  0  0  0
   28.6687  -20.8565   -8.7859 C   0  0  0  0  0  0  0  0  0  0  0  0
   29.1538  -20.7307   -7.4965 C   0  0  0  0  0  0  0  0  0  0  0  0
   28.6941  -19.7306   -6.6879 C   0  0  0  0  0  0  0  0  0  0  0  0
   27.7489  -18.8288   -7.1193 C   0  0  0  0  0  0  0  0  0  0  0  0
   27.2677  -18.9614   -8.4126 C   0  0  0  0  0  0  0  0  0  0  0  0
   24.9520  -20.7157   -9.7556 C   0  0  0  0  0  0  0  0  0  0  0  0
   23.9918  -20.0075  -10.1129 O   0  0  0  0  0  0  0  0  0  0  0  0
   25.0019  -21.1864   -8.4607 O   0  0  0  0  0  0  0  0  0  0  0  0
  2  1  1  1
  2  3  1  0
  4  2  1  0
  5  6  1  6
  5  4  1  0
  7  5  1  0
  8  7  2  0
  9 10  1  0
 10 11  1  0
 11 12  1  0
 13 12  1  1
 13 14  1  0
 14  7  1  0
 15 13  1  0
 15 16  2  0
 17 18  1  0
 17 15  1  0
 18 19  1  6
 20 19  1  0
 21 20  2  0
 22 21  1  0
 23 24  1  0
 23 22  2  0
 24 25  2  0
 25 20  1  0
 26 28  1  0
 26 18  1  0
 27 26  2  0
M  END
$$$$
