LMF.pdb
     RDKit          3D

 28 28  0  0  1  0  0  0  0  0999 V2000
   28.1354  -19.5314  -17.1767 C   0  0  0  0  0  0  0  0  0  0  0  0
   28.7567  -20.5783  -16.2819 C   0  0  2  0  0  0  0  0  0  0  0  0
   29.2859  -21.6746  -17.1945 C   0  0  0  0  0  0  0  0  0  0  0  0
   27.7601  -21.2202  -15.3496 C   0  0  0  0  0  0  0  0  0  0  0  0
   27.2022  -20.2516  -14.3380 C   0  0  2  0  0  0  0  0  0  0  0  0
   28.2148  -19.4979  -13.6662 N   0  0  0  0  0  0  0  0  0  0  0  0
   26.3351  -20.9030  -13.3406 C   0  0  0  0  0  0  0  0  0  0  0  0
   25.6157  -21.8631  -13.6764 O   0  0  0  0  0  0  0  0  0  0  0  0
   27.1214  -19.3898   -6.9824 C   0  0  0  0  0  0  0  0  0  0  0  0
   27.7066  -20.9687   -7.6005 S   0  0  0  0  0  0  0  0  0  0  0  0
   27.1425  -21.3227   -9.2639 C   0  0  0  0  0  0  0  0  0  0  0  0
   25.8205  -20.7697   -9.6280 C   0  0  0  0  0  0  0  0  0  0  0  0
   25.3401  -21.0100  -11.0326 C   0  0  2  0  0  0  0  0  0  0  0  0
   26.2735  -20.4817  -11.9743 N   0  0  0  0  0  0  0  0  0  0  0  0
   23.9637  -20.4884  -11.2302 C   0  0  0  0  0  0  0  0  0  0  0  0
   23.7805  -19.2531  -11.1043 O   0  0  0  0  0  0  0  0  0  0  0  0
   22.8683  -21.3141  -11.5493 N   0  0  0  0  0  0  0  0  0  0  0  0
   21.8273  -20.8641  -12.4346 C   0  0  1  0  0  0  0  0  0  0  0  0
   22.4025  -20.4736  -13.7854 C   0  0  0  0  0  0  0  0  0  0  0  0
   21.3599  -20.0788  -14.7517 C   0  0  0  0  0  0  0  0  0  0  0  0
   20.5082  -19.0291  -14.4852 C   0  0  0  0  0  0  0  0  0  0  0  0
   19.5426  -18.6877  -15.4153 C   0  0  0  0  0  0  0  0  0  0  0  0
   19.4407  -19.3882  -16.5832 C   0  0  0  0  0  0  0  0  0  0  0  0
   20.2797  -20.4397  -16.8713 C   0  0  0  0  0  0  0  0  0  0  0  0
   21.2446  -20.7759  -15.9344 C   0  0  0  0  0  0  0  0  0  0  0  0
   20.8168  -21.9262  -12.5655 C   0  0  0  0  0  0  0  0  0  0  0  0
   21.1605  -23.0893  -12.8488 O   0  0  0  0  0  0  0  0  0  0  0  0
   19.4812  -21.6416  -12.3754 O   0  0  0  0  0  0  0  0  0  0  0  0
  2  1  1  6
  2  3  1  0
  4  2  1  0
  5  6  1  1
  5  4  1  0
  7  5  1  0
  8  7  2  0
  9 10  1  0
 10 11  1  0
 11 12  1  0
 13 12  1  1
 13 14  1  0
 14  7  1  0
 15 13  1  0
 15 16  2  0
 17 18  1  0
 17 15  1  0
 18 19  1  6
 20 19  1  0
 21 20  2  0
 22 21  1  0
 23 24  1  0
 23 22  2  0
 24 25  2  0
 25 20  1  0
 26 28  1  0
 26 18  1  0
 27 26  2  0
M  END
$$$$
