LMF.pdb
     RDKit          3D

 28 28  0  0  1  0  0  0  0  0999 V2000
   29.7262  -19.7171   -3.7098 C   0  0  0  0  0  0  0  0  0  0  0  0
   28.8774  -19.0873   -4.7894 C   0  0  2  0  0  0  0  0  0  0  0  0
   29.6004  -17.8239   -5.2320 C   0  0  0  0  0  0  0  0  0  0  0  0
   27.5153  -18.6688   -4.2958 C   0  0  0  0  0  0  0  0  0  0  0  0
   26.6615  -19.8401   -3.8811 C   0  0  2  0  0  0  0  0  0  0  0  0
   26.7046  -20.9229   -4.8141 N   0  0  0  0  0  0  0  0  0  0  0  0
   25.2586  -19.4651   -3.6319 C   0  0  0  0  0  0  0  0  0  0  0  0
   24.9521  -18.2655   -3.4934 O   0  0  0  0  0  0  0  0  0  0  0  0
   19.9378  -22.6758   -5.9724 C   0  0  0  0  0  0  0  0  0  0  0  0
   21.3297  -21.9391   -6.8309 S   0  0  0  0  0  0  0  0  0  0  0  0
   22.3426  -20.9101   -5.7699 C   0  0  0  0  0  0  0  0  0  0  0  0
   21.9857  -20.9154   -4.3351 C   0  0  0  0  0  0  0  0  0  0  0  0
   22.8270  -20.0730   -3.4164 C   0  0  2  0  0  0  0  0  0  0  0  0
   24.2040  -20.4281   -3.5382 N   0  0  0  0  0  0  0  0  0  0  0  0
   22.3352  -20.1427   -2.0167 C   0  0  0  0  0  0  0  0  0  0  0  0
   22.9281  -20.9146   -1.2241 O   0  0  0  0  0  0  0  0  0  0  0  0
   21.2432  -19.3868   -1.5482 N   0  0  0  0  0  0  0  0  0  0  0  0
   20.8559  -19.4143   -0.1628 C   0  0  1  0  0  0  0  0  0  0  0  0
   21.8043  -18.5758    0.6769 C   0  0  0  0  0  0  0  0  0  0  0  0
   21.7866  -17.1503    0.2970 C   0  0  0  0  0  0  0  0  0  0  0  0
   20.9237  -16.2655    0.9061 C   0  0  0  0  0  0  0  0  0  0  0  0
   20.9356  -14.9360    0.5236 C   0  0  0  0  0  0  0  0  0  0  0  0
   21.7966  -14.5122   -0.4482 C   0  0  0  0  0  0  0  0  0  0  0  0
   22.6670  -15.3768   -1.0704 C   0  0  0  0  0  0  0  0  0  0  0  0
   22.6492  -16.7074   -0.6818 C   0  0  0  0  0  0  0  0  0  0  0  0
   19.4675  -18.9404   -0.0435 C   0  0  0  0  0  0  0  0  0  0  0  0
   18.8167  -18.6391   -1.0618 O   0  0  0  0  0  0  0  0  0  0  0  0
   18.8765  -18.8265    1.1968 O   0  0  0  0  0  0  0  0  0  0  0  0
  2  1  1  1
  2  3  1  0
  4  2  1  0
  5  6  1  6
  5  4  1  0
  7  5  1  0
  8  7  2  0
  9 10  1  0
 10 11  1  0
 11 12  1  0
 13 12  1  6
 13 14  1  0
 14  7  1  0
 15 13  1  0
 15 16  2  0
 17 18  1  0
 17 15  1  0
 18 19  1  1
 20 19  1  0
 21 20  2  0
 22 21  1  0
 23 24  1  0
 23 22  2  0
 24 25  2  0
 25 20  1  0
 26 28  1  0
 26 18  1  0
 27 26  2  0
M  END
$$$$
