LMF.pdb
     RDKit          3D

 28 28  0  0  1  0  0  0  0  0999 V2000
   16.2951  -15.3816    2.3620 C   0  0  0  0  0  0  0  0  0  0  0  0
   17.6349  -14.6977    2.5037 C   0  0  2  0  0  0  0  0  0  0  0  0
   18.5843  -15.3930    1.5392 C   0  0  0  0  0  0  0  0  0  0  0  0
   18.2234  -14.8400    3.8849 C   0  0  0  0  0  0  0  0  0  0  0  0
   17.4621  -14.0583    4.9251 C   0  0  2  0  0  0  0  0  0  0  0  0
   17.7444  -12.6569    4.8906 N   0  0  0  0  0  0  0  0  0  0  0  0
   17.6754  -14.5664    6.2916 C   0  0  0  0  0  0  0  0  0  0  0  0
   18.7457  -14.3271    6.8826 O   0  0  0  0  0  0  0  0  0  0  0  0
   15.3152  -13.2098   12.8269 C   0  0  0  0  0  0  0  0  0  0  0  0
   14.7845  -14.1711   11.4086 S   0  0  0  0  0  0  0  0  0  0  0  0
   16.1254  -14.5638   10.2869 C   0  0  0  0  0  0  0  0  0  0  0  0
   15.8107  -15.5403    9.2223 C   0  0  0  0  0  0  0  0  0  0  0  0
   16.9233  -15.9103    8.2807 C   0  0  2  0  0  0  0  0  0  0  0  0
   16.6955  -15.3384    6.9931 N   0  0  0  0  0  0  0  0  0  0  0  0
   17.1233  -17.3811    8.2312 C   0  0  0  0  0  0  0  0  0  0  0  0
   16.4049  -18.0450    7.4445 O   0  0  0  0  0  0  0  0  0  0  0  0
   18.0752  -18.0535    9.0220 N   0  0  0  0  0  0  0  0  0  0  0  0
   18.2107  -19.4850    8.9711 C   0  0  1  0  0  0  0  0  0  0  0  0
   19.4362  -19.8803    8.1652 C   0  0  0  0  0  0  0  0  0  0  0  0
   19.1803  -19.8857    6.7122 C   0  0  0  0  0  0  0  0  0  0  0  0
   18.2865  -20.7731    6.1537 C   0  0  0  0  0  0  0  0  0  0  0  0
   18.0724  -20.7488    4.7871 C   0  0  0  0  0  0  0  0  0  0  0  0
   18.7435  -19.8516    4.0061 C   0  0  0  0  0  0  0  0  0  0  0  0
   19.6405  -18.9562    4.5410 C   0  0  0  0  0  0  0  0  0  0  0  0
   19.8497  -18.9867    5.9111 C   0  0  0  0  0  0  0  0  0  0  0  0
   18.2764  -20.0095   10.3448 C   0  0  0  0  0  0  0  0  0  0  0  0
   18.2752  -19.2297   11.3160 O   0  0  0  0  0  0  0  0  0  0  0  0
   18.3397  -21.3686   10.5672 O   0  0  0  0  0  0  0  0  0  0  0  0
  2  1  1  1
  2  3  1  0
  4  2  1  0
  5  6  1  1
  5  4  1  0
  7  5  1  0
  8  7  2  0
  9 10  1  0
 10 11  1  0
 11 12  1  0
 13 12  1  1
 13 14  1  0
 14  7  1  0
 15 13  1  0
 15 16  2  0
 17 18  1  0
 17 15  1  0
 18 19  1  6
 20 19  1  0
 21 20  2  0
 22 21  1  0
 23 24  1  0
 23 22  2  0
 24 25  2  0
 25 20  1  0
 26 28  1  0
 26 18  1  0
 27 26  2  0
M  END
$$$$
