LMF.pdb
     RDKit          3D

 28 28  0  0  1  0  0  0  0  0999 V2000
   23.0685  -22.6055  -21.2864 C   0  0  0  0  0  0  0  0  0  0  0  0
   24.2862  -22.0961  -20.5511 C   0  0  2  0  0  0  0  0  0  0  0  0
   25.4663  -22.9271  -21.0321 C   0  0  0  0  0  0  0  0  0  0  0  0
   24.1912  -22.2837  -19.0577 C   0  0  0  0  0  0  0  0  0  0  0  0
   22.9664  -21.6334  -18.4663 C   0  0  2  0  0  0  0  0  0  0  0  0
   22.9076  -20.2252  -18.7084 N   0  0  0  0  0  0  0  0  0  0  0  0
   22.8253  -21.8873  -17.0218 C   0  0  0  0  0  0  0  0  0  0  0  0
   23.0814  -23.0166  -16.5623 O   0  0  0  0  0  0  0  0  0  0  0  0
   24.0567  -21.2772   -9.9480 C   0  0  0  0  0  0  0  0  0  0  0  0
   24.1763  -21.1886  -11.7355 S   0  0  0  0  0  0  0  0  0  0  0  0
   22.9808  -20.0698  -12.4631 C   0  0  0  0  0  0  0  0  0  0  0  0
   22.9874  -19.9900  -13.9394 C   0  0  0  0  0  0  0  0  0  0  0  0
   22.3063  -21.1015  -14.6891 C   0  0  2  0  0  0  0  0  0  0  0  0
   22.3997  -20.8821  -16.0963 N   0  0  0  0  0  0  0  0  0  0  0  0
   20.9075  -21.2884  -14.2262 C   0  0  0  0  0  0  0  0  0  0  0  0
   20.0666  -20.4068  -14.5282 O   0  0  0  0  0  0  0  0  0  0  0  0
   20.4912  -22.4017  -13.4707 N   0  0  0  0  0  0  0  0  0  0  0  0
   19.1240  -22.5467  -13.0464 C   0  0  1  0  0  0  0  0  0  0  0  0
   18.9305  -23.8526  -12.2948 C   0  0  0  0  0  0  0  0  0  0  0  0
   17.5234  -24.0852  -11.9173 C   0  0  0  0  0  0  0  0  0  0  0  0
   16.6155  -24.5713  -12.8326 C   0  0  0  0  0  0  0  0  0  0  0  0
   15.3043  -24.7767  -12.4422 C   0  0  0  0  0  0  0  0  0  0  0  0
   14.9210  -24.4985  -11.1612 C   0  0  0  0  0  0  0  0  0  0  0  0
   15.8094  -24.0125  -10.2300 C   0  0  0  0  0  0  0  0  0  0  0  0
   17.1215  -23.8092  -10.6287 C   0  0  0  0  0  0  0  0  0  0  0  0
   18.7536  -21.3878  -12.2182 C   0  0  0  0  0  0  0  0  0  0  0  0
   19.5725  -20.9013  -11.4158 O   0  0  0  0  0  0  0  0  0  0  0  0
   17.4965  -20.8316  -12.3242 O   0  0  0  0  0  0  0  0  0  0  0  0
  2  1  1  6
  2  3  1  0
  4  2  1  0
  5  6  1  1
  5  4  1  0
  7  5  1  0
  8  7  2  0
  9 10  1  0
 10 11  1  0
 11 12  1  0
 13 12  1  1
 13 14  1  0
 14  7  1  0
 15 13  1  0
 15 16  2  0
 17 18  1  0
 17 15  1  0
 18 19  1  1
 20 19  1  0
 21 20  2  0
 22 21  1  0
 23 24  1  0
 23 22  2  0
 24 25  2  0
 25 20  1  0
 26 28  1  0
 26 18  1  0
 27 26  2  0
M  END
$$$$
