LMF.pdb
     RDKit          3D

 28 28  0  0  1  0  0  0  0  0999 V2000
   28.5293  -20.3045  -18.0133 C   0  0  0  0  0  0  0  0  0  0  0  0
   27.0332  -20.1459  -17.8742 C   0  0  2  0  0  0  0  0  0  0  0  0
   26.6049  -19.1171  -18.9100 C   0  0  0  0  0  0  0  0  0  0  0  0
   26.6224  -19.6135  -16.5243 C   0  0  0  0  0  0  0  0  0  0  0  0
   27.1949  -20.4158  -15.3836 C   0  0  2  0  0  0  0  0  0  0  0  0
   27.0879  -21.8278  -15.5825 N   0  0  0  0  0  0  0  0  0  0  0  0
   26.6049  -20.0596  -14.0813 C   0  0  0  0  0  0  0  0  0  0  0  0
   26.4154  -18.8625  -13.7925 O   0  0  0  0  0  0  0  0  0  0  0  0
   22.5659  -23.5331  -13.9891 C   0  0  0  0  0  0  0  0  0  0  0  0
   21.9493  -21.8554  -13.8388 S   0  0  0  0  0  0  0  0  0  0  0  0
   22.9659  -20.8275  -12.7802 C   0  0  0  0  0  0  0  0  0  0  0  0
   24.0912  -21.5100  -12.1065 C   0  0  0  0  0  0  0  0  0  0  0  0
   25.3843  -20.7509  -11.9931 C   0  0  2  0  0  0  0  0  0  0  0  0
   26.2288  -21.0383  -13.1072 N   0  0  0  0  0  0  0  0  0  0  0  0
   26.0465  -21.0024  -10.6877 C   0  0  0  0  0  0  0  0  0  0  0  0
   26.4380  -22.1697  -10.4434 O   0  0  0  0  0  0  0  0  0  0  0  0
   26.2505  -19.9959   -9.7238 N   0  0  0  0  0  0  0  0  0  0  0  0
   26.8054  -20.3011   -8.4319 C   0  0  1  0  0  0  0  0  0  0  0  0
   27.4329  -19.0647   -7.8112 C   0  0  0  0  0  0  0  0  0  0  0  0
   28.0411  -19.3388   -6.4952 C   0  0  0  0  0  0  0  0  0  0  0  0
   28.3080  -18.3161   -5.6114 C   0  0  0  0  0  0  0  0  0  0  0  0
   28.8789  -18.6114   -4.3864 C   0  0  0  0  0  0  0  0  0  0  0  0
   29.1719  -19.9056   -4.0632 C   0  0  0  0  0  0  0  0  0  0  0  0
   28.9146  -20.9432   -4.9291 C   0  0  0  0  0  0  0  0  0  0  0  0
   28.3425  -20.6393   -6.1547 C   0  0  0  0  0  0  0  0  0  0  0  0
   25.7462  -20.8568   -7.5742 C   0  0  0  0  0  0  0  0  0  0  0  0
   24.5594  -20.5183   -7.7421 O   0  0  0  0  0  0  0  0  0  0  0  0
   26.0597  -21.7567   -6.5779 O   0  0  0  0  0  0  0  0  0  0  0  0
  2  1  1  1
  2  3  1  0
  4  2  1  0
  5  6  1  6
  5  4  1  0
  7  5  1  0
  8  7  2  0
  9 10  1  0
 10 11  1  0
 11 12  1  0
 13 12  1  6
 13 14  1  0
 14  7  1  0
 15 13  1  0
 15 16  2  0
 17 18  1  0
 17 15  1  0
 18 19  1  1
 20 19  1  0
 21 20  2  0
 22 21  1  0
 23 24  1  0
 23 22  2  0
 24 25  2  0
 25 20  1  0
 26 28  1  0
 26 18  1  0
 27 26  2  0
M  END
$$$$
