LMF.pdb
     RDKit          3D

 28 28  0  0  1  0  0  0  0  0999 V2000
   21.8606  -15.7329  -15.6327 C   0  0  0  0  0  0  0  0  0  0  0  0
   20.8112  -16.8181  -15.5694 C   0  0  2  0  0  0  0  0  0  0  0  0
   19.5235  -16.1539  -15.1052 C   0  0  0  0  0  0  0  0  0  0  0  0
   21.1407  -17.8955  -14.5670 C   0  0  0  0  0  0  0  0  0  0  0  0
   22.4341  -18.6046  -14.8789 C   0  0  2  0  0  0  0  0  0  0  0  0
   22.4360  -19.2256  -16.1670 N   0  0  0  0  0  0  0  0  0  0  0  0
   22.8018  -19.5994  -13.8562 C   0  0  0  0  0  0  0  0  0  0  0  0
   22.1074  -20.6232  -13.7083 O   0  0  0  0  0  0  0  0  0  0  0  0
   25.3930  -24.4129  -15.2740 C   0  0  0  0  0  0  0  0  0  0  0  0
   26.6099  -23.7304  -14.1467 S   0  0  0  0  0  0  0  0  0  0  0  0
   25.8885  -22.6714  -12.8942 C   0  0  0  0  0  0  0  0  0  0  0  0
   25.2466  -21.4342  -13.3874 C   0  0  0  0  0  0  0  0  0  0  0  0
   24.5924  -20.5468  -12.3647 C   0  0  2  0  0  0  0  0  0  0  0  0
   23.9410  -19.4490  -13.0031 N   0  0  0  0  0  0  0  0  0  0  0  0
   25.5602  -20.1167  -11.3234 C   0  0  0  0  0  0  0  0  0  0  0  0
   26.3646  -19.1978  -11.6135 O   0  0  0  0  0  0  0  0  0  0  0  0
   25.6115  -20.6915  -10.0387 N   0  0  0  0  0  0  0  0  0  0  0  0
   26.6176  -20.3025   -9.0866 C   0  0  1  0  0  0  0  0  0  0  0  0
   25.9844  -19.6312   -7.8799 C   0  0  0  0  0  0  0  0  0  0  0  0
   26.9659  -19.3287   -6.8208 C   0  0  0  0  0  0  0  0  0  0  0  0
   27.5533  -18.0854   -6.7335 C   0  0  0  0  0  0  0  0  0  0  0  0
   28.4694  -17.8385   -5.7267 C   0  0  0  0  0  0  0  0  0  0  0  0
   28.7833  -18.8215   -4.8321 C   0  0  0  0  0  0  0  0  0  0  0  0
   28.2099  -20.0702   -4.8992 C   0  0  0  0  0  0  0  0  0  0  0  0
   27.2929  -20.3101   -5.9108 C   0  0  0  0  0  0  0  0  0  0  0  0
   27.3940  -21.4907   -8.6971 C   0  0  0  0  0  0  0  0  0  0  0  0
   26.8489  -22.6096   -8.6489 O   0  0  0  0  0  0  0  0  0  0  0  0
   28.7312  -21.3743   -8.3824 O   0  0  0  0  0  0  0  0  0  0  0  0
  2  1  1  1
  2  3  1  0
  4  2  1  0
  5  6  1  6
  5  4  1  0
  7  5  1  0
  8  7  2  0
  9 10  1  0
 10 11  1  0
 11 12  1  0
 13 12  1  6
 13 14  1  0
 14  7  1  0
 15 13  1  0
 15 16  2  0
 17 18  1  0
 17 15  1  0
 18 19  1  1
 20 19  1  0
 21 20  2  0
 22 21  1  0
 23 24  1  0
 23 22  2  0
 24 25  2  0
 25 20  1  0
 26 28  1  0
 26 18  1  0
 27 26  2  0
M  END
$$$$
