LMF.pdb
     RDKit          3D

 28 28  0  0  1  0  0  0  0  0999 V2000
   19.4678  -16.8347  -18.2241 C   0  0  0  0  0  0  0  0  0  0  0  0
   19.7280  -16.1940  -19.5675 C   0  0  2  0  0  0  0  0  0  0  0  0
   20.8441  -16.9930  -20.2236 C   0  0  0  0  0  0  0  0  0  0  0  0
   20.2097  -14.7693  -19.4549 C   0  0  0  0  0  0  0  0  0  0  0  0
   19.1734  -13.8500  -18.8601 C   0  0  2  0  0  0  0  0  0  0  0  0
   17.8871  -13.9868  -19.4696 N   0  0  0  0  0  0  0  0  0  0  0  0
   19.5804  -12.4343  -18.8900 C   0  0  0  0  0  0  0  0  0  0  0  0
   20.7213  -12.1084  -18.5100 O   0  0  0  0  0  0  0  0  0  0  0  0
   17.7684   -5.1647  -21.6880 C   0  0  0  0  0  0  0  0  0  0  0  0
   17.3215   -6.8904  -21.4889 S   0  0  0  0  0  0  0  0  0  0  0  0
   18.4646   -7.7945  -20.4466 C   0  0  0  0  0  0  0  0  0  0  0  0
   18.1944   -9.2402  -20.2956 C   0  0  0  0  0  0  0  0  0  0  0  0
   19.0961  -10.0135  -19.3734 C   0  0  2  0  0  0  0  0  0  0  0  0
   18.7148  -11.3885  -19.3431 N   0  0  0  0  0  0  0  0  0  0  0  0
   19.1440   -9.3984  -18.0224 C   0  0  0  0  0  0  0  0  0  0  0  0
   18.2071   -9.6547  -17.2274 O   0  0  0  0  0  0  0  0  0  0  0  0
   20.1858   -8.5490  -17.6021 N   0  0  0  0  0  0  0  0  0  0  0  0
   20.1771   -7.9474  -16.2952 C   0  0  1  0  0  0  0  0  0  0  0  0
   21.5286   -8.1087  -15.6206 C   0  0  0  0  0  0  0  0  0  0  0  0
   21.5995   -7.4124  -14.3218 C   0  0  0  0  0  0  0  0  0  0  0  0
   21.2324   -8.0486  -13.1561 C   0  0  0  0  0  0  0  0  0  0  0  0
   21.3122   -7.3636  -11.9568 C   0  0  0  0  0  0  0  0  0  0  0  0
   21.7513   -6.0706  -11.9362 C   0  0  0  0  0  0  0  0  0  0  0  0
   22.1232   -5.4148  -13.0869 C   0  0  0  0  0  0  0  0  0  0  0  0
   22.0405   -6.1077  -14.2847 C   0  0  0  0  0  0  0  0  0  0  0  0
   19.8036   -6.5294  -16.4225 C   0  0  0  0  0  0  0  0  0  0  0  0
   19.0401   -6.0035  -15.5909 O   0  0  0  0  0  0  0  0  0  0  0  0
   20.2964   -5.7721  -17.4638 O   0  0  0  0  0  0  0  0  0  0  0  0
  2  1  1  1
  2  3  1  0
  4  2  1  0
  5  6  1  6
  5  4  1  0
  7  5  1  0
  8  7  2  0
  9 10  1  0
 10 11  1  0
 11 12  1  0
 13 12  1  6
 13 14  1  0
 14  7  1  0
 15 13  1  0
 15 16  2  0
 17 18  1  0
 17 15  1  0
 18 19  1  6
 20 19  1  0
 21 20  2  0
 22 21  1  0
 23 24  1  0
 23 22  2  0
 24 25  2  0
 25 20  1  0
 26 28  1  0
 26 18  1  0
 27 26  2  0
M  END
$$$$
