LMF.pdb
     RDKit          3D

 28 28  0  0  1  0  0  0  0  0999 V2000
   19.8283  -18.9189  -14.2552 C   0  0  0  0  0  0  0  0  0  0  0  0
   20.0152  -20.3932  -14.5276 C   0  0  2  0  0  0  0  0  0  0  0  0
   18.6738  -21.0600  -14.2618 C   0  0  0  0  0  0  0  0  0  0  0  0
   21.0207  -21.0374  -13.6065 C   0  0  0  0  0  0  0  0  0  0  0  0
   22.3722  -20.3720  -13.6639 C   0  0  2  0  0  0  0  0  0  0  0  0
   22.9296  -20.3482  -14.9805 N   0  0  0  0  0  0  0  0  0  0  0  0
   23.3442  -20.9707  -12.7324 C   0  0  0  0  0  0  0  0  0  0  0  0
   22.9743  -21.8476  -11.9284 O   0  0  0  0  0  0  0  0  0  0  0  0
   30.1047  -21.5817  -13.3576 C   0  0  0  0  0  0  0  0  0  0  0  0
   28.7701  -21.9286  -14.5047 S   0  0  0  0  0  0  0  0  0  0  0  0
   27.1631  -21.9834  -13.7140 C   0  0  0  0  0  0  0  0  0  0  0  0
   27.0355  -21.2131  -12.4585 C   0  0  0  0  0  0  0  0  0  0  0  0
   25.6775  -21.1728  -11.8139 C   0  0  2  0  0  0  0  0  0  0  0  0
   24.7234  -20.5898  -12.7010 N   0  0  0  0  0  0  0  0  0  0  0  0
   25.7256  -20.4958  -10.4929 C   0  0  0  0  0  0  0  0  0  0  0  0
   25.4863  -19.2642  -10.4555 O   0  0  0  0  0  0  0  0  0  0  0  0
   26.0255  -21.1719   -9.2943 N   0  0  0  0  0  0  0  0  0  0  0  0
   26.3892  -20.4525   -8.1025 C   0  0  1  0  0  0  0  0  0  0  0  0
   26.9952  -21.3906   -7.0727 C   0  0  0  0  0  0  0  0  0  0  0  0
   27.5621  -20.6711   -5.9162 C   0  0  0  0  0  0  0  0  0  0  0  0
   28.5643  -19.7404   -6.0828 C   0  0  0  0  0  0  0  0  0  0  0  0
   29.0713  -19.0856   -4.9746 C   0  0  0  0  0  0  0  0  0  0  0  0
   28.5787  -19.3638   -3.7316 C   0  0  0  0  0  0  0  0  0  0  0  0
   27.5785  -20.2888   -3.5406 C   0  0  0  0  0  0  0  0  0  0  0  0
   27.0756  -20.9409   -4.6558 C   0  0  0  0  0  0  0  0  0  0  0  0
   27.3207  -19.3708   -8.4609 C   0  0  0  0  0  0  0  0  0  0  0  0
   28.2977  -19.6013   -9.1982 O   0  0  0  0  0  0  0  0  0  0  0  0
   27.1189  -18.0934   -7.9830 O   0  0  0  0  0  0  0  0  0  0  0  0
  2  1  1  1
  2  3  1  0
  4  2  1  0
  5  6  1  6
  5  4  1  0
  7  5  1  0
  8  7  2  0
  9 10  1  0
 10 11  1  0
 11 12  1  0
 13 12  1  6
 13 14  1  0
 14  7  1  0
 15 13  1  0
 15 16  2  0
 17 18  1  0
 17 15  1  0
 18 19  1  1
 20 19  1  0
 21 20  2  0
 22 21  1  0
 23 24  1  0
 23 22  2  0
 24 25  2  0
 25 20  1  0
 26 28  1  0
 26 18  1  0
 27 26  2  0
M  END
$$$$
