LMF.pdb
     RDKit          3D

 28 28  0  0  1  0  0  0  0  0999 V2000
   20.7162  -32.6638  -12.3495 C   0  0  0  0  0  0  0  0  0  0  0  0
   21.0844  -31.2830  -12.8399 C   0  0  2  0  0  0  0  0  0  0  0  0
   21.3999  -31.4157  -14.3224 C   0  0  0  0  0  0  0  0  0  0  0  0
   22.3191  -30.7325  -12.1715 C   0  0  0  0  0  0  0  0  0  0  0  0
   22.1644  -30.6061  -10.6772 C   0  0  2  0  0  0  0  0  0  0  0  0
   21.7709  -29.2950  -10.2636 N   0  0  0  0  0  0  0  0  0  0  0  0
   23.3758  -31.0079   -9.9410 C   0  0  0  0  0  0  0  0  0  0  0  0
   24.2939  -30.1851   -9.7607 O   0  0  0  0  0  0  0  0  0  0  0  0
   26.2741  -32.9990   -4.6034 C   0  0  0  0  0  0  0  0  0  0  0  0
   24.5848  -32.3961   -4.6091 S   0  0  0  0  0  0  0  0  0  0  0  0
   23.8489  -32.3887   -6.2428 C   0  0  0  0  0  0  0  0  0  0  0  0
   24.7206  -31.9187   -7.3406 C   0  0  0  0  0  0  0  0  0  0  0  0
   24.6891  -32.7018   -8.6241 C   0  0  2  0  0  0  0  0  0  0  0  0
   23.5587  -32.3239   -9.4093 N   0  0  0  0  0  0  0  0  0  0  0  0
   24.7504  -34.1634   -8.3675 C   0  0  0  0  0  0  0  0  0  0  0  0
   23.7093  -34.7312   -7.9562 O   0  0  0  0  0  0  0  0  0  0  0  0
   25.9158  -34.9292   -8.5648 N   0  0  0  0  0  0  0  0  0  0  0  0
   25.9192  -36.3519   -8.3502 C   0  0  1  0  0  0  0  0  0  0  0  0
   27.1185  -36.9942   -9.0263 C   0  0  0  0  0  0  0  0  0  0  0  0
   27.0726  -38.4681   -8.9790 C   0  0  0  0  0  0  0  0  0  0  0  0
   27.8748  -39.1742   -8.1095 C   0  0  0  0  0  0  0  0  0  0  0  0
   27.8043  -40.5558   -8.0934 C   0  0  0  0  0  0  0  0  0  0  0  0
   26.9461  -41.2061   -8.9335 C   0  0  0  0  0  0  0  0  0  0  0  0
   26.1356  -40.5226   -9.8101 C   0  0  0  0  0  0  0  0  0  0  0  0
   26.2119  -39.1385   -9.8204 C   0  0  0  0  0  0  0  0  0  0  0  0
   25.9093  -36.6186   -6.9028 C   0  0  0  0  0  0  0  0  0  0  0  0
   26.7839  -36.1243   -6.1666 O   0  0  0  0  0  0  0  0  0  0  0  0
   24.9312  -37.4179   -6.3504 O   0  0  0  0  0  0  0  0  0  0  0  0
  2  1  1  1
  2  3  1  0
  4  2  1  0
  5  6  1  6
  5  4  1  0
  7  5  1  0
  8  7  2  0
  9 10  1  0
 10 11  1  0
 11 12  1  0
 13 12  1  1
 13 14  1  0
 14  7  1  0
 15 13  1  0
 15 16  2  0
 17 18  1  0
 17 15  1  0
 18 19  1  1
 20 19  1  0
 21 20  2  0
 22 21  1  0
 23 24  1  0
 23 22  2  0
 24 25  2  0
 25 20  1  0
 26 28  1  0
 26 18  1  0
 27 26  2  0
M  END
$$$$
