VLV.pdb
     RDKit          3D

 23 22  0  0  1  0  0  0  0  0999 V2000
    6.0956  -20.8227   25.5375 C   0  0  0  0  0  0  0  0  0  0  0  0
    7.0980  -19.7104   25.2957 C   0  0  2  0  0  0  0  0  0  0  0  0
    7.0192  -18.7352   26.4492 C   0  0  0  0  0  0  0  0  0  0  0  0
    6.8297  -19.0075   23.9821 C   0  0  2  0  0  0  0  0  0  0  0  0
    6.7073  -19.9532   22.8943 N   0  0  0  0  0  0  0  0  0  0  0  0
    7.9062  -18.0510   23.6409 C   0  0  0  0  0  0  0  0  0  0  0  0
    9.0131  -18.4969   23.2581 O   0  0  0  0  0  0  0  0  0  0  0  0
    6.5964  -13.0566   21.6824 C   0  0  0  0  0  0  0  0  0  0  0  0
    7.3094  -14.4062   21.8147 C   0  0  1  0  0  0  0  0  0  0  0  0
    8.2652  -14.4354   20.6088 C   0  0  0  0  0  0  0  0  0  0  0  0
    8.1354  -14.3723   23.0611 C   0  0  0  0  0  0  0  0  0  0  0  0
    8.8085  -15.6887   23.3734 C   0  0  2  0  0  0  0  0  0  0  0  0
    7.7413  -16.6398   23.7280 N   0  0  0  0  0  0  0  0  0  0  0  0
    9.7340  -15.4966   24.4957 C   0  0  0  0  0  0  0  0  0  0  0  0
   10.9013  -15.0746   24.3197 O   0  0  0  0  0  0  0  0  0  0  0  0
    8.5211  -14.7298   28.3828 C   0  0  0  0  0  0  0  0  0  0  0  0
    9.9147  -14.4332   27.8653 C   0  0  2  0  0  0  0  0  0  0  0  0
    9.8514  -13.1101   27.1493 C   0  0  0  0  0  0  0  0  0  0  0  0
   10.3023  -15.5743   26.9684 C   0  0  2  0  0  0  0  0  0  0  0  0
    9.3933  -15.7680   25.8620 N   0  0  0  0  0  0  0  0  0  0  0  0
   10.3633  -16.8175   27.7747 C   0  0  0  0  0  0  0  0  0  0  0  0
    9.6389  -17.8283   27.5908 O   0  0  0  0  0  0  0  0  0  0  0  0
   11.2751  -16.9087   28.8175 O   0  0  0  0  0  0  0  0  0  0  0  0
  2  1  1  1
  2  3  1  0
  4  2  1  0
  4  6  1  0
  4  5  1  6
  6 13  1  0
  6  7  2  0
  9  8  1  6
  9 11  1  0
 10  9  1  0
 12 11  1  1
 13 12  1  0
 14 12  1  0
 14 20  1  0
 15 14  2  0
 17 16  1  6
 18 17  1  0
 19 17  1  0
 19 20  1  6
 19 21  1  0
 21 23  1  0
 22 21  2  0
M  END
$$$$
