VLV.pdb
     RDKit          3D

 23 22  0  0  1  0  0  0  0  0999 V2000
    9.1988  -18.1636   21.7226 C   0  0  0  0  0  0  0  0  0  0  0  0
    8.0306  -17.3506   21.1984 C   0  0  2  0  0  0  0  0  0  0  0  0
    7.6089  -17.9231   19.8635 C   0  0  0  0  0  0  0  0  0  0  0  0
    8.3989  -15.8887   21.0608 C   0  0  2  0  0  0  0  0  0  0  0  0
    9.5261  -15.7111   20.1718 N   0  0  0  0  0  0  0  0  0  0  0  0
    8.7435  -15.2838   22.3668 C   0  0  0  0  0  0  0  0  0  0  0  0
    9.9349  -15.3180   22.7541 O   0  0  0  0  0  0  0  0  0  0  0  0
    7.9937  -11.4952   26.1333 C   0  0  0  0  0  0  0  0  0  0  0  0
    7.0711  -12.7007   26.3402 C   0  0  1  0  0  0  0  0  0  0  0  0
    5.7297  -12.0690   26.7525 C   0  0  0  0  0  0  0  0  0  0  0  0
    6.8815  -13.3704   25.0164 C   0  0  0  0  0  0  0  0  0  0  0  0
    8.1188  -14.0802   24.5179 C   0  0  2  0  0  0  0  0  0  0  0  0
    7.7786  -14.6613   23.2081 N   0  0  0  0  0  0  0  0  0  0  0  0
    8.4864  -15.1281   25.4770 C   0  0  0  0  0  0  0  0  0  0  0  0
    7.6626  -15.9971   25.8481 O   0  0  0  0  0  0  0  0  0  0  0  0
   12.5346  -15.7021   26.7637 C   0  0  0  0  0  0  0  0  0  0  0  0
   11.5856  -16.8639   26.5457 C   0  0  2  0  0  0  0  0  0  0  0  0
   11.7369  -17.2993   25.1122 C   0  0  0  0  0  0  0  0  0  0  0  0
   10.2048  -16.3703   26.8723 C   0  0  2  0  0  0  0  0  0  0  0  0
    9.7903  -15.2485   26.0615 N   0  0  0  0  0  0  0  0  0  0  0  0
   10.1611  -15.9823   28.3030 C   0  0  0  0  0  0  0  0  0  0  0  0
    9.9804  -14.8116   28.7238 O   0  0  0  0  0  0  0  0  0  0  0  0
   10.3282  -16.9562   29.2781 O   0  0  0  0  0  0  0  0  0  0  0  0
  2  1  1  6
  2  3  1  0
  4  2  1  0
  4  6  1  0
  4  5  1  6
  6 13  1  0
  6  7  2  0
  9  8  1  6
  9 11  1  0
 10  9  1  0
 12 11  1  1
 13 12  1  0
 14 12  1  0
 14 20  1  0
 15 14  2  0
 17 16  1  6
 18 17  1  0
 19 17  1  0
 19 20  1  6
 19 21  1  0
 21 23  1  0
 22 21  2  0
M  END
$$$$
