VLV.pdb
     RDKit          3D

 23 22  0  0  1  0  0  0  0  0999 V2000
    9.8405  -20.5164   18.3936 C   0  0  0  0  0  0  0  0  0  0  0  0
    8.6606  -19.9618   17.6185 C   0  0  2  0  0  0  0  0  0  0  0  0
    8.2073  -21.0065   16.6232 C   0  0  0  0  0  0  0  0  0  0  0  0
    9.0263  -18.6736   16.9123 C   0  0  2  0  0  0  0  0  0  0  0  0
   10.1266  -18.8704   15.9941 N   0  0  0  0  0  0  0  0  0  0  0  0
    9.4105  -17.6123   17.8696 C   0  0  0  0  0  0  0  0  0  0  0  0
   10.6197  -17.4767   18.1695 O   0  0  0  0  0  0  0  0  0  0  0  0
    8.8713  -12.7212   20.0493 C   0  0  0  0  0  0  0  0  0  0  0  0
    7.8812  -13.7242   20.6501 C   0  0  1  0  0  0  0  0  0  0  0  0
    6.5773  -12.9175   20.7821 C   0  0  0  0  0  0  0  0  0  0  0  0
    7.6560  -14.8096   19.6460 C   0  0  0  0  0  0  0  0  0  0  0  0
    8.8334  -15.7448   19.4961 C   0  0  2  0  0  0  0  0  0  0  0  0
    8.4644  -16.7336   18.4688 N   0  0  0  0  0  0  0  0  0  0  0  0
    9.0904  -16.3982   20.7845 C   0  0  0  0  0  0  0  0  0  0  0  0
    8.2248  -17.1127   21.3430 O   0  0  0  0  0  0  0  0  0  0  0  0
   12.9871  -16.8295   22.3053 C   0  0  0  0  0  0  0  0  0  0  0  0
   11.8728  -17.7797   22.6972 C   0  0  2  0  0  0  0  0  0  0  0  0
   11.8450  -18.8807   21.6704 C   0  0  0  0  0  0  0  0  0  0  0  0
   10.6044  -16.9758   22.7383 C   0  0  2  0  0  0  0  0  0  0  0  0
   10.3260  -16.2805   21.5027 N   0  0  0  0  0  0  0  0  0  0  0  0
   10.6973  -15.9911   23.8434 C   0  0  0  0  0  0  0  0  0  0  0  0
   10.7674  -14.7453   23.6904 O   0  0  0  0  0  0  0  0  0  0  0  0
   10.7105  -16.4408   25.1567 O   0  0  0  0  0  0  0  0  0  0  0  0
  2  1  1  6
  2  3  1  0
  4  2  1  0
  4  6  1  0
  4  5  1  6
  6 13  1  0
  6  7  2  0
  9  8  1  6
  9 11  1  0
 10  9  1  0
 12 11  1  1
 13 12  1  0
 14 12  1  0
 14 20  1  0
 15 14  2  0
 17 16  1  6
 18 17  1  0
 19 17  1  0
 19 20  1  6
 19 21  1  0
 21 23  1  0
 22 21  2  0
M  END
$$$$
