VLV.pdb
     RDKit          3D

 23 22  0  0  1  0  0  0  0  0999 V2000
    6.7182  -20.4631   25.9149 C   0  0  0  0  0  0  0  0  0  0  0  0
    7.4019  -19.2445   25.3250 C   0  0  2  0  0  0  0  0  0  0  0  0
    7.0864  -18.0492   26.1964 C   0  0  0  0  0  0  0  0  0  0  0  0
    6.9528  -19.0009   23.9000 C   0  0  2  0  0  0  0  0  0  0  0  0
    7.1041  -20.1896   23.0897 N   0  0  0  0  0  0  0  0  0  0  0  0
    7.7201  -17.9083   23.2614 C   0  0  0  0  0  0  0  0  0  0  0  0
    8.9545  -18.0506   23.0987 O   0  0  0  0  0  0  0  0  0  0  0  0
    6.5326  -12.8406   19.9851 C   0  0  0  0  0  0  0  0  0  0  0  0
    7.6131  -13.6113   20.7505 C   0  0  1  0  0  0  0  0  0  0  0  0
    8.2128  -12.5575   21.6982 C   0  0  0  0  0  0  0  0  0  0  0  0
    6.9358  -14.6528   21.5832 C   0  0  0  0  0  0  0  0  0  0  0  0
    7.8986  -15.5513   22.3241 C   0  0  2  0  0  0  0  0  0  0  0  0
    7.1170  -16.6965   22.8209 N   0  0  0  0  0  0  0  0  0  0  0  0
    8.4926  -14.7999   23.4358 C   0  0  0  0  0  0  0  0  0  0  0  0
    9.6109  -14.2434   23.3292 O   0  0  0  0  0  0  0  0  0  0  0  0
    6.2303  -13.6063   26.7908 C   0  0  0  0  0  0  0  0  0  0  0  0
    7.4765  -12.8545   26.3668 C   0  0  2  0  0  0  0  0  0  0  0  0
    7.0492  -11.8121   25.3679 C   0  0  0  0  0  0  0  0  0  0  0  0
    8.4276  -13.8676   25.7958 C   0  0  2  0  0  0  0  0  0  0  0  0
    7.8612  -14.6391   24.7132 N   0  0  0  0  0  0  0  0  0  0  0  0
    8.8561  -14.7857   26.8788 C   0  0  0  0  0  0  0  0  0  0  0  0
    8.6109  -16.0181   26.9135 O   0  0  0  0  0  0  0  0  0  0  0  0
    9.5831  -14.2833   27.9494 O   0  0  0  0  0  0  0  0  0  0  0  0
  2  1  1  1
  2  3  1  0
  4  2  1  0
  4  6  1  0
  4  5  1  6
  6 13  1  0
  6  7  2  0
  9  8  1  6
  9 11  1  0
 10  9  1  0
 12 11  1  1
 13 12  1  0
 14 12  1  0
 14 20  1  0
 15 14  2  0
 17 16  1  6
 18 17  1  0
 19 17  1  0
 19 20  1  6
 19 21  1  0
 21 23  1  0
 22 21  2  0
M  END
$$$$
