VLV.pdb
     RDKit          3D

 23 22  0  0  1  0  0  0  0  0999 V2000
    7.6746  -17.5142   19.9121 C   0  0  0  0  0  0  0  0  0  0  0  0
    8.3036  -17.0064   21.1955 C   0  0  2  0  0  0  0  0  0  0  0  0
    8.0048  -17.9958   22.2998 C   0  0  0  0  0  0  0  0  0  0  0  0
    7.7820  -15.6312   21.5541 C   0  0  2  0  0  0  0  0  0  0  0  0
    8.0415  -14.6776   20.4977 N   0  0  0  0  0  0  0  0  0  0  0  0
    8.3970  -15.1177   22.7984 C   0  0  0  0  0  0  0  0  0  0  0  0
    9.6275  -14.8808   22.8122 O   0  0  0  0  0  0  0  0  0  0  0  0
    5.7134  -11.9433   26.4468 C   0  0  0  0  0  0  0  0  0  0  0  0
    6.7764  -12.5349   25.5154 C   0  0  1  0  0  0  0  0  0  0  0  0
    7.9407  -11.5326   25.6050 C   0  0  0  0  0  0  0  0  0  0  0  0
    7.2344  -13.8323   26.1017 C   0  0  0  0  0  0  0  0  0  0  0  0
    8.2847  -14.5315   25.2702 C   0  0  2  0  0  0  0  0  0  0  0  0
    7.6509  -14.8792   23.9870 N   0  0  0  0  0  0  0  0  0  0  0  0
    8.7295  -15.7368   25.9790 C   0  0  0  0  0  0  0  0  0  0  0  0
    7.9531  -16.6978   26.1918 O   0  0  0  0  0  0  0  0  0  0  0  0
   12.8546  -16.4700   26.9611 C   0  0  0  0  0  0  0  0  0  0  0  0
   11.8794  -17.5750   26.6058 C   0  0  2  0  0  0  0  0  0  0  0  0
   11.9409  -17.7597   25.1127 C   0  0  0  0  0  0  0  0  0  0  0  0
   10.5267  -17.1405   27.0938 C   0  0  2  0  0  0  0  0  0  0  0  0
   10.0610  -15.9184   26.4796 N   0  0  0  0  0  0  0  0  0  0  0  0
   10.5843  -16.9578   28.5644 C   0  0  0  0  0  0  0  0  0  0  0  0
   10.4066  -15.8646   29.1592 O   0  0  0  0  0  0  0  0  0  0  0  0
   10.8516  -18.0515   29.3765 O   0  0  0  0  0  0  0  0  0  0  0  0
  2  1  1  6
  2  3  1  0
  4  2  1  0
  4  6  1  0
  4  5  1  6
  6 13  1  0
  6  7  2  0
  9  8  1  1
  9 11  1  0
 10  9  1  0
 12 11  1  1
 13 12  1  0
 14 12  1  0
 14 20  1  0
 15 14  2  0
 17 16  1  6
 18 17  1  0
 19 17  1  0
 19 20  1  6
 19 21  1  0
 21 23  1  0
 22 21  2  0
M  END
$$$$
