KDS.pdb
     RDKit          3D

 24 23  0  0  1  0  0  0  0  0999 V2000
   18.9559   -9.8078  -17.7264 N   0  0  0  0  0  0  0  0  0  0  0  0
   18.0113   -9.6944  -16.6278 C   0  0  1  0  0  0  0  0  0  0  0  0
   18.2341  -10.9206  -15.7466 C   0  0  0  0  0  0  0  0  0  0  0  0
   17.8443  -12.1344  -16.5433 C   0  0  0  0  0  0  0  0  0  0  0  0
   17.9485  -13.3676  -15.6973 C   0  0  0  0  0  0  0  0  0  0  0  0
   16.5961  -14.0338  -15.5812 C   0  0  0  0  0  0  0  0  0  0  0  0
   16.7981  -15.3261  -14.9390 N   0  0  0  0  0  0  0  0  0  0  0  0
   18.4260   -8.5238  -15.7434 C   0  0  0  0  0  0  0  0  0  0  0  0
   17.8407   -8.2906  -14.6669 O   0  0  0  0  0  0  0  0  0  0  0  0
   19.4907   -7.6910  -16.1492 N   0  0  0  0  0  0  0  0  0  0  0  0
   19.8870   -6.4929  -15.4752 C   0  0  1  0  0  0  0  0  0  0  0  0
   21.3495   -6.4316  -15.2235 C   0  0  0  0  0  0  0  0  0  0  0  0
   21.7255   -6.2244  -13.8272 C   0  0  0  0  0  0  0  0  0  0  0  0
   22.0238   -5.0324  -13.4250 O   0  0  0  0  0  0  0  0  0  0  0  0
   19.3466   -5.2659  -16.1421 C   0  0  0  0  0  0  0  0  0  0  0  0
   19.4455   -5.0898  -17.3999 O   0  0  0  0  0  0  0  0  0  0  0  0
   21.8044   -7.1864  -12.8510 O   0  0  0  0  0  0  0  0  0  0  0  0
   16.0283   -3.5862  -15.1516 O   0  0  0  0  0  0  0  0  0  0  0  0
   16.6904   -3.1480  -16.3248 C   0  0  0  0  0  0  0  0  0  0  0  0
   18.1329   -3.0518  -15.9947 C   0  0  2  0  0  0  0  0  0  0  0  0
   18.7085   -4.2562  -15.4099 N   0  0  0  0  0  0  0  0  0  0  0  0
   18.3753   -1.8840  -15.0564 C   0  0  0  0  0  0  0  0  0  0  0  0
   18.0229   -0.5704  -15.4419 O   0  0  0  0  0  0  0  0  0  0  0  0
   18.8788   -2.0070  -13.9313 O   0  0  0  0  0  0  0  0  0  0  0  0
  2  1  1  6
  3  2  1  0
  4  3  1  0
  5  6  1  0
  5  4  1  0
  6  7  1  0
  8  2  1  0
  8  9  2  0
 10  8  1  0
 11 12  1  6
 11 10  1  0
 13 12  1  0
 13 17  1  0
 14 13  2  0
 15 11  1  0
 16 15  2  0
 19 18  1  0
 20 19  1  1
 20 21  1  0
 21 15  1  0
 22 23  1  0
 22 20  1  0
 24 22  2  0
M  END
$$$$
