KDS.pdb
     RDKit          3D

 24 23  0  0  1  0  0  0  0  0999 V2000
   25.7172  -21.6985  -16.4511 N   0  0  0  0  0  0  0  0  0  0  0  0
   25.2881  -20.8101  -15.3840 C   0  0  1  0  0  0  0  0  0  0  0  0
   25.9525  -19.4636  -15.6581 C   0  0  0  0  0  0  0  0  0  0  0  0
   27.4405  -19.6621  -15.5783 C   0  0  0  0  0  0  0  0  0  0  0  0
   27.9085  -20.5435  -16.6969 C   0  0  0  0  0  0  0  0  0  0  0  0
   29.4104  -20.7083  -16.6351 C   0  0  0  0  0  0  0  0  0  0  0  0
   29.7845  -21.6944  -17.6404 N   0  0  0  0  0  0  0  0  0  0  0  0
   23.7991  -20.5278  -15.5500 C   0  0  0  0  0  0  0  0  0  0  0  0
   23.2783  -20.4604  -16.6813 O   0  0  0  0  0  0  0  0  0  0  0  0
   22.9966  -20.3408  -14.4041 N   0  0  0  0  0  0  0  0  0  0  0  0
   21.6019  -20.0234  -14.4324 C   0  0  1  0  0  0  0  0  0  0  0  0
   20.9083  -20.3665  -13.1646 C   0  0  0  0  0  0  0  0  0  0  0  0
   19.4542  -20.2323  -13.2030 C   0  0  0  0  0  0  0  0  0  0  0  0
   18.8942  -19.7411  -14.2598 O   0  0  0  0  0  0  0  0  0  0  0  0
   21.3528  -18.6179  -14.8848 C   0  0  0  0  0  0  0  0  0  0  0  0
   22.1512  -17.6695  -14.5917 O   0  0  0  0  0  0  0  0  0  0  0  0
   18.5752  -20.5790  -12.2071 O   0  0  0  0  0  0  0  0  0  0  0  0
   21.0865  -17.2315  -18.2133 O   0  0  0  0  0  0  0  0  0  0  0  0
   21.0351  -16.4125  -17.0586 C   0  0  0  0  0  0  0  0  0  0  0  0
   19.9627  -16.9574  -16.1914 C   0  0  2  0  0  0  0  0  0  0  0  0
   20.2281  -18.2845  -15.6507 N   0  0  0  0  0  0  0  0  0  0  0  0
   18.6471  -16.9872  -16.9473 C   0  0  0  0  0  0  0  0  0  0  0  0
   18.1042  -15.7989  -17.4871 O   0  0  0  0  0  0  0  0  0  0  0  0
   17.9910  -18.0215  -17.1325 O   0  0  0  0  0  0  0  0  0  0  0  0
  2  1  1  6
  3  2  1  0
  4  3  1  0
  5  6  1  0
  5  4  1  0
  6  7  1  0
  8  2  1  0
  8  9  2  0
 10  8  1  0
 11 12  1  1
 11 10  1  0
 13 12  1  0
 13 17  1  0
 14 13  2  0
 15 11  1  0
 16 15  2  0
 19 18  1  0
 20 19  1  6
 20 21  1  0
 21 15  1  0
 22 23  1  0
 22 20  1  0
 24 22  2  0
M  END
$$$$
