KDS.pdb
     RDKit          3D

 24 23  0  0  1  0  0  0  0  0999 V2000
   21.1793  -11.2451  -16.3492 N   0  0  0  0  0  0  0  0  0  0  0  0
   20.2021  -10.2775  -16.8192 C   0  0  1  0  0  0  0  0  0  0  0  0
   18.8445  -10.9706  -16.7398 C   0  0  0  0  0  0  0  0  0  0  0  0
   18.8298  -12.0686  -17.7665 C   0  0  0  0  0  0  0  0  0  0  0  0
   17.5165  -12.7909  -17.7369 C   0  0  0  0  0  0  0  0  0  0  0  0
   17.4628  -13.8170  -18.8463 C   0  0  0  0  0  0  0  0  0  0  0  0
   16.1338  -14.4140  -18.8266 N   0  0  0  0  0  0  0  0  0  0  0  0
   20.1005   -9.1484  -15.7998 C   0  0  0  0  0  0  0  0  0  0  0  0
   19.5574   -9.3279  -14.6915 O   0  0  0  0  0  0  0  0  0  0  0  0
   20.6311   -7.8791  -16.1154 N   0  0  0  0  0  0  0  0  0  0  0  0
   20.6130   -6.7501  -15.2369 C   0  0  1  0  0  0  0  0  0  0  0  0
   21.9750   -6.2772  -14.8801 C   0  0  0  0  0  0  0  0  0  0  0  0
   22.0150   -5.2177  -13.8753 C   0  0  0  0  0  0  0  0  0  0  0  0
   23.1260   -4.5912  -13.6638 O   0  0  0  0  0  0  0  0  0  0  0  0
   19.7177   -5.6597  -15.7389 C   0  0  0  0  0  0  0  0  0  0  0  0
   19.8347   -5.1871  -16.9160 O   0  0  0  0  0  0  0  0  0  0  0  0
   20.9688   -4.7918  -13.0952 O   0  0  0  0  0  0  0  0  0  0  0  0
   15.6133   -3.3141  -15.7229 O   0  0  0  0  0  0  0  0  0  0  0  0
   16.3569   -4.4593  -15.3457 C   0  0  0  0  0  0  0  0  0  0  0  0
   17.7874   -4.0691  -15.3638 C   0  0  2  0  0  0  0  0  0  0  0  0
   18.7114   -5.1107  -14.9335 N   0  0  0  0  0  0  0  0  0  0  0  0
   18.0013   -2.8355  -14.5062 C   0  0  0  0  0  0  0  0  0  0  0  0
   17.3149   -1.6341  -14.7958 O   0  0  0  0  0  0  0  0  0  0  0  0
   18.7643   -2.8077  -13.5307 O   0  0  0  0  0  0  0  0  0  0  0  0
  2  1  1  1
  3  2  1  0
  4  3  1  0
  5  6  1  0
  5  4  1  0
  6  7  1  0
  8  2  1  0
  8  9  2  0
 10  8  1  0
 11 12  1  6
 11 10  1  0
 13 12  1  0
 13 17  1  0
 14 13  2  0
 15 11  1  0
 16 15  2  0
 19 18  1  0
 20 19  1  1
 20 21  1  0
 21 15  1  0
 22 23  1  0
 22 20  1  0
 24 22  2  0
M  END
$$$$
