KDS.pdb
     RDKit          3D

 24 23  0  0  1  0  0  0  0  0999 V2000
   15.8639  -13.7461  -14.1098 N   0  0  0  0  0  0  0  0  0  0  0  0
   15.7321  -12.7277  -15.1382 C   0  0  1  0  0  0  0  0  0  0  0  0
   14.3444  -12.1181  -14.9584 C   0  0  0  0  0  0  0  0  0  0  0  0
   13.3463  -13.2423  -14.9600 C   0  0  0  0  0  0  0  0  0  0  0  0
   12.2531  -12.9660  -15.9478 C   0  0  0  0  0  0  0  0  0  0  0  0
   11.2154  -14.0646  -15.8952 C   0  0  0  0  0  0  0  0  0  0  0  0
   10.2114  -13.7677  -16.9085 N   0  0  0  0  0  0  0  0  0  0  0  0
   16.6838  -11.5806  -14.8171 C   0  0  0  0  0  0  0  0  0  0  0  0
   16.7863  -11.1340  -13.6571 O   0  0  0  0  0  0  0  0  0  0  0  0
   17.4624  -11.0156  -15.8498 N   0  0  0  0  0  0  0  0  0  0  0  0
   18.3793   -9.9313  -15.6752 C   0  0  1  0  0  0  0  0  0  0  0  0
   19.5581  -10.0246  -16.5740 C   0  0  0  0  0  0  0  0  0  0  0  0
   20.3646  -11.2312  -16.4079 C   0  0  0  0  0  0  0  0  0  0  0  0
   20.8078  -11.5362  -15.2322 O   0  0  0  0  0  0  0  0  0  0  0  0
   17.6951   -8.6005  -15.7284 C   0  0  0  0  0  0  0  0  0  0  0  0
   17.0708   -8.2105  -16.7681 O   0  0  0  0  0  0  0  0  0  0  0  0
   20.7241  -12.1158  -17.3942 O   0  0  0  0  0  0  0  0  0  0  0  0
   16.8423   -6.4634  -12.3219 O   0  0  0  0  0  0  0  0  0  0  0  0
   16.1669   -6.1390  -13.5241 C   0  0  0  0  0  0  0  0  0  0  0  0
   17.1164   -6.3949  -14.6340 C   0  0  2  0  0  0  0  0  0  0  0  0
   17.7126   -7.7247  -14.6349 N   0  0  0  0  0  0  0  0  0  0  0  0
   18.2244   -5.3580  -14.6206 C   0  0  0  0  0  0  0  0  0  0  0  0
   17.9165   -3.9799  -14.6846 O   0  0  0  0  0  0  0  0  0  0  0  0
   19.4272   -5.6469  -14.5532 O   0  0  0  0  0  0  0  0  0  0  0  0
  2  1  1  1
  3  2  1  0
  4  3  1  0
  5  6  1  0
  5  4  1  0
  6  7  1  0
  8  2  1  0
  8  9  2  0
 10  8  1  0
 11 12  1  6
 11 10  1  0
 13 12  1  0
 13 17  1  0
 14 13  2  0
 15 11  1  0
 16 15  2  0
 19 18  1  0
 20 19  1  1
 20 21  1  0
 21 15  1  0
 22 23  1  0
 22 20  1  0
 24 22  2  0
M  END
$$$$
