KDS.pdb
     RDKit          3D

 24 23  0  0  1  0  0  0  0  0999 V2000
   17.8836  -24.5568  -12.7385 N   0  0  0  0  0  0  0  0  0  0  0  0
   19.0970  -24.8917  -12.0121 C   0  0  1  0  0  0  0  0  0  0  0  0
   18.9846  -24.2024  -10.6549 C   0  0  0  0  0  0  0  0  0  0  0  0
   17.5308  -23.9088  -10.4090 C   0  0  0  0  0  0  0  0  0  0  0  0
   17.1171  -24.4214   -9.0624 C   0  0  0  0  0  0  0  0  0  0  0  0
   15.6903  -24.0160   -8.7681 C   0  0  0  0  0  0  0  0  0  0  0  0
   15.3642  -24.4996   -7.4329 N   0  0  0  0  0  0  0  0  0  0  0  0
   19.0719  -26.3782  -11.6746 C   0  0  0  0  0  0  0  0  0  0  0  0
   18.0157  -27.0376  -11.7468 O   0  0  0  0  0  0  0  0  0  0  0  0
   20.2643  -27.0189  -11.2749 N   0  0  0  0  0  0  0  0  0  0  0  0
   20.3792  -28.4163  -10.9901 C   0  0  1  0  0  0  0  0  0  0  0  0
   21.7216  -28.9613  -11.3173 C   0  0  0  0  0  0  0  0  0  0  0  0
   22.0481  -28.9792  -12.7410 C   0  0  0  0  0  0  0  0  0  0  0  0
   21.1115  -29.2191  -13.5994 O   0  0  0  0  0  0  0  0  0  0  0  0
   19.9252  -28.7477   -9.6022 C   0  0  0  0  0  0  0  0  0  0  0  0
   20.5301  -28.2979   -8.5753 O   0  0  0  0  0  0  0  0  0  0  0  0
   23.2840  -28.7641  -13.2985 O   0  0  0  0  0  0  0  0  0  0  0  0
   16.1677  -29.3264   -8.7890 O   0  0  0  0  0  0  0  0  0  0  0  0
   17.0404  -29.2214   -7.6781 C   0  0  0  0  0  0  0  0  0  0  0  0
   18.2990  -29.9102   -8.0526 C   0  0  2  0  0  0  0  0  0  0  0  0
   18.8138  -29.5693   -9.3727 N   0  0  0  0  0  0  0  0  0  0  0  0
   18.1140  -31.4142   -7.9691 C   0  0  0  0  0  0  0  0  0  0  0  0
   17.7330  -32.0224   -6.7513 O   0  0  0  0  0  0  0  0  0  0  0  0
   18.2787  -32.1755   -8.9324 O   0  0  0  0  0  0  0  0  0  0  0  0
  2  1  1  6
  3  2  1  0
  4  3  1  0
  5  6  1  0
  5  4  1  0
  6  7  1  0
  8  2  1  0
  8  9  2  0
 10  8  1  0
 11 12  1  1
 11 10  1  0
 13 12  1  0
 13 17  1  0
 14 13  2  0
 15 11  1  0
 16 15  2  0
 19 18  1  0
 20 19  1  6
 20 21  1  0
 21 15  1  0
 22 23  1  0
 22 20  1  0
 24 22  2  0
M  END
$$$$
