KDS.pdb
     RDKit          3D

 24 23  0  0  1  0  0  0  0  0999 V2000
   15.8494  -19.2485  -15.2557 N   0  0  0  0  0  0  0  0  0  0  0  0
   15.6916  -18.5253  -14.0050 C   0  0  1  0  0  0  0  0  0  0  0  0
   17.0618  -18.5339  -13.3325 C   0  0  0  0  0  0  0  0  0  0  0  0
   18.1031  -18.5967  -14.4150 C   0  0  0  0  0  0  0  0  0  0  0  0
   19.4576  -18.8396  -13.8204 C   0  0  0  0  0  0  0  0  0  0  0  0
   20.5188  -18.7585  -14.8946 C   0  0  0  0  0  0  0  0  0  0  0  0
   21.7999  -19.0577  -14.2681 N   0  0  0  0  0  0  0  0  0  0  0  0
   15.4426  -17.0540  -14.3173 C   0  0  0  0  0  0  0  0  0  0  0  0
   15.7604  -16.5668  -15.4206 O   0  0  0  0  0  0  0  0  0  0  0  0
   14.8415  -16.2299  -13.3418 N   0  0  0  0  0  0  0  0  0  0  0  0
   14.5356  -14.8444  -13.5258 C   0  0  1  0  0  0  0  0  0  0  0  0
   13.5808  -14.3270  -12.5126 C   0  0  0  0  0  0  0  0  0  0  0  0
   12.2850  -15.0008  -12.4875 C   0  0  0  0  0  0  0  0  0  0  0  0
   11.5154  -14.9258  -13.5238 O   0  0  0  0  0  0  0  0  0  0  0  0
   15.7701  -14.0078  -13.6611 C   0  0  0  0  0  0  0  0  0  0  0  0
   16.7630  -14.1487  -12.8754 O   0  0  0  0  0  0  0  0  0  0  0  0
   11.7652  -15.7336  -11.4496 O   0  0  0  0  0  0  0  0  0  0  0  0
   19.0546  -11.7884  -16.0210 O   0  0  0  0  0  0  0  0  0  0  0  0
   17.8954  -12.6025  -16.0439 C   0  0  0  0  0  0  0  0  0  0  0  0
   17.0708  -12.2105  -14.8754 C   0  0  2  0  0  0  0  0  0  0  0  0
   15.8863  -13.0315  -14.6591 N   0  0  0  0  0  0  0  0  0  0  0  0
   16.6478  -10.7584  -15.0005 C   0  0  0  0  0  0  0  0  0  0  0  0
   17.3644   -9.7430  -14.3269 O   0  0  0  0  0  0  0  0  0  0  0  0
   15.6811  -10.3865  -15.6800 O   0  0  0  0  0  0  0  0  0  0  0  0
  2  1  1  6
  3  2  1  0
  4  3  1  0
  5  6  1  0
  5  4  1  0
  6  7  1  0
  8  2  1  0
  8  9  2  0
 10  8  1  0
 11 12  1  1
 11 10  1  0
 13 12  1  0
 13 17  1  0
 14 13  2  0
 15 11  1  0
 16 15  2  0
 19 18  1  0
 20 19  1  6
 20 21  1  0
 21 15  1  0
 22 23  1  0
 22 20  1  0
 24 22  2  0
M  END
$$$$
