TWT.pdb
     RDKit          3D

 29 30  0  0  1  0  0  0  0  0999 V2000
    6.3039  -17.6754   19.2335 C   0  0  0  0  0  0  0  0  0  0  0  0
    7.2939  -17.2925   20.3181 C   0  0  1  0  0  0  0  0  0  0  0  0
    8.5650  -17.1371   19.7687 O   0  0  0  0  0  0  0  0  0  0  0  0
    6.8998  -16.0072   21.0173 C   0  0  2  0  0  0  0  0  0  0  0  0
    6.8929  -14.9697   19.9958 N   0  0  0  0  0  0  0  0  0  0  0  0
    7.9113  -15.6367   22.0566 C   0  0  0  0  0  0  0  0  0  0  0  0
    8.7366  -14.7101   21.8115 O   0  0  0  0  0  0  0  0  0  0  0  0
    7.9906  -16.2735   23.3041 N   0  0  0  0  0  0  0  0  0  0  0  0
    9.0989  -15.9377   24.2268 C   0  0  1  0  0  0  0  0  0  0  0  0
    8.5455  -15.9495   25.6125 C   0  0  0  0  0  0  0  0  0  0  0  0
    7.5162  -14.9541   25.8809 C   0  0  0  0  0  0  0  0  0  0  0  0
    6.1512  -15.2356   25.9223 C   0  0  0  0  0  0  0  0  0  0  0  0
    5.4825  -14.0970   26.1469 N   0  0  0  0  0  0  0  0  0  0  0  0
    6.3579  -13.0861   26.2536 C   0  0  0  0  0  0  0  0  0  0  0  0
    6.1102  -11.7475   26.5024 C   0  0  0  0  0  0  0  0  0  0  0  0
    7.1995  -10.9077   26.5906 C   0  0  0  0  0  0  0  0  0  0  0  0
    8.4989  -11.3961   26.4336 C   0  0  0  0  0  0  0  0  0  0  0  0
    8.7144  -12.7278   26.1867 C   0  0  0  0  0  0  0  0  0  0  0  0
    7.6390  -13.6051   26.0904 C   0  0  0  0  0  0  0  0  0  0  0  0
   10.1947  -16.8805   24.0330 C   0  0  0  0  0  0  0  0  0  0  0  0
   10.0895  -18.1058   24.2856 O   0  0  0  0  0  0  0  0  0  0  0  0
   12.7296  -16.8544   20.9149 C   0  0  0  0  0  0  0  0  0  0  0  0
   13.4780  -17.0336   22.2095 C   0  0  1  0  0  0  0  0  0  0  0  0
   14.1309  -15.8507   22.5819 O   0  0  0  0  0  0  0  0  0  0  0  0
   12.5167  -17.4521   23.3051 C   0  0  2  0  0  0  0  0  0  0  0  0
   11.4852  -16.4686   23.5355 N   0  0  0  0  0  0  0  0  0  0  0  0
   13.2752  -17.6456   24.5865 C   0  0  0  0  0  0  0  0  0  0  0  0
   13.0175  -16.9247   25.5640 O   0  0  0  0  0  0  0  0  0  0  0  0
   14.2560  -18.6292   24.6631 O   0  0  0  0  0  0  0  0  0  0  0  0
  2  1  1  6
  2  4  1  0
  3  2  1  0
  4  5  1  6
  6  4  1  0
  6  7  2  0
  8  9  1  0
  8  6  1  0
 10 11  1  0
  9 10  1  1
 11 19  1  0
 12 13  1  0
 12 11  2  0
 13 14  1  0
 14 19  2  0
 14 15  1  0
 15 16  2  0
 16 17  1  0
 18 17  2  0
 19 18  1  0
 20  9  1  0
 21 20  2  0
 23 22  1  6
 23 25  1  0
 24 23  1  0
 25 27  1  0
 25 26  1  1
 26 20  1  0
 27 29  1  0
 28 27  2  0
M  END
$$$$
