TWT.pdb
     RDKit          3D

 29 30  0  0  1  0  0  0  0  0999 V2000
    6.0365  -17.8535   19.2145 C   0  0  0  0  0  0  0  0  0  0  0  0
    7.1284  -17.5174   20.2135 C   0  0  1  0  0  0  0  0  0  0  0  0
    8.3681  -17.5053   19.5773 O   0  0  0  0  0  0  0  0  0  0  0  0
    6.9001  -16.1716   20.8715 C   0  0  2  0  0  0  0  0  0  0  0  0
    6.9377  -15.1815   19.8047 N   0  0  0  0  0  0  0  0  0  0  0  0
    7.9985  -15.8611   21.8398 C   0  0  0  0  0  0  0  0  0  0  0  0
    8.9164  -15.0618   21.4958 O   0  0  0  0  0  0  0  0  0  0  0  0
    8.0615  -16.4190   23.1254 N   0  0  0  0  0  0  0  0  0  0  0  0
    9.1546  -16.0215   24.0417 C   0  0  1  0  0  0  0  0  0  0  0  0
    8.6119  -16.0682   25.4310 C   0  0  0  0  0  0  0  0  0  0  0  0
    7.5691  -15.0945   25.7257 C   0  0  0  0  0  0  0  0  0  0  0  0
    6.2074  -15.3934   25.7495 C   0  0  0  0  0  0  0  0  0  0  0  0
    5.5237  -14.2709   26.0073 N   0  0  0  0  0  0  0  0  0  0  0  0
    6.3863  -13.2538   26.1526 C   0  0  0  0  0  0  0  0  0  0  0  0
    6.1210  -11.9271   26.4437 C   0  0  0  0  0  0  0  0  0  0  0  0
    7.1996  -11.0778   26.5662 C   0  0  0  0  0  0  0  0  0  0  0  0
    8.5056  -11.5453   26.4012 C   0  0  0  0  0  0  0  0  0  0  0  0
    8.7386  -12.8655   26.1119 C   0  0  0  0  0  0  0  0  0  0  0  0
    7.6744  -13.7518   25.9802 C   0  0  0  0  0  0  0  0  0  0  0  0
   10.3018  -16.8990   23.8385 C   0  0  0  0  0  0  0  0  0  0  0  0
   10.2076  -18.1509   23.8358 O   0  0  0  0  0  0  0  0  0  0  0  0
   12.6251  -17.0685   20.9397 C   0  0  0  0  0  0  0  0  0  0  0  0
   13.5159  -16.9565   22.1488 C   0  0  1  0  0  0  0  0  0  0  0  0
   14.0474  -15.6650   22.2652 O   0  0  0  0  0  0  0  0  0  0  0  0
   12.7298  -17.2990   23.3996 C   0  0  2  0  0  0  0  0  0  0  0  0
   11.6341  -16.3867   23.6264 N   0  0  0  0  0  0  0  0  0  0  0  0
   13.6411  -17.2433   24.5917 C   0  0  0  0  0  0  0  0  0  0  0  0
   13.4753  -16.3586   25.4469 O   0  0  0  0  0  0  0  0  0  0  0  0
   14.6588  -18.1827   24.7238 O   0  0  0  0  0  0  0  0  0  0  0  0
  2  1  1  6
  2  4  1  0
  3  2  1  0
  4  5  1  6
  6  4  1  0
  6  7  2  0
  8  9  1  0
  8  6  1  0
 10 11  1  0
  9 10  1  1
 11 19  1  0
 12 13  1  0
 12 11  2  0
 13 14  1  0
 14 19  2  0
 14 15  1  0
 15 16  2  0
 16 17  1  0
 18 17  2  0
 19 18  1  0
 20  9  1  0
 21 20  2  0
 23 22  1  6
 23 25  1  0
 24 23  1  0
 25 27  1  0
 25 26  1  1
 26 20  1  0
 27 29  1  0
 28 27  2  0
M  END
$$$$
