TWT.pdb
     RDKit          3D

 29 30  0  0  1  0  0  0  0  0999 V2000
    6.9840  -15.2640   18.1347 C   0  0  0  0  0  0  0  0  0  0  0  0
    7.7584  -15.4423   19.4277 C   0  0  1  0  0  0  0  0  0  0  0  0
    9.1143  -15.2100   19.2061 O   0  0  0  0  0  0  0  0  0  0  0  0
    7.2702  -14.5060   20.5146 C   0  0  2  0  0  0  0  0  0  0  0  0
    7.4535  -13.1545   20.0050 N   0  0  0  0  0  0  0  0  0  0  0  0
    8.0949  -14.6566   21.7546 C   0  0  0  0  0  0  0  0  0  0  0  0
    9.0209  -13.8262   21.9842 O   0  0  0  0  0  0  0  0  0  0  0  0
    7.8894  -15.6851   22.6863 N   0  0  0  0  0  0  0  0  0  0  0  0
    8.8218  -15.8348   23.8269 C   0  0  1  0  0  0  0  0  0  0  0  0
    8.0015  -16.1261   25.0389 C   0  0  0  0  0  0  0  0  0  0  0  0
    7.1833  -15.0201   25.5182 C   0  0  0  0  0  0  0  0  0  0  0  0
    5.7926  -15.0616   25.6102 C   0  0  0  0  0  0  0  0  0  0  0  0
    5.3531  -13.8726   26.0427 N   0  0  0  0  0  0  0  0  0  0  0  0
    6.4023  -13.0593   26.2361 C   0  0  0  0  0  0  0  0  0  0  0  0
    6.4140  -11.7531   26.6931 C   0  0  0  0  0  0  0  0  0  0  0  0
    7.6412  -11.1407   26.8290 C   0  0  0  0  0  0  0  0  0  0  0  0
    8.8219  -11.8183   26.5153 C   0  0  0  0  0  0  0  0  0  0  0  0
    8.7800  -13.1124   26.0632 C   0  0  0  0  0  0  0  0  0  0  0  0
    7.5592  -13.7625   25.9130 C   0  0  0  0  0  0  0  0  0  0  0  0
    9.7967  -16.8764   23.5237 C   0  0  0  0  0  0  0  0  0  0  0  0
    9.4702  -18.0033   23.0768 O   0  0  0  0  0  0  0  0  0  0  0  0
   12.5627  -16.8780   21.0770 C   0  0  0  0  0  0  0  0  0  0  0  0
   13.2018  -17.2545   22.3877 C   0  0  1  0  0  0  0  0  0  0  0  0
   13.8929  -16.1684   22.9417 O   0  0  0  0  0  0  0  0  0  0  0  0
   12.1395  -17.7319   23.3590 C   0  0  2  0  0  0  0  0  0  0  0  0
   11.2136  -16.6841   23.7183 N   0  0  0  0  0  0  0  0  0  0  0  0
   12.7983  -18.2267   24.6143 C   0  0  0  0  0  0  0  0  0  0  0  0
   12.5861  -17.6402   25.6879 O   0  0  0  0  0  0  0  0  0  0  0  0
   13.6371  -19.3353   24.5596 O   0  0  0  0  0  0  0  0  0  0  0  0
  2  1  1  6
  2  4  1  0
  3  2  1  0
  4  5  1  6
  6  4  1  0
  6  7  2  0
  8  9  1  0
  8  6  1  0
 10 11  1  0
  9 10  1  1
 11 19  1  0
 12 13  1  0
 12 11  2  0
 13 14  1  0
 14 19  2  0
 14 15  1  0
 15 16  2  0
 16 17  1  0
 18 17  2  0
 19 18  1  0
 20  9  1  0
 21 20  2  0
 23 22  1  6
 23 25  1  0
 24 23  1  0
 25 27  1  0
 25 26  1  1
 26 20  1  0
 27 29  1  0
 28 27  2  0
M  END
$$$$
