TWT.pdb
     RDKit          3D

 29 30  0  0  1  0  0  0  0  0999 V2000
    9.6307  -18.2553   17.3822 C   0  0  0  0  0  0  0  0  0  0  0  0
    9.6826  -17.7495   18.8121 C   0  0  1  0  0  0  0  0  0  0  0  0
   10.9824  -17.8479   19.3047 O   0  0  0  0  0  0  0  0  0  0  0  0
    9.2230  -16.3096   18.9213 C   0  0  2  0  0  0  0  0  0  0  0  0
   10.1568  -15.5197   18.1315 N   0  0  0  0  0  0  0  0  0  0  0  0
    9.2902  -15.8372   20.3399 C   0  0  0  0  0  0  0  0  0  0  0  0
   10.3445  -15.2737   20.7531 O   0  0  0  0  0  0  0  0  0  0  0  0
    8.2294  -15.9898   21.2452 N   0  0  0  0  0  0  0  0  0  0  0  0
    8.3852  -15.5172   22.6398 C   0  0  1  0  0  0  0  0  0  0  0  0
    7.0305  -15.1362   23.1361 C   0  0  0  0  0  0  0  0  0  0  0  0
    6.9645  -14.7627   24.5427 C   0  0  0  0  0  0  0  0  0  0  0  0
    6.6743  -15.6554   25.5738 C   0  0  0  0  0  0  0  0  0  0  0  0
    6.6490  -14.9833   26.7321 N   0  0  0  0  0  0  0  0  0  0  0  0
    6.9115  -13.6891   26.4958 C   0  0  0  0  0  0  0  0  0  0  0  0
    7.0043  -12.6445   27.3988 C   0  0  0  0  0  0  0  0  0  0  0  0
    7.3144  -11.3990   26.8966 C   0  0  0  0  0  0  0  0  0  0  0  0
    7.5247  -11.2069   25.5290 C   0  0  0  0  0  0  0  0  0  0  0  0
    7.4251  -12.2606   24.6569 C   0  0  0  0  0  0  0  0  0  0  0  0
    7.1132  -13.5320   25.1277 C   0  0  0  0  0  0  0  0  0  0  0  0
    9.0220  -16.5591   23.4374 C   0  0  0  0  0  0  0  0  0  0  0  0
    8.6997  -17.7697   23.3557 O   0  0  0  0  0  0  0  0  0  0  0  0
   12.1829  -18.1014   23.3134 C   0  0  0  0  0  0  0  0  0  0  0  0
   12.1286  -17.5762   24.7238 C   0  0  1  0  0  0  0  0  0  0  0  0
   12.8519  -16.3820   24.8450 O   0  0  0  0  0  0  0  0  0  0  0  0
   10.6863  -17.3423   25.1299 C   0  0  2  0  0  0  0  0  0  0  0  0
   10.0729  -16.2697   24.3831 N   0  0  0  0  0  0  0  0  0  0  0  0
   10.6301  -16.9904   26.5885 C   0  0  0  0  0  0  0  0  0  0  0  0
   10.1900  -15.8817   26.9332 O   0  0  0  0  0  0  0  0  0  0  0  0
   11.0708  -17.9098   27.5351 O   0  0  0  0  0  0  0  0  0  0  0  0
  2  1  1  6
  2  4  1  0
  3  2  1  0
  4  5  1  6
  6  4  1  0
  6  7  2  0
  8  9  1  0
  8  6  1  0
 10 11  1  0
  9 10  1  1
 11 19  1  0
 12 13  1  0
 12 11  2  0
 13 14  1  0
 14 19  2  0
 14 15  1  0
 15 16  2  0
 16 17  1  0
 18 17  2  0
 19 18  1  0
 20  9  1  0
 21 20  2  0
 23 22  1  6
 23 25  1  0
 24 23  1  0
 25 27  1  0
 25 26  1  6
 26 20  1  0
 27 29  1  0
 28 27  2  0
M  END
$$$$
