TWT.pdb
     RDKit          3D

 29 30  0  0  1  0  0  0  0  0999 V2000
    6.8267  -17.6999   19.0499 C   0  0  0  0  0  0  0  0  0  0  0  0
    7.7418  -17.1830   20.1447 C   0  0  1  0  0  0  0  0  0  0  0  0
    8.8518  -16.5570   19.5809 O   0  0  0  0  0  0  0  0  0  0  0  0
    7.0352  -16.2018   21.0581 C   0  0  2  0  0  0  0  0  0  0  0  0
    6.6381  -15.0769   20.2235 N   0  0  0  0  0  0  0  0  0  0  0  0
    7.9658  -15.6968   22.1161 C   0  0  0  0  0  0  0  0  0  0  0  0
    8.5555  -14.5914   21.9423 O   0  0  0  0  0  0  0  0  0  0  0  0
    8.2197  -16.3965   23.3052 N   0  0  0  0  0  0  0  0  0  0  0  0
    9.3335  -15.9679   24.1817 C   0  0  1  0  0  0  0  0  0  0  0  0
    8.8266  -15.9780   25.5851 C   0  0  0  0  0  0  0  0  0  0  0  0
    7.7006  -15.0917   25.8473 C   0  0  0  0  0  0  0  0  0  0  0  0
    6.3656  -15.4913   25.7972 C   0  0  0  0  0  0  0  0  0  0  0  0
    5.5878  -14.4291   26.0435 N   0  0  0  0  0  0  0  0  0  0  0  0
    6.3633  -13.3545   26.2521 C   0  0  0  0  0  0  0  0  0  0  0  0
    5.9853  -12.0585   26.5567 C   0  0  0  0  0  0  0  0  0  0  0  0
    6.9898  -11.1348   26.7499 C   0  0  0  0  0  0  0  0  0  0  0  0
    8.3337  -11.5000   26.6406 C   0  0  0  0  0  0  0  0  0  0  0  0
    8.6791  -12.7919   26.3365 C   0  0  0  0  0  0  0  0  0  0  0  0
    7.6921  -13.7514   26.1340 C   0  0  0  0  0  0  0  0  0  0  0  0
   10.4801  -16.8451   23.9740 C   0  0  0  0  0  0  0  0  0  0  0  0
   10.4027  -18.0955   24.0562 O   0  0  0  0  0  0  0  0  0  0  0  0
   12.9649  -16.6349   20.9779 C   0  0  0  0  0  0  0  0  0  0  0  0
   13.7637  -16.7538   22.2491 C   0  0  1  0  0  0  0  0  0  0  0  0
   14.3304  -15.5225   22.6051 O   0  0  0  0  0  0  0  0  0  0  0  0
   12.8723  -17.2486   23.3717 C   0  0  2  0  0  0  0  0  0  0  0  0
   11.7924  -16.3342   23.6586 N   0  0  0  0  0  0  0  0  0  0  0  0
   13.6897  -17.4157   24.6202 C   0  0  0  0  0  0  0  0  0  0  0  0
   13.4068  -16.7503   25.6295 O   0  0  0  0  0  0  0  0  0  0  0  0
   14.7526  -18.3133   24.6311 O   0  0  0  0  0  0  0  0  0  0  0  0
  2  1  1  6
  2  4  1  0
  3  2  1  0
  4  5  1  6
  6  4  1  0
  6  7  2  0
  8  9  1  0
  8  6  1  0
 10 11  1  0
  9 10  1  1
 11 19  1  0
 12 13  1  0
 12 11  2  0
 13 14  1  0
 14 19  2  0
 14 15  1  0
 15 16  2  0
 16 17  1  0
 18 17  2  0
 19 18  1  0
 20  9  1  0
 21 20  2  0
 23 22  1  6
 23 25  1  0
 24 23  1  0
 25 27  1  0
 25 26  1  1
 26 20  1  0
 27 29  1  0
 28 27  2  0
M  END
$$$$
