TWT.pdb
     RDKit          3D

 29 30  0  0  1  0  0  0  0  0999 V2000
    6.7347  -16.5872   18.8688 C   0  0  0  0  0  0  0  0  0  0  0  0
    7.5965  -16.4474   20.1102 C   0  0  1  0  0  0  0  0  0  0  0  0
    8.9083  -16.1485   19.7475 O   0  0  0  0  0  0  0  0  0  0  0  0
    7.0835  -15.3643   21.0375 C   0  0  2  0  0  0  0  0  0  0  0  0
    7.1361  -14.1198   20.2836 N   0  0  0  0  0  0  0  0  0  0  0  0
    7.9711  -15.2265   22.2348 C   0  0  0  0  0  0  0  0  0  0  0  0
    8.8238  -14.2928   22.2663 O   0  0  0  0  0  0  0  0  0  0  0  0
    7.9038  -16.0915   23.3372 N   0  0  0  0  0  0  0  0  0  0  0  0
    8.8702  -15.9360   24.4482 C   0  0  1  0  0  0  0  0  0  0  0  0
    8.0926  -15.9501   25.7217 C   0  0  0  0  0  0  0  0  0  0  0  0
    7.1795  -14.8301   25.9067 C   0  0  0  0  0  0  0  0  0  0  0  0
    5.7907  -14.9378   25.8440 C   0  0  0  0  0  0  0  0  0  0  0  0
    5.2556  -13.7216   26.0125 N   0  0  0  0  0  0  0  0  0  0  0  0
    6.2407  -12.8270   26.1827 C   0  0  0  0  0  0  0  0  0  0  0  0
    6.1454  -11.4647   26.4070 C   0  0  0  0  0  0  0  0  0  0  0  0
    7.3220  -10.7670   26.5759 C   0  0  0  0  0  0  0  0  0  0  0  0
    8.5576  -11.4164   26.5209 C   0  0  0  0  0  0  0  0  0  0  0  0
    8.6218  -12.7677   26.2960 C   0  0  0  0  0  0  0  0  0  0  0  0
    7.4549  -13.5045   26.1203 C   0  0  0  0  0  0  0  0  0  0  0  0
    9.8733  -16.9920   24.3706 C   0  0  0  0  0  0  0  0  0  0  0  0
    9.5798  -18.2120   24.4088 O   0  0  0  0  0  0  0  0  0  0  0  0
   12.8595  -17.1390   21.7933 C   0  0  0  0  0  0  0  0  0  0  0  0
   13.3787  -17.4245   23.1779 C   0  0  1  0  0  0  0  0  0  0  0  0
   14.0622  -16.3171   23.6980 O   0  0  0  0  0  0  0  0  0  0  0  0
   12.2262  -17.7887   24.0938 C   0  0  2  0  0  0  0  0  0  0  0  0
   11.2823  -16.7068   24.2452 N   0  0  0  0  0  0  0  0  0  0  0  0
   12.7610  -18.1383   25.4527 C   0  0  0  0  0  0  0  0  0  0  0  0
   12.3823  -17.4924   26.4432 O   0  0  0  0  0  0  0  0  0  0  0  0
   13.6730  -19.1805   25.5855 O   0  0  0  0  0  0  0  0  0  0  0  0
  2  1  1  6
  2  4  1  0
  3  2  1  0
  4  5  1  6
  6  4  1  0
  6  7  2  0
  8  9  1  0
  8  6  1  0
 10 11  1  0
  9 10  1  1
 11 19  1  0
 12 13  1  0
 12 11  2  0
 13 14  1  0
 14 19  2  0
 14 15  1  0
 15 16  2  0
 16 17  1  0
 18 17  2  0
 19 18  1  0
 20  9  1  0
 21 20  2  0
 23 22  1  6
 23 25  1  0
 24 23  1  0
 25 27  1  0
 25 26  1  1
 26 20  1  0
 27 29  1  0
 28 27  2  0
M  END
$$$$
