STR.pdb
     RDKit          3D

 25 24  0  0  1  0  0  0  0  0999 V2000
   48.1267  -14.6133  -10.9452 O   0  0  0  0  0  0  0  0  0  0  0  0
   47.0798  -14.1056  -10.2193 C   0  0  0  0  0  0  0  0  0  0  0  0
   47.5616  -13.6919   -8.8501 C   0  0  2  0  0  0  0  0  0  0  0  0
   47.9944  -14.8655   -8.0809 N   0  0  0  0  0  0  0  0  0  0  0  0
   46.5182  -13.0198   -8.0351 C   0  0  0  0  0  0  0  0  0  0  0  0
   45.4826  -13.6450   -7.6124 O   0  0  0  0  0  0  0  0  0  0  0  0
   47.2162  -10.4944   -5.1720 C   0  0  0  0  0  0  0  0  0  0  0  0
   46.1812   -9.8803   -6.0938 C   0  0  1  0  0  0  0  0  0  0  0  0
   46.8415   -9.0153   -6.9486 O   0  0  0  0  0  0  0  0  0  0  0  0
   45.5180  -11.0227   -6.8376 C   0  0  2  0  0  0  0  0  0  0  0  0
   46.5700  -11.6462   -7.6543 N   0  0  0  0  0  0  0  0  0  0  0  0
   44.5444  -10.4289   -7.7983 C   0  0  0  0  0  0  0  0  0  0  0  0
   44.8352  -10.2107   -9.0170 O   0  0  0  0  0  0  0  0  0  0  0  0
   35.8950   -9.4488   -7.7374 N   0  0  0  0  0  0  0  0  0  0  0  0
   36.8828   -9.8406   -6.8041 C   0  0  0  0  0  0  0  0  0  0  0  0
   36.5261  -10.5016   -5.7631 N   0  0  0  0  0  0  0  0  0  0  0  0
   38.2401   -9.4999   -7.0309 N   0  0  0  0  0  0  0  0  0  0  0  0
   38.6313   -8.3127   -7.7508 C   0  0  0  0  0  0  0  0  0  0  0  0
   39.9394   -8.5173   -8.4593 C   0  0  0  0  0  0  0  0  0  0  0  0
   40.9596   -9.2529   -7.6613 C   0  0  0  0  0  0  0  0  0  0  0  0
   42.2953   -9.4254   -8.3428 C   0  0  2  0  0  0  0  0  0  0  0  0
   43.2153  -10.0634   -7.4158 N   0  0  0  0  0  0  0  0  0  0  0  0
   42.7628   -8.0381   -8.6333 C   0  0  0  0  0  0  0  0  0  0  0  0
   43.5075   -7.4007   -7.8570 O   0  0  0  0  0  0  0  0  0  0  0  0
   42.3409   -7.4550   -9.8166 O   0  0  0  0  0  0  0  0  0  0  0  0
  2  1  1  0
  2  3  1  0
  3  4  1  1
  5  6  2  0
  5  3  1  0
  8  7  1  1
  8 10  1  0
  9  8  1  0
 10 12  1  0
 10 11  1  6
 11  5  1  0
 12 13  2  0
 15 14  1  0
 16 15  2  0
 17 15  1  0
 18 19  1  0
 18 17  1  0
 20 19  1  0
 21 20  1  1
 22 12  1  0
 22 21  1  0
 23 25  1  0
 23 21  1  0
 24 23  2  0
M  END
$$$$
