STR.pdb
     RDKit          3D

 25 24  0  0  1  0  0  0  0  0999 V2000
   27.0278  -23.2211  -16.3806 O   0  0  0  0  0  0  0  0  0  0  0  0
   26.0926  -22.7825  -15.4785 C   0  0  0  0  0  0  0  0  0  0  0  0
   25.8727  -21.2994  -15.6521 C   0  0  2  0  0  0  0  0  0  0  0  0
   27.1046  -20.5584  -15.3525 N   0  0  0  0  0  0  0  0  0  0  0  0
   24.8254  -20.7488  -14.7551 C   0  0  0  0  0  0  0  0  0  0  0  0
   25.1090  -20.2530  -13.6080 O   0  0  0  0  0  0  0  0  0  0  0  0
   22.6824  -17.9343  -15.1581 C   0  0  0  0  0  0  0  0  0  0  0  0
   21.7069  -19.0774  -14.9587 C   0  0  1  0  0  0  0  0  0  0  0  0
   21.3234  -19.5248  -16.2108 O   0  0  0  0  0  0  0  0  0  0  0  0
   22.4344  -20.1470  -14.1683 C   0  0  2  0  0  0  0  0  0  0  0  0
   23.4367  -20.7200  -15.0792 N   0  0  0  0  0  0  0  0  0  0  0  0
   21.4591  -21.2387  -13.8851 C   0  0  0  0  0  0  0  0  0  0  0  0
   21.3305  -22.2521  -14.6427 O   0  0  0  0  0  0  0  0  0  0  0  0
   16.8949  -25.3544   -7.9731 N   0  0  0  0  0  0  0  0  0  0  0  0
   18.0823  -24.6270   -7.7261 C   0  0  0  0  0  0  0  0  0  0  0  0
   18.9089  -25.0672   -6.8481 N   0  0  0  0  0  0  0  0  0  0  0  0
   18.3391  -23.4330   -8.4460 N   0  0  0  0  0  0  0  0  0  0  0  0
   17.4001  -22.8811   -9.3918 C   0  0  0  0  0  0  0  0  0  0  0  0
   17.9102  -23.0119  -10.7980 C   0  0  0  0  0  0  0  0  0  0  0  0
   19.0258  -22.0836  -11.1336 C   0  0  0  0  0  0  0  0  0  0  0  0
   19.5815  -22.2369  -12.5286 C   0  0  2  0  0  0  0  0  0  0  0  0
   20.6003  -21.2221  -12.7412 N   0  0  0  0  0  0  0  0  0  0  0  0
   18.4246  -21.9793  -13.4357 C   0  0  0  0  0  0  0  0  0  0  0  0
   18.0573  -20.8260  -13.7498 O   0  0  0  0  0  0  0  0  0  0  0  0
   17.7468  -23.0783  -13.9366 O   0  0  0  0  0  0  0  0  0  0  0  0
  2  1  1  0
  2  3  1  0
  3  4  1  1
  5  6  2  0
  5  3  1  0
  8  7  1  6
  8 10  1  0
  9  8  1  0
 10 12  1  0
 10 11  1  6
 11  5  1  0
 12 13  2  0
 15 14  1  0
 16 15  2  0
 17 15  1  0
 18 19  1  0
 18 17  1  0
 20 19  1  0
 21 20  1  1
 22 12  1  0
 22 21  1  0
 23 25  1  0
 23 21  1  0
 24 23  2  0
M  END
$$$$
