STR.pdb
     RDKit          3D

 25 24  0  0  1  0  0  0  0  0999 V2000
   22.1333  -22.2472  -15.6800 O   0  0  0  0  0  0  0  0  0  0  0  0
   21.2215  -21.9858  -16.6705 C   0  0  0  0  0  0  0  0  0  0  0  0
   20.9044  -23.2568  -17.4202 C   0  0  2  0  0  0  0  0  0  0  0  0
   20.2926  -24.2445  -16.5221 N   0  0  0  0  0  0  0  0  0  0  0  0
   22.1014  -23.9105  -18.0069 C   0  0  0  0  0  0  0  0  0  0  0  0
   22.6068  -24.9747  -17.5028 O   0  0  0  0  0  0  0  0  0  0  0  0
   22.7092  -24.5530  -21.7917 C   0  0  0  0  0  0  0  0  0  0  0  0
   23.9198  -23.8404  -21.2220 C   0  0  1  0  0  0  0  0  0  0  0  0
   23.7757  -22.4902  -21.4888 O   0  0  0  0  0  0  0  0  0  0  0  0
   23.9433  -24.1290  -19.7340 C   0  0  2  0  0  0  0  0  0  0  0  0
   22.7853  -23.4266  -19.1613 N   0  0  0  0  0  0  0  0  0  0  0  0
   25.1525  -23.4666  -19.1663 C   0  0  0  0  0  0  0  0  0  0  0  0
   25.1088  -22.7519  -18.1153 O   0  0  0  0  0  0  0  0  0  0  0  0
   32.9375  -25.1811  -17.0856 N   0  0  0  0  0  0  0  0  0  0  0  0
   32.1136  -24.9864  -15.9528 C   0  0  0  0  0  0  0  0  0  0  0  0
   32.4905  -25.4625  -14.8217 N   0  0  0  0  0  0  0  0  0  0  0  0
   30.8945  -24.2747  -16.0829 N   0  0  0  0  0  0  0  0  0  0  0  0
   30.3951  -23.8194  -17.3573 C   0  0  0  0  0  0  0  0  0  0  0  0
   29.1396  -23.0132  -17.1885 C   0  0  0  0  0  0  0  0  0  0  0  0
   27.9495  -23.5808  -17.8816 C   0  0  0  0  0  0  0  0  0  0  0  0
   27.6180  -22.9358  -19.2053 C   0  0  2  0  0  0  0  0  0  0  0  0
   26.4462  -23.5891  -19.7645 N   0  0  0  0  0  0  0  0  0  0  0  0
   28.8013  -23.2062  -20.0738 C   0  0  0  0  0  0  0  0  0  0  0  0
   28.7698  -24.0197  -21.0229 O   0  0  0  0  0  0  0  0  0  0  0  0
   29.9697  -22.5159  -19.7970 O   0  0  0  0  0  0  0  0  0  0  0  0
  2  1  1  0
  2  3  1  0
  3  4  1  1
  5  6  2  0
  5  3  1  0
  8  7  1  6
  8 10  1  0
  9  8  1  0
 10 12  1  0
 10 11  1  1
 11  5  1  0
 12 13  2  0
 15 14  1  0
 16 15  2  0
 17 15  1  0
 18 19  1  0
 18 17  1  0
 20 19  1  0
 21 20  1  1
 22 12  1  0
 22 21  1  0
 23 25  1  0
 23 21  1  0
 24 23  2  0
M  END
$$$$
