KRS.pdb
     RDKit          3D

 27 26  0  0  1  0  0  0  0  0999 V2000
    9.4648  -15.7259   17.2816 N   0  0  0  0  0  0  0  0  0  0  0  0
   10.1966  -14.8639   18.1883 C   0  0  1  0  0  0  0  0  0  0  0  0
    9.2057  -13.9722   18.8843 C   0  0  0  0  0  0  0  0  0  0  0  0
    8.3022  -13.3013   17.8776 C   0  0  0  0  0  0  0  0  0  0  0  0
    6.8903  -13.1333   18.3211 C   0  0  0  0  0  0  0  0  0  0  0  0
    6.1813  -12.2944   17.2780 C   0  0  0  0  0  0  0  0  0  0  0  0
    4.7762  -12.1580   17.5543 N   0  0  0  0  0  0  0  0  0  0  0  0
   11.0204  -15.6500   19.1242 C   0  0  0  0  0  0  0  0  0  0  0  0
   10.7387  -16.8765   19.2827 O   0  0  0  0  0  0  0  0  0  0  0  0
   18.6246  -12.3406   19.2330 N   0  0  0  0  0  0  0  0  0  0  0  0
   18.1444  -13.2635   18.2631 C   0  0  0  0  0  0  0  0  0  0  0  0
   18.7161  -13.3951   17.1012 N   0  0  0  0  0  0  0  0  0  0  0  0
   17.0079  -14.1048   18.4959 N   0  0  0  0  0  0  0  0  0  0  0  0
   16.2785  -14.0645   19.7501 C   0  0  0  0  0  0  0  0  0  0  0  0
   15.1588  -15.0697   19.6575 C   0  0  0  0  0  0  0  0  0  0  0  0
   14.2356  -15.0681   20.8101 C   0  0  0  0  0  0  0  0  0  0  0  0
   12.9912  -15.8707   20.7145 C   0  0  2  0  0  0  0  0  0  0  0  0
   12.0864  -15.1000   19.8337 N   0  0  0  0  0  0  0  0  0  0  0  0
   12.2503  -16.0670   21.9752 C   0  0  0  0  0  0  0  0  0  0  0  0
   11.8143  -15.0511   22.6260 O   0  0  0  0  0  0  0  0  0  0  0  0
   18.4051  -14.1125   16.4152 O   0  0  0  0  0  0  0  0  0  0  0  0
   10.8212  -19.6293   23.1677 C   0  0  0  0  0  0  0  0  0  0  0  0
   10.2378  -18.5087   23.7481 C   0  0  1  0  0  0  0  0  0  0  0  0
   11.2800  -17.3940   23.8755 N   0  0  0  0  0  0  0  0  0  0  0  0
   11.9526  -17.3178   22.5719 C   0  0  0  0  0  0  0  0  0  0  0  0
   12.2227  -17.7258   24.9487 O   0  0  0  0  0  0  0  0  0  0  0  0
   11.8245  -17.8292   26.2703 O   0  0  0  0  0  0  0  0  0  0  0  0
  2  3  1  0
  2  1  1  6
  4  3  1  0
  5  4  1  0
  6  5  1  0
  7  6  1  0
  8  9  2  0
  8  2  1  0
 10 11  1  0
 11 12  2  0
 13 11  1  0
 13 14  1  0
 15 14  1  0
 16 15  1  0
 17 16  1  1
 17 18  1  0
 18  8  1  0
 19 20  2  0
 19 17  1  0
 22 21  1  0
 23 24  1  0
 23 22  1  6
 24 19  1  0
 25 23  1  0
 26 25  1  0
 27 25  2  0
M  END
$$$$
