KRS.pdb
     RDKit          3D

 27 26  0  0  1  0  0  0  0  0999 V2000
   10.5056  -24.3390   14.2084 N   0  0  0  0  0  0  0  0  0  0  0  0
   11.3038  -23.3304   14.8766 C   0  0  1  0  0  0  0  0  0  0  0  0
   11.2288  -22.0657   14.0666 C   0  0  0  0  0  0  0  0  0  0  0  0
   12.4381  -21.9404   13.1712 C   0  0  0  0  0  0  0  0  0  0  0  0
   12.4687  -20.7099   12.3326 C   0  0  0  0  0  0  0  0  0  0  0  0
   13.7575  -20.7318   11.5372 C   0  0  0  0  0  0  0  0  0  0  0  0
   13.8530  -19.6219   10.6272 N   0  0  0  0  0  0  0  0  0  0  0  0
   10.8711  -23.1462   16.2734 C   0  0  0  0  0  0  0  0  0  0  0  0
   10.2094  -22.1030   16.5612 O   0  0  0  0  0  0  0  0  0  0  0  0
   11.5000  -29.4864   18.2783 N   0  0  0  0  0  0  0  0  0  0  0  0
   10.3019  -29.3694   17.5209 C   0  0  0  0  0  0  0  0  0  0  0  0
   10.0756  -30.1143   16.4779 N   0  0  0  0  0  0  0  0  0  0  0  0
    9.2699  -28.4314   17.8508 N   0  0  0  0  0  0  0  0  0  0  0  0
    9.3953  -27.5331   18.9841 C   0  0  0  0  0  0  0  0  0  0  0  0
    9.5509  -26.1353   18.4413 C   0  0  0  0  0  0  0  0  0  0  0  0
   10.5024  -25.2889   19.1890 C   0  0  0  0  0  0  0  0  0  0  0  0
   10.7578  -23.9135   18.6943 C   0  0  2  0  0  0  0  0  0  0  0  0
   11.1597  -24.0671   17.2788 N   0  0  0  0  0  0  0  0  0  0  0  0
   11.8636  -23.1868   19.3470 C   0  0  0  0  0  0  0  0  0  0  0  0
   13.0633  -23.3241   18.9139 O   0  0  0  0  0  0  0  0  0  0  0  0
    9.1918  -30.0427   15.9341 O   0  0  0  0  0  0  0  0  0  0  0  0
   12.2701  -19.5437   20.0359 C   0  0  0  0  0  0  0  0  0  0  0  0
   12.4765  -20.1769   21.2564 C   0  0  2  0  0  0  0  0  0  0  0  0
   12.9078  -21.6266   21.0172 N   0  0  0  0  0  0  0  0  0  0  0  0
   11.7361  -22.3097   20.4533 C   0  0  0  0  0  0  0  0  0  0  0  0
   13.3224  -22.2299   22.2879 O   0  0  0  0  0  0  0  0  0  0  0  0
   14.5324  -21.9238   22.8862 O   0  0  0  0  0  0  0  0  0  0  0  0
  2  3  1  0
  2  1  1  6
  4  3  1  0
  5  4  1  0
  6  5  1  0
  7  6  1  0
  8  9  2  0
  8  2  1  0
 10 11  1  0
 11 12  2  0
 13 11  1  0
 13 14  1  0
 15 14  1  0
 16 15  1  0
 17 16  1  1
 17 18  1  0
 18  8  1  0
 19 20  2  0
 19 17  1  0
 22 21  1  0
 23 24  1  0
 23 22  1  6
 24 19  1  0
 25 23  1  0
 26 25  1  0
 27 25  2  0
M  END
$$$$
