KRS.pdb
     RDKit          3D

 27 26  0  0  1  0  0  0  0  0999 V2000
    7.5241  -12.9230   17.5940 N   0  0  0  0  0  0  0  0  0  0  0  0
    7.8398  -14.2360   18.1205 C   0  0  1  0  0  0  0  0  0  0  0  0
    8.8563  -14.8698   17.2113 C   0  0  0  0  0  0  0  0  0  0  0  0
    8.1818  -15.8068   16.2383 C   0  0  0  0  0  0  0  0  0  0  0  0
    7.4916  -16.9676   16.8665 C   0  0  0  0  0  0  0  0  0  0  0  0
    6.8668  -17.7836   15.7538 C   0  0  0  0  0  0  0  0  0  0  0  0
    6.0410  -18.8477   16.2587 N   0  0  0  0  0  0  0  0  0  0  0  0
    8.2913  -14.1551   19.5212 C   0  0  0  0  0  0  0  0  0  0  0  0
    9.2704  -13.3951   19.7903 O   0  0  0  0  0  0  0  0  0  0  0  0
    8.3594  -19.6243   25.3648 N   0  0  0  0  0  0  0  0  0  0  0  0
    8.0976  -18.4984   26.1934 C   0  0  0  0  0  0  0  0  0  0  0  0
    8.6439  -18.3707   27.3678 N   0  0  0  0  0  0  0  0  0  0  0  0
    7.2217  -17.4361   25.7962 N   0  0  0  0  0  0  0  0  0  0  0  0
    6.9407  -17.1674   24.3977 C   0  0  0  0  0  0  0  0  0  0  0  0
    7.1886  -15.6998   24.1577 C   0  0  0  0  0  0  0  0  0  0  0  0
    6.9685  -15.2598   22.7654 C   0  0  0  0  0  0  0  0  0  0  0  0
    8.1508  -14.8765   21.9547 C   0  0  2  0  0  0  0  0  0  0  0  0
    7.6873  -14.8759   20.5497 N   0  0  0  0  0  0  0  0  0  0  0  0
    9.2939  -15.8083   21.9981 C   0  0  0  0  0  0  0  0  0  0  0  0
    9.2539  -16.9018   21.3284 O   0  0  0  0  0  0  0  0  0  0  0  0
    8.3875  -17.5939   28.0104 O   0  0  0  0  0  0  0  0  0  0  0  0
   13.8896  -16.8170   22.3183 C   0  0  0  0  0  0  0  0  0  0  0  0
   12.8418  -15.9053   22.3804 C   0  0  2  0  0  0  0  0  0  0  0  0
   11.5459  -16.6352   22.7451 N   0  0  0  0  0  0  0  0  0  0  0  0
   10.4897  -15.6146   22.7342 C   0  0  0  0  0  0  0  0  0  0  0  0
   11.6865  -17.2499   24.0690 O   0  0  0  0  0  0  0  0  0  0  0  0
   10.9284  -16.8417   25.1528 O   0  0  0  0  0  0  0  0  0  0  0  0
  2  3  1  0
  2  1  1  6
  4  3  1  0
  5  4  1  0
  6  5  1  0
  7  6  1  0
  8  9  2  0
  8  2  1  0
 10 11  1  0
 11 12  2  0
 13 11  1  0
 13 14  1  0
 15 14  1  0
 16 15  1  0
 17 16  1  1
 17 18  1  0
 18  8  1  0
 19 20  2  0
 19 17  1  0
 22 21  1  0
 23 24  1  0
 23 22  1  6
 24 19  1  0
 25 23  1  0
 26 25  1  0
 27 25  2  0
M  END
$$$$
