KRS.pdb
     RDKit          3D

 27 26  0  0  1  0  0  0  0  0999 V2000
    9.5177  -18.5927   19.4223 N   0  0  0  0  0  0  0  0  0  0  0  0
   10.8422  -18.1988   19.8601 C   0  0  1  0  0  0  0  0  0  0  0  0
   11.4564  -17.3515   18.7802 C   0  0  0  0  0  0  0  0  0  0  0  0
   11.6931  -18.1732   17.5358 C   0  0  0  0  0  0  0  0  0  0  0  0
   12.4183  -17.4615   16.4468 C   0  0  0  0  0  0  0  0  0  0  0  0
   12.4875  -18.3971   15.2575 C   0  0  0  0  0  0  0  0  0  0  0  0
   13.1997  -17.8166   14.1507 N   0  0  0  0  0  0  0  0  0  0  0  0
   10.7923  -17.5190   21.1669 C   0  0  0  0  0  0  0  0  0  0  0  0
   11.8889  -17.1766   21.7044 O   0  0  0  0  0  0  0  0  0  0  0  0
    8.4409  -13.6085   18.2140 N   0  0  0  0  0  0  0  0  0  0  0  0
    8.2389  -12.7648   19.3411 C   0  0  0  0  0  0  0  0  0  0  0  0
    8.6409  -11.5269   19.3506 N   0  0  0  0  0  0  0  0  0  0  0  0
    7.5845  -13.2153   20.5337 N   0  0  0  0  0  0  0  0  0  0  0  0
    7.6861  -14.5925   20.9808 C   0  0  0  0  0  0  0  0  0  0  0  0
    7.8897  -14.5720   22.4744 C   0  0  0  0  0  0  0  0  0  0  0  0
    8.1147  -15.8992   23.0815 C   0  0  0  0  0  0  0  0  0  0  0  0
    9.4919  -16.4515   23.0725 C   0  0  2  0  0  0  0  0  0  0  0  0
    9.5962  -17.2420   21.8264 N   0  0  0  0  0  0  0  0  0  0  0  0
    9.8211  -17.3849   24.1667 C   0  0  0  0  0  0  0  0  0  0  0  0
    9.1640  -18.4794   24.2935 O   0  0  0  0  0  0  0  0  0  0  0  0
    8.5375  -10.9232   20.1913 O   0  0  0  0  0  0  0  0  0  0  0  0
   12.7574  -19.1186   24.8527 C   0  0  0  0  0  0  0  0  0  0  0  0
   12.5082  -18.6015   26.1190 C   0  0  2  0  0  0  0  0  0  0  0  0
   11.0430  -18.1675   26.2181 N   0  0  0  0  0  0  0  0  0  0  0  0
   10.8354  -17.1937   25.1383 C   0  0  0  0  0  0  0  0  0  0  0  0
   10.7973  -17.5710   27.5351 O   0  0  0  0  0  0  0  0  0  0  0  0
   10.3861  -16.2575   27.6815 O   0  0  0  0  0  0  0  0  0  0  0  0
  2  3  1  0
  2  1  1  6
  4  3  1  0
  5  4  1  0
  6  5  1  0
  7  6  1  0
  8  9  2  0
  8  2  1  0
 10 11  1  0
 11 12  2  0
 13 11  1  0
 13 14  1  0
 15 14  1  0
 16 15  1  0
 17 16  1  1
 17 18  1  0
 18  8  1  0
 19 20  2  0
 19 17  1  0
 22 21  1  0
 23 24  1  0
 23 22  1  6
 24 19  1  0
 25 23  1  0
 26 25  1  0
 27 25  2  0
M  END
$$$$
