KRS.pdb
     RDKit          3D

 27 26  0  0  1  0  0  0  0  0999 V2000
    8.3997  -16.5148   20.6117 N   0  0  0  0  0  0  0  0  0  0  0  0
    8.4776  -15.1668   21.1386 C   0  0  1  0  0  0  0  0  0  0  0  0
    7.7929  -14.2467   20.1660 C   0  0  0  0  0  0  0  0  0  0  0  0
    8.1372  -14.6291   18.7465 C   0  0  0  0  0  0  0  0  0  0  0  0
    7.5941  -13.7137   17.7046 C   0  0  0  0  0  0  0  0  0  0  0  0
    8.1141  -14.1893   16.3637 C   0  0  0  0  0  0  0  0  0  0  0  0
    7.6395  -13.3746   15.2773 N   0  0  0  0  0  0  0  0  0  0  0  0
    7.9128  -15.0914   22.4979 C   0  0  0  0  0  0  0  0  0  0  0  0
    7.1364  -14.1259   22.7694 O   0  0  0  0  0  0  0  0  0  0  0  0
    8.8991  -20.6402   22.9675 N   0  0  0  0  0  0  0  0  0  0  0  0
    7.5675  -20.8811   22.5298 C   0  0  0  0  0  0  0  0  0  0  0  0
    7.3152  -21.4973   21.4114 N   0  0  0  0  0  0  0  0  0  0  0  0
    6.4215  -20.4655   23.2831 N   0  0  0  0  0  0  0  0  0  0  0  0
    6.5542  -19.6647   24.4864 C   0  0  0  0  0  0  0  0  0  0  0  0
    7.0547  -18.3038   24.0741 C   0  0  0  0  0  0  0  0  0  0  0  0
    7.2334  -17.3519   25.1888 C   0  0  0  0  0  0  0  0  0  0  0  0
    7.6831  -15.9740   24.8707 C   0  0  2  0  0  0  0  0  0  0  0  0
    8.1982  -16.0328   23.4850 N   0  0  0  0  0  0  0  0  0  0  0  0
    8.7946  -15.4519   25.6884 C   0  0  0  0  0  0  0  0  0  0  0  0
    9.9956  -15.8391   25.4577 O   0  0  0  0  0  0  0  0  0  0  0  0
    6.3426  -21.6416   21.0721 O   0  0  0  0  0  0  0  0  0  0  0  0
    8.1466  -12.7982   28.5868 C   0  0  0  0  0  0  0  0  0  0  0  0
    9.4894  -12.8204   28.2272 C   0  0  1  0  0  0  0  0  0  0  0  0
    9.8278  -14.1694   27.5861 N   0  0  0  0  0  0  0  0  0  0  0  0
    8.6718  -14.5222   26.7515 C   0  0  0  0  0  0  0  0  0  0  0  0
   10.0574  -15.1665   28.6366 O   0  0  0  0  0  0  0  0  0  0  0  0
   11.1147  -15.0683   29.5244 O   0  0  0  0  0  0  0  0  0  0  0  0
  2  3  1  0
  2  1  1  6
  4  3  1  0
  5  4  1  0
  6  5  1  0
  7  6  1  0
  8  9  2  0
  8  2  1  0
 10 11  1  0
 11 12  2  0
 13 11  1  0
 13 14  1  0
 15 14  1  0
 16 15  1  0
 17 16  1  1
 17 18  1  0
 18  8  1  0
 19 20  2  0
 19 17  1  0
 22 21  1  0
 23 24  1  0
 23 22  1  6
 24 19  1  0
 25 23  1  0
 26 25  1  0
 27 25  2  0
M  END
$$$$
