KRS.pdb
     RDKit          3D

 27 26  0  0  1  0  0  0  0  0999 V2000
   11.8745  -17.9268   16.7071 N   0  0  0  0  0  0  0  0  0  0  0  0
   11.3543  -18.4131   17.9695 C   0  0  1  0  0  0  0  0  0  0  0  0
   11.9466  -19.7716   18.2245 C   0  0  0  0  0  0  0  0  0  0  0  0
   12.3867  -20.4069   16.9274 C   0  0  0  0  0  0  0  0  0  0  0  0
   13.4695  -21.4202   17.0649 C   0  0  0  0  0  0  0  0  0  0  0  0
   13.7752  -21.9521   15.6799 C   0  0  0  0  0  0  0  0  0  0  0  0
   14.9147  -22.8299   15.6746 N   0  0  0  0  0  0  0  0  0  0  0  0
   11.6174  -17.4564   19.0594 C   0  0  0  0  0  0  0  0  0  0  0  0
   12.8146  -17.0840   19.2513 O   0  0  0  0  0  0  0  0  0  0  0  0
    7.6829  -14.9734   17.4439 N   0  0  0  0  0  0  0  0  0  0  0  0
    7.5110  -13.5780   17.6579 C   0  0  0  0  0  0  0  0  0  0  0  0
    7.4406  -12.7368   16.6671 N   0  0  0  0  0  0  0  0  0  0  0  0
    7.4043  -13.0064   18.9677 N   0  0  0  0  0  0  0  0  0  0  0  0
    7.7045  -13.7790   20.1592 C   0  0  0  0  0  0  0  0  0  0  0  0
    9.1010  -14.3261   20.0067 C   0  0  0  0  0  0  0  0  0  0  0  0
    9.5240  -15.2389   21.0876 C   0  0  0  0  0  0  0  0  0  0  0  0
   10.8203  -15.9463   20.9426 C   0  0  2  0  0  0  0  0  0  0  0  0
   10.6088  -16.9517   19.8780 N   0  0  0  0  0  0  0  0  0  0  0  0
   11.2787  -16.7041   22.1226 C   0  0  0  0  0  0  0  0  0  0  0  0
   10.6920  -17.7974   22.4485 O   0  0  0  0  0  0  0  0  0  0  0  0
    7.4218  -11.7083   16.8213 O   0  0  0  0  0  0  0  0  0  0  0  0
   14.6777  -17.5899   25.4590 C   0  0  0  0  0  0  0  0  0  0  0  0
   14.1586  -16.7308   24.4970 C   0  0  2  0  0  0  0  0  0  0  0  0
   12.7565  -17.1966   24.0942 N   0  0  0  0  0  0  0  0  0  0  0  0
   12.3505  -16.3370   22.9745 C   0  0  0  0  0  0  0  0  0  0  0  0
   11.8476  -17.0572   25.2365 O   0  0  0  0  0  0  0  0  0  0  0  0
   11.9104  -17.9002   26.3325 O   0  0  0  0  0  0  0  0  0  0  0  0
  2  3  1  0
  2  1  1  6
  4  3  1  0
  5  4  1  0
  6  5  1  0
  7  6  1  0
  8  9  2  0
  8  2  1  0
 10 11  1  0
 11 12  2  0
 13 11  1  0
 13 14  1  0
 15 14  1  0
 16 15  1  0
 17 16  1  1
 17 18  1  0
 18  8  1  0
 19 20  2  0
 19 17  1  0
 22 21  1  0
 23 24  1  0
 23 22  1  6
 24 19  1  0
 25 23  1  0
 26 25  1  0
 27 25  2  0
M  END
$$$$
