KRS.pdb
     RDKit          3D

 27 26  0  0  1  0  0  0  0  0999 V2000
    8.4635  -20.8611   20.2775 N   0  0  0  0  0  0  0  0  0  0  0  0
    9.7635  -20.7762   19.6421 C   0  0  1  0  0  0  0  0  0  0  0  0
    9.5503  -20.6872   18.1562 C   0  0  0  0  0  0  0  0  0  0  0  0
    8.4206  -21.5940   17.7303 C   0  0  0  0  0  0  0  0  0  0  0  0
    8.1536  -21.6121   16.2652 C   0  0  0  0  0  0  0  0  0  0  0  0
    6.9803  -22.5400   16.0267 C   0  0  0  0  0  0  0  0  0  0  0  0
    6.6233  -22.6175   14.6354 N   0  0  0  0  0  0  0  0  0  0  0  0
   10.5479  -19.6501   20.1797 C   0  0  0  0  0  0  0  0  0  0  0  0
   11.7294  -19.4855   19.7488 O   0  0  0  0  0  0  0  0  0  0  0  0
    7.7356  -12.1375   20.9001 N   0  0  0  0  0  0  0  0  0  0  0  0
    7.3515  -13.0866   19.9128 C   0  0  0  0  0  0  0  0  0  0  0  0
    7.1988  -12.7521   18.6643 N   0  0  0  0  0  0  0  0  0  0  0  0
    7.1082  -14.4646   20.2217 N   0  0  0  0  0  0  0  0  0  0  0  0
    7.7087  -15.0997   21.3806 C   0  0  0  0  0  0  0  0  0  0  0  0
    8.8597  -15.9421   20.8922 C   0  0  0  0  0  0  0  0  0  0  0  0
    9.6396  -16.5954   21.9625 C   0  0  0  0  0  0  0  0  0  0  0  0
   10.7237  -17.5300   21.5712 C   0  0  2  0  0  0  0  0  0  0  0  0
   10.0435  -18.7690   21.1344 N   0  0  0  0  0  0  0  0  0  0  0  0
   11.6451  -17.9385   22.6486 C   0  0  0  0  0  0  0  0  0  0  0  0
   11.3114  -18.8802   23.4533 O   0  0  0  0  0  0  0  0  0  0  0  0
    6.9606  -13.4534   17.9339 O   0  0  0  0  0  0  0  0  0  0  0  0
   15.1368  -16.0192   23.3178 C   0  0  0  0  0  0  0  0  0  0  0  0
   15.1428  -17.3236   23.7988 C   0  0  1  0  0  0  0  0  0  0  0  0
   13.7063  -17.7760   24.0765 N   0  0  0  0  0  0  0  0  0  0  0  0
   12.9217  -17.3762   22.9009 C   0  0  0  0  0  0  0  0  0  0  0  0
   13.2161  -17.1269   25.2967 O   0  0  0  0  0  0  0  0  0  0  0  0
   13.7648  -17.3898   26.5399 O   0  0  0  0  0  0  0  0  0  0  0  0
  2  3  1  0
  2  1  1  1
  4  3  1  0
  5  4  1  0
  6  5  1  0
  7  6  1  0
  8  9  2  0
  8  2  1  0
 10 11  1  0
 11 12  2  0
 13 11  1  0
 13 14  1  0
 15 14  1  0
 16 15  1  0
 17 16  1  1
 17 18  1  0
 18  8  1  0
 19 20  2  0
 19 17  1  0
 22 21  1  0
 23 24  1  0
 23 22  1  6
 24 19  1  0
 25 23  1  0
 26 25  1  0
 27 25  2  0
M  END
$$$$
