KRS.pdb
     RDKit          3D

 27 26  0  0  1  0  0  0  0  0999 V2000
    7.2454  -15.8217   16.0876 N   0  0  0  0  0  0  0  0  0  0  0  0
    8.5798  -15.5064   16.5577 C   0  0  1  0  0  0  0  0  0  0  0  0
    8.5629  -14.1039   17.0998 C   0  0  0  0  0  0  0  0  0  0  0  0
    7.6404  -14.0102   18.2914 C   0  0  0  0  0  0  0  0  0  0  0  0
    7.5701  -12.6624   18.9216 C   0  0  0  0  0  0  0  0  0  0  0  0
    8.7478  -12.5385   19.8660 C   0  0  0  0  0  0  0  0  0  0  0  0
    8.7961  -11.2520   20.5079 N   0  0  0  0  0  0  0  0  0  0  0  0
    9.0473  -16.4987   17.5422 C   0  0  0  0  0  0  0  0  0  0  0  0
    8.1757  -17.1600   18.1838 O   0  0  0  0  0  0  0  0  0  0  0  0
   15.5809  -19.1514   20.1178 N   0  0  0  0  0  0  0  0  0  0  0  0
   15.5619  -20.4878   19.6316 C   0  0  0  0  0  0  0  0  0  0  0  0
   16.2472  -21.4346   20.2042 N   0  0  0  0  0  0  0  0  0  0  0  0
   14.7936  -20.8810   18.4876 N   0  0  0  0  0  0  0  0  0  0  0  0
   14.0639  -19.9095   17.6935 C   0  0  0  0  0  0  0  0  0  0  0  0
   12.8960  -19.4326   18.5188 C   0  0  0  0  0  0  0  0  0  0  0  0
   12.0485  -18.4210   17.8562 C   0  0  0  0  0  0  0  0  0  0  0  0
   10.9149  -17.8444   18.6207 C   0  0  2  0  0  0  0  0  0  0  0  0
   10.3982  -16.7340   17.7907 N   0  0  0  0  0  0  0  0  0  0  0  0
   11.2539  -17.2442   19.9251 C   0  0  0  0  0  0  0  0  0  0  0  0
   11.8863  -16.1290   19.9714 O   0  0  0  0  0  0  0  0  0  0  0  0
   16.1854  -22.4240   19.8889 O   0  0  0  0  0  0  0  0  0  0  0  0
   10.7748  -17.0698   24.7472 C   0  0  0  0  0  0  0  0  0  0  0  0
   10.4048  -17.6146   23.5228 C   0  0  1  0  0  0  0  0  0  0  0  0
   11.3648  -17.1294   22.4328 N   0  0  0  0  0  0  0  0  0  0  0  0
   10.9388  -17.7930   21.1935 C   0  0  0  0  0  0  0  0  0  0  0  0
   12.7387  -17.4937   22.7932 O   0  0  0  0  0  0  0  0  0  0  0  0
   13.5208  -16.6943   23.6088 O   0  0  0  0  0  0  0  0  0  0  0  0
  2  3  1  0
  2  1  1  1
  4  3  1  0
  5  4  1  0
  6  5  1  0
  7  6  1  0
  8  9  2  0
  8  2  1  0
 10 11  1  0
 11 12  2  0
 13 11  1  0
 13 14  1  0
 15 14  1  0
 16 15  1  0
 17 16  1  6
 17 18  1  0
 18  8  1  0
 19 20  2  0
 19 17  1  0
 22 21  1  0
 23 24  1  0
 23 22  1  6
 24 19  1  0
 25 23  1  0
 26 25  1  0
 27 25  2  0
M  END
$$$$
