TMH.pdb
     RDKit          3D

 26 26  0  0  1  0  0  0  0  0999 V2000
   27.6488  -21.5854   -9.9809 C   0  0  0  0  0  0  0  0  0  0  0  0
   27.0530  -21.1336  -11.2973 C   0  0  1  0  0  0  0  0  0  0  0  0
   26.2915  -22.1673  -11.8169 O   0  0  0  0  0  0  0  0  0  0  0  0
   26.2204  -19.9176  -11.0300 C   0  0  2  0  0  0  0  0  0  0  0  0
   25.0945  -20.3006  -10.1987 N   0  0  0  0  0  0  0  0  0  0  0  0
   25.6908  -19.2866  -12.2666 C   0  0  0  0  0  0  0  0  0  0  0  0
   24.4705  -18.9925  -12.3808 O   0  0  0  0  0  0  0  0  0  0  0  0
   29.4739  -15.9222  -16.6631 C   0  0  0  0  0  0  0  0  0  0  0  0
   28.2893  -16.8692  -17.6571 S   0  0  0  0  0  0  0  0  0  0  0  0
   26.7721  -17.2207  -16.7222 C   0  0  0  0  0  0  0  0  0  0  0  0
   27.1489  -17.9324  -15.4664 C   0  0  0  0  0  0  0  0  0  0  0  0
   25.9915  -18.3094  -14.5945 C   0  0  2  0  0  0  0  0  0  0  0  0
   26.5106  -18.9780  -13.3831 N   0  0  0  0  0  0  0  0  0  0  0  0
   24.9889  -19.1811  -15.2335 C   0  0  0  0  0  0  0  0  0  0  0  0
   25.0519  -20.4288  -14.9294 O   0  0  0  0  0  0  0  0  0  0  0  0
   23.9815  -18.8206  -16.1199 N   0  0  0  0  0  0  0  0  0  0  0  0
   22.5737  -18.9935  -15.7417 C   0  0  1  0  0  0  0  0  0  0  0  0
   22.2315  -18.2076  -14.4972 C   0  0  0  0  0  0  0  0  0  0  0  0
   20.7869  -18.3123  -14.1822 C   0  0  0  0  0  0  0  0  0  0  0  0
   19.9725  -19.2716  -14.7302 C   0  0  0  0  0  0  0  0  0  0  0  0
   18.7339  -19.0502  -14.2094 N   0  0  0  0  0  0  0  0  0  0  0  0
   18.7710  -17.9976  -13.3715 C   0  0  0  0  0  0  0  0  0  0  0  0
   20.0441  -17.5535  -13.3655 N   0  0  0  0  0  0  0  0  0  0  0  0
   21.6817  -18.5525  -16.8519 C   0  0  0  0  0  0  0  0  0  0  0  0
   20.9174  -19.3522  -17.4499 O   0  0  0  0  0  0  0  0  0  0  0  0
   21.7179  -17.2184  -17.2125 O   0  0  0  0  0  0  0  0  0  0  0  0
  2  1  1  1
  2  4  1  0
  3  2  1  0
  4  6  1  0
  4  5  1  1
  6  7  2  0
  9  8  1  0
 10  9  1  0
 11 10  1  0
 12 11  1  6
 12 14  1  0
 13  6  1  0
 13 12  1  0
 14 15  2  0
 16 17  1  0
 16 14  1  0
 17 24  1  0
 17 18  1  1
 19 20  2  0
 19 18  1  0
 21 20  1  0
 22 23  2  0
 22 21  1  0
 23 19  1  0
 24 25  2  0
 24 26  1  0
M  END
$$$$
