TMH.pdb
     RDKit          3D

 26 26  0  0  1  0  0  0  0  0999 V2000
   27.5173  -17.9377  -15.5490 C   0  0  0  0  0  0  0  0  0  0  0  0
   27.5690  -19.0672  -16.5559 C   0  0  1  0  0  0  0  0  0  0  0  0
   28.4573  -18.7237  -17.5616 O   0  0  0  0  0  0  0  0  0  0  0  0
   28.0067  -20.3045  -15.8343 C   0  0  2  0  0  0  0  0  0  0  0  0
   28.2259  -21.3565  -16.8094 N   0  0  0  0  0  0  0  0  0  0  0  0
   27.0099  -20.7892  -14.8447 C   0  0  0  0  0  0  0  0  0  0  0  0
   26.0242  -21.4910  -15.1980 O   0  0  0  0  0  0  0  0  0  0  0  0
   25.1155  -20.6881   -7.0853 C   0  0  0  0  0  0  0  0  0  0  0  0
   26.3046  -20.4755   -8.4377 S   0  0  0  0  0  0  0  0  0  0  0  0
   25.6114  -21.0306  -10.0223 C   0  0  0  0  0  0  0  0  0  0  0  0
   26.5689  -20.6663  -11.1067 C   0  0  0  0  0  0  0  0  0  0  0  0
   26.0448  -20.8735  -12.4940 C   0  0  2  0  0  0  0  0  0  0  0  0
   27.1001  -20.4991  -13.4586 N   0  0  0  0  0  0  0  0  0  0  0  0
   24.8143  -20.1267  -12.8124 C   0  0  0  0  0  0  0  0  0  0  0  0
   24.9750  -19.0239  -13.4538 O   0  0  0  0  0  0  0  0  0  0  0  0
   23.5023  -20.4692  -12.5094 N   0  0  0  0  0  0  0  0  0  0  0  0
   22.4272  -20.1758  -13.4648 C   0  0  1  0  0  0  0  0  0  0  0  0
   22.6988  -20.7965  -14.8156 C   0  0  0  0  0  0  0  0  0  0  0  0
   23.0159  -19.7578  -15.8244 C   0  0  0  0  0  0  0  0  0  0  0  0
   23.0848  -18.4209  -15.5209 C   0  0  0  0  0  0  0  0  0  0  0  0
   23.3947  -17.7900  -16.6872 N   0  0  0  0  0  0  0  0  0  0  0  0
   23.5144  -18.6927  -17.6784 C   0  0  0  0  0  0  0  0  0  0  0  0
   23.2778  -19.9016  -17.1303 N   0  0  0  0  0  0  0  0  0  0  0  0
   21.1245  -20.6877  -12.9513 C   0  0  0  0  0  0  0  0  0  0  0  0
   20.1328  -19.9334  -12.7814 O   0  0  0  0  0  0  0  0  0  0  0  0
   21.0344  -22.0365  -12.6617 O   0  0  0  0  0  0  0  0  0  0  0  0
  2  1  1  1
  2  4  1  0
  3  2  1  0
  4  6  1  0
  4  5  1  6
  6  7  2  0
  9  8  1  0
 10  9  1  0
 11 10  1  0
 12 11  1  1
 12 14  1  0
 13  6  1  0
 13 12  1  0
 14 15  2  0
 16 17  1  0
 16 14  1  0
 17 24  1  0
 17 18  1  6
 19 20  2  0
 19 18  1  0
 21 20  1  0
 22 23  2  0
 22 21  1  0
 23 19  1  0
 24 25  2  0
 24 26  1  0
M  END
$$$$
