TMH.pdb
     RDKit          3D

 26 26  0  0  1  0  0  0  0  0999 V2000
   28.2553  -17.9884  -16.0730 C   0  0  0  0  0  0  0  0  0  0  0  0
   27.1836  -18.6793  -15.2566 C   0  0  1  0  0  0  0  0  0  0  0  0
   26.0587  -18.8407  -16.0484 O   0  0  0  0  0  0  0  0  0  0  0  0
   27.7314  -19.9978  -14.8039 C   0  0  2  0  0  0  0  0  0  0  0  0
   27.9730  -20.8247  -15.9716 N   0  0  0  0  0  0  0  0  0  0  0  0
   26.8131  -20.7333  -13.8964 C   0  0  0  0  0  0  0  0  0  0  0  0
   26.1652  -21.7385  -14.2944 O   0  0  0  0  0  0  0  0  0  0  0  0
   27.1855  -20.1947   -7.5860 C   0  0  0  0  0  0  0  0  0  0  0  0
   25.4618  -20.7573   -7.6033 S   0  0  0  0  0  0  0  0  0  0  0  0
   24.9494  -21.2708   -9.2687 C   0  0  0  0  0  0  0  0  0  0  0  0
   25.8764  -20.6480  -10.2578 C   0  0  0  0  0  0  0  0  0  0  0  0
   25.5847  -20.9925  -11.6854 C   0  0  2  0  0  0  0  0  0  0  0  0
   26.6079  -20.3588  -12.5430 N   0  0  0  0  0  0  0  0  0  0  0  0
   24.2462  -20.5970  -12.1601 C   0  0  0  0  0  0  0  0  0  0  0  0
   23.9457  -19.3540  -12.0257 O   0  0  0  0  0  0  0  0  0  0  0  0
   23.2712  -21.3999  -12.7390 N   0  0  0  0  0  0  0  0  0  0  0  0
   21.9752  -20.8242  -13.1178 C   0  0  1  0  0  0  0  0  0  0  0  0
   21.5642  -21.2464  -14.5093 C   0  0  0  0  0  0  0  0  0  0  0  0
   22.3851  -20.5631  -15.5370 C   0  0  0  0  0  0  0  0  0  0  0  0
   22.4377  -19.1972  -15.6612 C   0  0  0  0  0  0  0  0  0  0  0  0
   23.2833  -18.9501  -16.6996 N   0  0  0  0  0  0  0  0  0  0  0  0
   23.7404  -20.1112  -17.2041 C   0  0  0  0  0  0  0  0  0  0  0  0
   23.1773  -21.0967  -16.4763 N   0  0  0  0  0  0  0  0  0  0  0  0
   20.9196  -21.2465  -12.1534 C   0  0  0  0  0  0  0  0  0  0  0  0
   20.5649  -22.4473  -12.0377 O   0  0  0  0  0  0  0  0  0  0  0  0
   20.3309  -20.2660  -11.3766 O   0  0  0  0  0  0  0  0  0  0  0  0
  2  1  1  6
  2  4  1  0
  3  2  1  0
  4  6  1  0
  4  5  1  6
  6  7  2  0
  9  8  1  0
 10  9  1  0
 11 10  1  0
 12 11  1  1
 12 14  1  0
 13  6  1  0
 13 12  1  0
 14 15  2  0
 16 17  1  0
 16 14  1  0
 17 24  1  0
 17 18  1  6
 19 20  2  0
 19 18  1  0
 21 20  1  0
 22 23  2  0
 22 21  1  0
 23 19  1  0
 24 25  2  0
 24 26  1  0
M  END
$$$$
