TMH.pdb
     RDKit          3D

 26 26  0  0  1  0  0  0  0  0999 V2000
   14.4155   -8.9942   -9.3134 C   0  0  0  0  0  0  0  0  0  0  0  0
   15.1771   -8.3111  -10.4295 C   0  0  1  0  0  0  0  0  0  0  0  0
   14.4416   -7.2212  -10.8651 O   0  0  0  0  0  0  0  0  0  0  0  0
   16.5093   -7.8941   -9.8866 C   0  0  2  0  0  0  0  0  0  0  0  0
   16.3032   -6.8361   -8.9151 N   0  0  0  0  0  0  0  0  0  0  0  0
   17.4364   -7.3897  -10.9325 C   0  0  0  0  0  0  0  0  0  0  0  0
   17.6887   -6.1600  -11.0461 O   0  0  0  0  0  0  0  0  0  0  0  0
   22.9458  -10.1263  -13.9321 C   0  0  0  0  0  0  0  0  0  0  0  0
   22.5073   -9.9028  -12.1868 S   0  0  0  0  0  0  0  0  0  0  0  0
   21.3106   -8.5532  -11.9723 C   0  0  0  0  0  0  0  0  0  0  0  0
   20.1899   -8.7624  -12.9345 C   0  0  0  0  0  0  0  0  0  0  0  0
   19.0866   -7.7553  -12.8319 C   0  0  2  0  0  0  0  0  0  0  0  0
   18.0888   -8.2451  -11.8579 N   0  0  0  0  0  0  0  0  0  0  0  0
   18.4070   -7.4449  -14.1028 C   0  0  0  0  0  0  0  0  0  0  0  0
   17.4953   -8.2736  -14.4707 O   0  0  0  0  0  0  0  0  0  0  0  0
   18.6265   -6.3656  -14.9497 N   0  0  0  0  0  0  0  0  0  0  0  0
   17.9238   -6.2865  -16.2360 C   0  0  1  0  0  0  0  0  0  0  0  0
   17.2906   -4.9299  -16.4415 C   0  0  0  0  0  0  0  0  0  0  0  0
   16.0451   -4.7984  -15.6487 C   0  0  0  0  0  0  0  0  0  0  0  0
   15.1427   -5.8223  -15.5036 C   0  0  0  0  0  0  0  0  0  0  0  0
   14.1440   -5.3300  -14.7196 N   0  0  0  0  0  0  0  0  0  0  0  0
   14.4094   -4.0528  -14.3882 C   0  0  0  0  0  0  0  0  0  0  0  0
   15.5853   -3.7396  -14.9689 N   0  0  0  0  0  0  0  0  0  0  0  0
   18.8676   -6.5540  -17.3587 C   0  0  0  0  0  0  0  0  0  0  0  0
   20.1065   -6.3714  -17.2452 O   0  0  0  0  0  0  0  0  0  0  0  0
   18.3352   -7.0159  -18.5481 O   0  0  0  0  0  0  0  0  0  0  0  0
  2  1  1  1
  2  4  1  0
  3  2  1  0
  4  6  1  0
  4  5  1  1
  6  7  2  0
  9  8  1  0
 10  9  1  0
 11 10  1  0
 12 11  1  6
 12 14  1  0
 13  6  1  0
 13 12  1  0
 14 15  2  0
 16 17  1  0
 16 14  1  0
 17 24  1  0
 17 18  1  6
 19 20  2  0
 19 18  1  0
 21 20  1  0
 22 23  2  0
 22 21  1  0
 23 19  1  0
 24 25  2  0
 24 26  1  0
M  END
$$$$
