TMH.pdb
     RDKit          3D

 26 26  0  0  1  0  0  0  0  0999 V2000
   29.0373  -19.3794  -16.8760 C   0  0  0  0  0  0  0  0  0  0  0  0
   27.7717  -19.6082  -16.0771 C   0  0  1  0  0  0  0  0  0  0  0  0
   26.6815  -19.4163  -16.9097 O   0  0  0  0  0  0  0  0  0  0  0  0
   27.8150  -21.0061  -15.5410 C   0  0  2  0  0  0  0  0  0  0  0  0
   27.7682  -21.9321  -16.6571 N   0  0  0  0  0  0  0  0  0  0  0  0
   26.6836  -21.3196  -14.6301 C   0  0  0  0  0  0  0  0  0  0  0  0
   25.7151  -22.0314  -15.0097 O   0  0  0  0  0  0  0  0  0  0  0  0
   26.7740  -19.5938   -8.3994 C   0  0  0  0  0  0  0  0  0  0  0  0
   25.5353  -20.9160   -8.3249 S   0  0  0  0  0  0  0  0  0  0  0  0
   24.8757  -21.2992   -9.9735 C   0  0  0  0  0  0  0  0  0  0  0  0
   25.8905  -20.8966  -10.9902 C   0  0  0  0  0  0  0  0  0  0  0  0
   25.4630  -21.1026  -12.4103 C   0  0  2  0  0  0  0  0  0  0  0  0
   26.6195  -20.8460  -13.2939 N   0  0  0  0  0  0  0  0  0  0  0  0
   24.3291  -20.2673  -12.8464 C   0  0  0  0  0  0  0  0  0  0  0  0
   24.6114  -19.3191  -13.6677 O   0  0  0  0  0  0  0  0  0  0  0  0
   22.9928  -20.3808  -12.4835 N   0  0  0  0  0  0  0  0  0  0  0  0
   21.9395  -19.9840  -13.4257 C   0  0  1  0  0  0  0  0  0  0  0  0
   22.0333  -20.7550  -14.7219 C   0  0  0  0  0  0  0  0  0  0  0  0
   22.6697  -19.9378  -15.7823 C   0  0  0  0  0  0  0  0  0  0  0  0
   23.0945  -18.6491  -15.5757 C   0  0  0  0  0  0  0  0  0  0  0  0
   23.6173  -18.2347  -16.7627 N   0  0  0  0  0  0  0  0  0  0  0  0
   23.5238  -19.2212  -17.6736 C   0  0  0  0  0  0  0  0  0  0  0  0
   22.9372  -20.2649  -17.0535 N   0  0  0  0  0  0  0  0  0  0  0  0
   20.5944  -20.2120  -12.8244 C   0  0  0  0  0  0  0  0  0  0  0  0
   19.8483  -19.2599  -12.4808 O   0  0  0  0  0  0  0  0  0  0  0  0
   20.1824  -21.5203  -12.6516 O   0  0  0  0  0  0  0  0  0  0  0  0
  2  1  1  6
  2  4  1  0
  3  2  1  0
  4  6  1  0
  4  5  1  6
  6  7  2  0
  9  8  1  0
 10  9  1  0
 11 10  1  0
 12 11  1  1
 12 14  1  0
 13  6  1  0
 13 12  1  0
 14 15  2  0
 16 17  1  0
 16 14  1  0
 17 24  1  0
 17 18  1  6
 19 20  2  0
 19 18  1  0
 21 20  1  0
 22 23  2  0
 22 21  1  0
 23 19  1  0
 24 25  2  0
 24 26  1  0
M  END
$$$$
