TMH.pdb
     RDKit          3D

 26 26  0  0  1  0  0  0  0  0999 V2000
   36.4786   -2.7467  -11.8102 C   0  0  0  0  0  0  0  0  0  0  0  0
   36.3336   -3.7231  -12.9583 C   0  0  1  0  0  0  0  0  0  0  0  0
   36.5617   -3.0475  -14.1458 O   0  0  0  0  0  0  0  0  0  0  0  0
   37.3281   -4.8238  -12.7519 C   0  0  2  0  0  0  0  0  0  0  0  0
   38.6639   -4.2645  -12.8435 N   0  0  0  0  0  0  0  0  0  0  0  0
   37.2117   -5.9143  -13.7545 C   0  0  0  0  0  0  0  0  0  0  0  0
   38.0340   -6.0216  -14.7037 O   0  0  0  0  0  0  0  0  0  0  0  0
   37.9111  -11.5284  -12.8202 C   0  0  0  0  0  0  0  0  0  0  0  0
   36.7847  -11.9181  -14.1868 S   0  0  0  0  0  0  0  0  0  0  0  0
   36.2779  -10.4172  -15.0759 C   0  0  0  0  0  0  0  0  0  0  0  0
   36.3394   -9.2670  -14.1279 C   0  0  0  0  0  0  0  0  0  0  0  0
   36.0312   -7.9373  -14.7435 C   0  0  2  0  0  0  0  0  0  0  0  0
   36.1837   -6.8915  -13.7104 N   0  0  0  0  0  0  0  0  0  0  0  0
   34.6906   -7.8264  -15.3468 C   0  0  0  0  0  0  0  0  0  0  0  0
   33.7021   -7.8185  -14.5245 O   0  0  0  0  0  0  0  0  0  0  0  0
   34.3633   -7.7248  -16.6933 N   0  0  0  0  0  0  0  0  0  0  0  0
   32.9552   -7.6842  -17.1059 C   0  0  1  0  0  0  0  0  0  0  0  0
   32.1746   -8.8456  -16.5355 C   0  0  0  0  0  0  0  0  0  0  0  0
   32.5729  -10.1209  -17.1774 C   0  0  0  0  0  0  0  0  0  0  0  0
   33.6315  -10.2193  -18.0455 C   0  0  0  0  0  0  0  0  0  0  0  0
   33.6847  -11.5272  -18.4209 N   0  0  0  0  0  0  0  0  0  0  0  0
   32.7017  -12.2181  -17.8142 C   0  0  0  0  0  0  0  0  0  0  0  0
   32.0248  -11.3367  -17.0507 N   0  0  0  0  0  0  0  0  0  0  0  0
   32.3217   -6.4106  -16.6595 C   0  0  0  0  0  0  0  0  0  0  0  0
   32.4961   -5.9496  -15.5027 O   0  0  0  0  0  0  0  0  0  0  0  0
   31.5235   -5.7388  -17.5666 O   0  0  0  0  0  0  0  0  0  0  0  0
  2  1  1  1
  2  4  1  0
  3  2  1  0
  4  6  1  0
  4  5  1  6
  6  7  2  0
  9  8  1  0
 10  9  1  0
 11 10  1  0
 12 11  1  1
 12 14  1  0
 13  6  1  0
 13 12  1  0
 14 15  2  0
 16 17  1  0
 16 14  1  0
 17 24  1  0
 17 18  1  1
 19 20  2  0
 19 18  1  0
 21 20  1  0
 22 23  2  0
 22 21  1  0
 23 19  1  0
 24 25  2  0
 24 26  1  0
M  END
$$$$
