CFK.pdb
     RDKit          3D

 27 27  0  0  1  0  0  0  0  0999 V2000
    9.8782  -16.3133   19.7252 N   0  0  0  0  0  0  0  0  0  0  0  0
    9.3481  -16.9869   20.8807 C   0  0  1  0  0  0  0  0  0  0  0  0
    9.2943  -18.4877   20.7206 C   0  0  0  0  0  0  0  0  0  0  0  0
    7.7920  -18.8612   19.7529 S   0  0  0  0  0  0  0  0  0  0  0  0
   10.0497  -16.5593   22.0995 C   0  0  0  0  0  0  0  0  0  0  0  0
   11.2904  -16.3146   22.1240 O   0  0  0  0  0  0  0  0  0  0  0  0
    9.3316  -16.4092   23.3000 N   0  0  0  0  0  0  0  0  0  0  0  0
    9.9289  -16.0720   24.5813 C   0  0  1  0  0  0  0  0  0  0  0  0
    8.8758  -15.5410   25.5300 C   0  0  0  0  0  0  0  0  0  0  0  0
    9.4032  -15.2064   26.8624 C   0  0  0  0  0  0  0  0  0  0  0  0
    9.9528  -13.9535   27.0905 C   0  0  0  0  0  0  0  0  0  0  0  0
   10.4614  -13.5833   28.3112 C   0  0  0  0  0  0  0  0  0  0  0  0
   10.4432  -14.4602   29.3722 C   0  0  0  0  0  0  0  0  0  0  0  0
    9.9000  -15.7105   29.1618 C   0  0  0  0  0  0  0  0  0  0  0  0
    9.3821  -16.0861   27.9168 C   0  0  0  0  0  0  0  0  0  0  0  0
   10.6793  -17.1698   25.1785 C   0  0  0  0  0  0  0  0  0  0  0  0
   10.0481  -18.2325   25.5001 O   0  0  0  0  0  0  0  0  0  0  0  0
   12.0670  -17.1694   25.4375 N   0  0  0  0  0  0  0  0  0  0  0  0
   12.7768  -18.3134   25.9779 C   0  0  1  0  0  0  0  0  0  0  0  0
   14.2860  -18.0447   25.9809 C   0  0  0  0  0  0  0  0  0  0  0  0
   15.0285  -19.2018   26.5863 C   0  0  0  0  0  0  0  0  0  0  0  0
   15.9559  -19.8182   25.5840 C   0  0  0  0  0  0  0  0  0  0  0  0
   16.6778  -20.9800   26.1666 C   0  0  0  0  0  0  0  0  0  0  0  0
   17.5110  -21.5950   25.1372 N   0  0  0  0  0  0  0  0  0  0  0  0
   12.3919  -18.4829   27.3964 C   0  0  0  0  0  0  0  0  0  0  0  0
   12.2353  -19.7805   27.9247 O   0  0  0  0  0  0  0  0  0  0  0  0
   12.1907  -17.5217   28.1793 O   0  0  0  0  0  0  0  0  0  0  0  0
  2  1  1  6
  2  3  1  0
  3  4  1  0
  5  6  2  0
  5  2  1  0
  7  5  1  0
  8  7  1  0
  8  9  1  1
 10  9  1  0
 11 10  2  0
 12 11  1  0
 13 12  2  0
 13 14  1  0
 14 15  2  0
 15 10  1  0
 16  8  1  0
 16 18  1  0
 17 16  2  0
 19 18  1  0
 19 25  1  0
 19 20  1  1
 21 20  1  0
 22 21  1  0
 23 24  1  0
 23 22  1  0
 25 26  1  0
 27 25  2  0
M  END
$$$$
