CFK.pdb
     RDKit          3D

 27 27  0  0  1  0  0  0  0  0999 V2000
   10.0010  -17.0777   19.2329 N   0  0  0  0  0  0  0  0  0  0  0  0
    8.7828  -16.8904   19.9751 C   0  0  1  0  0  0  0  0  0  0  0  0
    7.9643  -18.1533   20.1016 C   0  0  0  0  0  0  0  0  0  0  0  0
    8.9760  -19.3453   21.0440 S   0  0  0  0  0  0  0  0  0  0  0  0
    9.0551  -16.2449   21.2673 C   0  0  0  0  0  0  0  0  0  0  0  0
   10.2088  -16.2100   21.7845 O   0  0  0  0  0  0  0  0  0  0  0  0
    8.0041  -15.6342   21.9757 N   0  0  0  0  0  0  0  0  0  0  0  0
    8.1525  -14.9680   23.2588 C   0  0  1  0  0  0  0  0  0  0  0  0
    6.9989  -14.0170   23.4952 C   0  0  0  0  0  0  0  0  0  0  0  0
    7.0958  -13.2837   24.7674 C   0  0  0  0  0  0  0  0  0  0  0  0
    6.2451  -13.6061   25.8143 C   0  0  0  0  0  0  0  0  0  0  0  0
    6.2869  -12.9575   27.0240 C   0  0  0  0  0  0  0  0  0  0  0  0
    7.1927  -11.9445   27.2441 C   0  0  0  0  0  0  0  0  0  0  0  0
    8.0460  -11.6116   26.2129 C   0  0  0  0  0  0  0  0  0  0  0  0
    8.0018  -12.2739   24.9805 C   0  0  0  0  0  0  0  0  0  0  0  0
    8.3202  -15.8901   24.3753 C   0  0  0  0  0  0  0  0  0  0  0  0
    7.4119  -16.7636   24.5830 O   0  0  0  0  0  0  0  0  0  0  0  0
    9.4161  -15.9102   25.2650 N   0  0  0  0  0  0  0  0  0  0  0  0
    9.5987  -16.9294   26.2810 C   0  0  1  0  0  0  0  0  0  0  0  0
   10.8667  -17.7410   25.9925 C   0  0  0  0  0  0  0  0  0  0  0  0
   10.6117  -18.7568   24.9156 C   0  0  0  0  0  0  0  0  0  0  0  0
   11.8594  -19.5273   24.6087 C   0  0  0  0  0  0  0  0  0  0  0  0
   11.6530  -20.4424   23.4552 C   0  0  0  0  0  0  0  0  0  0  0  0
   12.8992  -21.1487   23.1717 N   0  0  0  0  0  0  0  0  0  0  0  0
    9.8294  -16.2649   27.5826 C   0  0  0  0  0  0  0  0  0  0  0  0
    9.7180  -17.0102   28.7740 O   0  0  0  0  0  0  0  0  0  0  0  0
   10.1253  -15.0497   27.6972 O   0  0  0  0  0  0  0  0  0  0  0  0
  2  1  1  1
  2  3  1  0
  3  4  1  0
  5  6  2  0
  5  2  1  0
  7  5  1  0
  8  7  1  0
  8  9  1  1
 10  9  1  0
 11 10  2  0
 12 11  1  0
 13 12  2  0
 13 14  1  0
 14 15  2  0
 15 10  1  0
 16  8  1  0
 16 18  1  0
 17 16  2  0
 19 18  1  0
 19 25  1  0
 19 20  1  6
 21 20  1  0
 22 21  1  0
 23 24  1  0
 23 22  1  0
 25 26  1  0
 27 25  2  0
M  END
$$$$
