CFK.pdb
     RDKit          3D

 27 27  0  0  1  0  0  0  0  0999 V2000
   10.5032  -16.4263   19.2530 N   0  0  0  0  0  0  0  0  0  0  0  0
    9.2341  -16.3820   19.9295 C   0  0  1  0  0  0  0  0  0  0  0  0
    8.4905  -17.6957   19.8835 C   0  0  0  0  0  0  0  0  0  0  0  0
    9.4964  -18.9038   20.8116 S   0  0  0  0  0  0  0  0  0  0  0  0
    9.3892  -15.8515   21.2914 C   0  0  0  0  0  0  0  0  0  0  0  0
   10.4885  -15.8820   21.9161 O   0  0  0  0  0  0  0  0  0  0  0  0
    8.2823  -15.2815   21.9469 N   0  0  0  0  0  0  0  0  0  0  0  0
    8.3071  -14.7560   23.3016 C   0  0  1  0  0  0  0  0  0  0  0  0
    7.0580  -13.9463   23.5756 C   0  0  0  0  0  0  0  0  0  0  0  0
    7.0354  -13.3403   24.9164 C   0  0  0  0  0  0  0  0  0  0  0  0
    7.8527  -12.2550   25.1952 C   0  0  0  0  0  0  0  0  0  0  0  0
    7.8765  -11.6478   26.4267 C   0  0  0  0  0  0  0  0  0  0  0  0
    7.0739  -12.1042   27.4478 C   0  0  0  0  0  0  0  0  0  0  0  0
    6.2550  -13.1829   27.1867 C   0  0  0  0  0  0  0  0  0  0  0  0
    6.2322  -13.8006   25.9308 C   0  0  0  0  0  0  0  0  0  0  0  0
    8.5112  -15.7810   24.3178 C   0  0  0  0  0  0  0  0  0  0  0  0
    7.6949  -16.7622   24.3631 O   0  0  0  0  0  0  0  0  0  0  0  0
    9.5494  -15.7924   25.2744 N   0  0  0  0  0  0  0  0  0  0  0  0
    9.7657  -16.8864   26.2021 C   0  0  1  0  0  0  0  0  0  0  0  0
   11.0941  -17.5861   25.8925 C   0  0  0  0  0  0  0  0  0  0  0  0
   10.9973  -18.3621   24.6098 C   0  0  0  0  0  0  0  0  0  0  0  0
   12.3135  -18.9935   24.2728 C   0  0  0  0  0  0  0  0  0  0  0  0
   12.2509  -19.6946   22.9632 C   0  0  0  0  0  0  0  0  0  0  0  0
   13.5583  -20.2711   22.6624 N   0  0  0  0  0  0  0  0  0  0  0  0
    9.9082  -16.3301   27.5657 C   0  0  0  0  0  0  0  0  0  0  0  0
    9.8833  -14.9332   27.7535 O   0  0  0  0  0  0  0  0  0  0  0  0
   10.0533  -17.0397   28.5917 O   0  0  0  0  0  0  0  0  0  0  0  0
  2  1  1  1
  2  3  1  0
  3  4  1  0
  5  6  2  0
  5  2  1  0
  7  5  1  0
  8  7  1  0
  8  9  1  1
 10  9  1  0
 11 10  2  0
 12 11  1  0
 13 12  2  0
 13 14  1  0
 14 15  2  0
 15 10  1  0
 16  8  1  0
 16 18  1  0
 17 16  2  0
 19 18  1  0
 19 25  1  0
 19 20  1  6
 21 20  1  0
 22 21  1  0
 23 24  1  0
 23 22  1  0
 25 26  1  0
 27 25  2  0
M  END
$$$$
