CFK.pdb
     RDKit          3D

 27 27  0  0  1  0  0  0  0  0999 V2000
    9.5608  -16.6251   18.7083 N   0  0  0  0  0  0  0  0  0  0  0  0
    8.4407  -16.5821   19.6103 C   0  0  1  0  0  0  0  0  0  0  0  0
    7.7585  -17.9195   19.7742 C   0  0  0  0  0  0  0  0  0  0  0  0
    8.9416  -19.0133   20.6325 S   0  0  0  0  0  0  0  0  0  0  0  0
    8.8259  -15.9679   20.8889 C   0  0  0  0  0  0  0  0  0  0  0  0
   10.0220  -15.9350   21.2988 O   0  0  0  0  0  0  0  0  0  0  0  0
    7.8400  -15.3863   21.7070 N   0  0  0  0  0  0  0  0  0  0  0  0
    8.0923  -14.8023   23.0137 C   0  0  1  0  0  0  0  0  0  0  0  0
    6.9302  -13.9279   23.4332 C   0  0  0  0  0  0  0  0  0  0  0  0
    7.1237  -13.2856   24.7430 C   0  0  0  0  0  0  0  0  0  0  0  0
    6.3455  -13.6757   25.8227 C   0  0  0  0  0  0  0  0  0  0  0  0
    6.4789  -13.1132   27.0684 C   0  0  0  0  0  0  0  0  0  0  0  0
    7.4081  -12.1228   27.2933 C   0  0  0  0  0  0  0  0  0  0  0  0
    8.1902  -11.7233   26.2297 C   0  0  0  0  0  0  0  0  0  0  0  0
    8.0527  -12.2979   24.9607 C   0  0  0  0  0  0  0  0  0  0  0  0
    8.4137  -15.7888   24.0377 C   0  0  0  0  0  0  0  0  0  0  0  0
    7.5518  -16.6938   24.3008 O   0  0  0  0  0  0  0  0  0  0  0  0
    9.6139  -15.8401   24.7791 N   0  0  0  0  0  0  0  0  0  0  0  0
    9.9234  -16.8986   25.7216 C   0  0  1  0  0  0  0  0  0  0  0  0
   11.3242  -17.4572   25.4465 C   0  0  0  0  0  0  0  0  0  0  0  0
   11.4259  -17.9597   24.0344 C   0  0  0  0  0  0  0  0  0  0  0  0
   12.7828  -18.5398   23.7756 C   0  0  0  0  0  0  0  0  0  0  0  0
   12.8792  -19.0796   22.3936 C   0  0  0  0  0  0  0  0  0  0  0  0
   14.2698  -19.4187   22.1048 N   0  0  0  0  0  0  0  0  0  0  0  0
    9.9770  -16.3206   27.0824 C   0  0  0  0  0  0  0  0  0  0  0  0
   10.0699  -17.1763   28.1989 O   0  0  0  0  0  0  0  0  0  0  0  0
    9.9443  -15.0864   27.3126 O   0  0  0  0  0  0  0  0  0  0  0  0
  2  1  1  6
  2  3  1  0
  3  4  1  0
  5  6  2  0
  5  2  1  0
  7  5  1  0
  8  7  1  0
  8  9  1  1
 10  9  1  0
 11 10  2  0
 12 11  1  0
 13 12  2  0
 13 14  1  0
 14 15  2  0
 15 10  1  0
 16  8  1  0
 16 18  1  0
 17 16  2  0
 19 18  1  0
 19 25  1  0
 19 20  1  6
 21 20  1  0
 22 21  1  0
 23 24  1  0
 23 22  1  0
 25 26  1  0
 27 25  2  0
M  END
$$$$
