CFK.pdb
     RDKit          3D

 27 27  0  0  1  0  0  0  0  0999 V2000
   10.0277  -16.5649   19.1360 N   0  0  0  0  0  0  0  0  0  0  0  0
    8.8625  -16.6275   19.9777 C   0  0  1  0  0  0  0  0  0  0  0  0
    8.2688  -18.0132   20.0678 C   0  0  0  0  0  0  0  0  0  0  0  0
    7.2602  -18.2536   18.5653 S   0  0  0  0  0  0  0  0  0  0  0  0
    9.1374  -16.0285   21.2915 C   0  0  0  0  0  0  0  0  0  0  0  0
   10.2139  -16.2312   21.9237 O   0  0  0  0  0  0  0  0  0  0  0  0
    8.1775  -15.1917   21.8897 N   0  0  0  0  0  0  0  0  0  0  0  0
    8.2493  -14.6995   23.2553 C   0  0  1  0  0  0  0  0  0  0  0  0
    7.0921  -13.7665   23.5405 C   0  0  0  0  0  0  0  0  0  0  0  0
    7.0819  -13.2503   24.9185 C   0  0  0  0  0  0  0  0  0  0  0  0
    8.1193  -12.4417   25.3585 C   0  0  0  0  0  0  0  0  0  0  0  0
    8.1659  -11.9310   26.6324 C   0  0  0  0  0  0  0  0  0  0  0  0
    7.1647  -12.2095   27.5352 C   0  0  0  0  0  0  0  0  0  0  0  0
    6.1255  -13.0123   27.1133 C   0  0  0  0  0  0  0  0  0  0  0  0
    6.0798  -13.5320   25.8143 C   0  0  0  0  0  0  0  0  0  0  0  0
    8.3357  -15.7608   24.2507 C   0  0  0  0  0  0  0  0  0  0  0  0
    7.3625  -16.5820   24.3489 O   0  0  0  0  0  0  0  0  0  0  0  0
    9.4177  -15.9721   25.1326 N   0  0  0  0  0  0  0  0  0  0  0  0
    9.5105  -17.1159   26.0200 C   0  0  1  0  0  0  0  0  0  0  0  0
   10.5747  -18.0943   25.5102 C   0  0  0  0  0  0  0  0  0  0  0  0
   10.6592  -19.2981   26.4049 C   0  0  0  0  0  0  0  0  0  0  0  0
   11.7399  -20.2268   25.9419 C   0  0  0  0  0  0  0  0  0  0  0  0
   11.8254  -21.4263   26.8161 C   0  0  0  0  0  0  0  0  0  0  0  0
   12.8582  -22.3227   26.3044 N   0  0  0  0  0  0  0  0  0  0  0  0
    9.9854  -16.6523   27.3423 C   0  0  0  0  0  0  0  0  0  0  0  0
    9.7644  -17.4533   28.4812 O   0  0  0  0  0  0  0  0  0  0  0  0
   10.5875  -15.5645   27.5199 O   0  0  0  0  0  0  0  0  0  0  0  0
  2  1  1  6
  2  3  1  0
  3  4  1  0
  5  6  2  0
  5  2  1  0
  7  5  1  0
  8  7  1  0
  8  9  1  1
 10  9  1  0
 11 10  2  0
 12 11  1  0
 13 12  2  0
 13 14  1  0
 14 15  2  0
 15 10  1  0
 16  8  1  0
 16 18  1  0
 17 16  2  0
 19 18  1  0
 19 25  1  0
 19 20  1  6
 21 20  1  0
 22 21  1  0
 23 24  1  0
 23 22  1  0
 25 26  1  0
 27 25  2  0
M  END
$$$$
