CFK.pdb
     RDKit          3D

 27 27  0  0  1  0  0  0  0  0999 V2000
    9.9089  -16.5847   19.0829 N   0  0  0  0  0  0  0  0  0  0  0  0
    8.9504  -16.9036   20.1073 C   0  0  1  0  0  0  0  0  0  0  0  0
    8.7875  -18.3890   20.3265 C   0  0  0  0  0  0  0  0  0  0  0  0
    7.7449  -19.0119   18.9635 S   0  0  0  0  0  0  0  0  0  0  0  0
    9.2449  -16.1646   21.3433 C   0  0  0  0  0  0  0  0  0  0  0  0
   10.4021  -16.1160   21.8516 O   0  0  0  0  0  0  0  0  0  0  0  0
    8.2124  -15.4754   22.0054 N   0  0  0  0  0  0  0  0  0  0  0  0
    8.3509  -14.8274   23.2988 C   0  0  1  0  0  0  0  0  0  0  0  0
    7.2051  -13.8663   23.5319 C   0  0  0  0  0  0  0  0  0  0  0  0
    7.2346  -13.2308   24.8588 C   0  0  0  0  0  0  0  0  0  0  0  0
    6.2993  -13.5931   25.8167 C   0  0  0  0  0  0  0  0  0  0  0  0
    6.2756  -13.0353   27.0714 C   0  0  0  0  0  0  0  0  0  0  0  0
    7.1977  -12.0779   27.4292 C   0  0  0  0  0  0  0  0  0  0  0  0
    8.1349  -11.7063   26.4879 C   0  0  0  0  0  0  0  0  0  0  0  0
    8.1574  -12.2760   25.2095 C   0  0  0  0  0  0  0  0  0  0  0  0
    8.4930  -15.7655   24.4054 C   0  0  0  0  0  0  0  0  0  0  0  0
    7.6533  -16.7230   24.5014 O   0  0  0  0  0  0  0  0  0  0  0  0
    9.4939  -15.7154   25.3997 N   0  0  0  0  0  0  0  0  0  0  0  0
    9.7625  -16.8081   26.3154 C   0  0  1  0  0  0  0  0  0  0  0  0
   10.9216  -17.6632   25.7911 C   0  0  0  0  0  0  0  0  0  0  0  0
   11.1311  -18.8654   26.6671 C   0  0  0  0  0  0  0  0  0  0  0  0
   12.2137  -19.7411   26.1139 C   0  0  0  0  0  0  0  0  0  0  0  0
   12.4220  -20.9393   26.9691 C   0  0  0  0  0  0  0  0  0  0  0  0
   13.3406  -21.8555   26.2992 N   0  0  0  0  0  0  0  0  0  0  0  0
   10.2240  -16.2444   27.6032 C   0  0  0  0  0  0  0  0  0  0  0  0
   10.0655  -16.9929   28.7872 O   0  0  0  0  0  0  0  0  0  0  0  0
   10.7611  -15.1144   27.7120 O   0  0  0  0  0  0  0  0  0  0  0  0
  2  1  1  6
  2  3  1  0
  3  4  1  0
  5  6  2  0
  5  2  1  0
  7  5  1  0
  8  7  1  0
  8  9  1  1
 10  9  1  0
 11 10  2  0
 12 11  1  0
 13 12  2  0
 13 14  1  0
 14 15  2  0
 15 10  1  0
 16  8  1  0
 16 18  1  0
 17 16  2  0
 19 18  1  0
 19 25  1  0
 19 20  1  6
 21 20  1  0
 22 21  1  0
 23 24  1  0
 23 22  1  0
 25 26  1  0
 27 25  2  0
M  END
$$$$
