APE.pdb
     RDKit          3D

 22 22  0  0  1  0  0  0  0  0999 V2000
   27.4607  -19.0769  -15.6167 C   0  0  0  0  0  0  0  0  0  0  0  0
   27.6776  -20.4931  -15.1307 C   0  0  2  0  0  0  0  0  0  0  0  0
   28.0844  -21.3124  -16.2244 N   0  0  0  0  0  0  0  0  0  0  0  0
   26.4581  -20.9496  -14.4309 C   0  0  0  0  0  0  0  0  0  0  0  0
   25.5393  -21.3934  -15.1991 O   0  0  0  0  0  0  0  0  0  0  0  0
   26.2471  -20.9310  -13.0472 N   0  0  0  0  0  0  0  0  0  0  0  0
   27.2495  -20.5565  -12.0748 C   0  0  0  0  0  0  0  0  0  0  0  0
   26.7250  -20.8282  -10.7072 C   0  0  0  0  0  0  0  0  0  0  0  0
   25.2507  -21.0224  -10.9025 C   0  0  0  0  0  0  0  0  0  0  0  0
   25.0374  -21.2656  -12.3634 C   0  0  1  0  0  0  0  0  0  0  0  0
   23.8620  -20.5123  -12.8538 C   0  0  0  0  0  0  0  0  0  0  0  0
   24.0143  -19.4212  -13.4541 O   0  0  0  0  0  0  0  0  0  0  0  0
   22.5437  -20.9776  -12.6721 N   0  0  0  0  0  0  0  0  0  0  0  0
   21.3658  -20.3018  -13.2731 C   0  0  1  0  0  0  0  0  0  0  0  0
   21.5785  -20.2614  -14.7297 C   0  0  0  0  0  0  0  0  0  0  0  0
   21.6088  -21.4693  -15.5500 C   0  0  0  0  0  0  0  0  0  0  0  0
   21.5658  -21.3694  -16.9972 C   0  0  0  0  0  0  0  0  0  0  0  0
   21.3957  -20.2742  -17.5914 O   0  0  0  0  0  0  0  0  0  0  0  0
   20.1437  -20.9619  -12.8397 C   0  0  0  0  0  0  0  0  0  0  0  0
   19.0253  -20.3444  -12.9402 O   0  0  0  0  0  0  0  0  0  0  0  0
   21.7109  -22.4854  -17.8164 O   0  0  0  0  0  0  0  0  0  0  0  0
   20.0333  -22.2414  -12.3142 O   0  0  0  0  0  0  0  0  0  0  0  0
  2  1  1  6
  2  3  1  0
  4  2  1  0
  5  4  2  0
  6  4  1  0
  6  7  1  0
  8  7  1  0
  9 10  1  0
  9  8  1  0
 10  6  1  0
 10 11  1  6
 11 13  1  0
 12 11  2  0
 13 14  1  0
 14 19  1  0
 14 15  1  6
 15 16  1  0
 16 17  1  0
 17 18  2  0
 19 22  1  0
 20 19  2  0
 21 17  1  0
M  END
$$$$
