APE.pdb
     RDKit          3D

 22 22  0  0  1  0  0  0  0  0999 V2000
   20.2757  -11.7616  -18.8819 C   0  0  0  0  0  0  0  0  0  0  0  0
   20.4730  -12.4631  -17.5561 C   0  0  2  0  0  0  0  0  0  0  0  0
   19.3508  -13.3021  -17.2923 N   0  0  0  0  0  0  0  0  0  0  0  0
   20.7504  -11.4494  -16.5165 C   0  0  0  0  0  0  0  0  0  0  0  0
   19.7949  -10.6284  -16.3065 O   0  0  0  0  0  0  0  0  0  0  0  0
   21.9335  -11.3301  -15.7779 N   0  0  0  0  0  0  0  0  0  0  0  0
   23.0683  -12.2167  -15.9074 C   0  0  0  0  0  0  0  0  0  0  0  0
   24.0610  -11.8937  -14.8447 C   0  0  0  0  0  0  0  0  0  0  0  0
   23.6350  -10.5513  -14.3289 C   0  0  0  0  0  0  0  0  0  0  0  0
   22.2285  -10.3374  -14.7927 C   0  0  1  0  0  0  0  0  0  0  0  0
   22.0436   -8.9540  -15.2841 C   0  0  0  0  0  0  0  0  0  0  0  0
   22.1788   -8.6915  -16.5035 O   0  0  0  0  0  0  0  0  0  0  0  0
   21.7135   -7.8893  -14.4211 N   0  0  0  0  0  0  0  0  0  0  0  0
   21.5237   -6.4973  -14.9026 C   0  0  1  0  0  0  0  0  0  0  0  0
   20.0762   -6.2835  -15.0682 C   0  0  0  0  0  0  0  0  0  0  0  0
   19.2919   -6.9865  -16.0799 C   0  0  0  0  0  0  0  0  0  0  0  0
   17.8687   -6.7318  -16.2064 C   0  0  0  0  0  0  0  0  0  0  0  0
   17.0018   -7.4920  -15.7044 O   0  0  0  0  0  0  0  0  0  0  0  0
   22.1922   -5.5687  -14.0037 C   0  0  0  0  0  0  0  0  0  0  0  0
   22.3584   -5.8920  -12.7748 O   0  0  0  0  0  0  0  0  0  0  0  0
   17.3775   -5.6260  -16.8943 O   0  0  0  0  0  0  0  0  0  0  0  0
   22.7040   -4.3210  -14.3301 O   0  0  0  0  0  0  0  0  0  0  0  0
  2  1  1  6
  2  3  1  0
  4  2  1  0
  5  4  2  0
  6  4  1  0
  6  7  1  0
  8  7  1  0
  9 10  1  0
  9  8  1  0
 10  6  1  0
 10 11  1  6
 11 13  1  0
 12 11  2  0
 13 14  1  0
 14 19  1  0
 14 15  1  1
 15 16  1  0
 16 17  1  0
 17 18  2  0
 19 22  1  0
 20 19  2  0
 21 17  1  0
M  END
$$$$
