APE.pdb
     RDKit          3D

 22 22  0  0  1  0  0  0  0  0999 V2000
   19.9076  -12.1139  -18.3913 C   0  0  0  0  0  0  0  0  0  0  0  0
   20.3191  -12.7359  -17.0751 C   0  0  2  0  0  0  0  0  0  0  0  0
   19.2514  -13.5382  -16.5757 N   0  0  0  0  0  0  0  0  0  0  0  0
   20.7726  -11.6652  -16.1623 C   0  0  0  0  0  0  0  0  0  0  0  0
   19.8466  -10.8842  -15.7577 O   0  0  0  0  0  0  0  0  0  0  0  0
   22.0868  -11.4549  -15.7286 N   0  0  0  0  0  0  0  0  0  0  0  0
   23.2055  -12.3024  -16.0765 C   0  0  0  0  0  0  0  0  0  0  0  0
   24.3993  -11.8768  -15.2937 C   0  0  0  0  0  0  0  0  0  0  0  0
   24.0348  -10.5235  -14.7596 C   0  0  0  0  0  0  0  0  0  0  0  0
   22.5500  -10.3936  -14.8906 C   0  0  1  0  0  0  0  0  0  0  0  0
   22.1838   -9.0508  -15.3929 C   0  0  0  0  0  0  0  0  0  0  0  0
   21.6766   -8.9174  -16.5327 O   0  0  0  0  0  0  0  0  0  0  0  0
   22.3845   -7.8835  -14.6284 N   0  0  0  0  0  0  0  0  0  0  0  0
   21.9000   -6.5486  -15.0625 C   0  0  1  0  0  0  0  0  0  0  0  0
   20.4556   -6.6688  -15.3225 C   0  0  0  0  0  0  0  0  0  0  0  0
   19.6138   -5.5116  -15.6143 C   0  0  0  0  0  0  0  0  0  0  0  0
   18.1891   -5.6823  -15.8316 C   0  0  0  0  0  0  0  0  0  0  0  0
   17.4195   -4.7106  -16.0437 O   0  0  0  0  0  0  0  0  0  0  0  0
   22.2748   -5.5438  -14.0790 C   0  0  0  0  0  0  0  0  0  0  0  0
   22.5401   -4.3516  -14.4671 O   0  0  0  0  0  0  0  0  0  0  0  0
   17.5879   -6.9376  -15.8178 O   0  0  0  0  0  0  0  0  0  0  0  0
   22.3767   -5.7232  -12.7068 O   0  0  0  0  0  0  0  0  0  0  0  0
  2  1  1  6
  2  3  1  0
  4  2  1  0
  5  4  2  0
  6  4  1  0
  6  7  1  0
  8  7  1  0
  9 10  1  0
  9  8  1  0
 10  6  1  0
 10 11  1  6
 11 13  1  0
 12 11  2  0
 13 14  1  0
 14 19  1  0
 14 15  1  1
 15 16  1  0
 16 17  1  0
 17 18  2  0
 19 22  1  0
 20 19  2  0
 21 17  1  0
M  END
$$$$
