APE.pdb
     RDKit          3D

 22 22  0  0  1  0  0  0  0  0999 V2000
   20.5727  -10.7589  -19.3558 C   0  0  0  0  0  0  0  0  0  0  0  0
   20.2409  -11.4549  -18.0542 C   0  0  2  0  0  0  0  0  0  0  0  0
   18.8727  -11.8559  -18.0665 N   0  0  0  0  0  0  0  0  0  0  0  0
   20.6206  -10.5722  -16.9308 C   0  0  0  0  0  0  0  0  0  0  0  0
   19.7797   -9.6454  -16.6755 O   0  0  0  0  0  0  0  0  0  0  0  0
   21.7848  -10.6747  -16.1604 N   0  0  0  0  0  0  0  0  0  0  0  0
   22.7476  -11.7471  -16.2769 C   0  0  0  0  0  0  0  0  0  0  0  0
   23.7516  -11.6196  -15.1838 C   0  0  0  0  0  0  0  0  0  0  0  0
   23.5560  -10.2297  -14.6550 C   0  0  0  0  0  0  0  0  0  0  0  0
   22.2234   -9.7632  -15.1504 C   0  0  1  0  0  0  0  0  0  0  0  0
   22.3005   -8.3626  -15.6215 C   0  0  0  0  0  0  0  0  0  0  0  0
   22.3611   -8.1095  -16.8488 O   0  0  0  0  0  0  0  0  0  0  0  0
   22.3092   -7.2708  -14.7298 N   0  0  0  0  0  0  0  0  0  0  0  0
   22.2550   -5.8600  -15.1905 C   0  0  1  0  0  0  0  0  0  0  0  0
   20.9901   -5.6858  -15.9240 C   0  0  0  0  0  0  0  0  0  0  0  0
   19.6949   -5.6398  -15.2509 C   0  0  0  0  0  0  0  0  0  0  0  0
   18.4912   -5.3414  -16.0048 C   0  0  0  0  0  0  0  0  0  0  0  0
   18.5266   -4.8638  -17.1676 O   0  0  0  0  0  0  0  0  0  0  0  0
   22.4487   -4.9641  -14.0604 C   0  0  0  0  0  0  0  0  0  0  0  0
   22.2910   -5.4103  -12.8695 O   0  0  0  0  0  0  0  0  0  0  0  0
   17.2210   -5.5674  -15.4826 O   0  0  0  0  0  0  0  0  0  0  0  0
   22.8088   -3.6252  -14.1152 O   0  0  0  0  0  0  0  0  0  0  0  0
  2  1  1  6
  2  3  1  0
  4  2  1  0
  5  4  2  0
  6  4  1  0
  6  7  1  0
  8  7  1  0
  9 10  1  0
  9  8  1  0
 10  6  1  0
 10 11  1  6
 11 13  1  0
 12 11  2  0
 13 14  1  0
 14 19  1  0
 14 15  1  1
 15 16  1  0
 16 17  1  0
 17 18  2  0
 19 22  1  0
 20 19  2  0
 21 17  1  0
M  END
$$$$
