APE.pdb
     RDKit          3D

 22 22  0  0  1  0  0  0  0  0999 V2000
   12.7693  -20.2388    2.1823 C   0  0  0  0  0  0  0  0  0  0  0  0
   14.1564  -20.0802    1.5995 C   0  0  2  0  0  0  0  0  0  0  0  0
   14.3892  -21.1116    0.6428 N   0  0  0  0  0  0  0  0  0  0  0  0
   15.1354  -20.0249    2.7057 C   0  0  0  0  0  0  0  0  0  0  0  0
   15.7029  -21.1383    2.9693 O   0  0  0  0  0  0  0  0  0  0  0  0
   15.4705  -18.8893    3.4524 N   0  0  0  0  0  0  0  0  0  0  0  0
   14.8778  -17.5843    3.2620 C   0  0  0  0  0  0  0  0  0  0  0  0
   15.6035  -16.5934    4.1049 C   0  0  0  0  0  0  0  0  0  0  0  0
   16.3927  -17.4278    5.0694 C   0  0  0  0  0  0  0  0  0  0  0  0
   16.4287  -18.8153    4.5105 C   0  0  1  0  0  0  0  0  0  0  0  0
   16.1998  -19.8157    5.5765 C   0  0  0  0  0  0  0  0  0  0  0  0
   15.0401  -20.2277    5.8202 O   0  0  0  0  0  0  0  0  0  0  0  0
   17.2540  -20.3407    6.3513 N   0  0  0  0  0  0  0  0  0  0  0  0
   17.0283  -21.2802    7.4790 C   0  0  1  0  0  0  0  0  0  0  0  0
   17.7051  -22.5434    7.1405 C   0  0  0  0  0  0  0  0  0  0  0  0
   17.1872  -23.4627    6.1307 C   0  0  0  0  0  0  0  0  0  0  0  0
   17.8699  -24.7157    5.8664 C   0  0  0  0  0  0  0  0  0  0  0  0
   17.3602  -25.8314    6.1440 O   0  0  0  0  0  0  0  0  0  0  0  0
   17.4492  -20.6627    8.7275 C   0  0  0  0  0  0  0  0  0  0  0  0
   18.1738  -19.6062    8.6941 O   0  0  0  0  0  0  0  0  0  0  0  0
   19.1351  -24.7565    5.2875 O   0  0  0  0  0  0  0  0  0  0  0  0
   17.1410  -21.0917   10.0107 O   0  0  0  0  0  0  0  0  0  0  0  0
  2  1  1  1
  2  3  1  0
  4  2  1  0
  5  4  2  0
  6  4  1  0
  6  7  1  0
  8  7  1  0
  9 10  1  0
  9  8  1  0
 10  6  1  0
 10 11  1  1
 11 13  1  0
 12 11  2  0
 13 14  1  0
 14 19  1  0
 14 15  1  6
 15 16  1  0
 16 17  1  0
 17 18  2  0
 19 22  1  0
 20 19  2  0
 21 17  1  0
M  END
$$$$
