APE.pdb
     RDKit          3D

 22 22  0  0  1  0  0  0  0  0999 V2000
   20.3276  -11.1131  -18.9631 C   0  0  0  0  0  0  0  0  0  0  0  0
   20.2781  -11.8582  -17.6473 C   0  0  2  0  0  0  0  0  0  0  0  0
   18.9682  -12.3856  -17.4503 N   0  0  0  0  0  0  0  0  0  0  0  0
   20.7563  -10.9621  -16.5732 C   0  0  0  0  0  0  0  0  0  0  0  0
   19.8917  -10.1166  -16.1623 O   0  0  0  0  0  0  0  0  0  0  0  0
   22.0330  -10.9731  -15.9993 N   0  0  0  0  0  0  0  0  0  0  0  0
   23.0495  -11.9591  -16.2912 C   0  0  0  0  0  0  0  0  0  0  0  0
   24.2011  -11.7577  -15.3681 C   0  0  0  0  0  0  0  0  0  0  0  0
   23.9791  -10.3945  -14.7833 C   0  0  0  0  0  0  0  0  0  0  0  0
   22.5509  -10.0376  -15.0508 C   0  0  1  0  0  0  0  0  0  0  0  0
   22.4368   -8.6311  -15.4958 C   0  0  0  0  0  0  0  0  0  0  0  0
   22.5264   -8.3427  -16.7136 O   0  0  0  0  0  0  0  0  0  0  0  0
   22.2264   -7.5722  -14.5893 N   0  0  0  0  0  0  0  0  0  0  0  0
   22.0966   -6.1585  -15.0252 C   0  0  1  0  0  0  0  0  0  0  0  0
   20.8052   -6.0303  -15.7211 C   0  0  0  0  0  0  0  0  0  0  0  0
   19.5271   -6.2202  -15.0405 C   0  0  0  0  0  0  0  0  0  0  0  0
   18.2817   -6.0192  -15.7580 C   0  0  0  0  0  0  0  0  0  0  0  0
   18.0184   -4.9481  -16.3620 O   0  0  0  0  0  0  0  0  0  0  0  0
   22.2817   -5.2720  -13.8863 C   0  0  0  0  0  0  0  0  0  0  0  0
   22.4543   -4.0180  -14.0865 O   0  0  0  0  0  0  0  0  0  0  0  0
   17.3008   -7.0048  -15.8198 O   0  0  0  0  0  0  0  0  0  0  0  0
   22.2857   -5.6323  -12.5463 O   0  0  0  0  0  0  0  0  0  0  0  0
  2  1  1  6
  2  3  1  0
  4  2  1  0
  5  4  2  0
  6  4  1  0
  6  7  1  0
  8  7  1  0
  9 10  1  0
  9  8  1  0
 10  6  1  0
 10 11  1  6
 11 13  1  0
 12 11  2  0
 13 14  1  0
 14 19  1  0
 14 15  1  1
 15 16  1  0
 16 17  1  0
 17 18  2  0
 19 22  1  0
 20 19  2  0
 21 17  1  0
M  END
$$$$
