APE.pdb
     RDKit          3D

 22 22  0  0  1  0  0  0  0  0999 V2000
   17.8327  -11.1825  -16.0619 C   0  0  0  0  0  0  0  0  0  0  0  0
   19.1597  -11.4287  -16.7453 C   0  0  2  0  0  0  0  0  0  0  0  0
   19.9638  -12.2760  -15.9277 N   0  0  0  0  0  0  0  0  0  0  0  0
   19.7718  -10.1260  -17.0827 C   0  0  0  0  0  0  0  0  0  0  0  0
   20.5083   -9.6312  -16.1641 O   0  0  0  0  0  0  0  0  0  0  0  0
   19.6090   -9.4265  -18.2842 N   0  0  0  0  0  0  0  0  0  0  0  0
   18.9397   -9.9558  -19.4515 C   0  0  0  0  0  0  0  0  0  0  0  0
   19.1173   -9.0065  -20.5856 C   0  0  0  0  0  0  0  0  0  0  0  0
   19.5915   -7.7375  -19.9419 C   0  0  0  0  0  0  0  0  0  0  0  0
   20.0581   -8.0993  -18.5671 C   0  0  1  0  0  0  0  0  0  0  0  0
   19.5941   -7.1024  -17.5770 C   0  0  0  0  0  0  0  0  0  0  0  0
   18.9013   -7.4606  -16.5942 O   0  0  0  0  0  0  0  0  0  0  0  0
   19.9035   -5.7318  -17.6910 N   0  0  0  0  0  0  0  0  0  0  0  0
   19.5214   -4.7357  -16.6580 C   0  0  1  0  0  0  0  0  0  0  0  0
   20.1335   -5.1627  -15.3886 C   0  0  0  0  0  0  0  0  0  0  0  0
   21.5441   -4.9369  -15.0848 C   0  0  0  0  0  0  0  0  0  0  0  0
   22.0971   -5.3788  -13.8179 C   0  0  0  0  0  0  0  0  0  0  0  0
   21.3730   -5.7724  -12.8682 O   0  0  0  0  0  0  0  0  0  0  0  0
   19.8812   -3.3985  -17.1048 C   0  0  0  0  0  0  0  0  0  0  0  0
   19.3225   -2.3816  -16.5606 O   0  0  0  0  0  0  0  0  0  0  0  0
   23.4682   -5.3927  -13.5785 O   0  0  0  0  0  0  0  0  0  0  0  0
   20.8047   -3.0726  -18.0878 O   0  0  0  0  0  0  0  0  0  0  0  0
  2  1  1  1
  2  3  1  0
  4  2  1  0
  5  4  2  0
  6  4  1  0
  6  7  1  0
  8  7  1  0
  9 10  1  0
  9  8  1  0
 10  6  1  0
 10 11  1  1
 11 13  1  0
 12 11  2  0
 13 14  1  0
 14 19  1  0
 14 15  1  1
 15 16  1  0
 16 17  1  0
 17 18  2  0
 19 22  1  0
 20 19  2  0
 21 17  1  0
M  END
$$$$
