SKW.pdb
     RDKit          3D

 30 31  0  0  1  0  0  0  0  0999 V2000
   27.0668  -23.6824  -15.7812 O   0  0  0  0  0  0  0  0  0  0  0  0
   27.5268  -22.6956  -16.6264 C   0  0  0  0  0  0  0  0  0  0  0  0
   28.7214  -21.9585  -16.0722 C   0  0  2  0  0  0  0  0  0  0  0  0
   29.8816  -22.8111  -15.9566 N   0  0  0  0  0  0  0  0  0  0  0  0
   28.4202  -21.2895  -14.7820 C   0  0  0  0  0  0  0  0  0  0  0  0
   28.9645  -21.7035  -13.7024 O   0  0  0  0  0  0  0  0  0  0  0  0
   27.5286  -20.1860  -14.7251 N   0  0  0  0  0  0  0  0  0  0  0  0
   27.0899  -19.5642  -13.5088 C   0  0  1  0  0  0  0  0  0  0  0  0
   26.3825  -18.2588  -13.7003 C   0  0  0  0  0  0  0  0  0  0  0  0
   26.8144  -17.5264  -14.9390 C   0  0  0  0  0  0  0  0  0  0  0  0
   25.9650  -16.2851  -15.0987 C   0  0  0  0  0  0  0  0  0  0  0  0
   26.4772  -15.5516  -16.3228 C   0  0  0  0  0  0  0  0  0  0  0  0
   25.7303  -14.3352  -16.5688 N   0  0  0  0  0  0  0  0  0  0  0  0
   26.3139  -20.5012  -12.6417 C   0  0  0  0  0  0  0  0  0  0  0  0
   26.4025  -21.7329  -12.8765 O   0  0  0  0  0  0  0  0  0  0  0  0
   25.4974  -20.0693  -11.5870 N   0  0  0  0  0  0  0  0  0  0  0  0
   25.6110  -20.6653  -10.2613 C   0  0  1  0  0  0  0  0  0  0  0  0
   26.8746  -20.2453   -9.5693 C   0  0  0  0  0  0  0  0  0  0  0  0
   26.8509  -20.6958   -8.1528 C   0  0  0  0  0  0  0  0  0  0  0  0
   26.1096  -21.7093   -7.5820 C   0  0  0  0  0  0  0  0  0  0  0  0
   26.3808  -21.7996   -6.2689 N   0  0  0  0  0  0  0  0  0  0  0  0
   27.3046  -20.8388   -5.9828 C   0  0  0  0  0  0  0  0  0  0  0  0
   27.9175  -20.5045   -4.7804 C   0  0  0  0  0  0  0  0  0  0  0  0
   28.8339  -19.4805   -4.7181 C   0  0  0  0  0  0  0  0  0  0  0  0
   29.1218  -18.8007   -5.8845 C   0  0  0  0  0  0  0  0  0  0  0  0
   28.5233  -19.1175   -7.0913 C   0  0  0  0  0  0  0  0  0  0  0  0
   27.6085  -20.1473   -7.1281 C   0  0  0  0  0  0  0  0  0  0  0  0
   24.4654  -20.1234   -9.4560 C   0  0  0  0  0  0  0  0  0  0  0  0
   23.7968  -20.9079   -8.5414 O   0  0  0  0  0  0  0  0  0  0  0  0
   24.0601  -18.9343   -9.5740 O   0  0  0  0  0  0  0  0  0  0  0  0
  1  2  1  0
  2  3  1  0
  3  4  1  1
  5  3  1  0
  6  5  2  0
  7  5  1  0
  8 14  1  0
  8  7  1  0
  8  9  1  6
 10 11  1  0
 10  9  1  0
 11 12  1  0
 13 12  1  0
 14 15  2  0
 16 17  1  0
 16 14  1  0
 17 18  1  1
 19 18  1  0
 20 19  2  0
 21 20  1  0
 22 21  1  0
 22 27  2  0
 23 22  1  0
 24 23  2  0
 24 25  1  0
 25 26  2  0
 26 27  1  0
 27 19  1  0
 28 29  1  0
 28 17  1  0
 30 28  2  0
M  END
$$$$
