SKW.pdb
     RDKit          3D

 30 31  0  0  1  0  0  0  0  0999 V2000
   29.8861  -21.7242  -13.4670 O   0  0  0  0  0  0  0  0  0  0  0  0
   29.3530  -22.1733  -14.6560 C   0  0  0  0  0  0  0  0  0  0  0  0
   28.1881  -21.3386  -15.1289 C   0  0  2  0  0  0  0  0  0  0  0  0
   28.5737  -20.3971  -16.1543 N   0  0  0  0  0  0  0  0  0  0  0  0
   27.4960  -20.6536  -14.0088 C   0  0  0  0  0  0  0  0  0  0  0  0
   27.8954  -19.5057  -13.6139 O   0  0  0  0  0  0  0  0  0  0  0  0
   26.3860  -21.2574  -13.3611 N   0  0  0  0  0  0  0  0  0  0  0  0
   25.5069  -20.5716  -12.4581 C   0  0  1  0  0  0  0  0  0  0  0  0
   24.0937  -20.4549  -12.9380 C   0  0  0  0  0  0  0  0  0  0  0  0
   23.9091  -19.3953  -13.9871 C   0  0  0  0  0  0  0  0  0  0  0  0
   22.4780  -19.4295  -14.4753 C   0  0  0  0  0  0  0  0  0  0  0  0
   22.3577  -18.3872  -15.5698 C   0  0  0  0  0  0  0  0  0  0  0  0
   21.0585  -18.4302  -16.2087 N   0  0  0  0  0  0  0  0  0  0  0  0
   25.5849  -21.1159  -11.0690 C   0  0  0  0  0  0  0  0  0  0  0  0
   25.7280  -22.3568  -10.9286 O   0  0  0  0  0  0  0  0  0  0  0  0
   25.5052  -20.3091   -9.9252 N   0  0  0  0  0  0  0  0  0  0  0  0
   25.3196  -20.8996   -8.6052 C   0  0  1  0  0  0  0  0  0  0  0  0
   25.7685  -19.9731   -7.5135 C   0  0  0  0  0  0  0  0  0  0  0  0
   27.2486  -20.0217   -7.3839 C   0  0  0  0  0  0  0  0  0  0  0  0
   28.1995  -20.1115   -8.3789 C   0  0  0  0  0  0  0  0  0  0  0  0
   29.4319  -20.1248   -7.8433 N   0  0  0  0  0  0  0  0  0  0  0  0
   29.2826  -20.0432   -6.4907 C   0  0  0  0  0  0  0  0  0  0  0  0
   30.2336  -20.0219   -5.4767 C   0  0  0  0  0  0  0  0  0  0  0  0
   29.8541  -19.9366   -4.1573 C   0  0  0  0  0  0  0  0  0  0  0  0
   28.5039  -19.8730   -3.8773 C   0  0  0  0  0  0  0  0  0  0  0  0
   27.5414  -19.8926   -4.8715 C   0  0  0  0  0  0  0  0  0  0  0  0
   27.9466  -19.9787   -6.1856 C   0  0  0  0  0  0  0  0  0  0  0  0
   23.8409  -21.0977   -8.4362 C   0  0  0  0  0  0  0  0  0  0  0  0
   23.3286  -21.8011   -7.3676 O   0  0  0  0  0  0  0  0  0  0  0  0
   22.9998  -20.6352   -9.2552 O   0  0  0  0  0  0  0  0  0  0  0  0
  1  2  1  0
  2  3  1  0
  3  4  1  6
  5  3  1  0
  6  5  2  0
  7  5  1  0
  8 14  1  0
  8  7  1  0
  8  9  1  6
 10 11  1  0
 10  9  1  0
 11 12  1  0
 13 12  1  0
 14 15  2  0
 16 17  1  0
 16 14  1  0
 17 18  1  1
 19 18  1  0
 20 19  2  0
 21 20  1  0
 22 21  1  0
 22 27  2  0
 23 22  1  0
 24 23  2  0
 24 25  1  0
 25 26  2  0
 26 27  1  0
 27 19  1  0
 28 29  1  0
 28 17  1  0
 30 28  2  0
M  END
$$$$
