SKW.pdb
     RDKit          3D

 30 31  0  0  1  0  0  0  0  0999 V2000
   26.4477  -17.4404  -15.7238 O   0  0  0  0  0  0  0  0  0  0  0  0
   27.4229  -17.5656  -16.6897 C   0  0  0  0  0  0  0  0  0  0  0  0
   27.1527  -18.6953  -17.6532 C   0  0  2  0  0  0  0  0  0  0  0  0
   26.0003  -18.4375  -18.4850 N   0  0  0  0  0  0  0  0  0  0  0  0
   27.0315  -20.0045  -16.9645 C   0  0  0  0  0  0  0  0  0  0  0  0
   25.8812  -20.5321  -16.7874 O   0  0  0  0  0  0  0  0  0  0  0  0
   28.1833  -20.6886  -16.4940 N   0  0  0  0  0  0  0  0  0  0  0  0
   28.1531  -21.9647  -15.8387 C   0  0  1  0  0  0  0  0  0  0  0  0
   29.3613  -22.8146  -16.0815 C   0  0  0  0  0  0  0  0  0  0  0  0
   29.6890  -22.9774  -17.5387 C   0  0  0  0  0  0  0  0  0  0  0  0
   30.9759  -23.7611  -17.6697 C   0  0  0  0  0  0  0  0  0  0  0  0
   31.2657  -23.8935  -19.1520 C   0  0  0  0  0  0  0  0  0  0  0  0
   30.2834  -24.7249  -19.8167 N   0  0  0  0  0  0  0  0  0  0  0  0
   27.8326  -21.8470  -14.3843 C   0  0  0  0  0  0  0  0  0  0  0  0
   28.7896  -21.8110  -13.5701 O   0  0  0  0  0  0  0  0  0  0  0  0
   26.5215  -21.7763  -13.8928 N   0  0  0  0  0  0  0  0  0  0  0  0
   26.2623  -21.7272  -12.4589 C   0  0  1  0  0  0  0  0  0  0  0  0
   26.8739  -20.5125  -11.8245 C   0  0  0  0  0  0  0  0  0  0  0  0
   26.4532  -20.4172  -10.4019 C   0  0  0  0  0  0  0  0  0  0  0  0
   25.1989  -20.1614   -9.8883 C   0  0  0  0  0  0  0  0  0  0  0  0
   25.2383  -20.1629   -8.5450 N   0  0  0  0  0  0  0  0  0  0  0  0
   26.5265  -20.4214   -8.1816 C   0  0  0  0  0  0  0  0  0  0  0  0
   27.1052  -20.5300   -6.9221 C   0  0  0  0  0  0  0  0  0  0  0  0
   28.4474  -20.7979   -6.7846 C   0  0  0  0  0  0  0  0  0  0  0  0
   29.1949  -20.9544   -7.9346 C   0  0  0  0  0  0  0  0  0  0  0  0
   28.6385  -20.8505   -9.1974 C   0  0  0  0  0  0  0  0  0  0  0  0
   27.2919  -20.5814   -9.3090 C   0  0  0  0  0  0  0  0  0  0  0  0
   24.7739  -21.6045  -12.3035 C   0  0  0  0  0  0  0  0  0  0  0  0
   24.0291  -20.8007  -13.1390 O   0  0  0  0  0  0  0  0  0  0  0  0
   24.1351  -22.2245  -11.4093 O   0  0  0  0  0  0  0  0  0  0  0  0
  1  2  1  0
  2  3  1  0
  3  4  1  1
  5  3  1  0
  6  5  2  0
  7  5  1  0
  8 14  1  0
  8  7  1  0
  8  9  1  1
 10 11  1  0
 10  9  1  0
 11 12  1  0
 13 12  1  0
 14 15  2  0
 16 17  1  0
 16 14  1  0
 17 18  1  6
 19 18  1  0
 20 19  2  0
 21 20  1  0
 22 21  1  0
 22 27  2  0
 23 22  1  0
 24 23  2  0
 24 25  1  0
 25 26  2  0
 26 27  1  0
 27 19  1  0
 28 29  1  0
 28 17  1  0
 30 28  2  0
M  END
$$$$
