SKW.pdb
     RDKit          3D

 30 31  0  0  1  0  0  0  0  0999 V2000
   27.4220  -26.5628  -22.0835 O   0  0  0  0  0  0  0  0  0  0  0  0
   26.1007  -26.8710  -21.8407 C   0  0  0  0  0  0  0  0  0  0  0  0
   25.9127  -28.2722  -21.3130 C   0  0  2  0  0  0  0  0  0  0  0  0
   25.9327  -29.2586  -22.3680 N   0  0  0  0  0  0  0  0  0  0  0  0
   24.6876  -28.4014  -20.4850 C   0  0  0  0  0  0  0  0  0  0  0  0
   23.5388  -28.4499  -21.0425 O   0  0  0  0  0  0  0  0  0  0  0  0
   24.7702  -28.4729  -19.0693 N   0  0  0  0  0  0  0  0  0  0  0  0
   23.6335  -28.4883  -18.1940 C   0  0  1  0  0  0  0  0  0  0  0  0
   23.9404  -28.8981  -16.7872 C   0  0  0  0  0  0  0  0  0  0  0  0
   22.7191  -28.9925  -15.9171 C   0  0  0  0  0  0  0  0  0  0  0  0
   22.2098  -30.4166  -15.9359 C   0  0  0  0  0  0  0  0  0  0  0  0
   21.0140  -30.4723  -15.0056 C   0  0  0  0  0  0  0  0  0  0  0  0
   20.5322  -31.8275  -14.8345 N   0  0  0  0  0  0  0  0  0  0  0  0
   22.8579  -27.2127  -18.2505 C   0  0  0  0  0  0  0  0  0  0  0  0
   23.4858  -26.1333  -18.1064 O   0  0  0  0  0  0  0  0  0  0  0  0
   21.4716  -27.1683  -18.4549 N   0  0  0  0  0  0  0  0  0  0  0  0
   20.7569  -25.8975  -18.4592 C   0  0  1  0  0  0  0  0  0  0  0  0
   19.3288  -26.0643  -18.8891 C   0  0  0  0  0  0  0  0  0  0  0  0
   18.7024  -24.7320  -19.0948 C   0  0  0  0  0  0  0  0  0  0  0  0
   18.8511  -23.8630  -20.1556 C   0  0  0  0  0  0  0  0  0  0  0  0
   18.1078  -22.7606  -19.9602 N   0  0  0  0  0  0  0  0  0  0  0  0
   17.4710  -22.9127  -18.7645 C   0  0  0  0  0  0  0  0  0  0  0  0
   16.5911  -22.0689  -18.0960 C   0  0  0  0  0  0  0  0  0  0  0  0
   16.0607  -22.4265  -16.8782 C   0  0  0  0  0  0  0  0  0  0  0  0
   16.4305  -23.6457  -16.3467 C   0  0  0  0  0  0  0  0  0  0  0  0
   17.3044  -24.5002  -16.9956 C   0  0  0  0  0  0  0  0  0  0  0  0
   17.8224  -24.1194  -18.2143 C   0  0  0  0  0  0  0  0  0  0  0  0
   20.7368  -25.4204  -17.0357 C   0  0  0  0  0  0  0  0  0  0  0  0
   20.9163  -24.0906  -16.7220 O   0  0  0  0  0  0  0  0  0  0  0  0
   20.5564  -26.2042  -16.0634 O   0  0  0  0  0  0  0  0  0  0  0  0
  1  2  1  0
  2  3  1  0
  3  4  1  6
  5  3  1  0
  6  5  2  0
  7  5  1  0
  8 14  1  0
  8  7  1  0
  8  9  1  1
 10 11  1  0
 10  9  1  0
 11 12  1  0
 13 12  1  0
 14 15  2  0
 16 17  1  0
 16 14  1  0
 17 18  1  1
 19 18  1  0
 20 19  2  0
 21 20  1  0
 22 21  1  0
 22 27  2  0
 23 22  1  0
 24 23  2  0
 24 25  1  0
 25 26  2  0
 26 27  1  0
 27 19  1  0
 28 29  1  0
 28 17  1  0
 30 28  2  0
M  END
$$$$
