SKW.pdb
     RDKit          3D

 30 31  0  0  1  0  0  0  0  0999 V2000
   24.4105  -20.7871   -8.4105 O   0  0  0  0  0  0  0  0  0  0  0  0
   25.5960  -21.4734   -8.5629 C   0  0  0  0  0  0  0  0  0  0  0  0
   26.5636  -20.7750   -9.4867 C   0  0  2  0  0  0  0  0  0  0  0  0
   27.0984  -19.5670   -8.9027 N   0  0  0  0  0  0  0  0  0  0  0  0
   25.9720  -20.5059  -10.8211 C   0  0  0  0  0  0  0  0  0  0  0  0
   25.2852  -19.4461  -11.0164 O   0  0  0  0  0  0  0  0  0  0  0  0
   26.1577  -21.4147  -11.8962 N   0  0  0  0  0  0  0  0  0  0  0  0
   25.5564  -21.2679  -13.1905 C   0  0  1  0  0  0  0  0  0  0  0  0
   26.2148  -22.0646  -14.2735 C   0  0  0  0  0  0  0  0  0  0  0  0
   25.6220  -21.8215  -15.6326 C   0  0  0  0  0  0  0  0  0  0  0  0
   26.3717  -20.6912  -16.3020 C   0  0  0  0  0  0  0  0  0  0  0  0
   25.6811  -20.4231  -17.6248 C   0  0  0  0  0  0  0  0  0  0  0  0
   26.3414  -19.3703  -18.3690 N   0  0  0  0  0  0  0  0  0  0  0  0
   24.0782  -21.4818  -13.1558 C   0  0  0  0  0  0  0  0  0  0  0  0
   23.6402  -22.4739  -12.5201 O   0  0  0  0  0  0  0  0  0  0  0  0
   23.1665  -20.6314  -13.7971 N   0  0  0  0  0  0  0  0  0  0  0  0
   21.7346  -20.9026  -13.7553 C   0  0  1  0  0  0  0  0  0  0  0  0
   20.9437  -19.6667  -13.4406 C   0  0  0  0  0  0  0  0  0  0  0  0
   19.4899  -19.9768  -13.4584 C   0  0  0  0  0  0  0  0  0  0  0  0
   18.5430  -19.6206  -14.3959 C   0  0  0  0  0  0  0  0  0  0  0  0
   17.3385  -20.1024  -14.0453 N   0  0  0  0  0  0  0  0  0  0  0  0
   17.5022  -20.7768  -12.8719 C   0  0  0  0  0  0  0  0  0  0  0  0
   16.5797  -21.4573  -12.0850 C   0  0  0  0  0  0  0  0  0  0  0  0
   16.9685  -22.0741  -10.9186 C   0  0  0  0  0  0  0  0  0  0  0  0
   18.2990  -21.9943  -10.5593 C   0  0  0  0  0  0  0  0  0  0  0  0
   19.2330  -21.3224  -11.3281 C   0  0  0  0  0  0  0  0  0  0  0  0
   18.8190  -20.7124  -12.4922 C   0  0  0  0  0  0  0  0  0  0  0  0
   21.3468  -21.3344  -15.1401 C   0  0  0  0  0  0  0  0  0  0  0  0
   20.3626  -22.2760  -15.3489 O   0  0  0  0  0  0  0  0  0  0  0  0
   21.8964  -20.8623  -16.1732 O   0  0  0  0  0  0  0  0  0  0  0  0
  1  2  1  0
  2  3  1  0
  3  4  1  1
  5  3  1  0
  6  5  2  0
  7  5  1  0
  8 14  1  0
  8  7  1  0
  8  9  1  6
 10 11  1  0
 10  9  1  0
 11 12  1  0
 13 12  1  0
 14 15  2  0
 16 17  1  0
 16 14  1  0
 17 18  1  6
 19 18  1  0
 20 19  2  0
 21 20  1  0
 22 21  1  0
 22 27  2  0
 23 22  1  0
 24 23  2  0
 24 25  1  0
 25 26  2  0
 26 27  1  0
 27 19  1  0
 28 29  1  0
 28 17  1  0
 30 28  2  0
M  END
$$$$
