SKW.pdb
     RDKit          3D

 30 31  0  0  1  0  0  0  0  0999 V2000
   24.2858  -24.9838  -15.1843 O   0  0  0  0  0  0  0  0  0  0  0  0
   24.4885  -24.3237  -16.3771 C   0  0  0  0  0  0  0  0  0  0  0  0
   25.9440  -24.0263  -16.6429 C   0  0  2  0  0  0  0  0  0  0  0  0
   26.7106  -25.2273  -16.8802 N   0  0  0  0  0  0  0  0  0  0  0  0
   26.5558  -23.2067  -15.5673 C   0  0  0  0  0  0  0  0  0  0  0  0
   27.3668  -23.7406  -14.7366 O   0  0  0  0  0  0  0  0  0  0  0  0
   26.2527  -21.8250  -15.4435 N   0  0  0  0  0  0  0  0  0  0  0  0
   26.8648  -20.9465  -14.4886 C   0  0  1  0  0  0  0  0  0  0  0  0
   26.8362  -19.4993  -14.8706 C   0  0  0  0  0  0  0  0  0  0  0  0
   27.8291  -19.1490  -15.9424 C   0  0  0  0  0  0  0  0  0  0  0  0
   27.7040  -17.6773  -16.2680 C   0  0  0  0  0  0  0  0  0  0  0  0
   28.7010  -17.3806  -17.3709 C   0  0  0  0  0  0  0  0  0  0  0  0
   28.6833  -15.9816  -17.7457 N   0  0  0  0  0  0  0  0  0  0  0  0
   26.3535  -21.1715  -13.1030 C   0  0  0  0  0  0  0  0  0  0  0  0
   25.1246  -21.3911  -12.9558 O   0  0  0  0  0  0  0  0  0  0  0  0
   27.1783  -21.1475  -11.9695 N   0  0  0  0  0  0  0  0  0  0  0  0
   26.6442  -21.4610  -10.6495 C   0  0  1  0  0  0  0  0  0  0  0  0
   27.7280  -21.5332   -9.6141 C   0  0  0  0  0  0  0  0  0  0  0  0
   27.4907  -20.5124   -8.5597 C   0  0  0  0  0  0  0  0  0  0  0  0
   26.5007  -19.5544   -8.4933 C   0  0  0  0  0  0  0  0  0  0  0  0
   26.6333  -18.8270   -7.3712 N   0  0  0  0  0  0  0  0  0  0  0  0
   27.7166  -19.3145   -6.7026 C   0  0  0  0  0  0  0  0  0  0  0  0
   28.2861  -18.9209   -5.4968 C   0  0  0  0  0  0  0  0  0  0  0  0
   29.3979  -19.5614   -5.0010 C   0  0  0  0  0  0  0  0  0  0  0  0
   29.9250  -20.6026   -5.7384 C   0  0  0  0  0  0  0  0  0  0  0  0
   29.3735  -21.0100   -6.9404 C   0  0  0  0  0  0  0  0  0  0  0  0
   28.2599  -20.3527   -7.4162 C   0  0  0  0  0  0  0  0  0  0  0  0
   25.7499  -20.3150  -10.2737 C   0  0  0  0  0  0  0  0  0  0  0  0
   24.6714  -20.4918   -9.4343 O   0  0  0  0  0  0  0  0  0  0  0  0
   25.9377  -19.1433  -10.7026 O   0  0  0  0  0  0  0  0  0  0  0  0
  1  2  1  0
  2  3  1  0
  3  4  1  1
  5  3  1  0
  6  5  2  0
  7  5  1  0
  8 14  1  0
  8  7  1  0
  8  9  1  6
 10 11  1  0
 10  9  1  0
 11 12  1  0
 13 12  1  0
 14 15  2  0
 16 17  1  0
 16 14  1  0
 17 18  1  1
 19 18  1  0
 20 19  2  0
 21 20  1  0
 22 21  1  0
 22 27  2  0
 23 22  1  0
 24 23  2  0
 24 25  1  0
 25 26  2  0
 26 27  1  0
 27 19  1  0
 28 29  1  0
 28 17  1  0
 30 28  2  0
M  END
$$$$
