IWY.pdb
     RDKit          3D

 35 37  0  0  1  0  0  0  0  0999 V2000
    6.8058  -11.9567   19.6054 C   0  0  0  0  0  0  0  0  0  0  0  0
    7.0249  -13.4796   19.6011 C   0  0  0  0  0  0  0  0  0  0  0  0
    8.0203  -13.7653   20.6656 C   0  0  2  0  0  0  0  0  0  0  0  0
    9.2290  -12.8818   20.4730 C   0  0  0  0  0  0  0  0  0  0  0  0
    8.3528  -15.2042   20.8996 C   0  0  2  0  0  0  0  0  0  0  0  0
    7.0506  -15.8845   21.0268 N   0  0  0  0  0  0  0  0  0  0  0  0
    9.1094  -15.4880   22.1298 C   0  0  0  0  0  0  0  0  0  0  0  0
   10.3233  -15.1071   22.2729 O   0  0  0  0  0  0  0  0  0  0  0  0
    8.5879  -16.1906   23.2512 N   0  0  0  0  0  0  0  0  0  0  0  0
    9.3336  -16.4659   24.4556 C   0  0  1  0  0  0  0  0  0  0  0  0
    8.4552  -16.5750   25.6890 C   0  0  0  0  0  0  0  0  0  0  0  0
    7.4572  -15.4917   25.8122 C   0  0  0  0  0  0  0  0  0  0  0  0
    6.0868  -15.5525   25.5676 C   0  0  0  0  0  0  0  0  0  0  0  0
    5.5211  -14.3492   25.7732 N   0  0  0  0  0  0  0  0  0  0  0  0
    6.4717  -13.4793   26.1498 C   0  0  0  0  0  0  0  0  0  0  0  0
    6.3981  -12.1425   26.4781 C   0  0  0  0  0  0  0  0  0  0  0  0
    7.5150  -11.4443   26.8477 C   0  0  0  0  0  0  0  0  0  0  0  0
    8.7191  -12.1045   26.8860 C   0  0  0  0  0  0  0  0  0  0  0  0
    8.7749  -13.4386   26.5551 C   0  0  0  0  0  0  0  0  0  0  0  0
    7.6771  -14.1805   26.1769 C   0  0  0  0  0  0  0  0  0  0  0  0
   10.2509  -17.6113   24.3059 C   0  0  0  0  0  0  0  0  0  0  0  0
   10.1137  -18.4862   23.4011 O   0  0  0  0  0  0  0  0  0  0  0  0
   18.4077  -18.1529   21.9289 O   0  0  0  0  0  0  0  0  0  0  0  0
   17.1075  -17.8991   22.3897 C   0  0  0  0  0  0  0  0  0  0  0  0
   16.9299  -17.2655   23.6140 C   0  0  0  0  0  0  0  0  0  0  0  0
   15.6758  -16.9945   24.1094 C   0  0  0  0  0  0  0  0  0  0  0  0
   14.5549  -17.3514   23.3900 C   0  0  0  0  0  0  0  0  0  0  0  0
   13.2143  -17.0648   23.9355 C   0  0  0  0  0  0  0  0  0  0  0  0
   12.6532  -18.2258   24.7659 C   0  0  2  0  0  0  0  0  0  0  0  0
   11.3421  -17.7596   25.2023 N   0  0  0  0  0  0  0  0  0  0  0  0
   13.5036  -18.4071   25.9463 C   0  0  0  0  0  0  0  0  0  0  0  0
   14.4812  -19.1832   25.9155 O   0  0  0  0  0  0  0  0  0  0  0  0
   14.7373  -17.9878   22.1607 C   0  0  0  0  0  0  0  0  0  0  0  0
   15.9966  -18.2538   21.6752 C   0  0  0  0  0  0  0  0  0  0  0  0
   13.2331  -17.7201   27.1080 O   0  0  0  0  0  0  0  0  0  0  0  0
  2  1  1  0
  3  4  1  6
  3  5  1  0
  3  2  1  0
  5  6  1  1
  7  8  2  0
  7  5  1  0
  9  7  1  0
 10 21  1  0
 10  9  1  0
 10 11  1  1
 12 11  1  0
 13 12  2  0
 14 15  1  0
 14 13  1  0
 15 20  2  0
 16 15  1  0
 16 17  2  0
 17 18  1  0
 18 19  2  0
 20 12  1  0
 20 19  1  0
 21 30  1  0
 22 21  2  0
 23 24  1  0
 24 25  2  0
 24 34  1  0
 25 26  1  0
 26 27  2  0
 27 28  1  0
 29 28  1  6
 29 31  1  0
 30 29  1  0
 31 32  2  0
 31 35  1  0
 33 27  1  0
 34 33  2  0
M  END
$$$$
