IWY.pdb
     RDKit          3D

 35 37  0  0  1  0  0  0  0  0999 V2000
    7.0325  -12.4466   19.1458 C   0  0  0  0  0  0  0  0  0  0  0  0
    7.6002  -13.8687   19.2954 C   0  0  0  0  0  0  0  0  0  0  0  0
    8.3107  -13.9040   20.5991 C   0  0  2  0  0  0  0  0  0  0  0  0
    9.2791  -12.7485   20.6746 C   0  0  0  0  0  0  0  0  0  0  0  0
    8.9019  -15.2171   21.0018 C   0  0  2  0  0  0  0  0  0  0  0  0
    7.7894  -16.1816   20.9194 N   0  0  0  0  0  0  0  0  0  0  0  0
    9.4273  -15.2812   22.3751 C   0  0  0  0  0  0  0  0  0  0  0  0
   10.5164  -14.6941   22.7041 O   0  0  0  0  0  0  0  0  0  0  0  0
    8.8002  -15.9780   23.4449 N   0  0  0  0  0  0  0  0  0  0  0  0
    9.2275  -15.9072   24.8214 C   0  0  1  0  0  0  0  0  0  0  0  0
    8.1021  -16.1584   25.8089 C   0  0  0  0  0  0  0  0  0  0  0  0
    7.0715  -15.0990   25.8257 C   0  0  0  0  0  0  0  0  0  0  0  0
    5.7033  -15.2260   25.5950 C   0  0  0  0  0  0  0  0  0  0  0  0
    5.1012  -14.0258   25.6795 N   0  0  0  0  0  0  0  0  0  0  0  0
    6.0252  -13.0935   25.9610 C   0  0  0  0  0  0  0  0  0  0  0  0
    5.9111  -11.7330   26.1516 C   0  0  0  0  0  0  0  0  0  0  0  0
    7.0065  -10.9671   26.4428 C   0  0  0  0  0  0  0  0  0  0  0  0
    8.2304  -11.5831   26.5425 C   0  0  0  0  0  0  0  0  0  0  0  0
    8.3267  -12.9416   26.3491 C   0  0  0  0  0  0  0  0  0  0  0  0
    7.2516  -13.7513   26.0537 C   0  0  0  0  0  0  0  0  0  0  0  0
   10.4171  -16.7370   25.0897 C   0  0  0  0  0  0  0  0  0  0  0  0
   10.8741  -17.5713   24.2542 O   0  0  0  0  0  0  0  0  0  0  0  0
   16.9329  -19.9713   30.2634 O   0  0  0  0  0  0  0  0  0  0  0  0
   15.9478  -19.1836   29.6502 C   0  0  0  0  0  0  0  0  0  0  0  0
   16.1710  -18.6865   28.3714 C   0  0  0  0  0  0  0  0  0  0  0  0
   15.2365  -17.9096   27.7275 C   0  0  0  0  0  0  0  0  0  0  0  0
   14.0431  -17.6050   28.3475 C   0  0  0  0  0  0  0  0  0  0  0  0
   13.0519  -16.7625   27.6514 C   0  0  0  0  0  0  0  0  0  0  0  0
   12.0923  -17.5788   26.7766 C   0  0  2  0  0  0  0  0  0  0  0  0
   11.0961  -16.6117   26.3305 N   0  0  0  0  0  0  0  0  0  0  0  0
   11.4306  -18.5790   27.6199 C   0  0  0  0  0  0  0  0  0  0  0  0
   11.8777  -19.7420   27.7009 O   0  0  0  0  0  0  0  0  0  0  0  0
   13.8225  -18.1060   29.6319 C   0  0  0  0  0  0  0  0  0  0  0  0
   14.7646  -18.8821   30.2662 C   0  0  0  0  0  0  0  0  0  0  0  0
   10.3034  -18.2458   28.3363 O   0  0  0  0  0  0  0  0  0  0  0  0
  2  1  1  0
  3  4  1  6
  3  5  1  0
  3  2  1  0
  5  6  1  1
  7  8  2  0
  7  5  1  0
  9  7  1  0
 10 21  1  0
 10  9  1  0
 10 11  1  1
 12 11  1  0
 13 12  2  0
 14 15  1  0
 14 13  1  0
 15 20  2  0
 16 15  1  0
 16 17  2  0
 17 18  1  0
 18 19  2  0
 20 12  1  0
 20 19  1  0
 21 30  1  0
 22 21  2  0
 23 24  1  0
 24 25  2  0
 24 34  1  0
 25 26  1  0
 26 27  2  0
 27 28  1  0
 29 28  1  1
 29 31  1  0
 30 29  1  0
 31 32  2  0
 31 35  1  0
 33 27  1  0
 34 33  2  0
M  END
$$$$
