IWY.pdb
     RDKit          3D

 35 37  0  0  1  0  0  0  0  0999 V2000
    6.6839  -12.5146   19.1076 C   0  0  0  0  0  0  0  0  0  0  0  0
    7.3334  -13.9044   19.2246 C   0  0  0  0  0  0  0  0  0  0  0  0
    8.0930  -13.9086   20.5008 C   0  0  2  0  0  0  0  0  0  0  0  0
    9.0003  -12.7032   20.5490 C   0  0  0  0  0  0  0  0  0  0  0  0
    8.7683  -15.1902   20.8714 C   0  0  2  0  0  0  0  0  0  0  0  0
    7.6977  -16.2045   20.8679 N   0  0  0  0  0  0  0  0  0  0  0  0
    9.3847  -15.2186   22.2076 C   0  0  0  0  0  0  0  0  0  0  0  0
   10.4468  -14.5537   22.4699 O   0  0  0  0  0  0  0  0  0  0  0  0
    8.8808  -15.9621   23.3106 N   0  0  0  0  0  0  0  0  0  0  0  0
    9.4067  -15.8822   24.6520 C   0  0  1  0  0  0  0  0  0  0  0  0
    8.3676  -16.1780   25.7186 C   0  0  0  0  0  0  0  0  0  0  0  0
    7.2831  -15.1765   25.7933 C   0  0  0  0  0  0  0  0  0  0  0  0
    5.9139  -15.3773   25.6303 C   0  0  0  0  0  0  0  0  0  0  0  0
    5.2525  -14.2121   25.7521 N   0  0  0  0  0  0  0  0  0  0  0  0
    6.1374  -13.2317   25.9930 C   0  0  0  0  0  0  0  0  0  0  0  0
    5.9591  -11.8801   26.1976 C   0  0  0  0  0  0  0  0  0  0  0  0
    7.0246  -11.0566   26.4387 C   0  0  0  0  0  0  0  0  0  0  0  0
    8.2836  -11.6052   26.4735 C   0  0  0  0  0  0  0  0  0  0  0  0
    8.4437  -12.9557   26.2671 C   0  0  0  0  0  0  0  0  0  0  0  0
    7.4008  -13.8218   26.0205 C   0  0  0  0  0  0  0  0  0  0  0  0
   10.6417  -16.6700   24.8253 C   0  0  0  0  0  0  0  0  0  0  0  0
   10.9502  -17.6369   24.0685 O   0  0  0  0  0  0  0  0  0  0  0  0
   16.2055  -20.1016   30.8652 O   0  0  0  0  0  0  0  0  0  0  0  0
   15.3895  -19.2509   30.1054 C   0  0  0  0  0  0  0  0  0  0  0  0
   15.8915  -18.6892   28.9373 C   0  0  0  0  0  0  0  0  0  0  0  0
   15.1312  -17.8491   28.1576 C   0  0  0  0  0  0  0  0  0  0  0  0
   13.8378  -17.5440   28.5257 C   0  0  0  0  0  0  0  0  0  0  0  0
   13.0346  -16.6337   27.6873 C   0  0  0  0  0  0  0  0  0  0  0  0
   12.4590  -17.3266   26.4459 C   0  0  2  0  0  0  0  0  0  0  0  0
   11.5386  -16.3483   25.8780 N   0  0  0  0  0  0  0  0  0  0  0  0
   11.6904  -18.4970   26.8807 C   0  0  0  0  0  0  0  0  0  0  0  0
   12.1665  -19.6468   26.7795 O   0  0  0  0  0  0  0  0  0  0  0  0
   13.3371  -18.1100   29.6997 C   0  0  0  0  0  0  0  0  0  0  0  0
   14.1069  -18.9490   30.4717 C   0  0  0  0  0  0  0  0  0  0  0  0
   10.4288  -18.3410   27.4085 O   0  0  0  0  0  0  0  0  0  0  0  0
  2  1  1  0
  3  4  1  6
  3  5  1  0
  3  2  1  0
  5  6  1  1
  7  8  2  0
  7  5  1  0
  9  7  1  0
 10 21  1  0
 10  9  1  0
 10 11  1  1
 12 11  1  0
 13 12  2  0
 14 15  1  0
 14 13  1  0
 15 20  2  0
 16 15  1  0
 16 17  2  0
 17 18  1  0
 18 19  2  0
 20 12  1  0
 20 19  1  0
 21 30  1  0
 22 21  2  0
 23 24  1  0
 24 25  2  0
 24 34  1  0
 25 26  1  0
 26 27  2  0
 27 28  1  0
 29 28  1  1
 29 31  1  0
 30 29  1  0
 31 32  2  0
 31 35  1  0
 33 27  1  0
 34 33  2  0
M  END
$$$$
