IWY.pdb
     RDKit          3D

 35 37  0  0  1  0  0  0  0  0999 V2000
    7.6393  -12.4312   17.7336 C   0  0  0  0  0  0  0  0  0  0  0  0
    7.4170  -13.8486   18.2892 C   0  0  0  0  0  0  0  0  0  0  0  0
    7.9000  -13.8315   19.6935 C   0  0  2  0  0  0  0  0  0  0  0  0
    9.2531  -13.1649   19.7510 C   0  0  0  0  0  0  0  0  0  0  0  0
    7.8301  -15.1257   20.4392 C   0  0  2  0  0  0  0  0  0  0  0  0
    6.4791  -15.6524   20.1703 N   0  0  0  0  0  0  0  0  0  0  0  0
    7.9699  -15.0234   21.9008 C   0  0  0  0  0  0  0  0  0  0  0  0
    7.6039  -13.9746   22.5373 O   0  0  0  0  0  0  0  0  0  0  0  0
    8.5073  -16.0456   22.7313 N   0  0  0  0  0  0  0  0  0  0  0  0
    9.5671  -15.8406   23.6889 C   0  0  1  0  0  0  0  0  0  0  0  0
    9.1119  -16.0092   25.1274 C   0  0  0  0  0  0  0  0  0  0  0  0
    7.8238  -15.3505   25.4299 C   0  0  0  0  0  0  0  0  0  0  0  0
    6.5615  -15.9325   25.5257 C   0  0  0  0  0  0  0  0  0  0  0  0
    5.6342  -14.9964   25.7978 N   0  0  0  0  0  0  0  0  0  0  0  0
    6.2362  -13.7999   25.8883 C   0  0  0  0  0  0  0  0  0  0  0  0
    5.7267  -12.5468   26.1539 C   0  0  0  0  0  0  0  0  0  0  0  0
    6.5428  -11.4501   26.2067 C   0  0  0  0  0  0  0  0  0  0  0  0
    7.8883  -11.6220   25.9888 C   0  0  0  0  0  0  0  0  0  0  0  0
    8.3801  -12.8792   25.7248 C   0  0  0  0  0  0  0  0  0  0  0  0
    7.5962  -14.0106   25.6615 C   0  0  0  0  0  0  0  0  0  0  0  0
   10.7743  -16.6287   23.3769 C   0  0  0  0  0  0  0  0  0  0  0  0
   10.7269  -17.7639   22.8184 O   0  0  0  0  0  0  0  0  0  0  0  0
   10.2139  -16.7845   31.0079 O   0  0  0  0  0  0  0  0  0  0  0  0
   10.6416  -16.3826   29.7341 C   0  0  0  0  0  0  0  0  0  0  0  0
    9.7679  -15.6804   28.9121 C   0  0  0  0  0  0  0  0  0  0  0  0
   10.1395  -15.2642   27.6550 C   0  0  0  0  0  0  0  0  0  0  0  0
   11.4043  -15.5398   27.1798 C   0  0  0  0  0  0  0  0  0  0  0  0
   11.7890  -15.0973   25.8259 C   0  0  0  0  0  0  0  0  0  0  0  0
   12.5906  -16.1589   25.0623 C   0  0  2  0  0  0  0  0  0  0  0  0
   12.0553  -16.1124   23.7066 N   0  0  0  0  0  0  0  0  0  0  0  0
   12.2914  -17.4727   25.6402 C   0  0  0  0  0  0  0  0  0  0  0  0
   11.1708  -17.9998   25.4809 O   0  0  0  0  0  0  0  0  0  0  0  0
   12.2790  -16.2454   28.0083 C   0  0  0  0  0  0  0  0  0  0  0  0
   11.8962  -16.6566   29.2640 C   0  0  0  0  0  0  0  0  0  0  0  0
   13.2473  -18.1438   26.3686 O   0  0  0  0  0  0  0  0  0  0  0  0
  2  1  1  0
  3  4  1  6
  3  5  1  0
  3  2  1  0
  5  6  1  1
  7  8  2  0
  7  5  1  0
  9  7  1  0
 10 21  1  0
 10  9  1  0
 10 11  1  1
 12 11  1  0
 13 12  2  0
 14 15  1  0
 14 13  1  0
 15 20  2  0
 16 15  1  0
 16 17  2  0
 17 18  1  0
 18 19  2  0
 20 12  1  0
 20 19  1  0
 21 30  1  0
 22 21  2  0
 23 24  1  0
 24 25  2  0
 24 34  1  0
 25 26  1  0
 26 27  2  0
 27 28  1  0
 29 28  1  1
 29 31  1  0
 30 29  1  0
 31 32  2  0
 31 35  1  0
 33 27  1  0
 34 33  2  0
M  END
$$$$
