IWY.pdb
     RDKit          3D

 35 37  0  0  1  0  0  0  0  0999 V2000
    7.2849  -13.7161   15.9376 C   0  0  0  0  0  0  0  0  0  0  0  0
    8.2667  -14.6969   16.6018 C   0  0  0  0  0  0  0  0  0  0  0  0
    8.3134  -14.3363   18.0417 C   0  0  2  0  0  0  0  0  0  0  0  0
    8.6825  -12.8794   18.1828 C   0  0  0  0  0  0  0  0  0  0  0  0
    9.0944  -15.2481   18.9331 C   0  0  2  0  0  0  0  0  0  0  0  0
    8.3984  -16.5462   18.8608 N   0  0  0  0  0  0  0  0  0  0  0  0
    9.1393  -14.8615   20.3525 C   0  0  0  0  0  0  0  0  0  0  0  0
    9.8908  -13.9104   20.7646 O   0  0  0  0  0  0  0  0  0  0  0  0
    8.3771  -15.4827   21.3803 N   0  0  0  0  0  0  0  0  0  0  0  0
    8.3792  -15.0615   22.7605 C   0  0  1  0  0  0  0  0  0  0  0  0
    7.3679  -15.8067   23.6130 C   0  0  0  0  0  0  0  0  0  0  0  0
    6.8876  -15.0397   24.7816 C   0  0  0  0  0  0  0  0  0  0  0  0
    6.0501  -15.4707   25.8084 C   0  0  0  0  0  0  0  0  0  0  0  0
    5.8264  -14.4708   26.6804 N   0  0  0  0  0  0  0  0  0  0  0  0
    6.4899  -13.3782   26.2704 C   0  0  0  0  0  0  0  0  0  0  0  0
    6.5843  -12.1166   26.8178 C   0  0  0  0  0  0  0  0  0  0  0  0
    7.3387  -11.1435   26.2215 C   0  0  0  0  0  0  0  0  0  0  0  0
    8.0050  -11.4491   25.0596 C   0  0  0  0  0  0  0  0  0  0  0  0
    7.8998  -12.7129   24.5267 C   0  0  0  0  0  0  0  0  0  0  0  0
    7.1519  -13.7227   25.0920 C   0  0  0  0  0  0  0  0  0  0  0  0
    9.7309  -15.0589   23.3510 C   0  0  0  0  0  0  0  0  0  0  0  0
   10.3805  -13.9950   23.5725 O   0  0  0  0  0  0  0  0  0  0  0  0
    9.0827  -14.5794   30.1257 O   0  0  0  0  0  0  0  0  0  0  0  0
    9.6155  -15.2904   29.0405 C   0  0  0  0  0  0  0  0  0  0  0  0
    9.8052  -14.6399   27.8268 C   0  0  0  0  0  0  0  0  0  0  0  0
   10.3243  -15.2929   26.7333 C   0  0  0  0  0  0  0  0  0  0  0  0
   10.6713  -16.6244   26.8219 C   0  0  0  0  0  0  0  0  0  0  0  0
   11.2180  -17.3176   25.6398 C   0  0  0  0  0  0  0  0  0  0  0  0
   11.5656  -16.3546   24.4978 C   0  0  2  0  0  0  0  0  0  0  0  0
   10.3499  -16.2896   23.6949 N   0  0  0  0  0  0  0  0  0  0  0  0
   12.6303  -16.9567   23.6894 C   0  0  0  0  0  0  0  0  0  0  0  0
   12.3714  -17.4992   22.5950 O   0  0  0  0  0  0  0  0  0  0  0  0
   10.4792  -17.2744   28.0426 C   0  0  0  0  0  0  0  0  0  0  0  0
    9.9592  -16.6110   29.1297 C   0  0  0  0  0  0  0  0  0  0  0  0
   13.9342  -16.9303   24.1294 O   0  0  0  0  0  0  0  0  0  0  0  0
  2  1  1  0
  3  4  1  6
  3  5  1  0
  3  2  1  0
  5  6  1  1
  7  8  2  0
  7  5  1  0
  9  7  1  0
 10 21  1  0
 10  9  1  0
 10 11  1  1
 12 11  1  0
 13 12  2  0
 14 15  1  0
 14 13  1  0
 15 20  2  0
 16 15  1  0
 16 17  2  0
 17 18  1  0
 18 19  2  0
 20 12  1  0
 20 19  1  0
 21 30  1  0
 22 21  2  0
 23 24  1  0
 24 25  2  0
 24 34  1  0
 25 26  1  0
 26 27  2  0
 27 28  1  0
 29 28  1  1
 29 31  1  0
 30 29  1  0
 31 32  2  0
 31 35  1  0
 33 27  1  0
 34 33  2  0
M  END
$$$$
