YHS.pdb
     RDKit          3D

 29 30  0  0  1  0  0  0  0  0999 V2000
    8.2731  -12.7656   23.2916 O   0  0  0  0  0  0  0  0  0  0  0  0
    8.0804  -13.0897   21.9598 C   0  0  0  0  0  0  0  0  0  0  0  0
    7.8230  -14.4027   21.6083 C   0  0  0  0  0  0  0  0  0  0  0  0
    7.6327  -14.7222   20.2862 C   0  0  0  0  0  0  0  0  0  0  0  0
    7.6836  -13.7998   19.2731 C   0  0  0  0  0  0  0  0  0  0  0  0
    7.4825  -14.1031   17.8487 C   0  0  0  0  0  0  0  0  0  0  0  0
    8.7928  -14.1619   17.1510 C   0  0  2  0  0  0  0  0  0  0  0  0
    8.6115  -14.6901   15.8202 N   0  0  0  0  0  0  0  0  0  0  0  0
    9.8315  -14.9064   17.8626 C   0  0  0  0  0  0  0  0  0  0  0  0
    9.8729  -16.1686   17.6547 O   0  0  0  0  0  0  0  0  0  0  0  0
    7.9440  -12.4826   19.6454 C   0  0  0  0  0  0  0  0  0  0  0  0
    8.1374  -12.1500   20.9787 C   0  0  0  0  0  0  0  0  0  0  0  0
   10.7984  -14.4117   18.7541 N   0  0  0  0  0  0  0  0  0  0  0  0
   11.8196  -15.1876   19.3766 C   0  0  1  0  0  0  0  0  0  0  0  0
   13.2125  -14.7402   19.2397 C   0  0  0  0  0  0  0  0  0  0  0  0
   13.8245  -14.9889   17.9172 C   0  0  0  0  0  0  0  0  0  0  0  0
   13.4685  -16.0883   17.1393 C   0  0  0  0  0  0  0  0  0  0  0  0
   14.1792  -16.0540   16.0147 N   0  0  0  0  0  0  0  0  0  0  0  0
   14.9595  -14.9785   16.0672 C   0  0  0  0  0  0  0  0  0  0  0  0
   14.7458  -14.3138   17.2415 N   0  0  0  0  0  0  0  0  0  0  0  0
   11.4319  -15.4520   20.7897 C   0  0  0  0  0  0  0  0  0  0  0  0
   11.2987  -14.4726   21.5581 O   0  0  0  0  0  0  0  0  0  0  0  0
   10.5540  -19.3919   22.2804 O   0  0  0  0  0  0  0  0  0  0  0  0
    9.9817  -18.2573   22.7948 C   0  0  0  0  0  0  0  0  0  0  0  0
   10.8607  -17.0305   22.6857 C   0  0  2  0  0  0  0  0  0  0  0  0
   11.2052  -16.7356   21.3119 N   0  0  0  0  0  0  0  0  0  0  0  0
   12.0391  -17.1097   23.5697 C   0  0  0  0  0  0  0  0  0  0  0  0
   13.2108  -17.1023   23.1508 O   0  0  0  0  0  0  0  0  0  0  0  0
   11.8405  -17.1980   24.9625 O   0  0  0  0  0  0  0  0  0  0  0  0
  2  1  1  0
  3  2  2  0
  4  3  1  0
  5 11  1  0
  5  4  2  0
  6  7  1  0
  6  5  1  0
  7  9  1  0
  7  8  1  6
  9 10  2  0
 11 12  2  0
 12  2  1  0
 13 14  1  0
 13  9  1  0
 14 21  1  0
 15 16  1  0
 14 15  1  1
 16 17  2  0
 17 18  1  0
 19 18  1  0
 20 16  1  0
 20 19  2  0
 21 26  1  0
 22 21  2  0
 24 23  1  0
 25 24  1  6
 26 25  1  0
 27 29  1  0
 27 25  1  0
 28 27  2  0
M  END
$$$$
