YHS.pdb
     RDKit          3D

 29 30  0  0  1  0  0  0  0  0999 V2000
    6.8589  -11.1743   18.8243 O   0  0  0  0  0  0  0  0  0  0  0  0
    7.5091  -12.3142   19.2641 C   0  0  0  0  0  0  0  0  0  0  0  0
    6.7717  -13.3579   19.7940 C   0  0  0  0  0  0  0  0  0  0  0  0
    7.4190  -14.4880   20.2303 C   0  0  0  0  0  0  0  0  0  0  0  0
    8.7795  -14.6473   20.1714 C   0  0  0  0  0  0  0  0  0  0  0  0
    9.5067  -15.8417   20.6254 C   0  0  0  0  0  0  0  0  0  0  0  0
   10.0344  -16.5911   19.4563 C   0  0  2  0  0  0  0  0  0  0  0  0
    8.9392  -17.1675   18.7138 N   0  0  0  0  0  0  0  0  0  0  0  0
   11.0284  -17.6132   19.7831 C   0  0  0  0  0  0  0  0  0  0  0  0
   10.5759  -18.7623   20.1194 O   0  0  0  0  0  0  0  0  0  0  0  0
    9.5061  -13.5864   19.6351 C   0  0  0  0  0  0  0  0  0  0  0  0
    8.8610  -12.4406   19.1913 C   0  0  0  0  0  0  0  0  0  0  0  0
   12.4286  -17.4965   19.7772 N   0  0  0  0  0  0  0  0  0  0  0  0
   13.3436  -18.5288   20.1367 C   0  0  1  0  0  0  0  0  0  0  0  0
   14.3822  -18.9049   19.1677 C   0  0  0  0  0  0  0  0  0  0  0  0
   14.0492  -18.6326   17.7533 C   0  0  0  0  0  0  0  0  0  0  0  0
   12.7674  -18.8398   17.2486 C   0  0  0  0  0  0  0  0  0  0  0  0
   12.7677  -18.5160   15.9578 N   0  0  0  0  0  0  0  0  0  0  0  0
   13.9974  -18.1181   15.6454 C   0  0  0  0  0  0  0  0  0  0  0  0
   14.7965  -18.1871   16.7513 N   0  0  0  0  0  0  0  0  0  0  0  0
   13.8915  -18.2390   21.4905 C   0  0  0  0  0  0  0  0  0  0  0  0
   14.5560  -17.1893   21.6457 O   0  0  0  0  0  0  0  0  0  0  0  0
   13.3088  -20.8763   24.8102 O   0  0  0  0  0  0  0  0  0  0  0  0
   13.3332  -19.5170   24.9872 C   0  0  0  0  0  0  0  0  0  0  0  0
   14.1550  -18.7840   23.9494 C   0  0  2  0  0  0  0  0  0  0  0  0
   13.7060  -19.0730   22.6048 N   0  0  0  0  0  0  0  0  0  0  0  0
   15.6029  -19.0009   24.1311 C   0  0  0  0  0  0  0  0  0  0  0  0
   16.2068  -18.7410   25.1876 O   0  0  0  0  0  0  0  0  0  0  0  0
   16.3515  -19.5300   23.0602 O   0  0  0  0  0  0  0  0  0  0  0  0
  2  1  1  0
  3  2  2  0
  4  3  1  0
  5 11  1  0
  5  4  2  0
  6  7  1  0
  6  5  1  0
  7  9  1  0
  7  8  1  1
  9 10  2  0
 11 12  2  0
 12  2  1  0
 13 14  1  0
 13  9  1  0
 14 21  1  0
 15 16  1  0
 14 15  1  6
 16 17  2  0
 17 18  1  0
 19 18  1  0
 20 16  1  0
 20 19  2  0
 21 26  1  0
 22 21  2  0
 24 23  1  0
 25 24  1  1
 26 25  1  0
 27 29  1  0
 27 25  1  0
 28 27  2  0
M  END
$$$$
