YHS.pdb
     RDKit          3D

 29 30  0  0  1  0  0  0  0  0999 V2000
    7.6098  -11.4841   18.2391 O   0  0  0  0  0  0  0  0  0  0  0  0
    8.0825  -12.4478   19.1129 C   0  0  0  0  0  0  0  0  0  0  0  0
    7.1870  -13.1652   19.8857 C   0  0  0  0  0  0  0  0  0  0  0  0
    7.6582  -14.1207   20.7525 C   0  0  0  0  0  0  0  0  0  0  0  0
    8.9897  -14.4122   20.9012 C   0  0  0  0  0  0  0  0  0  0  0  0
    9.5310  -15.4285   21.8154 C   0  0  0  0  0  0  0  0  0  0  0  0
   10.0685  -16.5760   21.0398 C   0  0  2  0  0  0  0  0  0  0  0  0
    9.0271  -17.1315   20.2092 N   0  0  0  0  0  0  0  0  0  0  0  0
   10.6935  -17.6218   21.8491 C   0  0  0  0  0  0  0  0  0  0  0  0
    9.9128  -18.5158   22.3283 O   0  0  0  0  0  0  0  0  0  0  0  0
    9.8771  -13.6800   20.1154 C   0  0  0  0  0  0  0  0  0  0  0  0
    9.4104  -12.7128   19.2365 C   0  0  0  0  0  0  0  0  0  0  0  0
   12.0523  -17.7737   22.1732 N   0  0  0  0  0  0  0  0  0  0  0  0
   12.6090  -18.8648   22.9024 C   0  0  1  0  0  0  0  0  0  0  0  0
   13.6720  -19.6551   22.2662 C   0  0  0  0  0  0  0  0  0  0  0  0
   13.3059  -20.2752   20.9751 C   0  0  0  0  0  0  0  0  0  0  0  0
   13.4092  -19.5803   19.7722 C   0  0  0  0  0  0  0  0  0  0  0  0
   13.0104  -20.3833   18.7887 N   0  0  0  0  0  0  0  0  0  0  0  0
   12.6650  -21.5450   19.3357 C   0  0  0  0  0  0  0  0  0  0  0  0
   12.8451  -21.4863   20.6887 N   0  0  0  0  0  0  0  0  0  0  0  0
   12.9728  -18.3975   24.2686 C   0  0  0  0  0  0  0  0  0  0  0  0
   12.9813  -17.1649   24.4877 O   0  0  0  0  0  0  0  0  0  0  0  0
   10.7485  -19.1942   27.9676 O   0  0  0  0  0  0  0  0  0  0  0  0
   11.2766  -19.2037   26.7025 C   0  0  0  0  0  0  0  0  0  0  0  0
   12.7890  -19.1638   26.6752 C   0  0  2  0  0  0  0  0  0  0  0  0
   13.3057  -19.2579   25.3271 N   0  0  0  0  0  0  0  0  0  0  0  0
   13.3886  -20.1527   27.5910 C   0  0  0  0  0  0  0  0  0  0  0  0
   13.5135  -21.3584   27.3100 O   0  0  0  0  0  0  0  0  0  0  0  0
   13.8478  -19.7216   28.8522 O   0  0  0  0  0  0  0  0  0  0  0  0
  2  1  1  0
  3  2  2  0
  4  3  1  0
  5 11  1  0
  5  4  2  0
  6  7  1  0
  6  5  1  0
  7  9  1  0
  7  8  1  1
  9 10  2  0
 11 12  2  0
 12  2  1  0
 13 14  1  0
 13  9  1  0
 14 21  1  0
 15 16  1  0
 14 15  1  6
 16 17  2  0
 17 18  1  0
 19 18  1  0
 20 16  1  0
 20 19  2  0
 21 26  1  0
 22 21  2  0
 24 23  1  0
 25 24  1  6
 26 25  1  0
 27 29  1  0
 27 25  1  0
 28 27  2  0
M  END
$$$$
