YHS.pdb
     RDKit          3D

 29 30  0  0  1  0  0  0  0  0999 V2000
    5.6331  -10.9537   28.7872 O   0  0  0  0  0  0  0  0  0  0  0  0
    6.2653  -11.8377   27.9302 C   0  0  0  0  0  0  0  0  0  0  0  0
    5.8040  -11.9775   26.6335 C   0  0  0  0  0  0  0  0  0  0  0  0
    6.4325  -12.8557   25.7848 C   0  0  0  0  0  0  0  0  0  0  0  0
    7.5112  -13.6177   26.1527 C   0  0  0  0  0  0  0  0  0  0  0  0
    8.2109  -14.5651   25.2728 C   0  0  0  0  0  0  0  0  0  0  0  0
    7.2257  -15.3936   24.5312 C   0  0  2  0  0  0  0  0  0  0  0  0
    7.0587  -16.6629   25.1976 N   0  0  0  0  0  0  0  0  0  0  0  0
    7.5366  -15.5930   23.1159 C   0  0  0  0  0  0  0  0  0  0  0  0
    8.0493  -16.7218   22.7977 O   0  0  0  0  0  0  0  0  0  0  0  0
    7.9621  -13.4642   27.4621 C   0  0  0  0  0  0  0  0  0  0  0  0
    7.3338  -12.5792   28.3268 C   0  0  0  0  0  0  0  0  0  0  0  0
    7.3451  -14.6977   22.0501 N   0  0  0  0  0  0  0  0  0  0  0  0
    7.7619  -14.9165   20.7044 C   0  0  1  0  0  0  0  0  0  0  0  0
    7.5054  -13.8588   19.7171 C   0  0  0  0  0  0  0  0  0  0  0  0
    7.8990  -14.1861   18.3303 C   0  0  0  0  0  0  0  0  0  0  0  0
    8.4995  -15.4003   18.0054 C   0  0  0  0  0  0  0  0  0  0  0  0
    8.7423  -15.4111   16.6969 N   0  0  0  0  0  0  0  0  0  0  0  0
    8.3165  -14.2530   16.2015 C   0  0  0  0  0  0  0  0  0  0  0  0
    7.7931  -13.4891   17.2060 N   0  0  0  0  0  0  0  0  0  0  0  0
    9.1779  -15.3770   20.7060 C   0  0  0  0  0  0  0  0  0  0  0  0
   10.0488  -14.6051   21.1679 O   0  0  0  0  0  0  0  0  0  0  0  0
   10.3066  -19.3177   20.7631 O   0  0  0  0  0  0  0  0  0  0  0  0
   11.2044  -18.3076   20.9935 C   0  0  0  0  0  0  0  0  0  0  0  0
   10.9672  -17.0784   20.1436 C   0  0  2  0  0  0  0  0  0  0  0  0
    9.5948  -16.6270   20.2211 N   0  0  0  0  0  0  0  0  0  0  0  0
   11.4344  -17.2622   18.7564 C   0  0  0  0  0  0  0  0  0  0  0  0
   12.6099  -17.5445   18.4617 O   0  0  0  0  0  0  0  0  0  0  0  0
   10.5109  -17.1136   17.7018 O   0  0  0  0  0  0  0  0  0  0  0  0
  2  1  1  0
  3  2  2  0
  4  3  1  0
  5 11  1  0
  5  4  2  0
  6  7  1  0
  6  5  1  0
  7  9  1  0
  7  8  1  1
  9 10  2  0
 11 12  2  0
 12  2  1  0
 13 14  1  0
 13  9  1  0
 14 21  1  0
 15 16  1  0
 14 15  1  6
 16 17  2  0
 17 18  1  0
 19 18  1  0
 20 16  1  0
 20 19  2  0
 21 26  1  0
 22 21  2  0
 24 23  1  0
 25 24  1  1
 26 25  1  0
 27 29  1  0
 27 25  1  0
 28 27  2  0
M  END
$$$$
