YHS.pdb
     RDKit          3D

 29 30  0  0  1  0  0  0  0  0999 V2000
   10.8861  -22.1530   19.8951 O   0  0  0  0  0  0  0  0  0  0  0  0
   11.2152  -21.3006   18.8555 C   0  0  0  0  0  0  0  0  0  0  0  0
   12.5032  -21.3069   18.3507 C   0  0  0  0  0  0  0  0  0  0  0  0
   12.8278  -20.4600   17.3194 C   0  0  0  0  0  0  0  0  0  0  0  0
   11.9342  -19.5909   16.7484 C   0  0  0  0  0  0  0  0  0  0  0  0
   12.2436  -18.6726   15.6428 C   0  0  0  0  0  0  0  0  0  0  0  0
   12.5301  -17.3151   16.1738 C   0  0  2  0  0  0  0  0  0  0  0  0
   12.8653  -16.4282   15.0856 N   0  0  0  0  0  0  0  0  0  0  0  0
   13.5607  -17.2690   17.2107 C   0  0  0  0  0  0  0  0  0  0  0  0
   14.6249  -16.6161   16.9290 O   0  0  0  0  0  0  0  0  0  0  0  0
   10.6420  -19.5980   17.2692 C   0  0  0  0  0  0  0  0  0  0  0  0
   10.3045  -20.4504   18.3110 C   0  0  0  0  0  0  0  0  0  0  0  0
   13.5349  -17.8549   18.4876 N   0  0  0  0  0  0  0  0  0  0  0  0
   14.3480  -17.4631   19.5911 C   0  0  1  0  0  0  0  0  0  0  0  0
   14.4347  -16.0328   19.9167 C   0  0  0  0  0  0  0  0  0  0  0  0
   15.2698  -15.2296   18.9986 C   0  0  0  0  0  0  0  0  0  0  0  0
   14.7425  -14.1684   18.2663 C   0  0  0  0  0  0  0  0  0  0  0  0
   15.7183  -13.6404   17.5314 N   0  0  0  0  0  0  0  0  0  0  0  0
   16.8259  -14.3328   17.7801 C   0  0  0  0  0  0  0  0  0  0  0  0
   16.5568  -15.3182   18.6873 N   0  0  0  0  0  0  0  0  0  0  0  0
   14.0025  -18.3058   20.7690 C   0  0  0  0  0  0  0  0  0  0  0  0
   12.8995  -18.1131   21.3292 O   0  0  0  0  0  0  0  0  0  0  0  0
   15.2915  -22.1128   21.1990 O   0  0  0  0  0  0  0  0  0  0  0  0
   15.3432  -21.4373   22.3909 C   0  0  0  0  0  0  0  0  0  0  0  0
   14.5203  -20.1676   22.4056 C   0  0  2  0  0  0  0  0  0  0  0  0
   14.8403  -19.3056   21.2886 N   0  0  0  0  0  0  0  0  0  0  0  0
   14.5905  -19.4738   23.7056 C   0  0  0  0  0  0  0  0  0  0  0  0
   14.9108  -18.2776   23.8268 O   0  0  0  0  0  0  0  0  0  0  0  0
   14.2806  -20.1924   24.8782 O   0  0  0  0  0  0  0  0  0  0  0  0
  2  1  1  0
  3  2  2  0
  4  3  1  0
  5 11  1  0
  5  4  2  0
  6  7  1  0
  6  5  1  0
  7  9  1  0
  7  8  1  6
  9 10  2  0
 11 12  2  0
 12  2  1  0
 13 14  1  0
 13  9  1  0
 14 21  1  0
 15 16  1  0
 14 15  1  1
 16 17  2  0
 17 18  1  0
 19 18  1  0
 20 16  1  0
 20 19  2  0
 21 26  1  0
 22 21  2  0
 24 23  1  0
 25 24  1  1
 26 25  1  0
 27 29  1  0
 27 25  1  0
 28 27  2  0
M  END
$$$$
