YHS.pdb
     RDKit          3D

 29 30  0  0  1  0  0  0  0  0999 V2000
    6.6814  -10.7464   26.7657 O   0  0  0  0  0  0  0  0  0  0  0  0
    6.6802  -12.1120   26.5401 C   0  0  0  0  0  0  0  0  0  0  0  0
    5.4778  -12.7720   26.3601 C   0  0  0  0  0  0  0  0  0  0  0  0
    5.4789  -14.1271   26.1368 C   0  0  0  0  0  0  0  0  0  0  0  0
    6.6229  -14.8807   26.0807 C   0  0  0  0  0  0  0  0  0  0  0  0
    6.6639  -16.3307   25.8414 C   0  0  0  0  0  0  0  0  0  0  0  0
    6.5661  -16.6091   24.3854 C   0  0  2  0  0  0  0  0  0  0  0  0
    5.9035  -17.8741   24.1759 N   0  0  0  0  0  0  0  0  0  0  0  0
    7.8406  -16.5714   23.6687 C   0  0  0  0  0  0  0  0  0  0  0  0
    8.5272  -17.6516   23.6680 O   0  0  0  0  0  0  0  0  0  0  0  0
    7.8244  -14.1997   26.2643 C   0  0  0  0  0  0  0  0  0  0  0  0
    7.8335  -12.8305   26.4901 C   0  0  0  0  0  0  0  0  0  0  0  0
    8.4155  -15.4930   22.9752 N   0  0  0  0  0  0  0  0  0  0  0  0
    9.6083  -15.5550   22.1971 C   0  0  1  0  0  0  0  0  0  0  0  0
    9.9212  -14.4230   21.3139 C   0  0  0  0  0  0  0  0  0  0  0  0
    8.8872  -14.1098   20.3049 C   0  0  0  0  0  0  0  0  0  0  0  0
    7.7966  -14.9488   20.0874 C   0  0  0  0  0  0  0  0  0  0  0  0
    7.0438  -14.4174   19.1272 N   0  0  0  0  0  0  0  0  0  0  0  0
    7.6256  -13.2851   18.7432 C   0  0  0  0  0  0  0  0  0  0  0  0
    8.7670  -13.0874   19.4675 N   0  0  0  0  0  0  0  0  0  0  0  0
   10.7446  -15.9300   23.0834 C   0  0  0  0  0  0  0  0  0  0  0  0
   11.0124  -15.1791   24.0488 O   0  0  0  0  0  0  0  0  0  0  0  0
   11.9860  -19.7898   23.7780 O   0  0  0  0  0  0  0  0  0  0  0  0
   12.3388  -18.7093   24.5446 C   0  0  0  0  0  0  0  0  0  0  0  0
   12.6477  -17.4670   23.7379 C   0  0  2  0  0  0  0  0  0  0  0  0
   11.5332  -17.0774   22.9016 N   0  0  0  0  0  0  0  0  0  0  0  0
   13.9129  -17.5897   22.9893 C   0  0  0  0  0  0  0  0  0  0  0  0
   15.0129  -17.7960   23.5332 O   0  0  0  0  0  0  0  0  0  0  0  0
   13.8872  -17.4693   21.5850 O   0  0  0  0  0  0  0  0  0  0  0  0
  2  1  1  0
  3  2  2  0
  4  3  1  0
  5 11  1  0
  5  4  2  0
  6  7  1  0
  6  5  1  0
  7  9  1  0
  7  8  1  1
  9 10  2  0
 11 12  2  0
 12  2  1  0
 13 14  1  0
 13  9  1  0
 14 21  1  0
 15 16  1  0
 14 15  1  1
 16 17  2  0
 17 18  1  0
 19 18  1  0
 20 16  1  0
 20 19  2  0
 21 26  1  0
 22 21  2  0
 24 23  1  0
 25 24  1  6
 26 25  1  0
 27 29  1  0
 27 25  1  0
 28 27  2  0
M  END
$$$$
