YHS.pdb
     RDKit          3D

 29 30  0  0  1  0  0  0  0  0999 V2000
    7.7697  -11.6627   18.1707 O   0  0  0  0  0  0  0  0  0  0  0  0
    8.0750  -12.6082   19.1344 C   0  0  0  0  0  0  0  0  0  0  0  0
    7.1193  -12.9599   20.0708 C   0  0  0  0  0  0  0  0  0  0  0  0
    7.4244  -13.8979   21.0265 C   0  0  0  0  0  0  0  0  0  0  0  0
    8.6438  -14.5192   21.1104 C   0  0  0  0  0  0  0  0  0  0  0  0
    9.0059  -15.5286   22.1161 C   0  0  0  0  0  0  0  0  0  0  0  0
    8.8078  -16.8927   21.5621 C   0  0  2  0  0  0  0  0  0  0  0  0
    7.3989  -17.1386   21.3680 N   0  0  0  0  0  0  0  0  0  0  0  0
    9.4134  -17.9664   22.3494 C   0  0  0  0  0  0  0  0  0  0  0  0
    8.7231  -18.4145   23.3297 O   0  0  0  0  0  0  0  0  0  0  0  0
    9.5940  -14.1526   20.1596 C   0  0  0  0  0  0  0  0  0  0  0  0
    9.2949  -13.2061   19.1898 C   0  0  0  0  0  0  0  0  0  0  0  0
   10.6670  -18.5749   22.1689 N   0  0  0  0  0  0  0  0  0  0  0  0
   11.1676  -19.6728   22.9281 C   0  0  1  0  0  0  0  0  0  0  0  0
   12.1261  -20.5823   22.2852 C   0  0  0  0  0  0  0  0  0  0  0  0
   12.5635  -21.7233   23.1172 C   0  0  0  0  0  0  0  0  0  0  0  0
   11.7688  -22.2304   24.1428 C   0  0  0  0  0  0  0  0  0  0  0  0
   12.4172  -23.2424   24.7143 N   0  0  0  0  0  0  0  0  0  0  0  0
   13.5796  -23.3800   24.0834 C   0  0  0  0  0  0  0  0  0  0  0  0
   13.6777  -22.4436   23.0934 N   0  0  0  0  0  0  0  0  0  0  0  0
   11.6398  -19.1718   24.2484 C   0  0  0  0  0  0  0  0  0  0  0  0
   12.3220  -18.1222   24.2716 O   0  0  0  0  0  0  0  0  0  0  0  0
   10.8996  -18.7442   28.9578 O   0  0  0  0  0  0  0  0  0  0  0  0
   10.5634  -19.0942   27.6756 C   0  0  0  0  0  0  0  0  0  0  0  0
   11.7578  -19.3174   26.7738 C   0  0  2  0  0  0  0  0  0  0  0  0
   11.3641  -19.8063   25.4703 N   0  0  0  0  0  0  0  0  0  0  0  0
   12.7900  -20.1545   27.4142 C   0  0  0  0  0  0  0  0  0  0  0  0
   12.9753  -21.3512   27.1281 O   0  0  0  0  0  0  0  0  0  0  0  0
   13.6155  -19.5803   28.4021 O   0  0  0  0  0  0  0  0  0  0  0  0
  2  1  1  0
  3  2  2  0
  4  3  1  0
  5 11  1  0
  5  4  2  0
  6  7  1  0
  6  5  1  0
  7  9  1  0
  7  8  1  1
  9 10  2  0
 11 12  2  0
 12  2  1  0
 13 14  1  0
 13  9  1  0
 14 21  1  0
 15 16  1  0
 14 15  1  6
 16 17  2  0
 17 18  1  0
 19 18  1  0
 20 16  1  0
 20 19  2  0
 21 26  1  0
 22 21  2  0
 24 23  1  0
 25 24  1  1
 26 25  1  0
 27 29  1  0
 27 25  1  0
 28 27  2  0
M  END
$$$$
