YHS.pdb
     RDKit          3D

 29 30  0  0  1  0  0  0  0  0999 V2000
    5.4395  -12.6395   19.3740 O   0  0  0  0  0  0  0  0  0  0  0  0
    6.7631  -13.0123   19.5314 C   0  0  0  0  0  0  0  0  0  0  0  0
    7.7580  -12.2664   18.9250 C   0  0  0  0  0  0  0  0  0  0  0  0
    9.0707  -12.6384   19.0821 C   0  0  0  0  0  0  0  0  0  0  0  0
    9.4627  -13.7265   19.8184 C   0  0  0  0  0  0  0  0  0  0  0  0
   10.8561  -14.1537   20.0114 C   0  0  0  0  0  0  0  0  0  0  0  0
   11.3761  -14.7722   18.7648 C   0  0  2  0  0  0  0  0  0  0  0  0
   10.5399  -15.8873   18.3902 N   0  0  0  0  0  0  0  0  0  0  0  0
   12.7798  -15.1790   18.8234 C   0  0  0  0  0  0  0  0  0  0  0  0
   13.0130  -16.3663   19.2408 O   0  0  0  0  0  0  0  0  0  0  0  0
    8.4476  -14.4661   20.4217 C   0  0  0  0  0  0  0  0  0  0  0  0
    7.1184  -14.0979   20.2691 C   0  0  0  0  0  0  0  0  0  0  0  0
   13.9167  -14.4285   18.4790 N   0  0  0  0  0  0  0  0  0  0  0  0
   15.2660  -14.8712   18.6044 C   0  0  1  0  0  0  0  0  0  0  0  0
   16.2464  -14.3996   17.6166 C   0  0  0  0  0  0  0  0  0  0  0  0
   16.0694  -14.9371   16.2509 C   0  0  0  0  0  0  0  0  0  0  0  0
   15.5889  -16.2251   16.0260 C   0  0  0  0  0  0  0  0  0  0  0  0
   15.5402  -16.4310   14.7121 N   0  0  0  0  0  0  0  0  0  0  0  0
   15.9715  -15.3228   14.1173 C   0  0  0  0  0  0  0  0  0  0  0  0
   16.3009  -14.3932   15.0627 N   0  0  0  0  0  0  0  0  0  0  0  0
   15.7136  -14.6650   20.0095 C   0  0  0  0  0  0  0  0  0  0  0  0
   15.9702  -13.4974   20.3816 O   0  0  0  0  0  0  0  0  0  0  0  0
   15.4794  -17.7803   22.8997 O   0  0  0  0  0  0  0  0  0  0  0  0
   15.3274  -16.4546   23.2144 C   0  0  0  0  0  0  0  0  0  0  0  0
   16.1525  -15.5265   22.3499 C   0  0  2  0  0  0  0  0  0  0  0  0
   15.8639  -15.7028   20.9432 N   0  0  0  0  0  0  0  0  0  0  0  0
   17.5928  -15.6138   22.6567 C   0  0  0  0  0  0  0  0  0  0  0  0
   18.0718  -15.3515   23.7748 O   0  0  0  0  0  0  0  0  0  0  0  0
   18.4824  -16.0144   21.6391 O   0  0  0  0  0  0  0  0  0  0  0  0
  2  1  1  0
  3  2  2  0
  4  3  1  0
  5 11  1  0
  5  4  2  0
  6  7  1  0
  6  5  1  0
  7  9  1  0
  7  8  1  1
  9 10  2  0
 11 12  2  0
 12  2  1  0
 13 14  1  0
 13  9  1  0
 14 21  1  0
 15 16  1  0
 14 15  1  6
 16 17  2  0
 17 18  1  0
 19 18  1  0
 20 16  1  0
 20 19  2  0
 21 26  1  0
 22 21  2  0
 24 23  1  0
 25 24  1  1
 26 25  1  0
 27 29  1  0
 27 25  1  0
 28 27  2  0
M  END
$$$$
