YHS.pdb
     RDKit          3D

 29 30  0  0  1  0  0  0  0  0999 V2000
    8.2864  -11.9171   17.4465 O   0  0  0  0  0  0  0  0  0  0  0  0
    8.0679  -12.5387   18.6637 C   0  0  0  0  0  0  0  0  0  0  0  0
    8.9760  -12.3615   19.6922 C   0  0  0  0  0  0  0  0  0  0  0  0
    8.7575  -12.9796   20.8990 C   0  0  0  0  0  0  0  0  0  0  0  0
    7.6717  -13.7779   21.1511 C   0  0  0  0  0  0  0  0  0  0  0  0
    7.4030  -14.4530   22.4292 C   0  0  0  0  0  0  0  0  0  0  0  0
    8.3511  -15.5810   22.6182 C   0  0  2  0  0  0  0  0  0  0  0  0
    8.3863  -16.3914   21.4244 N   0  0  0  0  0  0  0  0  0  0  0  0
    8.0888  -16.4097   23.7945 C   0  0  0  0  0  0  0  0  0  0  0  0
    7.9399  -15.7924   24.9059 O   0  0  0  0  0  0  0  0  0  0  0  0
    6.7678  -13.9453   20.1042 C   0  0  0  0  0  0  0  0  0  0  0  0
    6.9798  -13.3246   18.8813 C   0  0  0  0  0  0  0  0  0  0  0  0
    7.9794  -17.8088   23.8645 N   0  0  0  0  0  0  0  0  0  0  0  0
    7.8592  -18.5674   25.0654 C   0  0  1  0  0  0  0  0  0  0  0  0
    7.3506  -19.9427   24.9703 C   0  0  0  0  0  0  0  0  0  0  0  0
    7.2069  -20.6494   26.2609 C   0  0  0  0  0  0  0  0  0  0  0  0
    6.4586  -20.1178   27.3088 C   0  0  0  0  0  0  0  0  0  0  0  0
    6.5125  -20.9646   28.3340 N   0  0  0  0  0  0  0  0  0  0  0  0
    7.2639  -21.9965   27.9616 C   0  0  0  0  0  0  0  0  0  0  0  0
    7.6974  -21.8091   26.6797 N   0  0  0  0  0  0  0  0  0  0  0  0
    9.1356  -18.4728   25.8265 C   0  0  0  0  0  0  0  0  0  0  0  0
   10.0973  -17.8741   25.2934 O   0  0  0  0  0  0  0  0  0  0  0  0
   10.1402  -16.7960   29.0014 O   0  0  0  0  0  0  0  0  0  0  0  0
   10.9382  -17.4624   28.1076 C   0  0  0  0  0  0  0  0  0  0  0  0
   10.5356  -18.9049   27.8919 C   0  0  2  0  0  0  0  0  0  0  0  0
    9.3244  -19.0143   27.1081 N   0  0  0  0  0  0  0  0  0  0  0  0
   10.4717  -19.6602   29.1574 C   0  0  0  0  0  0  0  0  0  0  0  0
   11.4182  -19.7290   29.9622 O   0  0  0  0  0  0  0  0  0  0  0  0
    9.2821  -20.3429   29.4832 O   0  0  0  0  0  0  0  0  0  0  0  0
  2  1  1  0
  3  2  2  0
  4  3  1  0
  5 11  1  0
  5  4  2  0
  6  7  1  0
  6  5  1  0
  7  9  1  0
  7  8  1  6
  9 10  2  0
 11 12  2  0
 12  2  1  0
 13 14  1  0
 13  9  1  0
 14 21  1  0
 15 16  1  0
 14 15  1  6
 16 17  2  0
 17 18  1  0
 19 18  1  0
 20 16  1  0
 20 19  2  0
 21 26  1  0
 22 21  2  0
 24 23  1  0
 25 24  1  1
 26 25  1  0
 27 29  1  0
 27 25  1  0
 28 27  2  0
M  END
$$$$
