YHS.pdb
     RDKit          3D

 29 30  0  0  1  0  0  0  0  0999 V2000
    7.7032  -11.3045   27.1375 O   0  0  0  0  0  0  0  0  0  0  0  0
    7.3733  -12.5876   26.7372 C   0  0  0  0  0  0  0  0  0  0  0  0
    8.2861  -13.6122   26.9126 C   0  0  0  0  0  0  0  0  0  0  0  0
    7.9569  -14.8847   26.5142 C   0  0  0  0  0  0  0  0  0  0  0  0
    6.7537  -15.2073   25.9413 C   0  0  0  0  0  0  0  0  0  0  0  0
    6.3648  -16.5565   25.5053 C   0  0  0  0  0  0  0  0  0  0  0  0
    6.3249  -16.6199   24.0216 C   0  0  2  0  0  0  0  0  0  0  0  0
    5.7899  -17.8936   23.6038 N   0  0  0  0  0  0  0  0  0  0  0  0
    7.6049  -16.3592   23.3636 C   0  0  0  0  0  0  0  0  0  0  0  0
    8.3962  -17.3574   23.2387 O   0  0  0  0  0  0  0  0  0  0  0  0
    5.8468  -14.1633   25.7722 C   0  0  0  0  0  0  0  0  0  0  0  0
    6.1703  -12.8743   26.1719 C   0  0  0  0  0  0  0  0  0  0  0  0
    8.0843  -15.1436   22.8471 N   0  0  0  0  0  0  0  0  0  0  0  0
    9.3309  -14.9661   22.1788 C   0  0  1  0  0  0  0  0  0  0  0  0
    9.4850  -13.8037   21.2932 C   0  0  0  0  0  0  0  0  0  0  0  0
    8.7209  -13.8719   20.0295 C   0  0  0  0  0  0  0  0  0  0  0  0
    8.0190  -15.0163   19.6575 C   0  0  0  0  0  0  0  0  0  0  0  0
    7.4373  -14.7879   18.4825 N   0  0  0  0  0  0  0  0  0  0  0  0
    7.7521  -13.5496   18.1142 C   0  0  0  0  0  0  0  0  0  0  0  0
    8.5461  -12.9758   19.0664 N   0  0  0  0  0  0  0  0  0  0  0  0
   10.4335  -15.0882   23.1721 C   0  0  0  0  0  0  0  0  0  0  0  0
   10.2066  -14.7349   24.3517 O   0  0  0  0  0  0  0  0  0  0  0  0
   12.7901  -18.1392   25.2730 O   0  0  0  0  0  0  0  0  0  0  0  0
   11.9672  -17.4671   24.4066 C   0  0  0  0  0  0  0  0  0  0  0  0
   12.6023  -16.2366   23.7966 C   0  0  2  0  0  0  0  0  0  0  0  0
   11.7131  -15.5777   22.8647 N   0  0  0  0  0  0  0  0  0  0  0  0
   13.9296  -16.5231   23.2200 C   0  0  0  0  0  0  0  0  0  0  0  0
   14.0986  -17.2227   22.2050 O   0  0  0  0  0  0  0  0  0  0  0  0
   15.0730  -15.9815   23.8418 O   0  0  0  0  0  0  0  0  0  0  0  0
  2  1  1  0
  3  2  2  0
  4  3  1  0
  5 11  1  0
  5  4  2  0
  6  7  1  0
  6  5  1  0
  7  9  1  0
  7  8  1  1
  9 10  2  0
 11 12  2  0
 12  2  1  0
 13 14  1  0
 13  9  1  0
 14 21  1  0
 15 16  1  0
 14 15  1  1
 16 17  2  0
 17 18  1  0
 19 18  1  0
 20 16  1  0
 20 19  2  0
 21 26  1  0
 22 21  2  0
 24 23  1  0
 25 24  1  6
 26 25  1  0
 27 29  1  0
 27 25  1  0
 28 27  2  0
M  END
$$$$
