RRQ.pdb
     RDKit          3D

 32 31  0  0  1  0  0  0  0  0999 V2000
   16.0972  -14.6112   20.3174 N   0  0  0  0  0  0  0  0  0  0  0  0
   16.1952  -14.4089   18.9190 C   0  0  0  0  0  0  0  0  0  0  0  0
   16.2031  -13.2058   18.4268 N   0  0  0  0  0  0  0  0  0  0  0  0
   16.2885  -15.4864   18.0006 N   0  0  0  0  0  0  0  0  0  0  0  0
   15.3451  -16.6039   18.0351 C   0  0  0  0  0  0  0  0  0  0  0  0
   14.9579  -16.7931   19.4889 C   0  0  0  0  0  0  0  0  0  0  0  0
   14.1587  -18.0926   19.5453 C   0  0  0  0  0  0  0  0  0  0  0  0
   12.6845  -17.8132   19.2499 C   0  0  2  0  0  0  0  0  0  0  0  0
   12.5485  -17.2102   17.9434 N   0  0  0  0  0  0  0  0  0  0  0  0
   12.1934  -16.8990   20.3124 C   0  0  0  0  0  0  0  0  0  0  0  0
   12.9534  -16.0316   20.8401 O   0  0  0  0  0  0  0  0  0  0  0  0
   16.2997  -13.0732   17.4017 N   0  0  0  0  0  0  0  0  0  0  0  0
    7.5039  -13.6124   17.7147 C   0  0  0  0  0  0  0  0  0  0  0  0
    7.5998  -13.3747   19.1154 N   0  0  0  0  0  0  0  0  0  0  0  0
    8.1657  -12.2945   19.5486 N   0  0  0  0  0  0  0  0  0  0  0  0
    7.0965  -14.2782   20.0826 C   0  0  0  0  0  0  0  0  0  0  0  0
    7.1419  -14.0105   21.5007 C   0  0  0  0  0  0  0  0  0  0  0  0
    8.4834  -14.3864   22.0880 C   0  0  0  0  0  0  0  0  0  0  0  0
    9.0103  -15.5308   21.2204 C   0  0  2  0  0  0  0  0  0  0  0  0
   10.3130  -16.0613   21.7471 N   0  0  0  0  0  0  0  0  0  0  0  0
   10.8473  -16.9807   20.7621 C   0  0  0  0  0  0  0  0  0  0  0  0
   10.2200  -16.6308   23.0902 O   0  0  0  0  0  0  0  0  0  0  0  0
    9.8598  -17.8163   23.2429 N   0  0  0  0  0  0  0  0  0  0  0  0
    8.3189  -12.1168   20.5578 C   0  0  0  0  0  0  0  0  0  0  0  0
   10.3494  -13.1136   28.4491 O   0  0  0  0  0  0  0  0  0  0  0  0
   10.4359  -14.4293   28.9301 C   0  0  0  0  0  0  0  0  0  0  0  0
   10.4807  -14.6114   30.1638 C   0  0  0  0  0  0  0  0  0  0  0  0
   10.4745  -15.5758   27.9992 C   0  0  1  0  0  0  0  0  0  0  0  0
   10.4515  -15.2101   26.5575 N   0  0  0  0  0  0  0  0  0  0  0  0
   10.5299  -16.3336   25.5822 C   0  0  0  0  0  0  0  0  0  0  0  0
   10.5342  -15.8485   24.2055 O   0  0  0  0  0  0  0  0  0  0  0  0
    9.3627  -17.2272   25.7306 O   0  0  0  0  0  0  0  0  0  0  0  0
  2  1  1  0
  2  3  2  0
  4  2  1  0
  4  5  1  0
  6  5  1  0
  7  6  1  0
  8  7  1  0
  8  9  1  6
  8 10  1  0
 10 11  2  0
 13 12  1  0
 14 13  2  0
 15 13  1  0
 16 17  1  0
 16 15  1  0
 17 18  1  0
 19 18  1  6
 19 21  1  0
 20 10  1  0
 20 19  1  0
 21 29  1  0
 22 21  2  0
 24 25  2  0
 24 23  1  0
 26 24  1  0
 27 26  1  0
 28 27  1  6
 28 30  1  0
 29 28  1  0
 30 31  1  0
 32 30  2  0
M  END
$$$$
