RRQ.pdb
     RDKit          3D

 32 31  0  0  1  0  0  0  0  0999 V2000
   19.0281  -14.4892   12.5660 N   0  0  0  0  0  0  0  0  0  0  0  0
   18.3143  -13.5602   13.3619 C   0  0  0  0  0  0  0  0  0  0  0  0
   18.5227  -12.2839   13.2304 N   0  0  0  0  0  0  0  0  0  0  0  0
   17.3538  -13.9653   14.3244 N   0  0  0  0  0  0  0  0  0  0  0  0
   15.9572  -14.2007   13.9584 C   0  0  0  0  0  0  0  0  0  0  0  0
   15.2444  -14.6137   15.2314 C   0  0  0  0  0  0  0  0  0  0  0  0
   14.6260  -15.9793   14.9426 C   0  0  0  0  0  0  0  0  0  0  0  0
   13.1005  -15.8834   14.9905 C   0  0  2  0  0  0  0  0  0  0  0  0
   12.6537  -14.7389   14.2292 N   0  0  0  0  0  0  0  0  0  0  0  0
   12.7171  -15.7552   16.4196 C   0  0  0  0  0  0  0  0  0  0  0  0
   12.5238  -14.6204   16.9521 O   0  0  0  0  0  0  0  0  0  0  0  0
   18.0230  -11.6176   13.8502 N   0  0  0  0  0  0  0  0  0  0  0  0
   12.4641  -21.3490   17.0275 C   0  0  0  0  0  0  0  0  0  0  0  0
   11.1906  -21.9164   17.3173 N   0  0  0  0  0  0  0  0  0  0  0  0
   11.0705  -23.1983   17.4470 N   0  0  0  0  0  0  0  0  0  0  0  0
   10.0208  -21.1342   17.4753 C   0  0  0  0  0  0  0  0  0  0  0  0
    9.9924  -19.9190   18.2545 C   0  0  0  0  0  0  0  0  0  0  0  0
   11.1608  -19.0215   17.9150 C   0  0  0  0  0  0  0  0  0  0  0  0
   11.0209  -17.7972   18.8214 C   0  0  1  0  0  0  0  0  0  0  0  0
   12.1527  -16.8316   18.6147 N   0  0  0  0  0  0  0  0  0  0  0  0
   12.5581  -16.9153   17.2257 C   0  0  0  0  0  0  0  0  0  0  0  0
   13.2560  -17.0029   19.5583 O   0  0  0  0  0  0  0  0  0  0  0  0
   14.2099  -17.7565   19.2746 N   0  0  0  0  0  0  0  0  0  0  0  0
   10.1705  -23.6472   17.6962 C   0  0  0  0  0  0  0  0  0  0  0  0
   16.7619  -14.8439   19.4859 O   0  0  0  0  0  0  0  0  0  0  0  0
   16.5667  -14.3943   20.8010 C   0  0  0  0  0  0  0  0  0  0  0  0
   17.5624  -14.2711   21.5430 C   0  0  0  0  0  0  0  0  0  0  0  0
   15.2134  -14.0742   21.2997 C   0  0  2  0  0  0  0  0  0  0  0  0
   14.6679  -15.0418   22.2892 N   0  0  0  0  0  0  0  0  0  0  0  0
   14.3103  -16.3933   21.7745 C   0  0  0  0  0  0  0  0  0  0  0  0
   13.2443  -16.3229   20.7799 O   0  0  0  0  0  0  0  0  0  0  0  0
   13.8294  -17.2534   22.8754 O   0  0  0  0  0  0  0  0  0  0  0  0
  2  1  1  0
  2  3  2  0
  4  2  1  0
  4  5  1  0
  6  5  1  0
  7  6  1  0
  8  7  1  0
  8  9  1  6
  8 10  1  0
 10 11  2  0
 13 12  1  0
 14 13  2  0
 15 13  1  0
 16 17  1  0
 16 15  1  0
 17 18  1  0
 19 18  1  6
 19 21  1  0
 20 10  1  0
 20 19  1  0
 21 29  1  0
 22 21  2  0
 24 25  2  0
 24 23  1  0
 26 24  1  0
 27 26  1  0
 28 27  1  1
 28 30  1  0
 29 28  1  0
 30 31  1  0
 32 30  2  0
M  END
$$$$
