RRQ.pdb
     RDKit          3D

 32 31  0  0  1  0  0  0  0  0999 V2000
   16.0329  -13.2211   19.2911 N   0  0  0  0  0  0  0  0  0  0  0  0
   16.1252  -14.1774   20.3319 C   0  0  0  0  0  0  0  0  0  0  0  0
   16.8468  -13.9358   21.3857 N   0  0  0  0  0  0  0  0  0  0  0  0
   15.4485  -15.4234   20.2802 N   0  0  0  0  0  0  0  0  0  0  0  0
   14.5597  -15.7650   19.1698 C   0  0  0  0  0  0  0  0  0  0  0  0
   13.3844  -14.8106   19.2524 C   0  0  0  0  0  0  0  0  0  0  0  0
   12.1464  -15.6384   18.9165 C   0  0  0  0  0  0  0  0  0  0  0  0
   10.9107  -14.7384   18.8755 C   0  0  2  0  0  0  0  0  0  0  0  0
   11.2821  -13.4094   18.4454 N   0  0  0  0  0  0  0  0  0  0  0  0
   10.3433  -14.7151   20.2478 C   0  0  0  0  0  0  0  0  0  0  0  0
   10.8038  -13.9395   21.1395 O   0  0  0  0  0  0  0  0  0  0  0  0
   16.8701  -14.6278   22.1592 N   0  0  0  0  0  0  0  0  0  0  0  0
    7.3195  -19.9566   24.3080 C   0  0  0  0  0  0  0  0  0  0  0  0
    5.9076  -19.7716   24.2958 N   0  0  0  0  0  0  0  0  0  0  0  0
    5.1268  -20.7481   24.6296 N   0  0  0  0  0  0  0  0  0  0  0  0
    5.2980  -18.5470   23.9299 C   0  0  0  0  0  0  0  0  0  0  0  0
    5.7237  -17.7723   22.7883 C   0  0  0  0  0  0  0  0  0  0  0  0
    7.0296  -17.0616   23.0630 C   0  0  0  0  0  0  0  0  0  0  0  0
    7.3228  -16.2331   21.8110 C   0  0  1  0  0  0  0  0  0  0  0  0
    8.6567  -15.5495   21.9075 N   0  0  0  0  0  0  0  0  0  0  0  0
    9.2618  -15.5716   20.5907 C   0  0  0  0  0  0  0  0  0  0  0  0
    9.5208  -16.0845   22.9583 O   0  0  0  0  0  0  0  0  0  0  0  0
   10.1273  -17.1611   22.7810 N   0  0  0  0  0  0  0  0  0  0  0  0
    4.0956  -20.6839   24.5496 C   0  0  0  0  0  0  0  0  0  0  0  0
    9.6792  -13.5685   28.8751 O   0  0  0  0  0  0  0  0  0  0  0  0
   10.6218  -14.6063   28.9407 C   0  0  0  0  0  0  0  0  0  0  0  0
   11.2101  -14.8100   30.0221 C   0  0  0  0  0  0  0  0  0  0  0  0
   10.9143  -15.4405   27.7570 C   0  0  1  0  0  0  0  0  0  0  0  0
   10.1570  -15.0717   26.5310 N   0  0  0  0  0  0  0  0  0  0  0  0
   10.4288  -15.8803   25.3096 C   0  0  0  0  0  0  0  0  0  0  0  0
    9.6690  -15.3911   24.1633 O   0  0  0  0  0  0  0  0  0  0  0  0
   10.0398  -17.2889   25.5270 O   0  0  0  0  0  0  0  0  0  0  0  0
  2  1  1  0
  2  3  2  0
  4  2  1  0
  4  5  1  0
  6  5  1  0
  7  6  1  0
  8  7  1  0
  8  9  1  1
  8 10  1  0
 10 11  2  0
 13 12  1  0
 14 13  2  0
 15 13  1  0
 16 17  1  0
 16 15  1  0
 17 18  1  0
 19 18  1  6
 19 21  1  0
 20 10  1  0
 20 19  1  0
 21 29  1  0
 22 21  2  0
 24 25  2  0
 24 23  1  0
 26 24  1  0
 27 26  1  0
 28 27  1  1
 28 30  1  0
 29 28  1  0
 30 31  1  0
 32 30  2  0
M  END
$$$$
