DVA.pdb
     RDKit          3D

 21 20  0  0  1  0  0  0  0  0999 V2000
    9.0248  -15.3812   20.7897 N   0  0  0  0  0  0  0  0  0  0  0  0
    8.2639  -15.7958   21.9301 C   0  0  1  0  0  0  0  0  0  0  0  0
    8.3041  -17.2819   22.0359 C   0  0  0  0  0  0  0  0  0  0  0  0
    7.6323  -17.8454   20.8364 C   0  0  0  0  0  0  0  0  0  0  0  0
    8.2620  -18.3368   19.8658 O   0  0  0  0  0  0  0  0  0  0  0  0
    8.6417  -15.0912   23.1689 C   0  0  0  0  0  0  0  0  0  0  0  0
    9.8713  -14.9579   23.3989 O   0  0  0  0  0  0  0  0  0  0  0  0
    6.2421  -17.8432   20.7549 O   0  0  0  0  0  0  0  0  0  0  0  0
    7.3901  -12.5661   27.2779 C   0  0  0  0  0  0  0  0  0  0  0  0
    7.0052  -13.1816   25.9674 C   0  0  1  0  0  0  0  0  0  0  0  0
    6.5501  -12.0504   25.0663 C   0  0  0  0  0  0  0  0  0  0  0  0
    8.1316  -13.9668   25.3932 C   0  0  2  0  0  0  0  0  0  0  0  0
    7.7338  -14.5615   24.1050 N   0  0  0  0  0  0  0  0  0  0  0  0
    8.5836  -15.0093   26.3151 C   0  0  0  0  0  0  0  0  0  0  0  0
    7.7954  -15.9993   26.5720 O   0  0  0  0  0  0  0  0  0  0  0  0
   11.3687  -16.8976   27.4170 C   0  0  0  0  0  0  0  0  0  0  0  0
   10.1351  -16.1663   27.8974 C   0  0  2  0  0  0  0  0  0  0  0  0
    9.8231  -15.0735   26.9818 N   0  0  0  0  0  0  0  0  0  0  0  0
   10.3035  -15.6793   29.2875 C   0  0  0  0  0  0  0  0  0  0  0  0
   10.3540  -14.4229   29.4302 O   0  0  0  0  0  0  0  0  0  0  0  0
   10.4050  -16.4753   30.3951 O   0  0  0  0  0  0  0  0  0  0  0  0
  2  1  1  6
  2  6  1  0
  3  4  1  0
  3  2  1  0
  4  5  2  0
  6 13  1  0
  6  7  2  0
  8  4  1  0
 10  9  1  1
 10 12  1  0
 11 10  1  0
 12 14  1  0
 12 13  1  6
 14 18  1  0
 15 14  2  0
 17 16  1  6
 18 17  1  0
 19 17  1  0
 19 21  1  0
 20 19  2  0
M  END
$$$$
