DVA.pdb
     RDKit          3D

 21 20  0  0  1  0  0  0  0  0999 V2000
    7.3913  -15.1650   20.9443 N   0  0  0  0  0  0  0  0  0  0  0  0
    6.9652  -15.4587   22.2798 C   0  0  1  0  0  0  0  0  0  0  0  0
    6.7863  -16.9309   22.4277 C   0  0  0  0  0  0  0  0  0  0  0  0
    5.8648  -17.3909   21.3568 C   0  0  0  0  0  0  0  0  0  0  0  0
    5.5431  -16.6745   20.3753 O   0  0  0  0  0  0  0  0  0  0  0  0
    7.8226  -14.8473   23.3117 C   0  0  0  0  0  0  0  0  0  0  0  0
    9.0632  -14.8563   23.1035 O   0  0  0  0  0  0  0  0  0  0  0  0
    5.3163  -18.6695   21.4157 O   0  0  0  0  0  0  0  0  0  0  0  0
    7.2053  -11.5336   25.5077 C   0  0  0  0  0  0  0  0  0  0  0  0
    7.5466  -12.7124   26.3670 C   0  0  1  0  0  0  0  0  0  0  0  0
    6.2512  -13.1912   26.9926 C   0  0  0  0  0  0  0  0  0  0  0  0
    8.2376  -13.7682   25.5778 C   0  0  2  0  0  0  0  0  0  0  0  0
    7.3574  -14.2592   24.5029 N   0  0  0  0  0  0  0  0  0  0  0  0
    8.6675  -14.8785   26.4283 C   0  0  0  0  0  0  0  0  0  0  0  0
    7.8041  -15.7784   26.7634 O   0  0  0  0  0  0  0  0  0  0  0  0
   11.4892  -16.9644   27.2490 C   0  0  0  0  0  0  0  0  0  0  0  0
   10.2539  -16.2664   27.7727 C   0  0  2  0  0  0  0  0  0  0  0  0
    9.9592  -15.1008   26.9454 N   0  0  0  0  0  0  0  0  0  0  0  0
   10.4079  -15.8950   29.1996 C   0  0  0  0  0  0  0  0  0  0  0  0
   10.4361  -14.6544   29.4475 O   0  0  0  0  0  0  0  0  0  0  0  0
   10.5184  -16.7795   30.2372 O   0  0  0  0  0  0  0  0  0  0  0  0
  2  1  1  6
  2  6  1  0
  3  4  1  0
  3  2  1  0
  4  5  2  0
  6 13  1  0
  6  7  2  0
  8  4  1  0
 10  9  1  6
 10 12  1  0
 11 10  1  0
 12 14  1  0
 12 13  1  6
 14 18  1  0
 15 14  2  0
 17 16  1  6
 18 17  1  0
 19 17  1  0
 19 21  1  0
 20 19  2  0
M  END
$$$$
