DVA.pdb
     RDKit          3D

 21 20  0  0  1  0  0  0  0  0999 V2000
    8.2455  -18.0289   15.9398 N   0  0  0  0  0  0  0  0  0  0  0  0
    7.4488  -17.5459   17.0276 C   0  0  1  0  0  0  0  0  0  0  0  0
    6.7503  -18.6926   17.6744 C   0  0  0  0  0  0  0  0  0  0  0  0
    5.6492  -19.1250   16.7754 C   0  0  0  0  0  0  0  0  0  0  0  0
    5.5798  -18.7888   15.5662 O   0  0  0  0  0  0  0  0  0  0  0  0
    8.2003  -16.6899   17.9638 C   0  0  0  0  0  0  0  0  0  0  0  0
    9.4002  -16.9978   18.1830 O   0  0  0  0  0  0  0  0  0  0  0  0
    4.6329  -19.9406   17.2663 O   0  0  0  0  0  0  0  0  0  0  0  0
    6.3938  -13.8605   20.6021 C   0  0  0  0  0  0  0  0  0  0  0  0
    7.6729  -13.5010   19.9100 C   0  0  1  0  0  0  0  0  0  0  0  0
    8.4268  -12.5663   20.8355 C   0  0  0  0  0  0  0  0  0  0  0  0
    8.4496  -14.7194   19.5534 C   0  0  2  0  0  0  0  0  0  0  0  0
    7.6767  -15.5628   18.6245 N   0  0  0  0  0  0  0  0  0  0  0  0
    8.8223  -15.4852   20.7432 C   0  0  0  0  0  0  0  0  0  0  0  0
    7.9595  -16.2956   21.2591 O   0  0  0  0  0  0  0  0  0  0  0  0
   10.1290  -17.7383   22.2405 C   0  0  0  0  0  0  0  0  0  0  0  0
   10.2960  -16.2789   22.6002 C   0  0  2  0  0  0  0  0  0  0  0  0
   10.0564  -15.4512   21.4223 N   0  0  0  0  0  0  0  0  0  0  0  0
   11.6326  -16.0168   23.1856 C   0  0  0  0  0  0  0  0  0  0  0  0
   12.4064  -15.2930   22.4937 O   0  0  0  0  0  0  0  0  0  0  0  0
   12.0729  -16.4921   24.3903 O   0  0  0  0  0  0  0  0  0  0  0  0
  2  1  1  6
  2  6  1  0
  3  4  1  0
  3  2  1  0
  4  5  2  0
  6 13  1  0
  6  7  2  0
  8  4  1  0
 10  9  1  1
 10 12  1  0
 11 10  1  0
 12 14  1  0
 12 13  1  6
 14 18  1  0
 15 14  2  0
 17 16  1  6
 18 17  1  0
 19 17  1  0
 19 21  1  0
 20 19  2  0
M  END
$$$$
