DVA.pdb
     RDKit          3D

 21 20  0  0  1  0  0  0  0  0999 V2000
    8.2865  -16.9816   18.2835 N   0  0  0  0  0  0  0  0  0  0  0  0
    7.9084  -17.4075   19.5976 C   0  0  1  0  0  0  0  0  0  0  0  0
    7.8543  -18.8963   19.6369 C   0  0  0  0  0  0  0  0  0  0  0  0
    6.9126  -19.3491   18.5806 C   0  0  0  0  0  0  0  0  0  0  0  0
    7.2180  -19.3897   17.3619 O   0  0  0  0  0  0  0  0  0  0  0  0
    8.7294  -16.8041   20.6634 C   0  0  0  0  0  0  0  0  0  0  0  0
    9.9749  -16.9623   20.5848 O   0  0  0  0  0  0  0  0  0  0  0  0
    5.6255  -19.7532   18.9257 O   0  0  0  0  0  0  0  0  0  0  0  0
    8.0742  -13.2622   22.3784 C   0  0  0  0  0  0  0  0  0  0  0  0
    8.3792  -14.3022   23.4127 C   0  0  1  0  0  0  0  0  0  0  0  0
    7.0645  -14.6622   24.0764 C   0  0  0  0  0  0  0  0  0  0  0  0
    9.0661  -15.4750   22.8063 C   0  0  2  0  0  0  0  0  0  0  0  0
    8.2246  -16.0702   21.7532 N   0  0  0  0  0  0  0  0  0  0  0  0
    9.4028  -16.4800   23.8151 C   0  0  0  0  0  0  0  0  0  0  0  0
    8.4874  -17.3029   24.2057 O   0  0  0  0  0  0  0  0  0  0  0  0
   12.1899  -18.3965   25.1938 C   0  0  0  0  0  0  0  0  0  0  0  0
   10.8522  -17.7294   25.4239 C   0  0  2  0  0  0  0  0  0  0  0  0
   10.6525  -16.6735   24.4364 N   0  0  0  0  0  0  0  0  0  0  0  0
   10.7399  -17.2079   26.8071 C   0  0  0  0  0  0  0  0  0  0  0  0
   10.6642  -15.9496   26.9186 O   0  0  0  0  0  0  0  0  0  0  0  0
   10.7135  -17.9749   27.9394 O   0  0  0  0  0  0  0  0  0  0  0  0
  2  1  1  6
  2  6  1  0
  3  4  1  0
  3  2  1  0
  4  5  2  0
  6 13  1  0
  6  7  2  0
  8  4  1  0
 10  9  1  6
 10 12  1  0
 11 10  1  0
 12 14  1  0
 12 13  1  6
 14 18  1  0
 15 14  2  0
 17 16  1  1
 18 17  1  0
 19 17  1  0
 19 21  1  0
 20 19  2  0
M  END
$$$$
