DVA.pdb
     RDKit          3D

 21 20  0  0  1  0  0  0  0  0999 V2000
    8.5301  -17.1975   16.1234 N   0  0  0  0  0  0  0  0  0  0  0  0
    7.9728  -17.2908   17.4394 C   0  0  1  0  0  0  0  0  0  0  0  0
    7.7832  -18.7258   17.7940 C   0  0  0  0  0  0  0  0  0  0  0  0
    6.7620  -19.2940   16.8765 C   0  0  0  0  0  0  0  0  0  0  0  0
    5.5259  -19.1503   17.0537 O   0  0  0  0  0  0  0  0  0  0  0  0
    8.7210  -16.5135   18.4444 C   0  0  0  0  0  0  0  0  0  0  0  0
    9.9767  -16.5537   18.3798 O   0  0  0  0  0  0  0  0  0  0  0  0
    7.1620  -20.0243   15.7603 O   0  0  0  0  0  0  0  0  0  0  0  0
    7.6475  -12.9140   20.0806 C   0  0  0  0  0  0  0  0  0  0  0  0
    8.0583  -13.9380   21.0941 C   0  0  1  0  0  0  0  0  0  0  0  0
    6.7847  -14.4845   21.7090 C   0  0  0  0  0  0  0  0  0  0  0  0
    8.9063  -14.9933   20.4757 C   0  0  2  0  0  0  0  0  0  0  0  0
    8.1369  -15.7365   19.4623 N   0  0  0  0  0  0  0  0  0  0  0  0
    9.4387  -15.9117   21.4826 C   0  0  0  0  0  0  0  0  0  0  0  0
    8.6288  -16.7220   22.0784 O   0  0  0  0  0  0  0  0  0  0  0  0
   12.2255  -17.9216   22.3893 C   0  0  0  0  0  0  0  0  0  0  0  0
   11.1707  -16.9836   22.9322 C   0  0  2  0  0  0  0  0  0  0  0  0
   10.7798  -16.0311   21.8979 N   0  0  0  0  0  0  0  0  0  0  0  0
   11.6411  -16.2932   24.1569 C   0  0  0  0  0  0  0  0  0  0  0  0
   11.9727  -17.0430   25.1209 O   0  0  0  0  0  0  0  0  0  0  0  0
   11.7380  -14.9374   24.3100 O   0  0  0  0  0  0  0  0  0  0  0  0
  2  1  1  6
  2  6  1  0
  3  4  1  0
  3  2  1  0
  4  5  2  0
  6 13  1  0
  6  7  2  0
  8  4  1  0
 10  9  1  6
 10 12  1  0
 11 10  1  0
 12 14  1  0
 12 13  1  6
 14 18  1  0
 15 14  2  0
 17 16  1  6
 18 17  1  0
 19 17  1  0
 19 21  1  0
 20 19  2  0
M  END
$$$$
