DVA.pdb
     RDKit          3D

 21 20  0  0  1  0  0  0  0  0999 V2000
    8.0497  -14.5265   20.4324 N   0  0  0  0  0  0  0  0  0  0  0  0
    7.4465  -15.0925   21.6016 C   0  0  1  0  0  0  0  0  0  0  0  0
    7.2322  -16.5519   21.3885 C   0  0  0  0  0  0  0  0  0  0  0  0
    6.8806  -16.7602   19.9600 C   0  0  0  0  0  0  0  0  0  0  0  0
    7.7417  -16.8558   19.0493 O   0  0  0  0  0  0  0  0  0  0  0  0
    8.1663  -14.7626   22.8454 C   0  0  0  0  0  0  0  0  0  0  0  0
    9.4197  -14.8669   22.8257 O   0  0  0  0  0  0  0  0  0  0  0  0
    5.5439  -16.8577   19.5818 O   0  0  0  0  0  0  0  0  0  0  0  0
    7.3318  -11.8077   25.4565 C   0  0  0  0  0  0  0  0  0  0  0  0
    7.5244  -13.1243   26.1448 C   0  0  1  0  0  0  0  0  0  0  0  0
    6.1445  -13.6394   26.5043 C   0  0  0  0  0  0  0  0  0  0  0  0
    8.2940  -14.0683   25.2894 C   0  0  2  0  0  0  0  0  0  0  0  0
    7.5575  -14.3428   24.0430 N   0  0  0  0  0  0  0  0  0  0  0  0
    8.5819  -15.3178   25.9942 C   0  0  0  0  0  0  0  0  0  0  0  0
    7.6242  -16.1634   26.1814 O   0  0  0  0  0  0  0  0  0  0  0  0
   10.9574  -17.8835   26.5130 C   0  0  0  0  0  0  0  0  0  0  0  0
    9.9625  -16.9972   27.2285 C   0  0  2  0  0  0  0  0  0  0  0  0
    9.8248  -15.7334   26.5118 N   0  0  0  0  0  0  0  0  0  0  0  0
   10.3522  -16.7802   28.6424 C   0  0  0  0  0  0  0  0  0  0  0  0
   10.5901  -15.5819   28.9721 O   0  0  0  0  0  0  0  0  0  0  0  0
   10.4684  -17.7619   29.5879 O   0  0  0  0  0  0  0  0  0  0  0  0
  2  1  1  6
  2  6  1  0
  3  4  1  0
  3  2  1  0
  4  5  2  0
  6 13  1  0
  6  7  2  0
  8  4  1  0
 10  9  1  6
 10 12  1  0
 11 10  1  0
 12 14  1  0
 12 13  1  6
 14 18  1  0
 15 14  2  0
 17 16  1  6
 18 17  1  0
 19 17  1  0
 19 21  1  0
 20 19  2  0
M  END
$$$$
