DVA.pdb
     RDKit          3D

 21 20  0  0  1  0  0  0  0  0999 V2000
    8.6037  -16.0009   21.3433 N   0  0  0  0  0  0  0  0  0  0  0  0
    7.6951  -16.0874   22.4472 C   0  0  1  0  0  0  0  0  0  0  0  0
    7.4451  -17.5210   22.7687 C   0  0  0  0  0  0  0  0  0  0  0  0
    6.8337  -18.1591   21.5742 C   0  0  0  0  0  0  0  0  0  0  0  0
    7.3661  -18.1338   20.4359 O   0  0  0  0  0  0  0  0  0  0  0  0
    8.1061  -15.2712   23.6043 C   0  0  0  0  0  0  0  0  0  0  0  0
    9.3402  -15.1787   23.8295 O   0  0  0  0  0  0  0  0  0  0  0  0
    5.6151  -18.8230   21.6899 O   0  0  0  0  0  0  0  0  0  0  0  0
    6.9418  -12.2616   27.4075 C   0  0  0  0  0  0  0  0  0  0  0  0
    6.5096  -13.0860   26.2337 C   0  0  1  0  0  0  0  0  0  0  0  0
    5.8743  -12.1354   25.2380 C   0  0  0  0  0  0  0  0  0  0  0  0
    7.6543  -13.8474   25.6635 C   0  0  2  0  0  0  0  0  0  0  0  0
    7.2248  -14.5938   24.4677 N   0  0  0  0  0  0  0  0  0  0  0  0
    8.2358  -14.7594   26.6490 C   0  0  0  0  0  0  0  0  0  0  0  0
    8.6130  -14.2868   27.7899 O   0  0  0  0  0  0  0  0  0  0  0  0
    7.9377  -17.9519   28.0517 C   0  0  0  0  0  0  0  0  0  0  0  0
    8.9763  -16.9501   27.5989 C   0  0  2  0  0  0  0  0  0  0  0  0
    8.4405  -16.1460   26.5052 N   0  0  0  0  0  0  0  0  0  0  0  0
   10.2403  -17.6208   27.2115 C   0  0  0  0  0  0  0  0  0  0  0  0
   10.5696  -17.5178   25.9940 O   0  0  0  0  0  0  0  0  0  0  0  0
   11.0518  -18.3241   28.0588 O   0  0  0  0  0  0  0  0  0  0  0  0
  2  1  1  6
  2  6  1  0
  3  4  1  0
  3  2  1  0
  4  5  2  0
  6 13  1  0
  6  7  2  0
  8  4  1  0
 10  9  1  1
 10 12  1  0
 11 10  1  0
 12 14  1  0
 12 13  1  6
 14 18  1  0
 15 14  2  0
 17 16  1  6
 18 17  1  0
 19 17  1  0
 19 21  1  0
 20 19  2  0
M  END
$$$$
