MIS.pdb
     RDKit          3D

 23 22  0  0  1  0  0  0  0  0999 V2000
    5.9265  -11.3389   27.2766 C   0  0  0  0  0  0  0  0  0  0  0  0
    6.6811  -12.6185   26.2471 S   0  0  0  0  0  0  0  0  0  0  0  0
    6.9535  -14.0747   27.3185 C   0  0  0  0  0  0  0  0  0  0  0  0
    7.6636  -15.1723   26.5364 C   0  0  0  0  0  0  0  0  0  0  0  0
    6.7586  -15.5942   25.3986 C   0  0  2  0  0  0  0  0  0  0  0  0
    5.9788  -16.7544   25.7845 N   0  0  0  0  0  0  0  0  0  0  0  0
    7.5316  -15.9293   24.1776 C   0  0  0  0  0  0  0  0  0  0  0  0
    7.8374  -17.1219   23.9331 O   0  0  0  0  0  0  0  0  0  0  0  0
    7.1411  -12.6801   19.8106 C   0  0  0  0  0  0  0  0  0  0  0  0
    7.0958  -13.9968   20.6233 C   0  0  0  0  0  0  0  0  0  0  0  0
    8.5374  -14.2490   20.9804 C   0  0  2  0  0  0  0  0  0  0  0  0
    9.2079  -14.6932   19.6875 C   0  0  0  0  0  0  0  0  0  0  0  0
    8.7582  -15.2838   22.0501 C   0  0  2  0  0  0  0  0  0  0  0  0
    7.9614  -14.9593   23.2389 N   0  0  0  0  0  0  0  0  0  0  0  0
   10.1507  -15.4546   22.4757 C   0  0  0  0  0  0  0  0  0  0  0  0
   10.5785  -14.9141   23.5544 O   0  0  0  0  0  0  0  0  0  0  0  0
   12.2296  -19.0066   23.6932 O   0  0  0  0  0  0  0  0  0  0  0  0
   11.2885  -18.1272   23.1496 C   0  0  0  0  0  0  0  0  0  0  0  0
   12.1042  -17.0369   22.4375 C   0  0  2  0  0  0  0  0  0  0  0  0
   11.0983  -16.2090   21.7540 N   0  0  0  0  0  0  0  0  0  0  0  0
   13.0595  -17.6084   21.4934 C   0  0  0  0  0  0  0  0  0  0  0  0
   12.6722  -17.8910   20.2017 O   0  0  0  0  0  0  0  0  0  0  0  0
   14.2353  -17.8469   21.8454 O   0  0  0  0  0  0  0  0  0  0  0  0
  1  2  1  0
  2  3  1  0
  4  3  1  0
  5  4  1  0
  5  6  1  1
  7  5  1  0
  7  8  2  0
  9 10  1  0
 10 11  1  0
 11 13  1  0
 11 12  1  6
 13 14  1  1
 14  7  1  0
 15 13  1  0
 16 15  2  0
 18 17  1  0
 19 18  1  6
 19 20  1  0
 20 15  1  0
 21 19  1  0
 22 21  1  0
 23 21  2  0
M  END
$$$$
