MIS.pdb
     RDKit          3D

 23 22  0  0  1  0  0  0  0  0999 V2000
    8.0194  -19.6589   25.5847 C   0  0  0  0  0  0  0  0  0  0  0  0
    6.4339  -20.3612   25.0751 S   0  0  0  0  0  0  0  0  0  0  0  0
    5.9388  -19.5035   23.5382 C   0  0  0  0  0  0  0  0  0  0  0  0
    7.1155  -18.7139   22.9791 C   0  0  0  0  0  0  0  0  0  0  0  0
    6.6031  -17.3567   22.5469 C   0  0  2  0  0  0  0  0  0  0  0  0
    6.6651  -17.2361   21.1030 N   0  0  0  0  0  0  0  0  0  0  0  0
    7.3938  -16.2545   23.1475 C   0  0  0  0  0  0  0  0  0  0  0  0
    8.4511  -15.8640   22.5950 O   0  0  0  0  0  0  0  0  0  0  0  0
    6.8076  -11.4432   26.8031 C   0  0  0  0  0  0  0  0  0  0  0  0
    7.8690  -12.4937   26.3954 C   0  0  0  0  0  0  0  0  0  0  0  0
    7.0850  -13.5100   25.6068 C   0  0  2  0  0  0  0  0  0  0  0  0
    6.0315  -14.0483   26.5654 C   0  0  0  0  0  0  0  0  0  0  0  0
    7.8954  -14.6485   25.0493 C   0  0  2  0  0  0  0  0  0  0  0  0
    7.0213  -15.5923   24.3431 N   0  0  0  0  0  0  0  0  0  0  0  0
    8.6696  -15.4063   26.0370 C   0  0  0  0  0  0  0  0  0  0  0  0
    8.0917  -16.2133   26.8454 O   0  0  0  0  0  0  0  0  0  0  0  0
   12.1174  -16.7067   25.2982 O   0  0  0  0  0  0  0  0  0  0  0  0
   12.2398  -16.1928   26.5924 C   0  0  0  0  0  0  0  0  0  0  0  0
   10.8085  -16.1235   27.1471 C   0  0  2  0  0  0  0  0  0  0  0  0
   10.0704  -15.3118   26.1668 N   0  0  0  0  0  0  0  0  0  0  0  0
   10.7739  -15.5213   28.4763 C   0  0  0  0  0  0  0  0  0  0  0  0
   11.3712  -16.1593   29.5415 O   0  0  0  0  0  0  0  0  0  0  0  0
   10.2040  -14.4240   28.6620 O   0  0  0  0  0  0  0  0  0  0  0  0
  1  2  1  0
  2  3  1  0
  4  3  1  0
  5  4  1  0
  5  6  1  6
  7  5  1  0
  7  8  2  0
  9 10  1  0
 10 11  1  0
 11 13  1  0
 11 12  1  1
 13 14  1  1
 14  7  1  0
 15 13  1  0
 16 15  2  0
 18 17  1  0
 19 18  1  6
 19 20  1  0
 20 15  1  0
 21 19  1  0
 22 21  1  0
 23 21  2  0
M  END
$$$$
