MIS.pdb
     RDKit          3D

 23 22  0  0  1  0  0  0  0  0999 V2000
    7.7005  -11.2496   26.7709 C   0  0  0  0  0  0  0  0  0  0  0  0
    7.1194  -12.4591   27.9818 S   0  0  0  0  0  0  0  0  0  0  0  0
    6.2871  -13.7926   27.0481 C   0  0  0  0  0  0  0  0  0  0  0  0
    7.2146  -14.3284   25.9650 C   0  0  0  0  0  0  0  0  0  0  0  0
    6.4428  -15.3451   25.1513 C   0  0  2  0  0  0  0  0  0  0  0  0
    6.1229  -16.4998   25.9682 N   0  0  0  0  0  0  0  0  0  0  0  0
    7.2138  -15.8018   23.9691 C   0  0  0  0  0  0  0  0  0  0  0  0
    7.4056  -17.0273   23.7769 O   0  0  0  0  0  0  0  0  0  0  0  0
    7.5473  -12.3415   19.8832 C   0  0  0  0  0  0  0  0  0  0  0  0
    7.2782  -13.8014   20.3221 C   0  0  0  0  0  0  0  0  0  0  0  0
    8.6174  -14.2804   20.8186 C   0  0  2  0  0  0  0  0  0  0  0  0
    9.3526  -14.7900   19.5865 C   0  0  0  0  0  0  0  0  0  0  0  0
    8.5612  -15.3630   21.8620 C   0  0  2  0  0  0  0  0  0  0  0  0
    7.7660  -14.9158   23.0114 N   0  0  0  0  0  0  0  0  0  0  0  0
    9.8624  -15.8143   22.3643 C   0  0  0  0  0  0  0  0  0  0  0  0
   10.5697  -15.0637   23.1226 O   0  0  0  0  0  0  0  0  0  0  0  0
   10.9785  -19.4285   21.5604 O   0  0  0  0  0  0  0  0  0  0  0  0
   11.7453  -18.9663   22.6341 C   0  0  0  0  0  0  0  0  0  0  0  0
   11.7789  -17.4368   22.4902 C   0  0  2  0  0  0  0  0  0  0  0  0
   10.4180  -17.0750   22.0642 N   0  0  0  0  0  0  0  0  0  0  0  0
   12.7774  -17.0088   21.5154 C   0  0  0  0  0  0  0  0  0  0  0  0
   14.1199  -17.1538   21.7897 O   0  0  0  0  0  0  0  0  0  0  0  0
   12.4267  -16.5078   20.4249 O   0  0  0  0  0  0  0  0  0  0  0  0
  1  2  1  0
  2  3  1  0
  4  3  1  0
  5  4  1  0
  5  6  1  1
  7  5  1  0
  7  8  2  0
  9 10  1  0
 10 11  1  0
 11 13  1  0
 11 12  1  6
 13 14  1  1
 14  7  1  0
 15 13  1  0
 16 15  2  0
 18 17  1  0
 19 18  1  6
 19 20  1  0
 20 15  1  0
 21 19  1  0
 22 21  1  0
 23 21  2  0
M  END
$$$$
