MIS.pdb
     RDKit          3D

 23 22  0  0  1  0  0  0  0  0999 V2000
   10.6286  -15.8086   30.0782 C   0  0  0  0  0  0  0  0  0  0  0  0
   10.3107  -17.4708   30.7125 S   0  0  0  0  0  0  0  0  0  0  0  0
    8.9770  -18.1878   29.6878 C   0  0  0  0  0  0  0  0  0  0  0  0
    8.8603  -17.4245   28.3747 C   0  0  0  0  0  0  0  0  0  0  0  0
    7.5934  -17.8791   27.6821 C   0  0  2  0  0  0  0  0  0  0  0  0
    7.6487  -19.3054   27.4256 N   0  0  0  0  0  0  0  0  0  0  0  0
    7.3896  -17.1748   26.3925 C   0  0  0  0  0  0  0  0  0  0  0  0
    7.0932  -17.8241   25.3599 O   0  0  0  0  0  0  0  0  0  0  0  0
    6.3476  -11.9219   26.5297 C   0  0  0  0  0  0  0  0  0  0  0  0
    6.0104  -13.1916   25.7109 C   0  0  0  0  0  0  0  0  0  0  0  0
    7.3373  -13.6102   25.1334 C   0  0  2  0  0  0  0  0  0  0  0  0
    7.4397  -12.9037   23.7884 C   0  0  0  0  0  0  0  0  0  0  0  0
    7.5119  -15.0926   24.9443 C   0  0  2  0  0  0  0  0  0  0  0  0
    7.5119  -15.7711   26.2455 N   0  0  0  0  0  0  0  0  0  0  0  0
    8.7279  -15.4920   24.2296 C   0  0  0  0  0  0  0  0  0  0  0  0
    9.8584  -15.5322   24.8288 O   0  0  0  0  0  0  0  0  0  0  0  0
   10.5859  -17.4374   20.2213 O   0  0  0  0  0  0  0  0  0  0  0  0
    9.4844  -16.8192   20.8202 C   0  0  0  0  0  0  0  0  0  0  0  0
    9.9165  -16.5111   22.2623 C   0  0  2  0  0  0  0  0  0  0  0  0
    8.7460  -15.8569   22.8677 N   0  0  0  0  0  0  0  0  0  0  0  0
   11.0926  -15.6473   22.2998 C   0  0  0  0  0  0  0  0  0  0  0  0
   12.3560  -16.1971   22.2995 O   0  0  0  0  0  0  0  0  0  0  0  0
   10.9667  -14.4038   22.3325 O   0  0  0  0  0  0  0  0  0  0  0  0
  1  2  1  0
  2  3  1  0
  4  3  1  0
  5  4  1  0
  5  6  1  6
  7  5  1  0
  7  8  2  0
  9 10  1  0
 10 11  1  0
 11 13  1  0
 11 12  1  6
 13 14  1  1
 14  7  1  0
 15 13  1  0
 16 15  2  0
 18 17  1  0
 19 18  1  6
 19 20  1  0
 20 15  1  0
 21 19  1  0
 22 21  1  0
 23 21  2  0
M  END
$$$$
