MIS.pdb
     RDKit          3D

 23 22  0  0  1  0  0  0  0  0999 V2000
    8.9104  -11.6199   19.8132 C   0  0  0  0  0  0  0  0  0  0  0  0
    7.4515  -12.5928   19.3754 S   0  0  0  0  0  0  0  0  0  0  0  0
    7.1618  -13.7679   20.7458 C   0  0  0  0  0  0  0  0  0  0  0  0
    7.9711  -15.0391   20.5229 C   0  0  0  0  0  0  0  0  0  0  0  0
    7.6879  -15.9800   21.6743 C   0  0  2  0  0  0  0  0  0  0  0  0
    6.2614  -16.0453   21.9268 N   0  0  0  0  0  0  0  0  0  0  0  0
    8.3686  -15.5454   22.9187 C   0  0  0  0  0  0  0  0  0  0  0  0
    9.6169  -15.4162   22.9419 O   0  0  0  0  0  0  0  0  0  0  0  0
    5.9505  -12.0681   26.3946 C   0  0  0  0  0  0  0  0  0  0  0  0
    7.0067  -12.6804   25.4429 C   0  0  0  0  0  0  0  0  0  0  0  0
    7.4491  -13.9325   26.1542 C   0  0  2  0  0  0  0  0  0  0  0  0
    8.1727  -13.4578   27.4070 C   0  0  0  0  0  0  0  0  0  0  0  0
    8.3509  -14.8348   25.3564 C   0  0  2  0  0  0  0  0  0  0  0  0
    7.6789  -15.2573   24.1222 N   0  0  0  0  0  0  0  0  0  0  0  0
    8.8050  -16.0406   26.0559 C   0  0  0  0  0  0  0  0  0  0  0  0
    7.9700  -16.8114   26.6454 O   0  0  0  0  0  0  0  0  0  0  0  0
   12.6609  -17.1166   25.9375 O   0  0  0  0  0  0  0  0  0  0  0  0
   11.7610  -18.1861   25.9631 C   0  0  0  0  0  0  0  0  0  0  0  0
   10.5560  -17.6934   26.7795 C   0  0  2  0  0  0  0  0  0  0  0  0
   10.1564  -16.4363   26.1278 N   0  0  0  0  0  0  0  0  0  0  0  0
   10.9042  -17.4834   28.1814 C   0  0  0  0  0  0  0  0  0  0  0  0
   11.2617  -18.5523   28.9739 O   0  0  0  0  0  0  0  0  0  0  0  0
   10.8819  -16.3355   28.6765 O   0  0  0  0  0  0  0  0  0  0  0  0
  1  2  1  0
  2  3  1  0
  4  3  1  0
  5  4  1  0
  5  6  1  1
  7  5  1  0
  7  8  2  0
  9 10  1  0
 10 11  1  0
 11 13  1  0
 11 12  1  1
 13 14  1  6
 14  7  1  0
 15 13  1  0
 16 15  2  0
 18 17  1  0
 19 18  1  6
 19 20  1  0
 20 15  1  0
 21 19  1  0
 22 21  1  0
 23 21  2  0
M  END
$$$$
