MIS.pdb
     RDKit          3D

 23 22  0  0  1  0  0  0  0  0999 V2000
    7.3447  -21.7981   19.4722 C   0  0  0  0  0  0  0  0  0  0  0  0
    7.5591  -22.0479   17.6950 S   0  0  0  0  0  0  0  0  0  0  0  0
    7.7684  -20.3939   16.9443 C   0  0  0  0  0  0  0  0  0  0  0  0
    8.5094  -19.4743   17.9064 C   0  0  0  0  0  0  0  0  0  0  0  0
    8.4720  -18.0733   17.3343 C   0  0  2  0  0  0  0  0  0  0  0  0
    9.1638  -18.0355   16.0603 N   0  0  0  0  0  0  0  0  0  0  0  0
    9.1072  -17.0907   18.2462 C   0  0  0  0  0  0  0  0  0  0  0  0
   10.2990  -16.7411   18.0643 O   0  0  0  0  0  0  0  0  0  0  0  0
    6.5603  -12.6916   20.1808 C   0  0  0  0  0  0  0  0  0  0  0  0
    7.6886  -13.5450   19.5524 C   0  0  0  0  0  0  0  0  0  0  0  0
    8.0927  -14.4804   20.6619 C   0  0  2  0  0  0  0  0  0  0  0  0
    8.7053  -13.5967   21.7400 C   0  0  0  0  0  0  0  0  0  0  0  0
    9.0704  -15.5538   20.2673 C   0  0  2  0  0  0  0  0  0  0  0  0
    8.4345  -16.5019   19.3452 N   0  0  0  0  0  0  0  0  0  0  0  0
    9.6377  -16.3214   21.3800 C   0  0  0  0  0  0  0  0  0  0  0  0
    8.9216  -17.1575   22.0334 O   0  0  0  0  0  0  0  0  0  0  0  0
   13.5424  -18.0871   22.9880 O   0  0  0  0  0  0  0  0  0  0  0  0
   13.0158  -16.7966   22.8800 C   0  0  0  0  0  0  0  0  0  0  0  0
   11.4902  -16.9648   22.9534 C   0  0  2  0  0  0  0  0  0  0  0  0
   10.9781  -16.2057   21.8019 N   0  0  0  0  0  0  0  0  0  0  0  0
   10.9519  -16.4580   24.2120 C   0  0  0  0  0  0  0  0  0  0  0  0
   10.9365  -17.2605   25.3319 O   0  0  0  0  0  0  0  0  0  0  0  0
   10.5006  -15.2944   24.2871 O   0  0  0  0  0  0  0  0  0  0  0  0
  1  2  1  0
  2  3  1  0
  4  3  1  0
  5  4  1  0
  5  6  1  6
  7  5  1  0
  7  8  2  0
  9 10  1  0
 10 11  1  0
 11 13  1  0
 11 12  1  1
 13 14  1  6
 14  7  1  0
 15 13  1  0
 16 15  2  0
 18 17  1  0
 19 18  1  1
 19 20  1  0
 20 15  1  0
 21 19  1  0
 22 21  1  0
 23 21  2  0
M  END
$$$$
