MIS.pdb
     RDKit          3D

 23 22  0  0  1  0  0  0  0  0999 V2000
    4.2854  -19.0891   22.5584 C   0  0  0  0  0  0  0  0  0  0  0  0
    3.9845  -18.6124   20.8413 S   0  0  0  0  0  0  0  0  0  0  0  0
    4.9446  -17.0870   20.5340 C   0  0  0  0  0  0  0  0  0  0  0  0
    5.9117  -16.8387   21.6845 C   0  0  0  0  0  0  0  0  0  0  0  0
    6.5427  -15.4784   21.4778 C   0  0  2  0  0  0  0  0  0  0  0  0
    7.3527  -15.4811   20.2749 N   0  0  0  0  0  0  0  0  0  0  0  0
    7.4008  -15.0912   22.6243 C   0  0  0  0  0  0  0  0  0  0  0  0
    8.6453  -15.2420   22.5591 O   0  0  0  0  0  0  0  0  0  0  0  0
    5.9077  -11.3031   26.4170 C   0  0  0  0  0  0  0  0  0  0  0  0
    6.7795  -12.0181   25.3564 C   0  0  0  0  0  0  0  0  0  0  0  0
    7.0398  -13.3739   25.9593 C   0  0  2  0  0  0  0  0  0  0  0  0
    7.9313  -13.1206   27.1674 C   0  0  0  0  0  0  0  0  0  0  0  0
    7.6987  -14.3655   25.0393 C   0  0  2  0  0  0  0  0  0  0  0  0
    6.8906  -14.5446   23.8275 N   0  0  0  0  0  0  0  0  0  0  0  0
    7.9392  -15.6906   25.6186 C   0  0  0  0  0  0  0  0  0  0  0  0
    6.9731  -16.3871   26.0880 O   0  0  0  0  0  0  0  0  0  0  0  0
   11.2960  -17.6345   24.9364 O   0  0  0  0  0  0  0  0  0  0  0  0
   10.1874  -18.4163   25.2742 C   0  0  0  0  0  0  0  0  0  0  0  0
    9.4118  -17.6031   26.3223 C   0  0  2  0  0  0  0  0  0  0  0  0
    9.2149  -16.2858   25.6974 N   0  0  0  0  0  0  0  0  0  0  0  0
   10.1505  -17.4965   27.5767 C   0  0  0  0  0  0  0  0  0  0  0  0
   10.3771  -18.6179   28.3445 O   0  0  0  0  0  0  0  0  0  0  0  0
   10.5839  -16.3904   27.9666 O   0  0  0  0  0  0  0  0  0  0  0  0
  1  2  1  0
  2  3  1  0
  4  3  1  0
  5  4  1  0
  5  6  1  6
  7  5  1  0
  7  8  2  0
  9 10  1  0
 10 11  1  0
 11 13  1  0
 11 12  1  1
 13 14  1  6
 14  7  1  0
 15 13  1  0
 16 15  2  0
 18 17  1  0
 19 18  1  6
 19 20  1  0
 20 15  1  0
 21 19  1  0
 22 21  1  0
 23 21  2  0
M  END
$$$$
