CNK.pdb
     RDKit          3D

 24 23  0  0  1  0  0  0  0  0999 V2000
   16.0023  -12.8856  -14.4861 N   0  0  0  0  0  0  0  0  0  0  0  0
   15.4802  -11.5666  -14.3642 C   0  0  1  0  0  0  0  0  0  0  0  0
   13.9807  -11.5279  -14.1917 C   0  0  0  0  0  0  0  0  0  0  0  0
   13.1240  -11.6190  -15.7837 S   0  0  0  0  0  0  0  0  0  0  0  0
   16.1842  -10.8271  -13.2945 C   0  0  0  0  0  0  0  0  0  0  0  0
   16.1501  -11.2698  -12.1297 O   0  0  0  0  0  0  0  0  0  0  0  0
   19.3468   -7.6989  -10.7134 N   0  0  0  0  0  0  0  0  0  0  0  0
   19.7314   -7.6271  -12.0671 C   0  0  0  0  0  0  0  0  0  0  0  0
   20.7809   -7.0295  -12.3716 O   0  0  0  0  0  0  0  0  0  0  0  0
   18.8760   -8.2654  -13.0949 C   0  0  0  0  0  0  0  0  0  0  0  0
   17.6448   -8.9037  -12.5179 C   0  0  2  0  0  0  0  0  0  0  0  0
   16.9057   -9.6214  -13.5363 N   0  0  0  0  0  0  0  0  0  0  0  0
   16.7806   -7.9086  -11.8228 C   0  0  0  0  0  0  0  0  0  0  0  0
   16.1537   -7.0476  -12.5201 O   0  0  0  0  0  0  0  0  0  0  0  0
   16.6199   -7.8693  -10.4334 N   0  0  0  0  0  0  0  0  0  0  0  0
   15.6355   -6.8710   -9.8257 C   0  0  1  0  0  0  0  0  0  0  0  0
   14.6244   -7.6959   -9.1275 C   0  0  0  0  0  0  0  0  0  0  0  0
   13.4597   -7.1305   -8.4709 C   0  0  0  0  0  0  0  0  0  0  0  0
   12.4154   -7.9816   -7.8551 C   0  0  0  0  0  0  0  0  0  0  0  0
   11.3058   -7.0183   -7.3073 C   0  0  0  0  0  0  0  0  0  0  0  0
   10.3154   -7.8052   -6.6350 N   0  0  0  0  0  0  0  0  0  0  0  0
   16.5193   -6.0316   -8.9976 C   0  0  0  0  0  0  0  0  0  0  0  0
   17.6313   -6.5475   -8.5997 O   0  0  0  0  0  0  0  0  0  0  0  0
   16.2485   -4.7554   -8.6305 O   0  0  0  0  0  0  0  0  0  0  0  0
  2  1  1  1
  3  2  1  0
  3  4  1  0
  5  2  1  0
  5  6  2  0
  7  8  1  0
  8 10  1  0
  8  9  2  0
 11 10  1  6
 11 13  1  0
 11 12  1  0
 12  5  1  0
 13 15  1  0
 14 13  2  0
 15 16  1  0
 16 22  1  0
 17 18  1  0
 16 17  1  1
 19 18  1  0
 19 20  1  0
 21 20  1  0
 22 23  2  0
 22 24  1  0
M  END
$$$$
