CNK.pdb
     RDKit          3D

 24 23  0  0  1  0  0  0  0  0999 V2000
   17.8029  -11.1369  -16.9861 N   0  0  0  0  0  0  0  0  0  0  0  0
   16.8157  -10.5510  -16.1438 C   0  0  1  0  0  0  0  0  0  0  0  0
   16.2569  -11.5078  -15.1180 C   0  0  0  0  0  0  0  0  0  0  0  0
   15.6794  -13.0431  -15.8837 S   0  0  0  0  0  0  0  0  0  0  0  0
   17.3310   -9.3099  -15.5266 C   0  0  0  0  0  0  0  0  0  0  0  0
   16.5926   -8.6656  -14.7562 O   0  0  0  0  0  0  0  0  0  0  0  0
   19.9559   -8.9872  -12.9417 N   0  0  0  0  0  0  0  0  0  0  0  0
   20.9910   -8.5320  -13.7827 C   0  0  0  0  0  0  0  0  0  0  0  0
   22.1694   -8.8358  -13.5177 O   0  0  0  0  0  0  0  0  0  0  0  0
   20.6500   -7.7027  -14.9622 C   0  0  0  0  0  0  0  0  0  0  0  0
   19.1698   -7.5941  -15.1936 C   0  0  2  0  0  0  0  0  0  0  0  0
   18.6440   -8.8124  -15.7746 N   0  0  0  0  0  0  0  0  0  0  0  0
   18.8263   -6.4064  -16.0251 C   0  0  0  0  0  0  0  0  0  0  0  0
   18.8521   -6.5171  -17.2930 O   0  0  0  0  0  0  0  0  0  0  0  0
   18.4739   -5.1656  -15.4827 N   0  0  0  0  0  0  0  0  0  0  0  0
   17.9646   -4.0645  -16.4117 C   0  0  1  0  0  0  0  0  0  0  0  0
   16.6564   -4.5469  -16.9079 C   0  0  0  0  0  0  0  0  0  0  0  0
   15.5091   -3.6757  -17.0873 C   0  0  0  0  0  0  0  0  0  0  0  0
   14.2177   -4.1767  -17.6121 C   0  0  0  0  0  0  0  0  0  0  0  0
   13.2591   -2.9404  -17.7218 C   0  0  0  0  0  0  0  0  0  0  0  0
   11.9721   -3.4025  -18.1488 N   0  0  0  0  0  0  0  0  0  0  0  0
   17.9646   -2.8880  -15.5244 C   0  0  0  0  0  0  0  0  0  0  0  0
   18.1910   -3.0858  -14.2712 O   0  0  0  0  0  0  0  0  0  0  0  0
   17.7497   -1.6139  -15.9336 O   0  0  0  0  0  0  0  0  0  0  0  0
  2  1  1  1
  3  2  1  0
  3  4  1  0
  5  2  1  0
  5  6  2  0
  7  8  1  0
  8 10  1  0
  8  9  2  0
 11 10  1  6
 11 13  1  0
 11 12  1  0
 12  5  1  0
 13 15  1  0
 14 13  2  0
 15 16  1  0
 16 22  1  0
 17 18  1  0
 16 17  1  1
 19 18  1  0
 19 20  1  0
 21 20  1  0
 22 23  2  0
 22 24  1  0
M  END
$$$$
