CNK.pdb
     RDKit          3D

 24 23  0  0  1  0  0  0  0  0999 V2000
   19.0849  -12.8238  -15.2709 N   0  0  0  0  0  0  0  0  0  0  0  0
   19.5926  -12.0757  -16.3709 C   0  0  1  0  0  0  0  0  0  0  0  0
   18.5140  -11.5404  -17.2820 C   0  0  0  0  0  0  0  0  0  0  0  0
   17.5136  -12.8746  -17.9860 S   0  0  0  0  0  0  0  0  0  0  0  0
   20.5027  -11.0105  -15.8976 C   0  0  0  0  0  0  0  0  0  0  0  0
   20.1435  -10.2851  -14.9497 O   0  0  0  0  0  0  0  0  0  0  0  0
   23.9516  -11.2530  -14.2256 N   0  0  0  0  0  0  0  0  0  0  0  0
   24.7010  -10.9055  -15.3673 C   0  0  0  0  0  0  0  0  0  0  0  0
   25.8577  -11.3494  -15.4952 O   0  0  0  0  0  0  0  0  0  0  0  0
   24.0926  -10.0198  -16.3875 C   0  0  0  0  0  0  0  0  0  0  0  0
   22.6578   -9.6867  -16.0931 C   0  0  2  0  0  0  0  0  0  0  0  0
   21.7820  -10.7734  -16.4805 N   0  0  0  0  0  0  0  0  0  0  0  0
   22.2457   -8.4056  -16.7328 C   0  0  0  0  0  0  0  0  0  0  0  0
   22.0736   -8.3773  -17.9938 O   0  0  0  0  0  0  0  0  0  0  0  0
   22.0359   -7.2223  -16.0160 N   0  0  0  0  0  0  0  0  0  0  0  0
   21.4057   -6.0242  -16.7248 C   0  0  1  0  0  0  0  0  0  0  0  0
   20.0751   -6.4918  -17.1733 C   0  0  0  0  0  0  0  0  0  0  0  0
   19.1107   -5.6241  -17.8246 C   0  0  0  0  0  0  0  0  0  0  0  0
   17.8092   -6.1292  -18.3197 C   0  0  0  0  0  0  0  0  0  0  0  0
   17.0586   -4.9089  -18.9575 C   0  0  0  0  0  0  0  0  0  0  0  0
   15.7980   -5.3663  -19.4613 N   0  0  0  0  0  0  0  0  0  0  0  0
   21.4461   -4.9895  -15.6765 C   0  0  0  0  0  0  0  0  0  0  0  0
   21.2410   -5.3637  -14.4605 O   0  0  0  0  0  0  0  0  0  0  0  0
   21.6894   -3.6750  -15.8998 O   0  0  0  0  0  0  0  0  0  0  0  0
  2  1  1  1
  3  2  1  0
  3  4  1  0
  5  2  1  0
  5  6  2  0
  7  8  1  0
  8 10  1  0
  8  9  2  0
 11 10  1  6
 11 13  1  0
 11 12  1  0
 12  5  1  0
 13 15  1  0
 14 13  2  0
 15 16  1  0
 16 22  1  0
 17 18  1  0
 16 17  1  1
 19 18  1  0
 19 20  1  0
 21 20  1  0
 22 23  2  0
 22 24  1  0
M  END
$$$$
