CNK.pdb
     RDKit          3D

 24 23  0  0  1  0  0  0  0  0999 V2000
   20.8280  -10.0344  -14.4065 N   0  0  0  0  0  0  0  0  0  0  0  0
   20.5008   -8.6487  -14.4029 C   0  0  1  0  0  0  0  0  0  0  0  0
   20.3553   -8.0625  -15.7868 C   0  0  0  0  0  0  0  0  0  0  0  0
   21.9621   -7.8492  -16.5926 S   0  0  0  0  0  0  0  0  0  0  0  0
   19.3094   -8.3994  -13.5632 C   0  0  0  0  0  0  0  0  0  0  0  0
   18.3058   -9.1247  -13.7066 O   0  0  0  0  0  0  0  0  0  0  0  0
   16.1821   -6.8603   -9.7743 N   0  0  0  0  0  0  0  0  0  0  0  0
   17.4707   -6.4119   -9.4219 C   0  0  0  0  0  0  0  0  0  0  0  0
   17.6576   -5.9217   -8.2922 O   0  0  0  0  0  0  0  0  0  0  0  0
   18.5717   -6.5354  -10.4058 C   0  0  0  0  0  0  0  0  0  0  0  0
   18.1270   -7.1329  -11.7102 C   0  0  2  0  0  0  0  0  0  0  0  0
   19.2556   -7.3592  -12.5896 N   0  0  0  0  0  0  0  0  0  0  0  0
   17.0840   -6.3000  -12.3723 C   0  0  0  0  0  0  0  0  0  0  0  0
   17.4333   -5.2131  -12.9355 O   0  0  0  0  0  0  0  0  0  0  0  0
   15.7300   -6.6511  -12.4085 N   0  0  0  0  0  0  0  0  0  0  0  0
   14.7424   -5.7354  -13.1305 C   0  0  1  0  0  0  0  0  0  0  0  0
   13.4897   -6.5166  -13.2334 C   0  0  0  0  0  0  0  0  0  0  0  0
   12.2640   -5.9748  -13.7914 C   0  0  0  0  0  0  0  0  0  0  0  0
   11.0380   -6.7936  -13.9356 C   0  0  0  0  0  0  0  0  0  0  0  0
    9.9798   -5.9046  -14.6765 C   0  0  0  0  0  0  0  0  0  0  0  0
    8.7647   -6.6537  -14.7971 N   0  0  0  0  0  0  0  0  0  0  0  0
   14.7334   -4.5454  -12.2615 C   0  0  0  0  0  0  0  0  0  0  0  0
   14.4985   -3.4050  -12.8138 O   0  0  0  0  0  0  0  0  0  0  0  0
   14.9484   -4.5663  -10.9235 O   0  0  0  0  0  0  0  0  0  0  0  0
  2  1  1  6
  3  2  1  0
  3  4  1  0
  5  2  1  0
  5  6  2  0
  7  8  1  0
  8 10  1  0
  8  9  2  0
 11 10  1  1
 11 13  1  0
 11 12  1  0
 12  5  1  0
 13 15  1  0
 14 13  2  0
 15 16  1  0
 16 22  1  0
 17 18  1  0
 16 17  1  1
 19 18  1  0
 19 20  1  0
 21 20  1  0
 22 23  2  0
 22 24  1  0
M  END
$$$$
