CNK.pdb
     RDKit          3D

 24 23  0  0  1  0  0  0  0  0999 V2000
   27.8881  -17.8934  -16.8608 N   0  0  0  0  0  0  0  0  0  0  0  0
   27.3186  -17.5269  -15.6084 C   0  0  1  0  0  0  0  0  0  0  0  0
   26.4607  -16.2863  -15.6788 C   0  0  0  0  0  0  0  0  0  0  0  0
   27.4560  -14.7797  -15.5504 S   0  0  0  0  0  0  0  0  0  0  0  0
   26.5965  -18.6715  -15.0123 C   0  0  0  0  0  0  0  0  0  0  0  0
   25.8082  -19.3256  -15.7227 O   0  0  0  0  0  0  0  0  0  0  0  0
   25.1057  -22.3910  -11.7579 N   0  0  0  0  0  0  0  0  0  0  0  0
   25.8706  -21.5110  -10.9665 C   0  0  0  0  0  0  0  0  0  0  0  0
   26.1119  -21.8102   -9.7818 O   0  0  0  0  0  0  0  0  0  0  0  0
   26.3688  -20.2505  -11.5652 C   0  0  0  0  0  0  0  0  0  0  0  0
   25.9661  -20.0859  -13.0029 C   0  0  2  0  0  0  0  0  0  0  0  0
   26.7618  -19.0641  -13.6517 N   0  0  0  0  0  0  0  0  0  0  0  0
   24.5092  -19.8048  -13.1398 C   0  0  0  0  0  0  0  0  0  0  0  0
   24.0657  -18.6711  -12.7675 O   0  0  0  0  0  0  0  0  0  0  0  0
   23.5949  -20.7276  -13.6598 N   0  0  0  0  0  0  0  0  0  0  0  0
   22.1403  -20.3036  -13.8583 C   0  0  1  0  0  0  0  0  0  0  0  0
   21.8527  -20.5535  -15.2883 C   0  0  0  0  0  0  0  0  0  0  0  0
   20.6237  -20.1284  -15.9334 C   0  0  0  0  0  0  0  0  0  0  0  0
   20.3130  -20.4789  -17.3386 C   0  0  0  0  0  0  0  0  0  0  0  0
   18.9156  -19.8479  -17.6682 C   0  0  0  0  0  0  0  0  0  0  0  0
   18.6537  -20.0331  -19.0644 N   0  0  0  0  0  0  0  0  0  0  0  0
   21.4381  -21.1371  -12.8666 C   0  0  0  0  0  0  0  0  0  0  0  0
   21.8819  -22.3309  -12.6692 O   0  0  0  0  0  0  0  0  0  0  0  0
   20.3639  -20.7356  -12.1443 O   0  0  0  0  0  0  0  0  0  0  0  0
  2  1  1  6
  3  2  1  0
  3  4  1  0
  5  2  1  0
  5  6  2  0
  7  8  1  0
  8 10  1  0
  8  9  2  0
 11 10  1  1
 11 13  1  0
 11 12  1  0
 12  5  1  0
 13 15  1  0
 14 13  2  0
 15 16  1  0
 16 22  1  0
 17 18  1  0
 16 17  1  6
 19 18  1  0
 19 20  1  0
 21 20  1  0
 22 23  2  0
 22 24  1  0
M  END
$$$$
