CNK.pdb
     RDKit          3D

 24 23  0  0  1  0  0  0  0  0999 V2000
24387.1836-276835.1250443191.2188 N   0  0  0  0  0  0  0  0  0  0  0  0
24386.9766-276834.5312443189.9688 C   0  0  1  0  0  0  0  0  0  0  0  0
24388.0547-276834.2812443189.1250 C   0  0  0  0  0  0  0  0  0  0  0  0
24389.4160-276833.4062443190.0000 S   0  0  0  0  0  0  0  0  0  0  0  0
24385.7617-276835.0625443189.3438 C   0  0  0  0  0  0  0  0  0  0  0  0
24385.8945-276835.5625443188.1250 O   0  0  0  0  0  0  0  0  0  0  0  0
24383.0117-276839.0625443189.6250 N   0  0  0  0  0  0  0  0  0  0  0  0
24384.4277-276838.7812443189.7500 C   0  0  0  0  0  0  0  0  0  0  0  0
24385.0820-276839.6250443189.3438 O   0  0  0  0  0  0  0  0  0  0  0  0
24384.8066-276837.5312443190.2812 C   0  0  0  0  0  0  0  0  0  0  0  0
24383.7891-276836.4375443190.0312 C   0  0  2  0  0  0  0  0  0  0  0  0
24384.4805-276835.1562443189.9062 N   0  0  0  0  0  0  0  0  0  0  0  0
24382.7012-276836.5000443191.0938 C   0  0  0  0  0  0  0  0  0  0  0  0
24382.6934-276835.6875443192.0000 O   0  0  0  0  0  0  0  0  0  0  0  0
24381.7207-276837.5000443191.1250 N   0  0  0  0  0  0  0  0  0  0  0  0
24380.6113-276837.4375443192.0625 C   0  0  1  0  0  0  0  0  0  0  0  0
24379.3340-276837.4688443191.2500 C   0  0  0  0  0  0  0  0  0  0  0  0
24378.8301-276838.6562443190.7188 C   0  0  0  0  0  0  0  0  0  0  0  0
24378.8418-276838.7188443189.2812 C   0  0  0  0  0  0  0  0  0  0  0  0
24377.5566-276839.5938443188.9688 C   0  0  0  0  0  0  0  0  0  0  0  0
24376.9629-276840.1250443190.1875 N   0  0  0  0  0  0  0  0  0  0  0  0
24380.9004-276838.7500443192.8125 C   0  0  0  0  0  0  0  0  0  0  0  0
24382.1016-276839.0938443192.9375 O   0  0  0  0  0  0  0  0  0  0  0  0
24379.9609-276839.5625443193.3750 O   0  0  0  0  0  0  0  0  0  0  0  0
  2  1  1  1
  3  2  1  0
  3  4  1  0
  5  2  1  0
  5  6  2  0
  7  8  1  0
  8 10  1  0
  8  9  2  0
 11 10  1  1
 11 13  1  0
 11 12  1  0
 12  5  1  0
 13 15  1  0
 14 13  2  0
 15 16  1  0
 16 22  1  0
 17 18  1  0
 16 17  1  6
 19 18  1  0
 19 20  1  0
 21 20  1  0
 22 23  2  0
 22 24  1  0
M  END
$$$$
