CNK.pdb
     RDKit          3D

 24 23  0  0  1  0  0  0  0  0999 V2000
   22.5829  -20.8186  -14.1528 N   0  0  0  0  0  0  0  0  0  0  0  0
   21.4985  -20.5698  -13.2643 C   0  0  1  0  0  0  0  0  0  0  0  0
   20.5441  -19.5115  -13.7634 C   0  0  0  0  0  0  0  0  0  0  0  0
   19.5222  -20.1247  -15.1259 S   0  0  0  0  0  0  0  0  0  0  0  0
   20.8054  -21.8315  -12.9260 C   0  0  0  0  0  0  0  0  0  0  0  0
   20.9862  -22.8328  -13.6460 O   0  0  0  0  0  0  0  0  0  0  0  0
   19.3152  -25.7049   -9.3970 N   0  0  0  0  0  0  0  0  0  0  0  0
   18.4578  -24.6026   -9.5858 C   0  0  0  0  0  0  0  0  0  0  0  0
   17.2329  -24.7466   -9.4124 O   0  0  0  0  0  0  0  0  0  0  0  0
   19.0367  -23.2987   -9.9863 C   0  0  0  0  0  0  0  0  0  0  0  0
   19.2129  -23.1679  -11.4722 C   0  0  2  0  0  0  0  0  0  0  0  0
   19.9327  -21.9559  -11.8053 N   0  0  0  0  0  0  0  0  0  0  0  0
   17.9097  -23.2378  -12.1913 C   0  0  0  0  0  0  0  0  0  0  0  0
   17.2269  -22.1722  -12.3284 O   0  0  0  0  0  0  0  0  0  0  0  0
   17.3918  -24.4216  -12.7283 N   0  0  0  0  0  0  0  0  0  0  0  0
   16.1106  -24.3643  -13.5590 C   0  0  1  0  0  0  0  0  0  0  0  0
   16.1798  -25.5332  -14.4640 C   0  0  0  0  0  0  0  0  0  0  0  0
   16.9216  -25.5237  -15.7118 C   0  0  0  0  0  0  0  0  0  0  0  0
   17.0685  -26.7383  -16.5469 C   0  0  0  0  0  0  0  0  0  0  0  0
   17.9645  -26.3444  -17.7721 C   0  0  0  0  0  0  0  0  0  0  0  0
   18.1148  -27.4957  -18.6112 N   0  0  0  0  0  0  0  0  0  0  0  0
   15.0677  -24.3699  -12.5180 C   0  0  0  0  0  0  0  0  0  0  0  0
   14.1054  -23.5204  -12.6328 O   0  0  0  0  0  0  0  0  0  0  0  0
   15.0458  -25.2082  -11.4532 O   0  0  0  0  0  0  0  0  0  0  0  0
  2  1  1  6
  3  2  1  0
  3  4  1  0
  5  2  1  0
  5  6  2  0
  7  8  1  0
  8 10  1  0
  8  9  2  0
 11 10  1  1
 11 13  1  0
 11 12  1  0
 12  5  1  0
 13 15  1  0
 14 13  2  0
 15 16  1  0
 16 22  1  0
 17 18  1  0
 16 17  1  6
 19 18  1  0
 19 20  1  0
 21 20  1  0
 22 23  2  0
 22 24  1  0
M  END
$$$$
