FTI.pdb
     RDKit          3D

 27 27  0  0  1  0  0  0  0  0999 V2000
   26.2949  -17.5698  -18.3364 N   0  0  0  0  0  0  0  0  0  0  0  0
   26.0118  -17.4391  -16.9491 C   0  0  1  0  0  0  0  0  0  0  0  0
   24.6479  -16.7695  -16.8273 C   0  0  0  0  0  0  0  0  0  0  0  0
   24.8741  -15.3085  -16.9589 C   0  0  0  0  0  0  0  0  0  0  0  0
   25.4152  -14.5308  -15.9616 C   0  0  0  0  0  0  0  0  0  0  0  0
   25.6020  -13.1717  -16.1628 C   0  0  0  0  0  0  0  0  0  0  0  0
   25.2662  -12.5384  -17.3404 C   0  0  0  0  0  0  0  0  0  0  0  0
   24.7208  -13.3306  -18.3427 C   0  0  0  0  0  0  0  0  0  0  0  0
   24.5239  -14.7017  -18.1613 C   0  0  0  0  0  0  0  0  0  0  0  0
   26.1076  -18.6458  -16.1291 C   0  0  0  0  0  0  0  0  0  0  0  0
   26.3365  -19.7589  -16.7264 O   0  0  0  0  0  0  0  0  0  0  0  0
   27.8877  -20.6647  -15.8281 C   0  0  0  0  0  0  0  0  0  0  0  0
   27.6598  -20.4988  -14.3631 C   0  0  1  0  0  0  0  0  0  0  0  0
   28.6438  -19.6677  -13.8610 O   0  0  0  0  0  0  0  0  0  0  0  0
   26.3117  -19.9546  -13.9806 C   0  0  2  0  0  0  0  0  0  0  0  0
   25.9829  -18.7637  -14.7417 N   0  0  0  0  0  0  0  0  0  0  0  0
   26.2165  -19.7431  -12.5313 C   0  0  0  0  0  0  0  0  0  0  0  0
   26.2301  -18.5570  -12.0287 O   0  0  0  0  0  0  0  0  0  0  0  0
   21.4126  -19.9922  -10.3033 C   0  0  0  0  0  0  0  0  0  0  0  0
   22.8200  -20.1877   -9.8148 C   0  0  0  0  0  0  0  0  0  0  0  0
   23.8202  -20.4577  -10.8937 C   0  0  2  0  0  0  0  0  0  0  0  0
   23.3422  -21.6874  -11.6336 C   0  0  0  0  0  0  0  0  0  0  0  0
   25.2461  -20.6128  -10.3876 C   0  0  2  0  0  0  0  0  0  0  0  0
   26.1013  -20.7816  -11.5668 N   0  0  0  0  0  0  0  0  0  0  0  0
   25.2875  -21.8229   -9.5354 C   0  0  0  0  0  0  0  0  0  0  0  0
   25.0799  -21.8262   -8.2939 O   0  0  0  0  0  0  0  0  0  0  0  0
   25.5731  -23.0381  -10.1436 O   0  0  0  0  0  0  0  0  0  0  0  0
  2  3  1  0
  2  1  1  6
  4  9  2  0
  4  3  1  0
  5  4  1  0
  6  7  1  0
  6  5  2  0
  7  8  2  0
  8  9  1  0
 10  2  1  0
 11 10  2  0
 13 12  1  6
 14 13  1  0
 15 13  1  0
 15 16  1  6
 16 10  1  0
 17 18  2  0
 17 15  1  0
 19 20  1  0
 20 21  1  0
 21 23  1  0
 21 22  1  1
 23 24  1  6
 24 17  1  0
 25 23  1  0
 25 27  1  0
 26 25  2  0
M  END
$$$$
