FTI.pdb
     RDKit          3D

 27 27  0  0  1  0  0  0  0  0999 V2000
   24.6678  -22.0112  -14.9554 N   0  0  0  0  0  0  0  0  0  0  0  0
   24.6132  -21.5521  -13.6108 C   0  0  1  0  0  0  0  0  0  0  0  0
   23.3137  -22.0726  -13.0078 C   0  0  0  0  0  0  0  0  0  0  0  0
   22.2079  -21.5179  -13.8279 C   0  0  0  0  0  0  0  0  0  0  0  0
   21.7384  -20.2313  -13.6994 C   0  0  0  0  0  0  0  0  0  0  0  0
   20.7048  -19.7836  -14.5080 C   0  0  0  0  0  0  0  0  0  0  0  0
   20.1047  -20.5786  -15.4610 C   0  0  0  0  0  0  0  0  0  0  0  0
   20.5846  -21.8763  -15.5850 C   0  0  0  0  0  0  0  0  0  0  0  0
   21.6250  -22.3480  -14.7807 C   0  0  0  0  0  0  0  0  0  0  0  0
   25.7673  -21.8351  -12.7588 C   0  0  0  0  0  0  0  0  0  0  0  0
   26.8193  -22.3155  -13.3161 O   0  0  0  0  0  0  0  0  0  0  0  0
   27.8110  -19.9320  -12.7982 C   0  0  0  0  0  0  0  0  0  0  0  0
   27.5894  -19.8931  -11.3233 C   0  0  1  0  0  0  0  0  0  0  0  0
   26.6909  -18.8802  -11.0448 O   0  0  0  0  0  0  0  0  0  0  0  0
   27.0925  -21.1748  -10.7147 C   0  0  2  0  0  0  0  0  0  0  0  0
   25.8929  -21.6495  -11.3790 N   0  0  0  0  0  0  0  0  0  0  0  0
   26.9194  -21.0410   -9.2634 C   0  0  0  0  0  0  0  0  0  0  0  0
   25.7467  -20.9523   -8.7376 O   0  0  0  0  0  0  0  0  0  0  0  0
   30.2643  -20.7631   -3.9669 C   0  0  0  0  0  0  0  0  0  0  0  0
   28.9453  -20.7554   -4.6863 C   0  0  0  0  0  0  0  0  0  0  0  0
   29.0493  -20.8495   -6.1756 C   0  0  2  0  0  0  0  0  0  0  0  0
   29.9213  -19.6983   -6.6254 C   0  0  0  0  0  0  0  0  0  0  0  0
   27.7054  -20.8614   -6.8877 C   0  0  2  0  0  0  0  0  0  0  0  0
   27.9834  -20.9990   -8.3209 N   0  0  0  0  0  0  0  0  0  0  0  0
   27.0405  -19.5686   -6.6069 C   0  0  0  0  0  0  0  0  0  0  0  0
   27.1005  -18.5599   -7.3574 O   0  0  0  0  0  0  0  0  0  0  0  0
   26.2986  -19.4584   -5.4383 O   0  0  0  0  0  0  0  0  0  0  0  0
  2  3  1  0
  2  1  1  6
  4  9  2  0
  4  3  1  0
  5  4  1  0
  6  7  1  0
  6  5  2  0
  7  8  2  0
  8  9  1  0
 10  2  1  0
 11 10  2  0
 13 12  1  6
 14 13  1  0
 15 13  1  0
 15 16  1  6
 16 10  1  0
 17 18  2  0
 17 15  1  0
 19 20  1  0
 20 21  1  0
 21 23  1  0
 21 22  1  6
 23 24  1  6
 24 17  1  0
 25 23  1  0
 25 27  1  0
 26 25  2  0
M  END
$$$$
