FTI.pdb
     RDKit          3D

 27 27  0  0  1  0  0  0  0  0999 V2000
   25.9577  -19.5194  -15.0550 N   0  0  0  0  0  0  0  0  0  0  0  0
   26.7399  -19.8942  -13.9284 C   0  0  1  0  0  0  0  0  0  0  0  0
   28.1407  -19.3333  -14.1438 C   0  0  0  0  0  0  0  0  0  0  0  0
   28.7428  -20.1011  -15.2623 C   0  0  0  0  0  0  0  0  0  0  0  0
   29.2539  -21.3707  -15.1236 C   0  0  0  0  0  0  0  0  0  0  0  0
   29.7948  -22.0266  -16.2189 C   0  0  0  0  0  0  0  0  0  0  0  0
   29.8501  -21.4613  -17.4750 C   0  0  0  0  0  0  0  0  0  0  0  0
   29.3316  -20.1794  -17.6070 C   0  0  0  0  0  0  0  0  0  0  0  0
   28.7820  -19.5002  -16.5169 C   0  0  0  0  0  0  0  0  0  0  0  0
   26.2118  -19.5627  -12.6058 C   0  0  0  0  0  0  0  0  0  0  0  0
   25.3464  -18.6178  -12.5265 O   0  0  0  0  0  0  0  0  0  0  0  0
   23.4377  -20.5205   -9.1939 C   0  0  0  0  0  0  0  0  0  0  0  0
   24.3223  -20.5442  -10.3950 C   0  0  1  0  0  0  0  0  0  0  0  0
   23.7183  -19.8051  -11.3949 O   0  0  0  0  0  0  0  0  0  0  0  0
   25.7175  -20.0295  -10.1751 C   0  0  2  0  0  0  0  0  0  0  0  0
   26.5241  -20.1484  -11.3755 N   0  0  0  0  0  0  0  0  0  0  0  0
   26.3411  -20.6679   -9.0099 C   0  0  0  0  0  0  0  0  0  0  0  0
   26.4912  -21.9460   -8.9510 O   0  0  0  0  0  0  0  0  0  0  0  0
   29.6773  -17.9351   -5.5204 C   0  0  0  0  0  0  0  0  0  0  0  0
   29.1008  -19.0574   -6.3361 C   0  0  0  0  0  0  0  0  0  0  0  0
   27.8943  -19.7062   -5.7352 C   0  0  2  0  0  0  0  0  0  0  0  0
   28.3423  -20.3438   -4.4387 C   0  0  0  0  0  0  0  0  0  0  0  0
   27.2078  -20.7034   -6.6558 C   0  0  2  0  0  0  0  0  0  0  0  0
   26.8287  -19.9725   -7.8693 N   0  0  0  0  0  0  0  0  0  0  0  0
   26.0057  -21.2055   -5.9521 C   0  0  0  0  0  0  0  0  0  0  0  0
   24.9397  -20.5516   -5.8096 O   0  0  0  0  0  0  0  0  0  0  0  0
   26.0536  -22.4843   -5.4130 O   0  0  0  0  0  0  0  0  0  0  0  0
  2  3  1  0
  2  1  1  6
  4  9  2  0
  4  3  1  0
  5  4  1  0
  6  7  1  0
  6  5  2  0
  7  8  2  0
  8  9  1  0
 10  2  1  0
 11 10  2  0
 13 12  1  1
 14 13  1  0
 15 13  1  0
 15 16  1  6
 16 10  1  0
 17 18  2  0
 17 15  1  0
 19 20  1  0
 20 21  1  0
 21 23  1  0
 21 22  1  1
 23 24  1  6
 24 17  1  0
 25 23  1  0
 25 27  1  0
 26 25  2  0
M  END
$$$$
