FTI.pdb
     RDKit          3D

 27 27  0  0  1  0  0  0  0  0999 V2000
   25.5979  -19.0063  -15.1025 N   0  0  0  0  0  0  0  0  0  0  0  0
   26.4485  -18.8627  -13.9721 C   0  0  1  0  0  0  0  0  0  0  0  0
   27.1348  -17.5070  -14.0922 C   0  0  0  0  0  0  0  0  0  0  0  0
   28.0333  -17.5840  -15.2712 C   0  0  0  0  0  0  0  0  0  0  0  0
   27.7882  -16.9310  -16.4568 C   0  0  0  0  0  0  0  0  0  0  0  0
   28.6798  -17.0468  -17.5123 C   0  0  0  0  0  0  0  0  0  0  0  0
   29.8312  -17.8012  -17.4374 C   0  0  0  0  0  0  0  0  0  0  0  0
   30.0718  -18.4571  -16.2368 C   0  0  0  0  0  0  0  0  0  0  0  0
   29.1869  -18.3543  -15.1606 C   0  0  0  0  0  0  0  0  0  0  0  0
   25.8493  -19.0612  -12.6532 C   0  0  0  0  0  0  0  0  0  0  0  0
   24.6090  -18.7634  -12.5083 O   0  0  0  0  0  0  0  0  0  0  0  0
   23.6394  -20.5044  -11.5682 C   0  0  0  0  0  0  0  0  0  0  0  0
   24.6654  -20.9347  -10.5742 C   0  0  1  0  0  0  0  0  0  0  0  0
   25.2489  -22.1024  -11.0289 O   0  0  0  0  0  0  0  0  0  0  0  0
   25.7414  -19.9257  -10.2843 C   0  0  2  0  0  0  0  0  0  0  0  0
   26.4542  -19.5464  -11.4901 N   0  0  0  0  0  0  0  0  0  0  0  0
   26.6383  -20.3965   -9.2223 C   0  0  0  0  0  0  0  0  0  0  0  0
   27.6000  -21.2151   -9.4764 O   0  0  0  0  0  0  0  0  0  0  0  0
   29.5913  -17.8766   -5.8537 C   0  0  0  0  0  0  0  0  0  0  0  0
   29.0054  -19.0062   -6.6525 C   0  0  0  0  0  0  0  0  0  0  0  0
   27.9655  -19.8034   -5.9309 C   0  0  2  0  0  0  0  0  0  0  0  0
   28.6630  -20.4845   -4.7743 C   0  0  0  0  0  0  0  0  0  0  0  0
   27.2245  -20.7942   -6.8156 C   0  0  2  0  0  0  0  0  0  0  0  0
   26.5473  -20.0134   -7.8558 N   0  0  0  0  0  0  0  0  0  0  0  0
   26.2374  -21.4988   -5.9662 C   0  0  0  0  0  0  0  0  0  0  0  0
   25.0080  -21.2308   -5.9324 O   0  0  0  0  0  0  0  0  0  0  0  0
   26.6951  -22.5262   -5.1518 O   0  0  0  0  0  0  0  0  0  0  0  0
  2  3  1  0
  2  1  1  6
  4  9  2  0
  4  3  1  0
  5  4  1  0
  6  7  1  0
  6  5  2  0
  7  8  2  0
  8  9  1  0
 10  2  1  0
 11 10  2  0
 13 12  1  6
 14 13  1  0
 15 13  1  0
 15 16  1  6
 16 10  1  0
 17 18  2  0
 17 15  1  0
 19 20  1  0
 20 21  1  0
 21 23  1  0
 21 22  1  1
 23 24  1  6
 24 17  1  0
 25 23  1  0
 25 27  1  0
 26 25  2  0
M  END
$$$$
