FTI.pdb
     RDKit          3D

 27 27  0  0  1  0  0  0  0  0999 V2000
   25.7026  -21.0621   -7.4115 N   0  0  0  0  0  0  0  0  0  0  0  0
   26.4877  -20.3485   -8.3581 C   0  0  1  0  0  0  0  0  0  0  0  0
   27.9460  -20.4985   -7.9406 C   0  0  0  0  0  0  0  0  0  0  0  0
   28.0521  -19.9728   -6.5566 C   0  0  0  0  0  0  0  0  0  0  0  0
   27.9392  -20.7603   -5.4343 C   0  0  0  0  0  0  0  0  0  0  0  0
   28.0569  -20.1958   -4.1733 C   0  0  0  0  0  0  0  0  0  0  0  0
   28.2877  -18.8511   -3.9761 C   0  0  0  0  0  0  0  0  0  0  0  0
   28.4009  -18.0627   -5.1142 C   0  0  0  0  0  0  0  0  0  0  0  0
   28.2857  -18.6107   -6.3942 C   0  0  0  0  0  0  0  0  0  0  0  0
   26.2847  -20.6645   -9.7712 C   0  0  0  0  0  0  0  0  0  0  0  0
   26.2108  -21.9025  -10.1031 O   0  0  0  0  0  0  0  0  0  0  0  0
   24.6441  -22.3018  -11.5330 C   0  0  0  0  0  0  0  0  0  0  0  0
   24.5876  -21.0046  -12.2677 C   0  0  1  0  0  0  0  0  0  0  0  0
   23.5325  -20.2658  -11.7656 O   0  0  0  0  0  0  0  0  0  0  0  0
   25.8416  -20.1777  -12.2078 C   0  0  2  0  0  0  0  0  0  0  0  0
   26.1537  -19.7817  -10.8471 N   0  0  0  0  0  0  0  0  0  0  0  0
   25.7681  -19.0350  -13.1260 C   0  0  0  0  0  0  0  0  0  0  0  0
   25.4101  -17.8690  -12.7115 O   0  0  0  0  0  0  0  0  0  0  0  0
   29.8733  -17.7794  -15.9648 C   0  0  0  0  0  0  0  0  0  0  0  0
   28.5674  -17.8190  -15.2227 C   0  0  0  0  0  0  0  0  0  0  0  0
   27.3549  -17.8213  -16.0986 C   0  0  2  0  0  0  0  0  0  0  0  0
   27.4511  -16.5955  -16.9797 C   0  0  0  0  0  0  0  0  0  0  0  0
   26.0417  -17.8740  -15.3331 C   0  0  2  0  0  0  0  0  0  0  0  0
   26.0741  -19.0897  -14.5137 N   0  0  0  0  0  0  0  0  0  0  0  0
   24.9478  -17.9446  -16.3285 C   0  0  0  0  0  0  0  0  0  0  0  0
   24.5717  -19.0021  -16.8983 O   0  0  0  0  0  0  0  0  0  0  0  0
   24.2894  -16.7670  -16.6570 O   0  0  0  0  0  0  0  0  0  0  0  0
  2  3  1  0
  2  1  1  1
  4  9  2  0
  4  3  1  0
  5  4  1  0
  6  7  1  0
  6  5  2  0
  7  8  2  0
  8  9  1  0
 10  2  1  0
 11 10  2  0
 13 12  1  1
 14 13  1  0
 15 13  1  0
 15 16  1  1
 16 10  1  0
 17 18  2  0
 17 15  1  0
 19 20  1  0
 20 21  1  0
 21 23  1  0
 21 22  1  1
 23 24  1  1
 24 17  1  0
 25 23  1  0
 25 27  1  0
 26 25  2  0
M  END
$$$$
