SFH.pdb
     RDKit          3D

 28 29  0  0  1  0  0  0  0  0999 V2000
    9.3908  -19.1291   20.4126 O   0  0  0  0  0  0  0  0  0  0  0  0
    8.5233  -18.2061   19.8757 C   0  0  0  0  0  0  0  0  0  0  0  0
    9.1291  -16.8288   19.7412 C   0  0  2  0  0  0  0  0  0  0  0  0
   10.4301  -16.9420   19.1215 N   0  0  0  0  0  0  0  0  0  0  0  0
    9.2165  -16.1332   21.0456 C   0  0  0  0  0  0  0  0  0  0  0  0
   10.3393  -16.0195   21.5959 O   0  0  0  0  0  0  0  0  0  0  0  0
    8.1150  -15.5782   21.7318 N   0  0  0  0  0  0  0  0  0  0  0  0
    8.1627  -14.9803   23.0377 C   0  0  1  0  0  0  0  0  0  0  0  0
    7.0171  -14.1477   23.4104 C   0  0  0  0  0  0  0  0  0  0  0  0
    7.1558  -13.3910   24.6665 C   0  0  0  0  0  0  0  0  0  0  0  0
    8.0228  -12.3378   24.8182 C   0  0  0  0  0  0  0  0  0  0  0  0
    8.1066  -11.6466   26.0308 C   0  0  0  0  0  0  0  0  0  0  0  0
    7.3088  -12.0218   27.1015 C   0  0  0  0  0  0  0  0  0  0  0  0
    6.4538  -13.0627   26.9512 C   0  0  0  0  0  0  0  0  0  0  0  0
    6.3695  -13.7569   25.7322 C   0  0  0  0  0  0  0  0  0  0  0  0
    8.4389  -15.9705   24.1000 C   0  0  0  0  0  0  0  0  0  0  0  0
    7.6503  -16.9174   24.3093 O   0  0  0  0  0  0  0  0  0  0  0  0
    9.5979  -15.8423   24.8733 N   0  0  0  0  0  0  0  0  0  0  0  0
    9.9472  -16.7970   25.9340 C   0  0  1  0  0  0  0  0  0  0  0  0
   11.4567  -16.9827   25.7941 C   0  0  0  0  0  0  0  0  0  0  0  0
   11.7929  -17.8858   24.6878 C   0  0  0  0  0  0  0  0  0  0  0  0
   10.8534  -18.5676   23.9107 C   0  0  0  0  0  0  0  0  0  0  0  0
   11.5267  -19.2907   22.9972 N   0  0  0  0  0  0  0  0  0  0  0  0
   12.8480  -19.0975   23.1633 C   0  0  0  0  0  0  0  0  0  0  0  0
   12.9916  -18.2409   24.1941 N   0  0  0  0  0  0  0  0  0  0  0  0
    9.5997  -16.1992   27.2412 C   0  0  0  0  0  0  0  0  0  0  0  0
    9.7912  -16.9682   28.3769 O   0  0  0  0  0  0  0  0  0  0  0  0
    9.1415  -15.0395   27.3966 O   0  0  0  0  0  0  0  0  0  0  0  0
  1  2  1  0
  3  5  1  0
  3  2  1  0
  3  4  1  1
  5  6  2  0
  5  7  1  0
  7  8  1  0
  8  9  1  1
  9 10  1  0
 10 15  1  0
 11 10  2  0
 11 12  1  0
 12 13  2  0
 13 14  1  0
 15 14  2  0
 16 17  2  0
 16  8  1  0
 18 16  1  0
 19 18  1  0
 19 20  1  1
 21 25  1  0
 21 20  1  0
 22 21  2  0
 23 22  1  0
 23 24  1  0
 24 25  2  0
 26 19  1  0
 27 26  1  0
 28 26  2  0
M  END
$$$$
