SFH.pdb
     RDKit          3D

 28 29  0  0  1  0  0  0  0  0999 V2000
    7.8137  -18.9754   19.7176 O   0  0  0  0  0  0  0  0  0  0  0  0
    8.8236  -18.3027   20.3659 C   0  0  0  0  0  0  0  0  0  0  0  0
    8.8100  -16.8148   20.1048 C   0  0  2  0  0  0  0  0  0  0  0  0
    9.8400  -16.4932   19.1430 N   0  0  0  0  0  0  0  0  0  0  0  0
    8.9790  -16.0330   21.3512 C   0  0  0  0  0  0  0  0  0  0  0  0
   10.1287  -15.6386   21.6660 O   0  0  0  0  0  0  0  0  0  0  0  0
    7.9286  -15.6908   22.2297 N   0  0  0  0  0  0  0  0  0  0  0  0
    8.0797  -14.9908   23.4756 C   0  0  1  0  0  0  0  0  0  0  0  0
    6.9006  -14.2699   23.9599 C   0  0  0  0  0  0  0  0  0  0  0  0
    7.0874  -13.4926   25.1971 C   0  0  0  0  0  0  0  0  0  0  0  0
    7.6937  -12.2617   25.2275 C   0  0  0  0  0  0  0  0  0  0  0  0
    7.8355  -11.5614   26.4295 C   0  0  0  0  0  0  0  0  0  0  0  0
    7.3620  -12.1085   27.6128 C   0  0  0  0  0  0  0  0  0  0  0  0
    6.7645  -13.3247   27.5820 C   0  0  0  0  0  0  0  0  0  0  0  0
    6.6218  -14.0279   26.3737 C   0  0  0  0  0  0  0  0  0  0  0  0
    8.6216  -15.8559   24.5447 C   0  0  0  0  0  0  0  0  0  0  0  0
    8.0292  -16.9050   24.8774 O   0  0  0  0  0  0  0  0  0  0  0  0
    9.8117  -15.4925   25.1846 N   0  0  0  0  0  0  0  0  0  0  0  0
   10.4761  -16.3612   26.1658 C   0  0  1  0  0  0  0  0  0  0  0  0
   11.9662  -16.1028   25.9522 C   0  0  0  0  0  0  0  0  0  0  0  0
   12.4569  -16.7357   24.7230 C   0  0  0  0  0  0  0  0  0  0  0  0
   11.7994  -17.7672   24.0483 C   0  0  0  0  0  0  0  0  0  0  0  0
   12.5388  -18.0865   22.9704 N   0  0  0  0  0  0  0  0  0  0  0  0
   13.6335  -17.3046   22.9348 C   0  0  0  0  0  0  0  0  0  0  0  0
   13.5672  -16.4897   24.0065 N   0  0  0  0  0  0  0  0  0  0  0  0
   10.0506  -15.9541   27.5222 C   0  0  0  0  0  0  0  0  0  0  0  0
   10.4969  -16.7078   28.5949 O   0  0  0  0  0  0  0  0  0  0  0  0
    9.3105  -14.9700   27.7729 O   0  0  0  0  0  0  0  0  0  0  0  0
  1  2  1  0
  3  5  1  0
  3  2  1  0
  3  4  1  6
  5  6  2  0
  5  7  1  0
  7  8  1  0
  8  9  1  1
  9 10  1  0
 10 15  1  0
 11 10  2  0
 11 12  1  0
 12 13  2  0
 13 14  1  0
 15 14  2  0
 16 17  2  0
 16  8  1  0
 18 16  1  0
 19 18  1  0
 19 20  1  1
 21 25  1  0
 21 20  1  0
 22 21  2  0
 23 22  1  0
 23 24  1  0
 24 25  2  0
 26 19  1  0
 27 26  1  0
 28 26  2  0
M  END
$$$$
