SFH.pdb
     RDKit          3D

 28 29  0  0  1  0  0  0  0  0999 V2000
    8.8803  -19.4066   19.5562 O   0  0  0  0  0  0  0  0  0  0  0  0
    8.2546  -18.8452   20.6452 C   0  0  0  0  0  0  0  0  0  0  0  0
    7.8101  -17.4212   20.4068 C   0  0  2  0  0  0  0  0  0  0  0  0
    8.3778  -16.9495   19.1640 N   0  0  0  0  0  0  0  0  0  0  0  0
    8.1751  -16.5319   21.5333 C   0  0  0  0  0  0  0  0  0  0  0  0
    9.3697  -16.1632   21.6497 O   0  0  0  0  0  0  0  0  0  0  0  0
    7.2678  -16.0582   22.5052 N   0  0  0  0  0  0  0  0  0  0  0  0
    7.6268  -15.3673   23.7131 C   0  0  1  0  0  0  0  0  0  0  0  0
    6.5465  -14.6508   24.3943 C   0  0  0  0  0  0  0  0  0  0  0  0
    6.9666  -13.6891   25.4279 C   0  0  0  0  0  0  0  0  0  0  0  0
    7.3758  -12.4103   25.1434 C   0  0  0  0  0  0  0  0  0  0  0  0
    7.7541  -11.5342   26.1654 C   0  0  0  0  0  0  0  0  0  0  0  0
    7.7203  -11.9522   27.4875 C   0  0  0  0  0  0  0  0  0  0  0  0
    7.3172  -13.2156   27.7673 C   0  0  0  0  0  0  0  0  0  0  0  0
    6.9367  -14.0957   26.7400 C   0  0  0  0  0  0  0  0  0  0  0  0
    8.3405  -16.2400   24.6693 C   0  0  0  0  0  0  0  0  0  0  0  0
    7.8800  -17.3610   24.9752 O   0  0  0  0  0  0  0  0  0  0  0  0
    9.5444  -15.8019   25.2316 N   0  0  0  0  0  0  0  0  0  0  0  0
   10.4119  -16.6848   26.0232 C   0  0  1  0  0  0  0  0  0  0  0  0
   11.8295  -16.2468   25.6609 C   0  0  0  0  0  0  0  0  0  0  0  0
   12.1591  -16.5702   24.2683 C   0  0  0  0  0  0  0  0  0  0  0  0
   12.5761  -17.8281   23.8265 C   0  0  0  0  0  0  0  0  0  0  0  0
   12.7799  -17.7478   22.4989 N   0  0  0  0  0  0  0  0  0  0  0  0
   12.5118  -16.4964   22.0829 C   0  0  0  0  0  0  0  0  0  0  0  0
   12.1356  -15.7948   23.1707 N   0  0  0  0  0  0  0  0  0  0  0  0
   10.1319  -16.4603   27.4578 C   0  0  0  0  0  0  0  0  0  0  0  0
   10.4755  -17.4625   28.3496 O   0  0  0  0  0  0  0  0  0  0  0  0
    9.6027  -15.4221   27.9279 O   0  0  0  0  0  0  0  0  0  0  0  0
  1  2  1  0
  3  5  1  0
  3  2  1  0
  3  4  1  6
  5  6  2  0
  5  7  1  0
  7  8  1  0
  8  9  1  1
  9 10  1  0
 10 15  1  0
 11 10  2  0
 11 12  1  0
 12 13  2  0
 13 14  1  0
 15 14  2  0
 16 17  2  0
 16  8  1  0
 18 16  1  0
 19 18  1  0
 19 20  1  1
 21 25  1  0
 21 20  1  0
 22 21  2  0
 23 22  1  0
 23 24  1  0
 24 25  2  0
 26 19  1  0
 27 26  1  0
 28 26  2  0
M  END
$$$$
