SFH.pdb
     RDKit          3D

 28 29  0  0  1  0  0  0  0  0999 V2000
    8.9101  -18.8574   20.5377 O   0  0  0  0  0  0  0  0  0  0  0  0
    8.0891  -18.0031   19.8384 C   0  0  0  0  0  0  0  0  0  0  0  0
    8.6589  -16.6109   19.7005 C   0  0  2  0  0  0  0  0  0  0  0  0
    9.9164  -16.6817   18.9912 N   0  0  0  0  0  0  0  0  0  0  0  0
    8.8224  -15.9476   21.0144 C   0  0  0  0  0  0  0  0  0  0  0  0
    9.9513  -15.9647   21.5638 O   0  0  0  0  0  0  0  0  0  0  0  0
    7.7884  -15.2857   21.7108 N   0  0  0  0  0  0  0  0  0  0  0  0
    7.8886  -14.7539   23.0421 C   0  0  1  0  0  0  0  0  0  0  0  0
    6.7942  -13.8823   23.4748 C   0  0  0  0  0  0  0  0  0  0  0  0
    6.9651  -13.2436   24.7911 C   0  0  0  0  0  0  0  0  0  0  0  0
    7.7831  -12.1618   25.0015 C   0  0  0  0  0  0  0  0  0  0  0  0
    7.9002  -11.5872   26.2709 C   0  0  0  0  0  0  0  0  0  0  0  0
    7.1858  -12.1094   27.3390 C   0  0  0  0  0  0  0  0  0  0  0  0
    6.3792  -13.1784   27.1305 C   0  0  0  0  0  0  0  0  0  0  0  0
    6.2615  -13.7554   25.8545 C   0  0  0  0  0  0  0  0  0  0  0  0
    8.1300  -15.8065   24.0515 C   0  0  0  0  0  0  0  0  0  0  0  0
    7.3897  -16.8117   24.1138 O   0  0  0  0  0  0  0  0  0  0  0  0
    9.2015  -15.6716   24.9411 N   0  0  0  0  0  0  0  0  0  0  0  0
    9.7292  -16.8024   25.7166 C   0  0  1  0  0  0  0  0  0  0  0  0
   11.0782  -17.1087   25.0692 C   0  0  0  0  0  0  0  0  0  0  0  0
   11.7739  -18.2035   25.7545 C   0  0  0  0  0  0  0  0  0  0  0  0
   11.1488  -19.3515   26.2471 C   0  0  0  0  0  0  0  0  0  0  0  0
   12.0979  -20.1268   26.8027 N   0  0  0  0  0  0  0  0  0  0  0  0
   13.2931  -19.5200   26.6844 C   0  0  0  0  0  0  0  0  0  0  0  0
   13.0778  -18.3532   26.0447 N   0  0  0  0  0  0  0  0  0  0  0  0
    9.8943  -16.3752   27.1227 C   0  0  0  0  0  0  0  0  0  0  0  0
    9.6885  -17.3189   28.1151 O   0  0  0  0  0  0  0  0  0  0  0  0
   10.2091  -15.2134   27.4835 O   0  0  0  0  0  0  0  0  0  0  0  0
  1  2  1  0
  3  5  1  0
  3  2  1  0
  3  4  1  1
  5  6  2  0
  5  7  1  0
  7  8  1  0
  8  9  1  1
  9 10  1  0
 10 15  1  0
 11 10  2  0
 11 12  1  0
 12 13  2  0
 13 14  1  0
 15 14  2  0
 16 17  2  0
 16  8  1  0
 18 16  1  0
 19 18  1  0
 19 20  1  6
 21 25  1  0
 21 20  1  0
 22 21  2  0
 23 22  1  0
 23 24  1  0
 24 25  2  0
 26 19  1  0
 27 26  1  0
 28 26  2  0
M  END
$$$$
