SFH.pdb
     RDKit          3D

 28 29  0  0  1  0  0  0  0  0999 V2000
   10.0836  -19.2620   20.5257 O   0  0  0  0  0  0  0  0  0  0  0  0
    9.0200  -18.4155   20.3135 C   0  0  0  0  0  0  0  0  0  0  0  0
    9.4380  -16.9834   20.0763 C   0  0  2  0  0  0  0  0  0  0  0  0
   10.7169  -16.9685   19.4029 N   0  0  0  0  0  0  0  0  0  0  0  0
    9.4874  -16.2058   21.3357 C   0  0  0  0  0  0  0  0  0  0  0  0
   10.5858  -16.0928   21.9334 O   0  0  0  0  0  0  0  0  0  0  0  0
    8.3748  -15.5705   21.9280 N   0  0  0  0  0  0  0  0  0  0  0  0
    8.3567  -14.9686   23.2328 C   0  0  1  0  0  0  0  0  0  0  0  0
    7.2026  -14.1206   23.5382 C   0  0  0  0  0  0  0  0  0  0  0  0
    7.2734  -13.3729   24.8054 C   0  0  0  0  0  0  0  0  0  0  0  0
    8.1453  -12.3345   25.0181 C   0  0  0  0  0  0  0  0  0  0  0  0
    8.1632  -11.6513   26.2380 C   0  0  0  0  0  0  0  0  0  0  0  0
    7.2936  -12.0195   27.2538 C   0  0  0  0  0  0  0  0  0  0  0  0
    6.4338  -13.0459   27.0433 C   0  0  0  0  0  0  0  0  0  0  0  0
    6.4159  -13.7321   25.8170 C   0  0  0  0  0  0  0  0  0  0  0  0
    8.5603  -15.9585   24.3117 C   0  0  0  0  0  0  0  0  0  0  0  0
    7.8235  -16.9641   24.4014 O   0  0  0  0  0  0  0  0  0  0  0  0
    9.5918  -15.7632   25.2366 N   0  0  0  0  0  0  0  0  0  0  0  0
    9.9408  -16.7667   26.2515 C   0  0  1  0  0  0  0  0  0  0  0  0
   11.4624  -16.8719   26.1721 C   0  0  0  0  0  0  0  0  0  0  0  0
   11.8991  -17.5042   24.9224 C   0  0  0  0  0  0  0  0  0  0  0  0
   12.6262  -16.8563   23.9208 C   0  0  0  0  0  0  0  0  0  0  0  0
   12.8480  -17.7466   22.9365 N   0  0  0  0  0  0  0  0  0  0  0  0
   12.2931  -18.9261   23.2705 C   0  0  0  0  0  0  0  0  0  0  0  0
   11.7215  -18.7610   24.4801 N   0  0  0  0  0  0  0  0  0  0  0  0
    9.5062  -16.2711   27.5753 C   0  0  0  0  0  0  0  0  0  0  0  0
    9.7088  -17.0913   28.6726 O   0  0  0  0  0  0  0  0  0  0  0  0
    8.9643  -15.1556   27.7772 O   0  0  0  0  0  0  0  0  0  0  0  0
  1  2  1  0
  3  5  1  0
  3  2  1  0
  3  4  1  1
  5  6  2  0
  5  7  1  0
  7  8  1  0
  8  9  1  1
  9 10  1  0
 10 15  1  0
 11 10  2  0
 11 12  1  0
 12 13  2  0
 13 14  1  0
 15 14  2  0
 16 17  2  0
 16  8  1  0
 18 16  1  0
 19 18  1  0
 19 20  1  1
 21 25  1  0
 21 20  1  0
 22 21  2  0
 23 22  1  0
 23 24  1  0
 24 25  2  0
 26 19  1  0
 27 26  1  0
 28 26  2  0
M  END
$$$$
