SFH.pdb
     RDKit          3D

 28 29  0  0  1  0  0  0  0  0999 V2000
    9.4224  -19.1013   20.7172 O   0  0  0  0  0  0  0  0  0  0  0  0
    8.2223  -18.5674   20.3078 C   0  0  0  0  0  0  0  0  0  0  0  0
    8.2856  -17.0774   20.0675 C   0  0  2  0  0  0  0  0  0  0  0  0
    9.3037  -16.7996   19.0798 N   0  0  0  0  0  0  0  0  0  0  0  0
    8.5346  -16.3254   21.3187 C   0  0  0  0  0  0  0  0  0  0  0  0
    9.7049  -15.9498   21.5753 O   0  0  0  0  0  0  0  0  0  0  0  0
    7.5403  -15.9924   22.2635 N   0  0  0  0  0  0  0  0  0  0  0  0
    7.7655  -15.2908   23.4973 C   0  0  1  0  0  0  0  0  0  0  0  0
    6.5942  -14.6531   24.1022 C   0  0  0  0  0  0  0  0  0  0  0  0
    6.8675  -13.7542   25.2366 C   0  0  0  0  0  0  0  0  0  0  0  0
    7.4620  -12.5252   25.0960 C   0  0  0  0  0  0  0  0  0  0  0  0
    7.6886  -11.7066   26.2068 C   0  0  0  0  0  0  0  0  0  0  0  0
    7.3127  -12.1321   27.4722 C   0  0  0  0  0  0  0  0  0  0  0  0
    6.7268  -13.3465   27.6103 C   0  0  0  0  0  0  0  0  0  0  0  0
    6.4988  -14.1687   26.4936 C   0  0  0  0  0  0  0  0  0  0  0  0
    8.4649  -16.1237   24.4984 C   0  0  0  0  0  0  0  0  0  0  0  0
    7.9621  -17.1955   24.8991 O   0  0  0  0  0  0  0  0  0  0  0  0
    9.7034  -15.7038   24.9960 N   0  0  0  0  0  0  0  0  0  0  0  0
   10.4958  -16.5184   25.9272 C   0  0  1  0  0  0  0  0  0  0  0  0
   11.9370  -16.0732   25.6874 C   0  0  0  0  0  0  0  0  0  0  0  0
   12.3970  -16.4238   24.3391 C   0  0  0  0  0  0  0  0  0  0  0  0
   11.9389  -17.5228   23.6086 C   0  0  0  0  0  0  0  0  0  0  0  0
   12.5772  -17.5206   22.4240 N   0  0  0  0  0  0  0  0  0  0  0  0
   13.4181  -16.4712   22.3742 C   0  0  0  0  0  0  0  0  0  0  0  0
   13.2953  -15.8155   23.5455 N   0  0  0  0  0  0  0  0  0  0  0  0
   10.0634  -16.2133   27.3080 C   0  0  0  0  0  0  0  0  0  0  0  0
   10.6669  -16.9062   28.3441 O   0  0  0  0  0  0  0  0  0  0  0  0
    9.1847  -15.3675   27.6104 O   0  0  0  0  0  0  0  0  0  0  0  0
  1  2  1  0
  3  5  1  0
  3  2  1  0
  3  4  1  6
  5  6  2  0
  5  7  1  0
  7  8  1  0
  8  9  1  1
  9 10  1  0
 10 15  1  0
 11 10  2  0
 11 12  1  0
 12 13  2  0
 13 14  1  0
 15 14  2  0
 16 17  2  0
 16  8  1  0
 18 16  1  0
 19 18  1  0
 19 20  1  1
 21 25  1  0
 21 20  1  0
 22 21  2  0
 23 22  1  0
 23 24  1  0
 24 25  2  0
 26 19  1  0
 27 26  1  0
 28 26  2  0
M  END
$$$$
