SFH.pdb
     RDKit          3D

 28 29  0  0  1  0  0  0  0  0999 V2000
    9.0523  -18.9009   21.8763 O   0  0  0  0  0  0  0  0  0  0  0  0
    9.4874  -18.4658   20.6458 C   0  0  0  0  0  0  0  0  0  0  0  0
    8.9915  -17.0828   20.2947 C   0  0  2  0  0  0  0  0  0  0  0  0
    9.7221  -16.5947   19.1470 N   0  0  0  0  0  0  0  0  0  0  0  0
    9.1043  -16.1480   21.4378 C   0  0  0  0  0  0  0  0  0  0  0  0
   10.1456  -15.4557   21.5519 O   0  0  0  0  0  0  0  0  0  0  0  0
    8.1141  -15.9718   22.4281 N   0  0  0  0  0  0  0  0  0  0  0  0
    8.1424  -14.9791   23.4667 C   0  0  1  0  0  0  0  0  0  0  0  0
    6.8432  -14.4693   23.9102 C   0  0  0  0  0  0  0  0  0  0  0  0
    6.8852  -13.4020   24.9245 C   0  0  0  0  0  0  0  0  0  0  0  0
    7.3983  -12.1527   24.6807 C   0  0  0  0  0  0  0  0  0  0  0  0
    7.4036  -11.1722   25.6777 C   0  0  0  0  0  0  0  0  0  0  0  0
    6.8870  -11.4550   26.9334 C   0  0  0  0  0  0  0  0  0  0  0  0
    6.3816  -12.6894   27.1737 C   0  0  0  0  0  0  0  0  0  0  0  0
    6.3761  -13.6743   26.1713 C   0  0  0  0  0  0  0  0  0  0  0  0
    8.9457  -15.4065   24.6317 C   0  0  0  0  0  0  0  0  0  0  0  0
    8.9216  -14.7530   25.6968 O   0  0  0  0  0  0  0  0  0  0  0  0
    9.7363  -16.5569   24.5353 N   0  0  0  0  0  0  0  0  0  0  0  0
   10.6134  -17.0040   25.6259 C   0  0  1  0  0  0  0  0  0  0  0  0
   10.4081  -18.5164   25.6810 C   0  0  0  0  0  0  0  0  0  0  0  0
    9.1233  -18.8685   26.2958 C   0  0  0  0  0  0  0  0  0  0  0  0
    8.7178  -18.4595   27.5684 C   0  0  0  0  0  0  0  0  0  0  0  0
    7.4909  -18.9665   27.7886 N   0  0  0  0  0  0  0  0  0  0  0  0
    7.1044  -19.6777   26.7136 C   0  0  0  0  0  0  0  0  0  0  0  0
    8.1078  -19.6070   25.8163 N   0  0  0  0  0  0  0  0  0  0  0  0
   12.0102  -16.6652   25.2783 C   0  0  0  0  0  0  0  0  0  0  0  0
   12.9844  -16.8635   26.2424 O   0  0  0  0  0  0  0  0  0  0  0  0
   12.3787  -16.2086   24.1671 O   0  0  0  0  0  0  0  0  0  0  0  0
  1  2  1  0
  3  5  1  0
  3  2  1  0
  3  4  1  6
  5  6  2  0
  5  7  1  0
  7  8  1  0
  8  9  1  1
  9 10  1  0
 10 15  1  0
 11 10  2  0
 11 12  1  0
 12 13  2  0
 13 14  1  0
 15 14  2  0
 16 17  2  0
 16  8  1  0
 18 16  1  0
 19 18  1  0
 19 20  1  6
 21 25  1  0
 21 20  1  0
 22 21  2  0
 23 22  1  0
 23 24  1  0
 24 25  2  0
 26 19  1  0
 27 26  1  0
 28 26  2  0
M  END
$$$$
