SFH.pdb
     RDKit          3D

 28 29  0  0  1  0  0  0  0  0999 V2000
    7.9450  -17.8074   20.4397 O   0  0  0  0  0  0  0  0  0  0  0  0
    6.8862  -16.9318   20.5107 C   0  0  0  0  0  0  0  0  0  0  0  0
    7.3068  -15.5140   20.8191 C   0  0  2  0  0  0  0  0  0  0  0  0
    8.1436  -15.0243   19.7470 N   0  0  0  0  0  0  0  0  0  0  0  0
    7.9974  -15.4137   22.1253 C   0  0  0  0  0  0  0  0  0  0  0  0
    9.2317  -15.1840   22.1403 O   0  0  0  0  0  0  0  0  0  0  0  0
    7.3643  -15.5595   23.3784 N   0  0  0  0  0  0  0  0  0  0  0  0
    8.0166  -15.4733   24.6559 C   0  0  1  0  0  0  0  0  0  0  0  0
    7.1561  -15.1764   25.8031 C   0  0  0  0  0  0  0  0  0  0  0  0
    6.9540  -13.7480   26.1006 C   0  0  0  0  0  0  0  0  0  0  0  0
    5.7144  -13.1822   26.2652 C   0  0  0  0  0  0  0  0  0  0  0  0
    5.5800  -11.8214   26.5574 C   0  0  0  0  0  0  0  0  0  0  0  0
    6.7070  -11.0230   26.6839 C   0  0  0  0  0  0  0  0  0  0  0  0
    7.9307  -11.5823   26.5200 C   0  0  0  0  0  0  0  0  0  0  0  0
    8.0653  -12.9500   26.2267 C   0  0  0  0  0  0  0  0  0  0  0  0
    8.8537  -16.6578   24.9412 C   0  0  0  0  0  0  0  0  0  0  0  0
    8.4030  -17.8117   24.7755 O   0  0  0  0  0  0  0  0  0  0  0  0
   10.1640  -16.4783   25.3981 N   0  0  0  0  0  0  0  0  0  0  0  0
   11.0614  -17.6067   25.6813 C   0  0  1  0  0  0  0  0  0  0  0  0
   12.4567  -17.0668   25.3743 C   0  0  0  0  0  0  0  0  0  0  0  0
   12.6742  -16.9113   23.9317 C   0  0  0  0  0  0  0  0  0  0  0  0
   11.8146  -17.4014   22.9456 C   0  0  0  0  0  0  0  0  0  0  0  0
   12.3325  -17.0669   21.7495 N   0  0  0  0  0  0  0  0  0  0  0  0
   13.4801  -16.3893   21.9358 C   0  0  0  0  0  0  0  0  0  0  0  0
   13.6720  -16.3035   23.2673 N   0  0  0  0  0  0  0  0  0  0  0  0
   10.9292  -17.9691   27.1088 C   0  0  0  0  0  0  0  0  0  0  0  0
   10.1079  -17.1861   27.9028 O   0  0  0  0  0  0  0  0  0  0  0  0
   11.5103  -18.9397   27.6557 O   0  0  0  0  0  0  0  0  0  0  0  0
  1  2  1  0
  3  5  1  0
  3  2  1  0
  3  4  1  6
  5  6  2  0
  5  7  1  0
  7  8  1  0
  8  9  1  1
  9 10  1  0
 10 15  1  0
 11 10  2  0
 11 12  1  0
 12 13  2  0
 13 14  1  0
 15 14  2  0
 16 17  2  0
 16  8  1  0
 18 16  1  0
 19 18  1  0
 19 20  1  1
 21 25  1  0
 21 20  1  0
 22 21  2  0
 23 22  1  0
 23 24  1  0
 24 25  2  0
 26 19  1  0
 27 26  1  0
 28 26  2  0
M  END
$$$$
