PIA.pdb
     RDKit          3D

 21 21  0  0  1  0  0  0  0  0999 V2000
    8.1265  -16.6103   21.0241 N   0  0  0  0  0  0  0  0  0  0  0  0
    7.7710  -17.9067   20.5203 C   0  0  0  0  0  0  0  0  0  0  0  0
    7.1439  -18.6767   21.6675 C   0  0  0  0  0  0  0  0  0  0  0  0
    7.7301  -17.9182   22.8663 C   0  0  0  0  0  0  0  0  0  0  0  0
    7.5966  -16.4948   22.3618 C   0  0  1  0  0  0  0  0  0  0  0  0
    8.3596  -15.5423   23.1934 C   0  0  0  0  0  0  0  0  0  0  0  0
    9.5415  -15.2880   22.8590 O   0  0  0  0  0  0  0  0  0  0  0  0
    5.8602  -12.0872   26.8864 C   0  0  0  0  0  0  0  0  0  0  0  0
    6.4157  -13.2823   26.1283 C   0  0  0  0  0  0  0  0  0  0  0  0
    7.7125  -12.8486   25.4997 C   0  0  2  0  0  0  0  0  0  0  0  0
    7.3944  -12.0087   24.2830 C   0  0  0  0  0  0  0  0  0  0  0  0
    8.5800  -14.0197   25.1118 C   0  0  2  0  0  0  0  0  0  0  0  0
    7.7990  -14.9349   24.3192 N   0  0  0  0  0  0  0  0  0  0  0  0
    9.0346  -14.6958   26.3718 C   0  0  0  0  0  0  0  0  0  0  0  0
    8.1941  -15.2997   27.0846 O   0  0  0  0  0  0  0  0  0  0  0  0
   10.1725  -14.0578   29.0778 C   0  0  0  0  0  0  0  0  0  0  0  0
   10.7955  -14.9957   28.0626 C   0  0  2  0  0  0  0  0  0  0  0  0
   10.4098  -14.6384   26.7329 N   0  0  0  0  0  0  0  0  0  0  0  0
   10.3835  -16.3831   28.4092 C   0  0  0  0  0  0  0  0  0  0  0  0
    9.7166  -17.0980   27.6101 O   0  0  0  0  0  0  0  0  0  0  0  0
   10.7455  -16.8864   29.6351 O   0  0  0  0  0  0  0  0  0  0  0  0
  2  1  1  0
  3  4  1  0
  3  2  1  0
  4  5  1  0
  5  1  1  0
  5  6  1  1
  7  6  2  0
  9  8  1  0
 10  9  1  0
 10 11  1  6
 12 10  1  0
 12 13  1  6
 13  6  1  0
 14 12  1  0
 15 14  2  0
 17 16  1  1
 17 18  1  0
 18 14  1  0
 19 17  1  0
 19 21  1  0
 20 19  2  0
M  END
$$$$
