PIA.pdb
     RDKit          3D

 21 21  0  0  1  0  0  0  0  0999 V2000
    8.2961  -14.8797   20.0200 N   0  0  0  0  0  0  0  0  0  0  0  0
    7.7746  -15.6557   18.9307 C   0  0  0  0  0  0  0  0  0  0  0  0
    6.5997  -16.4507   19.4690 C   0  0  0  0  0  0  0  0  0  0  0  0
    6.9349  -16.4648   20.9668 C   0  0  0  0  0  0  0  0  0  0  0  0
    7.3995  -15.0322   21.1410 C   0  0  1  0  0  0  0  0  0  0  0  0
    8.0742  -14.8263   22.4384 C   0  0  0  0  0  0  0  0  0  0  0  0
    9.3206  -14.9613   22.4791 O   0  0  0  0  0  0  0  0  0  0  0  0
    5.9475  -11.4976   26.2408 C   0  0  0  0  0  0  0  0  0  0  0  0
    6.9091  -12.1616   25.2682 C   0  0  0  0  0  0  0  0  0  0  0  0
    7.1870  -13.5456   25.7902 C   0  0  2  0  0  0  0  0  0  0  0  0
    7.8592  -13.4195   27.1391 C   0  0  0  0  0  0  0  0  0  0  0  0
    8.0514  -14.3484   24.8505 C   0  0  2  0  0  0  0  0  0  0  0  0
    7.3630  -14.4918   23.5929 N   0  0  0  0  0  0  0  0  0  0  0  0
    8.2742  -15.6981   25.4668 C   0  0  0  0  0  0  0  0  0  0  0  0
    7.2861  -16.4363   25.7077 O   0  0  0  0  0  0  0  0  0  0  0  0
   10.7624  -18.1972   25.3124 C   0  0  0  0  0  0  0  0  0  0  0  0
    9.8247  -17.4456   26.2366 C   0  0  2  0  0  0  0  0  0  0  0  0
    9.6019  -16.1139   25.7656 N   0  0  0  0  0  0  0  0  0  0  0  0
   10.4175  -17.4626   27.6015 C   0  0  0  0  0  0  0  0  0  0  0  0
   10.7258  -16.3978   28.2060 O   0  0  0  0  0  0  0  0  0  0  0  0
   10.6296  -18.6770   28.2078 O   0  0  0  0  0  0  0  0  0  0  0  0
  2  1  1  0
  3  4  1  0
  3  2  1  0
  4  5  1  0
  5  1  1  0
  5  6  1  1
  7  6  2  0
  9  8  1  0
 10  9  1  0
 10 11  1  1
 12 10  1  0
 12 13  1  6
 13  6  1  0
 14 12  1  0
 15 14  2  0
 17 16  1  6
 17 18  1  0
 18 14  1  0
 19 17  1  0
 19 21  1  0
 20 19  2  0
M  END
$$$$
