PIA.pdb
     RDKit          3D

 21 21  0  0  1  0  0  0  0  0999 V2000
    8.4209  -18.8828   18.9807 N   0  0  0  0  0  0  0  0  0  0  0  0
    7.7007  -19.4749   17.8891 C   0  0  0  0  0  0  0  0  0  0  0  0
    8.0641  -18.6970   16.6381 C   0  0  0  0  0  0  0  0  0  0  0  0
    8.5277  -17.3717   17.2583 C   0  0  0  0  0  0  0  0  0  0  0  0
    9.3267  -17.9016   18.4327 C   0  0  1  0  0  0  0  0  0  0  0  0
    9.6587  -16.8349   19.3986 C   0  0  0  0  0  0  0  0  0  0  0  0
   10.7811  -16.2836   19.3005 O   0  0  0  0  0  0  0  0  0  0  0  0
    6.5297  -12.6810   20.1704 C   0  0  0  0  0  0  0  0  0  0  0  0
    7.8140  -13.4879   20.0654 C   0  0  0  0  0  0  0  0  0  0  0  0
    7.8734  -14.3907   21.2681 C   0  0  2  0  0  0  0  0  0  0  0  0
    7.9120  -13.5279   22.5096 C   0  0  0  0  0  0  0  0  0  0  0  0
    9.0689  -15.3095   21.2351 C   0  0  2  0  0  0  0  0  0  0  0  0
    8.7638  -16.4400   20.3955 N   0  0  0  0  0  0  0  0  0  0  0  0
    9.3350  -15.7726   22.6372 C   0  0  0  0  0  0  0  0  0  0  0  0
    9.6667  -14.9324   23.5110 O   0  0  0  0  0  0  0  0  0  0  0  0
    8.5692  -18.8194   24.5961 C   0  0  0  0  0  0  0  0  0  0  0  0
    9.3990  -17.5863   24.2974 C   0  0  2  0  0  0  0  0  0  0  0  0
    9.2058  -17.1553   22.9477 N   0  0  0  0  0  0  0  0  0  0  0  0
   10.8228  -17.9141   24.5799 C   0  0  0  0  0  0  0  0  0  0  0  0
   11.2231  -18.1906   25.7450 O   0  0  0  0  0  0  0  0  0  0  0  0
   11.7146  -17.9121   23.5349 O   0  0  0  0  0  0  0  0  0  0  0  0
  2  1  1  0
  3  4  1  0
  3  2  1  0
  4  5  1  0
  5  1  1  0
  5  6  1  1
  7  6  2  0
  9  8  1  0
 10  9  1  0
 10 11  1  1
 12 10  1  0
 12 13  1  6
 13  6  1  0
 14 12  1  0
 15 14  2  0
 17 16  1  6
 17 18  1  0
 18 14  1  0
 19 17  1  0
 19 21  1  0
 20 19  2  0
M  END
$$$$
