PIA.pdb
     RDKit          3D

 21 21  0  0  1  0  0  0  0  0999 V2000
    6.7575  -14.5484   20.7946 N   0  0  0  0  0  0  0  0  0  0  0  0
    6.2319  -13.8387   19.6629 C   0  0  0  0  0  0  0  0  0  0  0  0
    7.3390  -12.9402   19.1438 C   0  0  0  0  0  0  0  0  0  0  0  0
    8.2130  -12.8200   20.3999 C   0  0  0  0  0  0  0  0  0  0  0  0
    8.1682  -14.2560   20.8842 C   0  0  1  0  0  0  0  0  0  0  0  0
    8.6884  -14.3893   22.2599 C   0  0  0  0  0  0  0  0  0  0  0  0
    9.9316  -14.3537   22.4226 O   0  0  0  0  0  0  0  0  0  0  0  0
    5.8336  -12.0800   26.1275 C   0  0  0  0  0  0  0  0  0  0  0  0
    6.9616  -12.5251   25.2103 C   0  0  0  0  0  0  0  0  0  0  0  0
    7.3426  -13.9229   25.6175 C   0  0  2  0  0  0  0  0  0  0  0  0
    7.8734  -13.8785   27.0330 C   0  0  0  0  0  0  0  0  0  0  0  0
    8.3708  -14.5274   24.6945 C   0  0  2  0  0  0  0  0  0  0  0  0
    7.8380  -14.5506   23.3560 N   0  0  0  0  0  0  0  0  0  0  0  0
    8.6431  -15.9277   25.1594 C   0  0  0  0  0  0  0  0  0  0  0  0
    7.6803  -16.7143   25.3426 O   0  0  0  0  0  0  0  0  0  0  0  0
   11.4625  -18.2343   25.0489 C   0  0  0  0  0  0  0  0  0  0  0  0
   10.2498  -17.6856   25.7745 C   0  0  2  0  0  0  0  0  0  0  0  0
    9.9880  -16.3354   25.3832 N   0  0  0  0  0  0  0  0  0  0  0  0
   10.4998  -17.8042   27.2367 C   0  0  0  0  0  0  0  0  0  0  0  0
   10.5931  -16.7879   27.9800 O   0  0  0  0  0  0  0  0  0  0  0  0
   10.6304  -19.0599   27.7786 O   0  0  0  0  0  0  0  0  0  0  0  0
  2  1  1  0
  3  4  1  0
  3  2  1  0
  4  5  1  0
  5  1  1  0
  5  6  1  1
  7  6  2  0
  9  8  1  0
 10  9  1  0
 10 11  1  1
 12 10  1  0
 12 13  1  6
 13  6  1  0
 14 12  1  0
 15 14  2  0
 17 16  1  6
 17 18  1  0
 18 14  1  0
 19 17  1  0
 19 21  1  0
 20 19  2  0
M  END
$$$$
