PIA.pdb
     RDKit          3D

 21 21  0  0  1  0  0  0  0  0999 V2000
    8.4441  -15.8669   20.6358 N   0  0  0  0  0  0  0  0  0  0  0  0
    7.4562  -16.0820   19.6166 C   0  0  0  0  0  0  0  0  0  0  0  0
    6.3928  -15.0138   19.7908 C   0  0  0  0  0  0  0  0  0  0  0  0
    6.6094  -14.6418   21.2642 C   0  0  0  0  0  0  0  0  0  0  0  0
    8.1249  -14.6297   21.3074 C   0  0  1  0  0  0  0  0  0  0  0  0
    8.6356  -14.5885   22.6924 C   0  0  0  0  0  0  0  0  0  0  0  0
    9.8783  -14.6182   22.8602 O   0  0  0  0  0  0  0  0  0  0  0  0
    5.9832  -11.7694   26.5052 C   0  0  0  0  0  0  0  0  0  0  0  0
    7.0822  -12.3199   25.6103 C   0  0  0  0  0  0  0  0  0  0  0  0
    7.3138  -13.7504   26.0165 C   0  0  2  0  0  0  0  0  0  0  0  0
    7.7917  -13.7665   27.4512 C   0  0  0  0  0  0  0  0  0  0  0  0
    8.3151  -14.4428   25.1262 C   0  0  2  0  0  0  0  0  0  0  0  0
    7.7770  -14.5186   23.7918 N   0  0  0  0  0  0  0  0  0  0  0  0
    8.5359  -15.8250   25.6664 C   0  0  0  0  0  0  0  0  0  0  0  0
    7.5437  -16.5545   25.9168 O   0  0  0  0  0  0  0  0  0  0  0  0
   11.2804  -18.2404   25.6555 C   0  0  0  0  0  0  0  0  0  0  0  0
   10.0775  -17.6200   26.3385 C   0  0  2  0  0  0  0  0  0  0  0  0
    9.8663  -16.2808   25.8840 N   0  0  0  0  0  0  0  0  0  0  0  0
   10.3045  -17.6811   27.8080 C   0  0  0  0  0  0  0  0  0  0  0  0
   10.3592  -16.6373   28.5164 O   0  0  0  0  0  0  0  0  0  0  0  0
   10.4569  -18.9133   28.3960 O   0  0  0  0  0  0  0  0  0  0  0  0
  2  1  1  0
  3  4  1  0
  3  2  1  0
  4  5  1  0
  5  1  1  0
  5  6  1  1
  7  6  2  0
  9  8  1  0
 10  9  1  0
 10 11  1  1
 12 10  1  0
 12 13  1  6
 13  6  1  0
 14 12  1  0
 15 14  2  0
 17 16  1  6
 17 18  1  0
 18 14  1  0
 19 17  1  0
 19 21  1  0
 20 19  2  0
M  END
$$$$
