HCQ.pdb
     RDKit          3D

 26 26  0  0  1  0  0  0  0  0999 V2000
    8.8380  -15.1931   20.4498 N   0  0  0  0  0  0  0  0  0  0  0  0
    8.1918  -15.5843   21.6770 C   0  0  1  0  0  0  0  0  0  0  0  0
    8.7122  -16.9764   22.0302 C   0  0  0  0  0  0  0  0  0  0  0  0
    8.1442  -17.9917   21.1111 C   0  0  0  0  0  0  0  0  0  0  0  0
    7.0565  -17.8267   20.2823 C   0  0  0  0  0  0  0  0  0  0  0  0
    6.8206  -18.9495   19.5910 N   0  0  0  0  0  0  0  0  0  0  0  0
    7.7545  -19.8378   19.9730 C   0  0  0  0  0  0  0  0  0  0  0  0
    8.5699  -19.2600   20.9041 N   0  0  0  0  0  0  0  0  0  0  0  0
    8.4794  -14.6150   22.7463 C   0  0  0  0  0  0  0  0  0  0  0  0
    9.6642  -14.1988   22.9149 O   0  0  0  0  0  0  0  0  0  0  0  0
    7.4737  -14.1102   23.6195 N   0  0  0  0  0  0  0  0  0  0  0  0
    7.7642  -13.5319   24.8925 C   0  0  1  0  0  0  0  0  0  0  0  0
    6.6320  -12.6356   25.3324 C   0  0  0  0  0  0  0  0  0  0  0  0
    7.0229  -12.0368   27.0010 S   0  0  0  0  0  0  0  0  0  0  0  0
    8.1119  -14.5430   25.9186 C   0  0  0  0  0  0  0  0  0  0  0  0
    7.2918  -15.4231   26.2096 O   0  0  0  0  0  0  0  0  0  0  0  0
   12.4553  -18.0284   24.6246 N   0  0  0  0  0  0  0  0  0  0  0  0
   12.6442  -16.8425   25.3722 C   0  0  0  0  0  0  0  0  0  0  0  0
   13.8447  -16.5367   25.6764 O   0  0  0  0  0  0  0  0  0  0  0  0
   11.5481  -15.9576   25.8032 C   0  0  0  0  0  0  0  0  0  0  0  0
   10.8522  -16.3533   27.0564 C   0  0  0  0  0  0  0  0  0  0  0  0
    9.7807  -15.4812   27.5834 C   0  0  2  0  0  0  0  0  0  0  0  0
    9.3720  -14.5042   26.5622 N   0  0  0  0  0  0  0  0  0  0  0  0
    9.9318  -14.8959   28.8917 C   0  0  0  0  0  0  0  0  0  0  0  0
   10.2562  -15.5810   29.8919 O   0  0  0  0  0  0  0  0  0  0  0  0
    9.7336  -13.5316   29.1619 O   0  0  0  0  0  0  0  0  0  0  0  0
  2  1  1  6
  3  2  1  0
  4  8  1  0
  4  3  1  0
  5  4  2  0
  6  5  1  0
  6  7  1  0
  7  8  2  0
  9 10  2  0
  9  2  1  0
 11  9  1  0
 12 11  1  0
 12 13  1  1
 14 13  1  0
 15 12  1  0
 16 15  2  0
 17 18  1  0
 18 20  1  0
 19 18  2  0
 21 20  1  0
 22 21  1  6
 22 23  1  0
 23 15  1  0
 24 22  1  0
 24 26  1  0
 25 24  2  0
M  END
$$$$
