HCQ.pdb
     RDKit          3D

 26 26  0  0  1  0  0  0  0  0999 V2000
    9.5252  -16.6601   17.2289 N   0  0  0  0  0  0  0  0  0  0  0  0
    9.3822  -17.3300   18.4967 C   0  0  1  0  0  0  0  0  0  0  0  0
   10.3599  -18.5037   18.4931 C   0  0  0  0  0  0  0  0  0  0  0  0
    9.8870  -19.5704   17.5783 C   0  0  0  0  0  0  0  0  0  0  0  0
    8.6009  -20.0540   17.4819 C   0  0  0  0  0  0  0  0  0  0  0  0
    8.5311  -21.0152   16.5516 N   0  0  0  0  0  0  0  0  0  0  0  0
    9.7702  -21.1519   16.0484 C   0  0  0  0  0  0  0  0  0  0  0  0
   10.6077  -20.2709   16.6713 N   0  0  0  0  0  0  0  0  0  0  0  0
    9.6578  -16.4036   19.6066 C   0  0  0  0  0  0  0  0  0  0  0  0
   10.8493  -16.0427   19.8425 O   0  0  0  0  0  0  0  0  0  0  0  0
    8.6330  -15.8810   20.4464 N   0  0  0  0  0  0  0  0  0  0  0  0
    8.8952  -15.2760   21.7131 C   0  0  1  0  0  0  0  0  0  0  0  0
    7.6439  -14.6275   22.2540 C   0  0  0  0  0  0  0  0  0  0  0  0
    8.0945  -13.7540   23.7803 S   0  0  0  0  0  0  0  0  0  0  0  0
    9.5068  -16.2139   22.6838 C   0  0  0  0  0  0  0  0  0  0  0  0
    9.0460  -17.3566   22.8006 O   0  0  0  0  0  0  0  0  0  0  0  0
   15.5352  -15.4342   24.2066 N   0  0  0  0  0  0  0  0  0  0  0  0
   14.8658  -15.8428   23.0294 C   0  0  0  0  0  0  0  0  0  0  0  0
   15.5215  -15.7707   21.9375 O   0  0  0  0  0  0  0  0  0  0  0  0
   13.4804  -16.3430   23.0017 C   0  0  0  0  0  0  0  0  0  0  0  0
   12.7932  -16.4176   24.3183 C   0  0  0  0  0  0  0  0  0  0  0  0
   11.3478  -16.7275   24.3522 C   0  0  2  0  0  0  0  0  0  0  0  0
   10.6098  -15.8078   23.4725 N   0  0  0  0  0  0  0  0  0  0  0  0
   10.7021  -16.9260   25.6253 C   0  0  0  0  0  0  0  0  0  0  0  0
    9.7118  -16.2422   25.9810 O   0  0  0  0  0  0  0  0  0  0  0  0
   11.1141  -17.8844   26.5662 O   0  0  0  0  0  0  0  0  0  0  0  0
  2  1  1  6
  3  2  1  0
  4  8  1  0
  4  3  1  0
  5  4  2  0
  6  5  1  0
  6  7  1  0
  7  8  2  0
  9 10  2  0
  9  2  1  0
 11  9  1  0
 12 11  1  0
 12 13  1  1
 14 13  1  0
 15 12  1  0
 16 15  2  0
 17 18  1  0
 18 20  1  0
 19 18  2  0
 21 20  1  0
 22 21  1  1
 22 23  1  0
 23 15  1  0
 24 22  1  0
 24 26  1  0
 25 24  2  0
M  END
$$$$
