HCQ.pdb
     RDKit          3D

 26 26  0  0  1  0  0  0  0  0999 V2000
   10.6404  -16.5142   21.1118 N   0  0  0  0  0  0  0  0  0  0  0  0
    9.5592  -16.4955   22.0643 C   0  0  1  0  0  0  0  0  0  0  0  0
    9.0520  -17.9309   22.1904 C   0  0  0  0  0  0  0  0  0  0  0  0
    8.2984  -18.3238   20.9755 C   0  0  0  0  0  0  0  0  0  0  0  0
    8.1196  -17.5617   19.8421 C   0  0  0  0  0  0  0  0  0  0  0  0
    7.3864  -18.2285   18.9410 N   0  0  0  0  0  0  0  0  0  0  0  0
    7.0923  -19.4190   19.4918 C   0  0  0  0  0  0  0  0  0  0  0  0
    7.6468  -19.4866   20.7383 N   0  0  0  0  0  0  0  0  0  0  0  0
   10.0191  -15.9715   23.3603 C   0  0  0  0  0  0  0  0  0  0  0  0
   11.1949  -16.2245   23.7588 O   0  0  0  0  0  0  0  0  0  0  0  0
    9.1933  -15.1781   24.2073 N   0  0  0  0  0  0  0  0  0  0  0  0
    9.5253  -14.8798   25.5638 C   0  0  1  0  0  0  0  0  0  0  0  0
    8.6636  -13.7526   26.0793 C   0  0  0  0  0  0  0  0  0  0  0  0
    9.2746  -13.3056   27.7293 S   0  0  0  0  0  0  0  0  0  0  0  0
    9.4779  -16.0712   26.4436 C   0  0  0  0  0  0  0  0  0  0  0  0
    8.4414  -16.7450   26.5021 O   0  0  0  0  0  0  0  0  0  0  0  0
   14.0863  -19.9758   26.7631 N   0  0  0  0  0  0  0  0  0  0  0  0
   12.9367  -19.8598   25.9471 C   0  0  0  0  0  0  0  0  0  0  0  0
   12.9831  -20.4185   24.8012 O   0  0  0  0  0  0  0  0  0  0  0  0
   11.7115  -19.1466   26.3476 C   0  0  0  0  0  0  0  0  0  0  0  0
   11.7386  -18.5216   27.6967 C   0  0  0  0  0  0  0  0  0  0  0  0
   10.6338  -17.6199   28.0875 C   0  0  2  0  0  0  0  0  0  0  0  0
   10.6087  -16.4376   27.2123 N   0  0  0  0  0  0  0  0  0  0  0  0
   10.4544  -17.2919   29.4794 C   0  0  0  0  0  0  0  0  0  0  0  0
   10.4508  -16.1049   29.8865 O   0  0  0  0  0  0  0  0  0  0  0  0
   10.2707  -18.2523   30.4881 O   0  0  0  0  0  0  0  0  0  0  0  0
  2  1  1  6
  3  2  1  0
  4  8  1  0
  4  3  1  0
  5  4  2  0
  6  5  1  0
  6  7  1  0
  7  8  2  0
  9 10  2  0
  9  2  1  0
 11  9  1  0
 12 11  1  0
 12 13  1  1
 14 13  1  0
 15 12  1  0
 16 15  2  0
 17 18  1  0
 18 20  1  0
 19 18  2  0
 21 20  1  0
 22 21  1  1
 22 23  1  0
 23 15  1  0
 24 22  1  0
 24 26  1  0
 25 24  2  0
M  END
$$$$
