HCQ.pdb
     RDKit          3D

 26 26  0  0  1  0  0  0  0  0999 V2000
   10.6071  -17.7809   18.6312 N   0  0  0  0  0  0  0  0  0  0  0  0
   11.3190  -18.4026   19.7190 C   0  0  1  0  0  0  0  0  0  0  0  0
   12.2888  -19.4075   19.1000 C   0  0  0  0  0  0  0  0  0  0  0  0
   11.5458  -20.4787   18.3937 C   0  0  0  0  0  0  0  0  0  0  0  0
   10.9836  -21.5981   18.9666 C   0  0  0  0  0  0  0  0  0  0  0  0
   10.3889  -22.3527   18.0333 N   0  0  0  0  0  0  0  0  0  0  0  0
   10.5670  -21.7214   16.8598 C   0  0  0  0  0  0  0  0  0  0  0  0
   11.2747  -20.5724   17.0707 N   0  0  0  0  0  0  0  0  0  0  0  0
   12.0293  -17.3918   20.5187 C   0  0  0  0  0  0  0  0  0  0  0  0
   12.5898  -16.4136   19.9405 O   0  0  0  0  0  0  0  0  0  0  0  0
   12.1209  -17.4580   21.9385 N   0  0  0  0  0  0  0  0  0  0  0  0
   12.8054  -16.4801   22.7226 C   0  0  1  0  0  0  0  0  0  0  0  0
   11.8499  -15.8164   23.6846 C   0  0  0  0  0  0  0  0  0  0  0  0
   11.1514  -17.1128   24.7462 S   0  0  0  0  0  0  0  0  0  0  0  0
   14.0026  -17.0245   23.4053 C   0  0  0  0  0  0  0  0  0  0  0  0
   13.9285  -18.1119   23.9915 O   0  0  0  0  0  0  0  0  0  0  0  0
   20.4167  -16.2178   23.7762 N   0  0  0  0  0  0  0  0  0  0  0  0
   19.6332  -15.0714   23.5064 C   0  0  0  0  0  0  0  0  0  0  0  0
   20.2257  -13.9426   23.5542 O   0  0  0  0  0  0  0  0  0  0  0  0
   18.1987  -15.1142   23.1739 C   0  0  0  0  0  0  0  0  0  0  0  0
   17.6096  -16.4714   23.0247 C   0  0  0  0  0  0  0  0  0  0  0  0
   16.4853  -16.8615   23.9023 C   0  0  2  0  0  0  0  0  0  0  0  0
   15.2230  -16.3075   23.3882 N   0  0  0  0  0  0  0  0  0  0  0  0
   16.6240  -16.7126   25.3290 C   0  0  0  0  0  0  0  0  0  0  0  0
   15.8767  -15.9538   25.9929 O   0  0  0  0  0  0  0  0  0  0  0  0
   17.5895  -17.3899   26.0923 O   0  0  0  0  0  0  0  0  0  0  0  0
  2  1  1  6
  3  2  1  0
  4  8  1  0
  4  3  1  0
  5  4  2  0
  6  5  1  0
  6  7  1  0
  7  8  2  0
  9 10  2  0
  9  2  1  0
 11  9  1  0
 12 11  1  0
 12 13  1  1
 14 13  1  0
 15 12  1  0
 16 15  2  0
 17 18  1  0
 18 20  1  0
 19 18  2  0
 21 20  1  0
 22 21  1  6
 22 23  1  0
 23 15  1  0
 24 22  1  0
 24 26  1  0
 25 24  2  0
M  END
$$$$
