HCQ.pdb
     RDKit          3D

 26 26  0  0  1  0  0  0  0  0999 V2000
    8.3362  -17.0952   16.4782 N   0  0  0  0  0  0  0  0  0  0  0  0
    7.4840  -17.3554   17.6107 C   0  0  1  0  0  0  0  0  0  0  0  0
    7.2627  -18.8660   17.6637 C   0  0  0  0  0  0  0  0  0  0  0  0
    6.3884  -19.3021   16.5485 C   0  0  0  0  0  0  0  0  0  0  0  0
    5.0797  -19.7194   16.6507 C   0  0  0  0  0  0  0  0  0  0  0  0
    4.5951  -20.0393   15.4436 N   0  0  0  0  0  0  0  0  0  0  0  0
    5.5894  -19.8287   14.5636 C   0  0  0  0  0  0  0  0  0  0  0  0
    6.6920  -19.3769   15.2313 N   0  0  0  0  0  0  0  0  0  0  0  0
    8.1025  -16.8584   18.8501 C   0  0  0  0  0  0  0  0  0  0  0  0
    9.2205  -17.3226   19.2242 O   0  0  0  0  0  0  0  0  0  0  0  0
    7.4965  -15.8619   19.6676 N   0  0  0  0  0  0  0  0  0  0  0  0
    8.0471  -15.4343   20.9140 C   0  0  1  0  0  0  0  0  0  0  0  0
    7.1179  -14.4552   21.5899 C   0  0  0  0  0  0  0  0  0  0  0  0
    7.9205  -13.9059   23.1227 S   0  0  0  0  0  0  0  0  0  0  0  0
    8.4136  -16.5645   21.7996 C   0  0  0  0  0  0  0  0  0  0  0  0
    7.8286  -17.6484   21.6786 O   0  0  0  0  0  0  0  0  0  0  0  0
    9.8983  -20.6557   20.5292 N   0  0  0  0  0  0  0  0  0  0  0  0
   10.7380  -20.8515   21.6506 C   0  0  0  0  0  0  0  0  0  0  0  0
   11.1448  -22.0411   21.8668 O   0  0  0  0  0  0  0  0  0  0  0  0
   11.1628  -19.7726   22.5593 C   0  0  0  0  0  0  0  0  0  0  0  0
   10.6626  -18.4123   22.2267 C   0  0  0  0  0  0  0  0  0  0  0  0
   10.1950  -17.5364   23.3223 C   0  0  2  0  0  0  0  0  0  0  0  0
    9.4250  -16.4075   22.7774 N   0  0  0  0  0  0  0  0  0  0  0  0
   11.1255  -17.1382   24.3483 C   0  0  0  0  0  0  0  0  0  0  0  0
   11.7788  -16.0694   24.2733 O   0  0  0  0  0  0  0  0  0  0  0  0
   11.3812  -17.8951   25.5039 O   0  0  0  0  0  0  0  0  0  0  0  0
  2  1  1  6
  3  2  1  0
  4  8  1  0
  4  3  1  0
  5  4  2  0
  6  5  1  0
  6  7  1  0
  7  8  2  0
  9 10  2  0
  9  2  1  0
 11  9  1  0
 12 11  1  0
 12 13  1  1
 14 13  1  0
 15 12  1  0
 16 15  2  0
 17 18  1  0
 18 20  1  0
 19 18  2  0
 21 20  1  0
 22 21  1  6
 22 23  1  0
 23 15  1  0
 24 22  1  0
 24 26  1  0
 25 24  2  0
M  END
$$$$
