IDY.pdb
     RDKit          3D

 29 29  0  0  1  0  0  0  0  0999 V2000
    7.1975  -11.7978   19.8188 C   0  0  0  0  0  0  0  0  0  0  0  0
    7.4754  -13.2269   19.4229 C   0  0  0  0  0  0  0  0  0  0  0  0
    7.7934  -14.1168   20.5978 C   0  0  2  0  0  0  0  0  0  0  0  0
    8.8582  -13.5292   21.4880 C   0  0  0  0  0  0  0  0  0  0  0  0
    8.1158  -15.5146   20.1446 C   0  0  2  0  0  0  0  0  0  0  0  0
    7.0701  -16.1262   19.4080 N   0  0  0  0  0  0  0  0  0  0  0  0
    8.6675  -16.3155   21.2490 C   0  0  0  0  0  0  0  0  0  0  0  0
    7.8357  -16.8575   22.0330 O   0  0  0  0  0  0  0  0  0  0  0  0
   10.0220  -16.5488   21.5345 N   0  0  0  0  0  0  0  0  0  0  0  0
   10.5121  -17.2863   22.6607 C   0  0  1  0  0  0  0  0  0  0  0  0
   11.9243  -17.7394   22.4221 C   0  0  0  0  0  0  0  0  0  0  0  0
   12.0911  -18.5486   21.1927 C   0  0  0  0  0  0  0  0  0  0  0  0
   11.2806  -19.4908   20.9257 O   0  0  0  0  0  0  0  0  0  0  0  0
   10.4257  -16.6075   23.9431 C   0  0  0  0  0  0  0  0  0  0  0  0
   11.0299  -15.5570   24.2802 O   0  0  0  0  0  0  0  0  0  0  0  0
   13.0986  -18.3687   20.2567 O   0  0  0  0  0  0  0  0  0  0  0  0
    6.3963  -10.9324   26.1557 O   0  0  0  0  0  0  0  0  0  0  0  0
    6.7586  -12.2902   26.2140 C   0  0  0  0  0  0  0  0  0  0  0  0
    5.7932  -13.2686   26.1169 C   0  0  0  0  0  0  0  0  0  0  0  0
    6.2185  -14.5798   26.1815 C   0  0  0  0  0  0  0  0  0  0  0  0
    7.5472  -14.9083   26.3362 C   0  0  0  0  0  0  0  0  0  0  0  0
    7.9289  -16.3182   26.3984 C   0  0  0  0  0  0  0  0  0  0  0  0
    9.4126  -16.5723   26.2499 C   0  0  2  0  0  0  0  0  0  0  0  0
    9.5698  -17.1874   24.9222 N   0  0  0  0  0  0  0  0  0  0  0  0
    9.9401  -17.5311   27.2530 C   0  0  0  0  0  0  0  0  0  0  0  0
   10.2909  -17.1569   28.5386 O   0  0  0  0  0  0  0  0  0  0  0  0
    8.4893  -13.9110   26.4305 C   0  0  0  0  0  0  0  0  0  0  0  0
    8.0867  -12.6026   26.3684 C   0  0  0  0  0  0  0  0  0  0  0  0
   10.0980  -18.7638   26.9741 O   0  0  0  0  0  0  0  0  0  0  0  0
  1  2  1  0
  2  3  1  0
  3  4  1  6
  5  6  1  1
  5  3  1  0
  7  8  2  0
  7  5  1  0
  9  7  1  0
 10  9  1  0
 10 11  1  6
 12 16  1  0
 12 11  1  0
 13 12  2  0
 14 24  1  0
 14 10  1  0
 15 14  2  0
 18 17  1  0
 19 18  2  0
 20 19  1  0
 21 27  1  0
 21 20  2  0
 22 21  1  0
 23 22  1  1
 23 24  1  0
 23 25  1  0
 25 26  1  0
 27 28  2  0
 28 18  1  0
 29 25  2  0
M  END
$$$$
