IDY.pdb
     RDKit          3D

 29 29  0  0  1  0  0  0  0  0999 V2000
    7.2536  -12.1884   19.0087 C   0  0  0  0  0  0  0  0  0  0  0  0
    7.7600  -13.5390   18.5664 C   0  0  0  0  0  0  0  0  0  0  0  0
    8.2285  -14.4009   19.7114 C   0  0  2  0  0  0  0  0  0  0  0  0
    9.2723  -13.7137   20.5540 C   0  0  0  0  0  0  0  0  0  0  0  0
    8.6688  -15.7542   19.2235 C   0  0  2  0  0  0  0  0  0  0  0  0
    7.6729  -16.4407   18.4839 N   0  0  0  0  0  0  0  0  0  0  0  0
    9.3030  -16.5262   20.3039 C   0  0  0  0  0  0  0  0  0  0  0  0
    8.5314  -17.0815   21.1385 O   0  0  0  0  0  0  0  0  0  0  0  0
   10.6772  -16.7185   20.5161 N   0  0  0  0  0  0  0  0  0  0  0  0
   11.2585  -17.2743   21.7018 C   0  0  1  0  0  0  0  0  0  0  0  0
   12.6837  -17.6785   21.4525 C   0  0  0  0  0  0  0  0  0  0  0  0
   13.3058  -18.4000   22.5868 C   0  0  0  0  0  0  0  0  0  0  0  0
   13.9482  -17.7646   23.4809 O   0  0  0  0  0  0  0  0  0  0  0  0
   11.1871  -16.4385   22.8888 C   0  0  0  0  0  0  0  0  0  0  0  0
   11.7287  -15.3148   23.0511 O   0  0  0  0  0  0  0  0  0  0  0  0
   13.2529  -19.7728   22.7770 O   0  0  0  0  0  0  0  0  0  0  0  0
    6.3916  -11.5386   27.8272 O   0  0  0  0  0  0  0  0  0  0  0  0
    7.0232  -12.4624   26.9752 C   0  0  0  0  0  0  0  0  0  0  0  0
    8.3657  -12.7353   27.1242 C   0  0  0  0  0  0  0  0  0  0  0  0
    8.9210  -13.6516   26.2547 C   0  0  0  0  0  0  0  0  0  0  0  0
    8.1759  -14.2728   25.2767 C   0  0  0  0  0  0  0  0  0  0  0  0
    8.8280  -15.2331   24.3878 C   0  0  0  0  0  0  0  0  0  0  0  0
    9.9326  -16.0370   25.0369 C   0  0  2  0  0  0  0  0  0  0  0  0
   10.4265  -16.9385   23.9836 N   0  0  0  0  0  0  0  0  0  0  0  0
    9.4529  -16.8808   26.1600 C   0  0  0  0  0  0  0  0  0  0  0  0
    8.8212  -18.0976   25.9696 O   0  0  0  0  0  0  0  0  0  0  0  0
    6.8379  -13.9811   25.1509 C   0  0  0  0  0  0  0  0  0  0  0  0
    6.2680  -13.0737   26.0051 C   0  0  0  0  0  0  0  0  0  0  0  0
    9.6017  -16.5196   27.3723 O   0  0  0  0  0  0  0  0  0  0  0  0
  1  2  1  0
  2  3  1  0
  3  4  1  6
  5  6  1  1
  5  3  1  0
  7  8  2  0
  7  5  1  0
  9  7  1  0
 10  9  1  0
 10 11  1  6
 12 16  1  0
 12 11  1  0
 13 12  2  0
 14 24  1  0
 14 10  1  0
 15 14  2  0
 18 17  1  0
 19 18  2  0
 20 19  1  0
 21 27  1  0
 21 20  2  0
 22 21  1  0
 23 22  1  6
 23 24  1  0
 23 25  1  0
 25 26  1  0
 27 28  2  0
 28 18  1  0
 29 25  2  0
M  END
$$$$
