IDY.pdb
     RDKit          3D

 29 29  0  0  1  0  0  0  0  0999 V2000
    7.8767  -12.2744   20.0129 C   0  0  0  0  0  0  0  0  0  0  0  0
    7.8056  -13.7743   20.1598 C   0  0  0  0  0  0  0  0  0  0  0  0
    8.4853  -14.5135   19.0351 C   0  0  2  0  0  0  0  0  0  0  0  0
    8.0351  -14.0311   17.6800 C   0  0  0  0  0  0  0  0  0  0  0  0
    8.3428  -16.0016   19.2033 C   0  0  2  0  0  0  0  0  0  0  0  0
    7.0225  -16.4717   18.9888 N   0  0  0  0  0  0  0  0  0  0  0  0
    8.9856  -16.4583   20.4458 C   0  0  0  0  0  0  0  0  0  0  0  0
    8.2278  -16.6735   21.4356 O   0  0  0  0  0  0  0  0  0  0  0  0
   10.3544  -16.6841   20.6601 N   0  0  0  0  0  0  0  0  0  0  0  0
   10.9416  -17.0629   21.9109 C   0  0  1  0  0  0  0  0  0  0  0  0
   12.3971  -17.3895   21.7344 C   0  0  0  0  0  0  0  0  0  0  0  0
   13.0219  -17.9948   22.9332 C   0  0  0  0  0  0  0  0  0  0  0  0
   14.1722  -17.6175   23.3212 O   0  0  0  0  0  0  0  0  0  0  0  0
   10.7819  -16.1086   22.9955 C   0  0  0  0  0  0  0  0  0  0  0  0
   11.0210  -14.8743   22.9526 O   0  0  0  0  0  0  0  0  0  0  0  0
   12.4436  -18.9850   23.7133 O   0  0  0  0  0  0  0  0  0  0  0  0
    5.8942  -11.4718   28.0422 O   0  0  0  0  0  0  0  0  0  0  0  0
    6.5524  -12.3749   27.1882 C   0  0  0  0  0  0  0  0  0  0  0  0
    5.8467  -13.3879   26.5761 C   0  0  0  0  0  0  0  0  0  0  0  0
    6.5548  -14.2376   25.7511 C   0  0  0  0  0  0  0  0  0  0  0  0
    7.9081  -14.0896   25.5411 C   0  0  0  0  0  0  0  0  0  0  0  0
    8.5972  -15.0265   24.6551 C   0  0  0  0  0  0  0  0  0  0  0  0
    9.7910  -15.7150   25.2786 C   0  0  2  0  0  0  0  0  0  0  0  0
   10.3056  -16.6182   24.2368 N   0  0  0  0  0  0  0  0  0  0  0  0
    9.4321  -16.5465   26.4548 C   0  0  0  0  0  0  0  0  0  0  0  0
    8.9212  -17.8279   26.3418 O   0  0  0  0  0  0  0  0  0  0  0  0
    8.5872  -13.0696   26.1653 C   0  0  0  0  0  0  0  0  0  0  0  0
    7.9014  -12.2152   26.9884 C   0  0  0  0  0  0  0  0  0  0  0  0
    9.5793  -16.1135   27.6436 O   0  0  0  0  0  0  0  0  0  0  0  0
  1  2  1  0
  2  3  1  0
  3  4  1  6
  5  6  1  1
  5  3  1  0
  7  8  2  0
  7  5  1  0
  9  7  1  0
 10  9  1  0
 10 11  1  6
 12 16  1  0
 12 11  1  0
 13 12  2  0
 14 24  1  0
 14 10  1  0
 15 14  2  0
 18 17  1  0
 19 18  2  0
 20 19  1  0
 21 27  1  0
 21 20  2  0
 22 21  1  0
 23 22  1  6
 23 24  1  0
 23 25  1  0
 25 26  1  0
 27 28  2  0
 28 18  1  0
 29 25  2  0
M  END
$$$$
