RKG.pdb
     RDKit          3D

 25 24  0  0  1  0  0  0  0  0999 V2000
   11.3497   -8.7427  -11.6435 N   0  0  0  0  0  0  0  0  0  0  0  0
   11.5093  -10.1737  -11.7242 C   0  0  0  0  0  0  0  0  0  0  0  0
   10.7294  -10.9595  -11.0694 N   0  0  0  0  0  0  0  0  0  0  0  0
   12.5290  -10.7476  -12.5266 N   0  0  0  0  0  0  0  0  0  0  0  0
   13.5192   -9.9380  -13.1632 C   0  0  0  0  0  0  0  0  0  0  0  0
   14.5280  -10.6788  -13.9787 C   0  0  0  0  0  0  0  0  0  0  0  0
   15.9395  -10.2163  -13.7170 C   0  0  0  0  0  0  0  0  0  0  0  0
   16.9368  -10.7799  -14.6827 C   0  0  2  0  0  0  0  0  0  0  0  0
   17.0646  -12.2056  -14.6578 N   0  0  0  0  0  0  0  0  0  0  0  0
   18.2504  -10.0827  -14.6040 C   0  0  0  0  0  0  0  0  0  0  0  0
   19.0809  -10.4843  -13.7499 O   0  0  0  0  0  0  0  0  0  0  0  0
   10.8682  -11.9907  -11.1610 N   0  0  0  0  0  0  0  0  0  0  0  0
   18.6129   -9.0080  -15.4242 C   0  0  1  0  0  0  0  0  0  0  0  0
   19.9603   -8.4283  -15.4311 C   0  0  0  0  0  0  0  0  0  0  0  0
   20.4745   -8.6166  -16.8405 C   0  0  0  0  0  0  0  0  0  0  0  0
   21.8585   -8.0570  -17.0540 C   0  0  0  0  0  0  0  0  0  0  0  0
   22.1684   -8.2010  -18.5426 C   0  0  0  0  0  0  0  0  0  0  0  0
   23.5262   -7.6162  -18.8673 N   0  0  0  0  0  0  0  0  0  0  0  0
   23.7925   -7.5495  -20.2742 C   0  0  0  0  0  0  0  0  0  0  0  0
   19.8276   -7.0001  -15.0511 O   0  0  0  0  0  0  0  0  0  0  0  0
   18.8624   -6.3201  -15.4821 N   0  0  0  0  0  0  0  0  0  0  0  0
   20.7692   -6.3761  -14.2069 C   0  0  0  0  0  0  0  0  0  0  0  0
   20.7491   -4.9831  -13.8604 C   0  0  0  0  0  0  0  0  0  0  0  0
   21.8028   -4.6018  -12.9176 O   0  0  0  0  0  0  0  0  0  0  0  0
   22.4993   -5.4902  -12.3722 O   0  0  0  0  0  0  0  0  0  0  0  0
  1  2  1  0
  2  3  2  0
  4  2  1  0
  4  5  1  0
  6  5  1  0
  6  7  1  0
  7  8  1  0
  8  9  1  1
 10  8  1  0
 11 10  2  0
 12 10  1  0
 13 19  1  0
 13 12  1  0
 13 14  1  1
 15 14  1  0
 16 15  1  0
 17 16  1  0
 18 17  1  0
 19 21  1  0
 20 19  2  0
 21 22  1  0
 22 23  1  0
 23 24  2  0
 23 25  1  0
M  END
$$$$
