RKG.pdb
     RDKit          3D

 25 24  0  0  1  0  0  0  0  0999 V2000
   19.2177  -20.6366  -15.2557 N   0  0  0  0  0  0  0  0  0  0  0  0
   19.8983  -21.7289  -14.6049 C   0  0  0  0  0  0  0  0  0  0  0  0
   19.2338  -22.6529  -14.0056 N   0  0  0  0  0  0  0  0  0  0  0  0
   21.3147  -21.8098  -14.6105 N   0  0  0  0  0  0  0  0  0  0  0  0
   22.0521  -22.0345  -13.4075 C   0  0  0  0  0  0  0  0  0  0  0  0
   22.9196  -20.9022  -12.9643 C   0  0  0  0  0  0  0  0  0  0  0  0
   24.1470  -20.7390  -13.8254 C   0  0  0  0  0  0  0  0  0  0  0  0
   25.3426  -21.4727  -13.2990 C   0  0  2  0  0  0  0  0  0  0  0  0
   25.6416  -21.2321  -11.9198 N   0  0  0  0  0  0  0  0  0  0  0  0
   26.5316  -21.3151  -14.1818 C   0  0  0  0  0  0  0  0  0  0  0  0
   27.3055  -20.3492  -13.9618 O   0  0  0  0  0  0  0  0  0  0  0  0
   19.7589  -23.3661  -13.4517 N   0  0  0  0  0  0  0  0  0  0  0  0
   26.8362  -22.1785  -15.2406 C   0  0  2  0  0  0  0  0  0  0  0  0
   28.0202  -22.0122  -16.0905 C   0  0  0  0  0  0  0  0  0  0  0  0
   28.4934  -23.4137  -16.4037 C   0  0  0  0  0  0  0  0  0  0  0  0
   29.7586  -23.4506  -17.2235 C   0  0  0  0  0  0  0  0  0  0  0  0
   30.1135  -24.9228  -17.4219 C   0  0  0  0  0  0  0  0  0  0  0  0
   31.4843  -25.0647  -18.0480 N   0  0  0  0  0  0  0  0  0  0  0  0
   31.8348  -26.4232  -18.3421 C   0  0  0  0  0  0  0  0  0  0  0  0
   27.5938  -21.2635  -17.2985 O   0  0  0  0  0  0  0  0  0  0  0  0
   26.3857  -21.2620  -17.6456 N   0  0  0  0  0  0  0  0  0  0  0  0
   28.5212  -20.5431  -18.0793 C   0  0  0  0  0  0  0  0  0  0  0  0
   28.5441  -19.1124  -18.1958 C   0  0  0  0  0  0  0  0  0  0  0  0
   29.6329  -18.6138  -19.0386 O   0  0  0  0  0  0  0  0  0  0  0  0
   30.4738  -19.4172  -19.5068 O   0  0  0  0  0  0  0  0  0  0  0  0
  1  2  1  0
  2  3  2  0
  4  2  1  0
  4  5  1  0
  6  5  1  0
  6  7  1  0
  7  8  1  0
  8  9  1  1
 10  8  1  0
 11 10  2  0
 12 10  1  0
 13 19  1  0
 13 12  1  0
 13 14  1  1
 15 14  1  0
 16 15  1  0
 17 16  1  0
 18 17  1  0
 19 21  1  0
 20 19  2  0
 21 22  1  0
 22 23  1  0
 23 24  2  0
 23 25  1  0
M  END
$$$$
