RKG.pdb
     RDKit          3D

 25 24  0  0  1  0  0  0  0  0999 V2000
   20.5394  -27.5206  -11.1574 N   0  0  0  0  0  0  0  0  0  0  0  0
   20.2182  -28.6754  -10.3555 C   0  0  0  0  0  0  0  0  0  0  0  0
   21.0615  -29.6374  -10.2218 N   0  0  0  0  0  0  0  0  0  0  0  0
   18.9660  -28.7775   -9.6963 N   0  0  0  0  0  0  0  0  0  0  0  0
   18.0314  -27.6968   -9.7024 C   0  0  0  0  0  0  0  0  0  0  0  0
   18.4294  -26.4983   -8.9046 C   0  0  0  0  0  0  0  0  0  0  0  0
   17.3488  -26.0483   -7.9535 C   0  0  0  0  0  0  0  0  0  0  0  0
   17.6794  -24.7725   -7.2410 C   0  0  2  0  0  0  0  0  0  0  0  0
   18.8527  -24.1019   -7.7135 N   0  0  0  0  0  0  0  0  0  0  0  0
   17.6668  -24.9365   -5.7609 C   0  0  0  0  0  0  0  0  0  0  0  0
   18.7606  -25.1601   -5.1830 O   0  0  0  0  0  0  0  0  0  0  0  0
   20.7652  -30.4920   -9.6994 N   0  0  0  0  0  0  0  0  0  0  0  0
   16.5095  -24.8566   -4.9777 C   0  0  2  0  0  0  0  0  0  0  0  0
   16.5332  -24.9029   -3.5117 C   0  0  0  0  0  0  0  0  0  0  0  0
   15.3179  -24.1235   -3.0626 C   0  0  0  0  0  0  0  0  0  0  0  0
   15.2812  -23.8734   -1.5759 C   0  0  0  0  0  0  0  0  0  0  0  0
   14.1001  -22.9412   -1.3138 C   0  0  0  0  0  0  0  0  0  0  0  0
   13.9365  -22.6860    0.1692 N   0  0  0  0  0  0  0  0  0  0  0  0
   12.8942  -21.7495    0.4712 C   0  0  0  0  0  0  0  0  0  0  0  0
   16.4815  -26.3318   -3.1151 O   0  0  0  0  0  0  0  0  0  0  0  0
   16.0376  -27.1928   -3.9161 N   0  0  0  0  0  0  0  0  0  0  0  0
   16.9234  -26.7561   -1.8449 C   0  0  0  0  0  0  0  0  0  0  0  0
   18.2777  -27.1204   -1.5380 C   0  0  0  0  0  0  0  0  0  0  0  0
   18.6452  -28.4544   -2.0176 O   0  0  0  0  0  0  0  0  0  0  0  0
   17.8689  -29.0755   -2.7814 O   0  0  0  0  0  0  0  0  0  0  0  0
  1  2  1  0
  2  3  2  0
  4  2  1  0
  4  5  1  0
  6  5  1  0
  6  7  1  0
  7  8  1  0
  8  9  1  6
 10  8  1  0
 11 10  2  0
 12 10  1  0
 13 19  1  0
 13 12  1  0
 13 14  1  6
 15 14  1  0
 16 15  1  0
 17 16  1  0
 18 17  1  0
 19 21  1  0
 20 19  2  0
 21 22  1  0
 22 23  1  0
 23 24  2  0
 23 25  1  0
M  END
$$$$
