RKG.pdb
     RDKit          3D

 25 24  0  0  1  0  0  0  0  0999 V2000
   25.4839  -21.9451  -10.8927 N   0  0  0  0  0  0  0  0  0  0  0  0
   24.4543  -21.0126  -10.5053 C   0  0  0  0  0  0  0  0  0  0  0  0
   24.5666  -20.3208   -9.4268 N   0  0  0  0  0  0  0  0  0  0  0  0
   23.2947  -20.8366  -11.3038 N   0  0  0  0  0  0  0  0  0  0  0  0
   23.0752  -21.6179  -12.4796 C   0  0  0  0  0  0  0  0  0  0  0  0
   23.0404  -20.8532  -13.7623 C   0  0  0  0  0  0  0  0  0  0  0  0
   24.0721  -19.7541  -13.8117 C   0  0  0  0  0  0  0  0  0  0  0  0
   24.0566  -18.9835  -15.0965 C   0  0  2  0  0  0  0  0  0  0  0  0
   22.7818  -18.9118  -15.7440 N   0  0  0  0  0  0  0  0  0  0  0  0
   25.1474  -19.4064  -16.0180 C   0  0  0  0  0  0  0  0  0  0  0  0
   24.8590  -20.2030  -16.9468 O   0  0  0  0  0  0  0  0  0  0  0  0
   23.7611  -19.7263   -9.1288 N   0  0  0  0  0  0  0  0  0  0  0  0
   26.4727  -18.9692  -15.9096 C   0  0  2  0  0  0  0  0  0  0  0  0
   27.5286  -19.3846  -16.8393 C   0  0  0  0  0  0  0  0  0  0  0  0
   28.4891  -18.2188  -16.9076 C   0  0  0  0  0  0  0  0  0  0  0  0
   28.0772  -17.1595  -17.8987 C   0  0  0  0  0  0  0  0  0  0  0  0
   29.3378  -16.7518  -18.6588 C   0  0  0  0  0  0  0  0  0  0  0  0
   29.0199  -15.7010  -19.7009 N   0  0  0  0  0  0  0  0  0  0  0  0
   30.1881  -15.1317  -20.3058 C   0  0  0  0  0  0  0  0  0  0  0  0
   28.1490  -20.6117  -16.2817 O   0  0  0  0  0  0  0  0  0  0  0  0
   28.3040  -20.7315  -15.0401 N   0  0  0  0  0  0  0  0  0  0  0  0
   28.5757  -21.6627  -17.1196 C   0  0  0  0  0  0  0  0  0  0  0  0
   29.2113  -22.8629  -16.6544 C   0  0  0  0  0  0  0  0  0  0  0  0
   29.5264  -23.8087  -17.7271 O   0  0  0  0  0  0  0  0  0  0  0  0
   29.1868  -23.5473  -18.9053 O   0  0  0  0  0  0  0  0  0  0  0  0
  1  2  1  0
  2  3  2  0
  4  2  1  0
  4  5  1  0
  6  5  1  0
  6  7  1  0
  7  8  1  0
  8  9  1  6
 10  8  1  0
 11 10  2  0
 12 10  1  0
 13 19  1  0
 13 12  1  0
 13 14  1  6
 15 14  1  0
 16 15  1  0
 17 16  1  0
 18 17  1  0
 19 21  1  0
 20 19  2  0
 21 22  1  0
 22 23  1  0
 23 24  2  0
 23 25  1  0
M  END
$$$$
