RKG.pdb
     RDKit          3D

 25 24  0  0  1  0  0  0  0  0999 V2000
   19.8276  -24.1460   -9.9196 N   0  0  0  0  0  0  0  0  0  0  0  0
   19.0172  -23.3124   -9.0663 C   0  0  0  0  0  0  0  0  0  0  0  0
   18.1442  -23.8321   -8.2775 N   0  0  0  0  0  0  0  0  0  0  0  0
   19.1637  -21.9012   -9.0769 N   0  0  0  0  0  0  0  0  0  0  0  0
   20.1599  -21.2623   -9.8772 C   0  0  0  0  0  0  0  0  0  0  0  0
   21.4465  -20.9593   -9.1813 C   0  0  0  0  0  0  0  0  0  0  0  0
   22.3936  -20.1544  -10.0356 C   0  0  0  0  0  0  0  0  0  0  0  0
   23.2920  -21.0012  -10.8845 C   0  0  2  0  0  0  0  0  0  0  0  0
   24.5565  -21.3218  -10.2948 N   0  0  0  0  0  0  0  0  0  0  0  0
   23.4211  -20.4691  -12.2695 C   0  0  0  0  0  0  0  0  0  0  0  0
   24.2434  -19.5396  -12.4699 O   0  0  0  0  0  0  0  0  0  0  0  0
   17.5076  -23.1951   -7.7483 N   0  0  0  0  0  0  0  0  0  0  0  0
   22.6808  -20.9432  -13.3587 C   0  0  2  0  0  0  0  0  0  0  0  0
   22.7872  -20.3713  -14.7054 C   0  0  0  0  0  0  0  0  0  0  0  0
   23.1473  -21.5288  -15.6091 C   0  0  0  0  0  0  0  0  0  0  0  0
   24.4834  -22.1490  -15.2862 C   0  0  0  0  0  0  0  0  0  0  0  0
   24.7026  -23.2755  -16.2940 C   0  0  0  0  0  0  0  0  0  0  0  0
   26.0664  -23.9050  -16.1072 N   0  0  0  0  0  0  0  0  0  0  0  0
   26.2628  -25.0787  -16.9063 C   0  0  0  0  0  0  0  0  0  0  0  0
   21.4710  -19.7701  -15.0340 O   0  0  0  0  0  0  0  0  0  0  0  0
   20.4327  -20.1662  -14.4468 N   0  0  0  0  0  0  0  0  0  0  0  0
   21.3521  -18.7514  -16.0018 C   0  0  0  0  0  0  0  0  0  0  0  0
   20.1694  -17.9643  -16.2088 C   0  0  0  0  0  0  0  0  0  0  0  0
   19.0846  -18.7024  -16.8590 O   0  0  0  0  0  0  0  0  0  0  0  0
   18.0100  -18.1163  -17.1302 O   0  0  0  0  0  0  0  0  0  0  0  0
  1  2  1  0
  2  3  2  0
  4  2  1  0
  4  5  1  0
  6  5  1  0
  6  7  1  0
  7  8  1  0
  8  9  1  1
 10  8  1  0
 11 10  2  0
 12 10  1  0
 13 19  1  0
 13 12  1  0
 13 14  1  1
 15 14  1  0
 16 15  1  0
 17 16  1  0
 18 17  1  0
 19 21  1  0
 20 19  2  0
 21 22  1  0
 22 23  1  0
 23 24  2  0
 23 25  1  0
M  END
$$$$
