HGR.pdb
     RDKit          3D

 26 26  0  0  1  0  0  0  0  0999 V2000
   19.7243  -20.7642  -11.4528 N   0  0  0  0  0  0  0  0  0  0  0  0
   18.9663  -21.4385  -12.4584 C   0  0  1  0  0  0  0  0  0  0  0  0
   19.7620  -22.0301  -13.5577 C   0  0  0  0  0  0  0  0  0  0  0  0
   20.7422  -21.1691  -14.1852 C   0  0  0  0  0  0  0  0  0  0  0  0
   22.1104  -21.2564  -14.1129 C   0  0  0  0  0  0  0  0  0  0  0  0
   22.6559  -20.2663  -14.8378 N   0  0  0  0  0  0  0  0  0  0  0  0
   21.6197  -19.5600  -15.3634 C   0  0  0  0  0  0  0  0  0  0  0  0
   20.4587  -20.1126  -14.9639 N   0  0  0  0  0  0  0  0  0  0  0  0
   18.2107  -22.5505  -11.7889 C   0  0  0  0  0  0  0  0  0  0  0  0
   17.5034  -23.3532  -12.4515 O   0  0  0  0  0  0  0  0  0  0  0  0
   18.2580  -22.7487  -10.3829 N   0  0  0  0  0  0  0  0  0  0  0  0
   17.4172  -23.7557   -9.7636 C   0  0  0  0  0  0  0  0  0  0  0  0
   17.6030  -23.7915   -8.2917 C   0  0  0  0  0  0  0  0  0  0  0  0
   18.4609  -23.0414   -7.7575 O   0  0  0  0  0  0  0  0  0  0  0  0
   11.4711  -22.0272   -3.2337 N   0  0  0  0  0  0  0  0  0  0  0  0
   12.4342  -21.0162   -3.5720 C   0  0  0  0  0  0  0  0  0  0  0  0
   12.2338  -19.7803   -3.3449 N   0  0  0  0  0  0  0  0  0  0  0  0
   13.6435  -21.4366   -4.1799 N   0  0  0  0  0  0  0  0  0  0  0  0
   13.9277  -22.8489   -4.4300 C   0  0  0  0  0  0  0  0  0  0  0  0
   15.2919  -23.0284   -5.0385 C   0  0  0  0  0  0  0  0  0  0  0  0
   15.5718  -24.4696   -5.3627 C   0  0  0  0  0  0  0  0  0  0  0  0
   16.9436  -24.6308   -6.0092 C   0  0  2  0  0  0  0  0  0  0  0  0
   16.8556  -24.6376   -7.4409 N   0  0  0  0  0  0  0  0  0  0  0  0
   17.5948  -25.8926   -5.5583 C   0  0  0  0  0  0  0  0  0  0  0  0
   18.2426  -26.0140   -4.3363 O   0  0  0  0  0  0  0  0  0  0  0  0
   17.5739  -26.9153   -6.2982 O   0  0  0  0  0  0  0  0  0  0  0  0
  2  1  1  1
  3  2  1  0
  4  8  1  0
  4  3  1  0
  5  4  2  0
  6  5  1  0
  6  7  1  0
  7  8  2  0
  9  2  1  0
 10  9  2  0
 11  9  1  0
 12 11  1  0
 13 23  1  0
 13 12  1  0
 14 13  2  0
 16 15  1  0
 17 16  2  0
 18 16  1  0
 19 18  1  0
 20 19  1  0
 21 20  1  0
 22 21  1  1
 22 23  1  0
 24 25  1  0
 24 22  1  0
 26 24  2  0
M  END
$$$$
