HGR.pdb
     RDKit          3D

 26 26  0  0  1  0  0  0  0  0999 V2000
   24.0817  -18.5381  -17.5981 N   0  0  0  0  0  0  0  0  0  0  0  0
   24.8246  -18.6085  -16.3800 C   0  0  1  0  0  0  0  0  0  0  0  0
   25.8509  -17.5560  -16.2052 C   0  0  0  0  0  0  0  0  0  0  0  0
   26.8679  -17.4648  -17.2313 C   0  0  0  0  0  0  0  0  0  0  0  0
   28.0018  -18.2273  -17.3647 C   0  0  0  0  0  0  0  0  0  0  0  0
   28.6811  -17.8239  -18.4506 N   0  0  0  0  0  0  0  0  0  0  0  0
   27.9644  -16.8045  -18.9947 C   0  0  0  0  0  0  0  0  0  0  0  0
   26.8633  -16.5900  -18.2501 N   0  0  0  0  0  0  0  0  0  0  0  0
   23.8484  -18.4907  -15.2447 C   0  0  0  0  0  0  0  0  0  0  0  0
   24.2348  -18.4813  -14.0472 O   0  0  0  0  0  0  0  0  0  0  0  0
   22.4492  -18.3847  -15.4671 N   0  0  0  0  0  0  0  0  0  0  0  0
   21.5416  -18.2798  -14.3402 C   0  0  0  0  0  0  0  0  0  0  0  0
   20.6051  -19.4297  -14.2853 C   0  0  0  0  0  0  0  0  0  0  0  0
   20.1070  -19.8742  -15.3523 O   0  0  0  0  0  0  0  0  0  0  0  0
   15.8773  -24.0302  -11.4499 N   0  0  0  0  0  0  0  0  0  0  0  0
   16.5419  -25.1481  -10.8394 C   0  0  0  0  0  0  0  0  0  0  0  0
   16.0875  -26.3344  -10.9121 N   0  0  0  0  0  0  0  0  0  0  0  0
   17.7461  -24.8938  -10.1364 N   0  0  0  0  0  0  0  0  0  0  0  0
   18.3769  -23.5749  -10.1443 C   0  0  0  0  0  0  0  0  0  0  0  0
   18.5364  -23.0580  -11.5482 C   0  0  0  0  0  0  0  0  0  0  0  0
   19.3118  -21.7704  -11.5829 C   0  0  0  0  0  0  0  0  0  0  0  0
   19.3451  -21.1869  -12.9916 C   0  0  2  0  0  0  0  0  0  0  0  0
   20.2347  -20.0651  -13.0780 N   0  0  0  0  0  0  0  0  0  0  0  0
   17.9834  -20.7587  -13.4180 C   0  0  0  0  0  0  0  0  0  0  0  0
   17.1363  -21.5666  -14.1646 O   0  0  0  0  0  0  0  0  0  0  0  0
   17.5512  -19.6153  -13.1020 O   0  0  0  0  0  0  0  0  0  0  0  0
  2  1  1  6
  3  2  1  0
  4  8  1  0
  4  3  1  0
  5  4  2  0
  6  5  1  0
  6  7  1  0
  7  8  2  0
  9  2  1  0
 10  9  2  0
 11  9  1  0
 12 11  1  0
 13 23  1  0
 13 12  1  0
 14 13  2  0
 16 15  1  0
 17 16  2  0
 18 16  1  0
 19 18  1  0
 20 19  1  0
 21 20  1  0
 22 21  1  1
 22 23  1  0
 24 25  1  0
 24 22  1  0
 26 24  2  0
M  END
$$$$
