HGR.pdb
     RDKit          3D

 26 26  0  0  1  0  0  0  0  0999 V2000
   25.4474  -17.1984  -18.7286 N   0  0  0  0  0  0  0  0  0  0  0  0
   24.2034  -16.9814  -19.3963 C   0  0  1  0  0  0  0  0  0  0  0  0
   23.8422  -18.0028  -20.4051 C   0  0  0  0  0  0  0  0  0  0  0  0
   24.7946  -18.2259  -21.4722 C   0  0  0  0  0  0  0  0  0  0  0  0
   25.2861  -17.3097  -22.3689 C   0  0  0  0  0  0  0  0  0  0  0  0
   26.1482  -17.9204  -23.1978 N   0  0  0  0  0  0  0  0  0  0  0  0
   26.1922  -19.2239  -22.8132 C   0  0  0  0  0  0  0  0  0  0  0  0
   25.3678  -19.4046  -21.7641 N   0  0  0  0  0  0  0  0  0  0  0  0
   23.1238  -16.9657  -18.3522 C   0  0  0  0  0  0  0  0  0  0  0  0
   21.9181  -16.7785  -18.6598 O   0  0  0  0  0  0  0  0  0  0  0  0
   23.4105  -17.1604  -16.9744 N   0  0  0  0  0  0  0  0  0  0  0  0
   22.3673  -16.9760  -15.9833 C   0  0  0  0  0  0  0  0  0  0  0  0
   21.6143  -18.2321  -15.7439 C   0  0  0  0  0  0  0  0  0  0  0  0
   21.1954  -18.8996  -16.7252 O   0  0  0  0  0  0  0  0  0  0  0  0
   24.0881  -20.9673   -8.5568 N   0  0  0  0  0  0  0  0  0  0  0  0
   24.9953  -20.8442   -9.6640 C   0  0  0  0  0  0  0  0  0  0  0  0
   26.2587  -20.8367   -9.5128 N   0  0  0  0  0  0  0  0  0  0  0  0
   24.4376  -20.7282  -10.9619 N   0  0  0  0  0  0  0  0  0  0  0  0
   23.0484  -20.3218  -11.1680 C   0  0  0  0  0  0  0  0  0  0  0  0
   22.6868  -20.3463  -12.6282 C   0  0  0  0  0  0  0  0  0  0  0  0
   21.2134  -20.5643  -12.8336 C   0  0  0  0  0  0  0  0  0  0  0  0
   20.7594  -20.0149  -14.1819 C   0  0  2  0  0  0  0  0  0  0  0  0
   21.3363  -18.7293  -14.4500 N   0  0  0  0  0  0  0  0  0  0  0  0
   19.2751  -19.8995  -14.2323 C   0  0  0  0  0  0  0  0  0  0  0  0
   18.4423  -20.9747  -14.5122 O   0  0  0  0  0  0  0  0  0  0  0  0
   18.7187  -18.7871  -14.0152 O   0  0  0  0  0  0  0  0  0  0  0  0
  2  1  1  1
  3  2  1  0
  4  8  1  0
  4  3  1  0
  5  4  2  0
  6  5  1  0
  6  7  1  0
  7  8  2  0
  9  2  1  0
 10  9  2  0
 11  9  1  0
 12 11  1  0
 13 23  1  0
 13 12  1  0
 14 13  2  0
 16 15  1  0
 17 16  2  0
 18 16  1  0
 19 18  1  0
 20 19  1  0
 21 20  1  0
 22 21  1  1
 22 23  1  0
 24 25  1  0
 24 22  1  0
 26 24  2  0
M  END
$$$$
