HGR.pdb
     RDKit          3D

 26 26  0  0  1  0  0  0  0  0999 V2000
   25.7304  -23.5088  -14.2843 N   0  0  0  0  0  0  0  0  0  0  0  0
   26.2580  -22.6367  -15.2851 C   0  0  1  0  0  0  0  0  0  0  0  0
   26.6625  -23.2964  -16.5471 C   0  0  0  0  0  0  0  0  0  0  0  0
   27.6740  -24.3270  -16.4451 C   0  0  0  0  0  0  0  0  0  0  0  0
   27.4884  -25.6766  -16.2746 C   0  0  0  0  0  0  0  0  0  0  0  0
   28.6844  -26.2855  -16.2289 N   0  0  0  0  0  0  0  0  0  0  0  0
   29.6184  -25.3077  -16.3720 C   0  0  0  0  0  0  0  0  0  0  0  0
   28.9993  -24.1192  -16.5030 N   0  0  0  0  0  0  0  0  0  0  0  0
   25.1955  -21.6277  -15.6148 C   0  0  0  0  0  0  0  0  0  0  0  0
   23.9731  -21.9198  -15.5524 O   0  0  0  0  0  0  0  0  0  0  0  0
   25.5177  -20.3018  -16.0108 N   0  0  0  0  0  0  0  0  0  0  0  0
   24.4624  -19.3248  -16.2009 C   0  0  0  0  0  0  0  0  0  0  0  0
   25.0114  -17.9858  -16.5291 C   0  0  0  0  0  0  0  0  0  0  0  0
   26.2578  -17.8303  -16.6098 O   0  0  0  0  0  0  0  0  0  0  0  0
   19.0941  -11.9511  -16.7477 N   0  0  0  0  0  0  0  0  0  0  0  0
   19.3344  -12.6846  -15.5360 C   0  0  0  0  0  0  0  0  0  0  0  0
   18.5307  -12.6545  -14.5499 N   0  0  0  0  0  0  0  0  0  0  0  0
   20.5167  -13.4627  -15.4613 N   0  0  0  0  0  0  0  0  0  0  0  0
   21.4540  -13.5461  -16.5803 C   0  0  0  0  0  0  0  0  0  0  0  0
   22.6202  -14.4360  -16.2462 C   0  0  0  0  0  0  0  0  0  0  0  0
   23.5619  -14.5800  -17.4093 C   0  0  0  0  0  0  0  0  0  0  0  0
   24.6942  -15.5482  -17.0829 C   0  0  2  0  0  0  0  0  0  0  0  0
   24.1963  -16.8541  -16.7604 N   0  0  0  0  0  0  0  0  0  0  0  0
   25.5069  -15.0443  -15.9405 C   0  0  0  0  0  0  0  0  0  0  0  0
   26.5106  -14.0962  -16.0871 O   0  0  0  0  0  0  0  0  0  0  0  0
   25.2977  -15.4796  -14.7740 O   0  0  0  0  0  0  0  0  0  0  0  0
  2  1  1  1
  3  2  1  0
  4  8  1  0
  4  3  1  0
  5  4  2  0
  6  5  1  0
  6  7  1  0
  7  8  2  0
  9  2  1  0
 10  9  2  0
 11  9  1  0
 12 11  1  0
 13 23  1  0
 13 12  1  0
 14 13  2  0
 16 15  1  0
 17 16  2  0
 18 16  1  0
 19 18  1  0
 20 19  1  0
 21 20  1  0
 22 21  1  1
 22 23  1  0
 24 25  1  0
 24 22  1  0
 26 24  2  0
M  END
$$$$
