HGR.pdb
     RDKit          3D

 26 26  0  0  1  0  0  0  0  0999 V2000
   19.3244  -20.9873  -14.7708 N   0  0  0  0  0  0  0  0  0  0  0  0
   20.1888  -19.8896  -14.4736 C   0  0  1  0  0  0  0  0  0  0  0  0
   19.6309  -18.8809  -13.5447 C   0  0  0  0  0  0  0  0  0  0  0  0
   18.5060  -18.1074  -14.0264 C   0  0  0  0  0  0  0  0  0  0  0  0
   17.2496  -18.5573  -14.3488 C   0  0  0  0  0  0  0  0  0  0  0  0
   16.4993  -17.5206  -14.7556 N   0  0  0  0  0  0  0  0  0  0  0  0
   17.2949  -16.4202  -14.6853 C   0  0  0  0  0  0  0  0  0  0  0  0
   18.5135  -16.7820  -14.2415 N   0  0  0  0  0  0  0  0  0  0  0  0
   21.4352  -20.4485  -13.8494 C   0  0  0  0  0  0  0  0  0  0  0  0
   21.4699  -20.7739  -12.6343 O   0  0  0  0  0  0  0  0  0  0  0  0
   22.6289  -20.6358  -14.5968 N   0  0  0  0  0  0  0  0  0  0  0  0
   23.8503  -21.0367  -13.9245 C   0  0  0  0  0  0  0  0  0  0  0  0
   24.8326  -19.9258  -13.8697 C   0  0  0  0  0  0  0  0  0  0  0  0
   24.8924  -19.2022  -12.8416 O   0  0  0  0  0  0  0  0  0  0  0  0
   30.6305  -20.8188   -8.9322 N   0  0  0  0  0  0  0  0  0  0  0  0
   30.3380  -21.5679  -10.1227 C   0  0  0  0  0  0  0  0  0  0  0  0
   30.5189  -22.8251  -10.1991 N   0  0  0  0  0  0  0  0  0  0  0  0
   29.8303  -20.8573  -11.2391 N   0  0  0  0  0  0  0  0  0  0  0  0
   29.6047  -21.5099  -12.5278 C   0  0  0  0  0  0  0  0  0  0  0  0
   29.1160  -20.5263  -13.5560 C   0  0  0  0  0  0  0  0  0  0  0  0
   27.6265  -20.6098  -13.7427 C   0  0  0  0  0  0  0  0  0  0  0  0
   27.1511  -19.6313  -14.8116 C   0  0  2  0  0  0  0  0  0  0  0  0
   25.7215  -19.6299  -14.9284 N   0  0  0  0  0  0  0  0  0  0  0  0
   27.7446  -19.9667  -16.1361 C   0  0  0  0  0  0  0  0  0  0  0  0
   28.7070  -19.1796  -16.7543 O   0  0  0  0  0  0  0  0  0  0  0  0
   27.3769  -21.0071  -16.7496 O   0  0  0  0  0  0  0  0  0  0  0  0
  2  1  1  1
  3  2  1  0
  4  8  1  0
  4  3  1  0
  5  4  2  0
  6  5  1  0
  6  7  1  0
  7  8  2  0
  9  2  1  0
 10  9  2  0
 11  9  1  0
 12 11  1  0
 13 23  1  0
 13 12  1  0
 14 13  2  0
 16 15  1  0
 17 16  2  0
 18 16  1  0
 19 18  1  0
 20 19  1  0
 21 20  1  0
 22 21  1  1
 22 23  1  0
 24 25  1  0
 24 22  1  0
 26 24  2  0
M  END
$$$$
