HGR.pdb
     RDKit          3D

 26 26  0  0  1  0  0  0  0  0999 V2000
   16.1530  -14.5055  -17.5697 N   0  0  0  0  0  0  0  0  0  0  0  0
   17.0676  -14.1470  -16.5326 C   0  0  1  0  0  0  0  0  0  0  0  0
   18.2934  -14.9738  -16.4588 C   0  0  0  0  0  0  0  0  0  0  0  0
   18.1054  -16.3982  -16.2819 C   0  0  0  0  0  0  0  0  0  0  0  0
   18.1904  -17.3845  -17.2332 C   0  0  0  0  0  0  0  0  0  0  0  0
   17.9480  -18.5744  -16.6598 N   0  0  0  0  0  0  0  0  0  0  0  0
   17.7110  -18.3252  -15.3443 C   0  0  0  0  0  0  0  0  0  0  0  0
   17.8078  -17.0012  -15.1195 N   0  0  0  0  0  0  0  0  0  0  0  0
   17.4872  -12.7243  -16.7684 C   0  0  0  0  0  0  0  0  0  0  0  0
   17.8017  -12.3160  -17.9165 O   0  0  0  0  0  0  0  0  0  0  0  0
   17.5489  -11.7760  -15.7123 N   0  0  0  0  0  0  0  0  0  0  0  0
   17.8991  -10.3969  -15.9952 C   0  0  0  0  0  0  0  0  0  0  0  0
   19.0483   -9.9460  -15.1717 C   0  0  0  0  0  0  0  0  0  0  0  0
   19.5742  -10.7440  -14.3527 O   0  0  0  0  0  0  0  0  0  0  0  0
   23.9102   -4.3855  -18.8572 N   0  0  0  0  0  0  0  0  0  0  0  0
   23.9390   -5.7757  -19.2185 C   0  0  0  0  0  0  0  0  0  0  0  0
   24.4950   -6.1918  -20.2848 N   0  0  0  0  0  0  0  0  0  0  0  0
   23.3186   -6.6973  -18.3384 N   0  0  0  0  0  0  0  0  0  0  0  0
   22.6824   -6.2640  -17.0953 C   0  0  0  0  0  0  0  0  0  0  0  0
   22.0311   -7.4207  -16.3872 C   0  0  0  0  0  0  0  0  0  0  0  0
   21.3963   -6.9950  -15.0924 C   0  0  0  0  0  0  0  0  0  0  0  0
   20.6617   -8.1573  -14.4325 C   0  0  2  0  0  0  0  0  0  0  0  0
   19.5950   -8.6451  -15.2580 N   0  0  0  0  0  0  0  0  0  0  0  0
   20.1044   -7.7485  -13.1128 C   0  0  0  0  0  0  0  0  0  0  0  0
   18.7414   -7.6651  -12.8610 O   0  0  0  0  0  0  0  0  0  0  0  0
   20.8804   -7.4584  -12.1602 O   0  0  0  0  0  0  0  0  0  0  0  0
  2  1  1  6
  3  2  1  0
  4  8  1  0
  4  3  1  0
  5  4  2  0
  6  5  1  0
  6  7  1  0
  7  8  2  0
  9  2  1  0
 10  9  2  0
 11  9  1  0
 12 11  1  0
 13 23  1  0
 13 12  1  0
 14 13  2  0
 16 15  1  0
 17 16  2  0
 18 16  1  0
 19 18  1  0
 20 19  1  0
 21 20  1  0
 22 21  1  6
 22 23  1  0
 24 25  1  0
 24 22  1  0
 26 24  2  0
M  END
$$$$
