HGR.pdb
     RDKit          3D

 26 26  0  0  1  0  0  0  0  0999 V2000
   21.0942  -17.1763  -19.2428 N   0  0  0  0  0  0  0  0  0  0  0  0
   21.8292  -16.4368  -18.2664 C   0  0  1  0  0  0  0  0  0  0  0  0
   21.1191  -15.2723  -17.6908 C   0  0  0  0  0  0  0  0  0  0  0  0
   20.7630  -14.2110  -18.6087 C   0  0  0  0  0  0  0  0  0  0  0  0
   19.7353  -14.1929  -19.5189 C   0  0  0  0  0  0  0  0  0  0  0  0
   19.7476  -13.0223  -20.1769 N   0  0  0  0  0  0  0  0  0  0  0  0
   20.7894  -12.3092  -19.6719 C   0  0  0  0  0  0  0  0  0  0  0  0
   21.4034  -13.0359  -18.7191 N   0  0  0  0  0  0  0  0  0  0  0  0
   22.1607  -17.3743  -17.1408 C   0  0  0  0  0  0  0  0  0  0  0  0
   21.2576  -17.9087  -16.4462 O   0  0  0  0  0  0  0  0  0  0  0  0
   23.5026  -17.7014  -16.8081 N   0  0  0  0  0  0  0  0  0  0  0  0
   23.7764  -18.7660  -15.8615 C   0  0  0  0  0  0  0  0  0  0  0  0
   25.2331  -18.9285  -15.6296 C   0  0  0  0  0  0  0  0  0  0  0  0
   26.0189  -18.9420  -16.6127 O   0  0  0  0  0  0  0  0  0  0  0  0
   26.4130  -20.4358   -7.4963 N   0  0  0  0  0  0  0  0  0  0  0  0
   25.3441  -21.0580   -8.2273 C   0  0  0  0  0  0  0  0  0  0  0  0
   24.3424  -21.5896   -7.6502 N   0  0  0  0  0  0  0  0  0  0  0  0
   25.4324  -21.0668   -9.6419 N   0  0  0  0  0  0  0  0  0  0  0  0
   26.4873  -20.3442  -10.3508 C   0  0  0  0  0  0  0  0  0  0  0  0
   26.3158  -20.4579  -11.8411 C   0  0  0  0  0  0  0  0  0  0  0  0
   27.3816  -19.7009  -12.5837 C   0  0  0  0  0  0  0  0  0  0  0  0
   27.0816  -19.6534  -14.0783 C   0  0  2  0  0  0  0  0  0  0  0  0
   25.7972  -19.0717  -14.3412 N   0  0  0  0  0  0  0  0  0  0  0  0
   27.1239  -21.0204  -14.6690 C   0  0  0  0  0  0  0  0  0  0  0  0
   28.2872  -21.5938  -15.1649 O   0  0  0  0  0  0  0  0  0  0  0  0
   26.0712  -21.7140  -14.7361 O   0  0  0  0  0  0  0  0  0  0  0  0
  2  1  1  6
  3  2  1  0
  4  8  1  0
  4  3  1  0
  5  4  2  0
  6  5  1  0
  6  7  1  0
  7  8  2  0
  9  2  1  0
 10  9  2  0
 11  9  1  0
 12 11  1  0
 13 23  1  0
 13 12  1  0
 14 13  2  0
 16 15  1  0
 17 16  2  0
 18 16  1  0
 19 18  1  0
 20 19  1  0
 21 20  1  0
 22 21  1  1
 22 23  1  0
 24 25  1  0
 24 22  1  0
 26 24  2  0
M  END
$$$$
