HGR.pdb
     RDKit          3D

 26 26  0  0  1  0  0  0  0  0999 V2000
   24.6511  -18.1782  -16.9077 N   0  0  0  0  0  0  0  0  0  0  0  0
   25.2043  -18.3780  -15.6060 C   0  0  1  0  0  0  0  0  0  0  0  0
   25.9574  -17.2277  -15.0572 C   0  0  0  0  0  0  0  0  0  0  0  0
   27.0806  -16.7554  -15.8388 C   0  0  0  0  0  0  0  0  0  0  0  0
   27.2066  -15.5557  -16.4944 C   0  0  0  0  0  0  0  0  0  0  0  0
   28.4032  -15.5070  -17.1020 N   0  0  0  0  0  0  0  0  0  0  0  0
   29.0239  -16.6839  -16.8219 C   0  0  0  0  0  0  0  0  0  0  0  0
   28.2161  -17.4392  -16.0539 N   0  0  0  0  0  0  0  0  0  0  0  0
   24.0676  -18.6714  -14.6691 C   0  0  0  0  0  0  0  0  0  0  0  0
   23.0311  -17.9580  -14.6536 O   0  0  0  0  0  0  0  0  0  0  0  0
   24.1078  -19.7626  -13.7602 N   0  0  0  0  0  0  0  0  0  0  0  0
   22.9610  -20.0486  -12.9191 C   0  0  0  0  0  0  0  0  0  0  0  0
   21.9382  -20.8435  -13.6433 C   0  0  0  0  0  0  0  0  0  0  0  0
   22.0690  -21.0419  -14.8792 O   0  0  0  0  0  0  0  0  0  0  0  0
   16.2779  -25.5246   -9.3151 N   0  0  0  0  0  0  0  0  0  0  0  0
   16.0107  -25.2533  -10.7005 C   0  0  0  0  0  0  0  0  0  0  0  0
   15.0863  -25.8441  -11.3451 N   0  0  0  0  0  0  0  0  0  0  0  0
   16.8203  -24.2881  -11.3499 N   0  0  0  0  0  0  0  0  0  0  0  0
   17.9008  -23.5948  -10.6502 C   0  0  0  0  0  0  0  0  0  0  0  0
   18.5660  -22.5844  -11.5447 C   0  0  0  0  0  0  0  0  0  0  0  0
   19.2040  -23.2343  -12.7410 C   0  0  0  0  0  0  0  0  0  0  0  0
   19.8097  -22.1917  -13.6748 C   0  0  2  0  0  0  0  0  0  0  0  0
   20.8039  -21.4004  -13.0094 N   0  0  0  0  0  0  0  0  0  0  0  0
   18.7543  -21.2894  -14.2144 C   0  0  0  0  0  0  0  0  0  0  0  0
   17.7851  -21.7130  -15.1139 O   0  0  0  0  0  0  0  0  0  0  0  0
   18.7125  -20.0792  -13.8570 O   0  0  0  0  0  0  0  0  0  0  0  0
  2  1  1  6
  3  2  1  0
  4  8  1  0
  4  3  1  0
  5  4  2  0
  6  5  1  0
  6  7  1  0
  7  8  2  0
  9  2  1  0
 10  9  2  0
 11  9  1  0
 12 11  1  0
 13 23  1  0
 13 12  1  0
 14 13  2  0
 16 15  1  0
 17 16  2  0
 18 16  1  0
 19 18  1  0
 20 19  1  0
 21 20  1  0
 22 21  1  1
 22 23  1  0
 24 25  1  0
 24 22  1  0
 26 24  2  0
M  END
$$$$
