HGR.pdb
     RDKit          3D

 26 26  0  0  1  0  0  0  0  0999 V2000
   17.0198  -26.0046  -10.5069 N   0  0  0  0  0  0  0  0  0  0  0  0
   18.0566  -25.7455   -9.5590 C   0  0  1  0  0  0  0  0  0  0  0  0
   19.2128  -24.9828  -10.0814 C   0  0  0  0  0  0  0  0  0  0  0  0
   19.8669  -25.5197  -11.2559 C   0  0  0  0  0  0  0  0  0  0  0  0
   19.8801  -24.9987  -12.5261 C   0  0  0  0  0  0  0  0  0  0  0  0
   20.6007  -25.8011  -13.3261 N   0  0  0  0  0  0  0  0  0  0  0  0
   21.0377  -26.8268  -12.5477 C   0  0  0  0  0  0  0  0  0  0  0  0
   20.5891  -26.6512  -11.2903 N   0  0  0  0  0  0  0  0  0  0  0  0
   17.4556  -24.9539   -8.4330 C   0  0  0  0  0  0  0  0  0  0  0  0
   16.7705  -23.9212   -8.6512 O   0  0  0  0  0  0  0  0  0  0  0  0
   17.6307  -25.3310   -7.0745 N   0  0  0  0  0  0  0  0  0  0  0  0
   16.8339  -24.7015   -6.0384 C   0  0  0  0  0  0  0  0  0  0  0  0
   17.1768  -25.2250   -4.6929 C   0  0  0  0  0  0  0  0  0  0  0  0
   18.0329  -26.1413   -4.5846 O   0  0  0  0  0  0  0  0  0  0  0  0
   13.2315  -20.9293    1.3566 N   0  0  0  0  0  0  0  0  0  0  0  0
   12.5745  -21.3284    0.1429 C   0  0  0  0  0  0  0  0  0  0  0  0
   11.4689  -20.8224   -0.2322 N   0  0  0  0  0  0  0  0  0  0  0  0
   13.2013  -22.3237   -0.6479 N   0  0  0  0  0  0  0  0  0  0  0  0
   14.5323  -22.8360   -0.3259 C   0  0  0  0  0  0  0  0  0  0  0  0
   14.9793  -23.8580   -1.3355 C   0  0  0  0  0  0  0  0  0  0  0  0
   16.4034  -24.2819   -1.1058 C   0  0  0  0  0  0  0  0  0  0  0  0
   16.8719  -25.2448   -2.1917 C   0  0  2  0  0  0  0  0  0  0  0  0
   16.5838  -24.7422   -3.5039 N   0  0  0  0  0  0  0  0  0  0  0  0
   16.2253  -26.5771   -2.0309 C   0  0  0  0  0  0  0  0  0  0  0  0
   16.6611  -27.5230   -1.1126 O   0  0  0  0  0  0  0  0  0  0  0  0
   15.2339  -26.8904   -2.7472 O   0  0  0  0  0  0  0  0  0  0  0  0
  2  1  1  6
  3  2  1  0
  4  8  1  0
  4  3  1  0
  5  4  2  0
  6  5  1  0
  6  7  1  0
  7  8  2  0
  9  2  1  0
 10  9  2  0
 11  9  1  0
 12 11  1  0
 13 23  1  0
 13 12  1  0
 14 13  2  0
 16 15  1  0
 17 16  2  0
 18 16  1  0
 19 18  1  0
 20 19  1  0
 21 20  1  0
 22 21  1  1
 22 23  1  0
 24 25  1  0
 24 22  1  0
 26 24  2  0
M  END
$$$$
