WNC.pdb
     RDKit          3D

 29 30  0  0  1  0  0  0  0  0999 V2000
   20.8516   -9.6299  -16.1318 N   0  0  0  0  0  0  0  0  0  0  0  0
   20.4055   -8.5484  -16.9678 C   0  0  1  0  0  0  0  0  0  0  0  0
   19.3227   -8.9326  -17.9095 C   0  0  0  0  0  0  0  0  0  0  0  0
   19.6722   -9.9876  -18.8736 C   0  0  0  0  0  0  0  0  0  0  0  0
   20.9351  -10.4669  -19.2032 C   0  0  0  0  0  0  0  0  0  0  0  0
   20.8080  -11.4507  -20.1062 N   0  0  0  0  0  0  0  0  0  0  0  0
   19.5074  -11.6476  -20.3945 C   0  0  0  0  0  0  0  0  0  0  0  0
   18.8937  -12.5257  -21.2536 C   0  0  0  0  0  0  0  0  0  0  0  0
   17.5204  -12.4695  -21.3311 C   0  0  0  0  0  0  0  0  0  0  0  0
   16.7748  -11.5850  -20.5933 C   0  0  0  0  0  0  0  0  0  0  0  0
   17.4065  -10.7178  -19.7422 C   0  0  0  0  0  0  0  0  0  0  0  0
   18.7848  -10.7366  -19.6290 C   0  0  0  0  0  0  0  0  0  0  0  0
   20.0896   -7.3852  -16.1219 C   0  0  0  0  0  0  0  0  0  0  0  0
   19.2150   -7.5366  -15.2192 O   0  0  0  0  0  0  0  0  0  0  0  0
   20.9525   -6.2939  -12.9726 N   0  0  0  0  0  0  0  0  0  0  0  0
   21.7764   -5.1917  -13.4254 C   0  0  0  0  0  0  0  0  0  0  0  0
   22.6890   -4.8521  -12.6571 O   0  0  0  0  0  0  0  0  0  0  0  0
   21.5311   -4.5411  -14.7015 C   0  0  0  0  0  0  0  0  0  0  0  0
   20.3008   -4.9905  -15.4087 C   0  0  2  0  0  0  0  0  0  0  0  0
   20.7023   -6.1478  -16.2716 N   0  0  0  0  0  0  0  0  0  0  0  0
   19.7573   -3.9672  -16.3480 C   0  0  0  0  0  0  0  0  0  0  0  0
   20.3558   -3.8148  -17.4930 O   0  0  0  0  0  0  0  0  0  0  0  0
   18.6569   -3.1252  -16.1716 N   0  0  0  0  0  0  0  0  0  0  0  0
   18.2328   -2.1781  -17.2301 C   0  0  1  0  0  0  0  0  0  0  0  0
   16.7639   -1.8503  -17.0652 C   0  0  0  0  0  0  0  0  0  0  0  0
   15.7188   -3.3073  -17.0090 S   0  0  0  0  0  0  0  0  0  0  0  0
   18.9879   -0.9248  -16.9835 C   0  0  0  0  0  0  0  0  0  0  0  0
   18.8538    0.2247  -17.7551 O   0  0  0  0  0  0  0  0  0  0  0  0
   19.7946   -0.9082  -16.0191 O   0  0  0  0  0  0  0  0  0  0  0  0
  2  1  1  1
  2 13  1  0
  3  4  1  0
  3  2  1  0
  4 12  1  0
  4  5  2  0
  5  6  1  0
  7  8  2  0
  7  6  1  0
  9  8  1  0
 10  9  2  0
 11 10  1  0
 11 12  2  0
 12  7  1  0
 13 20  1  0
 13 14  2  0
 16 15  1  0
 16 17  2  0
 18 16  1  0
 19 18  1  6
 20 19  1  0
 21 19  1  0
 21 22  2  0
 23 21  1  0
 24 23  1  0
 24 25  1  1
 25 26  1  0
 27 24  1  0
 28 27  1  0
 29 27  2  0
M  END
$$$$
