WNC.pdb
     RDKit          3D

 29 30  0  0  1  0  0  0  0  0999 V2000
   28.1623  -21.1156  -11.0305 N   0  0  0  0  0  0  0  0  0  0  0  0
   26.8936  -21.1553  -10.3549 C   0  0  1  0  0  0  0  0  0  0  0  0
   26.8975  -20.4609   -9.0417 C   0  0  0  0  0  0  0  0  0  0  0  0
   28.0818  -20.7060   -8.2037 C   0  0  0  0  0  0  0  0  0  0  0  0
   29.2514  -21.3768   -8.5436 C   0  0  0  0  0  0  0  0  0  0  0  0
   30.0908  -21.3505   -7.4976 N   0  0  0  0  0  0  0  0  0  0  0  0
   29.5269  -20.6880   -6.4696 C   0  0  0  0  0  0  0  0  0  0  0  0
   29.9906  -20.4135   -5.2065 C   0  0  0  0  0  0  0  0  0  0  0  0
   29.1521  -19.7115   -4.3704 C   0  0  0  0  0  0  0  0  0  0  0  0
   27.9040  -19.2932   -4.7576 C   0  0  0  0  0  0  0  0  0  0  0  0
   27.4608  -19.5771   -6.0218 C   0  0  0  0  0  0  0  0  0  0  0  0
   28.2673  -20.2793   -6.8989 C   0  0  0  0  0  0  0  0  0  0  0  0
   25.8418  -20.6993  -11.2792 C   0  0  0  0  0  0  0  0  0  0  0  0
   25.9029  -19.5048  -11.6940 O   0  0  0  0  0  0  0  0  0  0  0  0
   25.9377  -20.5939  -14.5603 N   0  0  0  0  0  0  0  0  0  0  0  0
   25.0514  -21.7232  -14.7544 C   0  0  0  0  0  0  0  0  0  0  0  0
   25.3384  -22.4755  -15.6980 O   0  0  0  0  0  0  0  0  0  0  0  0
   23.9059  -21.9411  -13.8871 C   0  0  0  0  0  0  0  0  0  0  0  0
   23.8163  -21.0185  -12.7224 C   0  0  2  0  0  0  0  0  0  0  0  0
   24.8016  -21.5136  -11.7080 N   0  0  0  0  0  0  0  0  0  0  0  0
   22.4907  -21.0625  -12.0400 C   0  0  0  0  0  0  0  0  0  0  0  0
   22.1930  -22.1305  -11.3593 O   0  0  0  0  0  0  0  0  0  0  0  0
   21.4921  -20.0862  -12.0206 N   0  0  0  0  0  0  0  0  0  0  0  0
   20.1905  -20.3272  -11.3535 C   0  0  1  0  0  0  0  0  0  0  0  0
   19.4276  -19.0249  -11.2339 C   0  0  0  0  0  0  0  0  0  0  0  0
   20.1999  -17.6717  -12.1231 S   0  0  0  0  0  0  0  0  0  0  0  0
   19.4171  -21.2009  -12.2702 C   0  0  0  0  0  0  0  0  0  0  0  0
   18.2852  -21.9140  -11.8893 O   0  0  0  0  0  0  0  0  0  0  0  0
   19.8140  -21.2978  -13.4594 O   0  0  0  0  0  0  0  0  0  0  0  0
  2  1  1  6
  2 13  1  0
  3  4  1  0
  3  2  1  0
  4 12  1  0
  4  5  2  0
  5  6  1  0
  7  8  2  0
  7  6  1  0
  9  8  1  0
 10  9  2  0
 11 10  1  0
 11 12  2  0
 12  7  1  0
 13 20  1  0
 13 14  2  0
 16 15  1  0
 16 17  2  0
 18 16  1  0
 19 18  1  6
 20 19  1  0
 21 19  1  0
 21 22  2  0
 23 21  1  0
 24 23  1  0
 24 25  1  6
 25 26  1  0
 27 24  1  0
 28 27  1  0
 29 27  2  0
M  END
$$$$
