WNC.pdb
     RDKit          3D

 29 30  0  0  1  0  0  0  0  0999 V2000
   24.1572  -20.0186  -14.1132 N   0  0  0  0  0  0  0  0  0  0  0  0
   22.7555  -19.7963  -13.8822 C   0  0  1  0  0  0  0  0  0  0  0  0
   21.9348  -19.8406  -15.1197 C   0  0  0  0  0  0  0  0  0  0  0  0
   22.1860  -18.7552  -16.0807 C   0  0  0  0  0  0  0  0  0  0  0  0
   23.2538  -18.6159  -16.9604 C   0  0  0  0  0  0  0  0  0  0  0  0
   23.0846  -17.4968  -17.6804 N   0  0  0  0  0  0  0  0  0  0  0  0
   21.9441  -16.8808  -17.3152 C   0  0  0  0  0  0  0  0  0  0  0  0
   21.3623  -15.7179  -17.7566 C   0  0  0  0  0  0  0  0  0  0  0  0
   20.1778  -15.3455  -17.1622 C   0  0  0  0  0  0  0  0  0  0  0  0
   19.5842  -16.0858  -16.1712 C   0  0  0  0  0  0  0  0  0  0  0  0
   20.1808  -17.2426  -15.7457 C   0  0  0  0  0  0  0  0  0  0  0  0
   21.3715  -17.6590  -16.3129 C   0  0  0  0  0  0  0  0  0  0  0  0
   22.2943  -20.7007  -12.8156 C   0  0  0  0  0  0  0  0  0  0  0  0
   22.7848  -21.8673  -12.7828 O   0  0  0  0  0  0  0  0  0  0  0  0
   21.4160  -21.8212   -7.4856 N   0  0  0  0  0  0  0  0  0  0  0  0
   20.4546  -21.1308   -8.3208 C   0  0  0  0  0  0  0  0  0  0  0  0
   19.2738  -21.1943   -7.9461 O   0  0  0  0  0  0  0  0  0  0  0  0
   20.8695  -20.4159   -9.5160 C   0  0  0  0  0  0  0  0  0  0  0  0
   21.0131  -21.2598  -10.7338 C   0  0  2  0  0  0  0  0  0  0  0  0
   21.3576  -20.3319  -11.8588 N   0  0  0  0  0  0  0  0  0  0  0  0
   19.7402  -21.9210  -11.1426 C   0  0  0  0  0  0  0  0  0  0  0  0
   18.8681  -21.2092  -11.7947 O   0  0  0  0  0  0  0  0  0  0  0  0
   19.3393  -23.2411  -10.9244 N   0  0  0  0  0  0  0  0  0  0  0  0
   18.0436  -23.7483  -11.4354 C   0  0  1  0  0  0  0  0  0  0  0  0
   17.9524  -25.2421  -11.2065 C   0  0  0  0  0  0  0  0  0  0  0  0
   16.2747  -25.8101  -10.9216 S   0  0  0  0  0  0  0  0  0  0  0  0
   16.9971  -23.1154  -10.5951 C   0  0  0  0  0  0  0  0  0  0  0  0
   15.7808  -22.6554  -11.0888 O   0  0  0  0  0  0  0  0  0  0  0  0
   17.2303  -22.9908   -9.3658 O   0  0  0  0  0  0  0  0  0  0  0  0
  2  1  1  6
  2 13  1  0
  3  4  1  0
  3  2  1  0
  4 12  1  0
  4  5  2  0
  5  6  1  0
  7  8  2  0
  7  6  1  0
  9  8  1  0
 10  9  2  0
 11 10  1  0
 11 12  2  0
 12  7  1  0
 13 20  1  0
 13 14  2  0
 16 15  1  0
 16 17  2  0
 18 16  1  0
 19 18  1  1
 20 19  1  0
 21 19  1  0
 21 22  2  0
 23 21  1  0
 24 23  1  0
 24 25  1  1
 25 26  1  0
 27 24  1  0
 28 27  1  0
 29 27  2  0
M  END
$$$$
