WNC.pdb
     RDKit          3D

 29 30  0  0  1  0  0  0  0  0999 V2000
   26.1124  -18.8733  -16.1733 N   0  0  0  0  0  0  0  0  0  0  0  0
   24.7570  -19.3432  -16.0751 C   0  0  1  0  0  0  0  0  0  0  0  0
   23.9998  -19.2443  -17.3494 C   0  0  0  0  0  0  0  0  0  0  0  0
   23.9234  -17.8959  -17.9331 C   0  0  0  0  0  0  0  0  0  0  0  0
   24.7153  -17.3471  -18.9356 C   0  0  0  0  0  0  0  0  0  0  0  0
   24.2942  -16.0996  -19.1924 N   0  0  0  0  0  0  0  0  0  0  0  0
   23.2506  -15.7920  -18.3987 C   0  0  0  0  0  0  0  0  0  0  0  0
   22.5014  -14.6461  -18.2924 C   0  0  0  0  0  0  0  0  0  0  0  0
   21.4903  -14.6435  -17.3581 C   0  0  0  0  0  0  0  0  0  0  0  0
   21.2225  -15.7246  -16.5568 C   0  0  0  0  0  0  0  0  0  0  0  0
   21.9816  -16.8578  -16.6791 C   0  0  0  0  0  0  0  0  0  0  0  0
   23.0084  -16.9092  -17.6042 C   0  0  0  0  0  0  0  0  0  0  0  0
   24.7558  -20.6862  -15.4712 C   0  0  0  0  0  0  0  0  0  0  0  0
   25.8696  -21.2756  -15.3495 O   0  0  0  0  0  0  0  0  0  0  0  0
   26.0924  -22.2390  -12.4261 N   0  0  0  0  0  0  0  0  0  0  0  0
   25.1959  -21.1590  -12.0673 C   0  0  0  0  0  0  0  0  0  0  0  0
   25.6260  -20.3634  -11.2183 O   0  0  0  0  0  0  0  0  0  0  0  0
   23.8821  -21.0353  -12.6759 C   0  0  0  0  0  0  0  0  0  0  0  0
   23.5787  -22.0471  -13.7248 C   0  0  2  0  0  0  0  0  0  0  0  0
   23.6007  -21.3230  -15.0364 N   0  0  0  0  0  0  0  0  0  0  0  0
   22.2048  -22.6163  -13.6107 C   0  0  0  0  0  0  0  0  0  0  0  0
   22.0915  -23.8653  -13.2647 O   0  0  0  0  0  0  0  0  0  0  0  0
   20.9808  -21.9776  -13.8225 N   0  0  0  0  0  0  0  0  0  0  0  0
   19.9624  -21.8863  -12.7493 C   0  0  1  0  0  0  0  0  0  0  0  0
   20.5621  -21.2185  -11.5300 C   0  0  0  0  0  0  0  0  0  0  0  0
   20.1414  -22.0462   -9.9950 S   0  0  0  0  0  0  0  0  0  0  0  0
   18.9058  -20.9809  -13.2647 C   0  0  0  0  0  0  0  0  0  0  0  0
   17.5524  -21.1289  -12.9798 O   0  0  0  0  0  0  0  0  0  0  0  0
   19.2619  -20.0263  -14.0016 O   0  0  0  0  0  0  0  0  0  0  0  0
  2  1  1  6
  2 13  1  0
  3  4  1  0
  3  2  1  0
  4 12  1  0
  4  5  2  0
  5  6  1  0
  7  8  2  0
  7  6  1  0
  9  8  1  0
 10  9  2  0
 11 10  1  0
 11 12  2  0
 12  7  1  0
 13 20  1  0
 13 14  2  0
 16 15  1  0
 16 17  2  0
 18 16  1  0
 19 18  1  1
 20 19  1  0
 21 19  1  0
 21 22  2  0
 23 21  1  0
 24 23  1  0
 24 25  1  1
 25 26  1  0
 27 24  1  0
 28 27  1  0
 29 27  2  0
M  END
$$$$
