KQF.pdb
     RDKit          3D

 30 30  0  0  1  0  0  0  0  0999 V2000
    6.7205  -17.0104   19.7005 N   0  0  0  0  0  0  0  0  0  0  0  0
    7.8369  -17.9087   19.4253 C   0  0  1  0  0  0  0  0  0  0  0  0
    8.2285  -17.8518   17.9890 C   0  0  0  0  0  0  0  0  0  0  0  0
    7.9508  -16.6207   17.2433 C   0  0  0  0  0  0  0  0  0  0  0  0
    8.2652  -16.4892   15.8153 C   0  0  0  0  0  0  0  0  0  0  0  0
    7.9722  -15.1885   15.1424 C   0  0  0  0  0  0  0  0  0  0  0  0
    8.3984  -15.2091   13.7643 N   0  0  0  0  0  0  0  0  0  0  0  0
    9.0237  -17.3574   20.2216 C   0  0  0  0  0  0  0  0  0  0  0  0
   10.0791  -18.0545   20.1235 O   0  0  0  0  0  0  0  0  0  0  0  0
    8.6983  -12.8304   18.4621 N   0  0  0  0  0  0  0  0  0  0  0  0
    9.9032  -12.9577   19.1951 C   0  0  0  0  0  0  0  0  0  0  0  0
   10.9850  -12.6355   18.6057 O   0  0  0  0  0  0  0  0  0  0  0  0
    9.8902  -13.4391   20.5840 C   0  0  0  0  0  0  0  0  0  0  0  0
   10.7244  -14.6114   20.8721 C   0  0  0  0  0  0  0  0  0  0  0  0
   10.0991  -15.6862   21.6969 C   0  0  2  0  0  0  0  0  0  0  0  0
    8.9074  -16.1894   20.9709 N   0  0  0  0  0  0  0  0  0  0  0  0
    9.7209  -15.4018   23.0661 C   0  0  0  0  0  0  0  0  0  0  0  0
    9.3090  -14.2474   23.3839 O   0  0  0  0  0  0  0  0  0  0  0  0
    9.7886  -16.3702   24.0858 N   0  0  0  0  0  0  0  0  0  0  0  0
    9.2317  -16.0910   25.4115 C   0  0  1  0  0  0  0  0  0  0  0  0
    7.7659  -15.7072   25.1848 C   0  0  0  0  0  0  0  0  0  0  0  0
    7.4522  -14.4413   25.8506 C   0  0  0  0  0  0  0  0  0  0  0  0
    8.4370  -13.8430   26.6316 C   0  0  0  0  0  0  0  0  0  0  0  0
    8.2279  -12.6494   27.2873 C   0  0  0  0  0  0  0  0  0  0  0  0
    7.0155  -11.9980   27.1888 C   0  0  0  0  0  0  0  0  0  0  0  0
    6.0328  -12.5643   26.4279 C   0  0  0  0  0  0  0  0  0  0  0  0
    6.2446  -13.7685   25.7668 C   0  0  0  0  0  0  0  0  0  0  0  0
    9.3590  -17.2945   26.2457 C   0  0  0  0  0  0  0  0  0  0  0  0
    9.7011  -17.2352   27.5953 O   0  0  0  0  0  0  0  0  0  0  0  0
    9.1575  -18.4331   25.7433 O   0  0  0  0  0  0  0  0  0  0  0  0
  2  1  1  6
  2  3  1  0
  4  3  1  0
  5  4  1  0
  6  5  1  0
  7  6  1  0
  8  2  1  0
  9  8  2  0
 10 11  1  0
 11 12  2  0
 11 13  1  0
 13 14  1  0
 15 14  1  6
 15 16  1  0
 16  8  1  0
 17 15  1  0
 17 18  2  0
 19 17  1  0
 20 19  1  0
 20 28  1  0
 20 21  1  6
 22 21  1  0
 22 23  2  0
 24 23  1  0
 25 24  2  0
 26 27  2  0
 26 25  1  0
 27 22  1  0
 28 29  1  0
 30 28  2  0
M  END
$$$$
