KQF.pdb
     RDKit          3D

 30 30  0  0  1  0  0  0  0  0999 V2000
    6.6706  -17.9772   18.0030 N   0  0  0  0  0  0  0  0  0  0  0  0
    7.5472  -17.0840   18.7531 C   0  0  1  0  0  0  0  0  0  0  0  0
    6.9787  -15.7086   18.8211 C   0  0  0  0  0  0  0  0  0  0  0  0
    7.3518  -14.7520   17.7749 C   0  0  0  0  0  0  0  0  0  0  0  0
    8.5765  -13.9468   17.8588 C   0  0  0  0  0  0  0  0  0  0  0  0
    8.7774  -12.8567   16.8580 C   0  0  0  0  0  0  0  0  0  0  0  0
    9.9583  -12.0852   17.1603 N   0  0  0  0  0  0  0  0  0  0  0  0
    7.5618  -17.6198   20.1881 C   0  0  0  0  0  0  0  0  0  0  0  0
    6.4091  -17.7515   20.7012 O   0  0  0  0  0  0  0  0  0  0  0  0
    7.9054  -21.4270   23.6675 N   0  0  0  0  0  0  0  0  0  0  0  0
    8.7327  -20.6032   24.4689 C   0  0  0  0  0  0  0  0  0  0  0  0
    8.4695  -20.5412   25.7131 O   0  0  0  0  0  0  0  0  0  0  0  0
    9.8522  -19.8584   23.8748 C   0  0  0  0  0  0  0  0  0  0  0  0
    9.6725  -19.4137   22.4881 C   0  0  0  0  0  0  0  0  0  0  0  0
    8.7252  -18.2818   22.2700 C   0  0  2  0  0  0  0  0  0  0  0  0
    8.7592  -17.9235   20.8308 N   0  0  0  0  0  0  0  0  0  0  0  0
    8.8728  -17.0712   23.0518 C   0  0  0  0  0  0  0  0  0  0  0  0
    9.8274  -16.2742   22.8133 O   0  0  0  0  0  0  0  0  0  0  0  0
    7.9839  -16.7275   24.0881 N   0  0  0  0  0  0  0  0  0  0  0  0
    8.2154  -15.5278   24.8960 C   0  0  1  0  0  0  0  0  0  0  0  0
    6.9138  -14.7213   24.8425 C   0  0  0  0  0  0  0  0  0  0  0  0
    6.9629  -13.5947   25.7765 C   0  0  0  0  0  0  0  0  0  0  0  0
    8.0141  -12.6889   25.6655 C   0  0  0  0  0  0  0  0  0  0  0  0
    8.1329  -11.5982   26.4990 C   0  0  0  0  0  0  0  0  0  0  0  0
    7.1980  -11.3649   27.4866 C   0  0  0  0  0  0  0  0  0  0  0  0
    6.1565  -12.2390   27.6158 C   0  0  0  0  0  0  0  0  0  0  0  0
    6.0373  -13.3390   26.7745 C   0  0  0  0  0  0  0  0  0  0  0  0
    8.5509  -15.9340   26.2682 C   0  0  0  0  0  0  0  0  0  0  0  0
    9.3923  -15.1815   27.0855 O   0  0  0  0  0  0  0  0  0  0  0  0
    8.0730  -16.9990   26.7442 O   0  0  0  0  0  0  0  0  0  0  0  0
  2  1  1  6
  2  3  1  0
  4  3  1  0
  5  4  1  0
  6  5  1  0
  7  6  1  0
  8  2  1  0
  9  8  2  0
 10 11  1  0
 11 12  2  0
 11 13  1  0
 13 14  1  0
 15 14  1  6
 15 16  1  0
 16  8  1  0
 17 15  1  0
 17 18  2  0
 19 17  1  0
 20 19  1  0
 20 28  1  0
 20 21  1  1
 22 21  1  0
 22 23  2  0
 24 23  1  0
 25 24  2  0
 26 27  2  0
 26 25  1  0
 27 22  1  0
 28 29  1  0
 30 28  2  0
M  END
$$$$
