KQF.pdb
     RDKit          3D

 30 30  0  0  1  0  0  0  0  0999 V2000
    5.7853  -19.8058   22.3392 N   0  0  0  0  0  0  0  0  0  0  0  0
    5.7101  -18.4682   22.9172 C   0  0  1  0  0  0  0  0  0  0  0  0
    5.9366  -18.5075   24.3891 C   0  0  0  0  0  0  0  0  0  0  0  0
    6.9234  -19.4563   24.9133 C   0  0  0  0  0  0  0  0  0  0  0  0
    7.2093  -19.5666   26.3491 C   0  0  0  0  0  0  0  0  0  0  0  0
    8.2615  -20.5305   26.7897 C   0  0  0  0  0  0  0  0  0  0  0  0
    8.9419  -20.0534   27.9690 N   0  0  0  0  0  0  0  0  0  0  0  0
    6.8830  -17.6865   22.3175 C   0  0  0  0  0  0  0  0  0  0  0  0
    7.8760  -18.4094   22.0001 O   0  0  0  0  0  0  0  0  0  0  0  0
    7.2838  -12.2029   18.1474 N   0  0  0  0  0  0  0  0  0  0  0  0
    7.8286  -13.4612   18.5009 C   0  0  0  0  0  0  0  0  0  0  0  0
    7.8851  -14.3519   17.5927 O   0  0  0  0  0  0  0  0  0  0  0  0
    8.3116  -13.7138   19.8661 C   0  0  0  0  0  0  0  0  0  0  0  0
    7.3903  -14.4259   20.7590 C   0  0  0  0  0  0  0  0  0  0  0  0
    7.9414  -15.6147   21.4727 C   0  0  2  0  0  0  0  0  0  0  0  0
    6.8183  -16.3053   22.1526 N   0  0  0  0  0  0  0  0  0  0  0  0
    9.0187  -15.4357   22.4245 C   0  0  0  0  0  0  0  0  0  0  0  0
   10.2080  -15.2870   22.0161 O   0  0  0  0  0  0  0  0  0  0  0  0
    8.8029  -15.4163   23.8156 N   0  0  0  0  0  0  0  0  0  0  0  0
    9.9332  -15.2958   24.7396 C   0  0  1  0  0  0  0  0  0  0  0  0
    9.9117  -13.8520   25.2516 C   0  0  0  0  0  0  0  0  0  0  0  0
    8.5849  -13.5027   25.7630 C   0  0  0  0  0  0  0  0  0  0  0  0
    8.4448  -13.2582   27.1263 C   0  0  0  0  0  0  0  0  0  0  0  0
    7.2342  -12.9177   27.6893 C   0  0  0  0  0  0  0  0  0  0  0  0
    6.1033  -12.8061   26.9068 C   0  0  0  0  0  0  0  0  0  0  0  0
    6.2145  -13.0405   25.5658 C   0  0  0  0  0  0  0  0  0  0  0  0
    7.4361  -13.3839   24.9986 C   0  0  0  0  0  0  0  0  0  0  0  0
    9.7630  -16.2656   25.8309 C   0  0  0  0  0  0  0  0  0  0  0  0
   10.7211  -16.4455   26.8267 O   0  0  0  0  0  0  0  0  0  0  0  0
    8.7208  -16.9728   25.8879 O   0  0  0  0  0  0  0  0  0  0  0  0
  2  1  1  6
  2  3  1  0
  4  3  1  0
  5  4  1  0
  6  5  1  0
  7  6  1  0
  8  2  1  0
  9  8  2  0
 10 11  1  0
 11 12  2  0
 11 13  1  0
 13 14  1  0
 15 14  1  1
 15 16  1  0
 16  8  1  0
 17 15  1  0
 17 18  2  0
 19 17  1  0
 20 19  1  0
 20 28  1  0
 20 21  1  1
 22 21  1  0
 22 23  2  0
 24 23  1  0
 25 24  2  0
 26 27  2  0
 26 25  1  0
 27 22  1  0
 28 29  1  0
 30 28  2  0
M  END
$$$$
