KQF.pdb
     RDKit          3D

 30 30  0  0  1  0  0  0  0  0999 V2000
    5.7931  -18.9515   19.8916 N   0  0  0  0  0  0  0  0  0  0  0  0
    5.5739  -17.8814   20.8589 C   0  0  1  0  0  0  0  0  0  0  0  0
    4.9317  -18.4029   22.0979 C   0  0  0  0  0  0  0  0  0  0  0  0
    3.7465  -19.2542   21.9585 C   0  0  0  0  0  0  0  0  0  0  0  0
    2.4928  -18.9630   22.6647 C   0  0  0  0  0  0  0  0  0  0  0  0
    1.3513  -19.9121   22.5021 C   0  0  0  0  0  0  0  0  0  0  0  0
    0.2042  -19.4800   23.2627 N   0  0  0  0  0  0  0  0  0  0  0  0
    6.9676  -17.3920   21.2646 C   0  0  0  0  0  0  0  0  0  0  0  0
    7.8109  -18.3236   21.4387 O   0  0  0  0  0  0  0  0  0  0  0  0
    8.4008  -11.8611   19.1063 N   0  0  0  0  0  0  0  0  0  0  0  0
    8.3254  -13.2048   18.6658 C   0  0  0  0  0  0  0  0  0  0  0  0
    8.5526  -13.4316   17.4336 O   0  0  0  0  0  0  0  0  0  0  0  0
    8.0017  -14.2867   19.6068 C   0  0  0  0  0  0  0  0  0  0  0  0
    8.9515  -14.4971   20.7053 C   0  0  0  0  0  0  0  0  0  0  0  0
    8.6394  -15.6082   21.6509 C   0  0  2  0  0  0  0  0  0  0  0  0
    7.2383  -16.0343   21.4147 N   0  0  0  0  0  0  0  0  0  0  0  0
    8.8278  -15.4051   23.0728 C   0  0  0  0  0  0  0  0  0  0  0  0
    9.7328  -14.6226   23.4876 O   0  0  0  0  0  0  0  0  0  0  0  0
    8.0333  -16.0491   24.0403 N   0  0  0  0  0  0  0  0  0  0  0  0
    8.6124  -16.4592   25.3218 C   0  0  1  0  0  0  0  0  0  0  0  0
    8.9508  -15.1653   26.0690 C   0  0  0  0  0  0  0  0  0  0  0  0
    7.7578  -14.3314   26.2290 C   0  0  0  0  0  0  0  0  0  0  0  0
    7.8534  -13.1831   27.0101 C   0  0  0  0  0  0  0  0  0  0  0  0
    6.7820  -12.3397   27.2077 C   0  0  0  0  0  0  0  0  0  0  0  0
    5.5596  -12.6108   26.6278 C   0  0  0  0  0  0  0  0  0  0  0  0
    5.4400  -13.7315   25.8563 C   0  0  0  0  0  0  0  0  0  0  0  0
    6.5214  -14.5817   25.6574 C   0  0  0  0  0  0  0  0  0  0  0  0
    7.6285  -17.2711   26.0521 C   0  0  0  0  0  0  0  0  0  0  0  0
    7.8662  -17.7562   27.3367 O   0  0  0  0  0  0  0  0  0  0  0  0
    6.5226  -17.5528   25.5163 O   0  0  0  0  0  0  0  0  0  0  0  0
  2  1  1  6
  2  3  1  0
  4  3  1  0
  5  4  1  0
  6  5  1  0
  7  6  1  0
  8  2  1  0
  9  8  2  0
 10 11  1  0
 11 12  2  0
 11 13  1  0
 13 14  1  0
 15 14  1  6
 15 16  1  0
 16  8  1  0
 17 15  1  0
 17 18  2  0
 19 17  1  0
 20 19  1  0
 20 28  1  0
 20 21  1  1
 22 21  1  0
 22 23  2  0
 24 23  1  0
 25 24  2  0
 26 27  2  0
 26 25  1  0
 27 22  1  0
 28 29  1  0
 30 28  2  0
M  END
$$$$
