KQF.pdb
     RDKit          3D

 30 30  0  0  1  0  0  0  0  0999 V2000
    5.9110  -16.4727   21.0607 N   0  0  0  0  0  0  0  0  0  0  0  0
    7.2584  -15.9460   21.2506 C   0  0  1  0  0  0  0  0  0  0  0  0
    7.2384  -14.4631   21.3933 C   0  0  0  0  0  0  0  0  0  0  0  0
    7.1850  -13.6503   20.1747 C   0  0  0  0  0  0  0  0  0  0  0  0
    8.3834  -13.3697   19.3744 C   0  0  0  0  0  0  0  0  0  0  0  0
    8.2333  -12.5417   18.1406 C   0  0  0  0  0  0  0  0  0  0  0  0
    9.4994  -12.3756   17.4694 N   0  0  0  0  0  0  0  0  0  0  0  0
    7.7412  -16.5055   22.5923 C   0  0  0  0  0  0  0  0  0  0  0  0
    6.8284  -16.6064   23.4675 O   0  0  0  0  0  0  0  0  0  0  0  0
   12.1740  -20.8064   22.9704 N   0  0  0  0  0  0  0  0  0  0  0  0
   11.8320  -20.6019   24.3293 C   0  0  0  0  0  0  0  0  0  0  0  0
   12.3701  -21.3692   25.1913 O   0  0  0  0  0  0  0  0  0  0  0  0
   10.8948  -19.5375   24.7160 C   0  0  0  0  0  0  0  0  0  0  0  0
   10.3526  -18.7218   23.6234 C   0  0  0  0  0  0  0  0  0  0  0  0
    9.4411  -17.6072   24.0145 C   0  0  2  0  0  0  0  0  0  0  0  0
    9.0737  -16.8602   22.7866 N   0  0  0  0  0  0  0  0  0  0  0  0
    9.8701  -16.6589   25.0221 C   0  0  0  0  0  0  0  0  0  0  0  0
   10.9289  -15.9860   24.8503 O   0  0  0  0  0  0  0  0  0  0  0  0
    9.1489  -16.4417   26.2116 N   0  0  0  0  0  0  0  0  0  0  0  0
    9.7258  -15.6385   27.2922 C   0  0  1  0  0  0  0  0  0  0  0  0
    8.5605  -14.8618   27.9134 C   0  0  0  0  0  0  0  0  0  0  0  0
    8.2140  -13.7009   27.0911 C   0  0  0  0  0  0  0  0  0  0  0  0
    6.8866  -13.2823   27.0638 C   0  0  0  0  0  0  0  0  0  0  0  0
    6.4756  -12.1963   26.3221 C   0  0  0  0  0  0  0  0  0  0  0  0
    7.3818  -11.4768   25.5703 C   0  0  0  0  0  0  0  0  0  0  0  0
    8.6906  -11.8671   25.5807 C   0  0  0  0  0  0  0  0  0  0  0  0
    9.1044  -12.9627   26.3292 C   0  0  0  0  0  0  0  0  0  0  0  0
   10.3650  -16.5361   28.2650 C   0  0  0  0  0  0  0  0  0  0  0  0
   11.1796  -16.0654   29.2930 O   0  0  0  0  0  0  0  0  0  0  0  0
   10.1852  -17.7814   28.1854 O   0  0  0  0  0  0  0  0  0  0  0  0
  2  1  1  1
  2  3  1  0
  4  3  1  0
  5  4  1  0
  6  5  1  0
  7  6  1  0
  8  2  1  0
  9  8  2  0
 10 11  1  0
 11 12  2  0
 11 13  1  0
 13 14  1  0
 15 14  1  6
 15 16  1  0
 16  8  1  0
 17 15  1  0
 17 18  2  0
 19 17  1  0
 20 19  1  0
 20 28  1  0
 20 21  1  1
 22 21  1  0
 22 23  2  0
 24 23  1  0
 25 24  2  0
 26 27  2  0
 26 25  1  0
 27 22  1  0
 28 29  1  0
 30 28  2  0
M  END
$$$$
