KQF.pdb
     RDKit          3D

 30 30  0  0  1  0  0  0  0  0999 V2000
    6.9715  -18.4916   20.9115 N   0  0  0  0  0  0  0  0  0  0  0  0
    8.2874  -18.8539   20.3955 C   0  0  1  0  0  0  0  0  0  0  0  0
    8.3196  -18.7750   18.9082 C   0  0  0  0  0  0  0  0  0  0  0  0
    7.1615  -19.2762   18.1624 C   0  0  0  0  0  0  0  0  0  0  0  0
    7.2943  -20.2927   17.1114 C   0  0  0  0  0  0  0  0  0  0  0  0
    6.0659  -20.7131   16.3734 C   0  0  0  0  0  0  0  0  0  0  0  0
    6.3878  -21.6359   15.3123 N   0  0  0  0  0  0  0  0  0  0  0  0
    9.2491  -17.7777   20.9089 C   0  0  0  0  0  0  0  0  0  0  0  0
   10.4565  -17.9581   20.5642 O   0  0  0  0  0  0  0  0  0  0  0  0
    6.5816  -12.6582   19.9612 N   0  0  0  0  0  0  0  0  0  0  0  0
    7.8876  -13.1874   20.1017 C   0  0  0  0  0  0  0  0  0  0  0  0
    8.6774  -13.0704   19.1098 O   0  0  0  0  0  0  0  0  0  0  0  0
    8.3036  -13.8390   21.3519 C   0  0  0  0  0  0  0  0  0  0  0  0
    9.6244  -14.4781   21.3422 C   0  0  0  0  0  0  0  0  0  0  0  0
    9.7724  -15.7120   22.1679 C   0  0  2  0  0  0  0  0  0  0  0  0
    8.7917  -16.7127   21.6808 N   0  0  0  0  0  0  0  0  0  0  0  0
    9.6621  -15.6197   23.6094 C   0  0  0  0  0  0  0  0  0  0  0  0
   10.4343  -14.8532   24.2571 O   0  0  0  0  0  0  0  0  0  0  0  0
    8.7137  -16.3569   24.3438 N   0  0  0  0  0  0  0  0  0  0  0  0
    8.7430  -16.3517   25.8083 C   0  0  1  0  0  0  0  0  0  0  0  0
    7.3055  -16.0774   26.2614 C   0  0  0  0  0  0  0  0  0  0  0  0
    7.0397  -14.6380   26.3010 C   0  0  0  0  0  0  0  0  0  0  0  0
    7.9893  -13.8060   26.8874 C   0  0  0  0  0  0  0  0  0  0  0  0
    7.8219  -12.4404   26.9610 C   0  0  0  0  0  0  0  0  0  0  0  0
    6.6887  -11.8439   26.4471 C   0  0  0  0  0  0  0  0  0  0  0  0
    5.7420  -12.6385   25.8660 C   0  0  0  0  0  0  0  0  0  0  0  0
    5.9117  -14.0161   25.7921 C   0  0  0  0  0  0  0  0  0  0  0  0
    9.2255  -17.6574   26.2806 C   0  0  0  0  0  0  0  0  0  0  0  0
    9.4990  -17.9117   27.6231 O   0  0  0  0  0  0  0  0  0  0  0  0
    9.4073  -18.5962   25.4590 O   0  0  0  0  0  0  0  0  0  0  0  0
  2  1  1  1
  2  3  1  0
  4  3  1  0
  5  4  1  0
  6  5  1  0
  7  6  1  0
  8  2  1  0
  9  8  2  0
 10 11  1  0
 11 12  2  0
 11 13  1  0
 13 14  1  0
 15 14  1  6
 15 16  1  0
 16  8  1  0
 17 15  1  0
 17 18  2  0
 19 17  1  0
 20 19  1  0
 20 28  1  0
 20 21  1  1
 22 21  1  0
 22 23  2  0
 24 23  1  0
 25 24  2  0
 26 27  2  0
 26 25  1  0
 27 22  1  0
 28 29  1  0
 30 28  2  0
M  END
$$$$
