KQF.pdb
     RDKit          3D

 30 30  0  0  1  0  0  0  0  0999 V2000
    6.9944  -18.0961   18.7028 N   0  0  0  0  0  0  0  0  0  0  0  0
    8.2313  -17.3643   18.9551 C   0  0  1  0  0  0  0  0  0  0  0  0
    8.0464  -15.9043   18.7228 C   0  0  0  0  0  0  0  0  0  0  0  0
    7.8727  -15.4386   17.3438 C   0  0  0  0  0  0  0  0  0  0  0  0
    8.6516  -14.3207   16.7970 C   0  0  0  0  0  0  0  0  0  0  0  0
    8.3156  -13.8258   15.4286 C   0  0  0  0  0  0  0  0  0  0  0  0
    9.1028  -12.6659   15.0879 N   0  0  0  0  0  0  0  0  0  0  0  0
    8.5201  -17.5335   20.4499 C   0  0  0  0  0  0  0  0  0  0  0  0
    7.4799  -17.5742   21.1749 O   0  0  0  0  0  0  0  0  0  0  0  0
   13.8586  -19.8391   22.9507 N   0  0  0  0  0  0  0  0  0  0  0  0
   13.0164  -19.6179   24.0673 C   0  0  0  0  0  0  0  0  0  0  0  0
   13.4506  -19.9760   25.2095 O   0  0  0  0  0  0  0  0  0  0  0  0
   11.6964  -18.9928   23.9004 C   0  0  0  0  0  0  0  0  0  0  0  0
   11.3268  -18.6126   22.5322 C   0  0  0  0  0  0  0  0  0  0  0  0
   10.0427  -17.8700   22.3721 C   0  0  2  0  0  0  0  0  0  0  0  0
    9.8258  -17.6318   20.9240 N   0  0  0  0  0  0  0  0  0  0  0  0
    9.8513  -16.6208   23.0802 C   0  0  0  0  0  0  0  0  0  0  0  0
   10.4681  -15.5795   22.7081 O   0  0  0  0  0  0  0  0  0  0  0  0
    8.9903  -16.5041   24.1881 N   0  0  0  0  0  0  0  0  0  0  0  0
    8.7986  -15.2089   24.8449 C   0  0  1  0  0  0  0  0  0  0  0  0
    7.2965  -14.9154   24.7760 C   0  0  0  0  0  0  0  0  0  0  0  0
    6.9538  -13.7648   25.6143 C   0  0  0  0  0  0  0  0  0  0  0  0
    7.2535  -12.4900   25.1423 C   0  0  0  0  0  0  0  0  0  0  0  0
    6.9597  -11.3534   25.8637 C   0  0  0  0  0  0  0  0  0  0  0  0
    6.3486  -11.4441   27.0975 C   0  0  0  0  0  0  0  0  0  0  0  0
    6.0437  -12.6839   27.5827 C   0  0  0  0  0  0  0  0  0  0  0  0
    6.3404  -13.8299   26.8543 C   0  0  0  0  0  0  0  0  0  0  0  0
    9.2745  -15.3023   26.2324 C   0  0  0  0  0  0  0  0  0  0  0  0
    9.4466  -16.5228   26.8826 O   0  0  0  0  0  0  0  0  0  0  0  0
    9.5417  -14.2532   26.8784 O   0  0  0  0  0  0  0  0  0  0  0  0
  2  1  1  1
  2  3  1  0
  4  3  1  0
  5  4  1  0
  6  5  1  0
  7  6  1  0
  8  2  1  0
  9  8  2  0
 10 11  1  0
 11 12  2  0
 11 13  1  0
 13 14  1  0
 15 14  1  6
 15 16  1  0
 16  8  1  0
 17 15  1  0
 17 18  2  0
 19 17  1  0
 20 19  1  0
 20 28  1  0
 20 21  1  1
 22 21  1  0
 22 23  2  0
 24 23  1  0
 25 24  2  0
 26 27  2  0
 26 25  1  0
 27 22  1  0
 28 29  1  0
 30 28  2  0
M  END
$$$$
