KQF.pdb
     RDKit          3D

 30 30  0  0  1  0  0  0  0  0999 V2000
    6.5555  -17.7194   21.6195 N   0  0  0  0  0  0  0  0  0  0  0  0
    7.5154  -16.6307   21.4703 C   0  0  1  0  0  0  0  0  0  0  0  0
    6.8439  -15.3056   21.5832 C   0  0  0  0  0  0  0  0  0  0  0  0
    6.5291  -14.5809   20.3485 C   0  0  0  0  0  0  0  0  0  0  0  0
    7.5412  -13.8015   19.6251 C   0  0  0  0  0  0  0  0  0  0  0  0
    7.0914  -12.9245   18.5031 C   0  0  0  0  0  0  0  0  0  0  0  0
    8.2053  -12.2218   17.9144 N   0  0  0  0  0  0  0  0  0  0  0  0
    8.4632  -16.7413   22.6687 C   0  0  0  0  0  0  0  0  0  0  0  0
    8.2616  -17.7630   23.3931 O   0  0  0  0  0  0  0  0  0  0  0  0
   15.3665  -14.4891   23.1686 N   0  0  0  0  0  0  0  0  0  0  0  0
   14.2503  -14.9507   22.4295 C   0  0  0  0  0  0  0  0  0  0  0  0
   14.1902  -14.6324   21.1981 O   0  0  0  0  0  0  0  0  0  0  0  0
   13.2114  -15.7695   23.0706 C   0  0  0  0  0  0  0  0  0  0  0  0
   11.8244  -15.4622   22.7034 C   0  0  0  0  0  0  0  0  0  0  0  0
   10.7615  -16.2206   23.4254 C   0  0  2  0  0  0  0  0  0  0  0  0
    9.4452  -15.7816   22.9006 N   0  0  0  0  0  0  0  0  0  0  0  0
   10.7191  -16.1808   24.8729 C   0  0  0  0  0  0  0  0  0  0  0  0
   11.7369  -16.5168   25.5470 O   0  0  0  0  0  0  0  0  0  0  0  0
    9.5742  -15.7750   25.5848 N   0  0  0  0  0  0  0  0  0  0  0  0
    9.5839  -15.7445   27.0493 C   0  0  1  0  0  0  0  0  0  0  0  0
    8.2090  -15.2176   27.4727 C   0  0  0  0  0  0  0  0  0  0  0  0
    8.0109  -13.8460   27.0000 C   0  0  0  0  0  0  0  0  0  0  0  0
    6.7533  -13.4854   26.5246 C   0  0  0  0  0  0  0  0  0  0  0  0
    6.4791  -12.2149   26.0672 C   0  0  0  0  0  0  0  0  0  0  0  0
    7.4588  -11.2432   26.0659 C   0  0  0  0  0  0  0  0  0  0  0  0
    8.7014  -11.5718   26.5280 C   0  0  0  0  0  0  0  0  0  0  0  0
    8.9771  -12.8537   26.9893 C   0  0  0  0  0  0  0  0  0  0  0  0
    9.8277  -17.1035   27.5533 C   0  0  0  0  0  0  0  0  0  0  0  0
    9.8622  -18.2162   26.7150 O   0  0  0  0  0  0  0  0  0  0  0  0
   10.0138  -17.2941   28.7856 O   0  0  0  0  0  0  0  0  0  0  0  0
  2  1  1  1
  2  3  1  0
  4  3  1  0
  5  4  1  0
  6  5  1  0
  7  6  1  0
  8  2  1  0
  9  8  2  0
 10 11  1  0
 11 12  2  0
 11 13  1  0
 13 14  1  0
 15 14  1  6
 15 16  1  0
 16  8  1  0
 17 15  1  0
 17 18  2  0
 19 17  1  0
 20 19  1  0
 20 28  1  0
 20 21  1  1
 22 21  1  0
 22 23  2  0
 24 23  1  0
 25 24  2  0
 26 27  2  0
 26 25  1  0
 27 22  1  0
 28 29  1  0
 30 28  2  0
M  END
$$$$
