KQF.pdb
     RDKit          3D

 30 30  0  0  1  0  0  0  0  0999 V2000
    8.0464  -18.2374   19.6226 N   0  0  0  0  0  0  0  0  0  0  0  0
    9.1353  -17.3169   19.9323 C   0  0  1  0  0  0  0  0  0  0  0  0
    8.7293  -15.9049   19.6855 C   0  0  0  0  0  0  0  0  0  0  0  0
    8.4531  -15.4944   18.3057 C   0  0  0  0  0  0  0  0  0  0  0  0
    8.0407  -14.1260   17.9696 C   0  0  0  0  0  0  0  0  0  0  0  0
    7.7984  -13.7916   16.5344 C   0  0  0  0  0  0  0  0  0  0  0  0
    7.3865  -12.4173   16.3837 N   0  0  0  0  0  0  0  0  0  0  0  0
    9.3742  -17.4433   21.4401 C   0  0  0  0  0  0  0  0  0  0  0  0
    8.3498  -17.1977   22.1470 O   0  0  0  0  0  0  0  0  0  0  0  0
   13.7504  -14.4476   18.6078 N   0  0  0  0  0  0  0  0  0  0  0  0
   13.9110  -15.0297   19.8886 C   0  0  0  0  0  0  0  0  0  0  0  0
   15.0119  -15.6226   20.1294 O   0  0  0  0  0  0  0  0  0  0  0  0
   12.8420  -14.9407   20.8936 C   0  0  0  0  0  0  0  0  0  0  0  0
   11.8489  -16.0208   20.8821 C   0  0  0  0  0  0  0  0  0  0  0  0
   11.6307  -16.7376   22.1724 C   0  0  2  0  0  0  0  0  0  0  0  0
   10.6222  -17.8012   21.9436 N   0  0  0  0  0  0  0  0  0  0  0  0
   11.2487  -15.9830   23.3485 C   0  0  0  0  0  0  0  0  0  0  0  0
   12.0227  -15.0941   23.8112 O   0  0  0  0  0  0  0  0  0  0  0  0
   10.0280  -16.1931   24.0180 N   0  0  0  0  0  0  0  0  0  0  0  0
    9.5900  -15.2704   25.0680 C   0  0  1  0  0  0  0  0  0  0  0  0
    8.3469  -14.5621   24.5201 C   0  0  0  0  0  0  0  0  0  0  0  0
    7.7754  -13.6649   25.5262 C   0  0  0  0  0  0  0  0  0  0  0  0
    6.4607  -13.8775   25.9317 C   0  0  0  0  0  0  0  0  0  0  0  0
    5.8479  -13.0847   26.8773 C   0  0  0  0  0  0  0  0  0  0  0  0
    6.5292  -12.0371   27.4625 C   0  0  0  0  0  0  0  0  0  0  0  0
    7.8207  -11.8078   27.0821 C   0  0  0  0  0  0  0  0  0  0  0  0
    8.4382  -12.6082   26.1281 C   0  0  0  0  0  0  0  0  0  0  0  0
    9.2898  -16.0394   26.2842 C   0  0  0  0  0  0  0  0  0  0  0  0
    9.4950  -15.5250   27.5629 O   0  0  0  0  0  0  0  0  0  0  0  0
    8.8303  -17.2097   26.1917 O   0  0  0  0  0  0  0  0  0  0  0  0
  2  1  1  1
  2  3  1  0
  4  3  1  0
  5  4  1  0
  6  5  1  0
  7  6  1  0
  8  2  1  0
  9  8  2  0
 10 11  1  0
 11 12  2  0
 11 13  1  0
 13 14  1  0
 15 14  1  6
 15 16  1  0
 16  8  1  0
 17 15  1  0
 17 18  2  0
 19 17  1  0
 20 19  1  0
 20 28  1  0
 20 21  1  6
 22 21  1  0
 22 23  2  0
 24 23  1  0
 25 24  2  0
 26 27  2  0
 26 25  1  0
 27 22  1  0
 28 29  1  0
 30 28  2  0
M  END
$$$$
