KQF.pdb
     RDKit          3D

 30 30  0  0  1  0  0  0  0  0999 V2000
    7.3436  -19.5912   20.6855 N   0  0  0  0  0  0  0  0  0  0  0  0
    6.9340  -18.6629   21.7340 C   0  0  1  0  0  0  0  0  0  0  0  0
    6.8884  -19.3397   23.0605 C   0  0  0  0  0  0  0  0  0  0  0  0
    6.1003  -20.5694   23.1842 C   0  0  0  0  0  0  0  0  0  0  0  0
    5.9176  -21.2492   24.4726 C   0  0  0  0  0  0  0  0  0  0  0  0
    5.1464  -22.5279   24.4957 C   0  0  0  0  0  0  0  0  0  0  0  0
    4.6074  -22.8329   23.1928 N   0  0  0  0  0  0  0  0  0  0  0  0
    8.0453  -17.6121   21.8201 C   0  0  0  0  0  0  0  0  0  0  0  0
    9.2142  -18.1013   21.8803 O   0  0  0  0  0  0  0  0  0  0  0  0
    6.6730  -12.4542   19.1508 N   0  0  0  0  0  0  0  0  0  0  0  0
    7.8711  -13.2003   19.0371 C   0  0  0  0  0  0  0  0  0  0  0  0
    8.7252  -12.8105   18.1768 O   0  0  0  0  0  0  0  0  0  0  0  0
    8.1089  -14.3740   19.8895 C   0  0  0  0  0  0  0  0  0  0  0  0
    8.6652  -14.1071   21.2208 C   0  0  0  0  0  0  0  0  0  0  0  0
    8.8387  -15.2866   22.1180 C   0  0  2  0  0  0  0  0  0  0  0  0
    7.7501  -16.2512   21.8264 N   0  0  0  0  0  0  0  0  0  0  0  0
    8.9070  -15.0853   23.5509 C   0  0  0  0  0  0  0  0  0  0  0  0
    8.6924  -13.9378   24.0415 O   0  0  0  0  0  0  0  0  0  0  0  0
    9.2057  -16.1289   24.4476 N   0  0  0  0  0  0  0  0  0  0  0  0
    9.0693  -15.9271   25.8920 C   0  0  1  0  0  0  0  0  0  0  0  0
    7.5772  -15.6945   26.1499 C   0  0  0  0  0  0  0  0  0  0  0  0
    7.2997  -14.2694   26.3407 C   0  0  0  0  0  0  0  0  0  0  0  0
    6.0899  -13.7630   25.8741 C   0  0  0  0  0  0  0  0  0  0  0  0
    5.7463  -12.4365   26.0178 C   0  0  0  0  0  0  0  0  0  0  0  0
    6.6048  -11.5529   26.6394 C   0  0  0  0  0  0  0  0  0  0  0  0
    7.7981  -12.0253   27.1066 C   0  0  0  0  0  0  0  0  0  0  0  0
    8.1439  -13.3637   26.9612 C   0  0  0  0  0  0  0  0  0  0  0  0
    9.5651  -17.1221   26.5897 C   0  0  0  0  0  0  0  0  0  0  0  0
    9.8394  -17.1295   27.9559 O   0  0  0  0  0  0  0  0  0  0  0  0
    9.7580  -18.1906   25.9489 O   0  0  0  0  0  0  0  0  0  0  0  0
  2  1  1  6
  2  3  1  0
  4  3  1  0
  5  4  1  0
  6  5  1  0
  7  6  1  0
  8  2  1  0
  9  8  2  0
 10 11  1  0
 11 12  2  0
 11 13  1  0
 13 14  1  0
 15 14  1  6
 15 16  1  0
 16  8  1  0
 17 15  1  0
 17 18  2  0
 19 17  1  0
 20 19  1  0
 20 28  1  0
 20 21  1  6
 22 21  1  0
 22 23  2  0
 24 23  1  0
 25 24  2  0
 26 27  2  0
 26 25  1  0
 27 22  1  0
 28 29  1  0
 30 28  2  0
M  END
$$$$
