KQF.pdb
     RDKit          3D

 30 30  0  0  1  0  0  0  0  0999 V2000
    6.2290  -19.7766   20.3223 N   0  0  0  0  0  0  0  0  0  0  0  0
    6.0778  -18.3419   20.5408 C   0  0  1  0  0  0  0  0  0  0  0  0
    5.0436  -18.0642   21.5766 C   0  0  0  0  0  0  0  0  0  0  0  0
    3.7529  -18.7505   21.4686 C   0  0  0  0  0  0  0  0  0  0  0  0
    2.9225  -18.6593   20.2614 C   0  0  0  0  0  0  0  0  0  0  0  0
    1.5818  -19.3170   20.2724 C   0  0  0  0  0  0  0  0  0  0  0  0
    0.7288  -18.7408   21.2831 N   0  0  0  0  0  0  0  0  0  0  0  0
    7.4128  -17.8638   21.1203 C   0  0  0  0  0  0  0  0  0  0  0  0
    7.9588  -18.6930   21.9099 O   0  0  0  0  0  0  0  0  0  0  0  0
   13.2045  -14.8846   19.1614 N   0  0  0  0  0  0  0  0  0  0  0  0
   12.1041  -14.2467   19.7838 C   0  0  0  0  0  0  0  0  0  0  0  0
   11.8289  -13.0595   19.4147 O   0  0  0  0  0  0  0  0  0  0  0  0
   11.3153  -14.9421   20.8109 C   0  0  0  0  0  0  0  0  0  0  0  0
    9.9731  -15.3808   20.4118 C   0  0  0  0  0  0  0  0  0  0  0  0
    9.2144  -16.1914   21.4085 C   0  0  2  0  0  0  0  0  0  0  0  0
    7.9417  -16.6216   20.7794 N   0  0  0  0  0  0  0  0  0  0  0  0
    8.9195  -15.6245   22.7086 C   0  0  0  0  0  0  0  0  0  0  0  0
    8.1733  -14.6058   22.8022 O   0  0  0  0  0  0  0  0  0  0  0  0
    9.4328  -16.1649   23.9030 N   0  0  0  0  0  0  0  0  0  0  0  0
    9.1317  -15.5356   25.1911 C   0  0  1  0  0  0  0  0  0  0  0  0
    7.6071  -15.5735   25.3368 C   0  0  0  0  0  0  0  0  0  0  0  0
    7.0843  -14.2461   25.6667 C   0  0  0  0  0  0  0  0  0  0  0  0
    6.1139  -14.1455   26.6596 C   0  0  0  0  0  0  0  0  0  0  0  0
    5.5732  -12.9355   27.0362 C   0  0  0  0  0  0  0  0  0  0  0  0
    5.9833  -11.7651   26.4311 C   0  0  0  0  0  0  0  0  0  0  0  0
    6.9350  -11.8370   25.4541 C   0  0  0  0  0  0  0  0  0  0  0  0
    7.4800  -13.0581   25.0748 C   0  0  0  0  0  0  0  0  0  0  0  0
    9.8021  -16.2905   26.2593 C   0  0  0  0  0  0  0  0  0  0  0  0
   10.5859  -17.4135   26.0017 O   0  0  0  0  0  0  0  0  0  0  0  0
    9.6766  -15.9283   27.4604 O   0  0  0  0  0  0  0  0  0  0  0  0
  2  1  1  1
  2  3  1  0
  4  3  1  0
  5  4  1  0
  6  5  1  0
  7  6  1  0
  8  2  1  0
  9  8  2  0
 10 11  1  0
 11 12  2  0
 11 13  1  0
 13 14  1  0
 15 14  1  6
 15 16  1  0
 16  8  1  0
 17 15  1  0
 17 18  2  0
 19 17  1  0
 20 19  1  0
 20 28  1  0
 20 21  1  1
 22 21  1  0
 22 23  2  0
 24 23  1  0
 25 24  2  0
 26 27  2  0
 26 25  1  0
 27 22  1  0
 28 29  1  0
 30 28  2  0
M  END
$$$$
