IWR.pdb
     RDKit          3D

 34 35  0  0  1  0  0  0  0  0999 V2000
    7.0967  -11.9516   18.8175 C   0  0  0  0  0  0  0  0  0  0  0  0
    7.4177  -13.3626   19.1983 C   0  0  0  0  0  0  0  0  0  0  0  0
    8.0474  -13.5270   20.5485 C   0  0  2  0  0  0  0  0  0  0  0  0
    9.3208  -12.6876   20.5739 C   0  0  0  0  0  0  0  0  0  0  0  0
    8.3871  -14.9161   20.9417 C   0  0  2  0  0  0  0  0  0  0  0  0
    7.3225  -15.8499   20.9412 N   0  0  0  0  0  0  0  0  0  0  0  0
    9.1824  -15.0371   22.1830 C   0  0  0  0  0  0  0  0  0  0  0  0
   10.2169  -14.3398   22.3761 O   0  0  0  0  0  0  0  0  0  0  0  0
    8.7857  -15.9454   23.1690 N   0  0  0  0  0  0  0  0  0  0  0  0
    9.3956  -16.2341   24.4194 C   0  0  1  0  0  0  0  0  0  0  0  0
    8.3722  -16.4499   25.4651 C   0  0  0  0  0  0  0  0  0  0  0  0
    7.2716  -15.4621   25.4237 C   0  0  0  0  0  0  0  0  0  0  0  0
    6.0050  -15.5548   24.9321 C   0  0  0  0  0  0  0  0  0  0  0  0
    5.3208  -14.3901   25.0908 N   0  0  0  0  0  0  0  0  0  0  0  0
    6.1557  -13.5220   25.6965 C   0  0  0  0  0  0  0  0  0  0  0  0
    6.0504  -12.2104   26.1110 C   0  0  0  0  0  0  0  0  0  0  0  0
    7.0821  -11.5204   26.7214 C   0  0  0  0  0  0  0  0  0  0  0  0
    8.2726  -12.1785   26.9244 C   0  0  0  0  0  0  0  0  0  0  0  0
    8.4202  -13.5066   26.5191 C   0  0  0  0  0  0  0  0  0  0  0  0
    7.3625  -14.1523   25.9142 C   0  0  0  0  0  0  0  0  0  0  0  0
   10.4997  -17.1987   24.4215 C   0  0  0  0  0  0  0  0  0  0  0  0
   10.2905  -18.4146   24.5021 O   0  0  0  0  0  0  0  0  0  0  0  0
   15.4867  -16.4336   19.7411 N   0  0  0  0  0  0  0  0  0  0  0  0
   14.9101  -15.1293   19.7493 C   0  0  0  0  0  0  0  0  0  0  0  0
   14.5850  -14.5679   18.6485 N   0  0  0  0  0  0  0  0  0  0  0  0
   14.7066  -14.4740   20.9920 N   0  0  0  0  0  0  0  0  0  0  0  0
   15.0636  -15.1162   22.2485 C   0  0  0  0  0  0  0  0  0  0  0  0
   13.9771  -16.0747   22.6068 C   0  0  0  0  0  0  0  0  0  0  0  0
   14.1545  -16.7561   23.9135 C   0  0  0  0  0  0  0  0  0  0  0  0
   13.0028  -17.6060   24.3691 C   0  0  2  0  0  0  0  0  0  0  0  0
   11.8313  -16.7266   24.3300 N   0  0  0  0  0  0  0  0  0  0  0  0
   13.2425  -17.9409   25.8003 C   0  0  0  0  0  0  0  0  0  0  0  0
   12.6305  -17.3538   26.7362 O   0  0  0  0  0  0  0  0  0  0  0  0
   14.1483  -18.9107   26.1326 O   0  0  0  0  0  0  0  0  0  0  0  0
  2  1  1  0
  3  2  1  0
  3  4  1  6
  5  3  1  0
  5  6  1  1
  7  5  1  0
  8  7  2  0
  9  7  1  0
 10  9  1  0
 10 11  1  1
 12 11  1  0
 13 12  2  0
 14 13  1  0
 15 14  1  0
 15 20  2  0
 16 17  2  0
 16 15  1  0
 17 18  1  0
 18 19  2  0
 20 19  1  0
 20 12  1  0
 21 10  1  0
 21 31  1  0
 22 21  2  0
 23 24  1  0
 24 26  1  0
 24 25  2  0
 26 27  1  0
 28 27  1  0
 28 29  1  0
 30 31  1  0
 30 29  1  1
 30 32  1  0
 32 33  2  0
 32 34  1  0
M  END
$$$$
