IWR.pdb
     RDKit          3D

 34 35  0  0  1  0  0  0  0  0999 V2000
    7.0871  -12.8529   16.1775 C   0  0  0  0  0  0  0  0  0  0  0  0
    7.7829  -13.9953   16.8480 C   0  0  0  0  0  0  0  0  0  0  0  0
    7.7574  -13.9616   18.3462 C   0  0  2  0  0  0  0  0  0  0  0  0
    8.4581  -12.6832   18.7954 C   0  0  0  0  0  0  0  0  0  0  0  0
    8.3890  -15.1148   19.0325 C   0  0  2  0  0  0  0  0  0  0  0  0
    7.8001  -16.3827   18.8068 N   0  0  0  0  0  0  0  0  0  0  0  0
    8.6538  -14.9152   20.4740 C   0  0  0  0  0  0  0  0  0  0  0  0
    9.5330  -14.1047   20.8789 O   0  0  0  0  0  0  0  0  0  0  0  0
    7.9178  -15.6402   21.4160 N   0  0  0  0  0  0  0  0  0  0  0  0
    8.0512  -15.6667   22.8303 C   0  0  1  0  0  0  0  0  0  0  0  0
    6.7677  -15.3330   23.4849 C   0  0  0  0  0  0  0  0  0  0  0  0
    6.8741  -15.1993   24.9544 C   0  0  0  0  0  0  0  0  0  0  0  0
    6.8744  -16.1391   25.9400 C   0  0  0  0  0  0  0  0  0  0  0  0
    6.9822  -15.5719   27.1715 N   0  0  0  0  0  0  0  0  0  0  0  0
    7.0533  -14.2383   26.9863 C   0  0  0  0  0  0  0  0  0  0  0  0
    7.1653  -13.1512   27.8281 C   0  0  0  0  0  0  0  0  0  0  0  0
    7.2152  -11.8438   27.3795 C   0  0  0  0  0  0  0  0  0  0  0  0
    7.1500  -11.6194   26.0242 C   0  0  0  0  0  0  0  0  0  0  0  0
    7.0360  -12.6926   25.1382 C   0  0  0  0  0  0  0  0  0  0  0  0
    6.9896  -13.9787   25.6337 C   0  0  0  0  0  0  0  0  0  0  0  0
    8.7713  -16.8015   23.4160 C   0  0  0  0  0  0  0  0  0  0  0  0
    8.2205  -17.8960   23.5807 O   0  0  0  0  0  0  0  0  0  0  0  0
   13.1499  -19.7809   19.1420 N   0  0  0  0  0  0  0  0  0  0  0  0
   14.0857  -18.7532   19.4608 C   0  0  0  0  0  0  0  0  0  0  0  0
   15.2880  -18.8298   19.0351 N   0  0  0  0  0  0  0  0  0  0  0  0
   13.6592  -17.6547   20.2523 N   0  0  0  0  0  0  0  0  0  0  0  0
   12.3069  -17.5931   20.7875 C   0  0  0  0  0  0  0  0  0  0  0  0
   12.2687  -18.3896   22.0491 C   0  0  0  0  0  0  0  0  0  0  0  0
   12.2276  -17.5820   23.2938 C   0  0  0  0  0  0  0  0  0  0  0  0
   11.0040  -17.7581   24.1470 C   0  0  2  0  0  0  0  0  0  0  0  0
   10.1242  -16.6386   23.8007 N   0  0  0  0  0  0  0  0  0  0  0  0
   11.4219  -17.5558   25.5622 C   0  0  0  0  0  0  0  0  0  0  0  0
   12.2384  -18.3301   26.1357 O   0  0  0  0  0  0  0  0  0  0  0  0
   10.9181  -16.5058   26.2798 O   0  0  0  0  0  0  0  0  0  0  0  0
  2  1  1  0
  3  2  1  0
  3  4  1  1
  5  3  1  0
  5  6  1  1
  7  5  1  0
  8  7  2  0
  9  7  1  0
 10  9  1  0
 10 11  1  1
 12 11  1  0
 13 12  2  0
 14 13  1  0
 15 14  1  0
 15 20  2  0
 16 17  2  0
 16 15  1  0
 17 18  1  0
 18 19  2  0
 20 19  1  0
 20 12  1  0
 21 10  1  0
 21 31  1  0
 22 21  2  0
 23 24  1  0
 24 26  1  0
 24 25  2  0
 26 27  1  0
 28 27  1  0
 28 29  1  0
 30 31  1  0
 30 29  1  6
 30 32  1  0
 32 33  2  0
 32 34  1  0
M  END
$$$$
