IWR.pdb
     RDKit          3D

 34 35  0  0  1  0  0  0  0  0999 V2000
    6.9556  -12.1090   18.5287 C   0  0  0  0  0  0  0  0  0  0  0  0
    7.0988  -13.5138   19.0237 C   0  0  0  0  0  0  0  0  0  0  0  0
    8.0100  -13.6807   20.2020 C   0  0  2  0  0  0  0  0  0  0  0  0
    9.3704  -13.1032   19.8243 C   0  0  0  0  0  0  0  0  0  0  0  0
    8.2018  -15.0707   20.6827 C   0  0  2  0  0  0  0  0  0  0  0  0
    7.0271  -15.8332   20.8924 N   0  0  0  0  0  0  0  0  0  0  0  0
    9.1241  -15.2129   21.8304 C   0  0  0  0  0  0  0  0  0  0  0  0
   10.2712  -14.6857   21.8262 O   0  0  0  0  0  0  0  0  0  0  0  0
    8.7230  -15.9497   22.9487 N   0  0  0  0  0  0  0  0  0  0  0  0
    9.4363  -16.2193   24.1476 C   0  0  1  0  0  0  0  0  0  0  0  0
    8.5083  -16.5859   25.2393 C   0  0  0  0  0  0  0  0  0  0  0  0
    7.4104  -15.6127   25.4297 C   0  0  0  0  0  0  0  0  0  0  0  0
    6.0726  -15.7174   25.1975 C   0  0  0  0  0  0  0  0  0  0  0  0
    5.4204  -14.5638   25.5038 N   0  0  0  0  0  0  0  0  0  0  0  0
    6.3491  -13.6909   25.9435 C   0  0  0  0  0  0  0  0  0  0  0  0
    6.3134  -12.3853   26.3877 C   0  0  0  0  0  0  0  0  0  0  0  0
    7.4378  -11.6879   26.7906 C   0  0  0  0  0  0  0  0  0  0  0  0
    8.6522  -12.3320   26.7451 C   0  0  0  0  0  0  0  0  0  0  0  0
    8.7314  -13.6535   26.3013 C   0  0  0  0  0  0  0  0  0  0  0  0
    7.5820  -14.3071   25.9095 C   0  0  0  0  0  0  0  0  0  0  0  0
   10.6345  -17.0575   24.0423 C   0  0  0  0  0  0  0  0  0  0  0  0
   10.5542  -18.2904   23.9964 O   0  0  0  0  0  0  0  0  0  0  0  0
   15.4100  -13.8951   17.7730 N   0  0  0  0  0  0  0  0  0  0  0  0
   16.1252  -15.0704   18.1485 C   0  0  0  0  0  0  0  0  0  0  0  0
   17.0866  -15.4928   17.4205 N   0  0  0  0  0  0  0  0  0  0  0  0
   15.7515  -15.7544   19.3348 N   0  0  0  0  0  0  0  0  0  0  0  0
   14.6506  -15.2813   20.1612 C   0  0  0  0  0  0  0  0  0  0  0  0
   14.5416  -16.1776   21.3495 C   0  0  0  0  0  0  0  0  0  0  0  0
   13.3948  -15.8863   22.2456 C   0  0  0  0  0  0  0  0  0  0  0  0
   13.0316  -16.9730   23.2168 C   0  0  2  0  0  0  0  0  0  0  0  0
   11.9082  -16.4411   23.9930 N   0  0  0  0  0  0  0  0  0  0  0  0
   14.1751  -17.1206   24.1595 C   0  0  0  0  0  0  0  0  0  0  0  0
   14.1821  -16.5664   25.2944 O   0  0  0  0  0  0  0  0  0  0  0  0
   15.2597  -17.8749   23.8050 O   0  0  0  0  0  0  0  0  0  0  0  0
  2  1  1  0
  3  2  1  0
  3  4  1  6
  5  3  1  0
  5  6  1  1
  7  5  1  0
  8  7  2  0
  9  7  1  0
 10  9  1  0
 10 11  1  1
 12 11  1  0
 13 12  2  0
 14 13  1  0
 15 14  1  0
 15 20  2  0
 16 17  2  0
 16 15  1  0
 17 18  1  0
 18 19  2  0
 20 19  1  0
 20 12  1  0
 21 10  1  0
 21 31  1  0
 22 21  2  0
 23 24  1  0
 24 26  1  0
 24 25  2  0
 26 27  1  0
 28 27  1  0
 28 29  1  0
 30 31  1  0
 30 29  1  6
 30 32  1  0
 32 33  2  0
 32 34  1  0
M  END
$$$$
