IWR.pdb
     RDKit          3D

 34 35  0  0  1  0  0  0  0  0999 V2000
    6.8279  -12.4722   18.4853 C   0  0  0  0  0  0  0  0  0  0  0  0
    7.1047  -13.8352   19.0372 C   0  0  0  0  0  0  0  0  0  0  0  0
    7.9235  -13.8564   20.2924 C   0  0  2  0  0  0  0  0  0  0  0  0
    9.2359  -13.1341   20.0048 C   0  0  0  0  0  0  0  0  0  0  0  0
    8.2316  -15.1982   20.8441 C   0  0  2  0  0  0  0  0  0  0  0  0
    7.1289  -16.0605   21.0581 N   0  0  0  0  0  0  0  0  0  0  0  0
    9.1266  -15.1988   22.0219 C   0  0  0  0  0  0  0  0  0  0  0  0
   10.1782  -14.5012   22.0536 O   0  0  0  0  0  0  0  0  0  0  0  0
    8.8071  -15.9907   23.1288 N   0  0  0  0  0  0  0  0  0  0  0  0
    9.5643  -16.2325   24.3066 C   0  0  1  0  0  0  0  0  0  0  0  0
    8.6829  -16.3008   25.4923 C   0  0  0  0  0  0  0  0  0  0  0  0
    7.5673  -15.3299   25.4526 C   0  0  0  0  0  0  0  0  0  0  0  0
    6.2762  -15.4678   25.0419 C   0  0  0  0  0  0  0  0  0  0  0  0
    5.5850  -14.3030   25.1665 N   0  0  0  0  0  0  0  0  0  0  0  0
    6.4402  -13.3889   25.6670 C   0  0  0  0  0  0  0  0  0  0  0  0
    6.3394  -12.0549   26.0036 C   0  0  0  0  0  0  0  0  0  0  0  0
    7.3939  -11.3160   26.5086 C   0  0  0  0  0  0  0  0  0  0  0  0
    8.6037  -11.9465   26.6833 C   0  0  0  0  0  0  0  0  0  0  0  0
    8.7475  -13.2960   26.3545 C   0  0  0  0  0  0  0  0  0  0  0  0
    7.6666  -13.9906   25.8537 C   0  0  0  0  0  0  0  0  0  0  0  0
   10.5979  -17.2700   24.2395 C   0  0  0  0  0  0  0  0  0  0  0  0
   10.3023  -18.4699   24.2021 O   0  0  0  0  0  0  0  0  0  0  0  0
   14.3319  -16.0745   19.5604 N   0  0  0  0  0  0  0  0  0  0  0  0
   14.2939  -14.6863   19.8847 C   0  0  0  0  0  0  0  0  0  0  0  0
   13.8925  -13.8385   19.0171 N   0  0  0  0  0  0  0  0  0  0  0  0
   14.7066  -14.2696   21.1774 N   0  0  0  0  0  0  0  0  0  0  0  0
   15.1557  -15.2338   22.1711 C   0  0  0  0  0  0  0  0  0  0  0  0
   14.0012  -16.1117   22.5231 C   0  0  0  0  0  0  0  0  0  0  0  0
   14.2481  -17.0406   23.6541 C   0  0  0  0  0  0  0  0  0  0  0  0
   13.0647  -17.8463   24.1085 C   0  0  2  0  0  0  0  0  0  0  0  0
   11.9612  -16.8884   24.2180 N   0  0  0  0  0  0  0  0  0  0  0  0
   13.3604  -18.3225   25.4884 C   0  0  0  0  0  0  0  0  0  0  0  0
   12.8856  -17.7505   26.5094 O   0  0  0  0  0  0  0  0  0  0  0  0
   14.1678  -19.4104   25.6773 O   0  0  0  0  0  0  0  0  0  0  0  0
  2  1  1  0
  3  2  1  0
  3  4  1  6
  5  3  1  0
  5  6  1  1
  7  5  1  0
  8  7  2  0
  9  7  1  0
 10  9  1  0
 10 11  1  1
 12 11  1  0
 13 12  2  0
 14 13  1  0
 15 14  1  0
 15 20  2  0
 16 17  2  0
 16 15  1  0
 17 18  1  0
 18 19  2  0
 20 19  1  0
 20 12  1  0
 21 10  1  0
 21 31  1  0
 22 21  2  0
 23 24  1  0
 24 26  1  0
 24 25  2  0
 26 27  1  0
 28 27  1  0
 28 29  1  0
 30 31  1  0
 30 29  1  1
 30 32  1  0
 32 33  2  0
 32 34  1  0
M  END
$$$$
