IWR.pdb
     RDKit          3D

 34 35  0  0  1  0  0  0  0  0999 V2000
    6.3394  -12.1876   19.2187 C   0  0  0  0  0  0  0  0  0  0  0  0
    6.8044  -13.5811   19.5030 C   0  0  0  0  0  0  0  0  0  0  0  0
    7.4595  -13.7708   20.8376 C   0  0  2  0  0  0  0  0  0  0  0  0
    8.6725  -12.8477   20.8965 C   0  0  0  0  0  0  0  0  0  0  0  0
    7.8984  -15.1515   21.1552 C   0  0  2  0  0  0  0  0  0  0  0  0
    6.8972  -16.1527   21.1312 N   0  0  0  0  0  0  0  0  0  0  0  0
    8.7295  -15.2783   22.3722 C   0  0  0  0  0  0  0  0  0  0  0  0
    9.7585  -14.5682   22.5473 O   0  0  0  0  0  0  0  0  0  0  0  0
    8.3738  -16.2068   23.3551 N   0  0  0  0  0  0  0  0  0  0  0  0
    9.0867  -16.5954   24.5211 C   0  0  1  0  0  0  0  0  0  0  0  0
    8.1855  -16.6531   25.6924 C   0  0  0  0  0  0  0  0  0  0  0  0
    7.2347  -15.5217   25.7591 C   0  0  0  0  0  0  0  0  0  0  0  0
    5.9180  -15.4392   25.4210 C   0  0  0  0  0  0  0  0  0  0  0  0
    5.4246  -14.1897   25.6341 N   0  0  0  0  0  0  0  0  0  0  0  0
    6.4372  -13.4437   26.1197 C   0  0  0  0  0  0  0  0  0  0  0  0
    6.5638  -12.1284   26.5159 C   0  0  0  0  0  0  0  0  0  0  0  0
    7.7458  -11.5862   26.9868 C   0  0  0  0  0  0  0  0  0  0  0  0
    8.8498  -12.4029   27.0631 C   0  0  0  0  0  0  0  0  0  0  0  0
    8.7637  -13.7404   26.6714 C   0  0  0  0  0  0  0  0  0  0  0  0
    7.5628  -14.2351   26.2080 C   0  0  0  0  0  0  0  0  0  0  0  0
   10.0164  -17.7221   24.3957 C   0  0  0  0  0  0  0  0  0  0  0  0
    9.6100  -18.8891   24.3562 O   0  0  0  0  0  0  0  0  0  0  0  0
   13.5861  -17.6338   18.7388 N   0  0  0  0  0  0  0  0  0  0  0  0
   14.7543  -18.3402   19.1512 C   0  0  0  0  0  0  0  0  0  0  0  0
   15.3314  -19.1458   18.3447 N   0  0  0  0  0  0  0  0  0  0  0  0
   15.2578  -18.1325   20.4621 N   0  0  0  0  0  0  0  0  0  0  0  0
   14.6461  -17.1620   21.3581 C   0  0  0  0  0  0  0  0  0  0  0  0
   13.4849  -17.8159   22.0300 C   0  0  0  0  0  0  0  0  0  0  0  0
   13.5830  -17.8904   23.5092 C   0  0  0  0  0  0  0  0  0  0  0  0
   12.4157  -18.5241   24.2106 C   0  0  2  0  0  0  0  0  0  0  0  0
   11.4069  -17.4668   24.3193 N   0  0  0  0  0  0  0  0  0  0  0  0
   12.8563  -18.8434   25.5970 C   0  0  0  0  0  0  0  0  0  0  0  0
   13.6746  -19.7739   25.8411 O   0  0  0  0  0  0  0  0  0  0  0  0
   12.3722  -18.1190   26.6516 O   0  0  0  0  0  0  0  0  0  0  0  0
  2  1  1  0
  3  2  1  0
  3  4  1  6
  5  3  1  0
  5  6  1  1
  7  5  1  0
  8  7  2  0
  9  7  1  0
 10  9  1  0
 10 11  1  1
 12 11  1  0
 13 12  2  0
 14 13  1  0
 15 14  1  0
 15 20  2  0
 16 17  2  0
 16 15  1  0
 17 18  1  0
 18 19  2  0
 20 19  1  0
 20 12  1  0
 21 10  1  0
 21 31  1  0
 22 21  2  0
 23 24  1  0
 24 26  1  0
 24 25  2  0
 26 27  1  0
 28 27  1  0
 28 29  1  0
 30 31  1  0
 30 29  1  6
 30 32  1  0
 32 33  2  0
 32 34  1  0
M  END
$$$$
