IWR.pdb
     RDKit          3D

 34 35  0  0  1  0  0  0  0  0999 V2000
    7.0976  -12.8324   16.2729 C   0  0  0  0  0  0  0  0  0  0  0  0
    7.5395  -14.1016   16.9306 C   0  0  0  0  0  0  0  0  0  0  0  0
    7.7866  -13.9985   18.4054 C   0  0  2  0  0  0  0  0  0  0  0  0
    8.8925  -12.9703   18.6216 C   0  0  0  0  0  0  0  0  0  0  0  0
    8.1695  -15.2578   19.0892 C   0  0  2  0  0  0  0  0  0  0  0  0
    7.2439  -16.3264   19.0075 N   0  0  0  0  0  0  0  0  0  0  0  0
    8.6501  -15.0929   20.4784 C   0  0  0  0  0  0  0  0  0  0  0  0
    9.7410  -14.5122   20.7362 O   0  0  0  0  0  0  0  0  0  0  0  0
    7.8836  -15.5920   21.5357 N   0  0  0  0  0  0  0  0  0  0  0  0
    8.1307  -15.5219   22.9332 C   0  0  1  0  0  0  0  0  0  0  0  0
    6.8835  -15.2300   23.6726 C   0  0  0  0  0  0  0  0  0  0  0  0
    7.0990  -14.9842   25.1155 C   0  0  0  0  0  0  0  0  0  0  0  0
    7.2543  -15.8486   26.1563 C   0  0  0  0  0  0  0  0  0  0  0  0
    7.4174  -15.1884   27.3342 N   0  0  0  0  0  0  0  0  0  0  0  0
    7.3675  -13.8699   27.0572 C   0  0  0  0  0  0  0  0  0  0  0  0
    7.4618  -12.7201   27.8135 C   0  0  0  0  0  0  0  0  0  0  0  0
    7.3713  -11.4480   27.2782 C   0  0  0  0  0  0  0  0  0  0  0  0
    7.1778  -11.3265   25.9220 C   0  0  0  0  0  0  0  0  0  0  0  0
    7.0768  -12.4657   25.1211 C   0  0  0  0  0  0  0  0  0  0  0  0
    7.1730  -13.7130   25.7013 C   0  0  0  0  0  0  0  0  0  0  0  0
    8.9709  -16.5701   23.5203 C   0  0  0  0  0  0  0  0  0  0  0  0
    8.5727  -17.7371   23.6107 O   0  0  0  0  0  0  0  0  0  0  0  0
   17.3904  -16.2739   21.8989 N   0  0  0  0  0  0  0  0  0  0  0  0
   17.1516  -16.0634   23.2890 C   0  0  0  0  0  0  0  0  0  0  0  0
   18.0649  -15.5550   24.0240 N   0  0  0  0  0  0  0  0  0  0  0  0
   15.8922  -16.4260   23.8342 N   0  0  0  0  0  0  0  0  0  0  0  0
   14.9273  -17.1895   23.0563 C   0  0  0  0  0  0  0  0  0  0  0  0
   13.7750  -17.5250   23.9436 C   0  0  0  0  0  0  0  0  0  0  0  0
   12.5651  -16.6911   23.7342 C   0  0  0  0  0  0  0  0  0  0  0  0
   11.2883  -17.2363   24.3076 C   0  0  2  0  0  0  0  0  0  0  0  0
   10.2633  -16.2374   23.9930 N   0  0  0  0  0  0  0  0  0  0  0  0
   11.4403  -17.2458   25.7891 C   0  0  0  0  0  0  0  0  0  0  0  0
   10.9431  -16.3423   26.5183 O   0  0  0  0  0  0  0  0  0  0  0  0
   12.1351  -18.2545   26.3982 O   0  0  0  0  0  0  0  0  0  0  0  0
  2  1  1  0
  3  2  1  0
  3  4  1  6
  5  3  1  0
  5  6  1  1
  7  5  1  0
  8  7  2  0
  9  7  1  0
 10  9  1  0
 10 11  1  1
 12 11  1  0
 13 12  2  0
 14 13  1  0
 15 14  1  0
 15 20  2  0
 16 17  2  0
 16 15  1  0
 17 18  1  0
 18 19  2  0
 20 19  1  0
 20 12  1  0
 21 10  1  0
 21 31  1  0
 22 21  2  0
 23 24  1  0
 24 26  1  0
 24 25  2  0
 26 27  1  0
 28 27  1  0
 28 29  1  0
 30 31  1  0
 30 29  1  6
 30 32  1  0
 32 33  2  0
 32 34  1  0
M  END
$$$$
