IWR.pdb
     RDKit          3D

 34 35  0  0  1  0  0  0  0  0999 V2000
   11.2894  -18.4780   16.2186 C   0  0  0  0  0  0  0  0  0  0  0  0
   10.0791  -18.1089   17.0172 C   0  0  0  0  0  0  0  0  0  0  0  0
   10.3604  -17.6284   18.4088 C   0  0  2  0  0  0  0  0  0  0  0  0
   11.0910  -18.7447   19.1484 C   0  0  0  0  0  0  0  0  0  0  0  0
    9.1779  -17.2247   19.2078 C   0  0  2  0  0  0  0  0  0  0  0  0
    8.2373  -16.3856   18.5626 N   0  0  0  0  0  0  0  0  0  0  0  0
    9.4837  -16.7154   20.5625 C   0  0  0  0  0  0  0  0  0  0  0  0
   10.6408  -16.8090   21.0585 O   0  0  0  0  0  0  0  0  0  0  0  0
    8.4709  -16.1169   21.3178 N   0  0  0  0  0  0  0  0  0  0  0  0
    8.4950  -15.6937   22.6740 C   0  0  1  0  0  0  0  0  0  0  0  0
    7.3033  -14.8766   22.9899 C   0  0  0  0  0  0  0  0  0  0  0  0
    7.0999  -14.6696   24.4406 C   0  0  0  0  0  0  0  0  0  0  0  0
    6.8918  -15.5596   25.4502 C   0  0  0  0  0  0  0  0  0  0  0  0
    6.7405  -14.9313   26.6470 N   0  0  0  0  0  0  0  0  0  0  0  0
    6.8518  -13.6079   26.4143 C   0  0  0  0  0  0  0  0  0  0  0  0
    6.7873  -12.4796   27.2053 C   0  0  0  0  0  0  0  0  0  0  0  0
    6.9329  -11.1956   26.7122 C   0  0  0  0  0  0  0  0  0  0  0  0
    7.1534  -11.0391   25.3638 C   0  0  0  0  0  0  0  0  0  0  0  0
    7.2252  -12.1557   24.5285 C   0  0  0  0  0  0  0  0  0  0  0  0
    7.0733  -13.4161   25.0670 C   0  0  0  0  0  0  0  0  0  0  0  0
    8.8475  -16.6958   23.6843 C   0  0  0  0  0  0  0  0  0  0  0  0
    8.1677  -17.7165   23.8415 O   0  0  0  0  0  0  0  0  0  0  0  0
   12.3219  -21.8935   22.4956 N   0  0  0  0  0  0  0  0  0  0  0  0
   13.2485  -21.6491   23.5518 C   0  0  0  0  0  0  0  0  0  0  0  0
   13.3341  -22.4685   24.5285 N   0  0  0  0  0  0  0  0  0  0  0  0
   14.0653  -20.4894   23.4969 N   0  0  0  0  0  0  0  0  0  0  0  0
   13.4798  -19.1613   23.3864 C   0  0  0  0  0  0  0  0  0  0  0  0
   12.7971  -18.8446   24.6753 C   0  0  0  0  0  0  0  0  0  0  0  0
   12.0931  -17.5382   24.7019 C   0  0  0  0  0  0  0  0  0  0  0  0
   10.6790  -17.5680   25.2073 C   0  0  2  0  0  0  0  0  0  0  0  0
    9.9891  -16.4886   24.4958 N   0  0  0  0  0  0  0  0  0  0  0  0
   10.7174  -17.1807   26.6449 C   0  0  0  0  0  0  0  0  0  0  0  0
   10.3547  -16.0370   27.0394 O   0  0  0  0  0  0  0  0  0  0  0  0
   11.1551  -18.0758   27.5821 O   0  0  0  0  0  0  0  0  0  0  0  0
  2  1  1  0
  3  2  1  0
  3  4  1  1
  5  3  1  0
  5  6  1  6
  7  5  1  0
  8  7  2  0
  9  7  1  0
 10  9  1  0
 10 11  1  1
 12 11  1  0
 13 12  2  0
 14 13  1  0
 15 14  1  0
 15 20  2  0
 16 17  2  0
 16 15  1  0
 17 18  1  0
 18 19  2  0
 20 19  1  0
 20 12  1  0
 21 10  1  0
 21 31  1  0
 22 21  2  0
 23 24  1  0
 24 26  1  0
 24 25  2  0
 26 27  1  0
 28 27  1  0
 28 29  1  0
 30 31  1  0
 30 29  1  6
 30 32  1  0
 32 33  2  0
 32 34  1  0
M  END
$$$$
