IWR.pdb
     RDKit          3D

 34 35  0  0  1  0  0  0  0  0999 V2000
    4.7788  -22.7929   25.3073 C   0  0  0  0  0  0  0  0  0  0  0  0
    5.9241  -21.8485   25.4951 C   0  0  0  0  0  0  0  0  0  0  0  0
    6.1254  -20.8669   24.3804 C   0  0  2  0  0  0  0  0  0  0  0  0
    6.3738  -21.6594   23.1010 C   0  0  0  0  0  0  0  0  0  0  0  0
    7.2338  -19.8979   24.5608 C   0  0  2  0  0  0  0  0  0  0  0  0
    7.2563  -19.1862   25.7849 N   0  0  0  0  0  0  0  0  0  0  0  0
    7.4513  -18.9788   23.4224 C   0  0  0  0  0  0  0  0  0  0  0  0
    7.4455  -19.3911   22.2292 O   0  0  0  0  0  0  0  0  0  0  0  0
    7.6717  -17.6201   23.6671 N   0  0  0  0  0  0  0  0  0  0  0  0
    7.8151  -16.5539   22.7389 C   0  0  1  0  0  0  0  0  0  0  0  0
    6.9092  -15.4357   23.0801 C   0  0  0  0  0  0  0  0  0  0  0  0
    6.8498  -15.1483   24.5301 C   0  0  0  0  0  0  0  0  0  0  0  0
    6.5525  -15.9511   25.5893 C   0  0  0  0  0  0  0  0  0  0  0  0
    6.6041  -15.2679   26.7642 N   0  0  0  0  0  0  0  0  0  0  0  0
    6.9408  -13.9968   26.4665 C   0  0  0  0  0  0  0  0  0  0  0  0
    7.1412  -12.8517   27.2093 C   0  0  0  0  0  0  0  0  0  0  0  0
    7.4860  -11.6339   26.6516 C   0  0  0  0  0  0  0  0  0  0  0  0
    7.6365  -11.5643   25.2864 C   0  0  0  0  0  0  0  0  0  0  0  0
    7.4423  -12.7006   24.4985 C   0  0  0  0  0  0  0  0  0  0  0  0
    7.0988  -13.8926   25.1008 C   0  0  0  0  0  0  0  0  0  0  0  0
    9.1793  -16.1598   22.3741 C   0  0  0  0  0  0  0  0  0  0  0  0
    9.3955  -15.3937   21.4280 O   0  0  0  0  0  0  0  0  0  0  0  0
   12.8354  -14.8603   17.9174 N   0  0  0  0  0  0  0  0  0  0  0  0
   14.2102  -14.6802   18.2507 C   0  0  0  0  0  0  0  0  0  0  0  0
   15.1099  -14.8383   17.3572 N   0  0  0  0  0  0  0  0  0  0  0  0
   14.5556  -14.3255   19.5810 N   0  0  0  0  0  0  0  0  0  0  0  0
   13.5317  -14.1216   20.5953 C   0  0  0  0  0  0  0  0  0  0  0  0
   13.2579  -15.4340   21.2510 C   0  0  0  0  0  0  0  0  0  0  0  0
   11.8719  -15.6004   21.7554 C   0  0  0  0  0  0  0  0  0  0  0  0
   11.6160  -16.8377   22.5676 C   0  0  2  0  0  0  0  0  0  0  0  0
   10.2696  -16.6682   23.1206 N   0  0  0  0  0  0  0  0  0  0  0  0
   12.5609  -16.8116   23.7184 C   0  0  0  0  0  0  0  0  0  0  0  0
   12.1758  -16.5594   24.8945 O   0  0  0  0  0  0  0  0  0  0  0  0
   13.8898  -17.0661   23.5172 O   0  0  0  0  0  0  0  0  0  0  0  0
  2  1  1  0
  3  2  1  0
  3  4  1  6
  5  3  1  0
  5  6  1  1
  7  5  1  0
  8  7  2  0
  9  7  1  0
 10  9  1  0
 10 11  1  1
 12 11  1  0
 13 12  2  0
 14 13  1  0
 15 14  1  0
 15 20  2  0
 16 17  2  0
 16 15  1  0
 17 18  1  0
 18 19  2  0
 20 19  1  0
 20 12  1  0
 21 10  1  0
 21 31  1  0
 22 21  2  0
 23 24  1  0
 24 26  1  0
 24 25  2  0
 26 27  1  0
 28 27  1  0
 28 29  1  0
 30 31  1  0
 30 29  1  6
 30 32  1  0
 32 33  2  0
 32 34  1  0
M  END
$$$$
