IWR.pdb
     RDKit          3D

 34 35  0  0  1  0  0  0  0  0999 V2000
    6.9979  -12.0580   20.5030 C   0  0  0  0  0  0  0  0  0  0  0  0
    7.1343  -13.4332   21.0766 C   0  0  0  0  0  0  0  0  0  0  0  0
    8.1609  -14.2987   20.4106 C   0  0  2  0  0  0  0  0  0  0  0  0
    7.7012  -14.5480   18.9776 C   0  0  0  0  0  0  0  0  0  0  0  0
    8.4262  -15.6065   21.0579 C   0  0  2  0  0  0  0  0  0  0  0  0
    7.3727  -16.5522   21.0240 N   0  0  0  0  0  0  0  0  0  0  0  0
    9.0064  -15.5249   22.4161 C   0  0  0  0  0  0  0  0  0  0  0  0
    9.9413  -14.7215   22.6887 O   0  0  0  0  0  0  0  0  0  0  0  0
    8.5137  -16.3564   23.4262 N   0  0  0  0  0  0  0  0  0  0  0  0
    8.9939  -16.5388   24.7510 C   0  0  1  0  0  0  0  0  0  0  0  0
    7.8745  -16.5540   25.7175 C   0  0  0  0  0  0  0  0  0  0  0  0
    7.0293  -15.3412   25.6577 C   0  0  0  0  0  0  0  0  0  0  0  0
    5.8318  -15.1150   25.0497 C   0  0  0  0  0  0  0  0  0  0  0  0
    5.4085  -13.8365   25.2397 N   0  0  0  0  0  0  0  0  0  0  0  0
    6.3463  -13.2174   25.9846 C   0  0  0  0  0  0  0  0  0  0  0  0
    6.4901  -11.9425   26.4916 C   0  0  0  0  0  0  0  0  0  0  0  0
    7.5790  -11.5416   27.2443 C   0  0  0  0  0  0  0  0  0  0  0  0
    8.5672  -12.4636   27.4989 C   0  0  0  0  0  0  0  0  0  0  0  0
    8.4599  -13.7647   27.0035 C   0  0  0  0  0  0  0  0  0  0  0  0
    7.3549  -14.1170   26.2575 C   0  0  0  0  0  0  0  0  0  0  0  0
   10.0104  -17.5743   24.9605 C   0  0  0  0  0  0  0  0  0  0  0  0
    9.6957  -18.7339   25.2519 O   0  0  0  0  0  0  0  0  0  0  0  0
   16.2999  -16.4973   20.3602 N   0  0  0  0  0  0  0  0  0  0  0  0
   16.9546  -16.6588   21.6168 C   0  0  0  0  0  0  0  0  0  0  0  0
   18.2074  -16.9066   21.6569 N   0  0  0  0  0  0  0  0  0  0  0  0
   16.1945  -16.5400   22.8097 N   0  0  0  0  0  0  0  0  0  0  0  0
   14.7713  -16.2370   22.7680 C   0  0  0  0  0  0  0  0  0  0  0  0
   14.0250  -17.4405   23.2394 C   0  0  0  0  0  0  0  0  0  0  0  0
   13.7254  -17.4570   24.6930 C   0  0  0  0  0  0  0  0  0  0  0  0
   12.4704  -18.1785   25.0935 C   0  0  2  0  0  0  0  0  0  0  0  0
   11.3791  -17.2376   24.8267 N   0  0  0  0  0  0  0  0  0  0  0  0
   12.5243  -18.3684   26.5697 C   0  0  0  0  0  0  0  0  0  0  0  0
   11.7806  -17.7167   27.3555 O   0  0  0  0  0  0  0  0  0  0  0  0
   13.3981  -19.2710   27.1110 O   0  0  0  0  0  0  0  0  0  0  0  0
  2  1  1  0
  3  2  1  0
  3  4  1  6
  5  3  1  0
  5  6  1  1
  7  5  1  0
  8  7  2  0
  9  7  1  0
 10  9  1  0
 10 11  1  1
 12 11  1  0
 13 12  2  0
 14 13  1  0
 15 14  1  0
 15 20  2  0
 16 17  2  0
 16 15  1  0
 17 18  1  0
 18 19  2  0
 20 19  1  0
 20 12  1  0
 21 10  1  0
 21 31  1  0
 22 21  2  0
 23 24  1  0
 24 26  1  0
 24 25  2  0
 26 27  1  0
 28 27  1  0
 28 29  1  0
 30 31  1  0
 30 29  1  1
 30 32  1  0
 32 33  2  0
 32 34  1  0
M  END
$$$$
