IWR.pdb
     RDKit          3D

 34 35  0  0  1  0  0  0  0  0999 V2000
    6.4678  -12.6961   18.7328 C   0  0  0  0  0  0  0  0  0  0  0  0
    6.8774  -14.0451   19.2340 C   0  0  0  0  0  0  0  0  0  0  0  0
    7.6410  -14.0371   20.5237 C   0  0  2  0  0  0  0  0  0  0  0  0
    8.8978  -13.1979   20.3158 C   0  0  0  0  0  0  0  0  0  0  0  0
    8.0392  -15.3650   21.0509 C   0  0  2  0  0  0  0  0  0  0  0  0
    6.9956  -16.2987   21.2618 N   0  0  0  0  0  0  0  0  0  0  0  0
    8.9451  -15.3270   22.2196 C   0  0  0  0  0  0  0  0  0  0  0  0
   10.0212  -14.6672   22.2010 O   0  0  0  0  0  0  0  0  0  0  0  0
    8.6083  -16.0386   23.3750 N   0  0  0  0  0  0  0  0  0  0  0  0
    9.3323  -16.1686   24.5906 C   0  0  1  0  0  0  0  0  0  0  0  0
    8.4099  -16.2975   25.7395 C   0  0  0  0  0  0  0  0  0  0  0  0
    7.3090  -15.3094   25.7237 C   0  0  0  0  0  0  0  0  0  0  0  0
    5.9875  -15.4478   25.4249 C   0  0  0  0  0  0  0  0  0  0  0  0
    5.3254  -14.2641   25.5266 N   0  0  0  0  0  0  0  0  0  0  0  0
    6.2308  -13.3368   25.8981 C   0  0  0  0  0  0  0  0  0  0  0  0
    6.1765  -11.9822   26.1537 C   0  0  0  0  0  0  0  0  0  0  0  0
    7.2784  -11.2335   26.5255 C   0  0  0  0  0  0  0  0  0  0  0  0
    8.4888  -11.8753   26.6461 C   0  0  0  0  0  0  0  0  0  0  0  0
    8.5864  -13.2455   26.3960 C   0  0  0  0  0  0  0  0  0  0  0  0
    7.4592  -13.9494   26.0274 C   0  0  0  0  0  0  0  0  0  0  0  0
   10.4697  -17.0935   24.5996 C   0  0  0  0  0  0  0  0  0  0  0  0
   10.3299  -18.2807   24.9151 O   0  0  0  0  0  0  0  0  0  0  0  0
   17.0414  -15.6303   20.7112 N   0  0  0  0  0  0  0  0  0  0  0  0
   17.8907  -15.8491   21.8357 C   0  0  0  0  0  0  0  0  0  0  0  0
   19.0022  -15.2256   21.9274 N   0  0  0  0  0  0  0  0  0  0  0  0
   17.4807  -16.7639   22.8408 N   0  0  0  0  0  0  0  0  0  0  0  0
   16.1670  -17.3894   22.7983 C   0  0  0  0  0  0  0  0  0  0  0  0
   15.4567  -17.0675   24.0708 C   0  0  0  0  0  0  0  0  0  0  0  0
   14.0867  -16.5231   23.8982 C   0  0  0  0  0  0  0  0  0  0  0  0
   12.9645  -17.4382   24.2973 C   0  0  2  0  0  0  0  0  0  0  0  0
   11.7531  -16.6158   24.2401 N   0  0  0  0  0  0  0  0  0  0  0  0
   13.1757  -17.7953   25.7277 C   0  0  0  0  0  0  0  0  0  0  0  0
   12.7846  -17.0486   26.6682 O   0  0  0  0  0  0  0  0  0  0  0  0
   13.8099  -18.9626   26.0541 O   0  0  0  0  0  0  0  0  0  0  0  0
  2  1  1  0
  3  2  1  0
  3  4  1  6
  5  3  1  0
  5  6  1  1
  7  5  1  0
  8  7  2  0
  9  7  1  0
 10  9  1  0
 10 11  1  1
 12 11  1  0
 13 12  2  0
 14 13  1  0
 15 14  1  0
 15 20  2  0
 16 17  2  0
 16 15  1  0
 17 18  1  0
 18 19  2  0
 20 19  1  0
 20 12  1  0
 21 10  1  0
 21 31  1  0
 22 21  2  0
 23 24  1  0
 24 26  1  0
 24 25  2  0
 26 27  1  0
 28 27  1  0
 28 29  1  0
 30 31  1  0
 30 29  1  1
 30 32  1  0
 32 33  2  0
 32 34  1  0
M  END
$$$$
