DAW.pdb
     RDKit          3D

 28 29  0  0  1  0  0  0  0  0999 V2000
    7.5326  -18.8142   19.7656 N   0  0  0  0  0  0  0  0  0  0  0  0
    8.8557  -18.5436   20.2206 C   0  0  1  0  0  0  0  0  0  0  0  0
    9.8536  -18.9670   19.1707 C   0  0  0  0  0  0  0  0  0  0  0  0
    9.5935  -20.3940   18.8679 C   0  0  0  0  0  0  0  0  0  0  0  0
    9.1492  -21.1225   19.7854 O   0  0  0  0  0  0  0  0  0  0  0  0
    9.0675  -17.1927   20.7438 C   0  0  0  0  0  0  0  0  0  0  0  0
   10.2239  -16.6795   20.6400 O   0  0  0  0  0  0  0  0  0  0  0  0
    9.8137  -20.9667   17.6290 O   0  0  0  0  0  0  0  0  0  0  0  0
    7.0989  -14.1920   21.8809 C   0  0  0  0  0  0  0  0  0  0  0  0
    8.3505  -15.0134   21.7858 C   0  0  2  0  0  0  0  0  0  0  0  0
    8.0931  -16.3785   21.3694 N   0  0  0  0  0  0  0  0  0  0  0  0
    9.1416  -14.9744   23.0510 C   0  0  0  0  0  0  0  0  0  0  0  0
    9.6429  -13.8929   23.4908 O   0  0  0  0  0  0  0  0  0  0  0  0
    9.3821  -16.1310   23.8356 N   0  0  0  0  0  0  0  0  0  0  0  0
   10.2882  -16.1916   24.9655 C   0  0  1  0  0  0  0  0  0  0  0  0
    9.8426  -15.3688   26.1195 C   0  0  0  0  0  0  0  0  0  0  0  0
    8.4093  -14.9743   26.1098 C   0  0  0  0  0  0  0  0  0  0  0  0
    7.3335  -15.8661   25.9380 C   0  0  0  0  0  0  0  0  0  0  0  0
    6.1970  -15.1739   26.0104 N   0  0  0  0  0  0  0  0  0  0  0  0
    6.4359  -13.8751   26.2192 C   0  0  0  0  0  0  0  0  0  0  0  0
    5.6132  -12.7862   26.3565 C   0  0  0  0  0  0  0  0  0  0  0  0
    6.1005  -11.5136   26.5611 C   0  0  0  0  0  0  0  0  0  0  0  0
    7.4656  -11.3890   26.6209 C   0  0  0  0  0  0  0  0  0  0  0  0
    8.3046  -12.4838   26.4834 C   0  0  0  0  0  0  0  0  0  0  0  0
    7.8100  -13.7470   26.2810 C   0  0  0  0  0  0  0  0  0  0  0  0
   10.7689  -17.5287   25.3006 C   0  0  0  0  0  0  0  0  0  0  0  0
   10.2069  -18.6298   24.6903 O   0  0  0  0  0  0  0  0  0  0  0  0
   11.6814  -17.7047   26.1364 O   0  0  0  0  0  0  0  0  0  0  0  0
  2  1  1  6
  2  3  1  0
  4  3  1  0
  4  5  2  0
  6  2  1  0
  7  6  2  0
  8  4  1  0
 10  9  1  1
 10 12  1  0
 10 11  1  0
 11  6  1  0
 12 13  2  0
 14 15  1  0
 14 12  1  0
 15 16  1  1
 16 17  1  0
 17 25  1  0
 18 17  2  0
 18 19  1  0
 19 20  1  0
 20 21  1  0
 21 22  2  0
 23 22  1  0
 24 23  2  0
 25 20  2  0
 25 24  1  0
 26 27  1  0
 26 15  1  0
 28 26  2  0
M  END
$$$$
