DAW.pdb
     RDKit          3D

 28 29  0  0  1  0  0  0  0  0999 V2000
    7.0490  -19.1150   20.7297 N   0  0  0  0  0  0  0  0  0  0  0  0
    8.1263  -18.6047   19.9487 C   0  0  1  0  0  0  0  0  0  0  0  0
    7.8803  -18.8944   18.4882 C   0  0  0  0  0  0  0  0  0  0  0  0
    7.7692  -20.3650   18.3449 C   0  0  0  0  0  0  0  0  0  0  0  0
    8.7158  -21.0735   18.7596 O   0  0  0  0  0  0  0  0  0  0  0  0
    8.4965  -17.2174   20.2343 C   0  0  0  0  0  0  0  0  0  0  0  0
    9.6398  -16.8090   19.8633 O   0  0  0  0  0  0  0  0  0  0  0  0
    6.6788  -20.9993   17.7791 O   0  0  0  0  0  0  0  0  0  0  0  0
    6.9654  -13.9269   21.1447 C   0  0  0  0  0  0  0  0  0  0  0  0
    8.1150  -14.8903   21.1224 C   0  0  2  0  0  0  0  0  0  0  0  0
    7.6929  -16.2594   20.8977 N   0  0  0  0  0  0  0  0  0  0  0  0
    8.9604  -14.7796   22.3475 C   0  0  0  0  0  0  0  0  0  0  0  0
    9.4815  -13.6758   22.7005 O   0  0  0  0  0  0  0  0  0  0  0  0
    9.2335  -15.8886   23.1881 N   0  0  0  0  0  0  0  0  0  0  0  0
   10.0866  -15.8499   24.3594 C   0  0  1  0  0  0  0  0  0  0  0  0
    9.3503  -16.0798   25.6291 C   0  0  0  0  0  0  0  0  0  0  0  0
    8.0291  -15.4064   25.7348 C   0  0  0  0  0  0  0  0  0  0  0  0
    6.7889  -16.0353   25.5143 C   0  0  0  0  0  0  0  0  0  0  0  0
    5.8213  -15.1425   25.7211 N   0  0  0  0  0  0  0  0  0  0  0  0
    6.3275  -13.9540   26.0658 C   0  0  0  0  0  0  0  0  0  0  0  0
    5.7502  -12.7468   26.3673 C   0  0  0  0  0  0  0  0  0  0  0  0
    6.4938  -11.6334   26.6928 C   0  0  0  0  0  0  0  0  0  0  0  0
    7.8564  -11.7947   26.6999 C   0  0  0  0  0  0  0  0  0  0  0  0
    8.4485  -13.0108   26.3968 C   0  0  0  0  0  0  0  0  0  0  0  0
    7.6997  -14.1139   26.0749 C   0  0  0  0  0  0  0  0  0  0  0  0
   11.3478  -16.5736   24.2292 C   0  0  0  0  0  0  0  0  0  0  0  0
   12.3269  -16.4183   25.1873 O   0  0  0  0  0  0  0  0  0  0  0  0
   11.5681  -17.3339   23.2619 O   0  0  0  0  0  0  0  0  0  0  0  0
  2  1  1  1
  2  3  1  0
  4  3  1  0
  4  5  2  0
  6  2  1  0
  7  6  2  0
  8  4  1  0
 10  9  1  1
 10 12  1  0
 10 11  1  0
 11  6  1  0
 12 13  2  0
 14 15  1  0
 14 12  1  0
 15 16  1  1
 16 17  1  0
 17 25  1  0
 18 17  2  0
 18 19  1  0
 19 20  1  0
 20 21  1  0
 21 22  2  0
 23 22  1  0
 24 23  2  0
 25 20  2  0
 25 24  1  0
 26 27  1  0
 26 15  1  0
 28 26  2  0
M  END
$$$$
