DAW.pdb
     RDKit          3D

 28 29  0  0  1  0  0  0  0  0999 V2000
    8.5937  -16.7474   18.4864 N   0  0  0  0  0  0  0  0  0  0  0  0
    8.8511  -15.8271   19.5435 C   0  0  1  0  0  0  0  0  0  0  0  0
    7.9511  -14.6238   19.4037 C   0  0  0  0  0  0  0  0  0  0  0  0
    8.2788  -13.9783   18.1109 C   0  0  0  0  0  0  0  0  0  0  0  0
    7.4477  -13.1789   17.6208 O   0  0  0  0  0  0  0  0  0  0  0  0
    8.8703  -16.4131   20.8850 C   0  0  0  0  0  0  0  0  0  0  0  0
    7.8814  -16.1989   21.6516 O   0  0  0  0  0  0  0  0  0  0  0  0
    9.4510  -14.2087   17.4149 O   0  0  0  0  0  0  0  0  0  0  0  0
   10.4527  -19.3209   22.5652 C   0  0  0  0  0  0  0  0  0  0  0  0
    9.7390  -18.0035   22.6359 C   0  0  2  0  0  0  0  0  0  0  0  0
    9.9024  -17.2136   21.4307 N   0  0  0  0  0  0  0  0  0  0  0  0
   10.1241  -17.2240   23.8492 C   0  0  0  0  0  0  0  0  0  0  0  0
   10.9926  -16.2980   23.7987 O   0  0  0  0  0  0  0  0  0  0  0  0
    9.5507  -17.4648   25.1237 N   0  0  0  0  0  0  0  0  0  0  0  0
    9.9766  -16.8320   26.3564 C   0  0  1  0  0  0  0  0  0  0  0  0
    8.8447  -16.3582   27.1940 C   0  0  0  0  0  0  0  0  0  0  0  0
    7.8351  -15.5217   26.4932 C   0  0  0  0  0  0  0  0  0  0  0  0
    6.7278  -16.0267   25.7853 C   0  0  0  0  0  0  0  0  0  0  0  0
    6.0259  -14.9975   25.3116 N   0  0  0  0  0  0  0  0  0  0  0  0
    6.5871  -13.8331   25.6532 C   0  0  0  0  0  0  0  0  0  0  0  0
    6.2503  -12.5271   25.4035 C   0  0  0  0  0  0  0  0  0  0  0  0
    7.0043  -11.4692   25.8628 C   0  0  0  0  0  0  0  0  0  0  0  0
    8.1219  -11.7916   26.5906 C   0  0  0  0  0  0  0  0  0  0  0  0
    8.4698  -13.1084   26.8481 C   0  0  0  0  0  0  0  0  0  0  0  0
    7.7123  -14.1548   26.3874 C   0  0  0  0  0  0  0  0  0  0  0  0
   11.0357  -17.5328   27.0766 C   0  0  0  0  0  0  0  0  0  0  0  0
   11.4439  -18.7784   26.6494 O   0  0  0  0  0  0  0  0  0  0  0  0
   11.5846  -17.0319   28.0815 O   0  0  0  0  0  0  0  0  0  0  0  0
  2  1  1  6
  2  3  1  0
  4  3  1  0
  4  5  2  0
  6  2  1  0
  7  6  2  0
  8  4  1  0
 10  9  1  6
 10 12  1  0
 10 11  1  0
 11  6  1  0
 12 13  2  0
 14 15  1  0
 14 12  1  0
 15 16  1  1
 16 17  1  0
 17 25  1  0
 18 17  2  0
 18 19  1  0
 19 20  1  0
 20 21  1  0
 21 22  2  0
 23 22  1  0
 24 23  2  0
 25 20  2  0
 25 24  1  0
 26 27  1  0
 26 15  1  0
 28 26  2  0
M  END
$$$$
