DAW.pdb
     RDKit          3D

 28 29  0  0  1  0  0  0  0  0999 V2000
   11.4042  -14.8361   18.2508 N   0  0  0  0  0  0  0  0  0  0  0  0
   12.0226  -15.3739   19.4166 C   0  0  1  0  0  0  0  0  0  0  0  0
   13.2409  -14.5572   19.7716 C   0  0  0  0  0  0  0  0  0  0  0  0
   14.2536  -14.7982   18.7172 C   0  0  0  0  0  0  0  0  0  0  0  0
   14.3202  -15.9423   18.2106 O   0  0  0  0  0  0  0  0  0  0  0  0
   11.1169  -15.6251   20.5391 C   0  0  0  0  0  0  0  0  0  0  0  0
   10.8406  -14.6623   21.3190 O   0  0  0  0  0  0  0  0  0  0  0  0
   15.1295  -13.8308   18.2607 O   0  0  0  0  0  0  0  0  0  0  0  0
    8.7411  -18.2849   21.8038 C   0  0  0  0  0  0  0  0  0  0  0  0
    9.5254  -17.0112   21.9159 C   0  0  2  0  0  0  0  0  0  0  0  0
   10.5016  -16.8604   20.8540 N   0  0  0  0  0  0  0  0  0  0  0  0
   10.1602  -16.8625   23.2586 C   0  0  0  0  0  0  0  0  0  0  0  0
   11.4045  -17.0523   23.4324 O   0  0  0  0  0  0  0  0  0  0  0  0
    9.4224  -16.5033   24.4152 N   0  0  0  0  0  0  0  0  0  0  0  0
    9.9579  -16.4695   25.7618 C   0  0  1  0  0  0  0  0  0  0  0  0
    9.5564  -15.2580   26.5224 C   0  0  0  0  0  0  0  0  0  0  0  0
    8.1418  -14.8338   26.3519 C   0  0  0  0  0  0  0  0  0  0  0  0
    7.0474  -15.7139   26.2526 C   0  0  0  0  0  0  0  0  0  0  0  0
    5.9344  -14.9903   26.1354 N   0  0  0  0  0  0  0  0  0  0  0  0
    6.2066  -13.6814   26.1488 C   0  0  0  0  0  0  0  0  0  0  0  0
    5.4168  -12.5640   26.0533 C   0  0  0  0  0  0  0  0  0  0  0  0
    5.9360  -11.2880   26.0837 C   0  0  0  0  0  0  0  0  0  0  0  0
    7.2982  -11.1902   26.2156 C   0  0  0  0  0  0  0  0  0  0  0  0
    8.1041  -12.3139   26.3130 C   0  0  0  0  0  0  0  0  0  0  0  0
    7.5778  -13.5801   26.2828 C   0  0  0  0  0  0  0  0  0  0  0  0
    9.8626  -17.7277   26.4961 C   0  0  0  0  0  0  0  0  0  0  0  0
   10.6699  -17.9416   27.5931 O   0  0  0  0  0  0  0  0  0  0  0  0
    9.0651  -18.6265   26.1520 O   0  0  0  0  0  0  0  0  0  0  0  0
  2  1  1  6
  2  3  1  0
  4  3  1  0
  4  5  2  0
  6  2  1  0
  7  6  2  0
  8  4  1  0
 10  9  1  1
 10 12  1  0
 10 11  1  0
 11  6  1  0
 12 13  2  0
 14 15  1  0
 14 12  1  0
 15 16  1  1
 16 17  1  0
 17 25  1  0
 18 17  2  0
 18 19  1  0
 19 20  1  0
 20 21  1  0
 21 22  2  0
 23 22  1  0
 24 23  2  0
 25 20  2  0
 25 24  1  0
 26 27  1  0
 26 15  1  0
 28 26  2  0
M  END
$$$$
