GLP.pdb
     RDKit          3D

 20 20  0  0  1  0  0  0  0  0999 V2000
   11.0569  -16.1381    2.3965 N   0  0  0  0  0  0  0  0  0  0  0  0
   11.8088  -15.0931    3.0598 C   0  0  0  0  0  0  0  0  0  0  0  0
   13.2338  -15.5282    3.2827 C   0  0  0  0  0  0  0  0  0  0  0  0
   13.6043  -16.7127    3.0836 O   0  0  0  0  0  0  0  0  0  0  0  0
   18.6159  -14.4440    3.0905 C   0  0  0  0  0  0  0  0  0  0  0  0
   17.8645  -13.8864    4.2787 C   0  0  1  0  0  0  0  0  0  0  0  0
   18.5062  -12.4840    4.4965 C   0  0  0  0  0  0  0  0  0  0  0  0
   16.4103  -13.6708    3.9924 C   0  0  0  0  0  0  0  0  0  0  0  0
   15.5357  -14.8779    4.0743 C   0  0  2  0  0  0  0  0  0  0  0  0
   14.1675  -14.5705    3.7268 N   0  0  0  0  0  0  0  0  0  0  0  0
   15.6541  -15.5362    5.3598 C   0  0  0  0  0  0  0  0  0  0  0  0
   14.7968  -15.2040    6.2693 O   0  0  0  0  0  0  0  0  0  0  0  0
   16.5906  -16.4989    5.7515 N   0  0  0  0  0  0  0  0  0  0  0  0
   17.6832  -17.2019    5.1331 C   0  0  0  0  0  0  0  0  0  0  0  0
   17.1727  -18.6444    5.3453 C   0  0  0  0  0  0  0  0  0  0  0  0
   16.9507  -18.5724    6.8644 C   0  0  0  0  0  0  0  0  0  0  0  0
   16.6439  -17.1127    7.1325 C   0  0  1  0  0  0  0  0  0  0  0  0
   17.7051  -16.4185    7.8841 C   0  0  0  0  0  0  0  0  0  0  0  0
   18.6146  -15.5782    7.2952 O   0  0  0  0  0  0  0  0  0  0  0  0
   17.7865  -16.5996    9.1209 O   0  0  0  0  0  0  0  0  0  0  0  0
  2  1  1  0
  3 10  1  0
  3  2  1  0
  4  3  2  0
  6  5  1  6
  6  8  1  0
  7  6  1  0
  9  8  1  1
  9 11  1  0
  9 10  1  0
 11 13  1  0
 12 11  2  0
 13 14  1  0
 13 17  1  0
 14 15  1  0
 15 16  1  0
 17 16  1  0
 17 18  1  1
 18 20  2  0
 18 19  1  0
M  END
$$$$
