GLP.pdb
     RDKit          3D

 20 20  0  0  1  0  0  0  0  0999 V2000
   28.9773  -18.8388  -17.3573 N   0  0  0  0  0  0  0  0  0  0  0  0
   28.0849  -18.3076  -16.3481 C   0  0  0  0  0  0  0  0  0  0  0  0
   27.3326  -19.4222  -15.6689 C   0  0  0  0  0  0  0  0  0  0  0  0
   27.1084  -20.5174  -16.2436 O   0  0  0  0  0  0  0  0  0  0  0  0
   26.1701  -22.2596  -11.0508 C   0  0  0  0  0  0  0  0  0  0  0  0
   25.4537  -20.9475  -11.2799 C   0  0  1  0  0  0  0  0  0  0  0  0
   25.3747  -20.3165   -9.8581 C   0  0  0  0  0  0  0  0  0  0  0  0
   26.2364  -20.0056  -12.1420 C   0  0  0  0  0  0  0  0  0  0  0  0
   26.0802  -20.1766  -13.6169 C   0  0  2  0  0  0  0  0  0  0  0  0
   26.8729  -19.2184  -14.3523 N   0  0  0  0  0  0  0  0  0  0  0  0
   24.6854  -20.1709  -14.0097 C   0  0  0  0  0  0  0  0  0  0  0  0
   24.1447  -19.0178  -14.2342 O   0  0  0  0  0  0  0  0  0  0  0  0
   23.8340  -21.2678  -14.1797 N   0  0  0  0  0  0  0  0  0  0  0  0
   23.9074  -22.6879  -13.9594 C   0  0  0  0  0  0  0  0  0  0  0  0
   23.6312  -23.1554  -15.4057 C   0  0  0  0  0  0  0  0  0  0  0  0
   22.3175  -22.3904  -15.6316 C   0  0  0  0  0  0  0  0  0  0  0  0
   22.4326  -21.1707  -14.7396 C   0  0  1  0  0  0  0  0  0  0  0  0
   21.4988  -21.1875  -13.5991 C   0  0  0  0  0  0  0  0  0  0  0  0
   20.1880  -20.7976  -13.6971 O   0  0  0  0  0  0  0  0  0  0  0  0
   21.9152  -21.5755  -12.4833 O   0  0  0  0  0  0  0  0  0  0  0  0
  2  1  1  0
  3 10  1  0
  3  2  1  0
  4  3  2  0
  6  5  1  1
  6  8  1  0
  7  6  1  0
  9  8  1  1
  9 11  1  0
  9 10  1  0
 11 13  1  0
 12 11  2  0
 13 14  1  0
 13 17  1  0
 14 15  1  0
 15 16  1  0
 17 16  1  0
 17 18  1  1
 18 20  2  0
 18 19  1  0
M  END
$$$$
