GLP.pdb
     RDKit          3D

 20 20  0  0  1  0  0  0  0  0999 V2000
   18.0129  -13.8710  -17.1690 N   0  0  0  0  0  0  0  0  0  0  0  0
   18.9792  -12.9301  -17.6964 C   0  0  0  0  0  0  0  0  0  0  0  0
   19.6527  -12.1810  -16.5761 C   0  0  0  0  0  0  0  0  0  0  0  0
   19.0846  -11.9886  -15.4715 O   0  0  0  0  0  0  0  0  0  0  0  0
   25.0761  -12.7732  -15.5464 C   0  0  0  0  0  0  0  0  0  0  0  0
   23.5820  -12.5659  -15.4369 C   0  0  1  0  0  0  0  0  0  0  0  0
   23.3055  -12.6708  -13.9077 C   0  0  0  0  0  0  0  0  0  0  0  0
   23.1557  -11.1980  -15.8734 C   0  0  0  0  0  0  0  0  0  0  0  0
   21.6916  -10.9126  -15.8131 C   0  0  2  0  0  0  0  0  0  0  0  0
   20.9561  -11.6876  -16.7856 N   0  0  0  0  0  0  0  0  0  0  0  0
   21.4208   -9.4921  -15.9061 C   0  0  0  0  0  0  0  0  0  0  0  0
   21.2596   -9.0029  -17.0924 O   0  0  0  0  0  0  0  0  0  0  0  0
   21.3101   -8.5662  -14.8633 N   0  0  0  0  0  0  0  0  0  0  0  0
   21.4749   -8.5820  -13.4338 C   0  0  0  0  0  0  0  0  0  0  0  0
   20.0534   -8.1251  -13.0375 C   0  0  0  0  0  0  0  0  0  0  0  0
   19.9982   -6.8404  -13.8793 C   0  0  0  0  0  0  0  0  0  0  0  0
   20.9112   -7.1204  -15.0560 C   0  0  1  0  0  0  0  0  0  0  0  0
   22.1463   -6.3158  -15.0450 C   0  0  0  0  0  0  0  0  0  0  0  0
   23.3844   -6.8456  -14.7877 O   0  0  0  0  0  0  0  0  0  0  0  0
   22.0694   -5.0881  -15.2813 O   0  0  0  0  0  0  0  0  0  0  0  0
  2  1  1  0
  3 10  1  0
  3  2  1  0
  4  3  2  0
  6  5  1  1
  6  8  1  0
  7  6  1  0
  9  8  1  6
  9 11  1  0
  9 10  1  0
 11 13  1  0
 12 11  2  0
 13 14  1  0
 13 17  1  0
 14 15  1  0
 15 16  1  0
 17 16  1  0
 17 18  1  1
 18 20  2  0
 18 19  1  0
M  END
$$$$
