WMM.pdb
     RDKit          3D

 31 32  0  0  1  0  0  0  0  0999 V2000
    5.6211  -19.5304   23.0663 N   0  0  0  0  0  0  0  0  0  0  0  0
    6.4123  -18.8740   24.0689 C   0  0  1  0  0  0  0  0  0  0  0  0
    7.5073  -19.7369   24.6229 C   0  0  0  0  0  0  0  0  0  0  0  0
    7.4801  -19.8594   26.0856 C   0  0  0  0  0  0  0  0  0  0  0  0
    6.8741  -20.8651   26.7944 C   0  0  0  0  0  0  0  0  0  0  0  0
    7.0541  -20.6425   28.0925 N   0  0  0  0  0  0  0  0  0  0  0  0
    7.7669  -19.5093   28.2299 C   0  0  0  0  0  0  0  0  0  0  0  0
    8.2367  -18.8150   29.3275 C   0  0  0  0  0  0  0  0  0  0  0  0
    8.9567  -17.6586   29.1967 C   0  0  0  0  0  0  0  0  0  0  0  0
    9.2472  -17.1314   27.9545 C   0  0  0  0  0  0  0  0  0  0  0  0
    8.7885  -17.8075   26.8524 C   0  0  0  0  0  0  0  0  0  0  0  0
    8.0566  -18.9822   26.9721 C   0  0  0  0  0  0  0  0  0  0  0  0
    7.0413  -17.6435   23.5033 C   0  0  0  0  0  0  0  0  0  0  0  0
    7.7066  -17.6660   22.4394 O   0  0  0  0  0  0  0  0  0  0  0  0
    6.6489  -11.0872   25.9006 C   0  0  0  0  0  0  0  0  0  0  0  0
    6.0898  -12.6643   26.4585 S   0  0  0  0  0  0  0  0  0  0  0  0
    5.8547  -13.9563   25.2892 C   0  0  0  0  0  0  0  0  0  0  0  0
    6.6807  -13.9731   24.0492 C   0  0  0  0  0  0  0  0  0  0  0  0
    7.4227  -15.1460   23.6400 C   0  0  2  0  0  0  0  0  0  0  0  0
    6.9100  -16.4088   24.1458 N   0  0  0  0  0  0  0  0  0  0  0  0
    8.8668  -15.1554   23.9474 C   0  0  0  0  0  0  0  0  0  0  0  0
    9.5625  -14.0616   23.8331 O   0  0  0  0  0  0  0  0  0  0  0  0
   10.7728  -13.4280   28.7314 C   0  0  0  0  0  0  0  0  0  0  0  0
   11.7583  -14.9495   28.8923 S   0  0  0  0  0  0  0  0  0  0  0  0
   12.0261  -15.6140   27.2354 C   0  0  0  0  0  0  0  0  0  0  0  0
   10.7080  -15.6479   26.4803 C   0  0  0  0  0  0  0  0  0  0  0  0
   10.9412  -16.0956   25.0349 C   0  0  2  0  0  0  0  0  0  0  0  0
    9.6434  -16.2420   24.3738 N   0  0  0  0  0  0  0  0  0  0  0  0
   11.6170  -17.4033   25.0810 C   0  0  0  0  0  0  0  0  0  0  0  0
   12.9397  -17.4541   25.4931 O   0  0  0  0  0  0  0  0  0  0  0  0
   11.0045  -18.4499   24.7530 O   0  0  0  0  0  0  0  0  0  0  0  0
  2  1  1  6
  2 13  1  0
  2  3  1  0
  3  4  1  0
  4  5  2  0
  5  6  1  0
  7  6  1  0
  8  7  2  0
  9  8  1  0
 10 11  1  0
 10  9  2  0
 11 12  2  0
 12  4  1  0
 12  7  1  0
 13 14  2  0
 16 15  1  0
 16 17  1  0
 18 17  1  0
 19 18  1  1
 19 21  1  0
 20 19  1  0
 20 13  1  0
 21 28  1  0
 22 21  2  0
 23 24  1  0
 24 25  1  0
 25 26  1  0
 27 26  1  1
 27 29  1  0
 28 27  1  0
 29 31  2  0
 29 30  1  0
M  END
$$$$
