WMM.pdb
     RDKit          3D

 31 32  0  0  1  0  0  0  0  0999 V2000
    6.7647  -19.0173   24.8374 N   0  0  0  0  0  0  0  0  0  0  0  0
    6.9479  -17.6080   24.6320 C   0  0  1  0  0  0  0  0  0  0  0  0
    7.5154  -16.9006   25.8270 C   0  0  0  0  0  0  0  0  0  0  0  0
    6.7586  -15.7059   26.2208 C   0  0  0  0  0  0  0  0  0  0  0  0
    5.4893  -15.6967   26.7406 C   0  0  0  0  0  0  0  0  0  0  0  0
    5.1311  -14.4378   26.9729 N   0  0  0  0  0  0  0  0  0  0  0  0
    6.1502  -13.6370   26.6110 C   0  0  0  0  0  0  0  0  0  0  0  0
    6.3303  -12.2677   26.6318 C   0  0  0  0  0  0  0  0  0  0  0  0
    7.4902  -11.6851   26.1986 C   0  0  0  0  0  0  0  0  0  0  0  0
    8.5383  -12.4444   25.7184 C   0  0  0  0  0  0  0  0  0  0  0  0
    8.3774  -13.8065   25.6900 C   0  0  0  0  0  0  0  0  0  0  0  0
    7.2048  -14.4098   26.1270 C   0  0  0  0  0  0  0  0  0  0  0  0
    7.8687  -17.3718   23.4804 C   0  0  0  0  0  0  0  0  0  0  0  0
    8.7949  -18.1693   23.1956 O   0  0  0  0  0  0  0  0  0  0  0  0
    7.9888  -11.3852   19.6921 C   0  0  0  0  0  0  0  0  0  0  0  0
    8.4443  -12.8164   18.7673 S   0  0  0  0  0  0  0  0  0  0  0  0
    8.9800  -14.2573   19.6209 C   0  0  0  0  0  0  0  0  0  0  0  0
    8.2257  -14.7123   20.8227 C   0  0  0  0  0  0  0  0  0  0  0  0
    8.6069  -15.8959   21.5625 C   0  0  2  0  0  0  0  0  0  0  0  0
    7.7303  -16.2414   22.6695 N   0  0  0  0  0  0  0  0  0  0  0  0
    9.9735  -15.9150   22.1210 C   0  0  0  0  0  0  0  0  0  0  0  0
   11.0017  -15.8846   21.3239 O   0  0  0  0  0  0  0  0  0  0  0  0
   10.3312  -13.6372   28.6703 C   0  0  0  0  0  0  0  0  0  0  0  0
   11.1838  -15.0572   27.9162 S   0  0  0  0  0  0  0  0  0  0  0  0
   11.1015  -14.8646   26.1232 C   0  0  0  0  0  0  0  0  0  0  0  0
   11.7579  -16.0589   25.4513 C   0  0  0  0  0  0  0  0  0  0  0  0
   11.7328  -15.8862   23.9303 C   0  0  2  0  0  0  0  0  0  0  0  0
   10.3446  -15.9615   23.4723 N   0  0  0  0  0  0  0  0  0  0  0  0
   12.5015  -16.9987   23.3467 C   0  0  0  0  0  0  0  0  0  0  0  0
   11.8345  -17.9307   22.5665 O   0  0  0  0  0  0  0  0  0  0  0  0
   13.7366  -17.0984   23.5535 O   0  0  0  0  0  0  0  0  0  0  0  0
  2  1  1  1
  2 13  1  0
  2  3  1  0
  3  4  1  0
  4  5  2  0
  5  6  1  0
  7  6  1  0
  8  7  2  0
  9  8  1  0
 10 11  1  0
 10  9  2  0
 11 12  2  0
 12  4  1  0
 12  7  1  0
 13 14  2  0
 16 15  1  0
 16 17  1  0
 18 17  1  0
 19 18  1  1
 19 21  1  0
 20 19  1  0
 20 13  1  0
 21 28  1  0
 22 21  2  0
 23 24  1  0
 24 25  1  0
 25 26  1  0
 27 26  1  1
 27 29  1  0
 28 27  1  0
 29 31  2  0
 29 30  1  0
M  END
$$$$
