WMM.pdb
     RDKit          3D

 31 32  0  0  1  0  0  0  0  0999 V2000
    7.2641  -17.6115   22.7819 N   0  0  0  0  0  0  0  0  0  0  0  0
    8.2904  -16.7098   23.2241 C   0  0  1  0  0  0  0  0  0  0  0  0
    8.3458  -16.5555   24.7153 C   0  0  0  0  0  0  0  0  0  0  0  0
    7.2594  -15.7355   25.2652 C   0  0  0  0  0  0  0  0  0  0  0  0
    6.1134  -16.2112   25.8498 C   0  0  0  0  0  0  0  0  0  0  0  0
    5.3639  -15.1793   26.2244 N   0  0  0  0  0  0  0  0  0  0  0  0
    6.0099  -14.0470   25.8902 C   0  0  0  0  0  0  0  0  0  0  0  0
    5.7076  -12.7074   26.0371 C   0  0  0  0  0  0  0  0  0  0  0  0
    6.5545  -11.7240   25.6030 C   0  0  0  0  0  0  0  0  0  0  0  0
    7.7558  -12.0290   24.9951 C   0  0  0  0  0  0  0  0  0  0  0  0
    8.0729  -13.3547   24.8403 C   0  0  0  0  0  0  0  0  0  0  0  0
    7.2216  -14.3621   25.2768 C   0  0  0  0  0  0  0  0  0  0  0  0
    9.6280  -17.1877   22.7635 C   0  0  0  0  0  0  0  0  0  0  0  0
    9.7945  -18.3348   22.2826 O   0  0  0  0  0  0  0  0  0  0  0  0
    9.8413  -14.6286   28.8180 C   0  0  0  0  0  0  0  0  0  0  0  0
   11.1579  -15.0510   27.7230 S   0  0  0  0  0  0  0  0  0  0  0  0
   11.1749  -14.3781   26.0986 C   0  0  0  0  0  0  0  0  0  0  0  0
   10.5840  -15.1652   24.9799 C   0  0  0  0  0  0  0  0  0  0  0  0
   11.4003  -15.9649   24.0923 C   0  0  2  0  0  0  0  0  0  0  0  0
   10.7550  -16.3651   22.8526 N   0  0  0  0  0  0  0  0  0  0  0  0
   11.9725  -17.2035   24.6566 C   0  0  0  0  0  0  0  0  0  0  0  0
   11.1865  -18.1720   25.0278 O   0  0  0  0  0  0  0  0  0  0  0  0
   17.1479  -16.3457   22.4202 C   0  0  0  0  0  0  0  0  0  0  0  0
   16.1758  -16.6585   23.9267 S   0  0  0  0  0  0  0  0  0  0  0  0
   15.9206  -18.4404   24.0614 C   0  0  0  0  0  0  0  0  0  0  0  0
   15.3287  -18.7695   25.4216 C   0  0  0  0  0  0  0  0  0  0  0  0
   13.8006  -18.8055   25.3356 C   0  0  2  0  0  0  0  0  0  0  0  0
   13.3265  -17.5049   24.8599 N   0  0  0  0  0  0  0  0  0  0  0  0
   13.2873  -19.0460   26.6949 C   0  0  0  0  0  0  0  0  0  0  0  0
   13.3076  -20.3391   27.1944 O   0  0  0  0  0  0  0  0  0  0  0  0
   12.8406  -18.0963   27.3855 O   0  0  0  0  0  0  0  0  0  0  0  0
  2  1  1  1
  2 13  1  0
  2  3  1  0
  3  4  1  0
  4  5  2  0
  5  6  1  0
  7  6  1  0
  8  7  2  0
  9  8  1  0
 10 11  1  0
 10  9  2  0
 11 12  2  0
 12  4  1  0
 12  7  1  0
 13 14  2  0
 16 15  1  0
 16 17  1  0
 18 17  1  0
 19 18  1  1
 19 21  1  0
 20 19  1  0
 20 13  1  0
 21 28  1  0
 22 21  2  0
 23 24  1  0
 24 25  1  0
 25 26  1  0
 27 26  1  1
 27 29  1  0
 28 27  1  0
 29 31  2  0
 29 30  1  0
M  END
$$$$
