WMM.pdb
     RDKit          3D

 31 32  0  0  1  0  0  0  0  0999 V2000
    8.6612  -18.9100   20.6776 N   0  0  0  0  0  0  0  0  0  0  0  0
    9.7882  -18.1180   20.2719 C   0  0  1  0  0  0  0  0  0  0  0  0
    9.7432  -17.7136   18.8280 C   0  0  0  0  0  0  0  0  0  0  0  0
    9.3303  -18.7943   17.9244 C   0  0  0  0  0  0  0  0  0  0  0  0
    8.0420  -19.0738   17.5455 C   0  0  0  0  0  0  0  0  0  0  0  0
    8.0545  -20.1198   16.7253 N   0  0  0  0  0  0  0  0  0  0  0  0
    9.3307  -20.5174   16.5702 C   0  0  0  0  0  0  0  0  0  0  0  0
    9.9235  -21.5322   15.8447 C   0  0  0  0  0  0  0  0  0  0  0  0
   11.2774  -21.7311   15.8540 C   0  0  0  0  0  0  0  0  0  0  0  0
   12.1160  -20.9216   16.5935 C   0  0  0  0  0  0  0  0  0  0  0  0
   11.5450  -19.9082   17.3207 C   0  0  0  0  0  0  0  0  0  0  0  0
   10.1721  -19.6961   17.3194 C   0  0  0  0  0  0  0  0  0  0  0  0
    9.8643  -16.8734   21.0935 C   0  0  0  0  0  0  0  0  0  0  0  0
   10.7077  -15.9737   20.8605 O   0  0  0  0  0  0  0  0  0  0  0  0
    5.8966  -14.6238   26.3027 C   0  0  0  0  0  0  0  0  0  0  0  0
    7.2236  -13.5551   25.8465 S   0  0  0  0  0  0  0  0  0  0  0  0
    7.8623  -13.6275   24.2099 C   0  0  0  0  0  0  0  0  0  0  0  0
    7.8785  -14.9340   23.4935 C   0  0  0  0  0  0  0  0  0  0  0  0
    9.1147  -15.6023   23.1488 C   0  0  2  0  0  0  0  0  0  0  0  0
    8.9891  -16.6637   22.1634 N   0  0  0  0  0  0  0  0  0  0  0  0
    9.8824  -16.1896   24.2650 C   0  0  0  0  0  0  0  0  0  0  0  0
   10.0389  -17.4794   24.3381 O   0  0  0  0  0  0  0  0  0  0  0  0
   12.0804  -12.2865   28.4471 C   0  0  0  0  0  0  0  0  0  0  0  0
   10.7794  -13.2693   29.2556 S   0  0  0  0  0  0  0  0  0  0  0  0
   10.3388  -14.6240   28.1469 C   0  0  0  0  0  0  0  0  0  0  0  0
   11.5909  -15.1590   27.4725 C   0  0  0  0  0  0  0  0  0  0  0  0
   11.2143  -16.1935   26.4087 C   0  0  2  0  0  0  0  0  0  0  0  0
   10.5079  -15.5134   25.3219 N   0  0  0  0  0  0  0  0  0  0  0  0
   10.3124  -17.1704   27.0423 C   0  0  0  0  0  0  0  0  0  0  0  0
   10.8657  -18.2020   27.7852 O   0  0  0  0  0  0  0  0  0  0  0  0
    9.0673  -17.0684   26.9103 O   0  0  0  0  0  0  0  0  0  0  0  0
  2  1  1  1
  2 13  1  0
  2  3  1  0
  3  4  1  0
  4  5  2  0
  5  6  1  0
  7  6  1  0
  8  7  2  0
  9  8  1  0
 10 11  1  0
 10  9  2  0
 11 12  2  0
 12  4  1  0
 12  7  1  0
 13 14  2  0
 16 15  1  0
 16 17  1  0
 18 17  1  0
 19 18  1  1
 19 21  1  0
 20 19  1  0
 20 13  1  0
 21 28  1  0
 22 21  2  0
 23 24  1  0
 24 25  1  0
 25 26  1  0
 27 26  1  1
 27 29  1  0
 28 27  1  0
 29 31  2  0
 29 30  1  0
M  END
$$$$
