WMM.pdb
     RDKit          3D

 31 32  0  0  1  0  0  0  0  0999 V2000
    6.3334  -18.2881   23.8505 N   0  0  0  0  0  0  0  0  0  0  0  0
    7.0171  -17.0297   23.7467 C   0  0  1  0  0  0  0  0  0  0  0  0
    7.4521  -16.4769   25.0717 C   0  0  0  0  0  0  0  0  0  0  0  0
    6.6497  -15.3354   25.5278 C   0  0  0  0  0  0  0  0  0  0  0  0
    5.5379  -15.4061   26.3279 C   0  0  0  0  0  0  0  0  0  0  0  0
    5.0760  -14.1759   26.5285 N   0  0  0  0  0  0  0  0  0  0  0  0
    5.8735  -13.3147   25.8703 C   0  0  0  0  0  0  0  0  0  0  0  0
    5.8699  -11.9406   25.7305 C   0  0  0  0  0  0  0  0  0  0  0  0
    6.8166  -11.2876   24.9889 C   0  0  0  0  0  0  0  0  0  0  0  0
    7.8233  -11.9773   24.3435 C   0  0  0  0  0  0  0  0  0  0  0  0
    7.8428  -13.3431   24.4709 C   0  0  0  0  0  0  0  0  0  0  0  0
    6.8875  -14.0175   25.2209 C   0  0  0  0  0  0  0  0  0  0  0  0
    8.2317  -17.1737   22.8900 C   0  0  0  0  0  0  0  0  0  0  0  0
    8.8204  -18.2733   22.7510 O   0  0  0  0  0  0  0  0  0  0  0  0
    6.2507  -13.5344   20.4498 C   0  0  0  0  0  0  0  0  0  0  0  0
    8.0009  -13.3155   20.4402 S   0  0  0  0  0  0  0  0  0  0  0  0
    9.0193  -14.5603   19.7297 C   0  0  0  0  0  0  0  0  0  0  0  0
   10.1938  -15.0632   20.4965 C   0  0  0  0  0  0  0  0  0  0  0  0
   10.0571  -16.0515   21.5445 C   0  0  2  0  0  0  0  0  0  0  0  0
    8.7621  -16.0766   22.2046 N   0  0  0  0  0  0  0  0  0  0  0  0
   11.0535  -16.0030   22.6330 C   0  0  0  0  0  0  0  0  0  0  0  0
   12.3213  -16.1066   22.3584 O   0  0  0  0  0  0  0  0  0  0  0  0
   10.3578  -14.6063   29.0447 C   0  0  0  0  0  0  0  0  0  0  0  0
   11.4664  -16.0482   29.1055 S   0  0  0  0  0  0  0  0  0  0  0  0
   12.2419  -16.2197   27.4844 C   0  0  0  0  0  0  0  0  0  0  0  0
   11.1867  -16.0944   26.3984 C   0  0  0  0  0  0  0  0  0  0  0  0
   11.8553  -15.9795   25.0260 C   0  0  2  0  0  0  0  0  0  0  0  0
   10.8137  -15.8493   24.0058 N   0  0  0  0  0  0  0  0  0  0  0  0
   12.6111  -17.2228   24.7974 C   0  0  0  0  0  0  0  0  0  0  0  0
   13.9892  -17.2003   24.9467 O   0  0  0  0  0  0  0  0  0  0  0  0
   12.0160  -18.2808   24.4736 O   0  0  0  0  0  0  0  0  0  0  0  0
  2  1  1  1
  2 13  1  0
  2  3  1  0
  3  4  1  0
  4  5  2  0
  5  6  1  0
  7  6  1  0
  8  7  2  0
  9  8  1  0
 10 11  1  0
 10  9  2  0
 11 12  2  0
 12  4  1  0
 12  7  1  0
 13 14  2  0
 16 15  1  0
 16 17  1  0
 18 17  1  0
 19 18  1  6
 19 21  1  0
 20 19  1  0
 20 13  1  0
 21 28  1  0
 22 21  2  0
 23 24  1  0
 24 25  1  0
 25 26  1  0
 27 26  1  1
 27 29  1  0
 28 27  1  0
 29 31  2  0
 29 30  1  0
M  END
$$$$
