WMM.pdb
     RDKit          3D

 31 32  0  0  1  0  0  0  0  0999 V2000
    6.6518  -18.2407   25.0637 N   0  0  0  0  0  0  0  0  0  0  0  0
    7.0535  -17.0553   24.3600 C   0  0  1  0  0  0  0  0  0  0  0  0
    7.5745  -15.9751   25.2614 C   0  0  0  0  0  0  0  0  0  0  0  0
    6.5246  -15.1152   25.8211 C   0  0  0  0  0  0  0  0  0  0  0  0
    5.4880  -15.5310   26.6173 C   0  0  0  0  0  0  0  0  0  0  0  0
    4.7385  -14.4783   26.9287 N   0  0  0  0  0  0  0  0  0  0  0  0
    5.2770  -13.3915   26.3456 C   0  0  0  0  0  0  0  0  0  0  0  0
    4.9258  -12.0558   26.3284 C   0  0  0  0  0  0  0  0  0  0  0  0
    5.6585  -11.1251   25.6431 C   0  0  0  0  0  0  0  0  0  0  0  0
    6.7878  -11.4819   24.9340 C   0  0  0  0  0  0  0  0  0  0  0  0
    7.1520  -12.8045   24.9394 C   0  0  0  0  0  0  0  0  0  0  0  0
    6.4166  -13.7587   25.6313 C   0  0  0  0  0  0  0  0  0  0  0  0
    8.1239  -17.3821   23.3715 C   0  0  0  0  0  0  0  0  0  0  0  0
    8.7436  -18.4730   23.3992 O   0  0  0  0  0  0  0  0  0  0  0  0
    7.9218  -11.8671   21.1993 C   0  0  0  0  0  0  0  0  0  0  0  0
    8.0061  -13.6269   21.1145 S   0  0  0  0  0  0  0  0  0  0  0  0
    9.3451  -14.3836   20.2624 C   0  0  0  0  0  0  0  0  0  0  0  0
    9.4111  -15.8703   20.1874 C   0  0  0  0  0  0  0  0  0  0  0  0
    9.5147  -16.6925   21.3735 C   0  0  2  0  0  0  0  0  0  0  0  0
    8.4776  -16.4744   22.3687 N   0  0  0  0  0  0  0  0  0  0  0  0
   10.7908  -16.6281   22.1133 C   0  0  0  0  0  0  0  0  0  0  0  0
   11.9141  -16.5283   21.4638 O   0  0  0  0  0  0  0  0  0  0  0  0
   11.6968  -15.7891   28.9407 C   0  0  0  0  0  0  0  0  0  0  0  0
   10.4659  -15.6857   27.6043 S   0  0  0  0  0  0  0  0  0  0  0  0
   11.3503  -15.3952   26.0576 C   0  0  0  0  0  0  0  0  0  0  0  0
   12.1059  -16.6516   25.6585 C   0  0  0  0  0  0  0  0  0  0  0  0
   12.2939  -16.6922   24.1397 C   0  0  2  0  0  0  0  0  0  0  0  0
   10.9764  -16.6586   23.5027 N   0  0  0  0  0  0  0  0  0  0  0  0
   12.9636  -17.9621   23.8113 C   0  0  0  0  0  0  0  0  0  0  0  0
   14.2686  -18.1554   24.2377 O   0  0  0  0  0  0  0  0  0  0  0  0
   12.3619  -18.8504   23.1578 O   0  0  0  0  0  0  0  0  0  0  0  0
  2  1  1  1
  2 13  1  0
  2  3  1  0
  3  4  1  0
  4  5  2  0
  5  6  1  0
  7  6  1  0
  8  7  2  0
  9  8  1  0
 10 11  1  0
 10  9  2  0
 11 12  2  0
 12  4  1  0
 12  7  1  0
 13 14  2  0
 16 15  1  0
 16 17  1  0
 18 17  1  0
 19 18  1  6
 19 21  1  0
 20 19  1  0
 20 13  1  0
 21 28  1  0
 22 21  2  0
 23 24  1  0
 24 25  1  0
 25 26  1  0
 27 26  1  1
 27 29  1  0
 28 27  1  0
 29 31  2  0
 29 30  1  0
M  END
$$$$
