SNL.pdb
     RDKit          3D

 23 22  0  0  1  0  0  0  0  0999 V2000
   27.8955  -18.7443  -18.0191 O   0  0  0  0  0  0  0  0  0  0  0  0
   27.4562  -18.8954  -16.7048 C   0  0  0  0  0  0  0  0  0  0  0  0
   28.0319  -20.1365  -16.0624 C   0  0  2  0  0  0  0  0  0  0  0  0
   28.3436  -21.0883  -17.1079 N   0  0  0  0  0  0  0  0  0  0  0  0
   27.0497  -20.7388  -15.0928 C   0  0  0  0  0  0  0  0  0  0  0  0
   26.2287  -21.6018  -15.4708 O   0  0  0  0  0  0  0  0  0  0  0  0
   24.5220  -21.4198  -10.4666 N   0  0  0  0  0  0  0  0  0  0  0  0
   25.6699  -20.6473  -10.2491 C   0  0  0  0  0  0  0  0  0  0  0  0
   25.9822  -20.3636   -9.0522 O   0  0  0  0  0  0  0  0  0  0  0  0
   26.5446  -20.1398  -11.3364 C   0  0  0  0  0  0  0  0  0  0  0  0
   26.0932  -20.6034  -12.7141 C   0  0  2  0  0  0  0  0  0  0  0  0
   27.0598  -20.3253  -13.7567 N   0  0  0  0  0  0  0  0  0  0  0  0
   24.7749  -20.0297  -13.0689 C   0  0  0  0  0  0  0  0  0  0  0  0
   24.6908  -18.8590  -13.5855 O   0  0  0  0  0  0  0  0  0  0  0  0
   20.7075  -20.8650  -16.4542 C   0  0  0  0  0  0  0  0  0  0  0  0
   21.5317  -19.6773  -15.8485 C   0  0  1  0  0  0  0  0  0  0  0  0
   20.4612  -18.8925  -15.0833 C   0  0  0  0  0  0  0  0  0  0  0  0
   22.5888  -20.2365  -14.9727 C   0  0  0  0  0  0  0  0  0  0  0  0
   22.3372  -20.2660  -13.5209 C   0  0  2  0  0  0  0  0  0  0  0  0
   23.5846  -20.7586  -12.8461 N   0  0  0  0  0  0  0  0  0  0  0  0
   21.2246  -21.0466  -12.9908 C   0  0  0  0  0  0  0  0  0  0  0  0
   21.4516  -22.2905  -12.7269 O   0  0  0  0  0  0  0  0  0  0  0  0
   19.9365  -20.5927  -12.7275 O   0  0  0  0  0  0  0  0  0  0  0  0
  2  3  1  0
  2  1  1  0
  3  5  1  0
  3  4  1  6
  5  6  2  0
  7  8  1  0
  8 10  1  0
  9  8  2  0
 11 10  1  1
 11 13  1  0
 12 11  1  0
 12  5  1  0
 13 20  1  0
 14 13  2  0
 16 17  1  1
 16 15  1  0
 18 16  1  0
 19 18  1  6
 20 19  1  0
 21 23  1  0
 21 19  1  0
 22 21  2  0
M  END
$$$$
