SNL.pdb
     RDKit          3D

 23 22  0  0  1  0  0  0  0  0999 V2000
   16.5711   -7.4728  -18.9147 O   0  0  0  0  0  0  0  0  0  0  0  0
   17.5448   -8.4608  -18.7770 C   0  0  0  0  0  0  0  0  0  0  0  0
   17.6230   -8.9742  -17.3576 C   0  0  2  0  0  0  0  0  0  0  0  0
   16.3372   -9.5389  -17.0054 N   0  0  0  0  0  0  0  0  0  0  0  0
   17.9749   -7.8606  -16.4071 C   0  0  0  0  0  0  0  0  0  0  0  0
   17.0839   -7.2690  -15.7608 O   0  0  0  0  0  0  0  0  0  0  0  0
   21.0216   -4.7349  -13.4295 N   0  0  0  0  0  0  0  0  0  0  0  0
   21.8249   -5.7057  -14.0410 C   0  0  0  0  0  0  0  0  0  0  0  0
   23.0490   -5.7636  -13.7113 O   0  0  0  0  0  0  0  0  0  0  0  0
   21.3295   -6.6724  -15.0534 C   0  0  0  0  0  0  0  0  0  0  0  0
   19.8709   -6.4383  -15.4204 C   0  0  2  0  0  0  0  0  0  0  0  0
   19.3137   -7.4878  -16.2490 N   0  0  0  0  0  0  0  0  0  0  0  0
   19.6847   -5.1192  -16.0671 C   0  0  0  0  0  0  0  0  0  0  0  0
   19.6649   -5.0164  -17.3453 O   0  0  0  0  0  0  0  0  0  0  0  0
   17.6934   -1.5014  -18.5440 C   0  0  0  0  0  0  0  0  0  0  0  0
   17.4433   -1.2813  -17.0124 C   0  0  1  0  0  0  0  0  0  0  0  0
   15.9284   -1.0594  -16.9565 C   0  0  0  0  0  0  0  0  0  0  0  0
   17.8868   -2.4938  -16.2842 C   0  0  0  0  0  0  0  0  0  0  0  0
   19.3289   -2.6546  -16.0266 C   0  0  2  0  0  0  0  0  0  0  0  0
   19.5251   -3.9487  -15.2912 N   0  0  0  0  0  0  0  0  0  0  0  0
   20.0556   -1.6266  -15.2895 C   0  0  0  0  0  0  0  0  0  0  0  0
   20.1964   -0.4787  -15.8648 O   0  0  0  0  0  0  0  0  0  0  0  0
   20.6110   -1.7444  -14.0197 O   0  0  0  0  0  0  0  0  0  0  0  0
  2  3  1  0
  2  1  1  0
  3  5  1  0
  3  4  1  1
  5  6  2  0
  7  8  1  0
  8 10  1  0
  9  8  2  0
 11 10  1  6
 11 13  1  0
 12 11  1  0
 12  5  1  0
 13 20  1  0
 14 13  2  0
 16 17  1  6
 16 15  1  0
 18 16  1  0
 19 18  1  1
 20 19  1  0
 21 23  1  0
 21 19  1  0
 22 21  2  0
M  END
$$$$
