SNL.pdb
     RDKit          3D

 23 22  0  0  1  0  0  0  0  0999 V2000
   19.0482  -12.6105  -16.0444 O   0  0  0  0  0  0  0  0  0  0  0  0
   18.1860  -12.6851  -17.1372 C   0  0  0  0  0  0  0  0  0  0  0  0
   17.0412  -11.7059  -17.0137 C   0  0  2  0  0  0  0  0  0  0  0  0
   16.1741  -11.8710  -18.1614 N   0  0  0  0  0  0  0  0  0  0  0  0
   17.5543  -10.2915  -16.9543 C   0  0  0  0  0  0  0  0  0  0  0  0
   18.2720   -9.8349  -17.8698 O   0  0  0  0  0  0  0  0  0  0  0  0
   14.0698   -7.3414  -15.2945 N   0  0  0  0  0  0  0  0  0  0  0  0
   15.3808   -7.0663  -15.7035 C   0  0  0  0  0  0  0  0  0  0  0  0
   15.5566   -6.5830  -16.8636 O   0  0  0  0  0  0  0  0  0  0  0  0
   16.5789   -7.3068  -14.8599 C   0  0  0  0  0  0  0  0  0  0  0  0
   17.6424   -8.1275  -15.5755 C   0  0  2  0  0  0  0  0  0  0  0  0
   17.2221   -9.4840  -15.8616 N   0  0  0  0  0  0  0  0  0  0  0  0
   18.9160   -8.1325  -14.8200 C   0  0  0  0  0  0  0  0  0  0  0  0
   19.2292   -9.1291  -14.0762 O   0  0  0  0  0  0  0  0  0  0  0  0
   23.0535   -9.8068  -13.2955 C   0  0  0  0  0  0  0  0  0  0  0  0
   23.1619   -8.7714  -14.4672 C   0  0  1  0  0  0  0  0  0  0  0  0
   23.9446   -9.5553  -15.5256 C   0  0  0  0  0  0  0  0  0  0  0  0
   21.7922   -8.4058  -14.9003 C   0  0  0  0  0  0  0  0  0  0  0  0
   21.1707   -7.2166  -14.2908 C   0  0  2  0  0  0  0  0  0  0  0  0
   19.8109   -7.0416  -14.9026 N   0  0  0  0  0  0  0  0  0  0  0  0
   21.8447   -5.9250  -14.3639 C   0  0  0  0  0  0  0  0  0  0  0  0
   21.6566   -5.2228  -15.4315 O   0  0  0  0  0  0  0  0  0  0  0  0
   22.6683   -5.3568  -13.3977 O   0  0  0  0  0  0  0  0  0  0  0  0
  2  3  1  0
  2  1  1  0
  3  5  1  0
  3  4  1  6
  5  6  2  0
  7  8  1  0
  8 10  1  0
  9  8  2  0
 11 10  1  1
 11 13  1  0
 12 11  1  0
 12  5  1  0
 13 20  1  0
 14 13  2  0
 16 17  1  6
 16 15  1  0
 18 16  1  0
 19 18  1  6
 20 19  1  0
 21 23  1  0
 21 19  1  0
 22 21  2  0
M  END
$$$$
