SNL.pdb
     RDKit          3D

 23 22  0  0  1  0  0  0  0  0999 V2000
   14.9901  -10.4070  -12.8992 O   0  0  0  0  0  0  0  0  0  0  0  0
   15.6160   -9.1691  -12.7607 C   0  0  0  0  0  0  0  0  0  0  0  0
   16.7472   -9.2237  -11.7599 C   0  0  2  0  0  0  0  0  0  0  0  0
   16.1787   -9.3770  -10.4371 N   0  0  0  0  0  0  0  0  0  0  0  0
   17.5752   -7.9676  -11.8228 C   0  0  0  0  0  0  0  0  0  0  0  0
   17.2719   -6.9693  -11.1350 O   0  0  0  0  0  0  0  0  0  0  0  0
   22.4333   -5.2764  -12.6153 N   0  0  0  0  0  0  0  0  0  0  0  0
   21.8617   -6.0661  -13.6210 C   0  0  0  0  0  0  0  0  0  0  0  0
   22.1190   -5.7751  -14.8291 O   0  0  0  0  0  0  0  0  0  0  0  0
   20.9714   -7.2250  -13.3579 C   0  0  0  0  0  0  0  0  0  0  0  0
   19.5683   -6.8025  -12.9460 C   0  0  2  0  0  0  0  0  0  0  0  0
   18.6940   -7.9218  -12.6609 N   0  0  0  0  0  0  0  0  0  0  0  0
   18.9543   -5.9162  -13.9610 C   0  0  0  0  0  0  0  0  0  0  0  0
   18.3042   -6.4096  -14.9502 O   0  0  0  0  0  0  0  0  0  0  0  0
   14.7043   -2.8257  -15.1450 C   0  0  0  0  0  0  0  0  0  0  0  0
   16.2029   -2.7283  -15.5940 C   0  0  1  0  0  0  0  0  0  0  0  0
   16.4624   -1.2191  -15.5441 C   0  0  0  0  0  0  0  0  0  0  0  0
   17.0320   -3.4990  -14.6370 C   0  0  0  0  0  0  0  0  0  0  0  0
   18.4582   -3.6878  -14.9565 C   0  0  2  0  0  0  0  0  0  0  0  0
   19.0716   -4.5112  -13.8612 N   0  0  0  0  0  0  0  0  0  0  0  0
   19.3192   -2.5272  -15.1559 C   0  0  0  0  0  0  0  0  0  0  0  0
   20.1179   -2.2144  -14.1902 O   0  0  0  0  0  0  0  0  0  0  0  0
   19.3818   -1.7179  -16.2854 O   0  0  0  0  0  0  0  0  0  0  0  0
  2  3  1  0
  2  1  1  0
  3  5  1  0
  3  4  1  1
  5  6  2  0
  7  8  1  0
  8 10  1  0
  9  8  2  0
 11 10  1  6
 11 13  1  0
 12 11  1  0
 12  5  1  0
 13 20  1  0
 14 13  2  0
 16 17  1  1
 16 15  1  0
 18 16  1  0
 19 18  1  1
 20 19  1  0
 21 23  1  0
 21 19  1  0
 22 21  2  0
M  END
$$$$
