SNL.pdb
     RDKit          3D

 23 22  0  0  1  0  0  0  0  0999 V2000
   22.9626  -21.4103   -9.6575 O   0  0  0  0  0  0  0  0  0  0  0  0
   23.3664  -20.6915  -10.7816 C   0  0  0  0  0  0  0  0  0  0  0  0
   24.8005  -20.9925  -11.1518 C   0  0  2  0  0  0  0  0  0  0  0  0
   25.6417  -20.6681  -10.0189 N   0  0  0  0  0  0  0  0  0  0  0  0
   25.2205  -20.1876  -12.3532 C   0  0  0  0  0  0  0  0  0  0  0  0
   25.4918  -18.9727  -12.2431 O   0  0  0  0  0  0  0  0  0  0  0  0
   28.6246  -19.7485  -14.3439 N   0  0  0  0  0  0  0  0  0  0  0  0
   28.0261  -20.9150  -14.8364 C   0  0  0  0  0  0  0  0  0  0  0  0
   28.5993  -22.0239  -14.6079 O   0  0  0  0  0  0  0  0  0  0  0  0
   26.7593  -20.9320  -15.6109 C   0  0  0  0  0  0  0  0  0  0  0  0
   25.6230  -20.2222  -14.8886 C   0  0  2  0  0  0  0  0  0  0  0  0
   25.3066  -20.8099  -13.6028 N   0  0  0  0  0  0  0  0  0  0  0  0
   24.4095  -20.1520  -15.7343 C   0  0  0  0  0  0  0  0  0  0  0  0
   23.5356  -21.0900  -15.7003 O   0  0  0  0  0  0  0  0  0  0  0  0
   19.8085  -17.1149  -17.3886 C   0  0  0  0  0  0  0  0  0  0  0  0
   20.5669  -18.3044  -16.7056 C   0  0  1  0  0  0  0  0  0  0  0  0
   20.1552  -19.4974  -17.5744 C   0  0  0  0  0  0  0  0  0  0  0  0
   22.0214  -18.0212  -16.7475 C   0  0  0  0  0  0  0  0  0  0  0  0
   22.9022  -19.0273  -17.3670 C   0  0  2  0  0  0  0  0  0  0  0  0
   24.1893  -19.0524  -16.5946 N   0  0  0  0  0  0  0  0  0  0  0  0
   23.2503  -18.9187  -18.7795 C   0  0  0  0  0  0  0  0  0  0  0  0
   24.4100  -18.4257  -19.0635 O   0  0  0  0  0  0  0  0  0  0  0  0
   22.4674  -19.2993  -19.8643 O   0  0  0  0  0  0  0  0  0  0  0  0
  2  3  1  0
  2  1  1  0
  3  5  1  0
  3  4  1  1
  5  6  2  0
  7  8  1  0
  8 10  1  0
  9  8  2  0
 11 10  1  6
 11 13  1  0
 12 11  1  0
 12  5  1  0
 13 20  1  0
 14 13  2  0
 16 17  1  6
 16 15  1  0
 18 16  1  0
 19 18  1  1
 20 19  1  0
 21 23  1  0
 21 19  1  0
 22 21  2  0
M  END
$$$$
