SNL.pdb
     RDKit          3D

 23 22  0  0  1  0  0  0  0  0999 V2000
   14.7983  -10.3252  -16.6049 O   0  0  0  0  0  0  0  0  0  0  0  0
   15.1971  -10.2301  -15.2725 C   0  0  0  0  0  0  0  0  0  0  0  0
   16.6875  -10.4290  -15.1198 C   0  0  2  0  0  0  0  0  0  0  0  0
   16.9762  -11.8406  -15.2630 N   0  0  0  0  0  0  0  0  0  0  0  0
   17.1549   -9.9411  -13.7741 C   0  0  0  0  0  0  0  0  0  0  0  0
   17.0757  -10.6765  -12.7669 O   0  0  0  0  0  0  0  0  0  0  0  0
   20.7265   -9.0193  -12.9919 N   0  0  0  0  0  0  0  0  0  0  0  0
   20.5440   -7.6307  -12.9992 C   0  0  0  0  0  0  0  0  0  0  0  0
   21.5467   -6.8968  -13.2572 O   0  0  0  0  0  0  0  0  0  0  0  0
   19.2459   -6.9647  -12.7228 C   0  0  0  0  0  0  0  0  0  0  0  0
   18.1232   -7.9587  -12.4611 C   0  0  2  0  0  0  0  0  0  0  0  0
   17.6822   -8.6511  -13.6547 N   0  0  0  0  0  0  0  0  0  0  0  0
   16.9747   -7.3076  -11.7905 C   0  0  0  0  0  0  0  0  0  0  0  0
   16.1412   -6.6019  -12.4627 O   0  0  0  0  0  0  0  0  0  0  0  0
   12.6485   -7.3623   -8.7159 C   0  0  0  0  0  0  0  0  0  0  0  0
   13.9516   -7.1085   -7.8826 C   0  0  1  0  0  0  0  0  0  0  0  0
   13.6909   -7.9222   -6.6109 C   0  0  0  0  0  0  0  0  0  0  0  0
   15.1126   -7.5963   -8.6646 C   0  0  0  0  0  0  0  0  0  0  0  0
   15.5690   -6.7798   -9.8035 C   0  0  2  0  0  0  0  0  0  0  0  0
   16.7733   -7.4500  -10.3987 N   0  0  0  0  0  0  0  0  0  0  0  0
   15.9134   -5.3768   -9.6013 C   0  0  0  0  0  0  0  0  0  0  0  0
   14.9399   -4.5586   -9.3751 O   0  0  0  0  0  0  0  0  0  0  0  0
   17.1875   -4.8190   -9.6168 O   0  0  0  0  0  0  0  0  0  0  0  0
  2  3  1  0
  2  1  1  0
  3  5  1  0
  3  4  1  1
  5  6  2  0
  7  8  1  0
  8 10  1  0
  9  8  2  0
 11 10  1  6
 11 13  1  0
 12 11  1  0
 12  5  1  0
 13 20  1  0
 14 13  2  0
 16 17  1  1
 16 15  1  0
 18 16  1  0
 19 18  1  1
 20 19  1  0
 21 23  1  0
 21 19  1  0
 22 21  2  0
M  END
$$$$
