SNL.pdb
     RDKit          3D

 23 22  0  0  1  0  0  0  0  0999 V2000
   11.1332  -11.8272  -15.5378 O   0  0  0  0  0  0  0  0  0  0  0  0
   12.3191  -11.2888  -15.0409 C   0  0  0  0  0  0  0  0  0  0  0  0
   13.4750  -12.2512  -15.1891 C   0  0  2  0  0  0  0  0  0  0  0  0
   13.2063  -13.4160  -14.3721 N   0  0  0  0  0  0  0  0  0  0  0  0
   14.7648  -11.6050  -14.7574 C   0  0  0  0  0  0  0  0  0  0  0  0
   14.8494  -11.0268  -13.6528 O   0  0  0  0  0  0  0  0  0  0  0  0
   18.2814  -14.5000  -16.2576 N   0  0  0  0  0  0  0  0  0  0  0  0
   18.2661  -13.3609  -15.4429 C   0  0  0  0  0  0  0  0  0  0  0  0
   18.2097  -13.5251  -14.1858 O   0  0  0  0  0  0  0  0  0  0  0  0
   18.3118  -11.9706  -15.9627 C   0  0  0  0  0  0  0  0  0  0  0  0
   17.1987  -11.0990  -15.3988 C   0  0  2  0  0  0  0  0  0  0  0  0
   15.8768  -11.6547  -15.6043 N   0  0  0  0  0  0  0  0  0  0  0  0
   17.2677   -9.7224  -15.9402 C   0  0  0  0  0  0  0  0  0  0  0  0
   16.4599   -9.3424  -16.8609 O   0  0  0  0  0  0  0  0  0  0  0  0
   16.1363   -5.3614  -17.4668 C   0  0  0  0  0  0  0  0  0  0  0  0
   16.5453   -5.4330  -15.9554 C   0  0  1  0  0  0  0  0  0  0  0  0
   15.3036   -4.8740  -15.2532 C   0  0  0  0  0  0  0  0  0  0  0  0
   16.8285   -6.8467  -15.6110 C   0  0  0  0  0  0  0  0  0  0  0  0
   18.1487   -7.3932  -15.9720 C   0  0  2  0  0  0  0  0  0  0  0  0
   18.2229   -8.8006  -15.4548 N   0  0  0  0  0  0  0  0  0  0  0  0
   19.3625   -6.7107  -15.5372 C   0  0  0  0  0  0  0  0  0  0  0  0
   19.9570   -7.1776  -14.4899 O   0  0  0  0  0  0  0  0  0  0  0  0
   19.9607   -5.6075  -16.1369 O   0  0  0  0  0  0  0  0  0  0  0  0
  2  3  1  0
  2  1  1  0
  3  5  1  0
  3  4  1  1
  5  6  2  0
  7  8  1  0
  8 10  1  0
  9  8  2  0
 11 10  1  6
 11 13  1  0
 12 11  1  0
 12  5  1  0
 13 20  1  0
 14 13  2  0
 16 17  1  1
 16 15  1  0
 18 16  1  0
 19 18  1  1
 20 19  1  0
 21 23  1  0
 21 19  1  0
 22 21  2  0
M  END
$$$$
