SNL.pdb
     RDKit          3D

 23 22  0  0  1  0  0  0  0  0999 V2000
   12.6105  -10.1731  -12.9705 O   0  0  0  0  0  0  0  0  0  0  0  0
   13.9087   -9.9179  -13.4096 C   0  0  0  0  0  0  0  0  0  0  0  0
   13.9778   -9.8078  -14.9154 C   0  0  2  0  0  0  0  0  0  0  0  0
   13.7218  -11.1160  -15.4806 N   0  0  0  0  0  0  0  0  0  0  0  0
   15.3316   -9.3135  -15.3517 C   0  0  0  0  0  0  0  0  0  0  0  0
   16.2699  -10.1152  -15.5479 O   0  0  0  0  0  0  0  0  0  0  0  0
   17.9839   -3.9094  -16.9834 N   0  0  0  0  0  0  0  0  0  0  0  0
   17.5935   -5.2340  -17.2174 C   0  0  0  0  0  0  0  0  0  0  0  0
   18.2937   -5.9325  -18.0125 O   0  0  0  0  0  0  0  0  0  0  0  0
   16.4078   -5.8708  -16.5900 C   0  0  0  0  0  0  0  0  0  0  0  0
   16.7082   -7.2624  -16.0516 C   0  0  2  0  0  0  0  0  0  0  0  0
   15.5367   -7.9425  -15.5380 N   0  0  0  0  0  0  0  0  0  0  0  0
   17.7719   -7.2222  -15.0222 C   0  0  0  0  0  0  0  0  0  0  0  0
   17.4887   -6.9475  -13.8020 O   0  0  0  0  0  0  0  0  0  0  0  0
   22.7216  -10.1697  -13.5259 C   0  0  0  0  0  0  0  0  0  0  0  0
   21.8918   -8.8854  -13.1809 C   0  0  1  0  0  0  0  0  0  0  0  0
   22.9645   -7.7915  -13.1850 C   0  0  0  0  0  0  0  0  0  0  0  0
   20.8577   -8.6983  -14.2264 C   0  0  0  0  0  0  0  0  0  0  0  0
   20.1349   -7.4145  -14.2594 C   0  0  2  0  0  0  0  0  0  0  0  0
   19.1184   -7.4852  -15.3620 N   0  0  0  0  0  0  0  0  0  0  0  0
   20.8728   -6.1682  -14.4340 C   0  0  0  0  0  0  0  0  0  0  0  0
   20.7903   -5.2975  -13.4834 O   0  0  0  0  0  0  0  0  0  0  0  0
   21.6701   -5.8144  -15.5174 O   0  0  0  0  0  0  0  0  0  0  0  0
  2  3  1  0
  2  1  1  0
  3  5  1  0
  3  4  1  6
  5  6  2  0
  7  8  1  0
  8 10  1  0
  9  8  2  0
 11 10  1  1
 11 13  1  0
 12 11  1  0
 12  5  1  0
 13 20  1  0
 14 13  2  0
 16 17  1  6
 16 15  1  0
 18 16  1  0
 19 18  1  6
 20 19  1  0
 21 23  1  0
 21 19  1  0
 22 21  2  0
M  END
$$$$
