LDF.pdb
     RDKit          3D

 28 28  0  0  1  0  0  0  0  0999 V2000
    9.6476  -20.0910   18.7607 C   0  0  0  0  0  0  0  0  0  0  0  0
    8.5433  -19.0528   18.6342 C   0  0  2  0  0  0  0  0  0  0  0  0
    8.3492  -18.6551   17.1872 C   0  0  0  0  0  0  0  0  0  0  0  0
    9.0076  -17.8276   19.3849 C   0  0  0  0  0  0  0  0  0  0  0  0
    9.1816  -18.1166   20.8673 C   0  0  2  0  0  0  0  0  0  0  0  0
    8.0145  -18.7873   21.4225 N   0  0  0  0  0  0  0  0  0  0  0  0
    9.3407  -16.8230   21.5496 C   0  0  0  0  0  0  0  0  0  0  0  0
   10.3376  -16.1187   21.2704 O   0  0  0  0  0  0  0  0  0  0  0  0
    8.4108  -16.3230   22.5222 N   0  0  0  0  0  0  0  0  0  0  0  0
    8.5755  -15.0466   23.1829 C   0  0  1  0  0  0  0  0  0  0  0  0
    7.2819  -14.4170   23.6152 C   0  0  0  0  0  0  0  0  0  0  0  0
    6.6246  -15.3100   24.5942 C   0  0  0  0  0  0  0  0  0  0  0  0
    7.1002  -16.3837   25.0335 O   0  0  0  0  0  0  0  0  0  0  0  0
    9.5582  -15.1727   24.2547 C   0  0  0  0  0  0  0  0  0  0  0  0
   10.1831  -14.1765   24.6574 O   0  0  0  0  0  0  0  0  0  0  0  0
    5.3641  -14.9479   25.0873 O   0  0  0  0  0  0  0  0  0  0  0  0
    9.8173  -16.4350   24.8557 N   0  0  0  0  0  0  0  0  0  0  0  0
   10.8872  -16.6627   25.7815 C   0  0  1  0  0  0  0  0  0  0  0  0
   10.2447  -16.7969   27.1688 C   0  0  0  0  0  0  0  0  0  0  0  0
    9.9417  -15.4578   27.7334 C   0  0  0  0  0  0  0  0  0  0  0  0
    8.8658  -14.7074   27.3162 C   0  0  0  0  0  0  0  0  0  0  0  0
    8.6032  -13.4586   27.8587 C   0  0  0  0  0  0  0  0  0  0  0  0
    9.4225  -12.9428   28.8337 C   0  0  0  0  0  0  0  0  0  0  0  0
   10.5038  -13.6746   29.2664 C   0  0  0  0  0  0  0  0  0  0  0  0
   10.7535  -14.9264   28.7117 C   0  0  0  0  0  0  0  0  0  0  0  0
   11.6529  -17.8840   25.4613 C   0  0  0  0  0  0  0  0  0  0  0  0
   12.6742  -18.1660   26.1149 O   0  0  0  0  0  0  0  0  0  0  0  0
   11.2406  -18.7188   24.4362 O   0  0  0  0  0  0  0  0  0  0  0  0
  2  1  1  6
  3  2  1  0
  4  2  1  0
  5  4  1  0
  5  6  1  1
  7  8  2  0
  7  5  1  0
  9  7  1  0
 10  9  1  0
 10 11  1  1
 12 16  1  0
 12 11  1  0
 13 12  2  0
 14 15  2  0
 14 10  1  0
 17 14  1  0
 18 17  1  0
 18 19  1  1
 20 21  2  0
 20 19  1  0
 22 21  1  0
 23 22  2  0
 24 25  2  0
 24 23  1  0
 25 20  1  0
 26 18  1  0
 27 26  2  0
 28 26  1  0
M  END
$$$$
