LDF.pdb
     RDKit          3D

 28 28  0  0  1  0  0  0  0  0999 V2000
    4.7389  -21.1371   21.9565 C   0  0  0  0  0  0  0  0  0  0  0  0
    6.0191  -20.3225   21.8515 C   0  0  2  0  0  0  0  0  0  0  0  0
    6.7247  -20.6052   20.5431 C   0  0  0  0  0  0  0  0  0  0  0  0
    6.9250  -20.7868   22.9669 C   0  0  0  0  0  0  0  0  0  0  0  0
    7.1169  -19.7024   24.0151 C   0  0  2  0  0  0  0  0  0  0  0  0
    6.2258  -18.5737   23.7869 N   0  0  0  0  0  0  0  0  0  0  0  0
    8.5046  -19.2269   23.9039 C   0  0  0  0  0  0  0  0  0  0  0  0
    9.4311  -20.0669   23.9670 O   0  0  0  0  0  0  0  0  0  0  0  0
    8.8550  -17.8463   23.7265 N   0  0  0  0  0  0  0  0  0  0  0  0
   10.2203  -17.3700   23.7734 C   0  0  1  0  0  0  0  0  0  0  0  0
   10.5844  -16.4618   22.6335 C   0  0  0  0  0  0  0  0  0  0  0  0
   12.0543  -16.2983   22.6092 C   0  0  0  0  0  0  0  0  0  0  0  0
   12.8894  -17.2321   22.5585 O   0  0  0  0  0  0  0  0  0  0  0  0
   10.4973  -16.8051   25.0904 C   0  0  0  0  0  0  0  0  0  0  0  0
   11.5963  -16.2766   25.3311 O   0  0  0  0  0  0  0  0  0  0  0  0
   12.5827  -15.0012   22.6450 O   0  0  0  0  0  0  0  0  0  0  0  0
    9.5165  -16.8493   26.1189 N   0  0  0  0  0  0  0  0  0  0  0  0
    9.7251  -16.3117   27.4309 C   0  0  1  0  0  0  0  0  0  0  0  0
    8.3459  -15.8902   27.9558 C   0  0  0  0  0  0  0  0  0  0  0  0
    7.7725  -14.8157   27.1072 C   0  0  0  0  0  0  0  0  0  0  0  0
    6.6880  -15.0241   26.2855 C   0  0  0  0  0  0  0  0  0  0  0  0
    6.1700  -14.0043   25.5016 C   0  0  0  0  0  0  0  0  0  0  0  0
    6.7374  -12.7533   25.5321 C   0  0  0  0  0  0  0  0  0  0  0  0
    7.8221  -12.5215   26.3457 C   0  0  0  0  0  0  0  0  0  0  0  0
    8.3299  -13.5558   27.1264 C   0  0  0  0  0  0  0  0  0  0  0  0
   10.3334  -17.2961   28.3480 C   0  0  0  0  0  0  0  0  0  0  0  0
   10.6794  -16.9481   29.4921 O   0  0  0  0  0  0  0  0  0  0  0  0
   10.5215  -18.6067   27.9419 O   0  0  0  0  0  0  0  0  0  0  0  0
  2  1  1  6
  3  2  1  0
  4  2  1  0
  5  4  1  0
  5  6  1  6
  7  8  2  0
  7  5  1  0
  9  7  1  0
 10  9  1  0
 10 11  1  6
 12 16  1  0
 12 11  1  0
 13 12  2  0
 14 15  2  0
 14 10  1  0
 17 14  1  0
 18 17  1  0
 18 19  1  1
 20 21  2  0
 20 19  1  0
 22 21  1  0
 23 22  2  0
 24 25  2  0
 24 23  1  0
 25 20  1  0
 26 18  1  0
 27 26  2  0
 28 26  1  0
M  END
$$$$
