LDF.pdb
     RDKit          3D

 28 28  0  0  1  0  0  0  0  0999 V2000
    8.0657  -12.2074   18.8358 C   0  0  0  0  0  0  0  0  0  0  0  0
    7.8965  -13.7058   18.6367 C   0  0  2  0  0  0  0  0  0  0  0  0
    6.9702  -13.9874   17.4738 C   0  0  0  0  0  0  0  0  0  0  0  0
    7.2358  -14.2404   19.8849 C   0  0  0  0  0  0  0  0  0  0  0  0
    8.0460  -13.9095   21.1281 C   0  0  2  0  0  0  0  0  0  0  0  0
    9.3017  -13.2544   20.7900 N   0  0  0  0  0  0  0  0  0  0  0  0
    8.3533  -15.1808   21.8014 C   0  0  0  0  0  0  0  0  0  0  0  0
    7.4056  -15.8582   22.2606 O   0  0  0  0  0  0  0  0  0  0  0  0
    9.6865  -15.6884   21.9610 N   0  0  0  0  0  0  0  0  0  0  0  0
    9.9977  -16.8315   22.7912 C   0  0  1  0  0  0  0  0  0  0  0  0
   11.1997  -17.6057   22.3301 C   0  0  0  0  0  0  0  0  0  0  0  0
   10.7872  -18.5156   21.2395 C   0  0  0  0  0  0  0  0  0  0  0  0
   11.3035  -18.5641   20.0979 O   0  0  0  0  0  0  0  0  0  0  0  0
   10.0620  -16.4187   24.1897 C   0  0  0  0  0  0  0  0  0  0  0  0
   10.9297  -15.6142   24.5703 O   0  0  0  0  0  0  0  0  0  0  0  0
    9.7334  -19.4079   21.4767 O   0  0  0  0  0  0  0  0  0  0  0  0
    9.1347  -16.9287   25.1394 N   0  0  0  0  0  0  0  0  0  0  0  0
    9.1068  -16.5195   26.5125 C   0  0  1  0  0  0  0  0  0  0  0  0
    7.6570  -16.1225   26.8219 C   0  0  0  0  0  0  0  0  0  0  0  0
    7.4206  -14.7001   26.4690 C   0  0  0  0  0  0  0  0  0  0  0  0
    8.3220  -13.7050   26.7725 C   0  0  0  0  0  0  0  0  0  0  0  0
    8.0788  -12.3828   26.4326 C   0  0  0  0  0  0  0  0  0  0  0  0
    6.9200  -12.0395   25.7791 C   0  0  0  0  0  0  0  0  0  0  0  0
    6.0045  -13.0170   25.4654 C   0  0  0  0  0  0  0  0  0  0  0  0
    6.2636  -14.3393   25.8136 C   0  0  0  0  0  0  0  0  0  0  0  0
    9.5395  -17.5964   27.4254 C   0  0  0  0  0  0  0  0  0  0  0  0
    9.6275  -18.7661   27.0085 O   0  0  0  0  0  0  0  0  0  0  0  0
    9.8484  -17.3120   28.7451 O   0  0  0  0  0  0  0  0  0  0  0  0
  2  1  1  1
  3  2  1  0
  4  2  1  0
  5  4  1  0
  5  6  1  6
  7  8  2  0
  7  5  1  0
  9  7  1  0
 10  9  1  0
 10 11  1  6
 12 16  1  0
 12 11  1  0
 13 12  2  0
 14 15  2  0
 14 10  1  0
 17 14  1  0
 18 17  1  0
 18 19  1  1
 20 21  2  0
 20 19  1  0
 22 21  1  0
 23 22  2  0
 24 25  2  0
 24 23  1  0
 25 20  1  0
 26 18  1  0
 27 26  2  0
 28 26  1  0
M  END
$$$$
