LDF.pdb
     RDKit          3D

 28 28  0  0  1  0  0  0  0  0999 V2000
    6.9221  -13.0161   20.4473 C   0  0  0  0  0  0  0  0  0  0  0  0
    8.1272  -13.7106   19.8318 C   0  0  2  0  0  0  0  0  0  0  0  0
    8.4592  -13.1071   18.4844 C   0  0  0  0  0  0  0  0  0  0  0  0
    7.7316  -15.1495   19.6012 C   0  0  0  0  0  0  0  0  0  0  0  0
    7.3835  -15.8465   20.9067 C   0  0  2  0  0  0  0  0  0  0  0  0
    6.7578  -14.9320   21.8514 N   0  0  0  0  0  0  0  0  0  0  0  0
    8.6427  -16.3294   21.4943 C   0  0  0  0  0  0  0  0  0  0  0  0
    9.2035  -17.3208   20.9741 O   0  0  0  0  0  0  0  0  0  0  0  0
    9.2656  -15.7228   22.6365 N   0  0  0  0  0  0  0  0  0  0  0  0
   10.4718  -16.2431   23.2423 C   0  0  1  0  0  0  0  0  0  0  0  0
   11.7101  -15.4703   22.8870 C   0  0  0  0  0  0  0  0  0  0  0  0
   12.5571  -16.3094   22.0116 C   0  0  0  0  0  0  0  0  0  0  0  0
   12.4920  -16.3520   20.7602 O   0  0  0  0  0  0  0  0  0  0  0  0
   10.2685  -16.4050   24.6786 C   0  0  0  0  0  0  0  0  0  0  0  0
   11.2274  -16.3186   25.4647 O   0  0  0  0  0  0  0  0  0  0  0  0
   13.5207  -17.1346   22.6062 O   0  0  0  0  0  0  0  0  0  0  0  0
    8.9722  -16.6639   25.2024 N   0  0  0  0  0  0  0  0  0  0  0  0
    8.7136  -16.8815   26.5951 C   0  0  1  0  0  0  0  0  0  0  0  0
    7.2936  -16.3644   26.8629 C   0  0  0  0  0  0  0  0  0  0  0  0
    7.2182  -14.9019   26.6195 C   0  0  0  0  0  0  0  0  0  0  0  0
    6.4086  -14.3562   25.6492 C   0  0  0  0  0  0  0  0  0  0  0  0
    6.3552  -12.9864   25.4404 C   0  0  0  0  0  0  0  0  0  0  0  0
    7.1187  -12.1404   26.2079 C   0  0  0  0  0  0  0  0  0  0  0  0
    7.9353  -12.6629   27.1837 C   0  0  0  0  0  0  0  0  0  0  0  0
    7.9775  -14.0400   27.3805 C   0  0  0  0  0  0  0  0  0  0  0  0
    8.8077  -18.3080   26.9647 C   0  0  0  0  0  0  0  0  0  0  0  0
    8.8926  -18.6348   28.1630 O   0  0  0  0  0  0  0  0  0  0  0  0
    8.8021  -19.2860   25.9842 O   0  0  0  0  0  0  0  0  0  0  0  0
  2  1  1  6
  3  2  1  0
  4  2  1  0
  5  4  1  0
  5  6  1  1
  7  8  2  0
  7  5  1  0
  9  7  1  0
 10  9  1  0
 10 11  1  1
 12 16  1  0
 12 11  1  0
 13 12  2  0
 14 15  2  0
 14 10  1  0
 17 14  1  0
 18 17  1  0
 18 19  1  6
 20 21  2  0
 20 19  1  0
 22 21  1  0
 23 22  2  0
 24 25  2  0
 24 23  1  0
 25 20  1  0
 26 18  1  0
 27 26  2  0
 28 26  1  0
M  END
$$$$
