LDF.pdb
     RDKit          3D

 28 28  0  0  1  0  0  0  0  0999 V2000
    8.3270  -13.2254   19.0291 C   0  0  0  0  0  0  0  0  0  0  0  0
    7.3555  -13.0958   20.1922 C   0  0  2  0  0  0  0  0  0  0  0  0
    7.3463  -11.6789   20.7233 C   0  0  0  0  0  0  0  0  0  0  0  0
    7.8705  -13.9915   21.2935 C   0  0  0  0  0  0  0  0  0  0  0  0
    7.8238  -15.4557   20.8868 C   0  0  2  0  0  0  0  0  0  0  0  0
    6.4559  -15.9110   20.6823 N   0  0  0  0  0  0  0  0  0  0  0  0
    8.4116  -16.2347   21.9875 C   0  0  0  0  0  0  0  0  0  0  0  0
    7.6463  -16.7199   22.8516 O   0  0  0  0  0  0  0  0  0  0  0  0
    9.8211  -16.4693   22.1247 N   0  0  0  0  0  0  0  0  0  0  0  0
   10.3871  -17.2405   23.2100 C   0  0  1  0  0  0  0  0  0  0  0  0
   11.7567  -17.7838   22.9170 C   0  0  0  0  0  0  0  0  0  0  0  0
   11.6847  -18.6167   21.6969 C   0  0  0  0  0  0  0  0  0  0  0  0
   12.3584  -18.4396   20.6543 O   0  0  0  0  0  0  0  0  0  0  0  0
   10.3087  -16.4735   24.4493 C   0  0  0  0  0  0  0  0  0  0  0  0
   11.0007  -15.4524   24.6036 O   0  0  0  0  0  0  0  0  0  0  0  0
   10.7970  -19.7005   21.6793 O   0  0  0  0  0  0  0  0  0  0  0  0
    9.4410  -16.8801   25.4998 N   0  0  0  0  0  0  0  0  0  0  0  0
    9.5235  -16.3652   26.8346 C   0  0  1  0  0  0  0  0  0  0  0  0
    8.1030  -15.9376   27.2277 C   0  0  0  0  0  0  0  0  0  0  0  0
    7.7959  -14.5911   26.6836 C   0  0  0  0  0  0  0  0  0  0  0  0
    6.7385  -14.3628   25.8324 C   0  0  0  0  0  0  0  0  0  0  0  0
    6.4716  -13.0955   25.3369 C   0  0  0  0  0  0  0  0  0  0  0  0
    7.2676  -12.0333   25.6915 C   0  0  0  0  0  0  0  0  0  0  0  0
    8.3301  -12.2373   26.5411 C   0  0  0  0  0  0  0  0  0  0  0  0
    8.5845  -13.5155   27.0296 C   0  0  0  0  0  0  0  0  0  0  0  0
   10.0295  -17.3702   27.7909 C   0  0  0  0  0  0  0  0  0  0  0  0
   10.2381  -17.0502   28.9758 O   0  0  0  0  0  0  0  0  0  0  0  0
   10.2735  -18.6688   27.3764 O   0  0  0  0  0  0  0  0  0  0  0  0
  2  1  1  6
  3  2  1  0
  4  2  1  0
  5  4  1  0
  5  6  1  1
  7  8  2  0
  7  5  1  0
  9  7  1  0
 10  9  1  0
 10 11  1  6
 12 16  1  0
 12 11  1  0
 13 12  2  0
 14 15  2  0
 14 10  1  0
 17 14  1  0
 18 17  1  0
 18 19  1  1
 20 21  2  0
 20 19  1  0
 22 21  1  0
 23 22  2  0
 24 25  2  0
 24 23  1  0
 25 20  1  0
 26 18  1  0
 27 26  2  0
 28 26  1  0
M  END
$$$$
