LDF.pdb
     RDKit          3D

 28 28  0  0  1  0  0  0  0  0999 V2000
    8.7989  -12.1911   18.9958 C   0  0  0  0  0  0  0  0  0  0  0  0
    7.6958  -13.2345   18.9058 C   0  0  2  0  0  0  0  0  0  0  0  0
    6.3480  -12.6113   19.1971 C   0  0  0  0  0  0  0  0  0  0  0  0
    7.9692  -14.2535   19.9862 C   0  0  0  0  0  0  0  0  0  0  0  0
    9.4264  -14.6871   19.9855 C   0  0  2  0  0  0  0  0  0  0  0  0
    9.8112  -15.2687   18.7072 N   0  0  0  0  0  0  0  0  0  0  0  0
    9.5776  -15.7153   21.0266 C   0  0  0  0  0  0  0  0  0  0  0  0
    8.7724  -15.7179   21.9855 O   0  0  0  0  0  0  0  0  0  0  0  0
   10.6027  -16.7199   21.0021 N   0  0  0  0  0  0  0  0  0  0  0  0
   10.8575  -17.6094   22.1141 C   0  0  1  0  0  0  0  0  0  0  0  0
   11.9224  -18.6328   21.8394 C   0  0  0  0  0  0  0  0  0  0  0  0
   11.4535  -19.5253   20.7571 C   0  0  0  0  0  0  0  0  0  0  0  0
   10.3350  -20.0903   20.7132 O   0  0  0  0  0  0  0  0  0  0  0  0
   11.0884  -16.8272   23.3246 C   0  0  0  0  0  0  0  0  0  0  0  0
   12.1078  -16.1246   23.4363 O   0  0  0  0  0  0  0  0  0  0  0  0
   12.3125  -19.7764   19.6791 O   0  0  0  0  0  0  0  0  0  0  0  0
   10.1531  -16.8553   24.3951 N   0  0  0  0  0  0  0  0  0  0  0  0
   10.2724  -16.0406   25.5681 C   0  0  1  0  0  0  0  0  0  0  0  0
    8.8642  -15.5186   25.8840 C   0  0  0  0  0  0  0  0  0  0  0  0
    8.8972  -14.6113   27.0583 C   0  0  0  0  0  0  0  0  0  0  0  0
    8.4681  -13.3049   26.9937 C   0  0  0  0  0  0  0  0  0  0  0  0
    8.5088  -12.4762   28.1048 C   0  0  0  0  0  0  0  0  0  0  0  0
    8.9838  -12.9507   29.3035 C   0  0  0  0  0  0  0  0  0  0  0  0
    9.4181  -14.2529   29.3920 C   0  0  0  0  0  0  0  0  0  0  0  0
    9.3707  -15.0717   28.2676 C   0  0  0  0  0  0  0  0  0  0  0  0
   10.7998  -16.7962   26.7220 C   0  0  0  0  0  0  0  0  0  0  0  0
   10.5210  -18.0022   26.8545 O   0  0  0  0  0  0  0  0  0  0  0  0
   11.6041  -16.1695   27.6591 O   0  0  0  0  0  0  0  0  0  0  0  0
  2  1  1  1
  3  2  1  0
  4  2  1  0
  5  4  1  0
  5  6  1  6
  7  8  2  0
  7  5  1  0
  9  7  1  0
 10  9  1  0
 10 11  1  6
 12 16  1  0
 12 11  1  0
 13 12  2  0
 14 15  2  0
 14 10  1  0
 17 14  1  0
 18 17  1  0
 18 19  1  1
 20 21  2  0
 20 19  1  0
 22 21  1  0
 23 22  2  0
 24 25  2  0
 24 23  1  0
 25 20  1  0
 26 18  1  0
 27 26  2  0
 28 26  1  0
M  END
$$$$
