LDF.pdb
     RDKit          3D

 28 28  0  0  1  0  0  0  0  0999 V2000
    7.1639  -13.9442   19.4576 C   0  0  0  0  0  0  0  0  0  0  0  0
    7.2261  -14.3934   20.9094 C   0  0  2  0  0  0  0  0  0  0  0  0
    8.0119  -13.4026   21.7405 C   0  0  0  0  0  0  0  0  0  0  0  0
    7.9784  -15.7025   20.9298 C   0  0  0  0  0  0  0  0  0  0  0  0
    7.9784  -16.3221   22.3182 C   0  0  2  0  0  0  0  0  0  0  0  0
    7.6572  -15.3390   23.3431 N   0  0  0  0  0  0  0  0  0  0  0  0
    9.3361  -16.8286   22.5714 C   0  0  0  0  0  0  0  0  0  0  0  0
    9.6751  -17.9160   22.0512 O   0  0  0  0  0  0  0  0  0  0  0  0
   10.2971  -16.1405   23.3861 N   0  0  0  0  0  0  0  0  0  0  0  0
   11.5979  -16.6902   23.7002 C   0  0  1  0  0  0  0  0  0  0  0  0
   12.7430  -15.8886   23.1500 C   0  0  0  0  0  0  0  0  0  0  0  0
   12.9611  -16.2800   21.7404 C   0  0  0  0  0  0  0  0  0  0  0  0
   13.2450  -17.4343   21.3414 O   0  0  0  0  0  0  0  0  0  0  0  0
   11.6896  -16.9434   25.1347 C   0  0  0  0  0  0  0  0  0  0  0  0
   12.7983  -17.0342   25.6892 O   0  0  0  0  0  0  0  0  0  0  0  0
   12.8465  -15.2969   20.7488 O   0  0  0  0  0  0  0  0  0  0  0  0
   10.5143  -17.0904   25.9214 N   0  0  0  0  0  0  0  0  0  0  0  0
   10.5324  -17.4751   27.3017 C   0  0  1  0  0  0  0  0  0  0  0  0
    9.3504  -16.7608   27.9710 C   0  0  0  0  0  0  0  0  0  0  0  0
    9.5157  -15.2882   27.8840 C   0  0  0  0  0  0  0  0  0  0  0  0
    8.8371  -14.5225   26.9631 C   0  0  0  0  0  0  0  0  0  0  0  0
    9.0084  -13.1479   26.9011 C   0  0  0  0  0  0  0  0  0  0  0  0
    9.8688  -12.5191   27.7684 C   0  0  0  0  0  0  0  0  0  0  0  0
   10.5578  -13.2637   28.6973 C   0  0  0  0  0  0  0  0  0  0  0  0
   10.3747  -14.6425   28.7465 C   0  0  0  0  0  0  0  0  0  0  0  0
   10.4023  -18.9355   27.4766 C   0  0  0  0  0  0  0  0  0  0  0  0
   10.5667  -19.4435   28.6012 O   0  0  0  0  0  0  0  0  0  0  0  0
   10.0980  -19.7447   26.3948 O   0  0  0  0  0  0  0  0  0  0  0  0
  2  1  1  6
  3  2  1  0
  4  2  1  0
  5  4  1  0
  5  6  1  1
  7  8  2  0
  7  5  1  0
  9  7  1  0
 10  9  1  0
 10 11  1  1
 12 16  1  0
 12 11  1  0
 13 12  2  0
 14 15  2  0
 14 10  1  0
 17 14  1  0
 18 17  1  0
 18 19  1  1
 20 21  2  0
 20 19  1  0
 22 21  1  0
 23 22  2  0
 24 25  2  0
 24 23  1  0
 25 20  1  0
 26 18  1  0
 27 26  2  0
 28 26  1  0
M  END
$$$$
