MDS.pdb
     RDKit          3D

 23 22  0  0  1  0  0  0  0  0999 V2000
   26.8057  -15.7280  -14.9036 C   0  0  0  0  0  0  0  0  0  0  0  0
   25.7800  -14.2590  -15.1935 S   0  0  0  0  0  0  0  0  0  0  0  0
   26.6249  -13.1389  -16.3930 C   0  0  0  0  0  0  0  0  0  0  0  0
   25.7429  -11.9244  -16.4801 C   0  0  0  0  0  0  0  0  0  0  0  0
   24.4101  -12.2570  -16.9699 C   0  0  2  0  0  0  0  0  0  0  0  0
   24.3939  -12.9999  -18.2183 N   0  0  0  0  0  0  0  0  0  0  0  0
   23.3320  -11.2977  -16.9575 C   0  0  0  0  0  0  0  0  0  0  0  0
   23.1436  -10.6761  -18.0661 O   0  0  0  0  0  0  0  0  0  0  0  0
   22.5074  -11.0048  -15.8556 N   0  0  0  0  0  0  0  0  0  0  0  0
   21.4698   -9.9517  -15.8889 C   0  0  1  0  0  0  0  0  0  0  0  0
   20.3042  -10.5100  -15.1692 C   0  0  0  0  0  0  0  0  0  0  0  0
   19.1251   -9.6626  -15.0343 C   0  0  0  0  0  0  0  0  0  0  0  0
   19.0690   -8.6074  -15.7165 O   0  0  0  0  0  0  0  0  0  0  0  0
   22.0672   -8.7180  -15.3466 C   0  0  0  0  0  0  0  0  0  0  0  0
   22.7349   -8.7269  -14.2538 O   0  0  0  0  0  0  0  0  0  0  0  0
   18.0520   -9.9387  -14.2016 O   0  0  0  0  0  0  0  0  0  0  0  0
   23.8555   -4.3605  -15.9530 O   0  0  0  0  0  0  0  0  0  0  0  0
   23.3538   -5.5493  -16.5017 C   0  0  0  0  0  0  0  0  0  0  0  0
   22.6154   -6.2601  -15.3869 C   0  0  2  0  0  0  0  0  0  0  0  0
   21.9720   -7.4395  -15.9571 N   0  0  0  0  0  0  0  0  0  0  0  0
   21.5896   -5.3737  -14.7820 C   0  0  0  0  0  0  0  0  0  0  0  0
   20.4439   -5.3565  -15.2628 O   0  0  0  0  0  0  0  0  0  0  0  0
   21.9105   -4.5718  -13.6873 O   0  0  0  0  0  0  0  0  0  0  0  0
  1  2  1  0
  2  3  1  0
  4  3  1  0
  5  7  1  0
  5  4  1  0
  5  6  1  6
  7  9  1  0
  7  8  2  0
  9 10  1  0
 10 14  1  0
 10 11  1  1
 12 13  2  0
 12 11  1  0
 14 20  1  0
 14 15  2  0
 16 12  1  0
 17 18  1  0
 19 18  1  6
 19 21  1  0
 20 19  1  0
 21 23  1  0
 22 21  2  0
M  END
$$$$
