MDS.pdb
     RDKit          3D

 23 22  0  0  1  0  0  0  0  0999 V2000
   13.5285  -13.7611  -16.2733 C   0  0  0  0  0  0  0  0  0  0  0  0
   14.3579  -12.9396  -14.8835 S   0  0  0  0  0  0  0  0  0  0  0  0
   15.6947  -11.8383  -15.5217 C   0  0  0  0  0  0  0  0  0  0  0  0
   16.1419  -11.0374  -14.3305 C   0  0  0  0  0  0  0  0  0  0  0  0
   17.2695  -10.1706  -14.6531 C   0  0  2  0  0  0  0  0  0  0  0  0
   18.5129  -10.8725  -14.9212 N   0  0  0  0  0  0  0  0  0  0  0  0
   17.5398   -8.9631  -13.9103 C   0  0  0  0  0  0  0  0  0  0  0  0
   18.4083   -9.0845  -12.9712 O   0  0  0  0  0  0  0  0  0  0  0  0
   16.9374   -7.7111  -14.1328 N   0  0  0  0  0  0  0  0  0  0  0  0
   17.3007   -6.4996  -13.3665 C   0  0  1  0  0  0  0  0  0  0  0  0
   17.2640   -5.3825  -14.3354 C   0  0  0  0  0  0  0  0  0  0  0  0
   18.4446   -5.1693  -15.1646 C   0  0  0  0  0  0  0  0  0  0  0  0
   19.5007   -5.7835  -14.8660 O   0  0  0  0  0  0  0  0  0  0  0  0
   16.3935   -6.4148  -12.2077 C   0  0  0  0  0  0  0  0  0  0  0  0
   15.1399   -6.6489  -12.3258 O   0  0  0  0  0  0  0  0  0  0  0  0
   18.4870   -4.3317  -16.2682 O   0  0  0  0  0  0  0  0  0  0  0  0
   15.6603   -6.5308   -7.4909 O   0  0  0  0  0  0  0  0  0  0  0  0
   16.5714   -6.6074   -8.5539 C   0  0  0  0  0  0  0  0  0  0  0  0
   15.8587   -6.0591   -9.7723 C   0  0  2  0  0  0  0  0  0  0  0  0
   16.7989   -6.0810  -10.8883 N   0  0  0  0  0  0  0  0  0  0  0  0
   15.3967   -4.6685   -9.5343 C   0  0  0  0  0  0  0  0  0  0  0  0
   16.1196   -3.7211   -9.8866 O   0  0  0  0  0  0  0  0  0  0  0  0
   14.1660   -4.4313   -8.9234 O   0  0  0  0  0  0  0  0  0  0  0  0
  1  2  1  0
  2  3  1  0
  4  3  1  0
  5  7  1  0
  5  4  1  0
  5  6  1  1
  7  9  1  0
  7  8  2  0
  9 10  1  0
 10 14  1  0
 10 11  1  6
 12 13  2  0
 12 11  1  0
 14 20  1  0
 14 15  2  0
 16 12  1  0
 17 18  1  0
 19 18  1  1
 19 21  1  0
 20 19  1  0
 21 23  1  0
 22 21  2  0
M  END
$$$$
