MDS.pdb
     RDKit          3D

 23 22  0  0  1  0  0  0  0  0999 V2000
   28.5591  -19.2495   -3.7884 C   0  0  0  0  0  0  0  0  0  0  0  0
   28.5842  -19.8795   -5.4904 S   0  0  0  0  0  0  0  0  0  0  0  0
   27.0118  -19.4247   -6.3437 C   0  0  0  0  0  0  0  0  0  0  0  0
   27.0821  -20.1083   -7.6809 C   0  0  0  0  0  0  0  0  0  0  0  0
   25.7613  -20.5016   -8.1582 C   0  0  2  0  0  0  0  0  0  0  0  0
   24.9176  -21.1256   -7.1534 N   0  0  0  0  0  0  0  0  0  0  0  0
   25.5744  -21.1577   -9.4300 C   0  0  0  0  0  0  0  0  0  0  0  0
   24.9167  -22.2604   -9.3822 O   0  0  0  0  0  0  0  0  0  0  0  0
   26.0486  -20.6924  -10.6704 N   0  0  0  0  0  0  0  0  0  0  0  0
   25.3740  -20.9959  -11.9509 C   0  0  1  0  0  0  0  0  0  0  0  0
   23.9921  -20.4874  -11.8100 C   0  0  0  0  0  0  0  0  0  0  0  0
   23.0105  -20.9175  -12.7991 C   0  0  0  0  0  0  0  0  0  0  0  0
   22.0889  -20.1199  -13.1093 O   0  0  0  0  0  0  0  0  0  0  0  0
   26.1937  -20.4243  -13.0346 C   0  0  0  0  0  0  0  0  0  0  0  0
   26.3299  -19.1580  -13.1683 O   0  0  0  0  0  0  0  0  0  0  0  0
   23.0204  -22.1526  -13.4281 O   0  0  0  0  0  0  0  0  0  0  0  0
   27.9758  -22.7961  -15.6800 O   0  0  0  0  0  0  0  0  0  0  0  0
   28.6838  -21.5920  -15.5587 C   0  0  0  0  0  0  0  0  0  0  0  0
   27.6971  -20.5617  -15.0506 C   0  0  2  0  0  0  0  0  0  0  0  0
   26.8947  -21.1882  -14.0048 N   0  0  0  0  0  0  0  0  0  0  0  0
   26.8123  -20.0908  -16.1458 C   0  0  0  0  0  0  0  0  0  0  0  0
   25.6072  -20.3933  -16.1237 O   0  0  0  0  0  0  0  0  0  0  0  0
   27.3298  -19.3182  -17.1847 O   0  0  0  0  0  0  0  0  0  0  0  0
  1  2  1  0
  2  3  1  0
  4  3  1  0
  5  7  1  0
  5  4  1  0
  5  6  1  1
  7  9  1  0
  7  8  2  0
  9 10  1  0
 10 14  1  0
 10 11  1  1
 12 13  2  0
 12 11  1  0
 14 20  1  0
 14 15  2  0
 16 12  1  0
 17 18  1  0
 19 18  1  6
 19 21  1  0
 20 19  1  0
 21 23  1  0
 22 21  2  0
M  END
$$$$
