LHN.pdb
     RDKit          3D

 27 27  0  0  1  0  0  0  0  0999 V2000
    5.8251  -11.5562   26.3685 C   0  0  0  0  0  0  0  0  0  0  0  0
    6.9318  -12.5591   26.5256 C   0  0  1  0  0  0  0  0  0  0  0  0
    7.8382  -12.2686   27.6900 C   0  0  0  0  0  0  0  0  0  0  0  0
    6.3547  -13.9528   26.5588 C   0  0  0  0  0  0  0  0  0  0  0  0
    7.3555  -14.9861   26.0930 C   0  0  2  0  0  0  0  0  0  0  0  0
    8.6897  -14.6275   26.4612 N   0  0  0  0  0  0  0  0  0  0  0  0
    7.1994  -15.1062   24.6071 C   0  0  0  0  0  0  0  0  0  0  0  0
    6.1159  -15.5976   24.1920 O   0  0  0  0  0  0  0  0  0  0  0  0
    8.2213  -14.6872   23.7162 N   0  0  0  0  0  0  0  0  0  0  0  0
    8.1338  -15.0375   22.2740 C   0  0  1  0  0  0  0  0  0  0  0  0
    8.1729  -13.7319   21.5672 C   0  0  0  0  0  0  0  0  0  0  0  0
    8.0614  -13.7943   20.1011 C   0  0  0  0  0  0  0  0  0  0  0  0
    7.3135  -14.6297   19.3051 C   0  0  0  0  0  0  0  0  0  0  0  0
    7.5317  -14.3598   18.0120 N   0  0  0  0  0  0  0  0  0  0  0  0
    8.4176  -13.3526   17.9472 C   0  0  0  0  0  0  0  0  0  0  0  0
    8.7373  -13.0113   19.2057 N   0  0  0  0  0  0  0  0  0  0  0  0
    9.2803  -15.9400   22.0376 C   0  0  0  0  0  0  0  0  0  0  0  0
    9.6341  -16.2529   20.8391 O   0  0  0  0  0  0  0  0  0  0  0  0
   14.1902  -18.3717   22.6426 N   0  0  0  0  0  0  0  0  0  0  0  0
   13.2413  -18.4114   23.6905 C   0  0  0  0  0  0  0  0  0  0  0  0
   13.3417  -19.3447   24.5717 O   0  0  0  0  0  0  0  0  0  0  0  0
   12.1377  -17.4817   23.8824 C   0  0  0  0  0  0  0  0  0  0  0  0
   11.1845  -17.4317   22.7044 C   0  0  2  0  0  0  0  0  0  0  0  0
   10.0843  -16.5288   23.0552 N   0  0  0  0  0  0  0  0  0  0  0  0
   10.6875  -18.7806   22.4026 C   0  0  0  0  0  0  0  0  0  0  0  0
    9.3859  -19.2121   22.7077 O   0  0  0  0  0  0  0  0  0  0  0  0
   11.4185  -19.6264   21.8476 O   0  0  0  0  0  0  0  0  0  0  0  0
  2  1  1  1
  2  3  1  0
  4  2  1  0
  5  4  1  0
  5  6  1  6
  7  8  2  0
  7  5  1  0
  9  7  1  0
 10  9  1  0
 11 12  1  0
 10 11  1  6
 12 16  1  0
 13 14  1  0
 13 12  2  0
 14 15  1  0
 15 16  2  0
 17 10  1  0
 17 18  2  0
 20 19  1  0
 21 20  2  0
 23 22  1  1
 22 20  1  0
 23 24  1  0
 24 17  1  0
 25 23  1  0
 26 25  1  0
 27 25  2  0
M  END
$$$$
