LHN.pdb
     RDKit          3D

 27 27  0  0  1  0  0  0  0  0999 V2000
    8.1424  -12.5204   21.6812 C   0  0  0  0  0  0  0  0  0  0  0  0
    7.5977  -13.2318   20.4760 C   0  0  1  0  0  0  0  0  0  0  0  0
    7.3601  -12.3209   19.3032 C   0  0  0  0  0  0  0  0  0  0  0  0
    8.4775  -14.4108   20.1402 C   0  0  0  0  0  0  0  0  0  0  0  0
    7.9163  -15.2216   18.9939 C   0  0  2  0  0  0  0  0  0  0  0  0
    6.6705  -15.8305   19.3424 N   0  0  0  0  0  0  0  0  0  0  0  0
    8.9539  -16.2407   18.6311 C   0  0  0  0  0  0  0  0  0  0  0  0
    8.7395  -17.4231   19.0103 O   0  0  0  0  0  0  0  0  0  0  0  0
   10.1169  -15.8887   17.8984 N   0  0  0  0  0  0  0  0  0  0  0  0
   11.0925  -16.9413   17.5098 C   0  0  1  0  0  0  0  0  0  0  0  0
   11.4838  -16.5960   16.1195 C   0  0  0  0  0  0  0  0  0  0  0  0
   10.3949  -16.5963   15.1294 C   0  0  0  0  0  0  0  0  0  0  0  0
    9.7706  -15.5452   14.5000 C   0  0  0  0  0  0  0  0  0  0  0  0
    8.8057  -15.9949   13.6880 N   0  0  0  0  0  0  0  0  0  0  0  0
    8.7874  -17.3348   13.7760 C   0  0  0  0  0  0  0  0  0  0  0  0
    9.7446  -17.6980   14.6444 N   0  0  0  0  0  0  0  0  0  0  0  0
   12.1613  -16.8552   18.5271 C   0  0  0  0  0  0  0  0  0  0  0  0
   13.2559  -17.5199   18.3880 O   0  0  0  0  0  0  0  0  0  0  0  0
   13.8626  -13.3880   18.5627 N   0  0  0  0  0  0  0  0  0  0  0  0
   14.4249  -14.2171   19.5608 C   0  0  0  0  0  0  0  0  0  0  0  0
   15.6378  -14.6216   19.4085 O   0  0  0  0  0  0  0  0  0  0  0  0
   13.7592  -14.6693   20.7738 C   0  0  0  0  0  0  0  0  0  0  0  0
   13.2154  -16.0806   20.6684 C   0  0  2  0  0  0  0  0  0  0  0  0
   12.1062  -16.0640   19.7101 N   0  0  0  0  0  0  0  0  0  0  0  0
   12.7689  -16.5471   21.9878 C   0  0  0  0  0  0  0  0  0  0  0  0
   13.6255  -16.6761   23.0937 O   0  0  0  0  0  0  0  0  0  0  0  0
   11.5775  -16.8585   22.1908 O   0  0  0  0  0  0  0  0  0  0  0  0
  2  1  1  1
  2  3  1  0
  4  2  1  0
  5  4  1  0
  5  6  1  1
  7  8  2  0
  7  5  1  0
  9  7  1  0
 10  9  1  0
 11 12  1  0
 10 11  1  6
 12 16  1  0
 13 14  1  0
 13 12  2  0
 14 15  1  0
 15 16  2  0
 17 10  1  0
 17 18  2  0
 20 19  1  0
 21 20  2  0
 23 22  1  1
 22 20  1  0
 23 24  1  0
 24 17  1  0
 25 23  1  0
 26 25  1  0
 27 25  2  0
M  END
$$$$
