LHN.pdb
     RDKit          3D

 27 27  0  0  1  0  0  0  0  0999 V2000
    6.5766  -13.1062   18.8719 C   0  0  0  0  0  0  0  0  0  0  0  0
    8.0704  -13.0099   18.9924 C   0  0  1  0  0  0  0  0  0  0  0  0
    8.5259  -11.8679   19.8584 C   0  0  0  0  0  0  0  0  0  0  0  0
    8.6329  -14.3413   19.4253 C   0  0  0  0  0  0  0  0  0  0  0  0
   10.1031  -14.2457   19.7657 C   0  0  2  0  0  0  0  0  0  0  0  0
   10.8338  -13.5580   18.7471 N   0  0  0  0  0  0  0  0  0  0  0  0
   10.5984  -15.6471   19.9587 C   0  0  0  0  0  0  0  0  0  0  0  0
    9.9824  -16.3516   20.8026 O   0  0  0  0  0  0  0  0  0  0  0  0
   11.7047  -16.1518   19.2273 N   0  0  0  0  0  0  0  0  0  0  0  0
   12.1107  -17.5730   19.3880 C   0  0  1  0  0  0  0  0  0  0  0  0
   12.0861  -18.1287   18.0110 C   0  0  0  0  0  0  0  0  0  0  0  0
   10.7787  -18.1074   17.3356 C   0  0  0  0  0  0  0  0  0  0  0  0
   10.3401  -17.3430   16.2801 C   0  0  0  0  0  0  0  0  0  0  0  0
    9.0623  -17.6268   15.9985 N   0  0  0  0  0  0  0  0  0  0  0  0
    8.6531  -18.5727   16.8596 C   0  0  0  0  0  0  0  0  0  0  0  0
    9.6868  -18.8627   17.6656 N   0  0  0  0  0  0  0  0  0  0  0  0
   13.4349  -17.5126   20.0418 C   0  0  0  0  0  0  0  0  0  0  0  0
   14.1675  -18.5675   20.1411 O   0  0  0  0  0  0  0  0  0  0  0  0
   17.9867  -13.9861   22.0329 N   0  0  0  0  0  0  0  0  0  0  0  0
   17.4549  -15.0262   21.2359 C   0  0  0  0  0  0  0  0  0  0  0  0
   18.2279  -16.0024   20.9083 O   0  0  0  0  0  0  0  0  0  0  0  0
   16.0897  -15.1111   20.7379 C   0  0  0  0  0  0  0  0  0  0  0  0
   15.3763  -16.3811   21.1584 C   0  0  2  0  0  0  0  0  0  0  0  0
   14.0215  -16.3410   20.6003 N   0  0  0  0  0  0  0  0  0  0  0  0
   15.3432  -16.4773   22.6238 C   0  0  0  0  0  0  0  0  0  0  0  0
   16.4126  -16.9674   23.3917 O   0  0  0  0  0  0  0  0  0  0  0  0
   14.3370  -16.1190   23.2695 O   0  0  0  0  0  0  0  0  0  0  0  0
  2  1  1  1
  2  3  1  0
  4  2  1  0
  5  4  1  0
  5  6  1  6
  7  8  2  0
  7  5  1  0
  9  7  1  0
 10  9  1  0
 11 12  1  0
 10 11  1  6
 12 16  1  0
 13 14  1  0
 13 12  2  0
 14 15  1  0
 15 16  2  0
 17 10  1  0
 17 18  2  0
 20 19  1  0
 21 20  2  0
 23 22  1  1
 22 20  1  0
 23 24  1  0
 24 17  1  0
 25 23  1  0
 26 25  1  0
 27 25  2  0
M  END
$$$$
