LHN.pdb
     RDKit          3D

 27 27  0  0  1  0  0  0  0  0999 V2000
   19.7994  -12.2939   16.4692 C   0  0  0  0  0  0  0  0  0  0  0  0
   18.3668  -12.6529   16.1973 C   0  0  1  0  0  0  0  0  0  0  0  0
   18.2091  -13.7334   15.1633 C   0  0  0  0  0  0  0  0  0  0  0  0
   17.6664  -12.9701   17.4956 C   0  0  0  0  0  0  0  0  0  0  0  0
   16.2192  -13.3488   17.2749 C   0  0  2  0  0  0  0  0  0  0  0  0
   15.4438  -12.2281   16.8426 N   0  0  0  0  0  0  0  0  0  0  0  0
   15.7135  -13.9122   18.5685 C   0  0  0  0  0  0  0  0  0  0  0  0
   15.3316  -13.0806   19.4347 O   0  0  0  0  0  0  0  0  0  0  0  0
   15.6684  -15.3110   18.8027 N   0  0  0  0  0  0  0  0  0  0  0  0
   15.0288  -15.8332   20.0392 C   0  0  1  0  0  0  0  0  0  0  0  0
   14.1446  -16.9304   19.5702 C   0  0  0  0  0  0  0  0  0  0  0  0
   13.4358  -17.6753   20.6230 C   0  0  0  0  0  0  0  0  0  0  0  0
   13.4260  -17.4892   21.9854 C   0  0  0  0  0  0  0  0  0  0  0  0
   12.6629  -18.4168   22.5769 N   0  0  0  0  0  0  0  0  0  0  0  0
   12.1684  -19.2143   21.6163 C   0  0  0  0  0  0  0  0  0  0  0  0
   12.6337  -18.7682   20.4386 N   0  0  0  0  0  0  0  0  0  0  0  0
   16.1582  -16.2326   20.9050 C   0  0  0  0  0  0  0  0  0  0  0  0
   17.1041  -16.9787   20.4488 O   0  0  0  0  0  0  0  0  0  0  0  0
   19.2291  -15.2738   21.1428 N   0  0  0  0  0  0  0  0  0  0  0  0
   19.1966  -14.8176   22.4810 C   0  0  0  0  0  0  0  0  0  0  0  0
   20.0249  -13.8970   22.8339 O   0  0  0  0  0  0  0  0  0  0  0  0
   18.2997  -15.2902   23.5256 C   0  0  0  0  0  0  0  0  0  0  0  0
   17.4018  -16.4260   23.0757 C   0  0  2  0  0  0  0  0  0  0  0  0
   16.3221  -15.8517   22.2675 N   0  0  0  0  0  0  0  0  0  0  0  0
   16.8680  -17.1378   24.2445 C   0  0  0  0  0  0  0  0  0  0  0  0
   15.5160  -17.0977   24.6241 O   0  0  0  0  0  0  0  0  0  0  0  0
   17.6110  -17.8277   24.9723 O   0  0  0  0  0  0  0  0  0  0  0  0
  2  1  1  1
  2  3  1  0
  4  2  1  0
  5  4  1  0
  5  6  1  1
  7  8  2  0
  7  5  1  0
  9  7  1  0
 10  9  1  0
 11 12  1  0
 10 11  1  6
 12 16  1  0
 13 14  1  0
 13 12  2  0
 14 15  1  0
 15 16  2  0
 17 10  1  0
 17 18  2  0
 20 19  1  0
 21 20  2  0
 23 22  1  1
 22 20  1  0
 23 24  1  0
 24 17  1  0
 25 23  1  0
 26 25  1  0
 27 25  2  0
M  END
$$$$
