LHN.pdb
     RDKit          3D

 27 27  0  0  1  0  0  0  0  0999 V2000
    7.2654  -13.2493   21.1330 C   0  0  0  0  0  0  0  0  0  0  0  0
    7.7930  -13.5118   19.7517 C   0  0  1  0  0  0  0  0  0  0  0  0
    7.9038  -12.2703   18.9103 C   0  0  0  0  0  0  0  0  0  0  0  0
    9.0863  -14.2842   19.8392 C   0  0  0  0  0  0  0  0  0  0  0  0
    9.6835  -14.5356   18.4730 C   0  0  2  0  0  0  0  0  0  0  0  0
    8.8008  -15.2990   17.6469 N   0  0  0  0  0  0  0  0  0  0  0  0
   10.9906  -15.2363   18.6903 C   0  0  0  0  0  0  0  0  0  0  0  0
   10.9625  -16.4961   18.6859 O   0  0  0  0  0  0  0  0  0  0  0  0
   12.1960  -14.5151   18.8908 N   0  0  0  0  0  0  0  0  0  0  0  0
   13.4839  -15.2477   19.0140 C   0  0  1  0  0  0  0  0  0  0  0  0
   14.5177  -14.2607   18.6107 C   0  0  0  0  0  0  0  0  0  0  0  0
   15.1702  -14.5105   17.3155 C   0  0  0  0  0  0  0  0  0  0  0  0
   15.2035  -15.6499   16.5463 C   0  0  0  0  0  0  0  0  0  0  0  0
   15.9401  -15.4482   15.4466 N   0  0  0  0  0  0  0  0  0  0  0  0
   16.3937  -14.1848   15.4829 C   0  0  0  0  0  0  0  0  0  0  0  0
   15.9303  -13.6191   16.6088 N   0  0  0  0  0  0  0  0  0  0  0  0
   13.5264  -15.6962   20.4217 C   0  0  0  0  0  0  0  0  0  0  0  0
   13.2075  -14.8932   21.3771 O   0  0  0  0  0  0  0  0  0  0  0  0
   12.7978  -20.0689   24.4437 N   0  0  0  0  0  0  0  0  0  0  0  0
   13.7905  -19.3029   23.7898 C   0  0  0  0  0  0  0  0  0  0  0  0
   14.8470  -18.9785   24.4504 O   0  0  0  0  0  0  0  0  0  0  0  0
   13.7418  -18.8342   22.4125 C   0  0  0  0  0  0  0  0  0  0  0  0
   13.9120  -17.3331   22.2840 C   0  0  2  0  0  0  0  0  0  0  0  0
   13.8989  -17.0004   20.8564 N   0  0  0  0  0  0  0  0  0  0  0  0
   15.1709  -16.9143   22.9143 C   0  0  0  0  0  0  0  0  0  0  0  0
   16.3632  -16.7090   22.2004 O   0  0  0  0  0  0  0  0  0  0  0  0
   15.2399  -16.7173   24.1449 O   0  0  0  0  0  0  0  0  0  0  0  0
  2  1  1  1
  2  3  1  0
  4  2  1  0
  5  4  1  0
  5  6  1  6
  7  8  2  0
  7  5  1  0
  9  7  1  0
 10  9  1  0
 11 12  1  0
 10 11  1  1
 12 16  1  0
 13 14  1  0
 13 12  2  0
 14 15  1  0
 15 16  2  0
 17 10  1  0
 17 18  2  0
 20 19  1  0
 21 20  2  0
 23 22  1  6
 22 20  1  0
 23 24  1  0
 24 17  1  0
 25 23  1  0
 26 25  1  0
 27 25  2  0
M  END
$$$$
