LHN.pdb
     RDKit          3D

 27 27  0  0  1  0  0  0  0  0999 V2000
    7.5826  -11.5541   26.3232 C   0  0  0  0  0  0  0  0  0  0  0  0
    7.0387  -12.9507   26.2287 C   0  0  1  0  0  0  0  0  0  0  0  0
    5.9999  -13.2575   27.2720 C   0  0  0  0  0  0  0  0  0  0  0  0
    6.5611  -13.2169   24.8224 C   0  0  0  0  0  0  0  0  0  0  0  0
    6.1749  -14.6655   24.6253 C   0  0  2  0  0  0  0  0  0  0  0  0
    5.8712  -15.3014   25.8694 N   0  0  0  0  0  0  0  0  0  0  0  0
    7.3198  -15.3306   23.9230 C   0  0  0  0  0  0  0  0  0  0  0  0
    7.4993  -16.5531   24.1702 O   0  0  0  0  0  0  0  0  0  0  0  0
    8.1570  -14.6175   23.0264 N   0  0  0  0  0  0  0  0  0  0  0  0
    9.1118  -15.3574   22.1595 C   0  0  1  0  0  0  0  0  0  0  0  0
    9.5000  -14.3813   21.1097 C   0  0  0  0  0  0  0  0  0  0  0  0
    8.4998  -14.1420   20.0570 C   0  0  0  0  0  0  0  0  0  0  0  0
    7.8480  -12.9844   19.7022 C   0  0  0  0  0  0  0  0  0  0  0  0
    6.9919  -13.2202   18.7001 N   0  0  0  0  0  0  0  0  0  0  0  0
    7.0729  -14.5243   18.3900 C   0  0  0  0  0  0  0  0  0  0  0  0
    7.9813  -15.0805   19.2072 N   0  0  0  0  0  0  0  0  0  0  0  0
   10.1884  -15.7922   23.0741 C   0  0  0  0  0  0  0  0  0  0  0  0
   10.7431  -14.9552   23.8810 O   0  0  0  0  0  0  0  0  0  0  0  0
    9.1865  -19.6178   25.3244 N   0  0  0  0  0  0  0  0  0  0  0  0
   10.3780  -18.8900   25.5494 C   0  0  0  0  0  0  0  0  0  0  0  0
   10.4862  -18.2157   26.6409 O   0  0  0  0  0  0  0  0  0  0  0  0
   11.5241  -18.8253   24.6543 C   0  0  0  0  0  0  0  0  0  0  0  0
   11.7794  -17.4345   24.1074 C   0  0  2  0  0  0  0  0  0  0  0  0
   10.7018  -17.1176   23.1655 N   0  0  0  0  0  0  0  0  0  0  0  0
   13.0910  -17.3868   23.4477 C   0  0  0  0  0  0  0  0  0  0  0  0
   13.2602  -17.1113   22.0806 O   0  0  0  0  0  0  0  0  0  0  0  0
   14.1415  -17.5950   24.0887 O   0  0  0  0  0  0  0  0  0  0  0  0
  2  1  1  6
  2  3  1  0
  4  2  1  0
  5  4  1  0
  5  6  1  1
  7  8  2  0
  7  5  1  0
  9  7  1  0
 10  9  1  0
 11 12  1  0
 10 11  1  6
 12 16  1  0
 13 14  1  0
 13 12  2  0
 14 15  1  0
 15 16  2  0
 17 10  1  0
 17 18  2  0
 20 19  1  0
 21 20  2  0
 23 22  1  6
 22 20  1  0
 23 24  1  0
 24 17  1  0
 25 23  1  0
 26 25  1  0
 27 25  2  0
M  END
$$$$
