LHN.pdb
     RDKit          3D

 27 27  0  0  1  0  0  0  0  0999 V2000
    7.0011  -10.8231   25.7857 C   0  0  0  0  0  0  0  0  0  0  0  0
    7.0779  -12.1618   26.4620 C   0  0  1  0  0  0  0  0  0  0  0  0
    6.4151  -12.1863   27.8117 C   0  0  0  0  0  0  0  0  0  0  0  0
    6.5641  -13.2324   25.5312 C   0  0  0  0  0  0  0  0  0  0  0  0
    7.3025  -14.5389   25.7163 C   0  0  2  0  0  0  0  0  0  0  0  0
    8.4388  -14.3830   26.5700 N   0  0  0  0  0  0  0  0  0  0  0  0
    7.6917  -15.0175   24.3503 C   0  0  0  0  0  0  0  0  0  0  0  0
    6.7506  -15.3332   23.5741 O   0  0  0  0  0  0  0  0  0  0  0  0
    9.0513  -15.1093   23.9544 N   0  0  0  0  0  0  0  0  0  0  0  0
    9.3986  -15.6984   22.6342 C   0  0  1  0  0  0  0  0  0  0  0  0
    9.7712  -14.5348   21.7900 C   0  0  0  0  0  0  0  0  0  0  0  0
    8.7050  -14.0039   20.9255 C   0  0  0  0  0  0  0  0  0  0  0  0
    8.1705  -12.7389   20.8546 C   0  0  0  0  0  0  0  0  0  0  0  0
    7.1921  -12.6970   19.9415 N   0  0  0  0  0  0  0  0  0  0  0  0
    7.0759  -13.9242   19.4086 C   0  0  0  0  0  0  0  0  0  0  0  0
    7.9871  -14.7123   20.0010 N   0  0  0  0  0  0  0  0  0  0  0  0
   10.4798  -16.6626   22.9272 C   0  0  0  0  0  0  0  0  0  0  0  0
   10.9816  -16.7477   24.1106 O   0  0  0  0  0  0  0  0  0  0  0  0
   11.2493  -22.0336   23.8599 N   0  0  0  0  0  0  0  0  0  0  0  0
   11.7659  -20.7172   23.8449 C   0  0  0  0  0  0  0  0  0  0  0  0
   12.9648  -20.5255   24.2735 O   0  0  0  0  0  0  0  0  0  0  0  0
   11.0665  -19.5278   23.3809 C   0  0  0  0  0  0  0  0  0  0  0  0
   11.8927  -18.6773   22.4361 C   0  0  2  0  0  0  0  0  0  0  0  0
   11.0536  -17.5633   21.9847 N   0  0  0  0  0  0  0  0  0  0  0  0
   12.3521  -19.4886   21.3010 C   0  0  0  0  0  0  0  0  0  0  0  0
   11.9293  -19.2782   19.9779 O   0  0  0  0  0  0  0  0  0  0  0  0
   13.1593  -20.4262   21.4653 O   0  0  0  0  0  0  0  0  0  0  0  0
  2  1  1  6
  2  3  1  0
  4  2  1  0
  5  4  1  0
  5  6  1  1
  7  8  2  0
  7  5  1  0
  9  7  1  0
 10  9  1  0
 11 12  1  0
 10 11  1  6
 12 16  1  0
 13 14  1  0
 13 12  2  0
 14 15  1  0
 15 16  2  0
 17 10  1  0
 17 18  2  0
 20 19  1  0
 21 20  2  0
 23 22  1  1
 22 20  1  0
 23 24  1  0
 24 17  1  0
 25 23  1  0
 26 25  1  0
 27 25  2  0
M  END
$$$$
