LHN.pdb
     RDKit          3D

 27 27  0  0  1  0  0  0  0  0999 V2000
    5.4205  -11.0118   25.7651 C   0  0  0  0  0  0  0  0  0  0  0  0
    6.5139  -12.0040   26.0396 C   0  0  1  0  0  0  0  0  0  0  0  0
    7.0538  -11.9231   27.4409 C   0  0  0  0  0  0  0  0  0  0  0  0
    6.0498  -13.3896   25.6638 C   0  0  0  0  0  0  0  0  0  0  0  0
    7.1093  -14.4317   25.9436 C   0  0  2  0  0  0  0  0  0  0  0  0
    8.3476  -13.8302   26.3295 N   0  0  0  0  0  0  0  0  0  0  0  0
    7.2518  -15.2542   24.6987 C   0  0  0  0  0  0  0  0  0  0  0  0
    6.2030  -15.7955   24.2574 O   0  0  0  0  0  0  0  0  0  0  0  0
    8.5051  -15.4135   24.0527 N   0  0  0  0  0  0  0  0  0  0  0  0
    8.6429  -16.3853   22.9360 C   0  0  1  0  0  0  0  0  0  0  0  0
    9.3870  -15.6463   21.8845 C   0  0  0  0  0  0  0  0  0  0  0  0
    8.5706  -14.8079   20.9921 C   0  0  0  0  0  0  0  0  0  0  0  0
    7.2091  -14.6180   20.9565 C   0  0  0  0  0  0  0  0  0  0  0  0
    6.8805  -13.7874   19.9591 N   0  0  0  0  0  0  0  0  0  0  0  0
    8.0139  -13.4269   19.3355 C   0  0  0  0  0  0  0  0  0  0  0  0
    9.0327  -14.0415   19.9574 N   0  0  0  0  0  0  0  0  0  0  0  0
    9.3386  -17.5450   23.5324 C   0  0  0  0  0  0  0  0  0  0  0  0
   10.4327  -17.3861   24.1936 O   0  0  0  0  0  0  0  0  0  0  0  0
    6.6066  -19.6888   25.9653 N   0  0  0  0  0  0  0  0  0  0  0  0
    7.9492  -20.1331   25.9619 C   0  0  0  0  0  0  0  0  0  0  0  0
    8.6668  -19.9205   27.0097 O   0  0  0  0  0  0  0  0  0  0  0  0
    8.6195  -20.8256   24.8709 C   0  0  0  0  0  0  0  0  0  0  0  0
    9.6307  -19.9610   24.1438 C   0  0  2  0  0  0  0  0  0  0  0  0
    8.8968  -18.8967   23.4528 N   0  0  0  0  0  0  0  0  0  0  0  0
   10.3996  -20.7770   23.1949 C   0  0  0  0  0  0  0  0  0  0  0  0
   10.3436  -20.6032   21.8020 O   0  0  0  0  0  0  0  0  0  0  0  0
   11.1566  -21.6856   23.5937 O   0  0  0  0  0  0  0  0  0  0  0  0
  2  1  1  1
  2  3  1  0
  4  2  1  0
  5  4  1  0
  5  6  1  6
  7  8  2  0
  7  5  1  0
  9  7  1  0
 10  9  1  0
 11 12  1  0
 10 11  1  6
 12 16  1  0
 13 14  1  0
 13 12  2  0
 14 15  1  0
 15 16  2  0
 17 10  1  0
 17 18  2  0
 20 19  1  0
 21 20  2  0
 23 22  1  6
 22 20  1  0
 23 24  1  0
 24 17  1  0
 25 23  1  0
 26 25  1  0
 27 25  2  0
M  END
$$$$
