VWK.pdb
     RDKit          3D

 31 32  0  0  1  0  0  0  0  0999 V2000
   29.8193  -20.7191  -16.5486 C   0  0  0  0  0  0  0  0  0  0  0  0
   28.9766  -21.2841  -15.4390 C   0  0  2  0  0  0  0  0  0  0  0  0
   28.8918  -22.7905  -15.4890 C   0  0  0  0  0  0  0  0  0  0  0  0
   27.5917  -20.6886  -15.4406 C   0  0  2  0  0  0  0  0  0  0  0  0
   27.6521  -19.2607  -15.4461 N   0  0  0  0  0  0  0  0  0  0  0  0
   26.7988  -21.1866  -14.2831 C   0  0  0  0  0  0  0  0  0  0  0  0
   26.5581  -22.4081  -14.1092 O   0  0  0  0  0  0  0  0  0  0  0  0
   26.3015  -20.2472  -13.3507 N   0  0  0  0  0  0  0  0  0  0  0  0
   25.4697  -20.7150  -12.2111 C   0  0  1  0  0  0  0  0  0  0  0  0
   25.9603  -19.9647  -11.0347 C   0  0  0  0  0  0  0  0  0  0  0  0
   27.1360  -20.4660  -10.3259 C   0  0  0  0  0  0  0  0  0  0  0  0
   28.2400  -21.1397  -10.8584 C   0  0  0  0  0  0  0  0  0  0  0  0
   29.0775  -21.4136   -9.8480 N   0  0  0  0  0  0  0  0  0  0  0  0
   28.5768  -20.9532   -8.6859 C   0  0  0  0  0  0  0  0  0  0  0  0
   29.0031  -20.9437   -7.3758 C   0  0  0  0  0  0  0  0  0  0  0  0
   28.2728  -20.3700   -6.3482 C   0  0  0  0  0  0  0  0  0  0  0  0
   27.0585  -19.7790   -6.6536 C   0  0  0  0  0  0  0  0  0  0  0  0
   26.6147  -19.7746   -7.9389 C   0  0  0  0  0  0  0  0  0  0  0  0
   27.3572  -20.3553   -8.9683 C   0  0  0  0  0  0  0  0  0  0  0  0
   24.0628  -20.6719  -12.5480 C   0  0  0  0  0  0  0  0  0  0  0  0
   23.6078  -19.5867  -13.0505 O   0  0  0  0  0  0  0  0  0  0  0  0
   23.1875  -21.7626  -12.3577 N   0  0  0  0  0  0  0  0  0  0  0  0
   21.7394  -21.5120  -12.7497 C   0  0  1  0  0  0  0  0  0  0  0  0
   21.1916  -22.9067  -12.8795 C   0  0  0  0  0  0  0  0  0  0  0  0
   19.7952  -23.1722  -13.2204 C   0  0  0  0  0  0  0  0  0  0  0  0
   19.3435  -24.5711  -13.3187 C   0  0  0  0  0  0  0  0  0  0  0  0
   17.8730  -24.6450  -13.7842 C   0  0  0  0  0  0  0  0  0  0  0  0
   17.4451  -26.0061  -13.9201 N   0  0  0  0  0  0  0  0  0  0  0  0
   21.2375  -20.7451  -11.6017 C   0  0  0  0  0  0  0  0  0  0  0  0
   21.7657  -20.7407  -10.4692 O   0  0  0  0  0  0  0  0  0  0  0  0
   20.0922  -19.9409  -11.7243 O   0  0  0  0  0  0  0  0  0  0  0  0
  2  1  1  6
  2  3  1  0
  4  2  1  0
  4  5  1  1
  6  4  1  0
  6  7  2  0
  8  6  1  0
  9  8  1  0
  9 10  1  1
 10 11  1  0
 11 19  1  0
 11 12  2  0
 12 13  1  0
 14 15  2  0
 14 13  1  0
 16 15  1  0
 17 16  2  0
 18 17  1  0
 18 19  2  0
 19 14  1  0
 20  9  1  0
 21 20  2  0
 22 20  1  0
 23 24  1  1
 23 22  1  0
 24 25  1  0
 25 26  1  0
 26 27  1  0
 27 28  1  0
 29 23  1  0
 30 29  2  0
 31 29  1  0
M  END
$$$$
