VWK.pdb
     RDKit          3D

 31 32  0  0  1  0  0  0  0  0999 V2000
   21.2151  -18.9938  -12.4582 C   0  0  0  0  0  0  0  0  0  0  0  0
   21.2749  -20.4564  -12.1152 C   0  0  2  0  0  0  0  0  0  0  0  0
   21.8248  -20.7021  -10.7309 C   0  0  0  0  0  0  0  0  0  0  0  0
   22.0746  -21.2291  -13.1331 C   0  0  2  0  0  0  0  0  0  0  0  0
   21.9590  -22.6359  -12.9092 N   0  0  0  0  0  0  0  0  0  0  0  0
   23.5003  -20.8007  -13.1238 C   0  0  0  0  0  0  0  0  0  0  0  0
   23.8588  -19.6506  -13.4829 O   0  0  0  0  0  0  0  0  0  0  0  0
   24.4807  -21.7252  -12.6953 N   0  0  0  0  0  0  0  0  0  0  0  0
   25.9186  -21.3562  -12.7696 C   0  0  1  0  0  0  0  0  0  0  0  0
   26.5205  -21.8741  -11.5218 C   0  0  0  0  0  0  0  0  0  0  0  0
   26.3270  -21.1187  -10.2858 C   0  0  0  0  0  0  0  0  0  0  0  0
   25.1813  -20.4359   -9.8645 C   0  0  0  0  0  0  0  0  0  0  0  0
   25.4499  -19.8841   -8.6726 N   0  0  0  0  0  0  0  0  0  0  0  0
   26.7101  -20.1722   -8.2958 C   0  0  0  0  0  0  0  0  0  0  0  0
   27.4884  -19.8873   -7.1951 C   0  0  0  0  0  0  0  0  0  0  0  0
   28.7907  -20.3372   -7.0542 C   0  0  0  0  0  0  0  0  0  0  0  0
   29.3340  -21.1090   -8.0674 C   0  0  0  0  0  0  0  0  0  0  0  0
   28.5872  -21.4047   -9.1646 C   0  0  0  0  0  0  0  0  0  0  0  0
   27.2754  -20.9469   -9.2983 C   0  0  0  0  0  0  0  0  0  0  0  0
   26.4837  -21.7391  -14.0459 C   0  0  0  0  0  0  0  0  0  0  0  0
   26.1749  -22.8918  -14.5077 O   0  0  0  0  0  0  0  0  0  0  0  0
   27.3396  -20.9037  -14.7955 N   0  0  0  0  0  0  0  0  0  0  0  0
   27.7604  -21.4503  -16.1510 C   0  0  1  0  0  0  0  0  0  0  0  0
   28.1493  -20.2040  -16.8977 C   0  0  0  0  0  0  0  0  0  0  0  0
   28.2689  -20.1674  -18.3541 C   0  0  0  0  0  0  0  0  0  0  0  0
   29.4907  -19.6001  -18.9507 C   0  0  0  0  0  0  0  0  0  0  0  0
   29.4007  -19.5936  -20.4922 C   0  0  0  0  0  0  0  0  0  0  0  0
   30.6357  -19.1614  -21.0770 N   0  0  0  0  0  0  0  0  0  0  0  0
   28.8731  -22.3400  -15.7927 C   0  0  0  0  0  0  0  0  0  0  0  0
   29.6444  -22.1538  -14.8273 O   0  0  0  0  0  0  0  0  0  0  0  0
   29.1359  -23.4960  -16.5465 O   0  0  0  0  0  0  0  0  0  0  0  0
  2  1  1  6
  2  3  1  0
  4  2  1  0
  4  5  1  1
  6  4  1  0
  6  7  2  0
  8  6  1  0
  9  8  1  0
  9 10  1  1
 10 11  1  0
 11 19  1  0
 11 12  2  0
 12 13  1  0
 14 15  2  0
 14 13  1  0
 16 15  1  0
 17 16  2  0
 18 17  1  0
 18 19  2  0
 19 14  1  0
 20  9  1  0
 21 20  2  0
 22 20  1  0
 23 24  1  6
 23 22  1  0
 24 25  1  0
 25 26  1  0
 26 27  1  0
 27 28  1  0
 29 23  1  0
 30 29  2  0
 31 29  1  0
M  END
$$$$
