VWK.pdb
     RDKit          3D

 31 32  0  0  1  0  0  0  0  0999 V2000
   29.5879  -19.8128  -16.3024 C   0  0  0  0  0  0  0  0  0  0  0  0
   28.8572  -20.6105  -15.2583 C   0  0  2  0  0  0  0  0  0  0  0  0
   28.2305  -21.8625  -15.8230 C   0  0  0  0  0  0  0  0  0  0  0  0
   27.8109  -19.7787  -14.5612 C   0  0  2  0  0  0  0  0  0  0  0  0
   28.3525  -18.5224  -14.1476 N   0  0  0  0  0  0  0  0  0  0  0  0
   27.2286  -20.5169  -13.4069 C   0  0  0  0  0  0  0  0  0  0  0  0
   26.6246  -21.6107  -13.5445 O   0  0  0  0  0  0  0  0  0  0  0  0
   27.3629  -19.9623  -12.1132 N   0  0  0  0  0  0  0  0  0  0  0  0
   26.6580  -20.5947  -10.9676 C   0  0  1  0  0  0  0  0  0  0  0  0
   27.4749  -20.2702   -9.7781 C   0  0  0  0  0  0  0  0  0  0  0  0
   26.8800  -20.4383   -8.4539 C   0  0  0  0  0  0  0  0  0  0  0  0
   25.6108  -20.9332   -8.1368 C   0  0  0  0  0  0  0  0  0  0  0  0
   25.4849  -20.9092   -6.8023 N   0  0  0  0  0  0  0  0  0  0  0  0
   26.6055  -20.4251   -6.2341 C   0  0  0  0  0  0  0  0  0  0  0  0
   27.0240  -20.1982   -4.9411 C   0  0  0  0  0  0  0  0  0  0  0  0
   28.2743  -19.6897   -4.6304 C   0  0  0  0  0  0  0  0  0  0  0  0
   29.1426  -19.3966   -5.6683 C   0  0  0  0  0  0  0  0  0  0  0  0
   28.7543  -19.6114   -6.9537 C   0  0  0  0  0  0  0  0  0  0  0  0
   27.4922  -20.1240   -7.2578 C   0  0  0  0  0  0  0  0  0  0  0  0
   25.2504  -20.2580  -10.9791 C   0  0  0  0  0  0  0  0  0  0  0  0
   24.9381  -19.0259  -11.1259 O   0  0  0  0  0  0  0  0  0  0  0  0
   24.2238  -21.2176  -10.8471 N   0  0  0  0  0  0  0  0  0  0  0  0
   22.8666  -20.7988  -11.3912 C   0  0  1  0  0  0  0  0  0  0  0  0
   22.5619  -21.8900  -12.3803 C   0  0  0  0  0  0  0  0  0  0  0  0
   21.2609  -22.0141  -13.0351 C   0  0  0  0  0  0  0  0  0  0  0  0
   21.0198  -23.1678  -13.9191 C   0  0  0  0  0  0  0  0  0  0  0  0
   19.5834  -23.1389  -14.4851 C   0  0  0  0  0  0  0  0  0  0  0  0
   19.3663  -24.2279  -15.3911 N   0  0  0  0  0  0  0  0  0  0  0  0
   22.0354  -20.7998  -10.1800 C   0  0  0  0  0  0  0  0  0  0  0  0
   22.2601  -21.4988   -9.1688 O   0  0  0  0  0  0  0  0  0  0  0  0
   20.8995  -19.9778  -10.0912 O   0  0  0  0  0  0  0  0  0  0  0  0
  2  1  1  6
  2  3  1  0
  4  2  1  0
  4  5  1  1
  6  4  1  0
  6  7  2  0
  8  6  1  0
  9  8  1  0
  9 10  1  1
 10 11  1  0
 11 19  1  0
 11 12  2  0
 12 13  1  0
 14 15  2  0
 14 13  1  0
 16 15  1  0
 17 16  2  0
 18 17  1  0
 18 19  2  0
 19 14  1  0
 20  9  1  0
 21 20  2  0
 22 20  1  0
 23 24  1  6
 23 22  1  0
 24 25  1  0
 25 26  1  0
 26 27  1  0
 27 28  1  0
 29 23  1  0
 30 29  2  0
 31 29  1  0
M  END
$$$$
