VWK.pdb
     RDKit          3D

 31 32  0  0  1  0  0  0  0  0999 V2000
   14.6473  -20.9644    3.5694 C   0  0  0  0  0  0  0  0  0  0  0  0
   15.5938  -20.1737    4.4293 C   0  0  2  0  0  0  0  0  0  0  0  0
   15.0473  -19.9307    5.8155 C   0  0  0  0  0  0  0  0  0  0  0  0
   15.9621  -18.8629    3.7824 C   0  0  2  0  0  0  0  0  0  0  0  0
   16.5212  -19.0757    2.4845 N   0  0  0  0  0  0  0  0  0  0  0  0
   16.8946  -18.0883    4.6467 C   0  0  0  0  0  0  0  0  0  0  0  0
   18.1417  -18.2357    4.5910 O   0  0  0  0  0  0  0  0  0  0  0  0
   16.3515  -17.1561    5.5607 N   0  0  0  0  0  0  0  0  0  0  0  0
   17.2636  -16.3223    6.3866 C   0  0  1  0  0  0  0  0  0  0  0  0
   16.7259  -14.9475    6.2969 C   0  0  0  0  0  0  0  0  0  0  0  0
   17.5774  -13.8983    5.7400 C   0  0  0  0  0  0  0  0  0  0  0  0
   17.3733  -13.1517    4.5751 C   0  0  0  0  0  0  0  0  0  0  0  0
   18.4043  -12.3044    4.4472 N   0  0  0  0  0  0  0  0  0  0  0  0
   19.2686  -12.4600    5.4679 C   0  0  0  0  0  0  0  0  0  0  0  0
   20.4543  -11.8659    5.8413 C   0  0  0  0  0  0  0  0  0  0  0  0
   21.1494  -12.2210    6.9854 C   0  0  0  0  0  0  0  0  0  0  0  0
   20.6270  -13.2194    7.7901 C   0  0  0  0  0  0  0  0  0  0  0  0
   19.4581  -13.8220    7.4443 C   0  0  0  0  0  0  0  0  0  0  0  0
   18.7643  -13.4579    6.2893 C   0  0  0  0  0  0  0  0  0  0  0  0
   17.4741  -16.9219    7.6870 C   0  0  0  0  0  0  0  0  0  0  0  0
   16.4464  -17.3648    8.3075 O   0  0  0  0  0  0  0  0  0  0  0  0
   18.7462  -17.0456    8.2858 N   0  0  0  0  0  0  0  0  0  0  0  0
   18.7580  -17.6895    9.6637 C   0  0  1  0  0  0  0  0  0  0  0  0
   19.8677  -18.6974    9.5422 C   0  0  0  0  0  0  0  0  0  0  0  0
   19.6224  -20.1384    9.5463 C   0  0  0  0  0  0  0  0  0  0  0  0
   20.7724  -21.0532    9.4399 C   0  0  0  0  0  0  0  0  0  0  0  0
   20.3165  -22.5258    9.5298 C   0  0  0  0  0  0  0  0  0  0  0  0
   21.4424  -23.4125    9.5359 N   0  0  0  0  0  0  0  0  0  0  0  0
   19.0440  -16.5435   10.5371 C   0  0  0  0  0  0  0  0  0  0  0  0
   19.7602  -15.5712   10.2157 O   0  0  0  0  0  0  0  0  0  0  0  0
   18.5015  -16.4775   11.8313 O   0  0  0  0  0  0  0  0  0  0  0  0
  2  1  1  6
  2  3  1  0
  4  2  1  0
  4  5  1  6
  6  4  1  0
  6  7  2  0
  8  6  1  0
  9  8  1  0
  9 10  1  1
 10 11  1  0
 11 19  1  0
 11 12  2  0
 12 13  1  0
 14 15  2  0
 14 13  1  0
 16 15  1  0
 17 16  2  0
 18 17  1  0
 18 19  2  0
 19 14  1  0
 20  9  1  0
 21 20  2  0
 22 20  1  0
 23 24  1  6
 23 22  1  0
 24 25  1  0
 25 26  1  0
 26 27  1  0
 27 28  1  0
 29 23  1  0
 30 29  2  0
 31 29  1  0
M  END
$$$$
