VWK.pdb
     RDKit          3D

 31 32  0  0  1  0  0  0  0  0999 V2000
   25.7453  -22.9749  -17.5199 C   0  0  0  0  0  0  0  0  0  0  0  0
   26.8681  -21.9896  -17.3497 C   0  0  2  0  0  0  0  0  0  0  0  0
   27.7661  -21.9235  -18.5614 C   0  0  0  0  0  0  0  0  0  0  0  0
   27.6839  -22.2907  -16.1183 C   0  0  2  0  0  0  0  0  0  0  0  0
   28.3266  -23.5621  -16.2325 N   0  0  0  0  0  0  0  0  0  0  0  0
   26.8398  -22.2253  -14.8937 C   0  0  0  0  0  0  0  0  0  0  0  0
   26.2109  -23.2223  -14.4570 O   0  0  0  0  0  0  0  0  0  0  0  0
   26.7463  -20.9952  -14.2026 N   0  0  0  0  0  0  0  0  0  0  0  0
   25.9294  -20.9105  -12.9638 C   0  0  1  0  0  0  0  0  0  0  0  0
   26.5908  -19.8848  -12.1283 C   0  0  0  0  0  0  0  0  0  0  0  0
   27.6293  -20.3088  -11.1916 C   0  0  0  0  0  0  0  0  0  0  0  0
   28.8839  -20.8526  -11.4855 C   0  0  0  0  0  0  0  0  0  0  0  0
   29.5061  -21.0956  -10.3232 N   0  0  0  0  0  0  0  0  0  0  0  0
   28.7226  -20.7381   -9.2880 C   0  0  0  0  0  0  0  0  0  0  0  0
   28.8523  -20.7511   -7.9164 C   0  0  0  0  0  0  0  0  0  0  0  0
   27.8635  -20.2956   -7.0601 C   0  0  0  0  0  0  0  0  0  0  0  0
   26.6912  -19.8048   -7.6097 C   0  0  0  0  0  0  0  0  0  0  0  0
   26.5378  -19.7809   -8.9606 C   0  0  0  0  0  0  0  0  0  0  0  0
   27.5395  -20.2421   -9.8162 C   0  0  0  0  0  0  0  0  0  0  0  0
   24.5241  -20.7734  -13.2815 C   0  0  0  0  0  0  0  0  0  0  0  0
   24.2127  -20.0392  -14.2821 O   0  0  0  0  0  0  0  0  0  0  0  0
   23.4994  -21.4133  -12.5515 N   0  0  0  0  0  0  0  0  0  0  0  0
   22.0850  -21.1459  -13.0429 C   0  0  1  0  0  0  0  0  0  0  0  0
   21.3042  -22.2654  -12.4111 C   0  0  0  0  0  0  0  0  0  0  0  0
   19.8624  -22.4181  -12.5966 C   0  0  0  0  0  0  0  0  0  0  0  0
   19.1835  -23.5616  -11.9623 C   0  0  0  0  0  0  0  0  0  0  0  0
   17.6889  -23.5999  -12.3486 C   0  0  0  0  0  0  0  0  0  0  0  0
   16.9955  -24.6190  -11.6176 N   0  0  0  0  0  0  0  0  0  0  0  0
   21.8170  -19.8084  -12.4977 C   0  0  0  0  0  0  0  0  0  0  0  0
   22.3450  -19.3479  -11.4629 O   0  0  0  0  0  0  0  0  0  0  0  0
   20.9183  -18.9408  -13.1405 O   0  0  0  0  0  0  0  0  0  0  0  0
  2  1  1  6
  2  3  1  0
  4  2  1  0
  4  5  1  6
  6  4  1  0
  6  7  2  0
  8  6  1  0
  9  8  1  0
  9 10  1  6
 10 11  1  0
 11 19  1  0
 11 12  2  0
 12 13  1  0
 14 15  2  0
 14 13  1  0
 16 15  1  0
 17 16  2  0
 18 17  1  0
 18 19  2  0
 19 14  1  0
 20  9  1  0
 21 20  2  0
 22 20  1  0
 23 24  1  1
 23 22  1  0
 24 25  1  0
 25 26  1  0
 26 27  1  0
 27 28  1  0
 29 23  1  0
 30 29  2  0
 31 29  1  0
M  END
$$$$
