VWK.pdb
     RDKit          3D

 31 32  0  0  1  0  0  0  0  0999 V2000
   29.6987  -21.7031  -16.2385 C   0  0  0  0  0  0  0  0  0  0  0  0
   28.7443  -21.7796  -17.3978 C   0  0  2  0  0  0  0  0  0  0  0  0
   29.2959  -21.1279  -18.6429 C   0  0  0  0  0  0  0  0  0  0  0  0
   27.4059  -21.1791  -17.0505 C   0  0  2  0  0  0  0  0  0  0  0  0
   27.4809  -19.7522  -17.0210 N   0  0  0  0  0  0  0  0  0  0  0  0
   26.9034  -21.7159  -15.7560 C   0  0  0  0  0  0  0  0  0  0  0  0
   26.7047  -22.9431  -15.5692 O   0  0  0  0  0  0  0  0  0  0  0  0
   26.6420  -20.8080  -14.7041 N   0  0  0  0  0  0  0  0  0  0  0  0
   26.1062  -21.3153  -13.4138 C   0  0  1  0  0  0  0  0  0  0  0  0
   26.8888  -20.6242  -12.3663 C   0  0  0  0  0  0  0  0  0  0  0  0
   26.3530  -20.5801  -11.0074 C   0  0  0  0  0  0  0  0  0  0  0  0
   25.0194  -20.4332  -10.6121 C   0  0  0  0  0  0  0  0  0  0  0  0
   24.9871  -20.4441   -9.2719 N   0  0  0  0  0  0  0  0  0  0  0  0
   26.2296  -20.5908   -8.7740 C   0  0  0  0  0  0  0  0  0  0  0  0
   26.7696  -20.6794   -7.5096 C   0  0  0  0  0  0  0  0  0  0  0  0
   28.1245  -20.8486   -7.2773 C   0  0  0  0  0  0  0  0  0  0  0  0
   28.9741  -20.9326   -8.3674 C   0  0  0  0  0  0  0  0  0  0  0  0
   28.4667  -20.8482   -9.6262 C   0  0  0  0  0  0  0  0  0  0  0  0
   27.0998  -20.6775   -9.8510 C   0  0  0  0  0  0  0  0  0  0  0  0
   24.6610  -21.2395  -13.3904 C   0  0  0  0  0  0  0  0  0  0  0  0
   24.1165  -20.1802  -13.8579 O   0  0  0  0  0  0  0  0  0  0  0  0
   23.8396  -22.2728  -12.8906 N   0  0  0  0  0  0  0  0  0  0  0  0
   22.3634  -22.1574  -13.2382 C   0  0  1  0  0  0  0  0  0  0  0  0
   21.8865  -23.5778  -13.1074 C   0  0  0  0  0  0  0  0  0  0  0  0
   20.4868  -23.9555  -13.2940 C   0  0  0  0  0  0  0  0  0  0  0  0
   20.1326  -25.3856  -13.2927 C   0  0  0  0  0  0  0  0  0  0  0  0
   18.6079  -25.5768  -13.4445 C   0  0  0  0  0  0  0  0  0  0  0  0
   18.2634  -26.9679  -13.4564 N   0  0  0  0  0  0  0  0  0  0  0  0
   21.8748  -21.2339  -12.2055 C   0  0  0  0  0  0  0  0  0  0  0  0
   22.2964  -21.2012  -11.0296 O   0  0  0  0  0  0  0  0  0  0  0  0
   20.8688  -20.2986  -12.5003 O   0  0  0  0  0  0  0  0  0  0  0  0
  2  1  1  1
  2  3  1  0
  4  2  1  0
  4  5  1  1
  6  4  1  0
  6  7  2  0
  8  6  1  0
  9  8  1  0
  9 10  1  1
 10 11  1  0
 11 19  1  0
 11 12  2  0
 12 13  1  0
 14 15  2  0
 14 13  1  0
 16 15  1  0
 17 16  2  0
 18 17  1  0
 18 19  2  0
 19 14  1  0
 20  9  1  0
 21 20  2  0
 22 20  1  0
 23 24  1  1
 23 22  1  0
 24 25  1  0
 25 26  1  0
 26 27  1  0
 27 28  1  0
 29 23  1  0
 30 29  2  0
 31 29  1  0
M  END
$$$$
