VWK.pdb
     RDKit          3D

 31 32  0  0  1  0  0  0  0  0999 V2000
   26.5587  -19.2430  -15.4696 C   0  0  0  0  0  0  0  0  0  0  0  0
   27.5771  -18.6224  -14.5541 C   0  0  2  0  0  0  0  0  0  0  0  0
   28.5187  -17.6946  -15.2834 C   0  0  0  0  0  0  0  0  0  0  0  0
   28.3610  -19.6724  -13.8090 C   0  0  2  0  0  0  0  0  0  0  0  0
   29.0812  -20.5091  -14.7167 N   0  0  0  0  0  0  0  0  0  0  0  0
   27.4680  -20.4781  -12.9316 C   0  0  0  0  0  0  0  0  0  0  0  0
   27.0765  -21.6301  -13.2477 O   0  0  0  0  0  0  0  0  0  0  0  0
   27.0488  -19.9218  -11.7011 N   0  0  0  0  0  0  0  0  0  0  0  0
   26.1213  -20.6880  -10.8281 C   0  0  1  0  0  0  0  0  0  0  0  0
   26.3371  -20.1554   -9.4653 C   0  0  0  0  0  0  0  0  0  0  0  0
   27.5122  -20.5997   -8.7186 C   0  0  0  0  0  0  0  0  0  0  0  0
   28.5359  -21.4493   -9.1502 C   0  0  0  0  0  0  0  0  0  0  0  0
   29.4065  -21.5858   -8.1399 N   0  0  0  0  0  0  0  0  0  0  0  0
   29.0034  -20.8694   -7.0734 C   0  0  0  0  0  0  0  0  0  0  0  0
   29.5004  -20.6379   -5.8094 C   0  0  0  0  0  0  0  0  0  0  0  0
   28.8691  -19.8189   -4.8880 C   0  0  0  0  0  0  0  0  0  0  0  0
   27.6838  -19.2050   -5.2560 C   0  0  0  0  0  0  0  0  0  0  0  0
   27.1716  -19.4167   -6.4978 C   0  0  0  0  0  0  0  0  0  0  0  0
   27.8145  -20.2439   -7.4200 C   0  0  0  0  0  0  0  0  0  0  0  0
   24.7851  -20.7037  -11.3841 C   0  0  0  0  0  0  0  0  0  0  0  0
   24.3374  -19.6119  -11.8788 O   0  0  0  0  0  0  0  0  0  0  0  0
   23.9717  -21.8568  -11.4118 N   0  0  0  0  0  0  0  0  0  0  0  0
   22.7229  -21.7527  -12.2739 C   0  0  1  0  0  0  0  0  0  0  0  0
   22.6783  -23.0976  -12.9455 C   0  0  0  0  0  0  0  0  0  0  0  0
   21.8441  -23.3624  -14.1162 C   0  0  0  0  0  0  0  0  0  0  0  0
   21.8434  -24.7177  -14.6939 C   0  0  0  0  0  0  0  0  0  0  0  0
   23.2679  -25.1385  -15.1162 C   0  0  0  0  0  0  0  0  0  0  0  0
   23.2702  -26.4610  -15.6685 N   0  0  0  0  0  0  0  0  0  0  0  0
   21.6752  -21.5168  -11.2716 C   0  0  0  0  0  0  0  0  0  0  0  0
   21.8204  -21.6907  -10.0427 O   0  0  0  0  0  0  0  0  0  0  0  0
   20.4040  -21.0612  -11.6592 O   0  0  0  0  0  0  0  0  0  0  0  0
  2  1  1  6
  2  3  1  0
  4  2  1  0
  4  5  1  6
  6  4  1  0
  6  7  2  0
  8  6  1  0
  9  8  1  0
  9 10  1  1
 10 11  1  0
 11 19  1  0
 11 12  2  0
 12 13  1  0
 14 15  2  0
 14 13  1  0
 16 15  1  0
 17 16  2  0
 18 17  1  0
 18 19  2  0
 19 14  1  0
 20  9  1  0
 21 20  2  0
 22 20  1  0
 23 24  1  1
 23 22  1  0
 24 25  1  0
 25 26  1  0
 26 27  1  0
 27 28  1  0
 29 23  1  0
 30 29  2  0
 31 29  1  0
M  END
$$$$
