VTG.pdb
     RDKit          3D

 19 18  0  0  1  0  0  0  0  0999 V2000
   12.0021  -25.2162   25.7702 C   0  0  0  0  0  0  0  0  0  0  0  0
   12.3096  -25.6901   27.1401 C   0  0  2  0  0  0  0  0  0  0  0  0
   11.5678  -26.9853   27.3939 C   0  0  0  0  0  0  0  0  0  0  0  0
   12.1058  -24.6867   28.2262 C   0  0  2  0  0  0  0  0  0  0  0  0
   10.6552  -24.4946   28.3678 N   0  0  0  0  0  0  0  0  0  0  0  0
   12.7634  -23.3956   28.0076 C   0  0  0  0  0  0  0  0  0  0  0  0
   14.0177  -23.3366   28.0009 O   0  0  0  0  0  0  0  0  0  0  0  0
   13.0240  -21.2293   25.1117 C   0  0  0  0  0  0  0  0  0  0  0  0
   12.3349  -20.4702   26.1928 C   0  0  1  0  0  0  0  0  0  0  0  0
   10.9569  -20.7518   26.0739 O   0  0  0  0  0  0  0  0  0  0  0  0
   12.7635  -20.8887   27.6088 C   0  0  2  0  0  0  0  0  0  0  0  0
   12.0704  -22.1751   27.7974 N   0  0  0  0  0  0  0  0  0  0  0  0
   12.3507  -19.9178   28.6219 C   0  0  0  0  0  0  0  0  0  0  0  0
   12.7519  -18.7267   28.5588 O   0  0  0  0  0  0  0  0  0  0  0  0
   11.4988  -20.2696   29.6920 N   0  0  0  0  0  0  0  0  0  0  0  0
   11.0327  -19.2401   30.6409 C   0  0  0  0  0  0  0  0  0  0  0  0
   12.0514  -19.0499   31.6786 C   0  0  0  0  0  0  0  0  0  0  0  0
   13.1441  -19.6763   31.5557 O   0  0  0  0  0  0  0  0  0  0  0  0
   11.8744  -18.2207   32.7816 O   0  0  0  0  0  0  0  0  0  0  0  0
  2  1  1  6
  3  2  1  0
  4  5  1  6
  4  2  1  0
  6  4  1  0
  6  7  2  0
  9  8  1  6
  9 10  1  0
  9 11  1  0
 11 12  1  1
 11 13  1  0
 12  6  1  0
 13 14  2  0
 13 15  1  0
 15 16  1  0
 17 19  1  0
 17 16  1  0
 18 17  2  0
M  END
$$$$
