VTG.pdb
     RDKit          3D

 19 18  0  0  1  0  0  0  0  0999 V2000
    9.2938  -16.5347   22.0659 C   0  0  0  0  0  0  0  0  0  0  0  0
    7.8390  -16.2593   22.0103 C   0  0  2  0  0  0  0  0  0  0  0  0
    7.2394  -17.0015   20.8347 C   0  0  0  0  0  0  0  0  0  0  0  0
    7.4584  -14.8162   22.0357 C   0  0  2  0  0  0  0  0  0  0  0  0
    8.0302  -14.1992   20.8301 N   0  0  0  0  0  0  0  0  0  0  0  0
    7.8918  -14.0826   23.2278 C   0  0  0  0  0  0  0  0  0  0  0  0
    8.9964  -13.4855   23.2159 O   0  0  0  0  0  0  0  0  0  0  0  0
    6.4281  -12.0350   27.5198 C   0  0  0  0  0  0  0  0  0  0  0  0
    6.2524  -12.7813   26.2423 C   0  0  1  0  0  0  0  0  0  0  0  0
    5.6057  -11.9054   25.3440 O   0  0  0  0  0  0  0  0  0  0  0  0
    7.5782  -13.2045   25.5889 C   0  0  2  0  0  0  0  0  0  0  0  0
    7.1366  -13.9943   24.4260 N   0  0  0  0  0  0  0  0  0  0  0  0
    8.4051  -14.0109   26.4863 C   0  0  0  0  0  0  0  0  0  0  0  0
    8.9229  -13.4914   27.5089 O   0  0  0  0  0  0  0  0  0  0  0  0
    8.6507  -15.3812   26.2479 N   0  0  0  0  0  0  0  0  0  0  0  0
    9.4189  -16.1795   27.2227 C   0  0  0  0  0  0  0  0  0  0  0  0
   10.6312  -16.6893   26.5736 C   0  0  0  0  0  0  0  0  0  0  0  0
   10.9390  -16.2155   25.4412 O   0  0  0  0  0  0  0  0  0  0  0  0
   11.4512  -17.6605   27.1393 O   0  0  0  0  0  0  0  0  0  0  0  0
  2  1  1  6
  3  2  1  0
  4  5  1  6
  4  2  1  0
  6  4  1  0
  6  7  2  0
  9  8  1  1
  9 10  1  0
  9 11  1  0
 11 12  1  6
 11 13  1  0
 12  6  1  0
 13 14  2  0
 13 15  1  0
 15 16  1  0
 17 19  1  0
 17 16  1  0
 18 17  2  0
M  END
$$$$
