VTG.pdb
     RDKit          3D

 19 18  0  0  1  0  0  0  0  0999 V2000
    4.7866  -22.0873   23.1567 C   0  0  0  0  0  0  0  0  0  0  0  0
    3.8634  -23.1074   22.6065 C   0  0  2  0  0  0  0  0  0  0  0  0
    4.4661  -24.4814   22.8098 C   0  0  0  0  0  0  0  0  0  0  0  0
    3.4165  -22.8761   21.2013 C   0  0  2  0  0  0  0  0  0  0  0  0
    4.6096  -22.9770   20.3483 N   0  0  0  0  0  0  0  0  0  0  0  0
    2.7411  -21.5966   20.9691 C   0  0  0  0  0  0  0  0  0  0  0  0
    3.4253  -20.5485   20.8679 O   0  0  0  0  0  0  0  0  0  0  0  0
    0.8947  -20.6479   18.0705 C   0  0  0  0  0  0  0  0  0  0  0  0
   -0.0298  -20.4311   19.2186 C   0  0  1  0  0  0  0  0  0  0  0  0
   -0.7649  -21.6251   19.3812 O   0  0  0  0  0  0  0  0  0  0  0  0
    0.6926  -20.1579   20.5480 C   0  0  2  0  0  0  0  0  0  0  0  0
    1.3349  -21.4498   20.8469 N   0  0  0  0  0  0  0  0  0  0  0  0
   -0.2339  -19.7747   21.6130 C   0  0  0  0  0  0  0  0  0  0  0  0
   -0.8914  -18.7051   21.5266 O   0  0  0  0  0  0  0  0  0  0  0  0
   -0.4270  -20.5752   22.7604 N   0  0  0  0  0  0  0  0  0  0  0  0
   -1.3616  -20.1452   23.8184 C   0  0  0  0  0  0  0  0  0  0  0  0
   -1.2633  -21.0736   24.9494 C   0  0  0  0  0  0  0  0  0  0  0  0
   -0.4720  -22.0553   24.8410 O   0  0  0  0  0  0  0  0  0  0  0  0
   -1.9924  -20.9270   26.1252 O   0  0  0  0  0  0  0  0  0  0  0  0
  2  1  1  6
  3  2  1  0
  4  5  1  6
  4  2  1  0
  6  4  1  0
  6  7  2  0
  9  8  1  6
  9 10  1  0
  9 11  1  0
 11 12  1  1
 11 13  1  0
 12  6  1  0
 13 14  2  0
 13 15  1  0
 15 16  1  0
 17 19  1  0
 17 16  1  0
 18 17  2  0
M  END
$$$$
