VTG.pdb
     RDKit          3D

 19 18  0  0  1  0  0  0  0  0999 V2000
    7.8999  -12.6400   27.4698 C   0  0  0  0  0  0  0  0  0  0  0  0
    7.1118  -12.1669   26.3075 C   0  0  2  0  0  0  0  0  0  0  0  0
    6.3116  -10.9480   26.7154 C   0  0  0  0  0  0  0  0  0  0  0  0
    6.2776  -13.2050   25.6334 C   0  0  2  0  0  0  0  0  0  0  0  0
    5.2800  -13.6584   26.6133 N   0  0  0  0  0  0  0  0  0  0  0  0
    7.0224  -14.3527   25.1086 C   0  0  0  0  0  0  0  0  0  0  0  0
    7.1606  -15.3761   25.8231 O   0  0  0  0  0  0  0  0  0  0  0  0
    6.6941  -15.1814   21.4081 C   0  0  0  0  0  0  0  0  0  0  0  0
    8.1020  -15.4860   21.7890 C   0  0  1  0  0  0  0  0  0  0  0  0
    8.8922  -14.4149   21.3194 O   0  0  0  0  0  0  0  0  0  0  0  0
    8.3224  -15.5815   23.3075 C   0  0  2  0  0  0  0  0  0  0  0  0
    7.6145  -14.3951   23.8197 N   0  0  0  0  0  0  0  0  0  0  0  0
    9.7401  -15.5404   23.6649 C   0  0  0  0  0  0  0  0  0  0  0  0
   10.2914  -14.4445   23.9455 O   0  0  0  0  0  0  0  0  0  0  0  0
   10.5342  -16.7075   23.7109 N   0  0  0  0  0  0  0  0  0  0  0  0
   11.9045  -16.6536   24.2557 C   0  0  0  0  0  0  0  0  0  0  0  0
   12.8520  -16.4776   23.1502 C   0  0  0  0  0  0  0  0  0  0  0  0
   12.3843  -16.4116   21.9761 O   0  0  0  0  0  0  0  0  0  0  0  0
   14.2282  -16.3808   23.3301 O   0  0  0  0  0  0  0  0  0  0  0  0
  2  1  1  1
  3  2  1  0
  4  5  1  1
  4  2  1  0
  6  4  1  0
  6  7  2  0
  9  8  1  1
  9 10  1  0
  9 11  1  0
 11 12  1  1
 11 13  1  0
 12  6  1  0
 13 14  2  0
 13 15  1  0
 15 16  1  0
 17 19  1  0
 17 16  1  0
 18 17  2  0
M  END
$$$$
