VTG.pdb
     RDKit          3D

 19 18  0  0  1  0  0  0  0  0999 V2000
    8.0029  -12.5561   27.2638 C   0  0  0  0  0  0  0  0  0  0  0  0
    6.8945  -12.3926   26.2940 C   0  0  2  0  0  0  0  0  0  0  0  0
    5.8960  -11.3977   26.8467 C   0  0  0  0  0  0  0  0  0  0  0  0
    6.2523  -13.6595   25.8352 C   0  0  2  0  0  0  0  0  0  0  0  0
    5.7338  -14.3371   27.0323 N   0  0  0  0  0  0  0  0  0  0  0  0
    7.1309  -14.5637   25.0884 C   0  0  0  0  0  0  0  0  0  0  0  0
    7.8107  -15.4161   25.7115 O   0  0  0  0  0  0  0  0  0  0  0  0
    7.9069  -13.9233   20.9666 C   0  0  0  0  0  0  0  0  0  0  0  0
    7.7332  -15.3060   21.4935 C   0  0  1  0  0  0  0  0  0  0  0  0
    8.5585  -16.1456   20.7149 O   0  0  0  0  0  0  0  0  0  0  0  0
    8.1739  -15.4671   22.9576 C   0  0  2  0  0  0  0  0  0  0  0  0
    7.2747  -14.5476   23.6767 N   0  0  0  0  0  0  0  0  0  0  0  0
    9.5739  -15.0945   23.1586 C   0  0  0  0  0  0  0  0  0  0  0  0
    9.8813  -13.9022   23.4187 O   0  0  0  0  0  0  0  0  0  0  0  0
   10.6195  -16.0401   23.0727 N   0  0  0  0  0  0  0  0  0  0  0  0
   12.0051  -15.6480   23.3951 C   0  0  0  0  0  0  0  0  0  0  0  0
   12.8880  -16.8010   23.1912 C   0  0  0  0  0  0  0  0  0  0  0  0
   12.3789  -17.9568   23.2726 O   0  0  0  0  0  0  0  0  0  0  0  0
   14.2466  -16.6849   22.9149 O   0  0  0  0  0  0  0  0  0  0  0  0
  2  1  1  1
  3  2  1  0
  4  5  1  1
  4  2  1  0
  6  4  1  0
  6  7  2  0
  9  8  1  6
  9 10  1  0
  9 11  1  0
 11 12  1  1
 11 13  1  0
 12  6  1  0
 13 14  2  0
 13 15  1  0
 15 16  1  0
 17 19  1  0
 17 16  1  0
 18 17  2  0
M  END
$$$$
