VTG.pdb
     RDKit          3D

 19 18  0  0  1  0  0  0  0  0999 V2000
   -5.7490  -25.2908   33.2265 C   0  0  0  0  0  0  0  0  0  0  0  0
   -5.5793  -26.5428   32.4523 C   0  0  2  0  0  0  0  0  0  0  0  0
   -4.5069  -27.3879   33.1069 C   0  0  0  0  0  0  0  0  0  0  0  0
   -5.3589  -26.3654   30.9868 C   0  0  2  0  0  0  0  0  0  0  0  0
   -4.0098  -25.8058   30.8193 N   0  0  0  0  0  0  0  0  0  0  0  0
   -6.3420  -25.5142   30.3115 C   0  0  0  0  0  0  0  0  0  0  0  0
   -7.5577  -25.8262   30.3516 O   0  0  0  0  0  0  0  0  0  0  0  0
   -7.6651  -22.2823   30.9248 C   0  0  0  0  0  0  0  0  0  0  0  0
   -7.0393  -22.2113   29.5745 C   0  0  1  0  0  0  0  0  0  0  0  0
   -5.6986  -21.8140   29.7670 O   0  0  0  0  0  0  0  0  0  0  0  0
   -7.0120  -23.5598   28.8366 C   0  0  2  0  0  0  0  0  0  0  0  0
   -6.0143  -24.3327   29.5970 N   0  0  0  0  0  0  0  0  0  0  0  0
   -6.6091  -23.4174   27.4377 C   0  0  0  0  0  0  0  0  0  0  0  0
   -5.4070  -23.1880   27.1446 O   0  0  0  0  0  0  0  0  0  0  0  0
   -7.5350  -23.5311   26.3773 N   0  0  0  0  0  0  0  0  0  0  0  0
   -7.0866  -23.3815   24.9793 C   0  0  0  0  0  0  0  0  0  0  0  0
   -8.2352  -23.5666   24.0864 C   0  0  0  0  0  0  0  0  0  0  0  0
   -9.3300  -23.9380   24.6012 O   0  0  0  0  0  0  0  0  0  0  0  0
   -8.1781  -23.3547   22.7126 O   0  0  0  0  0  0  0  0  0  0  0  0
  2  1  1  1
  3  2  1  0
  4  5  1  1
  4  2  1  0
  6  4  1  0
  6  7  2  0
  9  8  1  1
  9 10  1  0
  9 11  1  0
 11 12  1  1
 11 13  1  0
 12  6  1  0
 13 14  2  0
 13 15  1  0
 15 16  1  0
 17 19  1  0
 17 16  1  0
 18 17  2  0
M  END
$$$$
