VTG.pdb
     RDKit          3D

 19 18  0  0  1  0  0  0  0  0999 V2000
    7.7368  -12.5628   19.8436 C   0  0  0  0  0  0  0  0  0  0  0  0
    8.5355  -13.4646   18.9808 C   0  0  2  0  0  0  0  0  0  0  0  0
    7.8544  -13.5930   17.6346 C   0  0  0  0  0  0  0  0  0  0  0  0
    8.8799  -14.7871   19.5811 C   0  0  2  0  0  0  0  0  0  0  0  0
    7.6747  -15.6246   19.4970 N   0  0  0  0  0  0  0  0  0  0  0  0
    9.3572  -14.7331   20.9654 C   0  0  0  0  0  0  0  0  0  0  0  0
   10.3938  -14.0773   21.2344 O   0  0  0  0  0  0  0  0  0  0  0  0
    7.4715  -13.5775   23.9269 C   0  0  0  0  0  0  0  0  0  0  0  0
    7.9971  -14.9336   24.2505 C   0  0  1  0  0  0  0  0  0  0  0  0
    6.9766  -15.8539   23.9277 O   0  0  0  0  0  0  0  0  0  0  0  0
    9.2376  -15.3251   23.4310 C   0  0  2  0  0  0  0  0  0  0  0  0
    8.7188  -15.3836   22.0532 N   0  0  0  0  0  0  0  0  0  0  0  0
    9.7857  -16.6181   23.8397 C   0  0  0  0  0  0  0  0  0  0  0  0
    9.4975  -17.6605   23.1962 O   0  0  0  0  0  0  0  0  0  0  0  0
   10.6467  -16.7479   24.9517 N   0  0  0  0  0  0  0  0  0  0  0  0
   11.1144  -18.0809   25.3784 C   0  0  0  0  0  0  0  0  0  0  0  0
   12.5059  -18.2588   24.9507 C   0  0  0  0  0  0  0  0  0  0  0  0
   12.8455  -17.7791   23.8299 O   0  0  0  0  0  0  0  0  0  0  0  0
   13.4613  -18.9242   25.7123 O   0  0  0  0  0  0  0  0  0  0  0  0
  2  1  1  1
  3  2  1  0
  4  5  1  1
  4  2  1  0
  6  4  1  0
  6  7  2  0
  9  8  1  6
  9 10  1  0
  9 11  1  0
 11 12  1  6
 11 13  1  0
 12  6  1  0
 13 14  2  0
 13 15  1  0
 15 16  1  0
 17 19  1  0
 17 16  1  0
 18 17  2  0
M  END
$$$$
