VTG.pdb
     RDKit          3D

 19 18  0  0  1  0  0  0  0  0999 V2000
    7.9506  -13.3965   27.1127 C   0  0  0  0  0  0  0  0  0  0  0  0
    7.2200  -12.6450   26.0653 C   0  0  2  0  0  0  0  0  0  0  0  0
    6.5849  -11.4194   26.6875 C   0  0  0  0  0  0  0  0  0  0  0  0
    6.2550  -13.4466   25.2565 C   0  0  2  0  0  0  0  0  0  0  0  0
    5.1818  -13.8733   26.1660 N   0  0  0  0  0  0  0  0  0  0  0  0
    6.8319  -14.6116   24.5804 C   0  0  0  0  0  0  0  0  0  0  0  0
    6.0905  -15.5799   24.2813 O   0  0  0  0  0  0  0  0  0  0  0  0
    6.4832  -15.3030   22.2578 C   0  0  0  0  0  0  0  0  0  0  0  0
    7.9315  -15.5847   22.0502 C   0  0  1  0  0  0  0  0  0  0  0  0
    8.4823  -14.4465   21.4229 O   0  0  0  0  0  0  0  0  0  0  0  0
    8.7099  -15.8042   23.3577 C   0  0  2  0  0  0  0  0  0  0  0  0
    8.2018  -14.7303   24.2293 N   0  0  0  0  0  0  0  0  0  0  0  0
   10.1553  -15.6852   23.1682 C   0  0  0  0  0  0  0  0  0  0  0  0
   10.6894  -14.5505   23.0635 O   0  0  0  0  0  0  0  0  0  0  0  0
   10.9964  -16.8176   23.0979 N   0  0  0  0  0  0  0  0  0  0  0  0
   12.1069  -16.9797   24.0561 C   0  0  0  0  0  0  0  0  0  0  0  0
   13.3230  -16.3946   23.4819 C   0  0  0  0  0  0  0  0  0  0  0  0
   13.2599  -15.9398   22.3026 O   0  0  0  0  0  0  0  0  0  0  0  0
   14.5316  -16.3169   24.1666 O   0  0  0  0  0  0  0  0  0  0  0  0
  2  1  1  1
  3  2  1  0
  4  5  1  1
  4  2  1  0
  6  4  1  0
  6  7  2  0
  9  8  1  1
  9 10  1  0
  9 11  1  0
 11 12  1  1
 11 13  1  0
 12  6  1  0
 13 14  2  0
 13 15  1  0
 15 16  1  0
 17 19  1  0
 17 16  1  0
 18 17  2  0
M  END
$$$$
