CMN.pdb
     RDKit          3D

 23 22  0  0  1  0  0  0  0  0999 V2000
   21.8845  -18.1811  -16.6064 N   0  0  0  0  0  0  0  0  0  0  0  0
   20.8161  -17.2366  -16.3704 C   0  0  1  0  0  0  0  0  0  0  0  0
   19.8312  -17.8886  -15.4241 C   0  0  0  0  0  0  0  0  0  0  0  0
   20.7411  -18.6521  -14.0472 S   0  0  0  0  0  0  0  0  0  0  0  0
   21.3287  -15.9768  -15.7596 C   0  0  0  0  0  0  0  0  0  0  0  0
   20.8359  -15.5742  -14.6875 O   0  0  0  0  0  0  0  0  0  0  0  0
   27.1616  -15.8329  -16.6051 C   0  0  0  0  0  0  0  0  0  0  0  0
   26.8547  -15.1520  -14.9456 S   0  0  0  0  0  0  0  0  0  0  0  0
   25.0391  -15.0495  -14.7478 C   0  0  0  0  0  0  0  0  0  0  0  0
   24.4451  -14.1473  -15.7920 C   0  0  0  0  0  0  0  0  0  0  0  0
   22.9645  -14.0565  -15.8102 C   0  0  2  0  0  0  0  0  0  0  0  0
   22.3624  -15.2540  -16.3965 N   0  0  0  0  0  0  0  0  0  0  0  0
   22.4596  -12.8395  -16.4807 C   0  0  0  0  0  0  0  0  0  0  0  0
   22.4000  -12.7585  -17.7280 O   0  0  0  0  0  0  0  0  0  0  0  0
   19.8436   -8.6240  -17.5053 N   0  0  0  0  0  0  0  0  0  0  0  0
   19.4144   -9.9413  -17.7138 C   0  0  0  0  0  0  0  0  0  0  0  0
   18.3731  -10.0869  -18.4286 O   0  0  0  0  0  0  0  0  0  0  0  0
   20.1363  -11.0877  -17.1366 C   0  0  0  0  0  0  0  0  0  0  0  0
   21.3331  -10.6260  -16.3651 C   0  0  2  0  0  0  0  0  0  0  0  0
   22.0202  -11.7067  -15.7046 N   0  0  0  0  0  0  0  0  0  0  0  0
   21.0164   -9.5999  -15.3382 C   0  0  0  0  0  0  0  0  0  0  0  0
   20.1061   -9.8166  -14.3419 O   0  0  0  0  0  0  0  0  0  0  0  0
   21.5953   -8.4736  -15.3601 O   0  0  0  0  0  0  0  0  0  0  0  0
  2  1  1  1
  3  2  1  0
  4  3  1  0
  5  2  1  0
  5 12  1  0
  6  5  2  0
  7  8  1  0
  8  9  1  0
  9 10  1  0
 11 10  1  6
 11 12  1  0
 11 13  1  0
 13 20  1  0
 13 14  2  0
 16 17  2  0
 16 15  1  0
 18 16  1  0
 19 21  1  0
 19 18  1  1
 20 19  1  0
 21 22  1  0
 23 21  2  0
M  END
$$$$
