CMN.pdb
     RDKit          3D

 23 22  0  0  1  0  0  0  0  0999 V2000
   28.7097  -21.3808  -16.1107 N   0  0  0  0  0  0  0  0  0  0  0  0
   28.2579  -20.3821  -15.1684 C   0  0  1  0  0  0  0  0  0  0  0  0
   27.7544  -19.1978  -15.9650 C   0  0  0  0  0  0  0  0  0  0  0  0
   27.4980  -17.7890  -14.8443 S   0  0  0  0  0  0  0  0  0  0  0  0
   27.1569  -20.9037  -14.3089 C   0  0  0  0  0  0  0  0  0  0  0  0
   26.3268  -21.6967  -14.7952 O   0  0  0  0  0  0  0  0  0  0  0  0
   27.1606  -20.8440   -7.6487 C   0  0  0  0  0  0  0  0  0  0  0  0
   25.5155  -20.1734   -8.0432 S   0  0  0  0  0  0  0  0  0  0  0  0
   25.0861  -20.7844   -9.7130 C   0  0  0  0  0  0  0  0  0  0  0  0
   26.1563  -20.4153  -10.7008 C   0  0  0  0  0  0  0  0  0  0  0  0
   25.9555  -20.8951  -12.0902 C   0  0  2  0  0  0  0  0  0  0  0  0
   27.0638  -20.4979  -12.9586 N   0  0  0  0  0  0  0  0  0  0  0  0
   24.6629  -20.4782  -12.6738 C   0  0  0  0  0  0  0  0  0  0  0  0
   24.4997  -19.3310  -13.1462 O   0  0  0  0  0  0  0  0  0  0  0  0
   20.5763  -21.1520  -16.4400 N   0  0  0  0  0  0  0  0  0  0  0  0
   20.7068  -21.6038  -15.1202 C   0  0  0  0  0  0  0  0  0  0  0  0
   19.6290  -21.7149  -14.4550 O   0  0  0  0  0  0  0  0  0  0  0  0
   22.0216  -21.9326  -14.5444 C   0  0  0  0  0  0  0  0  0  0  0  0
   22.3489  -21.0109  -13.4112 C   0  0  2  0  0  0  0  0  0  0  0  0
   23.5494  -21.3932  -12.7120 N   0  0  0  0  0  0  0  0  0  0  0  0
   21.2601  -20.8971  -12.4065 C   0  0  0  0  0  0  0  0  0  0  0  0
   20.1638  -20.1041  -12.6004 O   0  0  0  0  0  0  0  0  0  0  0  0
   21.3214  -21.5468  -11.3210 O   0  0  0  0  0  0  0  0  0  0  0  0
  2  1  1  6
  3  2  1  0
  4  3  1  0
  5  2  1  0
  5 12  1  0
  6  5  2  0
  7  8  1  0
  8  9  1  0
  9 10  1  0
 11 10  1  1
 11 12  1  0
 11 13  1  0
 13 20  1  0
 13 14  2  0
 16 17  2  0
 16 15  1  0
 18 16  1  0
 19 21  1  0
 19 18  1  6
 20 19  1  0
 21 22  1  0
 23 21  2  0
M  END
$$$$
