CMN.pdb
     RDKit          3D

 23 22  0  0  1  0  0  0  0  0999 V2000
   20.9247  -11.7321  -18.2664 N   0  0  0  0  0  0  0  0  0  0  0  0
   20.6659  -12.2835  -16.9556 C   0  0  1  0  0  0  0  0  0  0  0  0
   20.6306  -13.7903  -17.0932 C   0  0  0  0  0  0  0  0  0  0  0  0
   19.3061  -14.2541  -18.2495 S   0  0  0  0  0  0  0  0  0  0  0  0
   21.7303  -11.9006  -15.9843 C   0  0  0  0  0  0  0  0  0  0  0  0
   21.6501  -12.2952  -14.8044 O   0  0  0  0  0  0  0  0  0  0  0  0
   27.6238  -11.3319  -17.6977 C   0  0  0  0  0  0  0  0  0  0  0  0
   27.8981  -10.1994  -16.2998 S   0  0  0  0  0  0  0  0  0  0  0  0
   26.3534  -10.1910  -15.3202 C   0  0  0  0  0  0  0  0  0  0  0  0
   25.1965  -10.6605  -16.1558 C   0  0  0  0  0  0  0  0  0  0  0  0
   23.8686  -10.6542  -15.4943 C   0  0  2  0  0  0  0  0  0  0  0  0
   22.8147  -11.0989  -16.4063 N   0  0  0  0  0  0  0  0  0  0  0  0
   23.5192   -9.3499  -14.8928 C   0  0  0  0  0  0  0  0  0  0  0  0
   24.2860   -8.7758  -14.0876 O   0  0  0  0  0  0  0  0  0  0  0  0
   21.4747   -4.9060  -13.6569 N   0  0  0  0  0  0  0  0  0  0  0  0
   22.6300   -5.0699  -14.4324 C   0  0  0  0  0  0  0  0  0  0  0  0
   23.3653   -4.0418  -14.5700 O   0  0  0  0  0  0  0  0  0  0  0  0
   22.9684   -6.3644  -15.0475 C   0  0  0  0  0  0  0  0  0  0  0  0
   21.9775   -7.4141  -14.6514 C   0  0  2  0  0  0  0  0  0  0  0  0
   22.2737   -8.7030  -15.2234 N   0  0  0  0  0  0  0  0  0  0  0  0
   20.5770   -7.0731  -15.0119 C   0  0  0  0  0  0  0  0  0  0  0  0
   19.9572   -5.9430  -14.5568 O   0  0  0  0  0  0  0  0  0  0  0  0
   19.9070   -7.8378  -15.7673 O   0  0  0  0  0  0  0  0  0  0  0  0
  2  1  1  6
  3  2  1  0
  4  3  1  0
  5  2  1  0
  5 12  1  0
  6  5  2  0
  7  8  1  0
  8  9  1  0
  9 10  1  0
 11 10  1  6
 11 12  1  0
 11 13  1  0
 13 20  1  0
 13 14  2  0
 16 17  2  0
 16 15  1  0
 18 16  1  0
 19 21  1  0
 19 18  1  6
 20 19  1  0
 21 22  1  0
 23 21  2  0
M  END
$$$$
