CMN.pdb
     RDKit          3D

 23 22  0  0  1  0  0  0  0  0999 V2000
   18.6378  -13.6682  -16.1095 N   0  0  0  0  0  0  0  0  0  0  0  0
   18.5252  -12.4228  -16.8345 C   0  0  1  0  0  0  0  0  0  0  0  0
   17.0510  -12.1280  -17.0089 C   0  0  0  0  0  0  0  0  0  0  0  0
   16.3113  -13.3939  -18.0844 S   0  0  0  0  0  0  0  0  0  0  0  0
   19.1693  -11.3013  -16.0927 C   0  0  0  0  0  0  0  0  0  0  0  0
   19.0161  -11.2189  -14.8581 O   0  0  0  0  0  0  0  0  0  0  0  0
   23.9137  -11.1063  -13.1606 C   0  0  0  0  0  0  0  0  0  0  0  0
   22.7326   -9.9379  -13.9034 S   0  0  0  0  0  0  0  0  0  0  0  0
   22.8844  -10.1200  -15.7171 C   0  0  0  0  0  0  0  0  0  0  0  0
   22.0135   -9.1192  -16.4222 C   0  0  0  0  0  0  0  0  0  0  0  0
   20.5611   -9.1971  -16.1295 C   0  0  2  0  0  0  0  0  0  0  0  0
   19.9434  -10.3469  -16.7903 N   0  0  0  0  0  0  0  0  0  0  0  0
   19.8294   -7.9549  -16.4565 C   0  0  0  0  0  0  0  0  0  0  0  0
   19.5789   -7.6372  -17.6406 O   0  0  0  0  0  0  0  0  0  0  0  0
   17.3629   -3.5292  -16.3396 N   0  0  0  0  0  0  0  0  0  0  0  0
   16.8279   -4.3488  -15.3371 C   0  0  0  0  0  0  0  0  0  0  0  0
   15.7644   -3.9324  -14.7784 O   0  0  0  0  0  0  0  0  0  0  0  0
   17.4656   -5.6214  -14.9598 C   0  0  0  0  0  0  0  0  0  0  0  0
   18.7116   -5.8466  -15.7583 C   0  0  2  0  0  0  0  0  0  0  0  0
   19.3834   -7.0721  -15.4075 N   0  0  0  0  0  0  0  0  0  0  0  0
   19.6989   -4.7426  -15.6397 C   0  0  0  0  0  0  0  0  0  0  0  0
   19.4072   -3.4565  -15.9992 O   0  0  0  0  0  0  0  0  0  0  0  0
   20.8618   -4.9701  -15.1922 O   0  0  0  0  0  0  0  0  0  0  0  0
  2  1  1  1
  3  2  1  0
  4  3  1  0
  5  2  1  0
  5 12  1  0
  6  5  2  0
  7  8  1  0
  8  9  1  0
  9 10  1  0
 11 10  1  6
 11 12  1  0
 11 13  1  0
 13 20  1  0
 13 14  2  0
 16 17  2  0
 16 15  1  0
 18 16  1  0
 19 21  1  0
 19 18  1  1
 20 19  1  0
 21 22  1  0
 23 21  2  0
M  END
$$$$
