CMN.pdb
     RDKit          3D

 23 22  0  0  1  0  0  0  0  0999 V2000
   21.0674  -13.6196  -17.3966 N   0  0  0  0  0  0  0  0  0  0  0  0
   21.0269  -12.2229  -17.7664 C   0  0  1  0  0  0  0  0  0  0  0  0
   19.5723  -11.8319  -17.9141 C   0  0  0  0  0  0  0  0  0  0  0  0
   18.8291  -12.7939  -19.2664 S   0  0  0  0  0  0  0  0  0  0  0  0
   21.6660  -11.3662  -16.7269 C   0  0  0  0  0  0  0  0  0  0  0  0
   21.2284  -11.3942  -15.5598 O   0  0  0  0  0  0  0  0  0  0  0  0
   27.7386   -9.9140  -16.4189 C   0  0  0  0  0  0  0  0  0  0  0  0
   27.1197  -11.3150  -15.4361 S   0  0  0  0  0  0  0  0  0  0  0  0
   25.3072  -11.1057  -15.3072 C   0  0  0  0  0  0  0  0  0  0  0  0
   24.8645   -9.8756  -16.0475 C   0  0  0  0  0  0  0  0  0  0  0  0
   23.4007   -9.6417  -16.1080 C   0  0  2  0  0  0  0  0  0  0  0  0
   22.7557  -10.5347  -17.0705 N   0  0  0  0  0  0  0  0  0  0  0  0
   23.0425   -8.2343  -16.3839 C   0  0  0  0  0  0  0  0  0  0  0  0
   22.9430   -7.8034  -17.5545 O   0  0  0  0  0  0  0  0  0  0  0  0
   20.5645   -3.9832  -17.8155 N   0  0  0  0  0  0  0  0  0  0  0  0
   20.5472   -4.6216  -16.5684 C   0  0  0  0  0  0  0  0  0  0  0  0
   20.0642   -3.9526  -15.6011 O   0  0  0  0  0  0  0  0  0  0  0  0
   21.0585   -5.9918  -16.3966 C   0  0  0  0  0  0  0  0  0  0  0  0
   22.3230   -5.9886  -15.5955 C   0  0  2  0  0  0  0  0  0  0  0  0
   22.7973   -7.3166  -15.2992 N   0  0  0  0  0  0  0  0  0  0  0  0
   22.2074   -5.2548  -14.3087 C   0  0  0  0  0  0  0  0  0  0  0  0
   22.3164   -3.8947  -14.2281 O   0  0  0  0  0  0  0  0  0  0  0  0
   21.9997   -5.8849  -13.2298 O   0  0  0  0  0  0  0  0  0  0  0  0
  2  1  1  1
  3  2  1  0
  4  3  1  0
  5  2  1  0
  5 12  1  0
  6  5  2  0
  7  8  1  0
  8  9  1  0
  9 10  1  0
 11 10  1  6
 11 12  1  0
 11 13  1  0
 13 20  1  0
 13 14  2  0
 16 17  2  0
 16 15  1  0
 18 16  1  0
 19 21  1  0
 19 18  1  1
 20 19  1  0
 21 22  1  0
 23 21  2  0
M  END
$$$$
