CMN.pdb
     RDKit          3D

 23 22  0  0  1  0  0  0  0  0999 V2000
   28.4395  -20.2322  -16.0470 N   0  0  0  0  0  0  0  0  0  0  0  0
   27.9130  -19.5204  -14.9044 C   0  0  1  0  0  0  0  0  0  0  0  0
   27.2374  -18.2676  -15.4188 C   0  0  0  0  0  0  0  0  0  0  0  0
   28.4874  -16.9681  -15.6544 S   0  0  0  0  0  0  0  0  0  0  0  0
   26.9208  -20.3465  -14.1587 C   0  0  0  0  0  0  0  0  0  0  0  0
   26.2072  -21.1551  -14.7842 O   0  0  0  0  0  0  0  0  0  0  0  0
   26.6344  -19.7773   -7.8706 C   0  0  0  0  0  0  0  0  0  0  0  0
   25.1024  -20.7587   -7.9112 S   0  0  0  0  0  0  0  0  0  0  0  0
   24.7663  -21.1347   -9.6694 C   0  0  0  0  0  0  0  0  0  0  0  0
   25.8506  -20.5739  -10.5452 C   0  0  0  0  0  0  0  0  0  0  0  0
   25.6715  -20.7604  -12.0060 C   0  0  2  0  0  0  0  0  0  0  0  0
   26.7980  -20.2074  -12.7579 N   0  0  0  0  0  0  0  0  0  0  0  0
   24.3925  -20.2204  -12.5139 C   0  0  0  0  0  0  0  0  0  0  0  0
   24.3557  -19.1972  -13.2333 O   0  0  0  0  0  0  0  0  0  0  0  0
   19.8520  -20.2971  -14.7052 N   0  0  0  0  0  0  0  0  0  0  0  0
   21.0434  -20.7670  -15.2734 C   0  0  0  0  0  0  0  0  0  0  0  0
   21.0097  -21.0238  -16.5181 O   0  0  0  0  0  0  0  0  0  0  0  0
   22.2630  -20.9473  -14.4679 C   0  0  0  0  0  0  0  0  0  0  0  0
   21.9963  -20.6407  -13.0272 C   0  0  2  0  0  0  0  0  0  0  0  0
   23.1457  -20.8670  -12.1882 N   0  0  0  0  0  0  0  0  0  0  0  0
   20.8635  -21.4145  -12.4565 C   0  0  0  0  0  0  0  0  0  0  0  0
   19.5613  -21.0275  -12.6079 O   0  0  0  0  0  0  0  0  0  0  0  0
   21.0805  -22.4764  -11.8011 O   0  0  0  0  0  0  0  0  0  0  0  0
  2  1  1  6
  3  2  1  0
  4  3  1  0
  5  2  1  0
  5 12  1  0
  6  5  2  0
  7  8  1  0
  8  9  1  0
  9 10  1  0
 11 10  1  1
 11 12  1  0
 11 13  1  0
 13 20  1  0
 13 14  2  0
 16 17  2  0
 16 15  1  0
 18 16  1  0
 19 21  1  0
 19 18  1  6
 20 19  1  0
 21 22  1  0
 23 21  2  0
M  END
$$$$
