WVW.pdb
     RDKit          3D

 36 39  0  0  1  0  0  0  0  0999 V2000
   28.3491  -21.6837  -15.8796 N   0  0  0  0  0  0  0  0  0  0  0  0
   27.3560  -20.8952  -15.2317 C   0  0  1  0  0  0  0  0  0  0  0  0
   26.5474  -20.0508  -16.1353 C   0  0  0  0  0  0  0  0  0  0  0  0
   27.3755  -19.0644  -16.8375 C   0  0  0  0  0  0  0  0  0  0  0  0
   28.5216  -19.4062  -17.5423 C   0  0  0  0  0  0  0  0  0  0  0  0
   29.0548  -18.3250  -18.1135 N   0  0  0  0  0  0  0  0  0  0  0  0
   28.2565  -17.2941  -17.7774 C   0  0  0  0  0  0  0  0  0  0  0  0
   28.3357  -15.9541  -18.0818 C   0  0  0  0  0  0  0  0  0  0  0  0
   27.4182  -15.0371  -17.6296 C   0  0  0  0  0  0  0  0  0  0  0  0
   26.3859  -15.4565  -16.8492 C   0  0  0  0  0  0  0  0  0  0  0  0
   26.2869  -16.7961  -16.5316 C   0  0  0  0  0  0  0  0  0  0  0  0
   27.2008  -17.7387  -16.9783 C   0  0  0  0  0  0  0  0  0  0  0  0
   26.5166  -21.6637  -14.2369 C   0  0  0  0  0  0  0  0  0  0  0  0
   26.0752  -22.7901  -14.5834 O   0  0  0  0  0  0  0  0  0  0  0  0
   27.3298  -21.4667  -10.4278 C   0  0  0  0  0  0  0  0  0  0  0  0
   25.8529  -21.1206  -10.5525 C   0  0  1  0  0  0  0  0  0  0  0  0
   25.8479  -19.5853  -10.6306 C   0  0  0  0  0  0  0  0  0  0  0  0
   25.3290  -21.5736  -11.9352 C   0  0  2  0  0  0  0  0  0  0  0  0
   26.2407  -21.1473  -12.9856 N   0  0  0  0  0  0  0  0  0  0  0  0
   24.0415  -20.8950  -12.1556 C   0  0  0  0  0  0  0  0  0  0  0  0
   24.0579  -19.6213  -12.3341 O   0  0  0  0  0  0  0  0  0  0  0  0
   22.7615  -21.4689  -12.2059 N   0  0  0  0  0  0  0  0  0  0  0  0
   21.6131  -20.8209  -12.8389 C   0  0  1  0  0  0  0  0  0  0  0  0
   21.9949  -20.7018  -14.2912 C   0  0  0  0  0  0  0  0  0  0  0  0
   20.9482  -20.1750  -15.1622 C   0  0  0  0  0  0  0  0  0  0  0  0
   20.5002  -18.8470  -15.1859 C   0  0  0  0  0  0  0  0  0  0  0  0
   19.5132  -18.7107  -16.0709 N   0  0  0  0  0  0  0  0  0  0  0  0
   19.2786  -19.8952  -16.6457 C   0  0  0  0  0  0  0  0  0  0  0  0
   18.3997  -20.3356  -17.6251 C   0  0  0  0  0  0  0  0  0  0  0  0
   18.4096  -21.6341  -18.0282 C   0  0  0  0  0  0  0  0  0  0  0  0
   19.2794  -22.5619  -17.4923 C   0  0  0  0  0  0  0  0  0  0  0  0
   20.1491  -22.1481  -16.5288 C   0  0  0  0  0  0  0  0  0  0  0  0
   20.1583  -20.8283  -16.0995 C   0  0  0  0  0  0  0  0  0  0  0  0
   20.3492  -21.4846  -12.6597 C   0  0  0  0  0  0  0  0  0  0  0  0
   19.2730  -20.8411  -12.6908 O   0  0  0  0  0  0  0  0  0  0  0  0
   20.2673  -22.8507  -12.4476 O   0  0  0  0  0  0  0  0  0  0  0  0
  2  1  1  6
  3  2  1  0
  4  3  1  0
  4  5  2  0
  6  5  1  0
  7 12  2  0
  7  6  1  0
  8  7  1  0
  9 10  1  0
  9  8  2  0
 10 11  2  0
 11 12  1  0
 12  4  1  0
 13  2  1  0
 14 13  2  0
 16 15  1  6
 16 18  1  0
 17 16  1  0
 18 20  1  0
 18 19  1  6
 19 13  1  0
 20 21  2  0
 22 23  1  0
 22 20  1  0
 23 24  1  6
 24 25  1  0
 25 33  1  0
 26 25  2  0
 26 27  1  0
 27 28  1  0
 28 29  1  0
 29 30  2  0
 31 30  1  0
 32 31  2  0
 33 28  2  0
 33 32  1  0
 34 36  1  0
 34 23  1  0
 35 34  2  0
M  END
$$$$
