WVW.pdb
     RDKit          3D

 36 39  0  0  1  0  0  0  0  0999 V2000
   27.7792  -22.1735  -10.1481 N   0  0  0  0  0  0  0  0  0  0  0  0
   26.9969  -21.0030  -10.3611 C   0  0  1  0  0  0  0  0  0  0  0  0
   27.5288  -19.7778   -9.7292 C   0  0  0  0  0  0  0  0  0  0  0  0
   28.3307  -20.0877   -8.5406 C   0  0  0  0  0  0  0  0  0  0  0  0
   29.5777  -20.6941   -8.6089 C   0  0  0  0  0  0  0  0  0  0  0  0
   30.0993  -20.8212   -7.3876 N   0  0  0  0  0  0  0  0  0  0  0  0
   29.1927  -20.3002   -6.5393 C   0  0  0  0  0  0  0  0  0  0  0  0
   29.2046  -20.1779   -5.1684 C   0  0  0  0  0  0  0  0  0  0  0  0
   28.1643  -19.6196   -4.4661 C   0  0  0  0  0  0  0  0  0  0  0  0
   27.0730  -19.1660   -5.1399 C   0  0  0  0  0  0  0  0  0  0  0  0
   27.0398  -19.2784   -6.5152 C   0  0  0  0  0  0  0  0  0  0  0  0
   28.0792  -19.8371   -7.2439 C   0  0  0  0  0  0  0  0  0  0  0  0
   26.5891  -20.7924  -11.8013 C   0  0  0  0  0  0  0  0  0  0  0  0
   27.4483  -20.3295  -12.5958 O   0  0  0  0  0  0  0  0  0  0  0  0
   25.6809  -23.3695  -14.0992 C   0  0  0  0  0  0  0  0  0  0  0  0
   24.3896  -22.5731  -13.9782 C   0  0  1  0  0  0  0  0  0  0  0  0
   23.7066  -23.1796  -12.7418 C   0  0  0  0  0  0  0  0  0  0  0  0
   24.7136  -21.1201  -13.5596 C   0  0  2  0  0  0  0  0  0  0  0  0
   25.3133  -21.0977  -12.2344 N   0  0  0  0  0  0  0  0  0  0  0  0
   23.4355  -20.3937  -13.4862 C   0  0  0  0  0  0  0  0  0  0  0  0
   22.6722  -20.6237  -12.4767 O   0  0  0  0  0  0  0  0  0  0  0  0
   22.9258  -19.4509  -14.3926 N   0  0  0  0  0  0  0  0  0  0  0  0
   21.5892  -18.8675  -14.2808 C   0  0  1  0  0  0  0  0  0  0  0  0
   21.5536  -17.7908  -15.3339 C   0  0  0  0  0  0  0  0  0  0  0  0
   20.3003  -17.0457  -15.4109 C   0  0  0  0  0  0  0  0  0  0  0  0
   19.3304  -16.9767  -14.4011 C   0  0  0  0  0  0  0  0  0  0  0  0
   18.2956  -16.2420  -14.8076 N   0  0  0  0  0  0  0  0  0  0  0  0
   18.5302  -15.8120  -16.0520 C   0  0  0  0  0  0  0  0  0  0  0  0
   17.8281  -15.0171  -16.9469 C   0  0  0  0  0  0  0  0  0  0  0  0
   18.3484  -14.7291  -18.1697 C   0  0  0  0  0  0  0  0  0  0  0  0
   19.5792  -15.2050  -18.5737 C   0  0  0  0  0  0  0  0  0  0  0  0
   20.2826  -15.9879  -17.7087 C   0  0  0  0  0  0  0  0  0  0  0  0
   19.7731  -16.2970  -16.4552 C   0  0  0  0  0  0  0  0  0  0  0  0
   20.4951  -19.7930  -14.4096 C   0  0  0  0  0  0  0  0  0  0  0  0
   20.4610  -20.6241  -15.3483 O   0  0  0  0  0  0  0  0  0  0  0  0
   19.4422  -19.8060  -13.5101 O   0  0  0  0  0  0  0  0  0  0  0  0
  2  1  1  6
  3  2  1  0
  4  3  1  0
  4  5  2  0
  6  5  1  0
  7 12  2  0
  7  6  1  0
  8  7  1  0
  9 10  1  0
  9  8  2  0
 10 11  2  0
 11 12  1  0
 12  4  1  0
 13  2  1  0
 14 13  2  0
 16 15  1  1
 16 18  1  0
 17 16  1  0
 18 20  1  0
 18 19  1  1
 19 13  1  0
 20 21  2  0
 22 23  1  0
 22 20  1  0
 23 24  1  6
 24 25  1  0
 25 33  1  0
 26 25  2  0
 26 27  1  0
 27 28  1  0
 28 29  1  0
 29 30  2  0
 31 30  1  0
 32 31  2  0
 33 28  2  0
 33 32  1  0
 34 36  1  0
 34 23  1  0
 35 34  2  0
M  END
$$$$
