WVW.pdb
     RDKit          3D

 36 39  0  0  1  0  0  0  0  0999 V2000
   27.2352  -22.7471  -12.1006 N   0  0  0  0  0  0  0  0  0  0  0  0
   26.3212  -21.6857  -11.8443 C   0  0  1  0  0  0  0  0  0  0  0  0
   26.9227  -20.4836  -11.2308 C   0  0  0  0  0  0  0  0  0  0  0  0
   27.8626  -20.8361  -10.1611 C   0  0  0  0  0  0  0  0  0  0  0  0
   29.0465  -21.5231  -10.3930 C   0  0  0  0  0  0  0  0  0  0  0  0
   29.7256  -21.6746   -9.2548 N   0  0  0  0  0  0  0  0  0  0  0  0
   28.9823  -21.0891   -8.2968 C   0  0  0  0  0  0  0  0  0  0  0  0
   29.1948  -20.9574   -6.9433 C   0  0  0  0  0  0  0  0  0  0  0  0
   28.3012  -20.3270   -6.1118 C   0  0  0  0  0  0  0  0  0  0  0  0
   27.1571  -19.8082   -6.6337 C   0  0  0  0  0  0  0  0  0  0  0  0
   26.9236  -19.9288   -7.9888 C   0  0  0  0  0  0  0  0  0  0  0  0
   27.8125  -20.5597   -8.8463 C   0  0  0  0  0  0  0  0  0  0  0  0
   25.4171  -21.3606  -13.0112 C   0  0  0  0  0  0  0  0  0  0  0  0
   25.4215  -20.1811  -13.4498 O   0  0  0  0  0  0  0  0  0  0  0  0
   25.7723  -23.2819  -15.9464 C   0  0  0  0  0  0  0  0  0  0  0  0
   24.2642  -23.3930  -15.7743 C   0  0  1  0  0  0  0  0  0  0  0  0
   24.0840  -24.7223  -15.0237 C   0  0  0  0  0  0  0  0  0  0  0  0
   23.7762  -22.3210  -14.7722 C   0  0  2  0  0  0  0  0  0  0  0  0
   24.6100  -22.3267  -13.5802 N   0  0  0  0  0  0  0  0  0  0  0  0
   22.4112  -22.6943  -14.3670 C   0  0  0  0  0  0  0  0  0  0  0  0
   22.2682  -23.7439  -13.6374 O   0  0  0  0  0  0  0  0  0  0  0  0
   21.2101  -22.0356  -14.6728 N   0  0  0  0  0  0  0  0  0  0  0  0
   19.8954  -22.5248  -14.2582 C   0  0  1  0  0  0  0  0  0  0  0  0
   19.3168  -21.4080  -13.4293 C   0  0  0  0  0  0  0  0  0  0  0  0
   20.0262  -21.1348  -12.1827 C   0  0  0  0  0  0  0  0  0  0  0  0
   20.9406  -20.0923  -11.9776 C   0  0  0  0  0  0  0  0  0  0  0  0
   21.4306  -20.1479  -10.7395 N   0  0  0  0  0  0  0  0  0  0  0  0
   20.8815  -21.1870  -10.1013 C   0  0  0  0  0  0  0  0  0  0  0  0
   21.0012  -21.7052   -8.8196 C   0  0  0  0  0  0  0  0  0  0  0  0
   20.2772  -22.7932   -8.4445 C   0  0  0  0  0  0  0  0  0  0  0  0
   19.4028  -23.4248   -9.3054 C   0  0  0  0  0  0  0  0  0  0  0  0
   19.2728  -22.9307  -10.5683 C   0  0  0  0  0  0  0  0  0  0  0  0
   20.0012  -21.8218  -10.9757 C   0  0  0  0  0  0  0  0  0  0  0  0
   19.0168  -22.9239  -15.3253 C   0  0  0  0  0  0  0  0  0  0  0  0
   19.3094  -22.6908  -16.5226 O   0  0  0  0  0  0  0  0  0  0  0  0
   17.8209  -23.5773  -15.0786 O   0  0  0  0  0  0  0  0  0  0  0  0
  2  1  1  6
  3  2  1  0
  4  3  1  0
  4  5  2  0
  6  5  1  0
  7 12  2  0
  7  6  1  0
  8  7  1  0
  9 10  1  0
  9  8  2  0
 10 11  2  0
 11 12  1  0
 12  4  1  0
 13  2  1  0
 14 13  2  0
 16 15  1  1
 16 18  1  0
 17 16  1  0
 18 20  1  0
 18 19  1  1
 19 13  1  0
 20 21  2  0
 22 23  1  0
 22 20  1  0
 23 24  1  6
 24 25  1  0
 25 33  1  0
 26 25  2  0
 26 27  1  0
 27 28  1  0
 28 29  1  0
 29 30  2  0
 31 30  1  0
 32 31  2  0
 33 28  2  0
 33 32  1  0
 34 36  1  0
 34 23  1  0
 35 34  2  0
M  END
$$$$
