WVW.pdb
     RDKit          3D

 36 39  0  0  1  0  0  0  0  0999 V2000
   23.3953  -20.6722  -16.9154 N   0  0  0  0  0  0  0  0  0  0  0  0
   23.8147  -20.0623  -15.6990 C   0  0  1  0  0  0  0  0  0  0  0  0
   22.7160  -19.6175  -14.8169 C   0  0  0  0  0  0  0  0  0  0  0  0
   22.2141  -18.2947  -15.2045 C   0  0  0  0  0  0  0  0  0  0  0  0
   20.8779  -18.0485  -15.4897 C   0  0  0  0  0  0  0  0  0  0  0  0
   20.6941  -16.7580  -15.7731 N   0  0  0  0  0  0  0  0  0  0  0  0
   21.9051  -16.1782  -15.6714 C   0  0  0  0  0  0  0  0  0  0  0  0
   22.3009  -14.8741  -15.8645 C   0  0  0  0  0  0  0  0  0  0  0  0
   23.6058  -14.4682  -15.7236 C   0  0  0  0  0  0  0  0  0  0  0  0
   24.5542  -15.3811  -15.3803 C   0  0  0  0  0  0  0  0  0  0  0  0
   24.1795  -16.6946  -15.1815 C   0  0  0  0  0  0  0  0  0  0  0  0
   22.8682  -17.1255  -15.3170 C   0  0  0  0  0  0  0  0  0  0  0  0
   24.8835  -20.8366  -14.9622 C   0  0  0  0  0  0  0  0  0  0  0  0
   24.8080  -22.0928  -14.9630 O   0  0  0  0  0  0  0  0  0  0  0  0
   27.7416  -18.3527  -12.8665 C   0  0  0  0  0  0  0  0  0  0  0  0
   28.1647  -19.6993  -13.4358 C   0  0  1  0  0  0  0  0  0  0  0  0
   29.1154  -20.2603  -12.3659 C   0  0  0  0  0  0  0  0  0  0  0  0
   26.9608  -20.6698  -13.4215 C   0  0  2  0  0  0  0  0  0  0  0  0
   25.9124  -20.1877  -14.3073 N   0  0  0  0  0  0  0  0  0  0  0  0
   26.4233  -20.6754  -12.0512 C   0  0  0  0  0  0  0  0  0  0  0  0
   25.4041  -19.9306  -11.8039 O   0  0  0  0  0  0  0  0  0  0  0  0
   26.8825  -21.4110  -10.9475 N   0  0  0  0  0  0  0  0  0  0  0  0
   26.3368  -21.2636   -9.5984 C   0  0  1  0  0  0  0  0  0  0  0  0
   27.4734  -21.6395   -8.6840 C   0  0  0  0  0  0  0  0  0  0  0  0
   27.6837  -20.7338   -7.5583 C   0  0  0  0  0  0  0  0  0  0  0  0
   26.8518  -19.6606   -7.2099 C   0  0  0  0  0  0  0  0  0  0  0  0
   27.3489  -19.0181   -6.1536 N   0  0  0  0  0  0  0  0  0  0  0  0
   28.4833  -19.6167   -5.7753 C   0  0  0  0  0  0  0  0  0  0  0  0
   29.3963  -19.3971   -4.7535 C   0  0  0  0  0  0  0  0  0  0  0  0
   30.4759  -20.2104   -4.6058 C   0  0  0  0  0  0  0  0  0  0  0  0
   30.7126  -21.2759   -5.4503 C   0  0  0  0  0  0  0  0  0  0  0  0
   29.8275  -21.5065   -6.4600 C   0  0  0  0  0  0  0  0  0  0  0  0
   28.7182  -20.6904   -6.6324 C   0  0  0  0  0  0  0  0  0  0  0  0
   25.7917  -19.9689   -9.2874 C   0  0  0  0  0  0  0  0  0  0  0  0
   26.4838  -18.9306   -9.4145 O   0  0  0  0  0  0  0  0  0  0  0  0
   24.4906  -19.8149   -8.8387 O   0  0  0  0  0  0  0  0  0  0  0  0
  2  1  1  6
  3  2  1  0
  4  3  1  0
  4  5  2  0
  6  5  1  0
  7 12  2  0
  7  6  1  0
  8  7  1  0
  9 10  1  0
  9  8  2  0
 10 11  2  0
 11 12  1  0
 12  4  1  0
 13  2  1  0
 14 13  2  0
 16 15  1  1
 16 18  1  0
 17 16  1  0
 18 20  1  0
 18 19  1  6
 19 13  1  0
 20 21  2  0
 22 23  1  0
 22 20  1  0
 23 24  1  1
 24 25  1  0
 25 33  1  0
 26 25  2  0
 26 27  1  0
 27 28  1  0
 28 29  1  0
 29 30  2  0
 31 30  1  0
 32 31  2  0
 33 28  2  0
 33 32  1  0
 34 36  1  0
 34 23  1  0
 35 34  2  0
M  END
$$$$
