WVW.pdb
     RDKit          3D

 36 39  0  0  1  0  0  0  0  0999 V2000
   20.9193  -19.4889  -15.6957 N   0  0  0  0  0  0  0  0  0  0  0  0
   21.8277  -18.8806  -14.7833 C   0  0  1  0  0  0  0  0  0  0  0  0
   21.4373  -17.5308  -14.3263 C   0  0  0  0  0  0  0  0  0  0  0  0
   21.5020  -16.5518  -15.4169 C   0  0  0  0  0  0  0  0  0  0  0  0
   22.0121  -16.8534  -16.6723 C   0  0  0  0  0  0  0  0  0  0  0  0
   21.9136  -15.7958  -17.4794 N   0  0  0  0  0  0  0  0  0  0  0  0
   21.3441  -14.8200  -16.7470 C   0  0  0  0  0  0  0  0  0  0  0  0
   21.0175  -13.5225  -17.0697 C   0  0  0  0  0  0  0  0  0  0  0  0
   20.4436  -12.6580  -16.1694 C   0  0  0  0  0  0  0  0  0  0  0  0
   20.1828  -13.0884  -14.9055 C   0  0  0  0  0  0  0  0  0  0  0  0
   20.5022  -14.3861  -14.5601 C   0  0  0  0  0  0  0  0  0  0  0  0
   21.0804  -15.2756  -15.4533 C   0  0  0  0  0  0  0  0  0  0  0  0
   22.2547  -19.7847  -13.6497 C   0  0  0  0  0  0  0  0  0  0  0  0
   21.4165  -20.0305  -12.7437 O   0  0  0  0  0  0  0  0  0  0  0  0
   26.1045  -21.6726  -14.2403 C   0  0  0  0  0  0  0  0  0  0  0  0
   24.9241  -22.3532  -13.5621 C   0  0  1  0  0  0  0  0  0  0  0  0
   25.5855  -23.2561  -12.5084 C   0  0  0  0  0  0  0  0  0  0  0  0
   24.1339  -21.3152  -12.7317 C   0  0  2  0  0  0  0  0  0  0  0  0
   23.5253  -20.3254  -13.6070 N   0  0  0  0  0  0  0  0  0  0  0  0
   25.1036  -20.6178  -11.8714 C   0  0  0  0  0  0  0  0  0  0  0  0
   25.7618  -19.6376  -12.3819 O   0  0  0  0  0  0  0  0  0  0  0  0
   25.4104  -20.8818  -10.5274 N   0  0  0  0  0  0  0  0  0  0  0  0
   26.4829  -20.2050   -9.7986 C   0  0  1  0  0  0  0  0  0  0  0  0
   26.0438  -20.2363   -8.3579 C   0  0  0  0  0  0  0  0  0  0  0  0
   26.9533  -19.5809   -7.4224 C   0  0  0  0  0  0  0  0  0  0  0  0
   27.1433  -18.1970   -7.3055 C   0  0  0  0  0  0  0  0  0  0  0  0
   28.0671  -17.9365   -6.3810 N   0  0  0  0  0  0  0  0  0  0  0  0
   28.5069  -19.0911   -5.8691 C   0  0  0  0  0  0  0  0  0  0  0  0
   29.4308  -19.4221   -4.8879 C   0  0  0  0  0  0  0  0  0  0  0  0
   29.6558  -20.7229   -4.5624 C   0  0  0  0  0  0  0  0  0  0  0  0
   28.9879  -21.7600   -5.1811 C   0  0  0  0  0  0  0  0  0  0  0  0
   28.0778  -21.4543   -6.1476 C   0  0  0  0  0  0  0  0  0  0  0  0
   27.8306  -20.1345   -6.4987 C   0  0  0  0  0  0  0  0  0  0  0  0
   27.7999  -20.7554   -9.9796 C   0  0  0  0  0  0  0  0  0  0  0  0
   27.9622  -21.9794  -10.2003 O   0  0  0  0  0  0  0  0  0  0  0  0
   28.9348  -19.9641   -9.9190 O   0  0  0  0  0  0  0  0  0  0  0  0
  2  1  1  1
  3  2  1  0
  4  3  1  0
  4  5  2  0
  6  5  1  0
  7 12  2  0
  7  6  1  0
  8  7  1  0
  9 10  1  0
  9  8  2  0
 10 11  2  0
 11 12  1  0
 12  4  1  0
 13  2  1  0
 14 13  2  0
 16 15  1  1
 16 18  1  0
 17 16  1  0
 18 20  1  0
 18 19  1  6
 19 13  1  0
 20 21  2  0
 22 23  1  0
 22 20  1  0
 23 24  1  1
 24 25  1  0
 25 33  1  0
 26 25  2  0
 26 27  1  0
 27 28  1  0
 28 29  1  0
 29 30  2  0
 31 30  1  0
 32 31  2  0
 33 28  2  0
 33 32  1  0
 34 36  1  0
 34 23  1  0
 35 34  2  0
M  END
$$$$
