WVW.pdb
     RDKit          3D

 36 39  0  0  1  0  0  0  0  0999 V2000
   24.4178  -19.9397  -15.6878 N   0  0  0  0  0  0  0  0  0  0  0  0
   24.5839  -19.7501  -14.2864 C   0  0  1  0  0  0  0  0  0  0  0  0
   23.3574  -19.3530  -13.5644 C   0  0  0  0  0  0  0  0  0  0  0  0
   22.6547  -18.2642  -14.2519 C   0  0  0  0  0  0  0  0  0  0  0  0
   21.3094  -18.3282  -14.5883 C   0  0  0  0  0  0  0  0  0  0  0  0
   20.9210  -17.1905  -15.1666 N   0  0  0  0  0  0  0  0  0  0  0  0
   22.0104  -16.4000  -15.2022 C   0  0  0  0  0  0  0  0  0  0  0  0
   22.1867  -15.1270  -15.6952 C   0  0  0  0  0  0  0  0  0  0  0  0
   23.3964  -14.4776  -15.6519 C   0  0  0  0  0  0  0  0  0  0  0  0
   24.4709  -15.1061  -15.1031 C   0  0  0  0  0  0  0  0  0  0  0  0
   24.3168  -16.3831  -14.6024 C   0  0  0  0  0  0  0  0  0  0  0  0
   23.1048  -17.0564  -14.6346 C   0  0  0  0  0  0  0  0  0  0  0  0
   25.3330  -20.8700  -13.6012 C   0  0  0  0  0  0  0  0  0  0  0  0
   24.8316  -22.0237  -13.6378 O   0  0  0  0  0  0  0  0  0  0  0  0
   29.1776  -21.0069  -13.9534 C   0  0  0  0  0  0  0  0  0  0  0  0
   28.9014  -21.0920  -12.4591 C   0  0  1  0  0  0  0  0  0  0  0  0
   28.9486  -19.6258  -11.9997 C   0  0  0  0  0  0  0  0  0  0  0  0
   27.4327  -21.5165  -12.2265 C   0  0  2  0  0  0  0  0  0  0  0  0
   26.5310  -20.6367  -12.9541 N   0  0  0  0  0  0  0  0  0  0  0  0
   27.1558  -21.3545  -10.7899 C   0  0  0  0  0  0  0  0  0  0  0  0
   27.8355  -22.0689   -9.9640 O   0  0  0  0  0  0  0  0  0  0  0  0
   26.2277  -20.4947  -10.1820 N   0  0  0  0  0  0  0  0  0  0  0  0
   25.6470  -20.7406   -8.8622 C   0  0  1  0  0  0  0  0  0  0  0  0
   25.6654  -19.3971   -8.1810 C   0  0  0  0  0  0  0  0  0  0  0  0
   26.9570  -19.0072   -7.6227 C   0  0  0  0  0  0  0  0  0  0  0  0
   27.7750  -17.9761   -8.1051 C   0  0  0  0  0  0  0  0  0  0  0  0
   28.8972  -17.9071   -7.3898 N   0  0  0  0  0  0  0  0  0  0  0  0
   28.8676  -18.8511   -6.4430 C   0  0  0  0  0  0  0  0  0  0  0  0
   29.7342  -19.2256   -5.4259 C   0  0  0  0  0  0  0  0  0  0  0  0
   29.4111  -20.2426   -4.5832 C   0  0  0  0  0  0  0  0  0  0  0  0
   28.2258  -20.9403   -4.6961 C   0  0  0  0  0  0  0  0  0  0  0  0
   27.3627  -20.5873   -5.6893 C   0  0  0  0  0  0  0  0  0  0  0  0
   27.6696  -19.5534   -6.5629 C   0  0  0  0  0  0  0  0  0  0  0  0
   24.3366  -21.3347   -8.8615 C   0  0  0  0  0  0  0  0  0  0  0  0
   23.7112  -21.5175   -9.9332 O   0  0  0  0  0  0  0  0  0  0  0  0
   23.7154  -21.7274   -7.6877 O   0  0  0  0  0  0  0  0  0  0  0  0
  2  1  1  6
  3  2  1  0
  4  3  1  0
  4  5  2  0
  6  5  1  0
  7 12  2  0
  7  6  1  0
  8  7  1  0
  9 10  1  0
  9  8  2  0
 10 11  2  0
 11 12  1  0
 12  4  1  0
 13  2  1  0
 14 13  2  0
 16 15  1  6
 16 18  1  0
 17 16  1  0
 18 20  1  0
 18 19  1  6
 19 13  1  0
 20 21  2  0
 22 23  1  0
 22 20  1  0
 23 24  1  6
 24 25  1  0
 25 33  1  0
 26 25  2  0
 26 27  1  0
 27 28  1  0
 28 29  1  0
 29 30  2  0
 31 30  1  0
 32 31  2  0
 33 28  2  0
 33 32  1  0
 34 36  1  0
 34 23  1  0
 35 34  2  0
M  END
$$$$
