WVW.pdb
     RDKit          3D

 36 39  0  0  1  0  0  0  0  0999 V2000
   25.8738  -20.0946  -17.5872 N   0  0  0  0  0  0  0  0  0  0  0  0
   25.9888  -19.4841  -16.3060 C   0  0  1  0  0  0  0  0  0  0  0  0
   25.0400  -18.3789  -16.0580 C   0  0  0  0  0  0  0  0  0  0  0  0
   25.0705  -17.3881  -17.1394 C   0  0  0  0  0  0  0  0  0  0  0  0
   23.9228  -16.9086  -17.7559 C   0  0  0  0  0  0  0  0  0  0  0  0
   24.2371  -15.9920  -18.6728 N   0  0  0  0  0  0  0  0  0  0  0  0
   25.5789  -15.8836  -18.6464 C   0  0  0  0  0  0  0  0  0  0  0  0
   26.4361  -15.0990  -19.3841 C   0  0  0  0  0  0  0  0  0  0  0  0
   27.7995  -15.1362  -19.2201 C   0  0  0  0  0  0  0  0  0  0  0  0
   28.3368  -15.9775  -18.2959 C   0  0  0  0  0  0  0  0  0  0  0  0
   27.4957  -16.7735  -17.5447 C   0  0  0  0  0  0  0  0  0  0  0  0
   26.1169  -16.7507  -17.6928 C   0  0  0  0  0  0  0  0  0  0  0  0
   26.0560  -20.4694  -15.1617 C   0  0  0  0  0  0  0  0  0  0  0  0
   25.3758  -21.5244  -15.2512 O   0  0  0  0  0  0  0  0  0  0  0  0
   29.3223  -21.2048  -14.0892 C   0  0  0  0  0  0  0  0  0  0  0  0
   28.6665  -21.1956  -12.7158 C   0  0  1  0  0  0  0  0  0  0  0  0
   29.1388  -19.8688  -12.0997 C   0  0  0  0  0  0  0  0  0  0  0  0
   27.1381  -21.0198  -12.8720 C   0  0  2  0  0  0  0  0  0  0  0  0
   26.8390  -20.2216  -14.0509 N   0  0  0  0  0  0  0  0  0  0  0  0
   26.6636  -20.2758  -11.6939 C   0  0  0  0  0  0  0  0  0  0  0  0
   26.6893  -18.9909  -11.7458 O   0  0  0  0  0  0  0  0  0  0  0  0
   26.1655  -20.7953  -10.4888 N   0  0  0  0  0  0  0  0  0  0  0  0
   25.6813  -19.9589   -9.3908 C   0  0  1  0  0  0  0  0  0  0  0  0
   24.4800  -19.2464   -9.9550 C   0  0  0  0  0  0  0  0  0  0  0  0
   23.3517  -20.1110  -10.2890 C   0  0  0  0  0  0  0  0  0  0  0  0
   22.4152  -20.6167   -9.3768 C   0  0  0  0  0  0  0  0  0  0  0  0
   21.5375  -21.3982  -10.0051 N   0  0  0  0  0  0  0  0  0  0  0  0
   21.8452  -21.4386  -11.3059 C   0  0  0  0  0  0  0  0  0  0  0  0
   21.2846  -22.0626  -12.4114 C   0  0  0  0  0  0  0  0  0  0  0  0
   21.8262  -21.8948  -13.6472 C   0  0  0  0  0  0  0  0  0  0  0  0
   22.9408  -21.1092  -13.8592 C   0  0  0  0  0  0  0  0  0  0  0  0
   23.5055  -20.4893  -12.7854 C   0  0  0  0  0  0  0  0  0  0  0  0
   22.9722  -20.6453  -11.5136 C   0  0  0  0  0  0  0  0  0  0  0  0
   25.3789  -20.6539   -8.1678 C   0  0  0  0  0  0  0  0  0  0  0  0
   25.2811  -21.9041   -8.1442 O   0  0  0  0  0  0  0  0  0  0  0  0
   25.1852  -19.9782   -6.9746 O   0  0  0  0  0  0  0  0  0  0  0  0
  2  1  1  6
  3  2  1  0
  4  3  1  0
  4  5  2  0
  6  5  1  0
  7 12  2  0
  7  6  1  0
  8  7  1  0
  9 10  1  0
  9  8  2  0
 10 11  2  0
 11 12  1  0
 12  4  1  0
 13  2  1  0
 14 13  2  0
 16 15  1  6
 16 18  1  0
 17 16  1  0
 18 20  1  0
 18 19  1  6
 19 13  1  0
 20 21  2  0
 22 23  1  0
 22 20  1  0
 23 24  1  6
 24 25  1  0
 25 33  1  0
 26 25  2  0
 26 27  1  0
 27 28  1  0
 28 29  1  0
 29 30  2  0
 31 30  1  0
 32 31  2  0
 33 28  2  0
 33 32  1  0
 34 36  1  0
 34 23  1  0
 35 34  2  0
M  END
$$$$
