WVW.pdb
     RDKit          3D

 36 39  0  0  1  0  0  0  0  0999 V2000
   27.4702  -20.1544  -11.2439 N   0  0  0  0  0  0  0  0  0  0  0  0
   26.4262  -21.1228  -11.2366 C   0  0  1  0  0  0  0  0  0  0  0  0
   25.8298  -21.3820   -9.9098 C   0  0  0  0  0  0  0  0  0  0  0  0
   26.5029  -20.6150   -8.8560 C   0  0  0  0  0  0  0  0  0  0  0  0
   25.9046  -19.5475   -8.2005 C   0  0  0  0  0  0  0  0  0  0  0  0
   26.7219  -19.0600   -7.2657 N   0  0  0  0  0  0  0  0  0  0  0  0
   27.8393  -19.8093   -7.3204 C   0  0  0  0  0  0  0  0  0  0  0  0
   29.0065  -19.7444   -6.5938 C   0  0  0  0  0  0  0  0  0  0  0  0
   30.0585  -20.6023   -6.8051 C   0  0  0  0  0  0  0  0  0  0  0  0
   29.9558  -21.5581   -7.7677 C   0  0  0  0  0  0  0  0  0  0  0  0
   28.7941  -21.6414   -8.5084 C   0  0  0  0  0  0  0  0  0  0  0  0
   27.7198  -20.7869   -8.3107 C   0  0  0  0  0  0  0  0  0  0  0  0
   25.3896  -20.9141  -12.3167 C   0  0  0  0  0  0  0  0  0  0  0  0
   24.8509  -19.7803  -12.4060 O   0  0  0  0  0  0  0  0  0  0  0  0
   26.1959  -22.4393  -15.7375 C   0  0  0  0  0  0  0  0  0  0  0  0
   24.7697  -22.8792  -15.4396 C   0  0  1  0  0  0  0  0  0  0  0  0
   24.9492  -24.2415  -14.7504 C   0  0  0  0  0  0  0  0  0  0  0  0
   24.1663  -21.9735  -14.3409 C   0  0  2  0  0  0  0  0  0  0  0  0
   25.0423  -21.9350  -13.1802 N   0  0  0  0  0  0  0  0  0  0  0  0
   22.8944  -22.5855  -13.9233 C   0  0  0  0  0  0  0  0  0  0  0  0
   22.8341  -23.8695  -13.8753 O   0  0  0  0  0  0  0  0  0  0  0  0
   21.7059  -21.9373  -13.5527 N   0  0  0  0  0  0  0  0  0  0  0  0
   20.4787  -22.6485  -13.1954 C   0  0  1  0  0  0  0  0  0  0  0  0
   19.6199  -21.6116  -12.5195 C   0  0  0  0  0  0  0  0  0  0  0  0
   18.3979  -22.1269  -11.9088 C   0  0  0  0  0  0  0  0  0  0  0  0
   18.3378  -23.1092  -10.9105 C   0  0  0  0  0  0  0  0  0  0  0  0
   17.0688  -23.3727  -10.6009 N   0  0  0  0  0  0  0  0  0  0  0  0
   16.2704  -22.6056  -11.3510 C   0  0  0  0  0  0  0  0  0  0  0  0
   14.8951  -22.4450  -11.4439 C   0  0  0  0  0  0  0  0  0  0  0  0
   14.3624  -21.5454  -12.3132 C   0  0  0  0  0  0  0  0  0  0  0  0
   15.1496  -20.7614  -13.1318 C   0  0  0  0  0  0  0  0  0  0  0  0
   16.5021  -20.9059  -13.0552 C   0  0  0  0  0  0  0  0  0  0  0  0
   17.0705  -21.8176  -12.1766 C   0  0  0  0  0  0  0  0  0  0  0  0
   19.7969  -23.2958  -14.2846 C   0  0  0  0  0  0  0  0  0  0  0  0
   19.7843  -22.7866  -15.4308 O   0  0  0  0  0  0  0  0  0  0  0  0
   19.1317  -24.4986  -14.1157 O   0  0  0  0  0  0  0  0  0  0  0  0
  2  1  1  1
  3  2  1  0
  4  3  1  0
  4  5  2  0
  6  5  1  0
  7 12  2  0
  7  6  1  0
  8  7  1  0
  9 10  1  0
  9  8  2  0
 10 11  2  0
 11 12  1  0
 12  4  1  0
 13  2  1  0
 14 13  2  0
 16 15  1  1
 16 18  1  0
 17 16  1  0
 18 20  1  0
 18 19  1  1
 19 13  1  0
 20 21  2  0
 22 23  1  0
 22 20  1  0
 23 24  1  6
 24 25  1  0
 25 33  1  0
 26 25  2  0
 26 27  1  0
 27 28  1  0
 28 29  1  0
 29 30  2  0
 31 30  1  0
 32 31  2  0
 33 28  2  0
 33 32  1  0
 34 36  1  0
 34 23  1  0
 35 34  2  0
M  END
$$$$
