VGG.pdb
     RDKit          3D

 16 15  0  0  1  0  0  0  0  0999 V2000
   14.1088  -11.2493  -15.8666 C   0  0  0  0  0  0  0  0  0  0  0  0
   13.8676  -12.6818  -15.4394 C   0  0  2  0  0  0  0  0  0  0  0  0
   12.7221  -12.7533  -14.4814 C   0  0  0  0  0  0  0  0  0  0  0  0
   15.1506  -13.2444  -14.8703 C   0  0  2  0  0  0  0  0  0  0  0  0
   15.3217  -12.7163  -13.5301 N   0  0  0  0  0  0  0  0  0  0  0  0
   16.3150  -12.9748  -15.7269 C   0  0  0  0  0  0  0  0  0  0  0  0
   16.3836  -13.3899  -16.9108 O   0  0  0  0  0  0  0  0  0  0  0  0
   17.4177  -12.2236  -15.2341 N   0  0  0  0  0  0  0  0  0  0  0  0
   18.5239  -11.8365  -16.1131 C   0  0  0  0  0  0  0  0  0  0  0  0
   18.5880  -10.3607  -16.2018 C   0  0  0  0  0  0  0  0  0  0  0  0
   19.5227   -9.7788  -16.8036 O   0  0  0  0  0  0  0  0  0  0  0  0
   17.5648   -9.5908  -15.5897 N   0  0  0  0  0  0  0  0  0  0  0  0
   17.6016   -8.1559  -15.7124 C   0  0  0  0  0  0  0  0  0  0  0  0
   18.0960   -7.5426  -14.4516 C   0  0  0  0  0  0  0  0  0  0  0  0
   18.0901   -6.1608  -14.2591 O   0  0  0  0  0  0  0  0  0  0  0  0
   18.5268   -8.2898  -13.5442 O   0  0  0  0  0  0  0  0  0  0  0  0
  2  1  1  1
  2  3  1  0
  4  2  1  0
  4  5  1  1
  6  4  1  0
  6  8  1  0
  7  6  2  0
  9  8  1  0
 10  9  1  0
 11 10  2  0
 12 10  1  0
 13 14  1  0
 13 12  1  0
 14 15  1  0
 16 14  2  0
M  END
$$$$
