VGG.pdb
     RDKit          3D

 16 15  0  0  1  0  0  0  0  0999 V2000
   18.6047  -11.3434  -19.1624 C   0  0  0  0  0  0  0  0  0  0  0  0
   19.8695  -10.7717  -18.5575 C   0  0  2  0  0  0  0  0  0  0  0  0
   21.0741  -11.4132  -19.1676 C   0  0  0  0  0  0  0  0  0  0  0  0
   19.8095  -10.9344  -17.0554 C   0  0  2  0  0  0  0  0  0  0  0  0
   18.6195  -10.2590  -16.5737 N   0  0  0  0  0  0  0  0  0  0  0  0
   21.0288  -10.4575  -16.3861 C   0  0  0  0  0  0  0  0  0  0  0  0
   22.1346  -11.0391  -16.5189 O   0  0  0  0  0  0  0  0  0  0  0  0
   20.9939   -9.3045  -15.5540 N   0  0  0  0  0  0  0  0  0  0  0  0
   22.1752   -8.8792  -14.7990 C   0  0  0  0  0  0  0  0  0  0  0  0
   21.8421   -7.6786  -14.0004 C   0  0  0  0  0  0  0  0  0  0  0  0
   21.1527   -7.7558  -12.9548 O   0  0  0  0  0  0  0  0  0  0  0  0
   22.3166   -6.4128  -14.4327 N   0  0  0  0  0  0  0  0  0  0  0  0
   21.9255   -5.2335  -13.7034 C   0  0  0  0  0  0  0  0  0  0  0  0
   21.2920   -4.2475  -14.6181 C   0  0  0  0  0  0  0  0  0  0  0  0
   20.8436   -3.0083  -14.1603 O   0  0  0  0  0  0  0  0  0  0  0  0
   21.1605   -4.5425  -15.8276 O   0  0  0  0  0  0  0  0  0  0  0  0
  2  1  1  6
  2  3  1  0
  4  2  1  0
  4  5  1  1
  6  4  1  0
  6  8  1  0
  7  6  2  0
  9  8  1  0
 10  9  1  0
 11 10  2  0
 12 10  1  0
 13 14  1  0
 13 12  1  0
 14 15  1  0
 16 14  2  0
M  END
$$$$
