VGG.pdb
     RDKit          3D

 16 15  0  0  1  0  0  0  0  0999 V2000
   16.8505   -7.4779  -16.6508 C   0  0  0  0  0  0  0  0  0  0  0  0
   16.1453   -8.8063  -16.4759 C   0  0  2  0  0  0  0  0  0  0  0  0
   14.8339   -8.6122  -15.7849 C   0  0  0  0  0  0  0  0  0  0  0  0
   17.0658   -9.7552  -15.7421 C   0  0  2  0  0  0  0  0  0  0  0  0
   17.1020   -9.3626  -14.3461 N   0  0  0  0  0  0  0  0  0  0  0  0
   18.4088   -9.8139  -16.3381 C   0  0  0  0  0  0  0  0  0  0  0  0
   18.5936  -10.1385  -17.5376 O   0  0  0  0  0  0  0  0  0  0  0  0
   19.5591   -9.5001  -15.5626 N   0  0  0  0  0  0  0  0  0  0  0  0
   20.8884   -9.4285  -16.1741 C   0  0  0  0  0  0  0  0  0  0  0  0
   21.7178   -8.4512  -15.4343 C   0  0  0  0  0  0  0  0  0  0  0  0
   22.8934   -8.1883  -15.7855 O   0  0  0  0  0  0  0  0  0  0  0  0
   21.1646   -7.7993  -14.3015 N   0  0  0  0  0  0  0  0  0  0  0  0
   21.9670   -6.8402  -13.5861 C   0  0  0  0  0  0  0  0  0  0  0  0
   21.7250   -5.4706  -14.1115 C   0  0  0  0  0  0  0  0  0  0  0  0
   22.2968   -4.3467  -13.5147 O   0  0  0  0  0  0  0  0  0  0  0  0
   20.9891   -5.3291  -15.1143 O   0  0  0  0  0  0  0  0  0  0  0  0
  2  1  1  1
  2  3  1  0
  4  2  1  0
  4  5  1  1
  6  4  1  0
  6  8  1  0
  7  6  2  0
  9  8  1  0
 10  9  1  0
 11 10  2  0
 12 10  1  0
 13 14  1  0
 13 12  1  0
 14 15  1  0
 16 14  2  0
M  END
$$$$
