VGG.pdb
     RDKit          3D

 16 15  0  0  1  0  0  0  0  0999 V2000
   24.6687  -17.2271  -17.4382 C   0  0  0  0  0  0  0  0  0  0  0  0
   23.7910  -18.4564  -17.3337 C   0  0  2  0  0  0  0  0  0  0  0  0
   22.4226  -18.1652  -17.8605 C   0  0  0  0  0  0  0  0  0  0  0  0
   23.7835  -18.9306  -15.8979 C   0  0  2  0  0  0  0  0  0  0  0  0
   23.1448  -17.9112  -15.0873 N   0  0  0  0  0  0  0  0  0  0  0  0
   25.1277  -19.2695  -15.4075 C   0  0  0  0  0  0  0  0  0  0  0  0
   25.6990  -20.3457  -15.7143 O   0  0  0  0  0  0  0  0  0  0  0  0
   25.8346  -18.3752  -14.5569 N   0  0  0  0  0  0  0  0  0  0  0  0
   27.1911  -18.6810  -14.0960 C   0  0  0  0  0  0  0  0  0  0  0  0
   27.1325  -19.2207  -12.7192 C   0  0  0  0  0  0  0  0  0  0  0  0
   28.1607  -19.6363  -12.1323 O   0  0  0  0  0  0  0  0  0  0  0  0
   25.8806  -19.2664  -12.0522 N   0  0  0  0  0  0  0  0  0  0  0  0
   25.8410  -19.6570  -10.6661 C   0  0  0  0  0  0  0  0  0  0  0  0
   25.5674  -21.1135  -10.5480 C   0  0  0  0  0  0  0  0  0  0  0  0
   25.3660  -21.7217   -9.3086 O   0  0  0  0  0  0  0  0  0  0  0  0
   25.5178  -21.8058  -11.5899 O   0  0  0  0  0  0  0  0  0  0  0  0
  2  1  1  1
  2  3  1  0
  4  2  1  0
  4  5  1  1
  6  4  1  0
  6  8  1  0
  7  6  2  0
  9  8  1  0
 10  9  1  0
 11 10  2  0
 12 10  1  0
 13 14  1  0
 13 12  1  0
 14 15  1  0
 16 14  2  0
M  END
$$$$
