VGG.pdb
     RDKit          3D

 16 15  0  0  1  0  0  0  0  0999 V2000
   17.9585  -10.3021  -17.2505 C   0  0  0  0  0  0  0  0  0  0  0  0
   18.7579  -11.2793  -18.0863 C   0  0  2  0  0  0  0  0  0  0  0  0
   17.8515  -12.2857  -18.7193 C   0  0  0  0  0  0  0  0  0  0  0  0
   19.8239  -11.9075  -17.2173 C   0  0  2  0  0  0  0  0  0  0  0  0
   19.2123  -12.9771  -16.4518 N   0  0  0  0  0  0  0  0  0  0  0  0
   20.5028  -10.9265  -16.3576 C   0  0  0  0  0  0  0  0  0  0  0  0
   20.1079  -10.6735  -15.1920 O   0  0  0  0  0  0  0  0  0  0  0  0
   21.6462  -10.2221  -16.8262 N   0  0  0  0  0  0  0  0  0  0  0  0
   22.3590   -9.2761  -15.9642 C   0  0  0  0  0  0  0  0  0  0  0  0
   21.6340   -7.9861  -15.9450 C   0  0  0  0  0  0  0  0  0  0  0  0
   20.7399   -7.7226  -16.7850 O   0  0  0  0  0  0  0  0  0  0  0  0
   21.9625   -7.0284  -14.9505 N   0  0  0  0  0  0  0  0  0  0  0  0
   21.2850   -5.7570  -14.9536 C   0  0  0  0  0  0  0  0  0  0  0  0
   21.7636   -4.9143  -13.8262 C   0  0  0  0  0  0  0  0  0  0  0  0
   21.3486   -3.5910  -13.6747 O   0  0  0  0  0  0  0  0  0  0  0  0
   22.5585   -5.4102  -12.9959 O   0  0  0  0  0  0  0  0  0  0  0  0
  2  1  1  1
  2  3  1  0
  4  2  1  0
  4  5  1  1
  6  4  1  0
  6  8  1  0
  7  6  2  0
  9  8  1  0
 10  9  1  0
 11 10  2  0
 12 10  1  0
 13 14  1  0
 13 12  1  0
 14 15  1  0
 16 14  2  0
M  END
$$$$
