VGG.pdb
     RDKit          3D

 16 15  0  0  1  0  0  0  0  0999 V2000
   17.6070  -13.4770  -18.6906 C   0  0  0  0  0  0  0  0  0  0  0  0
   18.1420  -12.0624  -18.6189 C   0  0  2  0  0  0  0  0  0  0  0  0
   17.9158  -11.3541  -19.9158 C   0  0  0  0  0  0  0  0  0  0  0  0
   19.5991  -12.1109  -18.2177 C   0  0  2  0  0  0  0  0  0  0  0  0
   19.6996  -12.8303  -16.9621 N   0  0  0  0  0  0  0  0  0  0  0  0
   20.2098  -10.7753  -18.1437 C   0  0  0  0  0  0  0  0  0  0  0  0
   20.3566  -10.0508  -19.1596 O   0  0  0  0  0  0  0  0  0  0  0  0
   20.6606  -10.2535  -16.8996 N   0  0  0  0  0  0  0  0  0  0  0  0
   21.3214   -8.9484  -16.8204 C   0  0  0  0  0  0  0  0  0  0  0  0
   21.1149   -8.3740  -15.4722 C   0  0  0  0  0  0  0  0  0  0  0  0
   20.3399   -8.9081  -14.6424 O   0  0  0  0  0  0  0  0  0  0  0  0
   21.8128   -7.1908  -15.1156 N   0  0  0  0  0  0  0  0  0  0  0  0
   21.7587   -6.7318  -13.7511 C   0  0  0  0  0  0  0  0  0  0  0  0
   22.4732   -5.4353  -13.6140 C   0  0  0  0  0  0  0  0  0  0  0  0
   22.5645   -4.7768  -12.3875 O   0  0  0  0  0  0  0  0  0  0  0  0
   23.0038   -4.9273  -14.6277 O   0  0  0  0  0  0  0  0  0  0  0  0
  2  1  1  6
  2  3  1  0
  4  2  1  0
  4  5  1  1
  6  4  1  0
  6  8  1  0
  7  6  2  0
  9  8  1  0
 10  9  1  0
 11 10  2  0
 12 10  1  0
 13 14  1  0
 13 12  1  0
 14 15  1  0
 16 14  2  0
M  END
$$$$
