VGG.pdb
     RDKit          3D

 16 15  0  0  1  0  0  0  0  0999 V2000
   23.9953  -12.7276  -15.0393 C   0  0  0  0  0  0  0  0  0  0  0  0
   22.8634  -13.6906  -15.3294 C   0  0  2  0  0  0  0  0  0  0  0  0
   23.4011  -14.9812  -15.8588 C   0  0  0  0  0  0  0  0  0  0  0  0
   21.8861  -13.0258  -16.2724 C   0  0  2  0  0  0  0  0  0  0  0  0
   22.5473  -12.8344  -17.5493 N   0  0  0  0  0  0  0  0  0  0  0  0
   21.3453  -11.7694  -15.7326 C   0  0  0  0  0  0  0  0  0  0  0  0
   20.6669  -11.7338  -14.6757 O   0  0  0  0  0  0  0  0  0  0  0  0
   21.5770  -10.5354  -16.4008 N   0  0  0  0  0  0  0  0  0  0  0  0
   20.8707   -9.3148  -16.0041 C   0  0  0  0  0  0  0  0  0  0  0  0
   21.7521   -8.4946  -15.1435 C   0  0  0  0  0  0  0  0  0  0  0  0
   22.8435   -8.9368  -14.7102 O   0  0  0  0  0  0  0  0  0  0  0  0
   21.3476   -7.1773  -14.8038 N   0  0  0  0  0  0  0  0  0  0  0  0
   22.2450   -6.3447  -14.0442 C   0  0  0  0  0  0  0  0  0  0  0  0
   21.6580   -4.9920  -13.8547 C   0  0  0  0  0  0  0  0  0  0  0  0
   22.3257   -3.9989  -13.1375 O   0  0  0  0  0  0  0  0  0  0  0  0
   20.5368   -4.7442  -14.3534 O   0  0  0  0  0  0  0  0  0  0  0  0
  2  1  1  6
  2  3  1  0
  4  2  1  0
  4  5  1  6
  6  4  1  0
  6  8  1  0
  7  6  2  0
  9  8  1  0
 10  9  1  0
 11 10  2  0
 12 10  1  0
 13 14  1  0
 13 12  1  0
 14 15  1  0
 16 14  2  0
M  END
$$$$
