VGG.pdb
     RDKit          3D

 16 15  0  0  1  0  0  0  0  0999 V2000
   23.4139  -17.9170  -17.7598 C   0  0  0  0  0  0  0  0  0  0  0  0
   23.0350  -18.9222  -16.6928 C   0  0  2  0  0  0  0  0  0  0  0  0
   21.6995  -19.5227  -16.9943 C   0  0  0  0  0  0  0  0  0  0  0  0
   23.0873  -18.2442  -15.3423 C   0  0  2  0  0  0  0  0  0  0  0  0
   21.8837  -17.4496  -15.1872 N   0  0  0  0  0  0  0  0  0  0  0  0
   24.3083  -17.4457  -15.1576 C   0  0  0  0  0  0  0  0  0  0  0  0
   25.4556  -17.9510  -15.2401 O   0  0  0  0  0  0  0  0  0  0  0  0
   24.2271  -16.0540  -14.8754 N   0  0  0  0  0  0  0  0  0  0  0  0
   25.4347  -15.2324  -14.7619 C   0  0  0  0  0  0  0  0  0  0  0  0
   25.3548  -14.1064  -15.7189 C   0  0  0  0  0  0  0  0  0  0  0  0
   26.2462  -13.2249  -15.7718 O   0  0  0  0  0  0  0  0  0  0  0  0
   24.2409  -14.0273  -16.5948 N   0  0  0  0  0  0  0  0  0  0  0  0
   24.2018  -12.9794  -17.5828 C   0  0  0  0  0  0  0  0  0  0  0  0
   23.2480  -11.9163  -17.1700 C   0  0  0  0  0  0  0  0  0  0  0  0
   23.5009  -10.5680  -17.4240 O   0  0  0  0  0  0  0  0  0  0  0  0
   22.1938  -12.2455  -16.5804 O   0  0  0  0  0  0  0  0  0  0  0  0
  2  1  1  6
  2  3  1  0
  4  2  1  0
  4  5  1  6
  6  4  1  0
  6  8  1  0
  7  6  2  0
  9  8  1  0
 10  9  1  0
 11 10  2  0
 12 10  1  0
 13 14  1  0
 13 12  1  0
 14 15  1  0
 16 14  2  0
M  END
$$$$
