FRE.pdb
     RDKit          3D

 32 32  0  0  1  0  0  0  0  0999 V2000
   28.7009  -20.6080   -9.2314 N   0  0  0  0  0  0  0  0  0  0  0  0
   27.2809  -20.6221   -8.9301 C   0  0  1  0  0  0  0  0  0  0  0  0
   27.0161  -19.3559   -8.1071 C   0  0  0  0  0  0  0  0  0  0  0  0
   27.6662  -19.4725   -6.7977 C   0  0  0  0  0  0  0  0  0  0  0  0
   27.0606  -20.2167   -5.8092 C   0  0  0  0  0  0  0  0  0  0  0  0
   27.6326  -20.3624   -4.5455 C   0  0  0  0  0  0  0  0  0  0  0  0
   28.8185  -19.7597   -4.2683 C   0  0  0  0  0  0  0  0  0  0  0  0
   29.4587  -19.0009   -5.2412 C   0  0  0  0  0  0  0  0  0  0  0  0
   28.8695  -18.8708   -6.4912 C   0  0  0  0  0  0  0  0  0  0  0  0
   26.5508  -20.5822  -10.2088 C   0  0  0  0  0  0  0  0  0  0  0  0
   26.7155  -19.6362  -11.0356 O   0  0  0  0  0  0  0  0  0  0  0  0
   21.8045  -23.7022  -14.9473 N   0  0  0  0  0  0  0  0  0  0  0  0
   22.6449  -23.9303  -16.0658 C   0  0  0  0  0  0  0  0  0  0  0  0
   22.0988  -23.8319  -17.2538 N   0  0  0  0  0  0  0  0  0  0  0  0
   24.0177  -24.2518  -15.9304 N   0  0  0  0  0  0  0  0  0  0  0  0
   24.6209  -24.1273  -14.6512 C   0  0  0  0  0  0  0  0  0  0  0  0
   24.3513  -22.7971  -13.9805 C   0  0  0  0  0  0  0  0  0  0  0  0
   25.0586  -22.8270  -12.6657 C   0  0  0  0  0  0  0  0  0  0  0  0
   24.9419  -21.5524  -11.8756 C   0  0  2  0  0  0  0  0  0  0  0  0
   25.6188  -21.5799  -10.6162 N   0  0  0  0  0  0  0  0  0  0  0  0
   23.5181  -21.1147  -11.7424 C   0  0  0  0  0  0  0  0  0  0  0  0
   22.7773  -21.5523  -10.8244 O   0  0  0  0  0  0  0  0  0  0  0  0
   22.6409  -23.8922  -18.1202 N   0  0  0  0  0  0  0  0  0  0  0  0
   22.9625  -20.1876  -12.6557 C   0  0  2  0  0  0  0  0  0  0  0  0
   21.5854  -19.6798  -12.4278 C   0  0  0  0  0  0  0  0  0  0  0  0
   21.2753  -18.6363  -13.4387 C   0  0  0  0  0  0  0  0  0  0  0  0
   21.2504  -19.2131  -14.8241 C   0  0  0  0  0  0  0  0  0  0  0  0
   20.9314  -18.1485  -15.8341 O   0  0  0  0  0  0  0  0  0  0  0  0
   21.8182  -17.3326  -16.1489 C   0  0  0  0  0  0  0  0  0  0  0  0
   20.6785  -20.8138  -12.4989 O   0  0  0  0  0  0  0  0  0  0  0  0
   20.9691  -21.8828  -13.1052 O   0  0  0  0  0  0  0  0  0  0  0  0
   19.6817  -18.0931  -16.3872 O   0  0  0  0  0  0  0  0  0  0  0  0
  2  1  1  6
  2  3  1  0
  3  4  1  0
  4  5  2  0
  5  6  1  0
  7  6  2  0
  8  7  1  0
  9  8  2  0
  9  4  1  0
 10 11  2  0
 10  2  1  0
 13 15  1  0
 13 12  1  0
 14 13  2  0
 16 17  1  0
 16 15  1  0
 17 18  1  0
 19 18  1  1
 19 20  1  0
 19 21  1  0
 20 10  1  0
 21 22  2  0
 21 23  1  0
 23 24  1  0
 24 29  1  0
 24 25  1  6
 26 25  1  0
 27 26  1  0
 28 27  2  0
 29 30  2  0
 29 32  1  0
 31 27  1  0
M  END
$$$$
