FRE.pdb
     RDKit          3D

 32 32  0  0  1  0  0  0  0  0999 V2000
   26.0145  -16.3798  -20.3960 N   0  0  0  0  0  0  0  0  0  0  0  0
   25.9975  -15.9546  -19.0080 C   0  0  1  0  0  0  0  0  0  0  0  0
   25.2107  -14.6389  -18.9841 C   0  0  0  0  0  0  0  0  0  0  0  0
   25.9627  -13.6002  -19.6957 C   0  0  0  0  0  0  0  0  0  0  0  0
   25.4043  -13.0058  -20.8060 C   0  0  0  0  0  0  0  0  0  0  0  0
   26.0732  -12.0131  -21.5217 C   0  0  0  0  0  0  0  0  0  0  0  0
   27.3091  -11.6117  -21.1246 C   0  0  0  0  0  0  0  0  0  0  0  0
   27.9041  -12.1891  -20.0088 C   0  0  0  0  0  0  0  0  0  0  0  0
   27.2184  -13.1752  -19.3129 C   0  0  0  0  0  0  0  0  0  0  0  0
   25.3070  -16.9962  -18.2283 C   0  0  0  0  0  0  0  0  0  0  0  0
   24.2763  -17.5829  -18.6747 O   0  0  0  0  0  0  0  0  0  0  0  0
   25.9221  -23.1988  -14.8071 N   0  0  0  0  0  0  0  0  0  0  0  0
   25.6519  -23.0946  -13.4195 C   0  0  0  0  0  0  0  0  0  0  0  0
   25.2198  -24.1732  -12.8119 N   0  0  0  0  0  0  0  0  0  0  0  0
   25.8333  -21.8882  -12.6997 N   0  0  0  0  0  0  0  0  0  0  0  0
   26.2774  -20.7381  -13.4037 C   0  0  0  0  0  0  0  0  0  0  0  0
   25.2676  -20.2097  -14.4003 C   0  0  0  0  0  0  0  0  0  0  0  0
   25.9368  -19.1012  -15.1442 C   0  0  0  0  0  0  0  0  0  0  0  0
   25.0800  -18.4682  -16.2061 C   0  0  2  0  0  0  0  0  0  0  0  0
   25.7284  -17.4234  -16.9361 N   0  0  0  0  0  0  0  0  0  0  0  0
   23.7548  -18.0391  -15.6619 C   0  0  0  0  0  0  0  0  0  0  0  0
   23.6561  -17.0960  -14.8349 O   0  0  0  0  0  0  0  0  0  0  0  0
   24.9193  -24.1758  -11.8332 N   0  0  0  0  0  0  0  0  0  0  0  0
   22.5658  -18.6902  -16.0680 C   0  0  2  0  0  0  0  0  0  0  0  0
   21.2560  -18.1674  -15.6020 C   0  0  0  0  0  0  0  0  0  0  0  0
   20.2311  -18.4119  -16.6492 C   0  0  0  0  0  0  0  0  0  0  0  0
   18.9094  -17.8131  -16.2656 C   0  0  0  0  0  0  0  0  0  0  0  0
   17.8717  -18.1102  -17.3097 O   0  0  0  0  0  0  0  0  0  0  0  0
   17.7631  -19.2755  -17.7357 C   0  0  0  0  0  0  0  0  0  0  0  0
   20.9388  -18.8257  -14.3452 O   0  0  0  0  0  0  0  0  0  0  0  0
   20.2992  -18.2544  -13.4182 O   0  0  0  0  0  0  0  0  0  0  0  0
   17.0693  -17.1036  -17.7720 O   0  0  0  0  0  0  0  0  0  0  0  0
  2  1  1  6
  2  3  1  0
  3  4  1  0
  4  5  2  0
  5  6  1  0
  7  6  2  0
  8  7  1  0
  9  8  2  0
  9  4  1  0
 10 11  2  0
 10  2  1  0
 13 15  1  0
 13 12  1  0
 14 13  2  0
 16 17  1  0
 16 15  1  0
 17 18  1  0
 19 18  1  1
 19 20  1  0
 19 21  1  0
 20 10  1  0
 21 22  2  0
 21 23  1  0
 23 24  1  0
 24 29  1  0
 24 25  1  6
 26 25  1  0
 27 26  1  0
 28 27  2  0
 29 30  2  0
 29 32  1  0
 31 27  1  0
M  END
$$$$
