FRE.pdb
     RDKit          3D

 32 32  0  0  1  0  0  0  0  0999 V2000
   26.9333  -21.7952   -8.4822 N   0  0  0  0  0  0  0  0  0  0  0  0
   26.4016  -20.4632   -8.2576 C   0  0  1  0  0  0  0  0  0  0  0  0
   27.6139  -19.5759   -7.9511 C   0  0  0  0  0  0  0  0  0  0  0  0
   28.0931  -19.8463   -6.5917 C   0  0  0  0  0  0  0  0  0  0  0  0
   27.4132  -19.3118   -5.5193 C   0  0  0  0  0  0  0  0  0  0  0  0
   27.8230  -19.5354   -4.2050 C   0  0  0  0  0  0  0  0  0  0  0  0
   28.9204  -20.2986   -3.9612 C   0  0  0  0  0  0  0  0  0  0  0  0
   29.6316  -20.8543   -5.0184 C   0  0  0  0  0  0  0  0  0  0  0  0
   29.2040  -20.6175   -6.3176 C   0  0  0  0  0  0  0  0  0  0  0  0
   25.7329  -20.0323   -9.4974 C   0  0  0  0  0  0  0  0  0  0  0  0
   25.3218  -18.8432   -9.6486 O   0  0  0  0  0  0  0  0  0  0  0  0
   29.4964  -20.3978  -16.4016 N   0  0  0  0  0  0  0  0  0  0  0  0
   28.5925  -19.3928  -15.9751 C   0  0  0  0  0  0  0  0  0  0  0  0
   28.4690  -18.3358  -16.7411 N   0  0  0  0  0  0  0  0  0  0  0  0
   27.8444  -19.5036  -14.7774 N   0  0  0  0  0  0  0  0  0  0  0  0
   28.0030  -20.6700  -13.9837 C   0  0  0  0  0  0  0  0  0  0  0  0
   27.2469  -20.6189  -12.6731 C   0  0  0  0  0  0  0  0  0  0  0  0
   25.8001  -20.4814  -13.0161 C   0  0  0  0  0  0  0  0  0  0  0  0
   24.8847  -20.4573  -11.8228 C   0  0  2  0  0  0  0  0  0  0  0  0
   25.4964  -20.8948  -10.6065 N   0  0  0  0  0  0  0  0  0  0  0  0
   23.6006  -21.1725  -12.0986 C   0  0  0  0  0  0  0  0  0  0  0  0
   23.3862  -22.3334  -11.6636 O   0  0  0  0  0  0  0  0  0  0  0  0
   27.7936  -17.5898  -16.5524 N   0  0  0  0  0  0  0  0  0  0  0  0
   22.5835  -20.5544  -12.8641 C   0  0  1  0  0  0  0  0  0  0  0  0
   21.1830  -21.0310  -12.7307 C   0  0  0  0  0  0  0  0  0  0  0  0
   20.7763  -20.9608  -11.3036 C   0  0  0  0  0  0  0  0  0  0  0  0
   19.3449  -21.3760  -11.1262 C   0  0  0  0  0  0  0  0  0  0  0  0
   19.2342  -22.8718  -11.0498 O   0  0  0  0  0  0  0  0  0  0  0  0
   19.4816  -23.4390   -9.9689 C   0  0  0  0  0  0  0  0  0  0  0  0
   20.3510  -20.2049  -13.5902 O   0  0  0  0  0  0  0  0  0  0  0  0
   20.6069  -18.9908  -13.8250 O   0  0  0  0  0  0  0  0  0  0  0  0
   18.8664  -23.5808  -12.1600 O   0  0  0  0  0  0  0  0  0  0  0  0
  2  1  1  6
  2  3  1  0
  3  4  1  0
  4  5  2  0
  5  6  1  0
  7  6  2  0
  8  7  1  0
  9  8  2  0
  9  4  1  0
 10 11  2  0
 10  2  1  0
 13 15  1  0
 13 12  1  0
 14 13  2  0
 16 17  1  0
 16 15  1  0
 17 18  1  0
 19 18  1  6
 19 20  1  0
 19 21  1  0
 20 10  1  0
 21 22  2  0
 21 23  1  0
 23 24  1  0
 24 29  1  0
 24 25  1  6
 26 25  1  0
 27 26  1  0
 28 27  2  0
 29 30  2  0
 29 32  1  0
 31 27  1  0
M  END
$$$$
