FRE.pdb
     RDKit          3D

 32 32  0  0  1  0  0  0  0  0999 V2000
   18.8793  -11.3973    8.5959 N   0  0  0  0  0  0  0  0  0  0  0  0
   19.4096  -12.3006    7.5908 C   0  0  1  0  0  0  0  0  0  0  0  0
   20.7863  -12.7366    8.1060 C   0  0  0  0  0  0  0  0  0  0  0  0
   21.7306  -11.6196    7.9986 C   0  0  0  0  0  0  0  0  0  0  0  0
   22.3168  -11.1212    9.1414 C   0  0  0  0  0  0  0  0  0  0  0  0
   23.2217  -10.0607    9.0996 C   0  0  0  0  0  0  0  0  0  0  0  0
   23.5427   -9.4944    7.9069 C   0  0  0  0  0  0  0  0  0  0  0  0
   22.9709   -9.9710    6.7329 C   0  0  0  0  0  0  0  0  0  0  0  0
   22.0731  -11.0274    6.8003 C   0  0  0  0  0  0  0  0  0  0  0  0
   18.4945  -13.4508    7.4939 C   0  0  0  0  0  0  0  0  0  0  0  0
   18.0756  -14.0521    8.5278 O   0  0  0  0  0  0  0  0  0  0  0  0
   17.0228  -19.1459    1.8013 N   0  0  0  0  0  0  0  0  0  0  0  0
   15.7385  -19.3184    2.3755 C   0  0  0  0  0  0  0  0  0  0  0  0
   15.2165  -20.5201    2.3227 N   0  0  0  0  0  0  0  0  0  0  0  0
   15.0307  -18.2538    2.9853 N   0  0  0  0  0  0  0  0  0  0  0  0
   15.7206  -17.0401    3.2435 C   0  0  0  0  0  0  0  0  0  0  0  0
   16.1315  -16.8723    4.6909 C   0  0  0  0  0  0  0  0  0  0  0  0
   16.7910  -15.5369    4.7989 C   0  0  0  0  0  0  0  0  0  0  0  0
   17.4412  -15.2780    6.1303 C   0  0  2  0  0  0  0  0  0  0  0  0
   18.0132  -13.9738    6.2591 N   0  0  0  0  0  0  0  0  0  0  0  0
   18.4110  -16.3584    6.4896 C   0  0  0  0  0  0  0  0  0  0  0  0
   19.4969  -16.5017    5.8706 O   0  0  0  0  0  0  0  0  0  0  0  0
   14.2869  -20.7379    2.6923 N   0  0  0  0  0  0  0  0  0  0  0  0
   18.1281  -17.2561    7.5462 C   0  0  2  0  0  0  0  0  0  0  0  0
   19.1194  -18.3071    7.8911 C   0  0  0  0  0  0  0  0  0  0  0  0
   19.8404  -17.9123    9.1285 C   0  0  0  0  0  0  0  0  0  0  0  0
   20.7601  -19.0038    9.5926 C   0  0  0  0  0  0  0  0  0  0  0  0
   21.5237  -18.5692   10.8106 O   0  0  0  0  0  0  0  0  0  0  0  0
   21.1503  -17.5511   11.4233 C   0  0  0  0  0  0  0  0  0  0  0  0
   18.4002  -19.5618    8.0397 O   0  0  0  0  0  0  0  0  0  0  0  0
   18.9862  -20.6731    8.1681 O   0  0  0  0  0  0  0  0  0  0  0  0
   22.6081  -19.2932   11.2236 O   0  0  0  0  0  0  0  0  0  0  0  0
  2  1  1  1
  2  3  1  0
  3  4  1  0
  4  5  2  0
  5  6  1  0
  7  6  2  0
  8  7  1  0
  9  8  2  0
  9  4  1  0
 10 11  2  0
 10  2  1  0
 13 15  1  0
 13 12  1  0
 14 13  2  0
 16 17  1  0
 16 15  1  0
 17 18  1  0
 19 18  1  6
 19 20  1  0
 19 21  1  0
 20 10  1  0
 21 22  2  0
 21 23  1  0
 23 24  1  0
 24 29  1  0
 24 25  1  1
 26 25  1  0
 27 26  1  0
 28 27  2  0
 29 30  2  0
 29 32  1  0
 31 27  1  0
M  END
$$$$
