FRE.pdb
     RDKit          3D

 32 32  0  0  1  0  0  0  0  0999 V2000
   28.2000  -20.7866  -16.5622 N   0  0  0  0  0  0  0  0  0  0  0  0
   27.7667  -19.9152  -15.4850 C   0  0  1  0  0  0  0  0  0  0  0  0
   27.2735  -18.6301  -16.1603 C   0  0  0  0  0  0  0  0  0  0  0  0
   28.3808  -17.9947  -16.8819 C   0  0  0  0  0  0  0  0  0  0  0  0
   28.4186  -18.0683  -18.2571 C   0  0  0  0  0  0  0  0  0  0  0  0
   29.4469  -17.4830  -18.9956 C   0  0  0  0  0  0  0  0  0  0  0  0
   30.4445  -16.8195  -18.3546 C   0  0  0  0  0  0  0  0  0  0  0  0
   30.4396  -16.7248  -16.9678 C   0  0  0  0  0  0  0  0  0  0  0  0
   29.4053  -17.3155  -16.2549 C   0  0  0  0  0  0  0  0  0  0  0  0
   26.6684  -20.5924  -14.7745 C   0  0  0  0  0  0  0  0  0  0  0  0
   25.8530  -21.3478  -15.3831 O   0  0  0  0  0  0  0  0  0  0  0  0
   21.6376  -21.3547   -7.8542 N   0  0  0  0  0  0  0  0  0  0  0  0
   22.1087  -20.0728   -8.2335 C   0  0  0  0  0  0  0  0  0  0  0  0
   21.2960  -19.0597   -8.0530 N   0  0  0  0  0  0  0  0  0  0  0  0
   23.3974  -19.8706   -8.7856 N   0  0  0  0  0  0  0  0  0  0  0  0
   24.1949  -21.0074   -9.0814 C   0  0  0  0  0  0  0  0  0  0  0  0
   24.1289  -21.4332  -10.5327 C   0  0  0  0  0  0  0  0  0  0  0  0
   25.2242  -20.7090  -11.2438 C   0  0  0  0  0  0  0  0  0  0  0  0
   25.2543  -20.9448  -12.7291 C   0  0  2  0  0  0  0  0  0  0  0  0
   26.4340  -20.4597  -13.3754 N   0  0  0  0  0  0  0  0  0  0  0  0
   24.0055  -20.4550  -13.3904 C   0  0  0  0  0  0  0  0  0  0  0  0
   23.8248  -19.2342  -13.6353 O   0  0  0  0  0  0  0  0  0  0  0  0
   21.5413  -18.0993   -8.3093 N   0  0  0  0  0  0  0  0  0  0  0  0
   22.9850  -21.3624  -13.7612 C   0  0  1  0  0  0  0  0  0  0  0  0
   21.7379  -20.8408  -14.3768 C   0  0  0  0  0  0  0  0  0  0  0  0
   21.6342  -21.3417  -15.7715 C   0  0  0  0  0  0  0  0  0  0  0  0
   22.6209  -20.6544  -16.6698 C   0  0  0  0  0  0  0  0  0  0  0  0
   22.4483  -21.1096  -18.0905 O   0  0  0  0  0  0  0  0  0  0  0  0
   21.5847  -21.9699  -18.3461 C   0  0  0  0  0  0  0  0  0  0  0  0
   20.6232  -21.2661  -13.5460 O   0  0  0  0  0  0  0  0  0  0  0  0
   20.7164  -22.2067  -12.7086 O   0  0  0  0  0  0  0  0  0  0  0  0
   23.2364  -20.5758  -19.0726 O   0  0  0  0  0  0  0  0  0  0  0  0
  2  1  1  6
  2  3  1  0
  3  4  1  0
  4  5  2  0
  5  6  1  0
  7  6  2  0
  8  7  1  0
  9  8  2  0
  9  4  1  0
 10 11  2  0
 10  2  1  0
 13 15  1  0
 13 12  1  0
 14 13  2  0
 16 17  1  0
 16 15  1  0
 17 18  1  0
 19 18  1  1
 19 20  1  0
 19 21  1  0
 20 10  1  0
 21 22  2  0
 21 23  1  0
 23 24  1  0
 24 29  1  0
 24 25  1  1
 26 25  1  0
 27 26  1  0
 28 27  2  0
 29 30  2  0
 29 32  1  0
 31 27  1  0
M  END
$$$$
