FRE.pdb
     RDKit          3D

 32 32  0  0  1  0  0  0  0  0999 V2000
   24.9249   -9.3973  -18.4316 N   0  0  0  0  0  0  0  0  0  0  0  0
   24.3490   -9.4424  -17.0997 C   0  0  1  0  0  0  0  0  0  0  0  0
   25.2022   -8.4988  -16.2438 C   0  0  0  0  0  0  0  0  0  0  0  0
   26.4636   -9.1575  -15.8896 C   0  0  0  0  0  0  0  0  0  0  0  0
   27.6069   -8.8450  -16.5919 C   0  0  0  0  0  0  0  0  0  0  0  0
   28.8339   -9.4398  -16.2990 C   0  0  0  0  0  0  0  0  0  0  0  0
   28.9186  -10.3536  -15.2970 C   0  0  0  0  0  0  0  0  0  0  0  0
   27.7858  -10.6939  -14.5668 C   0  0  0  0  0  0  0  0  0  0  0  0
   26.5760  -10.0882  -14.8771 C   0  0  0  0  0  0  0  0  0  0  0  0
   22.9611   -8.9582  -17.1947 C   0  0  0  0  0  0  0  0  0  0  0  0
   22.6511   -7.9792  -17.9371 O   0  0  0  0  0  0  0  0  0  0  0  0
   15.6758  -10.0774  -13.7998 N   0  0  0  0  0  0  0  0  0  0  0  0
   15.0886  -10.1901  -15.0849 C   0  0  0  0  0  0  0  0  0  0  0  0
   13.8226   -9.8668  -15.1941 N   0  0  0  0  0  0  0  0  0  0  0  0
   15.8179  -10.6306  -16.2165 N   0  0  0  0  0  0  0  0  0  0  0  0
   17.2071  -10.8855  -16.0714 C   0  0  0  0  0  0  0  0  0  0  0  0
   18.0828   -9.7168  -16.4705 C   0  0  0  0  0  0  0  0  0  0  0  0
   19.4975  -10.1521  -16.2731 C   0  0  0  0  0  0  0  0  0  0  0  0
   20.5182   -9.1069  -16.6309 C   0  0  2  0  0  0  0  0  0  0  0  0
   21.8739   -9.5351  -16.4770 N   0  0  0  0  0  0  0  0  0  0  0  0
   20.2513   -7.8130  -15.9301 C   0  0  0  0  0  0  0  0  0  0  0  0
   20.5660   -7.6395  -14.7244 O   0  0  0  0  0  0  0  0  0  0  0  0
   13.3164   -9.8997  -16.0834 N   0  0  0  0  0  0  0  0  0  0  0  0
   19.6312   -6.7399  -16.6131 C   0  0  2  0  0  0  0  0  0  0  0  0
   19.4169   -5.4535  -15.9022 C   0  0  0  0  0  0  0  0  0  0  0  0
   19.0871   -4.3964  -16.8926 C   0  0  0  0  0  0  0  0  0  0  0  0
   18.9897   -3.0498  -16.2369 C   0  0  0  0  0  0  0  0  0  0  0  0
   18.4327   -2.0352  -17.1939 O   0  0  0  0  0  0  0  0  0  0  0  0
   18.1275   -2.3983  -18.3455 C   0  0  0  0  0  0  0  0  0  0  0  0
   18.3567   -5.6575  -14.9287 O   0  0  0  0  0  0  0  0  0  0  0  0
   17.3683   -6.4133  -15.1446 O   0  0  0  0  0  0  0  0  0  0  0  0
   18.2712   -0.7392  -16.7878 O   0  0  0  0  0  0  0  0  0  0  0  0
  2  1  1  6
  2  3  1  0
  3  4  1  0
  4  5  2  0
  5  6  1  0
  7  6  2  0
  8  7  1  0
  9  8  2  0
  9  4  1  0
 10 11  2  0
 10  2  1  0
 13 15  1  0
 13 12  1  0
 14 13  2  0
 16 17  1  0
 16 15  1  0
 17 18  1  0
 19 18  1  1
 19 20  1  0
 19 21  1  0
 20 10  1  0
 21 22  2  0
 21 23  1  0
 23 24  1  0
 24 29  1  0
 24 25  1  6
 26 25  1  0
 27 26  1  0
 28 27  2  0
 29 30  2  0
 29 32  1  0
 31 27  1  0
M  END
$$$$
