LDD.pdb
     RDKit          3D

 25 24  0  0  1  0  0  0  0  0999 V2000
   26.5698  -13.9893  -16.2793 C   0  0  0  0  0  0  0  0  0  0  0  0
   26.0371  -13.7360  -17.6498 C   0  0  2  0  0  0  0  0  0  0  0  0
   27.1379  -13.8834  -18.6857 C   0  0  0  0  0  0  0  0  0  0  0  0
   25.2945  -12.4472  -17.8082 C   0  0  0  0  0  0  0  0  0  0  0  0
   24.1817  -12.2471  -16.8237 C   0  0  2  0  0  0  0  0  0  0  0  0
   23.3206  -13.3664  -16.6473 N   0  0  0  0  0  0  0  0  0  0  0  0
   23.4643  -10.9687  -17.0744 C   0  0  0  0  0  0  0  0  0  0  0  0
   24.1288   -9.9027  -17.3248 O   0  0  0  0  0  0  0  0  0  0  0  0
   22.0656  -10.8353  -17.0618 N   0  0  0  0  0  0  0  0  0  0  0  0
   21.3908   -9.5741  -17.3450 C   0  0  1  0  0  0  0  0  0  0  0  0
   19.9226   -9.8556  -17.6553 C   0  0  0  0  0  0  0  0  0  0  0  0
   19.7519  -10.5444  -18.9380 C   0  0  0  0  0  0  0  0  0  0  0  0
   20.3060  -10.1722  -19.9837 O   0  0  0  0  0  0  0  0  0  0  0  0
   21.5021   -8.5937  -16.2612 C   0  0  0  0  0  0  0  0  0  0  0  0
   21.3123   -8.9870  -15.0921 O   0  0  0  0  0  0  0  0  0  0  0  0
   18.9341  -11.6727  -19.0058 O   0  0  0  0  0  0  0  0  0  0  0  0
   21.8196   -7.2112  -16.4545 N   0  0  0  0  0  0  0  0  0  0  0  0
   21.8591   -6.2326  -15.4126 C   0  0  1  0  0  0  0  0  0  0  0  0
   22.4922   -4.9371  -15.8307 C   0  0  0  0  0  0  0  0  0  0  0  0
   22.5136   -3.9190  -14.7811 C   0  0  0  0  0  0  0  0  0  0  0  0
   22.5451   -4.1943  -13.5492 O   0  0  0  0  0  0  0  0  0  0  0  0
   20.5053   -6.0131  -14.8794 C   0  0  0  0  0  0  0  0  0  0  0  0
   20.2023   -5.9905  -13.5220 O   0  0  0  0  0  0  0  0  0  0  0  0
   22.4940   -2.5758  -15.1331 O   0  0  0  0  0  0  0  0  0  0  0  0
   19.5499   -5.8323  -15.6709 O   0  0  0  0  0  0  0  0  0  0  0  0
  2  1  1  1
  3  2  1  0
  4  2  1  0
  5  4  1  0
  5  6  1  6
  7  9  1  0
  7  5  1  0
  8  7  2  0
 10  9  1  0
 10 11  1  1
 12 16  1  0
 12 11  1  0
 13 12  2  0
 14 10  1  0
 14 17  1  0
 15 14  2  0
 18 17  1  0
 18 22  1  0
 18 19  1  6
 19 20  1  0
 20 24  1  0
 20 21  2  0
 22 23  1  0
 25 22  2  0
M  END
$$$$
