LDD.pdb
     RDKit          3D

 25 24  0  0  1  0  0  0  0  0999 V2000
   27.8683  -10.8545  -15.6363 C   0  0  0  0  0  0  0  0  0  0  0  0
   27.0060  -11.4555  -16.6951 C   0  0  2  0  0  0  0  0  0  0  0  0
   27.8278  -11.7849  -17.9291 C   0  0  0  0  0  0  0  0  0  0  0  0
   25.7842  -10.6630  -17.0369 C   0  0  0  0  0  0  0  0  0  0  0  0
   24.9489  -10.2700  -15.8557 C   0  0  2  0  0  0  0  0  0  0  0  0
   24.6052  -11.3346  -14.9759 N   0  0  0  0  0  0  0  0  0  0  0  0
   23.7913   -9.4328  -16.2694 C   0  0  0  0  0  0  0  0  0  0  0  0
   23.9788   -8.4094  -17.0165 O   0  0  0  0  0  0  0  0  0  0  0  0
   22.4614   -9.6883  -15.8951 N   0  0  0  0  0  0  0  0  0  0  0  0
   21.3347   -8.9208  -16.4129 C   0  0  1  0  0  0  0  0  0  0  0  0
   20.1573   -9.8643  -16.6470 C   0  0  0  0  0  0  0  0  0  0  0  0
   20.4368  -10.8447  -17.7003 C   0  0  0  0  0  0  0  0  0  0  0  0
   20.2484  -12.0625  -17.5571 O   0  0  0  0  0  0  0  0  0  0  0  0
   20.9320   -7.8120  -15.5431 C   0  0  0  0  0  0  0  0  0  0  0  0
   20.6175   -8.0748  -14.3644 O   0  0  0  0  0  0  0  0  0  0  0  0
   20.9370  -10.4078  -18.9273 O   0  0  0  0  0  0  0  0  0  0  0  0
   20.8797   -6.4421  -15.9558 N   0  0  0  0  0  0  0  0  0  0  0  0
   20.5451   -5.3471  -15.0991 C   0  0  1  0  0  0  0  0  0  0  0  0
   21.3157   -4.0940  -15.3994 C   0  0  0  0  0  0  0  0  0  0  0  0
   22.7248   -4.1547  -15.0126 C   0  0  0  0  0  0  0  0  0  0  0  0
   23.1182   -4.5889  -13.8942 O   0  0  0  0  0  0  0  0  0  0  0  0
   19.0950   -5.1010  -15.1433 C   0  0  0  0  0  0  0  0  0  0  0  0
   18.3660   -4.5786  -14.0800 O   0  0  0  0  0  0  0  0  0  0  0  0
   23.6958   -3.7136  -15.9020 O   0  0  0  0  0  0  0  0  0  0  0  0
   18.4532   -5.3672  -16.1869 O   0  0  0  0  0  0  0  0  0  0  0  0
  2  1  1  1
  3  2  1  0
  4  2  1  0
  5  4  1  0
  5  6  1  6
  7  9  1  0
  7  5  1  0
  8  7  2  0
 10  9  1  0
 10 11  1  1
 12 16  1  0
 12 11  1  0
 13 12  2  0
 14 10  1  0
 14 17  1  0
 15 14  2  0
 18 17  1  0
 18 22  1  0
 18 19  1  6
 19 20  1  0
 20 24  1  0
 20 21  2  0
 22 23  1  0
 25 22  2  0
M  END
$$$$
