LDD.pdb
     RDKit          3D

 25 24  0  0  1  0  0  0  0  0999 V2000
   26.7287  -12.0584  -16.9795 C   0  0  0  0  0  0  0  0  0  0  0  0
   25.5994  -11.9044  -16.0167 C   0  0  2  0  0  0  0  0  0  0  0  0
   24.8851  -13.2296  -15.8160 C   0  0  0  0  0  0  0  0  0  0  0  0
   24.6425  -10.8011  -16.3401 C   0  0  0  0  0  0  0  0  0  0  0  0
   23.6996  -10.4516  -15.2281 C   0  0  2  0  0  0  0  0  0  0  0  0
   23.1271  -11.5629  -14.5477 N   0  0  0  0  0  0  0  0  0  0  0  0
   22.7054   -9.4352  -15.6646 C   0  0  0  0  0  0  0  0  0  0  0  0
   23.0674   -8.4787  -16.4357 O   0  0  0  0  0  0  0  0  0  0  0  0
   21.3520   -9.4452  -15.2873 N   0  0  0  0  0  0  0  0  0  0  0  0
   20.3854   -8.4765  -15.7911 C   0  0  1  0  0  0  0  0  0  0  0  0
   19.0133   -9.1414  -15.8735 C   0  0  0  0  0  0  0  0  0  0  0  0
   19.0139  -10.2981  -16.7740 C   0  0  0  0  0  0  0  0  0  0  0  0
   19.4748  -10.2580  -17.9251 O   0  0  0  0  0  0  0  0  0  0  0  0
   20.3095   -7.2527  -14.9883 C   0  0  0  0  0  0  0  0  0  0  0  0
   20.1930   -7.3684  -13.7512 O   0  0  0  0  0  0  0  0  0  0  0  0
   18.4772  -11.5085  -16.3342 O   0  0  0  0  0  0  0  0  0  0  0  0
   20.3649   -5.9287  -15.5302 N   0  0  0  0  0  0  0  0  0  0  0  0
   20.2492   -4.7295  -14.7599 C   0  0  1  0  0  0  0  0  0  0  0  0
   21.0581   -3.5875  -15.3037 C   0  0  0  0  0  0  0  0  0  0  0  0
   22.5030   -3.7572  -15.1540 C   0  0  0  0  0  0  0  0  0  0  0  0
   23.0318   -4.3728  -14.1867 O   0  0  0  0  0  0  0  0  0  0  0  0
   18.8323   -4.3569  -14.6221 C   0  0  0  0  0  0  0  0  0  0  0  0
   17.7960   -4.9906  -15.2999 O   0  0  0  0  0  0  0  0  0  0  0  0
   23.3556   -3.2186  -16.1087 O   0  0  0  0  0  0  0  0  0  0  0  0
   18.5106   -3.4182  -13.8558 O   0  0  0  0  0  0  0  0  0  0  0  0
  2  1  1  6
  3  2  1  0
  4  2  1  0
  5  4  1  0
  5  6  1  6
  7  9  1  0
  7  5  1  0
  8  7  2  0
 10  9  1  0
 10 11  1  1
 12 16  1  0
 12 11  1  0
 13 12  2  0
 14 10  1  0
 14 17  1  0
 15 14  2  0
 18 17  1  0
 18 22  1  0
 18 19  1  6
 19 20  1  0
 20 24  1  0
 20 21  2  0
 22 23  1  0
 25 22  2  0
M  END
$$$$
