LDD.pdb
     RDKit          3D

 25 24  0  0  1  0  0  0  0  0999 V2000
   15.5853   -7.3582   -7.6814 C   0  0  0  0  0  0  0  0  0  0  0  0
   14.4091   -6.8587   -8.4516 C   0  0  2  0  0  0  0  0  0  0  0  0
   13.1477   -7.5956   -8.0367 C   0  0  0  0  0  0  0  0  0  0  0  0
   14.5858   -6.8530   -9.9370 C   0  0  0  0  0  0  0  0  0  0  0  0
   15.8165   -6.1412  -10.4128 C   0  0  2  0  0  0  0  0  0  0  0  0
   15.7605   -4.7209  -10.3414 N   0  0  0  0  0  0  0  0  0  0  0  0
   16.2625   -6.6610  -11.7331 C   0  0  0  0  0  0  0  0  0  0  0  0
   15.5808   -6.3989  -12.7852 O   0  0  0  0  0  0  0  0  0  0  0  0
   17.4159   -7.4405  -11.9233 N   0  0  0  0  0  0  0  0  0  0  0  0
   17.7325   -8.0841  -13.1929 C   0  0  1  0  0  0  0  0  0  0  0  0
   19.1500   -7.6955  -13.6064 C   0  0  0  0  0  0  0  0  0  0  0  0
   19.2139   -7.2427  -14.9992 C   0  0  0  0  0  0  0  0  0  0  0  0
   19.6468   -7.9514  -15.9208 O   0  0  0  0  0  0  0  0  0  0  0  0
   17.5948   -9.5430  -13.1607 C   0  0  0  0  0  0  0  0  0  0  0  0
   18.1043  -10.1598  -12.2029 O   0  0  0  0  0  0  0  0  0  0  0  0
   18.7712   -5.9599  -15.3232 O   0  0  0  0  0  0  0  0  0  0  0  0
   16.9082  -10.3097  -14.1558 N   0  0  0  0  0  0  0  0  0  0  0  0
   16.7113  -11.7250  -14.0991 C   0  0  1  0  0  0  0  0  0  0  0  0
   15.2823  -12.1224  -13.8667 C   0  0  0  0  0  0  0  0  0  0  0  0
   15.0740  -13.5669  -13.7725 C   0  0  0  0  0  0  0  0  0  0  0  0
   16.0137  -14.4080  -13.8355 O   0  0  0  0  0  0  0  0  0  0  0  0
   17.2450  -12.3546  -15.3174 C   0  0  0  0  0  0  0  0  0  0  0  0
   17.8503  -13.6068  -15.3398 O   0  0  0  0  0  0  0  0  0  0  0  0
   13.7865  -14.0613  -13.6105 O   0  0  0  0  0  0  0  0  0  0  0  0
   17.1628  -11.7511  -16.4132 O   0  0  0  0  0  0  0  0  0  0  0  0
  2  1  1  1
  3  2  1  0
  4  2  1  0
  5  4  1  0
  5  6  1  6
  7  9  1  0
  7  5  1  0
  8  7  2  0
 10  9  1  0
 10 11  1  1
 12 16  1  0
 12 11  1  0
 13 12  2  0
 14 10  1  0
 14 17  1  0
 15 14  2  0
 18 17  1  0
 18 22  1  0
 18 19  1  6
 19 20  1  0
 20 24  1  0
 20 21  2  0
 22 23  1  0
 25 22  2  0
M  END
$$$$
