LDD.pdb
     RDKit          3D

 25 24  0  0  1  0  0  0  0  0999 V2000
   20.7922  -28.1216   -9.5709 C   0  0  0  0  0  0  0  0  0  0  0  0
   20.7380  -29.3104  -10.4708 C   0  0  2  0  0  0  0  0  0  0  0  0
   19.3164  -29.5558  -10.9455 C   0  0  0  0  0  0  0  0  0  0  0  0
   21.3590  -30.5514   -9.9123 C   0  0  0  0  0  0  0  0  0  0  0  0
   22.7708  -30.3796   -9.4381 C   0  0  2  0  0  0  0  0  0  0  0  0
   23.6330  -29.6934  -10.3389 N   0  0  0  0  0  0  0  0  0  0  0  0
   23.3278  -31.6615   -8.9297 C   0  0  0  0  0  0  0  0  0  0  0  0
   22.6130  -32.4150   -8.1801 O   0  0  0  0  0  0  0  0  0  0  0  0
   24.6205  -32.1286   -9.2210 N   0  0  0  0  0  0  0  0  0  0  0  0
   25.1305  -33.4008   -8.7232 C   0  0  1  0  0  0  0  0  0  0  0  0
   26.1555  -33.9467   -9.7144 C   0  0  0  0  0  0  0  0  0  0  0  0
   25.5233  -34.4773  -10.9259 C   0  0  0  0  0  0  0  0  0  0  0  0
   24.4538  -35.1059  -10.9099 O   0  0  0  0  0  0  0  0  0  0  0  0
   25.7168  -33.3129   -7.3828 C   0  0  0  0  0  0  0  0  0  0  0  0
   25.8483  -32.1816   -6.8726 O   0  0  0  0  0  0  0  0  0  0  0  0
   26.1363  -34.2755  -12.1629 O   0  0  0  0  0  0  0  0  0  0  0  0
   26.1461  -34.4426   -6.6153 N   0  0  0  0  0  0  0  0  0  0  0  0
   26.6124  -34.3783   -5.2650 C   0  0  1  0  0  0  0  0  0  0  0  0
   25.6901  -33.6289   -4.3474 C   0  0  0  0  0  0  0  0  0  0  0  0
   26.1879  -33.5001   -2.9783 C   0  0  0  0  0  0  0  0  0  0  0  0
   27.3027  -33.9572   -2.6006 O   0  0  0  0  0  0  0  0  0  0  0  0
   26.8747  -35.7354   -4.7601 C   0  0  0  0  0  0  0  0  0  0  0  0
   27.4965  -36.0022   -3.5447 O   0  0  0  0  0  0  0  0  0  0  0  0
   25.4107  -32.8509   -2.0281 O   0  0  0  0  0  0  0  0  0  0  0  0
   26.5279  -36.7279   -5.4431 O   0  0  0  0  0  0  0  0  0  0  0  0
  2  1  1  1
  3  2  1  0
  4  2  1  0
  5  4  1  0
  5  6  1  6
  7  9  1  0
  7  5  1  0
  8  7  2  0
 10  9  1  0
 10 11  1  6
 12 16  1  0
 12 11  1  0
 13 12  2  0
 14 10  1  0
 14 17  1  0
 15 14  2  0
 18 17  1  0
 18 22  1  0
 18 19  1  1
 19 20  1  0
 20 24  1  0
 20 21  2  0
 22 23  1  0
 25 22  2  0
M  END
$$$$
