VIG.pdb
     RDKit          3D

 20 19  0  0  1  0  0  0  0  0999 V2000
    6.5969  -18.1566   23.4132 C   0  0  0  0  0  0  0  0  0  0  0  0
    7.1748  -17.7881   22.0632 C   0  0  1  0  0  0  0  0  0  0  0  0
    6.3795  -18.5463   21.0215 C   0  0  0  0  0  0  0  0  0  0  0  0
    7.0106  -16.3202   21.7615 C   0  0  2  0  0  0  0  0  0  0  0  0
    7.3563  -16.0740   20.3973 N   0  0  0  0  0  0  0  0  0  0  0  0
    7.8724  -15.4929   22.7008 C   0  0  0  0  0  0  0  0  0  0  0  0
    9.0499  -15.3111   22.3448 O   0  0  0  0  0  0  0  0  0  0  0  0
    6.6941  -11.3234   27.2134 C   0  0  0  0  0  0  0  0  0  0  0  0
    7.7263  -12.2797   26.5825 C   0  0  0  0  0  0  0  0  0  0  0  0
    7.0642  -13.2483   25.6694 C   0  0  2  0  0  0  0  0  0  0  0  0
    5.8544  -13.9032   26.2864 C   0  0  0  0  0  0  0  0  0  0  0  0
    7.9579  -14.1341   24.8865 C   0  0  2  0  0  0  0  0  0  0  0  0
    7.3553  -14.9745   23.8911 N   0  0  0  0  0  0  0  0  0  0  0  0
    9.0530  -14.7527   25.6258 C   0  0  0  0  0  0  0  0  0  0  0  0
    9.8368  -14.0703   26.3288 O   0  0  0  0  0  0  0  0  0  0  0  0
    9.2780  -16.1532   25.5810 N   0  0  0  0  0  0  0  0  0  0  0  0
   10.4209  -16.7746   26.2362 C   0  0  0  0  0  0  0  0  0  0  0  0
    9.9369  -17.5105   27.4262 C   0  0  0  0  0  0  0  0  0  0  0  0
   10.7285  -18.0544   28.2403 O   0  0  0  0  0  0  0  0  0  0  0  0
    8.5442  -17.5801   27.6155 O   0  0  0  0  0  0  0  0  0  0  0  0
  2  4  1  0
  2  1  1  1
  3  2  1  0
  4  5  1  6
  6  4  1  0
  6  7  2  0
  8  9  1  0
  9 10  1  0
 10 11  1  1
 10 12  1  0
 12 13  1  1
 12 14  1  0
 13  6  1  0
 14 15  2  0
 14 16  1  0
 16 17  1  0
 17 18  1  0
 18 20  1  0
 19 18  2  0
M  END
$$$$
