VIG.pdb
     RDKit          3D

 20 19  0  0  1  0  0  0  0  0999 V2000
    6.2264  -17.7849   20.8860 C   0  0  0  0  0  0  0  0  0  0  0  0
    7.0918  -17.1907   21.9770 C   0  0  1  0  0  0  0  0  0  0  0  0
    8.4483  -17.8555   21.8748 C   0  0  0  0  0  0  0  0  0  0  0  0
    7.3093  -15.7118   21.7812 C   0  0  2  0  0  0  0  0  0  0  0  0
    7.8993  -15.4839   20.5001 N   0  0  0  0  0  0  0  0  0  0  0  0
    8.1867  -15.1598   22.8923 C   0  0  0  0  0  0  0  0  0  0  0  0
    9.3825  -14.9763   22.6045 O   0  0  0  0  0  0  0  0  0  0  0  0
    5.6397  -11.7476   26.2822 C   0  0  0  0  0  0  0  0  0  0  0  0
    6.8038  -12.3085   25.4406 C   0  0  0  0  0  0  0  0  0  0  0  0
    7.5016  -13.4046   26.1633 C   0  0  2  0  0  0  0  0  0  0  0  0
    8.1519  -12.9425   27.4428 C   0  0  0  0  0  0  0  0  0  0  0  0
    8.2903  -14.3451   25.3329 C   0  0  2  0  0  0  0  0  0  0  0  0
    7.6637  -14.8804   24.1577 N   0  0  0  0  0  0  0  0  0  0  0  0
    9.1313  -15.2899   26.0602 C   0  0  0  0  0  0  0  0  0  0  0  0
    9.8286  -14.9280   27.0384 O   0  0  0  0  0  0  0  0  0  0  0  0
    9.1960  -16.6588   25.6916 N   0  0  0  0  0  0  0  0  0  0  0  0
    9.8879  -17.6477   26.5069 C   0  0  0  0  0  0  0  0  0  0  0  0
   11.3352  -17.5770   26.2029 C   0  0  0  0  0  0  0  0  0  0  0  0
   11.7948  -16.7954   25.3293 O   0  0  0  0  0  0  0  0  0  0  0  0
   12.1871  -18.4249   26.9347 O   0  0  0  0  0  0  0  0  0  0  0  0
  2  4  1  0
  2  1  1  6
  3  2  1  0
  4  5  1  6
  6  4  1  0
  6  7  2  0
  8  9  1  0
  9 10  1  0
 10 11  1  1
 10 12  1  0
 12 13  1  1
 12 14  1  0
 13  6  1  0
 14 15  2  0
 14 16  1  0
 16 17  1  0
 17 18  1  0
 18 20  1  0
 19 18  2  0
M  END
$$$$
