VIG.pdb
     RDKit          3D

 20 19  0  0  1  0  0  0  0  0999 V2000
    6.2215  -18.3776   24.7845 C   0  0  0  0  0  0  0  0  0  0  0  0
    6.9412  -18.4649   23.4553 C   0  0  1  0  0  0  0  0  0  0  0  0
    6.1049  -19.3531   22.5586 C   0  0  0  0  0  0  0  0  0  0  0  0
    7.0393  -17.1214   22.7782 C   0  0  2  0  0  0  0  0  0  0  0  0
    7.5198  -17.2958   21.4441 N   0  0  0  0  0  0  0  0  0  0  0  0
    7.9518  -16.2006   23.5711 C   0  0  0  0  0  0  0  0  0  0  0  0
    9.1701  -16.3153   23.3499 O   0  0  0  0  0  0  0  0  0  0  0  0
    6.1584  -11.7783   27.3832 C   0  0  0  0  0  0  0  0  0  0  0  0
    6.3161  -13.1345   26.6663 C   0  0  0  0  0  0  0  0  0  0  0  0
    7.4012  -13.0757   25.6516 C   0  0  2  0  0  0  0  0  0  0  0  0
    7.0455  -12.2213   24.4613 C   0  0  0  0  0  0  0  0  0  0  0  0
    8.0976  -14.3499   25.3556 C   0  0  2  0  0  0  0  0  0  0  0  0
    7.4348  -15.2846   24.4911 N   0  0  0  0  0  0  0  0  0  0  0  0
    8.8233  -14.9554   26.4671 C   0  0  0  0  0  0  0  0  0  0  0  0
    9.6201  -14.2885   27.1703 O   0  0  0  0  0  0  0  0  0  0  0  0
    8.6583  -16.3251   26.8000 N   0  0  0  0  0  0  0  0  0  0  0  0
    9.1624  -16.8844   28.0467 C   0  0  0  0  0  0  0  0  0  0  0  0
   10.4650  -17.5344   27.7768 C   0  0  0  0  0  0  0  0  0  0  0  0
   11.0065  -17.4944   26.6409 O   0  0  0  0  0  0  0  0  0  0  0  0
   11.0819  -18.2057   28.8487 O   0  0  0  0  0  0  0  0  0  0  0  0
  2  4  1  0
  2  1  1  1
  3  2  1  0
  4  5  1  6
  6  4  1  0
  6  7  2  0
  8  9  1  0
  9 10  1  0
 10 11  1  6
 10 12  1  0
 12 13  1  1
 12 14  1  0
 13  6  1  0
 14 15  2  0
 14 16  1  0
 16 17  1  0
 17 18  1  0
 18 20  1  0
 19 18  2  0
M  END
$$$$
