VIG.pdb
     RDKit          3D

 20 19  0  0  1  0  0  0  0  0999 V2000
    6.3158  -16.9409   20.5949 C   0  0  0  0  0  0  0  0  0  0  0  0
    7.0951  -16.4923   21.8130 C   0  0  1  0  0  0  0  0  0  0  0  0
    8.2670  -17.4396   21.9602 C   0  0  0  0  0  0  0  0  0  0  0  0
    7.6660  -15.1079   21.6384 C   0  0  2  0  0  0  0  0  0  0  0  0
    8.4993  -15.0805   20.4782 N   0  0  0  0  0  0  0  0  0  0  0  0
    8.4441  -14.7019   22.8790 C   0  0  0  0  0  0  0  0  0  0  0  0
    9.6713  -14.5633   22.7336 O   0  0  0  0  0  0  0  0  0  0  0  0
    5.6354  -11.3271   26.2245 C   0  0  0  0  0  0  0  0  0  0  0  0
    6.8356  -11.9086   25.4503 C   0  0  0  0  0  0  0  0  0  0  0  0
    7.3748  -13.1138   26.1339 C   0  0  2  0  0  0  0  0  0  0  0  0
    7.7820  -12.8460   27.5607 C   0  0  0  0  0  0  0  0  0  0  0  0
    8.2928  -13.9662   25.3421 C   0  0  2  0  0  0  0  0  0  0  0  0
    7.8018  -14.5005   24.1036 N   0  0  0  0  0  0  0  0  0  0  0  0
    9.1395  -14.8761   26.1062 C   0  0  0  0  0  0  0  0  0  0  0  0
    9.7610  -14.4919   27.1261 O   0  0  0  0  0  0  0  0  0  0  0  0
    9.2959  -16.2349   25.7277 N   0  0  0  0  0  0  0  0  0  0  0  0
   10.0799  -17.1732   26.5192 C   0  0  0  0  0  0  0  0  0  0  0  0
    9.9753  -18.5131   25.8983 C   0  0  0  0  0  0  0  0  0  0  0  0
    9.4097  -18.6900   24.7874 O   0  0  0  0  0  0  0  0  0  0  0  0
   10.5375  -19.5932   26.6036 O   0  0  0  0  0  0  0  0  0  0  0  0
  2  4  1  0
  2  1  1  6
  3  2  1  0
  4  5  1  6
  6  4  1  0
  6  7  2  0
  8  9  1  0
  9 10  1  0
 10 11  1  1
 10 12  1  0
 12 13  1  6
 12 14  1  0
 13  6  1  0
 14 15  2  0
 14 16  1  0
 16 17  1  0
 17 18  1  0
 18 20  1  0
 19 18  2  0
M  END
$$$$
