VIG.pdb
     RDKit          3D

 20 19  0  0  1  0  0  0  0  0999 V2000
    6.6062  -14.0891   19.4731 C   0  0  0  0  0  0  0  0  0  0  0  0
    6.8650  -14.4516   20.9201 C   0  0  1  0  0  0  0  0  0  0  0  0
    6.9240  -15.9628   20.9923 C   0  0  0  0  0  0  0  0  0  0  0  0
    8.1969  -13.9345   21.4011 C   0  0  2  0  0  0  0  0  0  0  0  0
    9.2414  -14.5048   20.6107 N   0  0  0  0  0  0  0  0  0  0  0  0
    8.3853  -14.2620   22.8731 C   0  0  0  0  0  0  0  0  0  0  0  0
    9.3988  -14.9227   23.1607 O   0  0  0  0  0  0  0  0  0  0  0  0
    5.5961  -10.6880   26.1551 C   0  0  0  0  0  0  0  0  0  0  0  0
    6.7650  -11.5118   25.5780 C   0  0  0  0  0  0  0  0  0  0  0  0
    6.6878  -12.9279   26.0241 C   0  0  2  0  0  0  0  0  0  0  0  0
    6.7025  -13.0717   27.5249 C   0  0  0  0  0  0  0  0  0  0  0  0
    7.5065  -13.9039   25.2669 C   0  0  2  0  0  0  0  0  0  0  0  0
    7.4635  -13.8375   23.8337 N   0  0  0  0  0  0  0  0  0  0  0  0
    7.5591  -15.2554   25.8139 C   0  0  0  0  0  0  0  0  0  0  0  0
    7.8143  -15.4628   27.0247 O   0  0  0  0  0  0  0  0  0  0  0  0
    7.3236  -16.3932   24.9990 N   0  0  0  0  0  0  0  0  0  0  0  0
    7.2288  -17.7363   25.5544 C   0  0  0  0  0  0  0  0  0  0  0  0
    8.5881  -18.1850   25.9325 C   0  0  0  0  0  0  0  0  0  0  0  0
    9.6202  -17.5623   25.5685 O   0  0  0  0  0  0  0  0  0  0  0  0
    8.6847  -19.3457   26.7222 O   0  0  0  0  0  0  0  0  0  0  0  0
  2  4  1  0
  2  1  1  6
  3  2  1  0
  4  5  1  6
  6  4  1  0
  6  7  2  0
  8  9  1  0
  9 10  1  0
 10 11  1  1
 10 12  1  0
 12 13  1  6
 12 14  1  0
 13  6  1  0
 14 15  2  0
 14 16  1  0
 16 17  1  0
 17 18  1  0
 18 20  1  0
 19 18  2  0
M  END
$$$$
