VYF.pdb
     RDKit          3D

 31 32  0  0  1  0  0  0  0  0999 V2000
    7.6663  -19.9186   22.7072 C   0  0  0  0  0  0  0  0  0  0  0  0
    7.9638  -19.7696   21.2416 C   0  0  1  0  0  0  0  0  0  0  0  0
    7.2875  -20.7973   20.3945 C   0  0  0  0  0  0  0  0  0  0  0  0
    7.6347  -18.3999   20.7144 C   0  0  2  0  0  0  0  0  0  0  0  0
    7.6433  -18.4394   19.2865 N   0  0  0  0  0  0  0  0  0  0  0  0
    8.4971  -17.3372   21.2221 C   0  0  0  0  0  0  0  0  0  0  0  0
    9.7275  -17.2304   20.9831 O   0  0  0  0  0  0  0  0  0  0  0  0
    7.8740  -13.3196   16.3663 O   0  0  0  0  0  0  0  0  0  0  0  0
    7.9079  -13.4664   17.7497 C   0  0  0  0  0  0  0  0  0  0  0  0
    6.7802  -13.8313   18.4419 C   0  0  0  0  0  0  0  0  0  0  0  0
    6.8175  -13.9764   19.8168 C   0  0  0  0  0  0  0  0  0  0  0  0
    7.9677  -13.7668   20.5560 C   0  0  0  0  0  0  0  0  0  0  0  0
    8.0457  -13.8933   22.0146 C   0  0  0  0  0  0  0  0  0  0  0  0
    8.6427  -15.1686   22.5259 C   0  0  2  0  0  0  0  0  0  0  0  0
    7.9220  -16.3368   22.0517 N   0  0  0  0  0  0  0  0  0  0  0  0
    8.5902  -15.1659   24.0012 C   0  0  0  0  0  0  0  0  0  0  0  0
    8.4649  -14.1268   24.7100 O   0  0  0  0  0  0  0  0  0  0  0  0
    9.0923  -13.4009   19.8509 C   0  0  0  0  0  0  0  0  0  0  0  0
    9.0680  -13.2511   18.4630 C   0  0  0  0  0  0  0  0  0  0  0  0
    8.6818  -16.3824   24.7273 N   0  0  0  0  0  0  0  0  0  0  0  0
    8.5924  -16.4430   26.1957 C   0  0  1  0  0  0  0  0  0  0  0  0
    7.2108  -15.9533   26.5484 C   0  0  0  0  0  0  0  0  0  0  0  0
    7.1680  -14.4856   26.6914 C   0  0  0  0  0  0  0  0  0  0  0  0
    6.0469  -13.7477   26.3830 C   0  0  0  0  0  0  0  0  0  0  0  0
    5.9983  -12.3677   26.5202 C   0  0  0  0  0  0  0  0  0  0  0  0
    7.0951  -11.6719   26.9800 C   0  0  0  0  0  0  0  0  0  0  0  0
    8.2262  -12.3986   27.2929 C   0  0  0  0  0  0  0  0  0  0  0  0
    8.2745  -13.7668   27.1571 C   0  0  0  0  0  0  0  0  0  0  0  0
    8.7985  -17.8117   26.6499 C   0  0  0  0  0  0  0  0  0  0  0  0
    9.0198  -18.0696   27.9964 O   0  0  0  0  0  0  0  0  0  0  0  0
    8.7743  -18.7527   25.8020 O   0  0  0  0  0  0  0  0  0  0  0  0
  2  1  1  1
  3  2  1  0
  4  5  1  6
  4  2  1  0
  6  4  1  0
  7  6  2  0
  8  9  1  0
  9 10  2  0
 10 11  1  0
 12 11  2  0
 12 13  1  0
 14 13  1  6
 14 15  1  0
 15  6  1  0
 16 14  1  0
 16 20  1  0
 17 16  2  0
 18 12  1  0
 19 18  2  0
 19  9  1  0
 21 22  1  6
 21 20  1  0
 21 29  1  0
 23 28  1  0
 23 22  1  0
 24 23  2  0
 25 26  2  0
 25 24  1  0
 26 27  1  0
 27 28  2  0
 29 30  1  0
 31 29  2  0
M  END
$$$$
