VYF.pdb
     RDKit          3D

 31 32  0  0  1  0  0  0  0  0999 V2000
    8.4328  -12.4508   18.1866 C   0  0  0  0  0  0  0  0  0  0  0  0
    8.5557  -13.3973   19.3476 C   0  0  1  0  0  0  0  0  0  0  0  0
    7.4734  -13.2294   20.3631 C   0  0  0  0  0  0  0  0  0  0  0  0
    8.6162  -14.8389   18.9229 C   0  0  2  0  0  0  0  0  0  0  0  0
    7.5281  -15.1061   18.0367 N   0  0  0  0  0  0  0  0  0  0  0  0
    8.6469  -15.7907   20.0292 C   0  0  0  0  0  0  0  0  0  0  0  0
    7.6363  -16.3471   20.5306 O   0  0  0  0  0  0  0  0  0  0  0  0
   11.9731  -21.4535   26.0113 O   0  0  0  0  0  0  0  0  0  0  0  0
   11.7861  -20.5953   24.9320 C   0  0  0  0  0  0  0  0  0  0  0  0
   12.5267  -19.4453   24.8166 C   0  0  0  0  0  0  0  0  0  0  0  0
   12.3384  -18.5947   23.7424 C   0  0  0  0  0  0  0  0  0  0  0  0
   11.4137  -18.8488   22.7456 C   0  0  0  0  0  0  0  0  0  0  0  0
   11.1713  -17.9658   21.6005 C   0  0  0  0  0  0  0  0  0  0  0  0
   10.0621  -16.9730   21.7679 C   0  0  2  0  0  0  0  0  0  0  0  0
    9.9052  -16.1279   20.5974 N   0  0  0  0  0  0  0  0  0  0  0  0
   10.3653  -16.1043   22.9224 C   0  0  0  0  0  0  0  0  0  0  0  0
   11.0348  -15.0341   22.8553 O   0  0  0  0  0  0  0  0  0  0  0  0
   10.6766  -20.0048   22.8722 C   0  0  0  0  0  0  0  0  0  0  0  0
   10.8571  -20.8719   23.9515 C   0  0  0  0  0  0  0  0  0  0  0  0
    9.9000  -16.4428   24.2202 N   0  0  0  0  0  0  0  0  0  0  0  0
    9.4422  -15.4349   25.1910 C   0  0  1  0  0  0  0  0  0  0  0  0
    8.2451  -14.7671   24.5633 C   0  0  0  0  0  0  0  0  0  0  0  0
    7.5848  -13.8339   25.4957 C   0  0  0  0  0  0  0  0  0  0  0  0
    6.2146  -13.7353   25.5924 C   0  0  0  0  0  0  0  0  0  0  0  0
    5.5873  -12.8634   26.4708 C   0  0  0  0  0  0  0  0  0  0  0  0
    6.3304  -12.0472   27.2955 C   0  0  0  0  0  0  0  0  0  0  0  0
    7.7052  -12.1351   27.2093 C   0  0  0  0  0  0  0  0  0  0  0  0
    8.3274  -12.9995   26.3386 C   0  0  0  0  0  0  0  0  0  0  0  0
    9.0871  -16.0808   26.4476 C   0  0  0  0  0  0  0  0  0  0  0  0
    9.5588  -15.5676   27.6486 O   0  0  0  0  0  0  0  0  0  0  0  0
    8.3488  -17.1101   26.4244 O   0  0  0  0  0  0  0  0  0  0  0  0
  2  1  1  6
  3  2  1  0
  4  5  1  6
  4  2  1  0
  6  4  1  0
  7  6  2  0
  8  9  1  0
  9 10  2  0
 10 11  1  0
 12 11  2  0
 12 13  1  0
 14 13  1  6
 14 15  1  0
 15  6  1  0
 16 14  1  0
 16 20  1  0
 17 16  2  0
 18 12  1  0
 19 18  2  0
 19  9  1  0
 21 22  1  6
 21 20  1  0
 21 29  1  0
 23 28  1  0
 23 22  1  0
 24 23  2  0
 25 26  2  0
 25 24  1  0
 26 27  1  0
 27 28  2  0
 29 30  1  0
 31 29  2  0
M  END
$$$$
