VYF.pdb
     RDKit          3D

 31 32  0  0  1  0  0  0  0  0999 V2000
   10.8586  -20.1394   20.8124 C   0  0  0  0  0  0  0  0  0  0  0  0
   11.3995  -19.2798   19.7044 C   0  0  1  0  0  0  0  0  0  0  0  0
   11.5665  -20.0148   18.4150 C   0  0  0  0  0  0  0  0  0  0  0  0
   10.5744  -18.0449   19.4665 C   0  0  2  0  0  0  0  0  0  0  0  0
   11.0724  -17.3717   18.3092 N   0  0  0  0  0  0  0  0  0  0  0  0
   10.4958  -17.1445   20.6127 C   0  0  0  0  0  0  0  0  0  0  0  0
   11.4713  -16.5301   21.1159 O   0  0  0  0  0  0  0  0  0  0  0  0
    6.3530  -12.4674   27.0565 O   0  0  0  0  0  0  0  0  0  0  0  0
    6.6677  -13.2325   25.9375 C   0  0  0  0  0  0  0  0  0  0  0  0
    7.2345  -12.6518   24.8304 C   0  0  0  0  0  0  0  0  0  0  0  0
    7.5461  -13.4153   23.7200 C   0  0  0  0  0  0  0  0  0  0  0  0
    7.3095  -14.7770   23.6634 C   0  0  0  0  0  0  0  0  0  0  0  0
    7.6090  -15.6188   22.5009 C   0  0  0  0  0  0  0  0  0  0  0  0
    9.0250  -16.0948   22.3900 C   0  0  2  0  0  0  0  0  0  0  0  0
    9.2291  -16.9320   21.2212 N   0  0  0  0  0  0  0  0  0  0  0  0
    9.3592  -16.8910   23.5875 C   0  0  0  0  0  0  0  0  0  0  0  0
    9.0063  -18.0911   23.7692 O   0  0  0  0  0  0  0  0  0  0  0  0
    6.7404  -15.3481   24.7795 C   0  0  0  0  0  0  0  0  0  0  0  0
    6.4213  -14.5887   25.9067 C   0  0  0  0  0  0  0  0  0  0  0  0
   10.1263  -16.3234   24.6386 N   0  0  0  0  0  0  0  0  0  0  0  0
   10.8151  -17.1387   25.6529 C   0  0  1  0  0  0  0  0  0  0  0  0
   11.7789  -16.2105   26.3475 C   0  0  0  0  0  0  0  0  0  0  0  0
   11.0814  -15.2455   27.2183 C   0  0  0  0  0  0  0  0  0  0  0  0
   10.5143  -14.0891   26.7307 C   0  0  0  0  0  0  0  0  0  0  0  0
    9.8524  -13.1798   27.5435 C   0  0  0  0  0  0  0  0  0  0  0  0
    9.7370  -13.4074   28.8975 C   0  0  0  0  0  0  0  0  0  0  0  0
   10.3009  -14.5626   29.4004 C   0  0  0  0  0  0  0  0  0  0  0  0
   10.9571  -15.4643   28.5948 C   0  0  0  0  0  0  0  0  0  0  0  0
    9.8454  -17.6896   26.5900 C   0  0  0  0  0  0  0  0  0  0  0  0
    8.4995  -17.3725   26.4617 O   0  0  0  0  0  0  0  0  0  0  0  0
   10.2489  -18.4542   27.5161 O   0  0  0  0  0  0  0  0  0  0  0  0
  2  1  1  1
  3  2  1  0
  4  5  1  6
  4  2  1  0
  6  4  1  0
  7  6  2  0
  8  9  1  0
  9 10  2  0
 10 11  1  0
 12 11  2  0
 12 13  1  0
 14 13  1  1
 14 15  1  0
 15  6  1  0
 16 14  1  0
 16 20  1  0
 17 16  2  0
 18 12  1  0
 19 18  2  0
 19  9  1  0
 21 22  1  1
 21 20  1  0
 21 29  1  0
 23 28  1  0
 23 22  1  0
 24 23  2  0
 25 26  2  0
 25 24  1  0
 26 27  1  0
 27 28  2  0
 29 30  1  0
 31 29  2  0
M  END
$$$$
