VYF.pdb
     RDKit          3D

 31 32  0  0  1  0  0  0  0  0999 V2000
    8.1400  -12.6154   20.6244 C   0  0  0  0  0  0  0  0  0  0  0  0
    7.5846  -13.4501   19.5047 C   0  0  1  0  0  0  0  0  0  0  0  0
    8.1857  -13.1297   18.1754 C   0  0  0  0  0  0  0  0  0  0  0  0
    7.7077  -14.9273   19.7599 C   0  0  2  0  0  0  0  0  0  0  0  0
    7.2421  -15.6358   18.6102 N   0  0  0  0  0  0  0  0  0  0  0  0
    7.0387  -15.3854   20.9737 C   0  0  0  0  0  0  0  0  0  0  0  0
    5.9201  -14.9770   21.3790 O   0  0  0  0  0  0  0  0  0  0  0  0
    2.1276  -18.9676   19.7944 O   0  0  0  0  0  0  0  0  0  0  0  0
    3.2348  -18.7697   20.6138 C   0  0  0  0  0  0  0  0  0  0  0  0
    3.0760  -18.4151   21.9303 C   0  0  0  0  0  0  0  0  0  0  0  0
    4.1786  -18.2194   22.7419 C   0  0  0  0  0  0  0  0  0  0  0  0
    5.4753  -18.3666   22.2833 C   0  0  0  0  0  0  0  0  0  0  0  0
    6.6704  -18.1524   23.1051 C   0  0  0  0  0  0  0  0  0  0  0  0
    7.2269  -16.7616   23.0938 C   0  0  2  0  0  0  0  0  0  0  0  0
    7.6839  -16.3677   21.7729 N   0  0  0  0  0  0  0  0  0  0  0  0
    8.3789  -16.6977   24.0148 C   0  0  0  0  0  0  0  0  0  0  0  0
    9.5715  -16.4847   23.6539 O   0  0  0  0  0  0  0  0  0  0  0  0
    5.6221  -18.7222   20.9613 C   0  0  0  0  0  0  0  0  0  0  0  0
    4.5174  -18.9229   20.1315 C   0  0  0  0  0  0  0  0  0  0  0  0
    8.1959  -16.8801   25.4107 N   0  0  0  0  0  0  0  0  0  0  0  0
    9.2857  -16.7116   26.3863 C   0  0  1  0  0  0  0  0  0  0  0  0
    9.6842  -15.2592   26.3173 C   0  0  0  0  0  0  0  0  0  0  0  0
    8.5284  -14.3626   26.5090 C   0  0  0  0  0  0  0  0  0  0  0  0
    8.3962  -13.1747   25.8251 C   0  0  0  0  0  0  0  0  0  0  0  0
    7.3092  -12.3293   25.9968 C   0  0  0  0  0  0  0  0  0  0  0  0
    6.3016  -12.6566   26.8779 C   0  0  0  0  0  0  0  0  0  0  0  0
    6.4210  -13.8445   27.5706 C   0  0  0  0  0  0  0  0  0  0  0  0
    7.4984  -14.6827   27.4004 C   0  0  0  0  0  0  0  0  0  0  0  0
    8.8185  -17.0674   27.7195 C   0  0  0  0  0  0  0  0  0  0  0  0
    7.5254  -17.5414   27.8976 O   0  0  0  0  0  0  0  0  0  0  0  0
    9.6052  -16.9359   28.7038 O   0  0  0  0  0  0  0  0  0  0  0  0
  2  1  1  1
  3  2  1  0
  4  5  1  6
  4  2  1  0
  6  4  1  0
  7  6  2  0
  8  9  1  0
  9 10  2  0
 10 11  1  0
 12 11  2  0
 12 13  1  0
 14 13  1  6
 14 15  1  0
 15  6  1  0
 16 14  1  0
 16 20  1  0
 17 16  2  0
 18 12  1  0
 19 18  2  0
 19  9  1  0
 21 22  1  1
 21 20  1  0
 21 29  1  0
 23 28  1  0
 23 22  1  0
 24 23  2  0
 25 26  2  0
 25 24  1  0
 26 27  1  0
 27 28  2  0
 29 30  1  0
 31 29  2  0
M  END
$$$$
