VYF.pdb
     RDKit          3D

 31 32  0  0  1  0  0  0  0  0999 V2000
    8.9690  -12.6096   20.8006 C   0  0  0  0  0  0  0  0  0  0  0  0
    8.2449  -13.2947   19.6758 C   0  0  1  0  0  0  0  0  0  0  0  0
    8.3005  -12.5371   18.3898 C   0  0  0  0  0  0  0  0  0  0  0  0
    8.7244  -14.7011   19.4424 C   0  0  2  0  0  0  0  0  0  0  0  0
    8.0439  -15.2395   18.3077 N   0  0  0  0  0  0  0  0  0  0  0  0
    8.6008  -15.5786   20.6023 C   0  0  0  0  0  0  0  0  0  0  0  0
    7.5290  -16.1049   20.9979 O   0  0  0  0  0  0  0  0  0  0  0  0
    8.4988  -21.3359   18.0879 O   0  0  0  0  0  0  0  0  0  0  0  0
    9.0051  -20.5176   19.0932 C   0  0  0  0  0  0  0  0  0  0  0  0
    9.9792  -19.5910   18.8163 C   0  0  0  0  0  0  0  0  0  0  0  0
   10.4801  -18.7793   19.8178 C   0  0  0  0  0  0  0  0  0  0  0  0
   10.0377  -18.8534   21.1263 C   0  0  0  0  0  0  0  0  0  0  0  0
   10.5535  -18.0241   22.2199 C   0  0  0  0  0  0  0  0  0  0  0  0
    9.7878  -16.7674   22.5001 C   0  0  2  0  0  0  0  0  0  0  0  0
    9.7692  -15.8734   21.3558 N   0  0  0  0  0  0  0  0  0  0  0  0
   10.4262  -16.0569   23.6257 C   0  0  0  0  0  0  0  0  0  0  0  0
   11.3890  -15.2466   23.5057 O   0  0  0  0  0  0  0  0  0  0  0  0
    9.0609  -19.7865   21.3921 C   0  0  0  0  0  0  0  0  0  0  0  0
    8.5468  -20.6119   20.3902 C   0  0  0  0  0  0  0  0  0  0  0  0
    9.9707  -16.2576   24.9553 N   0  0  0  0  0  0  0  0  0  0  0  0
   10.5119  -15.5130   26.1044 C   0  0  1  0  0  0  0  0  0  0  0  0
   10.1026  -14.0766   25.8989 C   0  0  0  0  0  0  0  0  0  0  0  0
    8.6818  -13.8575   26.2297 C   0  0  0  0  0  0  0  0  0  0  0  0
    7.6618  -14.2379   25.3862 C   0  0  0  0  0  0  0  0  0  0  0  0
    6.3233  -14.0394   25.6936 C   0  0  0  0  0  0  0  0  0  0  0  0
    5.9599  -13.4410   26.8803 C   0  0  0  0  0  0  0  0  0  0  0  0
    6.9719  -13.0542   27.7357 C   0  0  0  0  0  0  0  0  0  0  0  0
    8.2989  -13.2510   27.4312 C   0  0  0  0  0  0  0  0  0  0  0  0
    9.9632  -16.0454   27.3444 C   0  0  0  0  0  0  0  0  0  0  0  0
    9.0771  -17.1140   27.3082 O   0  0  0  0  0  0  0  0  0  0  0  0
   10.3046  -15.5195   28.4453 O   0  0  0  0  0  0  0  0  0  0  0  0
  2  1  1  1
  3  2  1  0
  4  5  1  6
  4  2  1  0
  6  4  1  0
  7  6  2  0
  8  9  1  0
  9 10  2  0
 10 11  1  0
 12 11  2  0
 12 13  1  0
 14 13  1  6
 14 15  1  0
 15  6  1  0
 16 14  1  0
 16 20  1  0
 17 16  2  0
 18 12  1  0
 19 18  2  0
 19  9  1  0
 21 22  1  6
 21 20  1  0
 21 29  1  0
 23 28  1  0
 23 22  1  0
 24 23  2  0
 25 26  2  0
 25 24  1  0
 26 27  1  0
 27 28  2  0
 29 30  1  0
 31 29  2  0
M  END
$$$$
