VYF.pdb
     RDKit          3D

 31 32  0  0  1  0  0  0  0  0999 V2000
    9.9824  -19.9137   22.3027 C   0  0  0  0  0  0  0  0  0  0  0  0
   10.3528  -19.6362   20.8728 C   0  0  1  0  0  0  0  0  0  0  0  0
   10.2326  -20.8342   19.9888 C   0  0  0  0  0  0  0  0  0  0  0  0
    9.5687  -18.5001   20.2755 C   0  0  2  0  0  0  0  0  0  0  0  0
    9.8606  -18.4202   18.8795 N   0  0  0  0  0  0  0  0  0  0  0  0
    9.7746  -17.2149   20.9362 C   0  0  0  0  0  0  0  0  0  0  0  0
   10.8159  -16.5152   20.8447 O   0  0  0  0  0  0  0  0  0  0  0  0
    8.0445  -12.4892   16.7751 O   0  0  0  0  0  0  0  0  0  0  0  0
    7.9730  -12.9853   18.0732 C   0  0  0  0  0  0  0  0  0  0  0  0
    7.2613  -14.1266   18.3474 C   0  0  0  0  0  0  0  0  0  0  0  0
    7.1924  -14.6169   19.6388 C   0  0  0  0  0  0  0  0  0  0  0  0
    7.8228  -13.9990   20.7037 C   0  0  0  0  0  0  0  0  0  0  0  0
    7.7611  -14.4760   22.0887 C   0  0  0  0  0  0  0  0  0  0  0  0
    8.8260  -15.4506   22.4890 C   0  0  2  0  0  0  0  0  0  0  0  0
    8.7307  -16.6968   21.7496 N   0  0  0  0  0  0  0  0  0  0  0  0
    8.6800  -15.7583   23.9255 C   0  0  0  0  0  0  0  0  0  0  0  0
    7.7955  -16.5226   24.4065 O   0  0  0  0  0  0  0  0  0  0  0  0
    8.5333  -12.8551   20.4166 C   0  0  0  0  0  0  0  0  0  0  0  0
    8.6108  -12.3498   19.1174 C   0  0  0  0  0  0  0  0  0  0  0  0
    9.5637  -15.1863   24.8780 N   0  0  0  0  0  0  0  0  0  0  0  0
    9.4877  -15.4867   26.3173 C   0  0  1  0  0  0  0  0  0  0  0  0
    8.0196  -15.5110   26.6597 C   0  0  0  0  0  0  0  0  0  0  0  0
    7.4578  -14.1511   26.7663 C   0  0  0  0  0  0  0  0  0  0  0  0
    8.1826  -13.0915   27.2646 C   0  0  0  0  0  0  0  0  0  0  0  0
    7.6619  -11.8090   27.3628 C   0  0  0  0  0  0  0  0  0  0  0  0
    6.3721  -11.5452   26.9561 C   0  0  0  0  0  0  0  0  0  0  0  0
    5.6336  -12.5980   26.4546 C   0  0  0  0  0  0  0  0  0  0  0  0
    6.1496  -13.8695   26.3570 C   0  0  0  0  0  0  0  0  0  0  0  0
   10.1140  -16.7733   26.5901 C   0  0  0  0  0  0  0  0  0  0  0  0
   10.6494  -17.5188   25.5480 O   0  0  0  0  0  0  0  0  0  0  0  0
   10.1592  -17.1962   27.7835 O   0  0  0  0  0  0  0  0  0  0  0  0
  2  1  1  1
  3  2  1  0
  4  5  1  6
  4  2  1  0
  6  4  1  0
  7  6  2  0
  8  9  1  0
  9 10  2  0
 10 11  1  0
 12 11  2  0
 12 13  1  0
 14 13  1  6
 14 15  1  0
 15  6  1  0
 16 14  1  0
 16 20  1  0
 17 16  2  0
 18 12  1  0
 19 18  2  0
 19  9  1  0
 21 22  1  6
 21 20  1  0
 21 29  1  0
 23 28  1  0
 23 22  1  0
 24 23  2  0
 25 26  2  0
 25 24  1  0
 26 27  1  0
 27 28  2  0
 29 30  1  0
 31 29  2  0
M  END
$$$$
