VYF.pdb
     RDKit          3D

 31 32  0  0  1  0  0  0  0  0999 V2000
    8.6202  -11.7169   19.1085 C   0  0  0  0  0  0  0  0  0  0  0  0
    8.5682  -12.9631   19.9471 C   0  0  1  0  0  0  0  0  0  0  0  0
    7.1770  -13.4318   20.2223 C   0  0  0  0  0  0  0  0  0  0  0  0
    9.3648  -14.0962   19.3607 C   0  0  2  0  0  0  0  0  0  0  0  0
    8.8331  -14.4186   18.0747 N   0  0  0  0  0  0  0  0  0  0  0  0
    9.4468  -15.2779   20.2136 C   0  0  0  0  0  0  0  0  0  0  0  0
    8.9379  -16.3970   19.9469 O   0  0  0  0  0  0  0  0  0  0  0  0
   14.9341  -14.4269   17.9560 O   0  0  0  0  0  0  0  0  0  0  0  0
   14.1305  -15.0704   18.8922 C   0  0  0  0  0  0  0  0  0  0  0  0
   14.1948  -14.7304   20.2205 C   0  0  0  0  0  0  0  0  0  0  0  0
   13.3945  -15.3720   21.1482 C   0  0  0  0  0  0  0  0  0  0  0  0
   12.5036  -16.3705   20.7981 C   0  0  0  0  0  0  0  0  0  0  0  0
   11.6504  -17.0865   21.7515 C   0  0  0  0  0  0  0  0  0  0  0  0
   10.4796  -16.3171   22.2818 C   0  0  2  0  0  0  0  0  0  0  0  0
   10.1511  -15.1774   21.4439 N   0  0  0  0  0  0  0  0  0  0  0  0
   10.8063  -15.8145   23.6309 C   0  0  0  0  0  0  0  0  0  0  0  0
   11.6965  -14.9511   23.8757 O   0  0  0  0  0  0  0  0  0  0  0  0
   12.4481  -16.7032   19.4632 C   0  0  0  0  0  0  0  0  0  0  0  0
   13.2504  -16.0632   18.5167 C   0  0  0  0  0  0  0  0  0  0  0  0
   10.1069  -16.2971   24.7682 N   0  0  0  0  0  0  0  0  0  0  0  0
   10.4282  -15.8728   26.1410 C   0  0  1  0  0  0  0  0  0  0  0  0
   10.1589  -14.3903   26.1915 C   0  0  0  0  0  0  0  0  0  0  0  0
    8.7149  -14.0962   26.2592 C   0  0  0  0  0  0  0  0  0  0  0  0
    7.8786  -14.2576   25.1770 C   0  0  0  0  0  0  0  0  0  0  0  0
    6.5188  -13.9877   25.2354 C   0  0  0  0  0  0  0  0  0  0  0  0
    5.9449  -13.5383   26.4047 C   0  0  0  0  0  0  0  0  0  0  0  0
    6.7712  -13.3716   27.4977 C   0  0  0  0  0  0  0  0  0  0  0  0
    8.1194  -13.6393   27.4401 C   0  0  0  0  0  0  0  0  0  0  0  0
    9.5925  -16.5932   27.0921 C   0  0  0  0  0  0  0  0  0  0  0  0
    8.6189  -17.4710   26.6339 O   0  0  0  0  0  0  0  0  0  0  0  0
    9.7675  -16.4046   28.3326 O   0  0  0  0  0  0  0  0  0  0  0  0
  2  1  1  6
  3  2  1  0
  4  5  1  6
  4  2  1  0
  6  4  1  0
  7  6  2  0
  8  9  1  0
  9 10  2  0
 10 11  1  0
 12 11  2  0
 12 13  1  0
 14 13  1  6
 14 15  1  0
 15  6  1  0
 16 14  1  0
 16 20  1  0
 17 16  2  0
 18 12  1  0
 19 18  2  0
 19  9  1  0
 21 22  1  6
 21 20  1  0
 21 29  1  0
 23 28  1  0
 23 22  1  0
 24 23  2  0
 25 26  2  0
 25 24  1  0
 26 27  1  0
 27 28  2  0
 29 30  1  0
 31 29  2  0
M  END
$$$$
