NFP.pdb
     RDKit          3D

 27 28  0  0  1  0  0  0  0  0999 V2000
   12.5107  -20.4830   21.0882 N   0  0  0  0  0  0  0  0  0  0  0  0
   12.0792  -19.2050   20.6833 C   0  0  0  0  0  0  0  0  0  0  0  0
   11.5417  -19.0579   19.5608 O   0  0  0  0  0  0  0  0  0  0  0  0
   12.2294  -17.9888   21.5347 C   0  0  0  0  0  0  0  0  0  0  0  0
   11.1206  -17.0445   21.1554 C   0  0  2  0  0  0  0  0  0  0  0  0
   11.5134  -16.2976   19.9919 N   0  0  0  0  0  0  0  0  0  0  0  0
   10.7184  -16.1596   22.2797 C   0  0  0  0  0  0  0  0  0  0  0  0
   11.6166  -15.4229   22.7721 O   0  0  0  0  0  0  0  0  0  0  0  0
    9.3970  -16.1376   22.7793 N   0  0  0  0  0  0  0  0  0  0  0  0
    9.1064  -15.3269   23.9478 C   0  0  1  0  0  0  0  0  0  0  0  0
    7.6351  -14.9618   23.8151 C   0  0  0  0  0  0  0  0  0  0  0  0
    7.2735  -14.0489   24.9293 C   0  0  0  0  0  0  0  0  0  0  0  0
    6.6121  -14.5077   26.0597 C   0  0  0  0  0  0  0  0  0  0  0  0
    6.2765  -13.6471   27.0994 C   0  0  0  0  0  0  0  0  0  0  0  0
    6.5988  -12.3048   27.0257 C   0  0  0  0  0  0  0  0  0  0  0  0
    7.2553  -11.8302   25.9119 C   0  0  0  0  0  0  0  0  0  0  0  0
    7.5765  -12.6961   24.8988 C   0  0  0  0  0  0  0  0  0  0  0  0
    9.3772  -16.0546   25.2031 C   0  0  0  0  0  0  0  0  0  0  0  0
    9.3404  -17.3294   25.1135 O   0  0  0  0  0  0  0  0  0  0  0  0
    9.6647  -15.5014   26.4520 N   0  0  0  0  0  0  0  0  0  0  0  0
    9.2995  -14.1269   26.8473 C   0  0  0  0  0  0  0  0  0  0  0  0
   10.6795  -13.6226   27.2908 C   0  0  0  0  0  0  0  0  0  0  0  0
   11.2116  -14.8320   28.0302 C   0  0  0  0  0  0  0  0  0  0  0  0
   10.3350  -16.0008   27.6341 C   0  0  1  0  0  0  0  0  0  0  0  0
    9.3527  -16.3552   28.7021 C   0  0  0  0  0  0  0  0  0  0  0  0
    8.7680  -15.4702   29.3664 O   0  0  0  0  0  0  0  0  0  0  0  0
    9.0672  -17.6796   28.9805 O   0  0  0  0  0  0  0  0  0  0  0  0
  2  1  1  0
  3  2  2  0
  4  2  1  0
  5  4  1  0
  5  6  1  6
  7  5  1  0
  7  8  2  0
  9  7  1  0
 10  9  1  0
 10 11  1  1
 11 12  1  0
 12 13  2  0
 12 17  1  0
 13 14  1  0
 14 15  2  0
 16 15  1  0
 17 16  2  0
 18 10  1  0
 19 18  2  0
 20 18  1  0
 20 24  1  0
 21 22  1  0
 21 20  1  0
 22 23  1  0
 23 24  1  0
 24 25  1  1
 25 27  1  0
 26 25  2  0
M  END
$$$$
