NFP.pdb
     RDKit          3D

 27 28  0  0  1  0  0  0  0  0999 V2000
   10.3104  -19.0424   19.3096 N   0  0  0  0  0  0  0  0  0  0  0  0
   10.5564  -19.4967   20.6197 C   0  0  0  0  0  0  0  0  0  0  0  0
   10.5208  -20.7245   20.8682 O   0  0  0  0  0  0  0  0  0  0  0  0
   10.8641  -18.5776   21.7543 C   0  0  0  0  0  0  0  0  0  0  0  0
   10.5995  -17.1767   21.2721 C   0  0  2  0  0  0  0  0  0  0  0  0
   11.6879  -16.7515   20.4351 N   0  0  0  0  0  0  0  0  0  0  0  0
   10.3486  -16.2291   22.3893 C   0  0  0  0  0  0  0  0  0  0  0  0
   11.3632  -15.7542   22.9699 O   0  0  0  0  0  0  0  0  0  0  0  0
    9.0414  -15.8718   22.7886 N   0  0  0  0  0  0  0  0  0  0  0  0
    8.8739  -15.0517   23.9746 C   0  0  1  0  0  0  0  0  0  0  0  0
    7.5227  -14.3752   23.7952 C   0  0  0  0  0  0  0  0  0  0  0  0
    7.2287  -13.5788   25.0138 C   0  0  0  0  0  0  0  0  0  0  0  0
    6.5205  -14.1154   26.0798 C   0  0  0  0  0  0  0  0  0  0  0  0
    6.2487  -13.3638   27.2180 C   0  0  0  0  0  0  0  0  0  0  0  0
    6.6834  -12.0547   27.3099 C   0  0  0  0  0  0  0  0  0  0  0  0
    7.3879  -11.5040   26.2624 C   0  0  0  0  0  0  0  0  0  0  0  0
    7.6446  -12.2630   25.1499 C   0  0  0  0  0  0  0  0  0  0  0  0
    8.9215  -15.8566   25.2109 C   0  0  0  0  0  0  0  0  0  0  0  0
    8.3481  -16.9971   25.1418 O   0  0  0  0  0  0  0  0  0  0  0  0
    9.5188  -15.5047   26.4224 N   0  0  0  0  0  0  0  0  0  0  0  0
    9.4565  -14.1513   27.0084 C   0  0  0  0  0  0  0  0  0  0  0  0
   10.9570  -13.9006   27.2108 C   0  0  0  0  0  0  0  0  0  0  0  0
   11.4167  -15.2528   27.7133 C   0  0  0  0  0  0  0  0  0  0  0  0
   10.3072  -16.2321   27.3947 C   0  0  1  0  0  0  0  0  0  0  0  0
    9.4949  -16.5745   28.6005 C   0  0  0  0  0  0  0  0  0  0  0  0
    9.9470  -17.3208   29.4978 O   0  0  0  0  0  0  0  0  0  0  0  0
    8.2162  -16.0693   28.7509 O   0  0  0  0  0  0  0  0  0  0  0  0
  2  1  1  0
  3  2  2  0
  4  2  1  0
  5  4  1  0
  5  6  1  1
  7  5  1  0
  7  8  2  0
  9  7  1  0
 10  9  1  0
 10 11  1  6
 11 12  1  0
 12 13  2  0
 12 17  1  0
 13 14  1  0
 14 15  2  0
 16 15  1  0
 17 16  2  0
 18 10  1  0
 19 18  2  0
 20 18  1  0
 20 24  1  0
 21 22  1  0
 21 20  1  0
 22 23  1  0
 23 24  1  0
 24 25  1  1
 25 27  1  0
 26 25  2  0
M  END
$$$$
