NFP.pdb
     RDKit          3D

 27 28  0  0  1  0  0  0  0  0999 V2000
   12.5964  -16.7792   17.9937 N   0  0  0  0  0  0  0  0  0  0  0  0
   12.5794  -17.1947   19.3392 C   0  0  0  0  0  0  0  0  0  0  0  0
   12.8200  -18.3915   19.6225 O   0  0  0  0  0  0  0  0  0  0  0  0
   12.2843  -16.2693   20.4720 C   0  0  0  0  0  0  0  0  0  0  0  0
   11.3915  -17.0128   21.4285 C   0  0  2  0  0  0  0  0  0  0  0  0
   10.2817  -17.5689   20.7039 N   0  0  0  0  0  0  0  0  0  0  0  0
   10.9492  -16.1666   22.5675 C   0  0  0  0  0  0  0  0  0  0  0  0
   11.8544  -15.5970   23.2370 O   0  0  0  0  0  0  0  0  0  0  0  0
    9.5841  -16.0020   22.8921 N   0  0  0  0  0  0  0  0  0  0  0  0
    9.2358  -15.2402   24.0775 C   0  0  1  0  0  0  0  0  0  0  0  0
    7.8034  -14.7834   23.8427 C   0  0  0  0  0  0  0  0  0  0  0  0
    7.4127  -13.8702   24.9468 C   0  0  0  0  0  0  0  0  0  0  0  0
    6.7469  -14.3339   26.0726 C   0  0  0  0  0  0  0  0  0  0  0  0
    6.3840  -13.4730   27.1030 C   0  0  0  0  0  0  0  0  0  0  0  0
    6.6826  -12.1255   27.0241 C   0  0  0  0  0  0  0  0  0  0  0  0
    7.3429  -11.6460   25.9146 C   0  0  0  0  0  0  0  0  0  0  0  0
    7.6912  -12.5123   24.9109 C   0  0  0  0  0  0  0  0  0  0  0  0
    9.3562  -16.0491   25.3062 C   0  0  0  0  0  0  0  0  0  0  0  0
    9.1359  -17.2999   25.1596 O   0  0  0  0  0  0  0  0  0  0  0  0
    9.6812  -15.5945   26.5854 N   0  0  0  0  0  0  0  0  0  0  0  0
    9.2354  -14.2999   27.1368 C   0  0  0  0  0  0  0  0  0  0  0  0
   10.5975  -13.7243   27.5476 C   0  0  0  0  0  0  0  0  0  0  0  0
   11.2713  -14.9487   28.1300 C   0  0  0  0  0  0  0  0  0  0  0  0
   10.4656  -16.1450   27.6705 C   0  0  1  0  0  0  0  0  0  0  0  0
    9.5872  -16.6816   28.7530 C   0  0  0  0  0  0  0  0  0  0  0  0
    8.3526  -16.4766   28.7490 O   0  0  0  0  0  0  0  0  0  0  0  0
   10.1253  -17.4219   29.7900 O   0  0  0  0  0  0  0  0  0  0  0  0
  2  1  1  0
  3  2  2  0
  4  2  1  0
  5  4  1  0
  5  6  1  6
  7  5  1  0
  7  8  2  0
  9  7  1  0
 10  9  1  0
 10 11  1  6
 11 12  1  0
 12 13  2  0
 12 17  1  0
 13 14  1  0
 14 15  2  0
 16 15  1  0
 17 16  2  0
 18 10  1  0
 19 18  2  0
 20 18  1  0
 20 24  1  0
 21 22  1  0
 21 20  1  0
 22 23  1  0
 23 24  1  0
 24 25  1  1
 25 27  1  0
 26 25  2  0
M  END
$$$$
