NFP.pdb
     RDKit          3D

 27 28  0  0  1  0  0  0  0  0999 V2000
   12.8439  -17.5011   18.2980 N   0  0  0  0  0  0  0  0  0  0  0  0
   11.5951  -17.4307   18.9452 C   0  0  0  0  0  0  0  0  0  0  0  0
   10.7091  -18.2759   18.6787 O   0  0  0  0  0  0  0  0  0  0  0  0
   11.2600  -16.3827   19.9532 C   0  0  0  0  0  0  0  0  0  0  0  0
   10.9919  -17.0906   21.2539 C   0  0  2  0  0  0  0  0  0  0  0  0
    9.9991  -18.1083   21.0422 N   0  0  0  0  0  0  0  0  0  0  0  0
   10.6103  -16.1537   22.3427 C   0  0  0  0  0  0  0  0  0  0  0  0
   11.5077  -15.3700   22.7581 O   0  0  0  0  0  0  0  0  0  0  0  0
    9.3088  -16.1344   22.8919 N   0  0  0  0  0  0  0  0  0  0  0  0
    9.0635  -15.3330   24.0771 C   0  0  1  0  0  0  0  0  0  0  0  0
    7.6783  -14.7386   23.8681 C   0  0  0  0  0  0  0  0  0  0  0  0
    7.3625  -13.8612   25.0239 C   0  0  0  0  0  0  0  0  0  0  0  0
    6.6954  -14.3428   26.1414 C   0  0  0  0  0  0  0  0  0  0  0  0
    6.4028  -13.5154   27.2204 C   0  0  0  0  0  0  0  0  0  0  0  0
    6.7748  -12.1841   27.1998 C   0  0  0  0  0  0  0  0  0  0  0  0
    7.4378  -11.6872   26.0996 C   0  0  0  0  0  0  0  0  0  0  0  0
    7.7160  -12.5205   25.0472 C   0  0  0  0  0  0  0  0  0  0  0  0
    9.1305  -16.1406   25.3107 C   0  0  0  0  0  0  0  0  0  0  0  0
    8.7489  -17.3547   25.1892 O   0  0  0  0  0  0  0  0  0  0  0  0
    9.5612  -15.7202   26.5701 N   0  0  0  0  0  0  0  0  0  0  0  0
    9.1410  -14.4550   27.2038 C   0  0  0  0  0  0  0  0  0  0  0  0
   10.5228  -13.8612   27.5095 C   0  0  0  0  0  0  0  0  0  0  0  0
   11.2718  -15.0876   27.9862 C   0  0  0  0  0  0  0  0  0  0  0  0
   10.4523  -16.2870   27.5605 C   0  0  1  0  0  0  0  0  0  0  0  0
    9.6872  -16.8789   28.6987 C   0  0  0  0  0  0  0  0  0  0  0  0
   10.2678  -17.4918   29.6226 O   0  0  0  0  0  0  0  0  0  0  0  0
    8.3103  -16.7604   28.7548 O   0  0  0  0  0  0  0  0  0  0  0  0
  2  1  1  0
  3  2  2  0
  4  2  1  0
  5  4  1  0
  5  6  1  6
  7  5  1  0
  7  8  2  0
  9  7  1  0
 10  9  1  0
 10 11  1  6
 11 12  1  0
 12 13  2  0
 12 17  1  0
 13 14  1  0
 14 15  2  0
 16 15  1  0
 17 16  2  0
 18 10  1  0
 19 18  2  0
 20 18  1  0
 20 24  1  0
 21 22  1  0
 21 20  1  0
 22 23  1  0
 23 24  1  0
 24 25  1  1
 25 27  1  0
 26 25  2  0
M  END
$$$$
