NFP.pdb
     RDKit          3D

 27 28  0  0  1  0  0  0  0  0999 V2000
    2.6675  -20.8245   21.3964 N   0  0  0  0  0  0  0  0  0  0  0  0
    2.2305  -19.5041   21.1749 C   0  0  0  0  0  0  0  0  0  0  0  0
    1.3641  -19.2756   20.2988 O   0  0  0  0  0  0  0  0  0  0  0  0
    2.7529  -18.3356   21.9419 C   0  0  0  0  0  0  0  0  0  0  0  0
    4.2336  -18.5447   22.1112 C   0  0  2  0  0  0  0  0  0  0  0  0
    4.4561  -19.6771   22.9681 N   0  0  0  0  0  0  0  0  0  0  0  0
    4.9272  -17.3255   22.6026 C   0  0  0  0  0  0  0  0  0  0  0  0
    4.9713  -16.3408   21.8150 O   0  0  0  0  0  0  0  0  0  0  0  0
    5.5115  -17.2631   23.8875 N   0  0  0  0  0  0  0  0  0  0  0  0
    6.3175  -16.1061   24.2318 C   0  0  1  0  0  0  0  0  0  0  0  0
    6.2703  -16.0341   25.7511 C   0  0  0  0  0  0  0  0  0  0  0  0
    6.8051  -14.7158   26.1775 C   0  0  0  0  0  0  0  0  0  0  0  0
    8.1616  -14.5162   26.3912 C   0  0  0  0  0  0  0  0  0  0  0  0
    8.6556  -13.2788   26.7905 C   0  0  0  0  0  0  0  0  0  0  0  0
    7.7958  -12.2138   26.9839 C   0  0  0  0  0  0  0  0  0  0  0  0
    6.4458  -12.3920   26.7769 C   0  0  0  0  0  0  0  0  0  0  0  0
    5.9807  -13.6201   26.3835 C   0  0  0  0  0  0  0  0  0  0  0  0
    7.7014  -16.2320   23.7341 C   0  0  0  0  0  0  0  0  0  0  0  0
    8.2201  -17.3945   23.8527 O   0  0  0  0  0  0  0  0  0  0  0  0
    8.4835  -15.2299   23.1576 N   0  0  0  0  0  0  0  0  0  0  0  0
    8.3102  -13.7900   23.4325 C   0  0  0  0  0  0  0  0  0  0  0  0
    8.1666  -13.2792   21.9925 C   0  0  0  0  0  0  0  0  0  0  0  0
    9.2188  -14.1032   21.2810 C   0  0  0  0  0  0  0  0  0  0  0  0
    9.5807  -15.2398   22.2130 C   0  0  1  0  0  0  0  0  0  0  0  0
   10.8866  -15.0099   22.9008 C   0  0  0  0  0  0  0  0  0  0  0  0
   11.9609  -14.9748   22.2597 O   0  0  0  0  0  0  0  0  0  0  0  0
   10.9350  -14.8298   24.2712 O   0  0  0  0  0  0  0  0  0  0  0  0
  2  1  1  0
  3  2  2  0
  4  2  1  0
  5  4  1  0
  5  6  1  1
  7  5  1  0
  7  8  2  0
  9  7  1  0
 10  9  1  0
 10 11  1  1
 11 12  1  0
 12 13  2  0
 12 17  1  0
 13 14  1  0
 14 15  2  0
 16 15  1  0
 17 16  2  0
 18 10  1  0
 19 18  2  0
 20 18  1  0
 20 24  1  0
 21 22  1  0
 21 20  1  0
 22 23  1  0
 23 24  1  0
 24 25  1  1
 25 27  1  0
 26 25  2  0
M  END
$$$$
