NFP.pdb
     RDKit          3D

 27 28  0  0  1  0  0  0  0  0999 V2000
   13.6092  -18.0714   19.5730 N   0  0  0  0  0  0  0  0  0  0  0  0
   12.4340  -17.3446   19.3008 C   0  0  0  0  0  0  0  0  0  0  0  0
   11.7883  -17.5783   18.2524 O   0  0  0  0  0  0  0  0  0  0  0  0
   11.9024  -16.2882   20.2108 C   0  0  0  0  0  0  0  0  0  0  0  0
   11.1918  -16.9912   21.3358 C   0  0  2  0  0  0  0  0  0  0  0  0
   10.0937  -17.7490   20.8010 N   0  0  0  0  0  0  0  0  0  0  0  0
   10.7582  -16.0559   22.4064 C   0  0  0  0  0  0  0  0  0  0  0  0
   11.6680  -15.4295   23.0162 O   0  0  0  0  0  0  0  0  0  0  0  0
    9.3960  -15.8709   22.7324 N   0  0  0  0  0  0  0  0  0  0  0  0
    9.0609  -15.1446   23.9437 C   0  0  1  0  0  0  0  0  0  0  0  0
    7.6128  -14.7165   23.7557 C   0  0  0  0  0  0  0  0  0  0  0  0
    7.2208  -13.8618   24.9052 C   0  0  0  0  0  0  0  0  0  0  0  0
    6.5731  -14.3872   26.0144 C   0  0  0  0  0  0  0  0  0  0  0  0
    6.2089  -13.5808   27.0875 C   0  0  0  0  0  0  0  0  0  0  0  0
    6.4881  -12.2270   27.0692 C   0  0  0  0  0  0  0  0  0  0  0  0
    7.1303  -11.6866   25.9772 C   0  0  0  0  0  0  0  0  0  0  0  0
    7.4803  -12.4998   24.9306 C   0  0  0  0  0  0  0  0  0  0  0  0
    9.2315  -15.9783   25.1497 C   0  0  0  0  0  0  0  0  0  0  0  0
    8.9463  -17.2157   25.0023 O   0  0  0  0  0  0  0  0  0  0  0  0
    9.6654  -15.5594   26.4086 N   0  0  0  0  0  0  0  0  0  0  0  0
    9.3689  -14.2319   26.9818 C   0  0  0  0  0  0  0  0  0  0  0  0
   10.7977  -13.7829   27.3167 C   0  0  0  0  0  0  0  0  0  0  0  0
   11.3892  -15.0650   27.8631 C   0  0  0  0  0  0  0  0  0  0  0  0
   10.4551  -16.1823   27.4500 C   0  0  1  0  0  0  0  0  0  0  0  0
    9.5923  -16.6414   28.5796 C   0  0  0  0  0  0  0  0  0  0  0  0
   10.0757  -17.2507   29.5601 O   0  0  0  0  0  0  0  0  0  0  0  0
    8.2304  -16.4002   28.5643 O   0  0  0  0  0  0  0  0  0  0  0  0
  2  1  1  0
  3  2  2  0
  4  2  1  0
  5  4  1  0
  5  6  1  6
  7  5  1  0
  7  8  2  0
  9  7  1  0
 10  9  1  0
 10 11  1  6
 11 12  1  0
 12 13  2  0
 12 17  1  0
 13 14  1  0
 14 15  2  0
 16 15  1  0
 17 16  2  0
 18 10  1  0
 19 18  2  0
 20 18  1  0
 20 24  1  0
 21 22  1  0
 21 20  1  0
 22 23  1  0
 23 24  1  0
 24 25  1  1
 25 27  1  0
 26 25  2  0
M  END
$$$$
