NFP.pdb
     RDKit          3D

 27 28  0  0  1  0  0  0  0  0999 V2000
   12.1001  -16.9846   17.8997 N   0  0  0  0  0  0  0  0  0  0  0  0
   12.1198  -17.3051   19.2708 C   0  0  0  0  0  0  0  0  0  0  0  0
   12.3750  -18.4781   19.6308 O   0  0  0  0  0  0  0  0  0  0  0  0
   11.8476  -16.3041   20.3435 C   0  0  0  0  0  0  0  0  0  0  0  0
   11.1119  -17.0230   21.4421 C   0  0  2  0  0  0  0  0  0  0  0  0
   10.0015  -17.7398   20.8769 N   0  0  0  0  0  0  0  0  0  0  0  0
   10.6905  -16.1095   22.5361 C   0  0  0  0  0  0  0  0  0  0  0  0
   11.5949  -15.4146   23.0757 O   0  0  0  0  0  0  0  0  0  0  0  0
    9.3453  -16.0172   22.9580 N   0  0  0  0  0  0  0  0  0  0  0  0
    9.0358  -15.2242   24.1337 C   0  0  1  0  0  0  0  0  0  0  0  0
    7.6217  -14.7130   23.9001 C   0  0  0  0  0  0  0  0  0  0  0  0
    7.2102  -13.9089   25.0790 C   0  0  0  0  0  0  0  0  0  0  0  0
    6.5223  -14.4768   26.1421 C   0  0  0  0  0  0  0  0  0  0  0  0
    6.1401  -13.7178   27.2431 C   0  0  0  0  0  0  0  0  0  0  0  0
    6.4412  -12.3697   27.2997 C   0  0  0  0  0  0  0  0  0  0  0  0
    7.1234  -11.7877   26.2544 C   0  0  0  0  0  0  0  0  0  0  0  0
    7.4905  -12.5546   25.1790 C   0  0  0  0  0  0  0  0  0  0  0  0
    9.1310  -16.0189   25.3739 C   0  0  0  0  0  0  0  0  0  0  0  0
    8.7603  -17.2381   25.2703 O   0  0  0  0  0  0  0  0  0  0  0  0
    9.5774  -15.5818   26.6221 N   0  0  0  0  0  0  0  0  0  0  0  0
    9.2159  -14.2796   27.2158 C   0  0  0  0  0  0  0  0  0  0  0  0
   10.6233  -13.7430   27.5098 C   0  0  0  0  0  0  0  0  0  0  0  0
   11.3118  -14.9887   28.0262 C   0  0  0  0  0  0  0  0  0  0  0  0
   10.4376  -16.1602   27.6328 C   0  0  1  0  0  0  0  0  0  0  0  0
    9.6419  -16.6807   28.7848 C   0  0  0  0  0  0  0  0  0  0  0  0
    8.4199  -16.4333   28.8948 O   0  0  0  0  0  0  0  0  0  0  0  0
   10.2446  -17.4530   29.7612 O   0  0  0  0  0  0  0  0  0  0  0  0
  2  1  1  0
  3  2  2  0
  4  2  1  0
  5  4  1  0
  5  6  1  6
  7  5  1  0
  7  8  2  0
  9  7  1  0
 10  9  1  0
 10 11  1  6
 11 12  1  0
 12 13  2  0
 12 17  1  0
 13 14  1  0
 14 15  2  0
 16 15  1  0
 17 16  2  0
 18 10  1  0
 19 18  2  0
 20 18  1  0
 20 24  1  0
 21 22  1  0
 21 20  1  0
 22 23  1  0
 23 24  1  0
 24 25  1  1
 25 27  1  0
 26 25  2  0
M  END
$$$$
