NFP.pdb
     RDKit          3D

 27 28  0  0  1  0  0  0  0  0999 V2000
   10.0396  -20.3690   20.2248 N   0  0  0  0  0  0  0  0  0  0  0  0
   11.1792  -19.6218   20.5803 C   0  0  0  0  0  0  0  0  0  0  0  0
   12.2414  -19.7623   19.9304 O   0  0  0  0  0  0  0  0  0  0  0  0
   11.1934  -18.6504   21.7129 C   0  0  0  0  0  0  0  0  0  0  0  0
   10.5472  -17.3848   21.2173 C   0  0  2  0  0  0  0  0  0  0  0  0
   11.3520  -16.8230   20.1672 N   0  0  0  0  0  0  0  0  0  0  0  0
   10.2934  -16.4106   22.3107 C   0  0  0  0  0  0  0  0  0  0  0  0
   11.2813  -15.7350   22.7101 O   0  0  0  0  0  0  0  0  0  0  0  0
    9.0118  -16.2423   22.8810 N   0  0  0  0  0  0  0  0  0  0  0  0
    8.8648  -15.3487   24.0154 C   0  0  1  0  0  0  0  0  0  0  0  0
    7.4843  -14.7302   23.8504 C   0  0  0  0  0  0  0  0  0  0  0  0
    7.2481  -13.7960   24.9805 C   0  0  0  0  0  0  0  0  0  0  0  0
    6.5778  -14.1971   26.1275 C   0  0  0  0  0  0  0  0  0  0  0  0
    6.3601  -13.3169   27.1821 C   0  0  0  0  0  0  0  0  0  0  0  0
    6.8119  -12.0126   27.1068 C   0  0  0  0  0  0  0  0  0  0  0  0
    7.4793  -11.5953   25.9766 C   0  0  0  0  0  0  0  0  0  0  0  0
    7.6830  -12.4797   24.9491 C   0  0  0  0  0  0  0  0  0  0  0  0
    8.9922  -16.0648   25.2997 C   0  0  0  0  0  0  0  0  0  0  0  0
    8.6083  -17.2842   25.2848 O   0  0  0  0  0  0  0  0  0  0  0  0
    9.4810  -15.5547   26.5036 N   0  0  0  0  0  0  0  0  0  0  0  0
    9.2222  -14.1823   26.9815 C   0  0  0  0  0  0  0  0  0  0  0  0
   10.6681  -13.7284   27.2236 C   0  0  0  0  0  0  0  0  0  0  0  0
   11.2673  -14.9719   27.8457 C   0  0  0  0  0  0  0  0  0  0  0  0
   10.3052  -16.1050   27.5590 C   0  0  1  0  0  0  0  0  0  0  0  0
    9.4837  -16.4621   28.7543 C   0  0  0  0  0  0  0  0  0  0  0  0
    9.9836  -17.0686   29.7283 O   0  0  0  0  0  0  0  0  0  0  0  0
    8.1430  -16.1269   28.8091 O   0  0  0  0  0  0  0  0  0  0  0  0
  2  1  1  0
  3  2  2  0
  4  2  1  0
  5  4  1  0
  5  6  1  6
  7  5  1  0
  7  8  2  0
  9  7  1  0
 10  9  1  0
 10 11  1  1
 11 12  1  0
 12 13  2  0
 12 17  1  0
 13 14  1  0
 14 15  2  0
 16 15  1  0
 17 16  2  0
 18 10  1  0
 19 18  2  0
 20 18  1  0
 20 24  1  0
 21 22  1  0
 21 20  1  0
 22 23  1  0
 23 24  1  0
 24 25  1  1
 25 27  1  0
 26 25  2  0
M  END
$$$$
