NFP.pdb
     RDKit          3D

 27 28  0  0  1  0  0  0  0  0999 V2000
   13.2393  -17.5632   18.9085 N   0  0  0  0  0  0  0  0  0  0  0  0
   11.8772  -17.4102   19.2318 C   0  0  0  0  0  0  0  0  0  0  0  0
   11.0321  -18.2002   18.7500 O   0  0  0  0  0  0  0  0  0  0  0  0
   11.3722  -16.3362   20.1364 C   0  0  0  0  0  0  0  0  0  0  0  0
   10.8556  -17.0114   21.3782 C   0  0  2  0  0  0  0  0  0  0  0  0
    9.7643  -17.8779   21.0258 N   0  0  0  0  0  0  0  0  0  0  0  0
   10.4798  -16.0401   22.4386 C   0  0  0  0  0  0  0  0  0  0  0  0
   11.4011  -15.3037   22.8867 O   0  0  0  0  0  0  0  0  0  0  0  0
    9.1579  -15.9393   22.9271 N   0  0  0  0  0  0  0  0  0  0  0  0
    8.9162  -15.1647   24.1306 C   0  0  1  0  0  0  0  0  0  0  0  0
    7.4940  -14.6441   23.9822 C   0  0  0  0  0  0  0  0  0  0  0  0
    7.1565  -13.8444   25.1872 C   0  0  0  0  0  0  0  0  0  0  0  0
    7.4804  -12.4983   25.2807 C   0  0  0  0  0  0  0  0  0  0  0  0
    7.1612  -11.7553   26.4123 C   0  0  0  0  0  0  0  0  0  0  0  0
    6.5087  -12.3499   27.4762 C   0  0  0  0  0  0  0  0  0  0  0  0
    6.1787  -13.6851   27.4025 C   0  0  0  0  0  0  0  0  0  0  0  0
    6.5028  -14.3983   26.2775 C   0  0  0  0  0  0  0  0  0  0  0  0
    9.0744  -15.9803   25.3506 C   0  0  0  0  0  0  0  0  0  0  0  0
    8.6873  -17.1945   25.2490 O   0  0  0  0  0  0  0  0  0  0  0  0
    9.5947  -15.5672   26.5782 N   0  0  0  0  0  0  0  0  0  0  0  0
    9.3764  -14.2264   27.1555 C   0  0  0  0  0  0  0  0  0  0  0  0
   10.8364  -13.8232   27.4027 C   0  0  0  0  0  0  0  0  0  0  0  0
   11.4161  -15.1206   27.9254 C   0  0  0  0  0  0  0  0  0  0  0  0
   10.4228  -16.2088   27.5776 C   0  0  1  0  0  0  0  0  0  0  0  0
    9.6128  -16.6305   28.7596 C   0  0  0  0  0  0  0  0  0  0  0  0
    8.4192  -16.2766   28.8887 O   0  0  0  0  0  0  0  0  0  0  0  0
   10.1702  -17.4272   29.7432 O   0  0  0  0  0  0  0  0  0  0  0  0
  2  1  1  0
  3  2  2  0
  4  2  1  0
  5  4  1  0
  5  6  1  6
  7  5  1  0
  7  8  2  0
  9  7  1  0
 10  9  1  0
 10 11  1  6
 11 12  1  0
 12 13  2  0
 12 17  1  0
 13 14  1  0
 14 15  2  0
 16 15  1  0
 17 16  2  0
 18 10  1  0
 19 18  2  0
 20 18  1  0
 20 24  1  0
 21 22  1  0
 21 20  1  0
 22 23  1  0
 23 24  1  0
 24 25  1  1
 25 27  1  0
 26 25  2  0
M  END
$$$$
