NFP.pdb
     RDKit          3D

 27 28  0  0  1  0  0  0  0  0999 V2000
   13.5287  -18.0019   19.3189 N   0  0  0  0  0  0  0  0  0  0  0  0
   12.2042  -17.5252   19.3584 C   0  0  0  0  0  0  0  0  0  0  0  0
   11.3436  -18.0184   18.5925 O   0  0  0  0  0  0  0  0  0  0  0  0
   11.7577  -16.4413   20.2818 C   0  0  0  0  0  0  0  0  0  0  0  0
   11.0584  -17.1056   21.4371 C   0  0  2  0  0  0  0  0  0  0  0  0
    9.9326  -17.8503   20.9431 N   0  0  0  0  0  0  0  0  0  0  0  0
   10.6693  -16.1394   22.4973 C   0  0  0  0  0  0  0  0  0  0  0  0
   11.6030  -15.4923   23.0465 O   0  0  0  0  0  0  0  0  0  0  0  0
    9.3223  -15.9481   22.8782 N   0  0  0  0  0  0  0  0  0  0  0  0
    9.0389  -15.1862   24.0807 C   0  0  1  0  0  0  0  0  0  0  0  0
    7.5936  -14.7354   23.9271 C   0  0  0  0  0  0  0  0  0  0  0  0
    7.2607  -13.8270   25.0539 C   0  0  0  0  0  0  0  0  0  0  0  0
    7.6322  -12.4900   25.0440 C   0  0  0  0  0  0  0  0  0  0  0  0
    7.3172  -11.6449   26.1027 C   0  0  0  0  0  0  0  0  0  0  0  0
    6.6209  -12.1257   27.1959 C   0  0  0  0  0  0  0  0  0  0  0  0
    6.2433  -13.4499   27.2244 C   0  0  0  0  0  0  0  0  0  0  0  0
    6.5643  -14.2651   26.1701 C   0  0  0  0  0  0  0  0  0  0  0  0
    9.2321  -15.9932   25.3014 C   0  0  0  0  0  0  0  0  0  0  0  0
    8.9997  -17.2436   25.1712 O   0  0  0  0  0  0  0  0  0  0  0  0
    9.6362  -15.5371   26.5573 N   0  0  0  0  0  0  0  0  0  0  0  0
    9.2520  -14.2279   27.1203 C   0  0  0  0  0  0  0  0  0  0  0  0
   10.6476  -13.6828   27.4525 C   0  0  0  0  0  0  0  0  0  0  0  0
   11.3222  -14.9189   28.0088 C   0  0  0  0  0  0  0  0  0  0  0  0
   10.4644  -16.0985   27.6037 C   0  0  1  0  0  0  0  0  0  0  0  0
    9.6328  -16.6053   28.7363 C   0  0  0  0  0  0  0  0  0  0  0  0
   10.1598  -17.0808   29.7671 O   0  0  0  0  0  0  0  0  0  0  0  0
    8.2522  -16.5589   28.6679 O   0  0  0  0  0  0  0  0  0  0  0  0
  2  1  1  0
  3  2  2  0
  4  2  1  0
  5  4  1  0
  5  6  1  6
  7  5  1  0
  7  8  2  0
  9  7  1  0
 10  9  1  0
 10 11  1  6
 11 12  1  0
 12 13  2  0
 12 17  1  0
 13 14  1  0
 14 15  2  0
 16 15  1  0
 17 16  2  0
 18 10  1  0
 19 18  2  0
 20 18  1  0
 20 24  1  0
 21 22  1  0
 21 20  1  0
 22 23  1  0
 23 24  1  0
 24 25  1  1
 25 27  1  0
 26 25  2  0
M  END
$$$$
