LNT.pdb
     RDKit          3D

 24 23  0  0  1  0  0  0  0  0999 V2000
    9.5559  -13.2476   19.4909 C   0  0  0  0  0  0  0  0  0  0  0  0
    8.0384  -13.3599   19.6356 C   0  0  2  0  0  0  0  0  0  0  0  0
    7.4978  -11.9657   19.7264 C   0  0  0  0  0  0  0  0  0  0  0  0
    7.7632  -14.2206   20.8268 C   0  0  0  0  0  0  0  0  0  0  0  0
    8.2920  -15.6211   20.7089 C   0  0  2  0  0  0  0  0  0  0  0  0
    7.4901  -16.3454   19.7679 N   0  0  0  0  0  0  0  0  0  0  0  0
    8.2545  -16.2211   22.0684 C   0  0  0  0  0  0  0  0  0  0  0  0
    7.2012  -16.4268   22.6864 O   0  0  0  0  0  0  0  0  0  0  0  0
    8.9615  -19.3919   22.4333 N   0  0  0  0  0  0  0  0  0  0  0  0
   10.1161  -19.4035   23.2502 C   0  0  0  0  0  0  0  0  0  0  0  0
   10.7972  -20.4675   23.2584 O   0  0  0  0  0  0  0  0  0  0  0  0
   10.5163  -18.2486   24.0527 C   0  0  0  0  0  0  0  0  0  0  0  0
    9.5565  -17.1030   24.0310 C   0  0  2  0  0  0  0  0  0  0  0  0
    9.4879  -16.5734   22.6835 N   0  0  0  0  0  0  0  0  0  0  0  0
    9.9205  -16.0178   24.9565 C   0  0  0  0  0  0  0  0  0  0  0  0
   10.9962  -15.3830   24.8154 O   0  0  0  0  0  0  0  0  0  0  0  0
    8.4551  -12.4817   27.9809 C   0  0  0  0  0  0  0  0  0  0  0  0
    8.1663  -13.7241   27.2047 C   0  0  1  0  0  0  0  0  0  0  0  0
    7.5272  -13.3563   26.0259 O   0  0  0  0  0  0  0  0  0  0  0  0
    9.4147  -14.5341   26.9278 C   0  0  2  0  0  0  0  0  0  0  0  0
    9.0882  -15.6338   26.0444 N   0  0  0  0  0  0  0  0  0  0  0  0
   10.0408  -15.0393   28.1567 C   0  0  0  0  0  0  0  0  0  0  0  0
    9.9320  -16.2567   28.4431 O   0  0  0  0  0  0  0  0  0  0  0  0
   10.7554  -14.2391   29.0320 O   0  0  0  0  0  0  0  0  0  0  0  0
  2  1  1  1
  3  2  1  0
  4  2  1  0
  4  5  1  0
  5  7  1  0
  5  6  1  6
  7  8  2  0
  9 10  1  0
 10 12  1  0
 11 10  2  0
 13 12  1  6
 14 13  1  0
 14  7  1  0
 15 13  1  0
 16 15  2  0
 18 17  1  6
 19 18  1  0
 20 21  1  6
 20 18  1  0
 21 15  1  0
 22 24  1  0
 22 20  1  0
 23 22  2  0
M  END
$$$$
