LNT.pdb
     RDKit          3D

 24 23  0  0  1  0  0  0  0  0999 V2000
    9.3004  -12.5591   19.4454 C   0  0  0  0  0  0  0  0  0  0  0  0
    8.0061  -13.3643   19.5579 C   0  0  2  0  0  0  0  0  0  0  0  0
    6.8712  -12.4105   19.3423 C   0  0  0  0  0  0  0  0  0  0  0  0
    8.0135  -14.0429   20.8901 C   0  0  0  0  0  0  0  0  0  0  0  0
    9.2117  -14.9161   21.1288 C   0  0  2  0  0  0  0  0  0  0  0  0
    9.2851  -15.9020   20.0915 N   0  0  0  0  0  0  0  0  0  0  0  0
    9.0536  -15.5207   22.4776 C   0  0  0  0  0  0  0  0  0  0  0  0
    8.0950  -15.2708   23.2209 O   0  0  0  0  0  0  0  0  0  0  0  0
   11.2451  -19.8734   22.3392 N   0  0  0  0  0  0  0  0  0  0  0  0
   10.3742  -19.2913   23.2896 C   0  0  0  0  0  0  0  0  0  0  0  0
    9.1751  -19.6887   23.2817 O   0  0  0  0  0  0  0  0  0  0  0  0
   10.8237  -18.2772   24.2423 C   0  0  0  0  0  0  0  0  0  0  0  0
   10.0152  -17.0201   24.2528 C   0  0  2  0  0  0  0  0  0  0  0  0
   10.0520  -16.4270   22.9307 N   0  0  0  0  0  0  0  0  0  0  0  0
   10.4849  -16.0312   25.2369 C   0  0  0  0  0  0  0  0  0  0  0  0
   11.5411  -15.3782   25.0419 O   0  0  0  0  0  0  0  0  0  0  0  0
    9.0287  -12.8383   26.4091 C   0  0  0  0  0  0  0  0  0  0  0  0
    9.1593  -13.7331   27.5972 C   0  0  1  0  0  0  0  0  0  0  0  0
    7.9174  -14.3094   27.8405 O   0  0  0  0  0  0  0  0  0  0  0  0
   10.2308  -14.7859   27.4112 C   0  0  2  0  0  0  0  0  0  0  0  0
    9.7807  -15.7645   26.4438 N   0  0  0  0  0  0  0  0  0  0  0  0
   10.5930  -15.4477   28.6715 C   0  0  0  0  0  0  0  0  0  0  0  0
   10.4226  -16.6865   28.7831 O   0  0  0  0  0  0  0  0  0  0  0  0
   11.1198  -14.7753   29.7611 O   0  0  0  0  0  0  0  0  0  0  0  0
  2  1  1  1
  3  2  1  0
  4  2  1  0
  4  5  1  0
  5  7  1  0
  5  6  1  6
  7  8  2  0
  9 10  1  0
 10 12  1  0
 11 10  2  0
 13 12  1  6
 14 13  1  0
 14  7  1  0
 15 13  1  0
 16 15  2  0
 18 17  1  6
 19 18  1  0
 20 21  1  6
 20 18  1  0
 21 15  1  0
 22 24  1  0
 22 20  1  0
 23 22  2  0
M  END
$$$$
