LNT.pdb
     RDKit          3D

 24 23  0  0  1  0  0  0  0  0999 V2000
    9.8743  -13.2226   19.3672 C   0  0  0  0  0  0  0  0  0  0  0  0
    8.3677  -13.4699   19.4396 C   0  0  2  0  0  0  0  0  0  0  0  0
    7.7091  -12.1381   19.6314 C   0  0  0  0  0  0  0  0  0  0  0  0
    8.1264  -14.4554   20.5377 C   0  0  0  0  0  0  0  0  0  0  0  0
    8.8855  -15.7422   20.3868 C   0  0  2  0  0  0  0  0  0  0  0  0
    8.2206  -16.5664   19.4214 N   0  0  0  0  0  0  0  0  0  0  0  0
    8.9470  -16.3765   21.7298 C   0  0  0  0  0  0  0  0  0  0  0  0
    7.9623  -16.8869   22.2808 O   0  0  0  0  0  0  0  0  0  0  0  0
   13.0956  -19.0631   25.2567 N   0  0  0  0  0  0  0  0  0  0  0  0
   11.7816  -18.7328   24.8504 C   0  0  0  0  0  0  0  0  0  0  0  0
   10.8410  -19.1064   25.6065 O   0  0  0  0  0  0  0  0  0  0  0  0
   11.5076  -17.9952   23.6180 C   0  0  0  0  0  0  0  0  0  0  0  0
   10.3658  -17.0341   23.6994 C   0  0  2  0  0  0  0  0  0  0  0  0
   10.1967  -16.3954   22.4093 N   0  0  0  0  0  0  0  0  0  0  0  0
   10.5461  -15.9980   24.7293 C   0  0  0  0  0  0  0  0  0  0  0  0
   11.5470  -15.2378   24.7116 O   0  0  0  0  0  0  0  0  0  0  0  0
    8.5688  -12.8280   27.8131 C   0  0  0  0  0  0  0  0  0  0  0  0
    8.4389  -14.0622   26.9829 C   0  0  1  0  0  0  0  0  0  0  0  0
    7.8624  -13.7054   25.7688 O   0  0  0  0  0  0  0  0  0  0  0  0
    9.7650  -14.7634   26.7808 C   0  0  2  0  0  0  0  0  0  0  0  0
    9.6124  -15.8030   25.7848 N   0  0  0  0  0  0  0  0  0  0  0  0
   10.2970  -15.3294   28.0275 C   0  0  0  0  0  0  0  0  0  0  0  0
   10.1005  -16.5431   28.2813 O   0  0  0  0  0  0  0  0  0  0  0  0
   11.0138  -14.5915   28.9542 O   0  0  0  0  0  0  0  0  0  0  0  0
  2  1  1  1
  3  2  1  0
  4  2  1  0
  4  5  1  0
  5  7  1  0
  5  6  1  6
  7  8  2  0
  9 10  1  0
 10 12  1  0
 11 10  2  0
 13 12  1  6
 14 13  1  0
 14  7  1  0
 15 13  1  0
 16 15  2  0
 18 17  1  1
 19 18  1  0
 20 21  1  6
 20 18  1  0
 21 15  1  0
 22 24  1  0
 22 20  1  0
 23 22  2  0
M  END
$$$$
