LNT.pdb
     RDKit          3D

 24 23  0  0  1  0  0  0  0  0999 V2000
    9.5900  -13.2789   19.1753 C   0  0  0  0  0  0  0  0  0  0  0  0
    8.0873  -13.5008   19.0054 C   0  0  2  0  0  0  0  0  0  0  0  0
    7.4561  -12.1519   18.8432 C   0  0  0  0  0  0  0  0  0  0  0  0
    7.6115  -14.2802   20.1893 C   0  0  0  0  0  0  0  0  0  0  0  0
    8.2294  -15.6428   20.3171 C   0  0  2  0  0  0  0  0  0  0  0  0
    7.6249  -16.5214   19.3600 N   0  0  0  0  0  0  0  0  0  0  0  0
    8.0150  -16.0933   21.7174 C   0  0  0  0  0  0  0  0  0  0  0  0
    6.8942  -16.3415   22.1822 O   0  0  0  0  0  0  0  0  0  0  0  0
   11.4120  -18.1767   26.3500 N   0  0  0  0  0  0  0  0  0  0  0  0
   10.1738  -17.9929   25.6915 C   0  0  0  0  0  0  0  0  0  0  0  0
    9.1303  -18.1634   26.3828 O   0  0  0  0  0  0  0  0  0  0  0  0
   10.0879  -17.6233   24.2794 C   0  0  0  0  0  0  0  0  0  0  0  0
    9.0377  -16.6100   23.9560 C   0  0  2  0  0  0  0  0  0  0  0  0
    9.1525  -16.2446   22.5580 N   0  0  0  0  0  0  0  0  0  0  0  0
    9.1259  -15.3935   24.7800 C   0  0  0  0  0  0  0  0  0  0  0  0
   10.1317  -14.6423   24.7164 O   0  0  0  0  0  0  0  0  0  0  0  0
    6.8689  -11.8039   27.2089 C   0  0  0  0  0  0  0  0  0  0  0  0
    6.8317  -13.1089   26.4843 C   0  0  1  0  0  0  0  0  0  0  0  0
    6.3912  -12.8686   25.1876 O   0  0  0  0  0  0  0  0  0  0  0  0
    8.1727  -13.8110   26.4919 C   0  0  2  0  0  0  0  0  0  0  0  0
    8.0939  -15.0069   25.6797 N   0  0  0  0  0  0  0  0  0  0  0  0
    8.6228  -14.1480   27.8488 C   0  0  0  0  0  0  0  0  0  0  0  0
    8.3713  -15.2876   28.3116 O   0  0  0  0  0  0  0  0  0  0  0  0
    9.3192  -13.2689   28.6608 O   0  0  0  0  0  0  0  0  0  0  0  0
  2  1  1  1
  3  2  1  0
  4  2  1  0
  4  5  1  0
  5  7  1  0
  5  6  1  6
  7  8  2  0
  9 10  1  0
 10 12  1  0
 11 10  2  0
 13 12  1  1
 14 13  1  0
 14  7  1  0
 15 13  1  0
 16 15  2  0
 18 17  1  1
 19 18  1  0
 20 21  1  6
 20 18  1  0
 21 15  1  0
 22 24  1  0
 22 20  1  0
 23 22  2  0
M  END
$$$$
