LNT.pdb
     RDKit          3D

 24 23  0  0  1  0  0  0  0  0999 V2000
    9.0871  -12.5541   18.6618 C   0  0  0  0  0  0  0  0  0  0  0  0
    7.9844  -13.6120   18.6918 C   0  0  2  0  0  0  0  0  0  0  0  0
    6.7810  -13.0162   18.0276 C   0  0  0  0  0  0  0  0  0  0  0  0
    7.7831  -14.0109   20.1186 C   0  0  0  0  0  0  0  0  0  0  0  0
    9.0056  -14.5848   20.7750 C   0  0  2  0  0  0  0  0  0  0  0  0
    9.5260  -15.6374   19.9537 N   0  0  0  0  0  0  0  0  0  0  0  0
    8.5978  -15.0635   22.1220 C   0  0  0  0  0  0  0  0  0  0  0  0
    7.5747  -14.6685   22.6973 O   0  0  0  0  0  0  0  0  0  0  0  0
   12.0146  -17.9644   23.0310 N   0  0  0  0  0  0  0  0  0  0  0  0
   11.2975  -17.7339   24.2282 C   0  0  0  0  0  0  0  0  0  0  0  0
   11.9774  -17.4424   25.2522 O   0  0  0  0  0  0  0  0  0  0  0  0
    9.8396  -17.8245   24.2947 C   0  0  0  0  0  0  0  0  0  0  0  0
    9.1181  -16.5304   24.0973 C   0  0  2  0  0  0  0  0  0  0  0  0
    9.4242  -16.0189   22.7760 N   0  0  0  0  0  0  0  0  0  0  0  0
    9.4634  -15.5097   25.1002 C   0  0  0  0  0  0  0  0  0  0  0  0
   10.5321  -14.8541   25.0121 O   0  0  0  0  0  0  0  0  0  0  0  0
    7.6648  -12.3138   26.0546 C   0  0  0  0  0  0  0  0  0  0  0  0
    7.7517  -13.2109   27.2450 C   0  0  1  0  0  0  0  0  0  0  0  0
    6.5449  -13.8921   27.3594 O   0  0  0  0  0  0  0  0  0  0  0  0
    8.9214  -14.1679   27.1615 C   0  0  2  0  0  0  0  0  0  0  0  0
    8.6199  -15.2138   26.2069 N   0  0  0  0  0  0  0  0  0  0  0  0
    9.2624  -14.7535   28.4647 C   0  0  0  0  0  0  0  0  0  0  0  0
    9.1644  -15.9951   28.6222 O   0  0  0  0  0  0  0  0  0  0  0  0
    9.6924  -14.0048   29.5472 O   0  0  0  0  0  0  0  0  0  0  0  0
  2  1  1  1
  3  2  1  0
  4  2  1  0
  4  5  1  0
  5  7  1  0
  5  6  1  6
  7  8  2  0
  9 10  1  0
 10 12  1  0
 11 10  2  0
 13 12  1  1
 14 13  1  0
 14  7  1  0
 15 13  1  0
 16 15  2  0
 18 17  1  6
 19 18  1  0
 20 21  1  6
 20 18  1  0
 21 15  1  0
 22 24  1  0
 22 20  1  0
 23 22  2  0
M  END
$$$$
