LNT.pdb
     RDKit          3D

 24 23  0  0  1  0  0  0  0  0999 V2000
    7.7960  -12.4190   20.5582 C   0  0  0  0  0  0  0  0  0  0  0  0
    8.7166  -13.3791   19.8053 C   0  0  2  0  0  0  0  0  0  0  0  0
    9.4498  -12.5742   18.7763 C   0  0  0  0  0  0  0  0  0  0  0  0
    7.8660  -14.4789   19.2554 C   0  0  0  0  0  0  0  0  0  0  0  0
    8.2612  -15.8518   19.7180 C   0  0  2  0  0  0  0  0  0  0  0  0
    8.0634  -15.9424   21.1343 N   0  0  0  0  0  0  0  0  0  0  0  0
    9.6811  -16.0555   19.3281 C   0  0  0  0  0  0  0  0  0  0  0  0
   10.1356  -15.7086   18.2295 O   0  0  0  0  0  0  0  0  0  0  0  0
   13.0974  -14.8934   17.9037 N   0  0  0  0  0  0  0  0  0  0  0  0
   13.0990  -14.6081   19.2890 C   0  0  0  0  0  0  0  0  0  0  0  0
   14.2040  -14.2699   19.7995 O   0  0  0  0  0  0  0  0  0  0  0  0
   11.8892  -14.6955   20.1056 C   0  0  0  0  0  0  0  0  0  0  0  0
   11.7041  -15.9949   20.8208 C   0  0  2  0  0  0  0  0  0  0  0  0
   10.5538  -16.6781   20.2632 N   0  0  0  0  0  0  0  0  0  0  0  0
   11.5154  -15.8413   22.2725 C   0  0  0  0  0  0  0  0  0  0  0  0
   12.4243  -15.3579   22.9939 O   0  0  0  0  0  0  0  0  0  0  0  0
    8.3923  -14.3369   24.1763 C   0  0  0  0  0  0  0  0  0  0  0  0
    8.7085  -15.7127   24.6625 C   0  0  1  0  0  0  0  0  0  0  0  0
    7.7991  -16.5925   24.0858 O   0  0  0  0  0  0  0  0  0  0  0  0
   10.1359  -16.1167   24.3616 C   0  0  2  0  0  0  0  0  0  0  0  0
   10.3131  -16.2254   22.9288 N   0  0  0  0  0  0  0  0  0  0  0  0
   10.5133  -17.3761   25.0165 C   0  0  0  0  0  0  0  0  0  0  0  0
   10.6119  -17.4097   26.2676 O   0  0  0  0  0  0  0  0  0  0  0  0
   10.7709  -18.5473   24.3244 O   0  0  0  0  0  0  0  0  0  0  0  0
  2  1  1  6
  3  2  1  0
  4  2  1  0
  4  5  1  0
  5  7  1  0
  5  6  1  1
  7  8  2  0
  9 10  1  0
 10 12  1  0
 11 10  2  0
 13 12  1  6
 14 13  1  0
 14  7  1  0
 15 13  1  0
 16 15  2  0
 18 17  1  6
 19 18  1  0
 20 21  1  6
 20 18  1  0
 21 15  1  0
 22 24  1  0
 22 20  1  0
 23 22  2  0
M  END
$$$$
