LNT.pdb
     RDKit          3D

 24 23  0  0  1  0  0  0  0  0999 V2000
    9.5829  -13.0163   19.5094 C   0  0  0  0  0  0  0  0  0  0  0  0
    8.0919  -13.3130   19.6684 C   0  0  2  0  0  0  0  0  0  0  0  0
    7.4053  -12.0064   19.9245 C   0  0  0  0  0  0  0  0  0  0  0  0
    7.9490  -14.3239   20.7607 C   0  0  0  0  0  0  0  0  0  0  0  0
    8.6677  -15.6164   20.5003 C   0  0  2  0  0  0  0  0  0  0  0  0
    7.8992  -16.4008   19.5798 N   0  0  0  0  0  0  0  0  0  0  0  0
    8.8464  -16.2923   21.8122 C   0  0  0  0  0  0  0  0  0  0  0  0
    7.9053  -16.7754   22.4560 O   0  0  0  0  0  0  0  0  0  0  0  0
   13.3424  -18.9917   24.9429 N   0  0  0  0  0  0  0  0  0  0  0  0
   11.9934  -18.6837   24.6494 C   0  0  0  0  0  0  0  0  0  0  0  0
   11.1264  -19.0721   25.4822 O   0  0  0  0  0  0  0  0  0  0  0  0
   11.6039  -17.9520   23.4449 C   0  0  0  0  0  0  0  0  0  0  0  0
   10.4349  -17.0361   23.6143 C   0  0  2  0  0  0  0  0  0  0  0  0
   10.1607  -16.3856   22.3484 N   0  0  0  0  0  0  0  0  0  0  0  0
   10.6421  -16.0089   24.6481 C   0  0  0  0  0  0  0  0  0  0  0  0
   11.5537  -15.1513   24.5322 O   0  0  0  0  0  0  0  0  0  0  0  0
    7.5753  -14.5148   26.9262 C   0  0  0  0  0  0  0  0  0  0  0  0
    8.9278  -13.9025   26.7674 C   0  0  1  0  0  0  0  0  0  0  0  0
    9.0744  -12.9238   27.7442 O   0  0  0  0  0  0  0  0  0  0  0  0
   10.0378  -14.9290   26.8417 C   0  0  2  0  0  0  0  0  0  0  0  0
    9.8349  -15.9315   25.8170 N   0  0  0  0  0  0  0  0  0  0  0  0
   10.1277  -15.5647   28.1627 C   0  0  0  0  0  0  0  0  0  0  0  0
    9.7981  -16.7699   28.2856 O   0  0  0  0  0  0  0  0  0  0  0  0
   10.5613  -14.9027   29.2988 O   0  0  0  0  0  0  0  0  0  0  0  0
  2  1  1  1
  3  2  1  0
  4  2  1  0
  4  5  1  0
  5  7  1  0
  5  6  1  6
  7  8  2  0
  9 10  1  0
 10 12  1  0
 11 10  2  0
 13 12  1  6
 14 13  1  0
 14  7  1  0
 15 13  1  0
 16 15  2  0
 18 17  1  1
 19 18  1  0
 20 21  1  6
 20 18  1  0
 21 15  1  0
 22 24  1  0
 22 20  1  0
 23 22  2  0
M  END
$$$$
