LNT.pdb
     RDKit          3D

 24 23  0  0  1  0  0  0  0  0999 V2000
    9.4752  -13.2552   19.4892 C   0  0  0  0  0  0  0  0  0  0  0  0
    7.9789  -13.3906   19.7701 C   0  0  2  0  0  0  0  0  0  0  0  0
    7.4105  -12.0054   19.8199 C   0  0  0  0  0  0  0  0  0  0  0  0
    7.8281  -14.1786   21.0318 C   0  0  0  0  0  0  0  0  0  0  0  0
    8.4105  -15.5612   20.9666 C   0  0  2  0  0  0  0  0  0  0  0  0
    7.5823  -16.3778   20.1295 N   0  0  0  0  0  0  0  0  0  0  0  0
    8.4886  -16.0716   22.3605 C   0  0  0  0  0  0  0  0  0  0  0  0
    7.4876  -16.3525   23.0333 O   0  0  0  0  0  0  0  0  0  0  0  0
   12.5143  -19.0751   25.7691 N   0  0  0  0  0  0  0  0  0  0  0  0
   11.2139  -18.6887   25.3690 C   0  0  0  0  0  0  0  0  0  0  0  0
   10.2626  -19.0133   26.1343 O   0  0  0  0  0  0  0  0  0  0  0  0
   10.9649  -17.9490   24.1325 C   0  0  0  0  0  0  0  0  0  0  0  0
    9.9576  -16.8506   24.2472 C   0  0  2  0  0  0  0  0  0  0  0  0
    9.7747  -16.2433   22.9438 N   0  0  0  0  0  0  0  0  0  0  0  0
   10.3371  -15.8082   25.2147 C   0  0  0  0  0  0  0  0  0  0  0  0
   11.2497  -14.9849   24.9516 O   0  0  0  0  0  0  0  0  0  0  0  0
    8.3606  -12.9788   26.3970 C   0  0  0  0  0  0  0  0  0  0  0  0
    8.7388  -13.7673   27.6071 C   0  0  1  0  0  0  0  0  0  0  0  0
    7.6574  -14.5702   27.9528 O   0  0  0  0  0  0  0  0  0  0  0  0
    9.9914  -14.5893   27.3914 C   0  0  2  0  0  0  0  0  0  0  0  0
    9.7019  -15.6771   26.4809 N   0  0  0  0  0  0  0  0  0  0  0  0
   10.5432  -15.1128   28.6480 C   0  0  0  0  0  0  0  0  0  0  0  0
   10.6057  -16.3550   28.8183 O   0  0  0  0  0  0  0  0  0  0  0  0
   11.0059  -14.3041   29.6722 O   0  0  0  0  0  0  0  0  0  0  0  0
  2  1  1  1
  3  2  1  0
  4  2  1  0
  4  5  1  0
  5  7  1  0
  5  6  1  6
  7  8  2  0
  9 10  1  0
 10 12  1  0
 11 10  2  0
 13 12  1  6
 14 13  1  0
 14  7  1  0
 15 13  1  0
 16 15  2  0
 18 17  1  6
 19 18  1  0
 20 21  1  6
 20 18  1  0
 21 15  1  0
 22 24  1  0
 22 20  1  0
 23 22  2  0
M  END
$$$$
