LNT.pdb
     RDKit          3D

 24 23  0  0  1  0  0  0  0  0999 V2000
    7.4158  -12.2244   20.4784 C   0  0  0  0  0  0  0  0  0  0  0  0
    8.1569  -13.4661   19.9830 C   0  0  2  0  0  0  0  0  0  0  0  0
    8.1968  -13.3906   18.4874 C   0  0  0  0  0  0  0  0  0  0  0  0
    7.4487  -14.6618   20.5343 C   0  0  0  0  0  0  0  0  0  0  0  0
    7.3717  -14.6939   22.0337 C   0  0  2  0  0  0  0  0  0  0  0  0
    7.8183  -13.4345   22.5512 N   0  0  0  0  0  0  0  0  0  0  0  0
    8.2149  -15.8286   22.4931 C   0  0  0  0  0  0  0  0  0  0  0  0
    8.0340  -16.9967   22.1235 O   0  0  0  0  0  0  0  0  0  0  0  0
   11.0907  -19.5922   23.5799 N   0  0  0  0  0  0  0  0  0  0  0  0
   11.7383  -18.3538   23.3619 C   0  0  0  0  0  0  0  0  0  0  0  0
   12.9903  -18.3287   23.5289 O   0  0  0  0  0  0  0  0  0  0  0  0
   11.0091  -17.1511   22.9621 C   0  0  0  0  0  0  0  0  0  0  0  0
   10.0754  -16.6078   23.9952 C   0  0  2  0  0  0  0  0  0  0  0  0
    9.2769  -15.5550   23.3992 N   0  0  0  0  0  0  0  0  0  0  0  0
   10.7632  -16.0761   25.1830 C   0  0  0  0  0  0  0  0  0  0  0  0
   11.8529  -15.4589   25.0755 O   0  0  0  0  0  0  0  0  0  0  0  0
   10.2441  -13.2775   27.1308 C   0  0  0  0  0  0  0  0  0  0  0  0
   10.0855  -14.4139   28.0862 C   0  0  1  0  0  0  0  0  0  0  0  0
    8.7282  -14.6928   28.2018 O   0  0  0  0  0  0  0  0  0  0  0  0
   10.8677  -15.6381   27.6610 C   0  0  2  0  0  0  0  0  0  0  0  0
   10.2408  -16.2289   26.4974 N   0  0  0  0  0  0  0  0  0  0  0  0
   10.9823  -16.6328   28.7356 C   0  0  0  0  0  0  0  0  0  0  0  0
   10.4431  -17.7570   28.5889 O   0  0  0  0  0  0  0  0  0  0  0  0
   11.6608  -16.4001   29.9199 O   0  0  0  0  0  0  0  0  0  0  0  0
  2  1  1  1
  3  2  1  0
  4  2  1  0
  4  5  1  0
  5  7  1  0
  5  6  1  1
  7  8  2  0
  9 10  1  0
 10 12  1  0
 11 10  2  0
 13 12  1  6
 14 13  1  0
 14  7  1  0
 15 13  1  0
 16 15  2  0
 18 17  1  6
 19 18  1  0
 20 21  1  6
 20 18  1  0
 21 15  1  0
 22 24  1  0
 22 20  1  0
 23 22  2  0
M  END
$$$$
