YLR.pdb
     RDKit          3D

 32 32  0  0  1  0  0  0  0  0999 V2000
   18.8496  -21.9234   -8.8228 O   0  0  0  0  0  0  0  0  0  0  0  0
   19.9644  -21.4545   -9.4886 C   0  0  0  0  0  0  0  0  0  0  0  0
   19.9500  -21.1949  -10.8597 C   0  0  0  0  0  0  0  0  0  0  0  0
   21.1071  -20.7256  -11.4605 C   0  0  0  0  0  0  0  0  0  0  0  0
   22.2665  -20.5078  -10.7510 C   0  0  0  0  0  0  0  0  0  0  0  0
   23.4884  -20.0108  -11.3915 C   0  0  0  0  0  0  0  0  0  0  0  0
   23.9254  -20.8553  -12.5741 C   0  0  2  0  0  0  0  0  0  0  0  0
   24.1570  -22.1996  -12.0695 N   0  0  0  0  0  0  0  0  0  0  0  0
   25.2561  -20.3384  -13.0184 C   0  0  0  0  0  0  0  0  0  0  0  0
   25.3016  -19.1345  -13.3819 O   0  0  0  0  0  0  0  0  0  0  0  0
   22.2624  -20.7699   -9.3967 C   0  0  0  0  0  0  0  0  0  0  0  0
   21.1158  -21.2407   -8.7709 C   0  0  0  0  0  0  0  0  0  0  0  0
   29.9764  -21.8860  -10.8182 C   0  0  0  0  0  0  0  0  0  0  0  0
   28.6887  -21.5887  -11.5449 C   0  0  1  0  0  0  0  0  0  0  0  0
   27.7979  -20.8454  -10.5460 C   0  0  0  0  0  0  0  0  0  0  0  0
   28.8302  -20.7629  -12.7676 C   0  0  0  0  0  0  0  0  0  0  0  0
   27.6523  -20.6794  -13.6703 C   0  0  2  0  0  0  0  0  0  0  0  0
   26.4195  -21.1162  -13.0459 N   0  0  0  0  0  0  0  0  0  0  0  0
   27.8338  -21.3253  -14.9929 C   0  0  0  0  0  0  0  0  0  0  0  0
   27.2930  -22.4506  -15.2598 O   0  0  0  0  0  0  0  0  0  0  0  0
   33.0053  -26.6758  -17.2158 N   0  0  0  0  0  0  0  0  0  0  0  0
   33.3647  -25.3647  -17.6774 C   0  0  0  0  0  0  0  0  0  0  0  0
   34.6054  -25.0352  -17.7724 N   0  0  0  0  0  0  0  0  0  0  0  0
   32.3804  -24.4161  -18.0339 N   0  0  0  0  0  0  0  0  0  0  0  0
   30.9677  -24.6935  -17.9464 C   0  0  0  0  0  0  0  0  0  0  0  0
   30.1196  -23.4937  -18.1910 C   0  0  0  0  0  0  0  0  0  0  0  0
   29.8208  -22.6431  -17.0143 C   0  0  0  0  0  0  0  0  0  0  0  0
   28.9502  -21.4563  -17.2491 C   0  0  2  0  0  0  0  0  0  0  0  0
   28.6060  -20.7529  -16.0367 N   0  0  0  0  0  0  0  0  0  0  0  0
   27.7985  -21.6696  -18.1327 C   0  0  0  0  0  0  0  0  0  0  0  0
   28.0090  -21.5273  -19.5178 O   0  0  0  0  0  0  0  0  0  0  0  0
   26.6531  -21.9650  -17.7774 O   0  0  0  0  0  0  0  0  0  0  0  0
  2  1  1  0
  3  2  2  0
  4  3  1  0
  5  4  2  0
  5 11  1  0
  6  5  1  0
  7  6  1  0
  7  8  1  1
  9  7  1  0
  9 10  2  0
 11 12  2  0
 12  2  1  0
 14 13  1  1
 14 15  1  0
 17 16  1  1
 16 14  1  0
 17 18  1  0
 18  9  1  0
 19 17  1  0
 20 19  2  0
 21 22  1  0
 22 24  1  0
 23 22  2  0
 24 25  1  0
 25 26  1  0
 26 27  1  0
 28 27  1  1
 28 29  1  0
 29 19  1  0
 30 31  1  0
 30 28  1  0
 32 30  2  0
M  END
$$$$
