YLR.pdb
     RDKit          3D

 32 32  0  0  1  0  0  0  0  0999 V2000
   27.6302  -14.3643  -19.0395 O   0  0  0  0  0  0  0  0  0  0  0  0
   27.3523  -15.3862  -18.1538 C   0  0  0  0  0  0  0  0  0  0  0  0
   26.8473  -16.6154  -18.5803 C   0  0  0  0  0  0  0  0  0  0  0  0
   26.5921  -17.5946  -17.6338 C   0  0  0  0  0  0  0  0  0  0  0  0
   26.8197  -17.3950  -16.2908 C   0  0  0  0  0  0  0  0  0  0  0  0
   26.5482  -18.4349  -15.2932 C   0  0  0  0  0  0  0  0  0  0  0  0
   27.6932  -19.4176  -15.1320 C   0  0  2  0  0  0  0  0  0  0  0  0
   27.8450  -20.1008  -16.4071 N   0  0  0  0  0  0  0  0  0  0  0  0
   27.2506  -20.4544  -14.1501 C   0  0  0  0  0  0  0  0  0  0  0  0
   27.2527  -21.6479  -14.5495 O   0  0  0  0  0  0  0  0  0  0  0  0
   27.3189  -16.1740  -15.8875 C   0  0  0  0  0  0  0  0  0  0  0  0
   27.5831  -15.1762  -16.8162 C   0  0  0  0  0  0  0  0  0  0  0  0
   30.8977  -22.0104  -10.9097 C   0  0  0  0  0  0  0  0  0  0  0  0
   29.7012  -21.1727  -10.5340 C   0  0  1  0  0  0  0  0  0  0  0  0
   30.2341  -20.0404   -9.6520 C   0  0  0  0  0  0  0  0  0  0  0  0
   28.9602  -20.5835  -11.6745 C   0  0  0  0  0  0  0  0  0  0  0  0
   27.4807  -20.7260  -11.6689 C   0  0  2  0  0  0  0  0  0  0  0  0
   26.8458  -20.1608  -12.8427 N   0  0  0  0  0  0  0  0  0  0  0  0
   26.8143  -20.2579  -10.4294 C   0  0  0  0  0  0  0  0  0  0  0  0
   27.2804  -20.5486   -9.2769 O   0  0  0  0  0  0  0  0  0  0  0  0
   20.1385  -22.0772  -15.0562 N   0  0  0  0  0  0  0  0  0  0  0  0
   19.5893  -21.3190  -13.9679 C   0  0  0  0  0  0  0  0  0  0  0  0
   18.3917  -20.8540  -14.0492 N   0  0  0  0  0  0  0  0  0  0  0  0
   20.3380  -21.0670  -12.7966 N   0  0  0  0  0  0  0  0  0  0  0  0
   21.6794  -21.5636  -12.6113 C   0  0  0  0  0  0  0  0  0  0  0  0
   22.3144  -21.0786  -11.3543 C   0  0  0  0  0  0  0  0  0  0  0  0
   23.6586  -20.4674  -11.4848 C   0  0  0  0  0  0  0  0  0  0  0  0
   24.3137  -20.0142  -10.2249 C   0  0  2  0  0  0  0  0  0  0  0  0
   25.6343  -19.4699  -10.4329 N   0  0  0  0  0  0  0  0  0  0  0  0
   24.2524  -20.9501   -9.0967 C   0  0  0  0  0  0  0  0  0  0  0  0
   23.2904  -20.7008   -8.0991 O   0  0  0  0  0  0  0  0  0  0  0  0
   24.9677  -21.9441   -8.9356 O   0  0  0  0  0  0  0  0  0  0  0  0
  2  1  1  0
  3  2  2  0
  4  3  1  0
  5  4  2  0
  5 11  1  0
  6  5  1  0
  7  6  1  0
  7  8  1  6
  9  7  1  0
  9 10  2  0
 11 12  2  0
 12  2  1  0
 14 13  1  6
 14 15  1  0
 17 16  1  1
 16 14  1  0
 17 18  1  0
 18  9  1  0
 19 17  1  0
 20 19  2  0
 21 22  1  0
 22 24  1  0
 23 22  2  0
 24 25  1  0
 25 26  1  0
 26 27  1  0
 28 27  1  6
 28 29  1  0
 29 19  1  0
 30 31  1  0
 30 28  1  0
 32 30  2  0
M  END
$$$$
