YLR.pdb
     RDKit          3D

 32 32  0  0  1  0  0  0  0  0999 V2000
   25.3591  -33.9135  -13.4612 O   0  0  0  0  0  0  0  0  0  0  0  0
   26.4203  -33.6066  -14.2893 C   0  0  0  0  0  0  0  0  0  0  0  0
   27.5865  -33.0126  -13.8047 C   0  0  0  0  0  0  0  0  0  0  0  0
   28.6107  -32.7333  -14.6953 C   0  0  0  0  0  0  0  0  0  0  0  0
   28.5154  -33.0217  -16.0380 C   0  0  0  0  0  0  0  0  0  0  0  0
   29.6023  -32.7243  -16.9763 C   0  0  0  0  0  0  0  0  0  0  0  0
   29.7878  -31.2379  -17.2193 C   0  0  2  0  0  0  0  0  0  0  0  0
   28.6600  -30.7986  -18.0259 N   0  0  0  0  0  0  0  0  0  0  0  0
   31.0035  -31.0784  -18.0748 C   0  0  0  0  0  0  0  0  0  0  0  0
   30.8174  -31.0397  -19.3189 O   0  0  0  0  0  0  0  0  0  0  0  0
   27.3554  -33.6086  -16.4991 C   0  0  0  0  0  0  0  0  0  0  0  0
   26.3145  -33.8987  -15.6271 C   0  0  0  0  0  0  0  0  0  0  0  0
   35.4678  -27.8705  -17.0904 C   0  0  0  0  0  0  0  0  0  0  0  0
   34.4070  -28.6470  -17.8298 C   0  0  1  0  0  0  0  0  0  0  0  0
   34.4428  -28.1459  -19.2760 C   0  0  0  0  0  0  0  0  0  0  0  0
   34.5855  -30.1184  -17.8278 C   0  0  0  0  0  0  0  0  0  0  0  0
   33.4847  -30.9363  -18.4010 C   0  0  2  0  0  0  0  0  0  0  0  0
   32.3023  -30.9735  -17.5637 N   0  0  0  0  0  0  0  0  0  0  0  0
   33.8781  -32.3027  -18.8225 C   0  0  0  0  0  0  0  0  0  0  0  0
   33.3181  -33.3362  -18.3242 O   0  0  0  0  0  0  0  0  0  0  0  0
   31.4068  -36.6948  -22.9722 N   0  0  0  0  0  0  0  0  0  0  0  0
   32.1438  -37.9214  -22.8555 C   0  0  0  0  0  0  0  0  0  0  0  0
   31.9232  -38.8839  -23.6812 N   0  0  0  0  0  0  0  0  0  0  0  0
   33.1159  -38.1011  -21.8463 N   0  0  0  0  0  0  0  0  0  0  0  0
   33.3548  -37.1207  -20.8157 C   0  0  0  0  0  0  0  0  0  0  0  0
   34.2120  -35.9907  -21.2704 C   0  0  0  0  0  0  0  0  0  0  0  0
   33.9840  -34.6811  -20.6143 C   0  0  0  0  0  0  0  0  0  0  0  0
   35.1949  -33.8756  -20.2875 C   0  0  2  0  0  0  0  0  0  0  0  0
   34.8849  -32.5568  -19.7895 N   0  0  0  0  0  0  0  0  0  0  0  0
   36.2547  -33.8690  -21.3021 C   0  0  0  0  0  0  0  0  0  0  0  0
   36.7294  -32.6161  -21.7355 O   0  0  0  0  0  0  0  0  0  0  0  0
   36.7761  -34.8633  -21.8168 O   0  0  0  0  0  0  0  0  0  0  0  0
  2  1  1  0
  3  2  2  0
  4  3  1  0
  5  4  2  0
  5 11  1  0
  6  5  1  0
  7  6  1  0
  7  8  1  6
  9  7  1  0
  9 10  2  0
 11 12  2  0
 12  2  1  0
 14 13  1  1
 14 15  1  0
 17 16  1  1
 16 14  1  0
 17 18  1  0
 18  9  1  0
 19 17  1  0
 20 19  2  0
 21 22  1  0
 22 24  1  0
 23 22  2  0
 24 25  1  0
 25 26  1  0
 26 27  1  0
 28 27  1  6
 28 29  1  0
 29 19  1  0
 30 31  1  0
 30 28  1  0
 32 30  2  0
M  END
$$$$
