YLR.pdb
     RDKit          3D

 32 32  0  0  1  0  0  0  0  0999 V2000
   25.7101  -11.6183  -17.5777 O   0  0  0  0  0  0  0  0  0  0  0  0
   25.6400  -12.9131  -17.1038 C   0  0  0  0  0  0  0  0  0  0  0  0
   25.3632  -13.9923  -17.9442 C   0  0  0  0  0  0  0  0  0  0  0  0
   25.3085  -15.2645  -17.3978 C   0  0  0  0  0  0  0  0  0  0  0  0
   25.5177  -15.4975  -16.0572 C   0  0  0  0  0  0  0  0  0  0  0  0
   25.4591  -16.8459  -15.4839 C   0  0  0  0  0  0  0  0  0  0  0  0
   26.8302  -17.4342  -15.2068 C   0  0  2  0  0  0  0  0  0  0  0  0
   27.4651  -17.6498  -16.4975 N   0  0  0  0  0  0  0  0  0  0  0  0
   26.6176  -18.7891  -14.6118 C   0  0  0  0  0  0  0  0  0  0  0  0
   26.5656  -19.7568  -15.4147 O   0  0  0  0  0  0  0  0  0  0  0  0
   25.7901  -14.4189  -15.2416 C   0  0  0  0  0  0  0  0  0  0  0  0
   25.8503  -13.1341  -15.7647 C   0  0  0  0  0  0  0  0  0  0  0  0
   29.1369  -20.3667  -10.0285 C   0  0  0  0  0  0  0  0  0  0  0  0
   28.4786  -20.3309  -11.3850 C   0  0  1  0  0  0  0  0  0  0  0  0
   29.1246  -21.4533  -12.2015 C   0  0  0  0  0  0  0  0  0  0  0  0
   27.0095  -20.5271  -11.3789 C   0  0  0  0  0  0  0  0  0  0  0  0
   26.2943  -20.3387  -12.6682 C   0  0  2  0  0  0  0  0  0  0  0  0
   26.4779  -19.0188  -13.2381 N   0  0  0  0  0  0  0  0  0  0  0  0
   24.8586  -20.7101  -12.6445 C   0  0  0  0  0  0  0  0  0  0  0  0
   24.1092  -20.3936  -11.6606 O   0  0  0  0  0  0  0  0  0  0  0  0
   17.5498  -19.6999  -13.1681 N   0  0  0  0  0  0  0  0  0  0  0  0
   17.5153  -21.1141  -13.4134 C   0  0  0  0  0  0  0  0  0  0  0  0
   16.5147  -21.6338  -14.0344 N   0  0  0  0  0  0  0  0  0  0  0  0
   18.5632  -21.9595  -12.9858 N   0  0  0  0  0  0  0  0  0  0  0  0
   19.8268  -21.4503  -12.5122 C   0  0  0  0  0  0  0  0  0  0  0  0
   20.5230  -20.5918  -13.5107 C   0  0  0  0  0  0  0  0  0  0  0  0
   21.9937  -20.4716  -13.3694 C   0  0  0  0  0  0  0  0  0  0  0  0
   22.8030  -21.6649  -13.7475 C   0  0  2  0  0  0  0  0  0  0  0  0
   24.2259  -21.4299  -13.6909 N   0  0  0  0  0  0  0  0  0  0  0  0
   22.3869  -22.3619  -14.9696 C   0  0  0  0  0  0  0  0  0  0  0  0
   21.2865  -23.2354  -14.8750 O   0  0  0  0  0  0  0  0  0  0  0  0
   22.9115  -22.2557  -16.0828 O   0  0  0  0  0  0  0  0  0  0  0  0
  2  1  1  0
  3  2  2  0
  4  3  1  0
  5  4  2  0
  5 11  1  0
  6  5  1  0
  7  6  1  0
  7  8  1  6
  9  7  1  0
  9 10  2  0
 11 12  2  0
 12  2  1  0
 14 13  1  1
 14 15  1  0
 17 16  1  1
 16 14  1  0
 17 18  1  0
 18  9  1  0
 19 17  1  0
 20 19  2  0
 21 22  1  0
 22 24  1  0
 23 22  2  0
 24 25  1  0
 25 26  1  0
 26 27  1  0
 28 27  1  6
 28 29  1  0
 29 19  1  0
 30 31  1  0
 30 28  1  0
 32 30  2  0
M  END
$$$$
