YLR.pdb
     RDKit          3D

 32 32  0  0  1  0  0  0  0  0999 V2000
   16.7446  -17.8639  -13.3242 O   0  0  0  0  0  0  0  0  0  0  0  0
   18.0511  -17.9581  -13.7603 C   0  0  0  0  0  0  0  0  0  0  0  0
   18.9815  -16.9441  -13.5280 C   0  0  0  0  0  0  0  0  0  0  0  0
   20.2754  -17.1082  -13.9955 C   0  0  0  0  0  0  0  0  0  0  0  0
   20.6717  -18.2353  -14.6795 C   0  0  0  0  0  0  0  0  0  0  0  0
   22.0426  -18.4042  -15.1720 C   0  0  0  0  0  0  0  0  0  0  0  0
   22.4242  -17.3848  -16.2294 C   0  0  2  0  0  0  0  0  0  0  0  0
   21.7501  -17.7781  -17.4568 N   0  0  0  0  0  0  0  0  0  0  0  0
   23.8887  -17.5414  -16.4859 C   0  0  0  0  0  0  0  0  0  0  0  0
   24.2161  -18.2163  -17.4964 O   0  0  0  0  0  0  0  0  0  0  0  0
   19.7388  -19.2271  -14.9000 C   0  0  0  0  0  0  0  0  0  0  0  0
   18.4356  -19.0869  -14.4417 C   0  0  0  0  0  0  0  0  0  0  0  0
   27.7280  -13.4649  -16.1094 C   0  0  0  0  0  0  0  0  0  0  0  0
   26.9333  -14.6807  -16.5158 C   0  0  1  0  0  0  0  0  0  0  0  0
   27.4454  -15.0802  -17.9022 C   0  0  0  0  0  0  0  0  0  0  0  0
   27.0526  -15.8453  -15.6069 C   0  0  0  0  0  0  0  0  0  0  0  0
   26.2969  -17.0719  -15.9726 C   0  0  2  0  0  0  0  0  0  0  0  0
   24.8818  -16.9843  -15.6719 N   0  0  0  0  0  0  0  0  0  0  0  0
   26.8714  -18.3362  -15.4523 C   0  0  0  0  0  0  0  0  0  0  0  0
   28.0604  -18.3819  -14.9895 O   0  0  0  0  0  0  0  0  0  0  0  0
   22.7128  -20.5110   -8.7232 N   0  0  0  0  0  0  0  0  0  0  0  0
   23.9275  -21.2674   -8.6067 C   0  0  0  0  0  0  0  0  0  0  0  0
   24.1894  -21.8974   -7.5151 N   0  0  0  0  0  0  0  0  0  0  0  0
   24.8534  -21.3386   -9.6713 N   0  0  0  0  0  0  0  0  0  0  0  0
   24.7602  -20.4963  -10.8384 C   0  0  0  0  0  0  0  0  0  0  0  0
   25.8318  -20.7614  -11.8384 C   0  0  0  0  0  0  0  0  0  0  0  0
   25.8754  -19.8621  -13.0160 C   0  0  0  0  0  0  0  0  0  0  0  0
   26.2029  -20.4907  -14.3274 C   0  0  2  0  0  0  0  0  0  0  0  0
   26.1576  -19.5624  -15.4317 N   0  0  0  0  0  0  0  0  0  0  0  0
   25.5251  -21.7589  -14.6186 C   0  0  0  0  0  0  0  0  0  0  0  0
   24.4935  -21.7374  -15.5769 O   0  0  0  0  0  0  0  0  0  0  0  0
   25.7736  -22.8527  -14.1015 O   0  0  0  0  0  0  0  0  0  0  0  0
  2  1  1  0
  3  2  2  0
  4  3  1  0
  5  4  2  0
  5 11  1  0
  6  5  1  0
  7  6  1  0
  7  8  1  6
  9  7  1  0
  9 10  2  0
 11 12  2  0
 12  2  1  0
 14 13  1  1
 14 15  1  0
 17 16  1  1
 16 14  1  0
 17 18  1  0
 18  9  1  0
 19 17  1  0
 20 19  2  0
 21 22  1  0
 22 24  1  0
 23 22  2  0
 24 25  1  0
 25 26  1  0
 26 27  1  0
 28 27  1  1
 28 29  1  0
 29 19  1  0
 30 31  1  0
 30 28  1  0
 32 30  2  0
M  END
$$$$
