YLR.pdb
     RDKit          3D

 32 32  0  0  1  0  0  0  0  0999 V2000
   27.6204  -12.7355  -17.3512 O   0  0  0  0  0  0  0  0  0  0  0  0
   26.9564  -13.8391  -16.8540 C   0  0  0  0  0  0  0  0  0  0  0  0
   27.2018  -14.3319  -15.5715 C   0  0  0  0  0  0  0  0  0  0  0  0
   26.4971  -15.4441  -15.1398 C   0  0  0  0  0  0  0  0  0  0  0  0
   25.5660  -16.0766  -15.9323 C   0  0  0  0  0  0  0  0  0  0  0  0
   24.8227  -17.2533  -15.4705 C   0  0  0  0  0  0  0  0  0  0  0  0
   25.7248  -18.3943  -15.0381 C   0  0  2  0  0  0  0  0  0  0  0  0
   26.2820  -18.9738  -16.2503 N   0  0  0  0  0  0  0  0  0  0  0  0
   24.8495  -19.4452  -14.4342 C   0  0  0  0  0  0  0  0  0  0  0  0
   24.4059  -20.3275  -15.2143 O   0  0  0  0  0  0  0  0  0  0  0  0
   25.3365  -15.5757  -17.1969 C   0  0  0  0  0  0  0  0  0  0  0  0
   26.0295  -14.4624  -17.6531 C   0  0  0  0  0  0  0  0  0  0  0  0
   25.9132  -21.2043   -9.3264 C   0  0  0  0  0  0  0  0  0  0  0  0
   25.5265  -21.1996  -10.7842 C   0  0  1  0  0  0  0  0  0  0  0  0
   25.7749  -22.6212  -11.2952 C   0  0  0  0  0  0  0  0  0  0  0  0
   24.1185  -20.8294  -11.0624 C   0  0  0  0  0  0  0  0  0  0  0  0
   23.7530  -20.5667  -12.4789 C   0  0  2  0  0  0  0  0  0  0  0  0
   24.5129  -19.4867  -13.0762 N   0  0  0  0  0  0  0  0  0  0  0  0
   22.3011  -20.3922  -12.7258 C   0  0  0  0  0  0  0  0  0  0  0  0
   21.6517  -19.4265  -12.2008 O   0  0  0  0  0  0  0  0  0  0  0  0
   14.6924  -24.1792  -15.4129 N   0  0  0  0  0  0  0  0  0  0  0  0
   15.7384  -24.9306  -14.7785 C   0  0  0  0  0  0  0  0  0  0  0  0
   15.4539  -26.0048  -14.1287 N   0  0  0  0  0  0  0  0  0  0  0  0
   17.0872  -24.5166  -14.8496 N   0  0  0  0  0  0  0  0  0  0  0  0
   17.5013  -23.3432  -15.5791 C   0  0  0  0  0  0  0  0  0  0  0  0
   18.0643  -22.2782  -14.7032 C   0  0  0  0  0  0  0  0  0  0  0  0
   19.5377  -22.2652  -14.5403 C   0  0  0  0  0  0  0  0  0  0  0  0
   20.1047  -21.2083  -13.6552 C   0  0  2  0  0  0  0  0  0  0  0  0
   21.5426  -21.2676  -13.5455 N   0  0  0  0  0  0  0  0  0  0  0  0
   19.4394  -21.0307  -12.3597 C   0  0  0  0  0  0  0  0  0  0  0  0
   18.4775  -20.0071  -12.2598 O   0  0  0  0  0  0  0  0  0  0  0  0
   19.6418  -21.6975  -11.3398 O   0  0  0  0  0  0  0  0  0  0  0  0
  2  1  1  0
  3  2  2  0
  4  3  1  0
  5  4  2  0
  5 11  1  0
  6  5  1  0
  7  6  1  0
  7  8  1  6
  9  7  1  0
  9 10  2  0
 11 12  2  0
 12  2  1  0
 14 13  1  1
 14 15  1  0
 17 16  1  1
 16 14  1  0
 17 18  1  0
 18  9  1  0
 19 17  1  0
 20 19  2  0
 21 22  1  0
 22 24  1  0
 23 22  2  0
 24 25  1  0
 25 26  1  0
 26 27  1  0
 28 27  1  1
 28 29  1  0
 29 19  1  0
 30 31  1  0
 30 28  1  0
 32 30  2  0
M  END
$$$$
