YLR.pdb
     RDKit          3D

 32 32  0  0  1  0  0  0  0  0999 V2000
   29.4945  -15.7308  -19.5351 O   0  0  0  0  0  0  0  0  0  0  0  0
   28.6728  -16.5044  -18.7399 C   0  0  0  0  0  0  0  0  0  0  0  0
   28.2697  -16.0879  -17.4704 C   0  0  0  0  0  0  0  0  0  0  0  0
   27.4439  -16.9174  -16.7288 C   0  0  0  0  0  0  0  0  0  0  0  0
   27.0096  -18.1350  -17.2022 C   0  0  0  0  0  0  0  0  0  0  0  0
   26.1354  -19.0090  -16.4135 C   0  0  0  0  0  0  0  0  0  0  0  0
   26.8855  -19.8122  -15.3670 C   0  0  2  0  0  0  0  0  0  0  0  0
   27.6358  -20.8351  -16.0784 N   0  0  0  0  0  0  0  0  0  0  0  0
   25.8639  -20.5339  -14.5480 C   0  0  0  0  0  0  0  0  0  0  0  0
   25.4680  -21.6440  -14.9892 O   0  0  0  0  0  0  0  0  0  0  0  0
   27.4180  -18.5303  -18.4591 C   0  0  0  0  0  0  0  0  0  0  0  0
   28.2455  -17.7173  -19.2222 C   0  0  0  0  0  0  0  0  0  0  0  0
   26.0138  -20.1652   -9.0162 C   0  0  0  0  0  0  0  0  0  0  0  0
   25.9104  -20.6011  -10.4564 C   0  0  1  0  0  0  0  0  0  0  0  0
   26.3228  -22.0752  -10.4858 C   0  0  0  0  0  0  0  0  0  0  0  0
   24.5636  -20.4680  -11.0608 C   0  0  0  0  0  0  0  0  0  0  0  0
   24.4334  -20.7911  -12.5058 C   0  0  2  0  0  0  0  0  0  0  0  0
   25.3449  -20.0398  -13.3456 N   0  0  0  0  0  0  0  0  0  0  0  0
   23.0499  -20.7271  -13.0364 C   0  0  0  0  0  0  0  0  0  0  0  0
   22.5564  -19.6315  -13.4678 O   0  0  0  0  0  0  0  0  0  0  0  0
   17.0099  -26.7173  -16.2204 N   0  0  0  0  0  0  0  0  0  0  0  0
   16.3610  -25.4433  -16.0893 C   0  0  0  0  0  0  0  0  0  0  0  0
   15.1430  -25.2999  -16.4803 N   0  0  0  0  0  0  0  0  0  0  0  0
   17.0326  -24.3304  -15.5360 N   0  0  0  0  0  0  0  0  0  0  0  0
   18.3753  -24.4142  -15.0158 C   0  0  0  0  0  0  0  0  0  0  0  0
   18.8927  -23.1090  -14.5185 C   0  0  0  0  0  0  0  0  0  0  0  0
   20.3014  -23.0877  -14.0576 C   0  0  0  0  0  0  0  0  0  0  0  0
   20.8208  -21.7858  -13.5503 C   0  0  2  0  0  0  0  0  0  0  0  0
   22.1908  -21.8545  -13.1015 N   0  0  0  0  0  0  0  0  0  0  0  0
   19.9483  -21.0669  -12.6152 C   0  0  0  0  0  0  0  0  0  0  0  0
   20.1856  -21.2464  -11.2388 O   0  0  0  0  0  0  0  0  0  0  0  0
   19.0188  -20.3127  -12.9199 O   0  0  0  0  0  0  0  0  0  0  0  0
  2  1  1  0
  3  2  2  0
  4  3  1  0
  5  4  2  0
  5 11  1  0
  6  5  1  0
  7  6  1  0
  7  8  1  6
  9  7  1  0
  9 10  2  0
 11 12  2  0
 12  2  1  0
 14 13  1  1
 14 15  1  0
 17 16  1  1
 16 14  1  0
 17 18  1  0
 18  9  1  0
 19 17  1  0
 20 19  2  0
 21 22  1  0
 22 24  1  0
 23 22  2  0
 24 25  1  0
 25 26  1  0
 26 27  1  0
 28 27  1  1
 28 29  1  0
 29 19  1  0
 30 31  1  0
 30 28  1  0
 32 30  2  0
M  END
$$$$
