YLR.pdb
     RDKit          3D

 32 32  0  0  1  0  0  0  0  0999 V2000
   15.7185  -25.1772  -12.5394 O   0  0  0  0  0  0  0  0  0  0  0  0
   16.8723  -24.4700  -12.8122 C   0  0  0  0  0  0  0  0  0  0  0  0
   17.5251  -24.5692  -14.0417 C   0  0  0  0  0  0  0  0  0  0  0  0
   18.6790  -23.8292  -14.2442 C   0  0  0  0  0  0  0  0  0  0  0  0
   19.2006  -23.0022  -13.2750 C   0  0  0  0  0  0  0  0  0  0  0  0
   20.4220  -22.2210  -13.4945 C   0  0  0  0  0  0  0  0  0  0  0  0
   20.8199  -21.3888  -12.2895 C   0  0  2  0  0  0  0  0  0  0  0  0
   19.9534  -20.2206  -12.2793 N   0  0  0  0  0  0  0  0  0  0  0  0
   22.2042  -20.8826  -12.5398 C   0  0  0  0  0  0  0  0  0  0  0  0
   22.3027  -19.7391  -13.0560 O   0  0  0  0  0  0  0  0  0  0  0  0
   18.5421  -22.9168  -12.0660 C   0  0  0  0  0  0  0  0  0  0  0  0
   17.3839  -23.6480  -11.8382 C   0  0  0  0  0  0  0  0  0  0  0  0
   26.2405  -21.5659   -8.9121 C   0  0  0  0  0  0  0  0  0  0  0  0
   25.2833  -21.0962   -9.9788 C   0  0  1  0  0  0  0  0  0  0  0  0
   25.2412  -19.5696   -9.8709 C   0  0  0  0  0  0  0  0  0  0  0  0
   25.6513  -21.4687  -11.3654 C   0  0  0  0  0  0  0  0  0  0  0  0
   24.7001  -21.0936  -12.4442 C   0  0  2  0  0  0  0  0  0  0  0  0
   23.3616  -21.6074  -12.2324 N   0  0  0  0  0  0  0  0  0  0  0  0
   25.1694  -21.3897  -13.8196 C   0  0  0  0  0  0  0  0  0  0  0  0
   24.9894  -22.5380  -14.3476 O   0  0  0  0  0  0  0  0  0  0  0  0
   29.9739  -16.8038  -19.6941 N   0  0  0  0  0  0  0  0  0  0  0  0
   29.9453  -17.2723  -18.3373 C   0  0  0  0  0  0  0  0  0  0  0  0
   30.8133  -16.8405  -17.4905 N   0  0  0  0  0  0  0  0  0  0  0  0
   28.9781  -18.2058  -17.9028 N   0  0  0  0  0  0  0  0  0  0  0  0
   27.9463  -18.7157  -18.7722 C   0  0  0  0  0  0  0  0  0  0  0  0
   27.1367  -19.7985  -18.1470 C   0  0  0  0  0  0  0  0  0  0  0  0
   26.6581  -19.5537  -16.7656 C   0  0  0  0  0  0  0  0  0  0  0  0
   26.4126  -20.7555  -15.9186 C   0  0  2  0  0  0  0  0  0  0  0  0
   25.8395  -20.4390  -14.6323 N   0  0  0  0  0  0  0  0  0  0  0  0
   27.5183  -21.7159  -15.8311 C   0  0  0  0  0  0  0  0  0  0  0  0
   27.6590  -22.6403  -16.8840 O   0  0  0  0  0  0  0  0  0  0  0  0
   28.3451  -21.7929  -14.9167 O   0  0  0  0  0  0  0  0  0  0  0  0
  2  1  1  0
  3  2  2  0
  4  3  1  0
  5  4  2  0
  5 11  1  0
  6  5  1  0
  7  6  1  0
  7  8  1  6
  9  7  1  0
  9 10  2  0
 11 12  2  0
 12  2  1  0
 14 13  1  1
 14 15  1  0
 17 16  1  1
 16 14  1  0
 17 18  1  0
 18  9  1  0
 19 17  1  0
 20 19  2  0
 21 22  1  0
 22 24  1  0
 23 22  2  0
 24 25  1  0
 25 26  1  0
 26 27  1  0
 28 27  1  1
 28 29  1  0
 29 19  1  0
 30 31  1  0
 30 28  1  0
 32 30  2  0
M  END
$$$$
