YLR.pdb
     RDKit          3D

 32 32  0  0  1  0  0  0  0  0999 V2000
   19.8669  -19.5404  -18.6606 O   0  0  0  0  0  0  0  0  0  0  0  0
   20.3860  -18.3246  -18.2628 C   0  0  0  0  0  0  0  0  0  0  0  0
   21.2852  -17.6111  -19.0565 C   0  0  0  0  0  0  0  0  0  0  0  0
   21.7647  -16.3969  -18.5920 C   0  0  0  0  0  0  0  0  0  0  0  0
   21.3841  -15.8734  -17.3770 C   0  0  0  0  0  0  0  0  0  0  0  0
   21.8944  -14.5877  -16.8901 C   0  0  0  0  0  0  0  0  0  0  0  0
   23.3940  -14.5926  -16.6583 C   0  0  2  0  0  0  0  0  0  0  0  0
   23.6552  -15.5645  -15.6082 N   0  0  0  0  0  0  0  0  0  0  0  0
   23.7583  -13.2568  -16.0943 C   0  0  0  0  0  0  0  0  0  0  0  0
   23.1780  -12.9154  -15.0311 O   0  0  0  0  0  0  0  0  0  0  0  0
   20.4947  -16.5924  -16.6059 C   0  0  0  0  0  0  0  0  0  0  0  0
   19.9995  -17.8117  -17.0488 C   0  0  0  0  0  0  0  0  0  0  0  0
   28.8271  -11.1048  -16.4497 C   0  0  0  0  0  0  0  0  0  0  0  0
   27.4373  -11.5469  -16.0656 C   0  0  1  0  0  0  0  0  0  0  0  0
   27.4494  -11.7157  -14.5440 C   0  0  0  0  0  0  0  0  0  0  0  0
   26.3516  -10.6078  -16.4350 C   0  0  0  0  0  0  0  0  0  0  0  0
   24.9551  -11.0566  -16.1948 C   0  0  2  0  0  0  0  0  0  0  0  0
   24.6912  -12.3954  -16.6833 N   0  0  0  0  0  0  0  0  0  0  0  0
   23.9090  -10.1102  -16.6524 C   0  0  0  0  0  0  0  0  0  0  0  0
   23.4448  -10.1605  -17.8406 O   0  0  0  0  0  0  0  0  0  0  0  0
   16.3318  -11.0271  -17.6046 N   0  0  0  0  0  0  0  0  0  0  0  0
   17.2276  -11.1352  -16.4878 C   0  0  0  0  0  0  0  0  0  0  0  0
   17.0303  -12.0378  -15.5915 N   0  0  0  0  0  0  0  0  0  0  0  0
   18.3326  -10.2666  -16.3458 N   0  0  0  0  0  0  0  0  0  0  0  0
   18.5994   -9.1927  -17.2710 C   0  0  0  0  0  0  0  0  0  0  0  0
   19.7843   -8.3740  -16.8912 C   0  0  0  0  0  0  0  0  0  0  0  0
   21.0297   -9.1158  -16.5812 C   0  0  0  0  0  0  0  0  0  0  0  0
   22.2154   -8.3012  -16.1909 C   0  0  2  0  0  0  0  0  0  0  0  0
   23.3593   -9.1000  -15.8213 N   0  0  0  0  0  0  0  0  0  0  0  0
   21.9588   -7.2021  -15.2533 C   0  0  0  0  0  0  0  0  0  0  0  0
   20.9885   -6.2500  -15.6206 O   0  0  0  0  0  0  0  0  0  0  0  0
   22.5148   -7.0296  -14.1640 O   0  0  0  0  0  0  0  0  0  0  0  0
  2  1  1  0
  3  2  2  0
  4  3  1  0
  5  4  2  0
  5 11  1  0
  6  5  1  0
  7  6  1  0
  7  8  1  1
  9  7  1  0
  9 10  2  0
 11 12  2  0
 12  2  1  0
 14 13  1  1
 14 15  1  0
 17 16  1  6
 16 14  1  0
 17 18  1  0
 18  9  1  0
 19 17  1  0
 20 19  2  0
 21 22  1  0
 22 24  1  0
 23 22  2  0
 24 25  1  0
 25 26  1  0
 26 27  1  0
 28 27  1  1
 28 29  1  0
 29 19  1  0
 30 31  1  0
 30 28  1  0
 32 30  2  0
M  END
$$$$
