YLR.pdb
     RDKit          3D

 32 32  0  0  1  0  0  0  0  0999 V2000
   29.5637  -17.7575  -18.9997 O   0  0  0  0  0  0  0  0  0  0  0  0
   28.8510  -18.2480  -17.9239 C   0  0  0  0  0  0  0  0  0  0  0  0
   29.2111  -17.9593  -16.6068 C   0  0  0  0  0  0  0  0  0  0  0  0
   28.4484  -18.4869  -15.5774 C   0  0  0  0  0  0  0  0  0  0  0  0
   27.3505  -19.2841  -15.8109 C   0  0  0  0  0  0  0  0  0  0  0  0
   26.5465  -19.8398  -14.7177 C   0  0  0  0  0  0  0  0  0  0  0  0
   27.3238  -20.8003  -13.8368 C   0  0  2  0  0  0  0  0  0  0  0  0
   27.5291  -22.0127  -14.6137 N   0  0  0  0  0  0  0  0  0  0  0  0
   26.4307  -21.1771  -12.6985 C   0  0  0  0  0  0  0  0  0  0  0  0
   25.6697  -22.1628  -12.8802 O   0  0  0  0  0  0  0  0  0  0  0  0
   27.0095  -19.5589  -17.1189 C   0  0  0  0  0  0  0  0  0  0  0  0
   27.7575  -19.0423  -18.1684 C   0  0  0  0  0  0  0  0  0  0  0  0
   27.1059  -19.4981   -7.3126 C   0  0  0  0  0  0  0  0  0  0  0  0
   26.7452  -20.3321   -8.5164 C   0  0  1  0  0  0  0  0  0  0  0  0
   26.4941  -21.7488   -7.9933 C   0  0  0  0  0  0  0  0  0  0  0  0
   25.5481  -19.8777   -9.2631 C   0  0  0  0  0  0  0  0  0  0  0  0
   25.2752  -20.5309  -10.5701 C   0  0  2  0  0  0  0  0  0  0  0  0
   26.4071  -20.4982  -11.4747 N   0  0  0  0  0  0  0  0  0  0  0  0
   24.0402  -20.0712  -11.2506 C   0  0  0  0  0  0  0  0  0  0  0  0
   24.0724  -19.1385  -12.1218 O   0  0  0  0  0  0  0  0  0  0  0  0
   20.3637  -24.8707  -15.0808 N   0  0  0  0  0  0  0  0  0  0  0  0
   19.9659  -23.9893  -16.1420 C   0  0  0  0  0  0  0  0  0  0  0  0
   18.9451  -24.2808  -16.8701 N   0  0  0  0  0  0  0  0  0  0  0  0
   20.6741  -22.7969  -16.4109 N   0  0  0  0  0  0  0  0  0  0  0  0
   21.7294  -22.3116  -15.5558 C   0  0  0  0  0  0  0  0  0  0  0  0
   21.2253  -21.6906  -14.2992 C   0  0  0  0  0  0  0  0  0  0  0  0
   22.2280  -21.4383  -13.2370 C   0  0  0  0  0  0  0  0  0  0  0  0
   21.7371  -20.7736  -11.9964 C   0  0  2  0  0  0  0  0  0  0  0  0
   22.7590  -20.6217  -10.9885 N   0  0  0  0  0  0  0  0  0  0  0  0
   20.4709  -21.2796  -11.4549 C   0  0  0  0  0  0  0  0  0  0  0  0
   19.3272  -21.1686  -12.2690 O   0  0  0  0  0  0  0  0  0  0  0  0
   20.3089  -21.7986  -10.3459 O   0  0  0  0  0  0  0  0  0  0  0  0
  2  1  1  0
  3  2  2  0
  4  3  1  0
  5  4  2  0
  5 11  1  0
  6  5  1  0
  7  6  1  0
  7  8  1  6
  9  7  1  0
  9 10  2  0
 11 12  2  0
 12  2  1  0
 14 13  1  1
 14 15  1  0
 17 16  1  1
 16 14  1  0
 17 18  1  0
 18  9  1  0
 19 17  1  0
 20 19  2  0
 21 22  1  0
 22 24  1  0
 23 22  2  0
 24 25  1  0
 25 26  1  0
 26 27  1  0
 28 27  1  6
 28 29  1  0
 29 19  1  0
 30 31  1  0
 30 28  1  0
 32 30  2  0
M  END
$$$$
