YLR.pdb
     RDKit          3D

 32 32  0  0  1  0  0  0  0  0999 V2000
   18.7622  -22.4691  -11.2619 O   0  0  0  0  0  0  0  0  0  0  0  0
   20.0428  -21.9655  -11.3728 C   0  0  0  0  0  0  0  0  0  0  0  0
   20.3341  -20.6259  -11.1115 C   0  0  0  0  0  0  0  0  0  0  0  0
   21.6432  -20.1914  -11.2435 C   0  0  0  0  0  0  0  0  0  0  0  0
   22.6624  -21.0355  -11.6229 C   0  0  0  0  0  0  0  0  0  0  0  0
   24.0463  -20.5706  -11.7609 C   0  0  0  0  0  0  0  0  0  0  0  0
   24.9341  -20.9956  -10.6059 C   0  0  2  0  0  0  0  0  0  0  0  0
   24.4836  -20.2597   -9.4350 N   0  0  0  0  0  0  0  0  0  0  0  0
   26.3140  -20.5043  -10.9054 C   0  0  0  0  0  0  0  0  0  0  0  0
   26.4995  -19.2618  -10.8316 O   0  0  0  0  0  0  0  0  0  0  0  0
   22.3560  -22.3562  -11.8771 C   0  0  0  0  0  0  0  0  0  0  0  0
   21.0520  -22.8165  -11.7519 C   0  0  0  0  0  0  0  0  0  0  0  0
   30.9692  -22.8024   -9.1736 C   0  0  0  0  0  0  0  0  0  0  0  0
   29.8086  -21.9706   -9.6592 C   0  0  1  0  0  0  0  0  0  0  0  0
   29.8848  -20.6461   -8.8951 C   0  0  0  0  0  0  0  0  0  0  0  0
   29.8017  -21.6851  -11.1136 C   0  0  0  0  0  0  0  0  0  0  0  0
   28.6859  -20.8541  -11.6368 C   0  0  2  0  0  0  0  0  0  0  0  0
   27.3771  -21.3453  -11.2544 N   0  0  0  0  0  0  0  0  0  0  0  0
   28.7435  -20.5789  -13.0930 C   0  0  0  0  0  0  0  0  0  0  0  0
   29.8181  -20.1690  -13.6472 O   0  0  0  0  0  0  0  0  0  0  0  0
   25.2044  -20.3651  -19.4195 N   0  0  0  0  0  0  0  0  0  0  0  0
   23.9358  -19.7739  -19.0995 C   0  0  0  0  0  0  0  0  0  0  0  0
   23.2784  -19.1359  -20.0038 N   0  0  0  0  0  0  0  0  0  0  0  0
   23.3842  -19.8755  -17.8029 N   0  0  0  0  0  0  0  0  0  0  0  0
   24.0455  -20.5789  -16.7313 C   0  0  0  0  0  0  0  0  0  0  0  0
   25.3401  -19.9578  -16.3349 C   0  0  0  0  0  0  0  0  0  0  0  0
   26.4783  -20.8819  -16.1165 C   0  0  0  0  0  0  0  0  0  0  0  0
   27.6370  -20.3475  -15.3460 C   0  0  2  0  0  0  0  0  0  0  0  0
   27.6320  -20.7465  -13.9589 N   0  0  0  0  0  0  0  0  0  0  0  0
   27.9270  -18.9210  -15.5294 C   0  0  0  0  0  0  0  0  0  0  0  0
   28.3479  -18.5041  -16.8068 O   0  0  0  0  0  0  0  0  0  0  0  0
   27.8364  -18.0427  -14.6657 O   0  0  0  0  0  0  0  0  0  0  0  0
  2  1  1  0
  3  2  2  0
  4  3  1  0
  5  4  2  0
  5 11  1  0
  6  5  1  0
  7  6  1  0
  7  8  1  1
  9  7  1  0
  9 10  2  0
 11 12  2  0
 12  2  1  0
 14 13  1  6
 14 15  1  0
 17 16  1  6
 16 14  1  0
 17 18  1  0
 18  9  1  0
 19 17  1  0
 20 19  2  0
 21 22  1  0
 22 24  1  0
 23 22  2  0
 24 25  1  0
 25 26  1  0
 26 27  1  0
 28 27  1  1
 28 29  1  0
 29 19  1  0
 30 31  1  0
 30 28  1  0
 32 30  2  0
M  END
$$$$
