QIL.pdb
     RDKit          3D

 26 25  0  0  1  0  0  0  0  0999 V2000
   22.7350  -23.7053  -16.7721 N   0  0  0  0  0  0  0  0  0  0  0  0
   22.7306  -25.1189  -17.0570 C   0  0  0  0  0  0  0  0  0  0  0  0
   21.8538  -25.5136  -17.8402 O   0  0  0  0  0  0  0  0  0  0  0  0
   23.7578  -25.9236  -16.3920 C   0  0  0  0  0  0  0  0  0  0  0  0
   24.7397  -25.1108  -15.6109 C   0  0  0  0  0  0  0  0  0  0  0  0
   25.7303  -24.4053  -16.4733 C   0  0  2  0  0  0  0  0  0  0  0  0
   26.7024  -25.2917  -17.0718 N   0  0  0  0  0  0  0  0  0  0  0  0
   26.4797  -23.4444  -15.5881 C   0  0  0  0  0  0  0  0  0  0  0  0
   27.4224  -23.8390  -14.8512 O   0  0  0  0  0  0  0  0  0  0  0  0
   27.6109  -18.1389  -16.7268 C   0  0  0  0  0  0  0  0  0  0  0  0
   27.6699  -19.5401  -16.1969 C   0  0  0  0  0  0  0  0  0  0  0  0
   26.7297  -19.7320  -15.0257 C   0  0  2  0  0  0  0  0  0  0  0  0
   27.0019  -18.7330  -13.9300 C   0  0  0  0  0  0  0  0  0  0  0  0
   26.6817  -21.1472  -14.5519 C   0  0  2  0  0  0  0  0  0  0  0  0
   26.1649  -22.0625  -15.5405 N   0  0  0  0  0  0  0  0  0  0  0  0
   25.7871  -21.1905  -13.3559 C   0  0  0  0  0  0  0  0  0  0  0  0
   24.5297  -21.2400  -13.4877 O   0  0  0  0  0  0  0  0  0  0  0  0
   24.9101  -21.2718   -7.7940 C   0  0  0  0  0  0  0  0  0  0  0  0
   25.3964  -20.0474   -8.5626 C   0  0  1  0  0  0  0  0  0  0  0  0
   26.3165  -19.3036   -7.5819 C   0  0  0  0  0  0  0  0  0  0  0  0
   26.2486  -20.4622   -9.7082 C   0  0  0  0  0  0  0  0  0  0  0  0
   25.4764  -20.9759  -10.8963 C   0  0  2  0  0  0  0  0  0  0  0  0
   26.3321  -21.1768  -12.0449 N   0  0  0  0  0  0  0  0  0  0  0  0
   24.3330  -20.1421  -11.2563 C   0  0  0  0  0  0  0  0  0  0  0  0
   24.5326  -19.0436  -11.8318 O   0  0  0  0  0  0  0  0  0  0  0  0
   23.0144  -20.4859  -11.0018 O   0  0  0  0  0  0  0  0  0  0  0  0
  2  1  1  0
  3  2  2  0
  4  2  1  0
  5  4  1  0
  6  7  1  1
  6  5  1  0
  8  6  1  0
  9  8  2  0
 10 11  1  0
 12 14  1  0
 12 11  1  0
 12 13  1  1
 14 15  1  6
 15  8  1  0
 16 17  2  0
 16 14  1  0
 19 20  1  1
 19 18  1  0
 21 19  1  0
 22 21  1  1
 22 23  1  0
 23 16  1  0
 24 22  1  0
 25 24  2  0
 26 24  1  0
M  END
$$$$
