QIL.pdb
     RDKit          3D

 26 25  0  0  1  0  0  0  0  0999 V2000
   20.5078  -16.8789  -17.2596 N   0  0  0  0  0  0  0  0  0  0  0  0
   21.8326  -16.9132  -16.6908 C   0  0  0  0  0  0  0  0  0  0  0  0
   22.1142  -15.9911  -15.9110 O   0  0  0  0  0  0  0  0  0  0  0  0
   22.6903  -18.0285  -17.0974 C   0  0  0  0  0  0  0  0  0  0  0  0
   22.6041  -19.2107  -16.1864 C   0  0  0  0  0  0  0  0  0  0  0  0
   23.8039  -19.3648  -15.3151 C   0  0  2  0  0  0  0  0  0  0  0  0
   24.9592  -19.8765  -16.0168 N   0  0  0  0  0  0  0  0  0  0  0  0
   23.4463  -20.3628  -14.2453 C   0  0  0  0  0  0  0  0  0  0  0  0
   23.4625  -21.6008  -14.4791 O   0  0  0  0  0  0  0  0  0  0  0  0
   25.6190  -20.1677   -9.4272 C   0  0  0  0  0  0  0  0  0  0  0  0
   24.9550  -20.5627  -10.7120 C   0  0  0  0  0  0  0  0  0  0  0  0
   23.4463  -20.5542  -10.5841 C   0  0  2  0  0  0  0  0  0  0  0  0
   22.9866  -21.3920   -9.4182 C   0  0  0  0  0  0  0  0  0  0  0  0
   22.7578  -20.8801  -11.8683 C   0  0  2  0  0  0  0  0  0  0  0  0
   23.0775  -19.9631  -12.9356 N   0  0  0  0  0  0  0  0  0  0  0  0
   21.2861  -20.8174  -11.6176 C   0  0  0  0  0  0  0  0  0  0  0  0
   20.7175  -19.7157  -11.3649 O   0  0  0  0  0  0  0  0  0  0  0  0
   17.8813  -23.3019  -14.8422 C   0  0  0  0  0  0  0  0  0  0  0  0
   18.5744  -22.3414  -13.8814 C   0  0  1  0  0  0  0  0  0  0  0  0
   17.8656  -20.9937  -14.0883 C   0  0  0  0  0  0  0  0  0  0  0  0
   18.3146  -22.7427  -12.4735 C   0  0  0  0  0  0  0  0  0  0  0  0
   19.0653  -21.9276  -11.4519 C   0  0  2  0  0  0  0  0  0  0  0  0
   20.4953  -21.9958  -11.6583 N   0  0  0  0  0  0  0  0  0  0  0  0
   18.7360  -22.2718  -10.0716 C   0  0  0  0  0  0  0  0  0  0  0  0
   19.4754  -23.0717   -9.4463 O   0  0  0  0  0  0  0  0  0  0  0  0
   17.6407  -21.7662   -9.3887 O   0  0  0  0  0  0  0  0  0  0  0  0
  2  1  1  0
  3  2  2  0
  4  2  1  0
  5  4  1  0
  6  7  1  6
  6  5  1  0
  8  6  1  0
  9  8  2  0
 10 11  1  0
 12 14  1  0
 12 11  1  0
 12 13  1  1
 14 15  1  6
 15  8  1  0
 16 17  2  0
 16 14  1  0
 19 20  1  1
 19 18  1  0
 21 19  1  0
 22 21  1  6
 22 23  1  0
 23 16  1  0
 24 22  1  0
 25 24  2  0
 26 24  1  0
M  END
$$$$
