QIL.pdb
     RDKit          3D

 26 25  0  0  1  0  0  0  0  0999 V2000
   25.9509  -17.3204  -15.5958 N   0  0  0  0  0  0  0  0  0  0  0  0
   26.4502  -17.9686  -16.7833 C   0  0  0  0  0  0  0  0  0  0  0  0
   25.9374  -17.6121  -17.8546 O   0  0  0  0  0  0  0  0  0  0  0  0
   27.5014  -18.9697  -16.5892 C   0  0  0  0  0  0  0  0  0  0  0  0
   27.9453  -19.1012  -15.1678 C   0  0  0  0  0  0  0  0  0  0  0  0
   28.0823  -20.5191  -14.7280 C   0  0  2  0  0  0  0  0  0  0  0  0
   28.3046  -21.4387  -15.8208 N   0  0  0  0  0  0  0  0  0  0  0  0
   26.7830  -20.9041  -14.0707 C   0  0  0  0  0  0  0  0  0  0  0  0
   25.9322  -21.6096  -14.6754 O   0  0  0  0  0  0  0  0  0  0  0  0
   26.7469  -20.2393   -8.6069 C   0  0  0  0  0  0  0  0  0  0  0  0
   26.5238  -21.0065   -9.8755 C   0  0  0  0  0  0  0  0  0  0  0  0
   25.2810  -20.5343  -10.6001 C   0  0  2  0  0  0  0  0  0  0  0  0
   24.0279  -20.9264   -9.8595 C   0  0  0  0  0  0  0  0  0  0  0  0
   25.2738  -20.9204  -12.0424 C   0  0  2  0  0  0  0  0  0  0  0  0
   26.4561  -20.4959  -12.7525 N   0  0  0  0  0  0  0  0  0  0  0  0
   24.0855  -20.2722  -12.6752 C   0  0  0  0  0  0  0  0  0  0  0  0
   24.0069  -19.0128  -12.7693 O   0  0  0  0  0  0  0  0  0  0  0  0
   21.0712  -20.3239  -17.6362 C   0  0  0  0  0  0  0  0  0  0  0  0
   20.8649  -20.0950  -16.1424 C   0  0  1  0  0  0  0  0  0  0  0  0
   19.5985  -20.8913  -15.7907 C   0  0  0  0  0  0  0  0  0  0  0  0
   21.9767  -20.7076  -15.3681 C   0  0  0  0  0  0  0  0  0  0  0  0
   21.9182  -20.4365  -13.8866 C   0  0  2  0  0  0  0  0  0  0  0  0
   23.0189  -21.0588  -13.1844 N   0  0  0  0  0  0  0  0  0  0  0  0
   20.6481  -20.8130  -13.2723 C   0  0  0  0  0  0  0  0  0  0  0  0
   20.5253  -21.9583  -12.7714 O   0  0  0  0  0  0  0  0  0  0  0  0
   19.5450  -19.9765  -13.2018 O   0  0  0  0  0  0  0  0  0  0  0  0
  2  1  1  0
  3  2  2  0
  4  2  1  0
  5  4  1  0
  6  7  1  6
  6  5  1  0
  8  6  1  0
  9  8  2  0
 10 11  1  0
 12 14  1  0
 12 11  1  0
 12 13  1  1
 14 15  1  6
 15  8  1  0
 16 17  2  0
 16 14  1  0
 19 20  1  1
 19 18  1  0
 21 19  1  0
 22 21  1  6
 22 23  1  0
 23 16  1  0
 24 22  1  0
 25 24  2  0
 26 24  1  0
M  END
$$$$
