QIL.pdb
     RDKit          3D

 26 25  0  0  1  0  0  0  0  0999 V2000
   21.7094  -18.9523  -13.3932 N   0  0  0  0  0  0  0  0  0  0  0  0
   20.4957  -19.7202  -13.5230 C   0  0  0  0  0  0  0  0  0  0  0  0
   19.5618  -19.1653  -14.1211 O   0  0  0  0  0  0  0  0  0  0  0  0
   20.5046  -21.0620  -12.9363 C   0  0  0  0  0  0  0  0  0  0  0  0
   21.8351  -21.4640  -12.3860 C   0  0  0  0  0  0  0  0  0  0  0  0
   22.9042  -21.5161  -13.4237 C   0  0  2  0  0  0  0  0  0  0  0  0
   22.7228  -22.5849  -14.3797 N   0  0  0  0  0  0  0  0  0  0  0  0
   24.2038  -21.7683  -12.7053 C   0  0  0  0  0  0  0  0  0  0  0  0
   24.5987  -22.9409  -12.4677 O   0  0  0  0  0  0  0  0  0  0  0  0
   28.7017  -19.3777  -14.1737 C   0  0  0  0  0  0  0  0  0  0  0  0
   27.6027  -20.2490  -13.6437 C   0  0  0  0  0  0  0  0  0  0  0  0
   27.3960  -20.0419  -12.1581 C   0  0  2  0  0  0  0  0  0  0  0  0
   28.6954  -20.1439  -11.4006 C   0  0  0  0  0  0  0  0  0  0  0  0
   26.3067  -20.8994  -11.6033 C   0  0  2  0  0  0  0  0  0  0  0  0
   25.0385  -20.7097  -12.2651 N   0  0  0  0  0  0  0  0  0  0  0  0
   26.1442  -20.5426  -10.1615 C   0  0  0  0  0  0  0  0  0  0  0  0
   25.2771  -19.6968   -9.7962 O   0  0  0  0  0  0  0  0  0  0  0  0
   27.1183  -21.1252   -4.7130 C   0  0  0  0  0  0  0  0  0  0  0  0
   28.2183  -20.6293   -5.6459 C   0  0  1  0  0  0  0  0  0  0  0  0
   29.5215  -21.1900   -5.0552 C   0  0  0  0  0  0  0  0  0  0  0  0
   28.0680  -21.2416   -6.9924 C   0  0  0  0  0  0  0  0  0  0  0  0
   26.9339  -20.6717   -7.8053 C   0  0  2  0  0  0  0  0  0  0  0  0
   26.9619  -21.1475   -9.1709 N   0  0  0  0  0  0  0  0  0  0  0  0
   26.8696  -19.2132   -7.7784 C   0  0  0  0  0  0  0  0  0  0  0  0
   27.7386  -18.5499   -8.3969 O   0  0  0  0  0  0  0  0  0  0  0  0
   25.8952  -18.4943   -7.1036 O   0  0  0  0  0  0  0  0  0  0  0  0
  2  1  1  0
  3  2  2  0
  4  2  1  0
  5  4  1  0
  6  7  1  6
  6  5  1  0
  8  6  1  0
  9  8  2  0
 10 11  1  0
 12 14  1  0
 12 11  1  0
 12 13  1  1
 14 15  1  6
 15  8  1  0
 16 17  2  0
 16 14  1  0
 19 20  1  1
 19 18  1  0
 21 19  1  0
 22 21  1  1
 22 23  1  0
 23 16  1  0
 24 22  1  0
 25 24  2  0
 26 24  1  0
M  END
$$$$
