QIL.pdb
     RDKit          3D

 26 25  0  0  1  0  0  0  0  0999 V2000
   29.0816  -18.7829  -17.1092 N   0  0  0  0  0  0  0  0  0  0  0  0
   28.4435  -17.5224  -16.8204 C   0  0  0  0  0  0  0  0  0  0  0  0
   28.4110  -16.7029  -17.7506 O   0  0  0  0  0  0  0  0  0  0  0  0
   27.9089  -17.3547  -15.4672 C   0  0  0  0  0  0  0  0  0  0  0  0
   28.1976  -18.5103  -14.5640 C   0  0  0  0  0  0  0  0  0  0  0  0
   27.0535  -19.4587  -14.4458 C   0  0  2  0  0  0  0  0  0  0  0  0
   26.0477  -19.2727  -15.4670 N   0  0  0  0  0  0  0  0  0  0  0  0
   26.3996  -19.1967  -13.1145 C   0  0  0  0  0  0  0  0  0  0  0  0
   26.1956  -18.0209  -12.7103 O   0  0  0  0  0  0  0  0  0  0  0  0
   21.6821  -20.8258  -12.1838 C   0  0  0  0  0  0  0  0  0  0  0  0
   23.0247  -20.1586  -12.1718 C   0  0  0  0  0  0  0  0  0  0  0  0
   23.8962  -20.6822  -11.0498 C   0  0  2  0  0  0  0  0  0  0  0  0
   23.1820  -20.6242   -9.7234 C   0  0  0  0  0  0  0  0  0  0  0  0
   25.2509  -20.0547  -11.0322 C   0  0  2  0  0  0  0  0  0  0  0  0
   25.9855  -20.2491  -12.2589 N   0  0  0  0  0  0  0  0  0  0  0  0
   26.0220  -20.6815   -9.9164 C   0  0  0  0  0  0  0  0  0  0  0  0
   26.5066  -21.8442  -10.0356 O   0  0  0  0  0  0  0  0  0  0  0  0
   29.2587  -19.0688   -4.9554 C   0  0  0  0  0  0  0  0  0  0  0  0
   28.5551  -20.1828   -5.7238 C   0  0  1  0  0  0  0  0  0  0  0  0
   27.4485  -20.6777   -4.7794 C   0  0  0  0  0  0  0  0  0  0  0  0
   27.8706  -19.6303   -6.9225 C   0  0  0  0  0  0  0  0  0  0  0  0
   26.9456  -20.6037   -7.6071 C   0  0  2  0  0  0  0  0  0  0  0  0
   26.2265  -19.9827   -8.6975 N   0  0  0  0  0  0  0  0  0  0  0  0
   26.0140  -21.2646   -6.6974 C   0  0  0  0  0  0  0  0  0  0  0  0
   24.8690  -20.7757   -6.5311 O   0  0  0  0  0  0  0  0  0  0  0  0
   26.3116  -22.4188   -5.9897 O   0  0  0  0  0  0  0  0  0  0  0  0
  2  1  1  0
  3  2  2  0
  4  2  1  0
  5  4  1  0
  6  7  1  6
  6  5  1  0
  8  6  1  0
  9  8  2  0
 10 11  1  0
 12 14  1  0
 12 11  1  0
 12 13  1  1
 14 15  1  6
 15  8  1  0
 16 17  2  0
 16 14  1  0
 19 20  1  1
 19 18  1  0
 21 19  1  0
 22 21  1  1
 22 23  1  0
 23 16  1  0
 24 22  1  0
 25 24  2  0
 26 24  1  0
M  END
$$$$
