QIL.pdb
     RDKit          3D

 26 25  0  0  1  0  0  0  0  0999 V2000
   22.2376  -19.5308  -14.0273 N   0  0  0  0  0  0  0  0  0  0  0  0
   22.8149  -18.8486  -15.1590 C   0  0  0  0  0  0  0  0  0  0  0  0
   23.9113  -18.3029  -14.9644 O   0  0  0  0  0  0  0  0  0  0  0  0
   22.0438  -18.8782  -16.4038 C   0  0  0  0  0  0  0  0  0  0  0  0
   21.9440  -17.5466  -17.0759 C   0  0  0  0  0  0  0  0  0  0  0  0
   20.5752  -16.9599  -17.0085 C   0  0  2  0  0  0  0  0  0  0  0  0
   19.5989  -17.6937  -17.7815 N   0  0  0  0  0  0  0  0  0  0  0  0
   20.6613  -15.5728  -17.5890 C   0  0  0  0  0  0  0  0  0  0  0  0
   20.4875  -15.3713  -18.8205 O   0  0  0  0  0  0  0  0  0  0  0  0
   17.4695  -11.7699  -16.4038 C   0  0  0  0  0  0  0  0  0  0  0  0
   18.7868  -12.4560  -16.1993 C   0  0  0  0  0  0  0  0  0  0  0  0
   19.5916  -12.5086  -17.4807 C   0  0  2  0  0  0  0  0  0  0  0  0
   18.8147  -13.1644  -18.5938 C   0  0  0  0  0  0  0  0  0  0  0  0
   20.9561  -13.0809  -17.2805 C   0  0  2  0  0  0  0  0  0  0  0  0
   20.9392  -14.4368  -16.7870 N   0  0  0  0  0  0  0  0  0  0  0  0
   21.6605  -12.2236  -16.2798 C   0  0  0  0  0  0  0  0  0  0  0  0
   21.9034  -12.6526  -15.1145 O   0  0  0  0  0  0  0  0  0  0  0  0
   26.2552  -11.4506  -14.2263 C   0  0  0  0  0  0  0  0  0  0  0  0
   25.3962  -10.3793  -14.8901 C   0  0  1  0  0  0  0  0  0  0  0  0
   26.3492   -9.6420  -15.8438 C   0  0  0  0  0  0  0  0  0  0  0  0
   24.3520  -11.0090  -15.7409 C   0  0  0  0  0  0  0  0  0  0  0  0
   23.0685  -10.2231  -15.8240 C   0  0  2  0  0  0  0  0  0  0  0  0
   22.0720  -10.9075  -16.6181 N   0  0  0  0  0  0  0  0  0  0  0  0
   23.2490   -8.8566  -16.3057 C   0  0  0  0  0  0  0  0  0  0  0  0
   23.1124   -8.6156  -17.5309 O   0  0  0  0  0  0  0  0  0  0  0  0
   23.5671   -7.7837  -15.4876 O   0  0  0  0  0  0  0  0  0  0  0  0
  2  1  1  0
  3  2  2  0
  4  2  1  0
  5  4  1  0
  6  7  1  6
  6  5  1  0
  8  6  1  0
  9  8  2  0
 10 11  1  0
 12 14  1  0
 12 11  1  0
 12 13  1  6
 14 15  1  1
 15  8  1  0
 16 17  2  0
 16 14  1  0
 19 20  1  6
 19 18  1  0
 21 19  1  0
 22 21  1  6
 22 23  1  0
 23 16  1  0
 24 22  1  0
 25 24  2  0
 26 24  1  0
M  END
$$$$
