MLA.pdb
     RDKit          3D

 22 21  0  0  1  0  0  0  0  0999 V2000
   12.8095   -6.3790  -14.3424 C   0  0  0  0  0  0  0  0  0  0  0  0
   13.3612   -7.3536  -15.7582 S   0  0  0  0  0  0  0  0  0  0  0  0
   14.3114   -8.7913  -15.2290 C   0  0  0  0  0  0  0  0  0  0  0  0
   15.6015   -8.3114  -14.6001 C   0  0  0  0  0  0  0  0  0  0  0  0
   16.3660   -9.5424  -14.1109 C   0  0  2  0  0  0  0  0  0  0  0  0
   15.6433  -10.0608  -12.9818 N   0  0  0  0  0  0  0  0  0  0  0  0
   17.7384   -9.1552  -13.7080 C   0  0  0  0  0  0  0  0  0  0  0  0
   17.9306   -8.6614  -12.5648 O   0  0  0  0  0  0  0  0  0  0  0  0
   23.1671  -10.7700  -15.7959 C   0  0  0  0  0  0  0  0  0  0  0  0
   22.5246   -9.6974  -14.8863 C   0  0  2  0  0  0  0  0  0  0  0  0
   23.1216   -9.8851  -13.5174 C   0  0  0  0  0  0  0  0  0  0  0  0
   21.0639   -9.9470  -14.9416 C   0  0  0  0  0  0  0  0  0  0  0  0
   20.1732   -8.9569  -14.2663 C   0  0  2  0  0  0  0  0  0  0  0  0
   18.7919   -9.3536  -14.6242 N   0  0  0  0  0  0  0  0  0  0  0  0
   20.3054   -7.5628  -14.7255 C   0  0  0  0  0  0  0  0  0  0  0  0
   20.2289   -7.2492  -15.9709 O   0  0  0  0  0  0  0  0  0  0  0  0
   19.7701   -4.1972  -13.6623 C   0  0  0  0  0  0  0  0  0  0  0  0
   20.7681   -5.1052  -14.3952 C   0  0  2  0  0  0  0  0  0  0  0  0
   20.5213   -6.4385  -13.8782 N   0  0  0  0  0  0  0  0  0  0  0  0
   22.1649   -4.6708  -14.1313 C   0  0  0  0  0  0  0  0  0  0  0  0
   22.8389   -5.1640  -13.1895 O   0  0  0  0  0  0  0  0  0  0  0  0
   22.7968   -3.7062  -14.9021 O   0  0  0  0  0  0  0  0  0  0  0  0
  1  2  1  0
  2  3  1  0
  3  4  1  0
  4  5  1  0
  5  6  1  1
  7  5  1  0
  7  8  2  0
 10  9  1  6
 10 12  1  0
 10 11  1  0
 13 12  1  6
 13 14  1  0
 13 15  1  0
 14  7  1  0
 15 16  2  0
 15 19  1  0
 18 17  1  1
 18 20  1  0
 19 18  1  0
 20 21  2  0
 20 22  1  0
M  END
$$$$
