MLA.pdb
     RDKit          3D

 22 21  0  0  1  0  0  0  0  0999 V2000
   16.2349  -14.5350  -20.4622 C   0  0  0  0  0  0  0  0  0  0  0  0
   16.9039  -13.9582  -18.8879 S   0  0  0  0  0  0  0  0  0  0  0  0
   17.0306  -12.1603  -18.8534 C   0  0  0  0  0  0  0  0  0  0  0  0
   17.4509  -11.7333  -17.4637 C   0  0  0  0  0  0  0  0  0  0  0  0
   17.6952  -10.2239  -17.4953 C   0  0  2  0  0  0  0  0  0  0  0  0
   18.6886   -9.9831  -18.5058 N   0  0  0  0  0  0  0  0  0  0  0  0
   18.1855   -9.7657  -16.1742 C   0  0  0  0  0  0  0  0  0  0  0  0
   17.4518   -9.9073  -15.1597 O   0  0  0  0  0  0  0  0  0  0  0  0
   23.4089  -10.0415  -13.5936 C   0  0  0  0  0  0  0  0  0  0  0  0
   22.1158   -9.2099  -13.4292 C   0  0  2  0  0  0  0  0  0  0  0  0
   21.5069   -9.6224  -12.1160 C   0  0  0  0  0  0  0  0  0  0  0  0
   21.2762   -9.5365  -14.6071 C   0  0  0  0  0  0  0  0  0  0  0  0
   20.0127   -8.7609  -14.7846 C   0  0  2  0  0  0  0  0  0  0  0  0
   19.4667   -9.1819  -16.0954 N   0  0  0  0  0  0  0  0  0  0  0  0
   20.1702   -7.2990  -14.8840 C   0  0  0  0  0  0  0  0  0  0  0  0
   20.6154   -6.5968  -13.9021 O   0  0  0  0  0  0  0  0  0  0  0  0
   20.3609   -4.6973  -17.4743 C   0  0  0  0  0  0  0  0  0  0  0  0
   19.9468   -5.0699  -16.0435 C   0  0  2  0  0  0  0  0  0  0  0  0
   19.8643   -6.5187  -16.0356 N   0  0  0  0  0  0  0  0  0  0  0  0
   18.6412   -4.4500  -15.6965 C   0  0  0  0  0  0  0  0  0  0  0  0
   17.5727   -5.1152  -15.7166 O   0  0  0  0  0  0  0  0  0  0  0  0
   18.5298   -3.1157  -15.3345 O   0  0  0  0  0  0  0  0  0  0  0  0
  1  2  1  0
  2  3  1  0
  3  4  1  0
  4  5  1  0
  5  6  1  6
  7  5  1  0
  7  8  2  0
 10  9  1  6
 10 12  1  0
 10 11  1  0
 13 12  1  6
 13 14  1  0
 13 15  1  0
 14  7  1  0
 15 16  2  0
 15 19  1  0
 18 17  1  6
 18 20  1  0
 19 18  1  0
 20 21  2  0
 20 22  1  0
M  END
$$$$
