MLA.pdb
     RDKit          3D

 22 21  0  0  1  0  0  0  0  0999 V2000
   29.7311  -19.4126  -16.9431 C   0  0  0  0  0  0  0  0  0  0  0  0
   28.9778  -17.7890  -16.7083 S   0  0  0  0  0  0  0  0  0  0  0  0
   27.1965  -17.9260  -16.4672 C   0  0  0  0  0  0  0  0  0  0  0  0
   26.8811  -19.3272  -15.9901 C   0  0  0  0  0  0  0  0  0  0  0  0
   25.3594  -19.4762  -15.9599 C   0  0  2  0  0  0  0  0  0  0  0  0
   24.8285  -18.2366  -15.4624 N   0  0  0  0  0  0  0  0  0  0  0  0
   24.9809  -20.5933  -15.0629 C   0  0  0  0  0  0  0  0  0  0  0  0
   25.3485  -21.7648  -15.3459 O   0  0  0  0  0  0  0  0  0  0  0  0
   26.6115  -21.6327  -11.9028 C   0  0  0  0  0  0  0  0  0  0  0  0
   25.6272  -20.4826  -11.5879 C   0  0  2  0  0  0  0  0  0  0  0  0
   25.9832  -19.9796  -10.2148 C   0  0  0  0  0  0  0  0  0  0  0  0
   24.2722  -21.0791  -11.6742 C   0  0  0  0  0  0  0  0  0  0  0  0
   23.7521  -21.4049  -13.0354 C   0  0  2  0  0  0  0  0  0  0  0  0
   24.2159  -20.3062  -13.9135 N   0  0  0  0  0  0  0  0  0  0  0  0
   22.2848  -21.4147  -13.1721 C   0  0  0  0  0  0  0  0  0  0  0  0
   21.5361  -22.1143  -12.3941 O   0  0  0  0  0  0  0  0  0  0  0  0
   19.6730  -19.5721  -15.0907 C   0  0  0  0  0  0  0  0  0  0  0  0
   20.1130  -20.8176  -14.3079 C   0  0  2  0  0  0  0  0  0  0  0  0
   21.5477  -20.6763  -14.1416 N   0  0  0  0  0  0  0  0  0  0  0  0
   19.7728  -22.0557  -15.0567 C   0  0  0  0  0  0  0  0  0  0  0  0
   20.6438  -22.6889  -15.7086 O   0  0  0  0  0  0  0  0  0  0  0  0
   18.4876  -22.5767  -15.0780 O   0  0  0  0  0  0  0  0  0  0  0  0
  1  2  1  0
  2  3  1  0
  3  4  1  0
  4  5  1  0
  5  6  1  1
  7  5  1  0
  7  8  2  0
 10  9  1  1
 10 12  1  0
 10 11  1  0
 13 12  1  1
 13 14  1  0
 13 15  1  0
 14  7  1  0
 15 16  2  0
 15 19  1  0
 18 17  1  6
 18 20  1  0
 19 18  1  0
 20 21  2  0
 20 22  1  0
M  END
$$$$
