MLA.pdb
     RDKit          3D

 22 21  0  0  1  0  0  0  0  0999 V2000
   27.3200  -16.2386  -16.1589 C   0  0  0  0  0  0  0  0  0  0  0  0
   28.2422  -17.1822  -17.3909 S   0  0  0  0  0  0  0  0  0  0  0  0
   28.4236  -18.9046  -16.8905 C   0  0  0  0  0  0  0  0  0  0  0  0
   27.1206  -19.3675  -16.2755 C   0  0  0  0  0  0  0  0  0  0  0  0
   27.3753  -20.7216  -15.6118 C   0  0  2  0  0  0  0  0  0  0  0  0
   27.5842  -21.6720  -16.6697 N   0  0  0  0  0  0  0  0  0  0  0  0
   26.2009  -21.1112  -14.7964 C   0  0  0  0  0  0  0  0  0  0  0  0
   25.6127  -22.1985  -15.0402 O   0  0  0  0  0  0  0  0  0  0  0  0
   25.2441  -22.2637  -10.4507 C   0  0  0  0  0  0  0  0  0  0  0  0
   25.9603  -20.9175  -10.7066 C   0  0  2  0  0  0  0  0  0  0  0  0
   26.2497  -20.3239   -9.3542 C   0  0  0  0  0  0  0  0  0  0  0  0
   25.0214  -20.1127  -11.5251 C   0  0  0  0  0  0  0  0  0  0  0  0
   24.6628  -20.6406  -12.8750 C   0  0  2  0  0  0  0  0  0  0  0  0
   25.7772  -20.2457  -13.7670 N   0  0  0  0  0  0  0  0  0  0  0  0
   23.4545  -20.0597  -13.4868 C   0  0  0  0  0  0  0  0  0  0  0  0
   22.3027  -20.1375  -12.9188 O   0  0  0  0  0  0  0  0  0  0  0  0
   22.6816  -17.7810  -16.3361 C   0  0  0  0  0  0  0  0  0  0  0  0
   22.2076  -18.7634  -15.2554 C   0  0  2  0  0  0  0  0  0  0  0  0
   23.4189  -19.3658  -14.7301 N   0  0  0  0  0  0  0  0  0  0  0  0
   21.3009  -19.7871  -15.8378 C   0  0  0  0  0  0  0  0  0  0  0  0
   21.7189  -20.9323  -16.1511 O   0  0  0  0  0  0  0  0  0  0  0  0
   19.9555  -19.5384  -16.0660 O   0  0  0  0  0  0  0  0  0  0  0  0
  1  2  1  0
  2  3  1  0
  3  4  1  0
  4  5  1  0
  5  6  1  6
  7  5  1  0
  7  8  2  0
 10  9  1  1
 10 12  1  0
 10 11  1  0
 13 12  1  1
 13 14  1  0
 13 15  1  0
 14  7  1  0
 15 16  2  0
 15 19  1  0
 18 17  1  6
 18 20  1  0
 19 18  1  0
 20 21  2  0
 20 22  1  0
M  END
$$$$
