MLA.pdb
     RDKit          3D

 22 21  0  0  1  0  0  0  0  0999 V2000
   25.8389  -15.8799  -15.5578 C   0  0  0  0  0  0  0  0  0  0  0  0
   27.2917  -16.4981  -16.4332 S   0  0  0  0  0  0  0  0  0  0  0  0
   27.8250  -18.0871  -15.7694 C   0  0  0  0  0  0  0  0  0  0  0  0
   26.6206  -18.7951  -15.1877 C   0  0  0  0  0  0  0  0  0  0  0  0
   27.1086  -20.1001  -14.5570 C   0  0  2  0  0  0  0  0  0  0  0  0
   27.5584  -20.9407  -15.6327 N   0  0  0  0  0  0  0  0  0  0  0  0
   25.9967  -20.7525  -13.8264 C   0  0  0  0  0  0  0  0  0  0  0  0
   25.5603  -21.8636  -14.2297 O   0  0  0  0  0  0  0  0  0  0  0  0
   26.1564  -22.2314   -9.7961 C   0  0  0  0  0  0  0  0  0  0  0  0
   26.1114  -20.6897   -9.9046 C   0  0  2  0  0  0  0  0  0  0  0  0
   26.3547  -20.1567   -8.5182 C   0  0  0  0  0  0  0  0  0  0  0  0
   24.7689  -20.3644  -10.4440 C   0  0  0  0  0  0  0  0  0  0  0  0
   24.4683  -20.7967  -11.8412 C   0  0  2  0  0  0  0  0  0  0  0  0
   25.4597  -20.1035  -12.6956 N   0  0  0  0  0  0  0  0  0  0  0  0
   23.1535  -20.3878  -12.3665 C   0  0  0  0  0  0  0  0  0  0  0  0
   22.0582  -20.6933  -11.7647 O   0  0  0  0  0  0  0  0  0  0  0  0
   21.8458  -18.3330  -15.2102 C   0  0  0  0  0  0  0  0  0  0  0  0
   21.6235  -19.3539  -14.0850 C   0  0  2  0  0  0  0  0  0  0  0  0
   22.9458  -19.6312  -13.5552 N   0  0  0  0  0  0  0  0  0  0  0  0
   20.9813  -20.5859  -14.6133 C   0  0  0  0  0  0  0  0  0  0  0  0
   21.6658  -21.5680  -15.0023 O   0  0  0  0  0  0  0  0  0  0  0  0
   19.6038  -20.7195  -14.7057 O   0  0  0  0  0  0  0  0  0  0  0  0
  1  2  1  0
  2  3  1  0
  3  4  1  0
  4  5  1  0
  5  6  1  6
  7  5  1  0
  7  8  2  0
 10  9  1  1
 10 12  1  0
 10 11  1  0
 13 12  1  1
 13 14  1  0
 13 15  1  0
 14  7  1  0
 15 16  2  0
 15 19  1  0
 18 17  1  6
 18 20  1  0
 19 18  1  0
 20 21  2  0
 20 22  1  0
M  END
$$$$
