MLA.pdb
     RDKit          3D

 22 21  0  0  1  0  0  0  0  0999 V2000
   32.0861  -21.8826   -8.8458 C   0  0  0  0  0  0  0  0  0  0  0  0
   32.5059  -22.2930  -10.5529 S   0  0  0  0  0  0  0  0  0  0  0  0
   31.1264  -21.9535  -11.6627 C   0  0  0  0  0  0  0  0  0  0  0  0
   29.8416  -22.0071  -10.8647 C   0  0  0  0  0  0  0  0  0  0  0  0
   28.6895  -21.6834  -11.8170 C   0  0  2  0  0  0  0  0  0  0  0  0
   28.9101  -20.3478  -12.3001 N   0  0  0  0  0  0  0  0  0  0  0  0
   27.3999  -21.7600  -11.0910 C   0  0  0  0  0  0  0  0  0  0  0  0
   26.9621  -22.8837  -10.7260 O   0  0  0  0  0  0  0  0  0  0  0  0
   26.1093  -21.1122   -7.1716 C   0  0  0  0  0  0  0  0  0  0  0  0
   26.6061  -19.8827   -7.9667 C   0  0  2  0  0  0  0  0  0  0  0  0
   26.7832  -18.7710   -6.9677 C   0  0  0  0  0  0  0  0  0  0  0  0
   25.5607  -19.6130   -8.9833 C   0  0  0  0  0  0  0  0  0  0  0  0
   25.4151  -20.5990  -10.0952 C   0  0  2  0  0  0  0  0  0  0  0  0
   26.7001  -20.5638  -10.8307 N   0  0  0  0  0  0  0  0  0  0  0  0
   24.3862  -20.2792  -11.1006 C   0  0  0  0  0  0  0  0  0  0  0  0
   23.1715  -20.0169  -10.7678 O   0  0  0  0  0  0  0  0  0  0  0  0
   24.2523  -19.3747  -14.6963 C   0  0  0  0  0  0  0  0  0  0  0  0
   23.5438  -19.9311  -13.4528 C   0  0  2  0  0  0  0  0  0  0  0  0
   24.6056  -20.2205  -12.5067 N   0  0  0  0  0  0  0  0  0  0  0  0
   22.7710  -21.1545  -13.7922 C   0  0  0  0  0  0  0  0  0  0  0  0
   23.2062  -22.3033  -13.5174 O   0  0  0  0  0  0  0  0  0  0  0  0
   21.5382  -21.0977  -14.4252 O   0  0  0  0  0  0  0  0  0  0  0  0
  1  2  1  0
  2  3  1  0
  3  4  1  0
  4  5  1  0
  5  6  1  1
  7  5  1  0
  7  8  2  0
 10  9  1  1
 10 12  1  0
 10 11  1  0
 13 12  1  1
 13 14  1  0
 13 15  1  0
 14  7  1  0
 15 16  2  0
 15 19  1  0
 18 17  1  6
 18 20  1  0
 19 18  1  0
 20 21  2  0
 20 22  1  0
M  END
$$$$
