MLA.pdb
     RDKit          3D

 22 21  0  0  1  0  0  0  0  0999 V2000
   19.9967  -24.3366  -16.0726 C   0  0  0  0  0  0  0  0  0  0  0  0
   18.4936  -24.3320  -15.0730 S   0  0  0  0  0  0  0  0  0  0  0  0
   18.4826  -22.9469  -13.9192 C   0  0  0  0  0  0  0  0  0  0  0  0
   19.6841  -22.0723  -14.2049 C   0  0  0  0  0  0  0  0  0  0  0  0
   20.4933  -21.9577  -12.9122 C   0  0  2  0  0  0  0  0  0  0  0  0
   19.5792  -21.5437  -11.8831 N   0  0  0  0  0  0  0  0  0  0  0  0
   21.5682  -20.9514  -13.0789 C   0  0  0  0  0  0  0  0  0  0  0  0
   21.2841  -19.7260  -13.0063 O   0  0  0  0  0  0  0  0  0  0  0  0
   25.0621  -19.9194  -10.7027 C   0  0  0  0  0  0  0  0  0  0  0  0
   25.0979  -21.3103  -11.3772 C   0  0  2  0  0  0  0  0  0  0  0  0
   26.3018  -22.0231  -10.8225 C   0  0  0  0  0  0  0  0  0  0  0  0
   25.1766  -21.0476  -12.8346 C   0  0  0  0  0  0  0  0  0  0  0  0
   23.9846  -20.4261  -13.4845 C   0  0  2  0  0  0  0  0  0  0  0  0
   22.8834  -21.4019  -13.3151 N   0  0  0  0  0  0  0  0  0  0  0  0
   24.0900  -20.2120  -14.9387 C   0  0  0  0  0  0  0  0  0  0  0  0
   24.1869  -21.1948  -15.7633 O   0  0  0  0  0  0  0  0  0  0  0  0
   23.5637  -17.4612  -17.3602 C   0  0  0  0  0  0  0  0  0  0  0  0
   24.2520  -18.7899  -17.0159 C   0  0  2  0  0  0  0  0  0  0  0  0
   24.0931  -18.9409  -15.5813 N   0  0  0  0  0  0  0  0  0  0  0  0
   25.6868  -18.7534  -17.4021 C   0  0  0  0  0  0  0  0  0  0  0  0
   26.0421  -18.7610  -18.6097 O   0  0  0  0  0  0  0  0  0  0  0  0
   26.7044  -18.7091  -16.4606 O   0  0  0  0  0  0  0  0  0  0  0  0
  1  2  1  0
  2  3  1  0
  3  4  1  0
  4  5  1  0
  5  6  1  1
  7  5  1  0
  7  8  2  0
 10  9  1  1
 10 12  1  0
 10 11  1  0
 13 12  1  6
 13 14  1  0
 13 15  1  0
 14  7  1  0
 15 16  2  0
 15 19  1  0
 18 17  1  1
 18 20  1  0
 19 18  1  0
 20 21  2  0
 20 22  1  0
M  END
$$$$
