MLA.pdb
     RDKit          3D

 22 21  0  0  1  0  0  0  0  0999 V2000
   21.9503  -20.7156  -13.0291 C   0  0  0  0  0  0  0  0  0  0  0  0
   23.0410  -19.5093  -13.8126 S   0  0  0  0  0  0  0  0  0  0  0  0
   24.7302  -19.6652  -13.2024 C   0  0  0  0  0  0  0  0  0  0  0  0
   24.6952  -20.3649  -11.8609 C   0  0  0  0  0  0  0  0  0  0  0  0
   26.1075  -20.3184  -11.2757 C   0  0  2  0  0  0  0  0  0  0  0  0
   26.9531  -21.0648  -12.1667 N   0  0  0  0  0  0  0  0  0  0  0  0
   26.1139  -20.9326   -9.9272 C   0  0  0  0  0  0  0  0  0  0  0  0
   26.0965  -22.1879   -9.8199 O   0  0  0  0  0  0  0  0  0  0  0  0
   28.8352  -20.6052   -6.1744 C   0  0  0  0  0  0  0  0  0  0  0  0
   28.1065  -19.3373   -6.6765 C   0  0  2  0  0  0  0  0  0  0  0  0
   28.5877  -18.1995   -5.8168 C   0  0  0  0  0  0  0  0  0  0  0  0
   26.6585  -19.6240   -6.5346 C   0  0  0  0  0  0  0  0  0  0  0  0
   26.0731  -20.6599   -7.4366 C   0  0  2  0  0  0  0  0  0  0  0  0
   26.1394  -20.0856   -8.8001 N   0  0  0  0  0  0  0  0  0  0  0  0
   24.6485  -20.9663   -7.2160 C   0  0  0  0  0  0  0  0  0  0  0  0
   23.7211  -20.1225   -7.5042 O   0  0  0  0  0  0  0  0  0  0  0  0
   22.5678  -23.9290   -6.3521 C   0  0  0  0  0  0  0  0  0  0  0  0
   22.7367  -22.4041   -6.4154 C   0  0  2  0  0  0  0  0  0  0  0  0
   24.1468  -22.1876   -6.6818 N   0  0  0  0  0  0  0  0  0  0  0  0
   22.3241  -21.7765   -5.1328 C   0  0  0  0  0  0  0  0  0  0  0  0
   21.1158  -21.7314   -4.7828 O   0  0  0  0  0  0  0  0  0  0  0  0
   23.2405  -21.2110   -4.2586 O   0  0  0  0  0  0  0  0  0  0  0  0
  1  2  1  0
  2  3  1  0
  3  4  1  0
  4  5  1  0
  5  6  1  6
  7  5  1  0
  7  8  2  0
 10  9  1  1
 10 12  1  0
 10 11  1  0
 13 12  1  1
 13 14  1  0
 13 15  1  0
 14  7  1  0
 15 16  2  0
 15 19  1  0
 18 17  1  1
 18 20  1  0
 19 18  1  0
 20 21  2  0
 20 22  1  0
M  END
$$$$
