MLA.pdb
     RDKit          3D

 22 21  0  0  1  0  0  0  0  0999 V2000
   28.3628  -19.2207   -7.1417 C   0  0  0  0  0  0  0  0  0  0  0  0
   26.8638  -19.7915   -6.3134 S   0  0  0  0  0  0  0  0  0  0  0  0
   25.6780  -20.4562   -7.4975 C   0  0  0  0  0  0  0  0  0  0  0  0
   25.9020  -19.7821   -8.8338 C   0  0  0  0  0  0  0  0  0  0  0  0
   24.8421  -20.3080   -9.8028 C   0  0  2  0  0  0  0  0  0  0  0  0
   24.8866  -21.7429   -9.7313 N   0  0  0  0  0  0  0  0  0  0  0  0
   25.1487  -19.8530  -11.1793 C   0  0  0  0  0  0  0  0  0  0  0  0
   25.1414  -18.6200  -11.4386 O   0  0  0  0  0  0  0  0  0  0  0  0
   28.3824  -19.1733  -13.8914 C   0  0  0  0  0  0  0  0  0  0  0  0
   28.1801  -20.6189  -13.3815 C   0  0  2  0  0  0  0  0  0  0  0  0
   29.3924  -21.3983  -13.8153 C   0  0  0  0  0  0  0  0  0  0  0  0
   26.9151  -21.0882  -13.9969 C   0  0  0  0  0  0  0  0  0  0  0  0
   25.6533  -20.4144  -13.5688 C   0  0  2  0  0  0  0  0  0  0  0  0
   25.4406  -20.8223  -12.1610 N   0  0  0  0  0  0  0  0  0  0  0  0
   24.4329  -20.8340  -14.2805 C   0  0  0  0  0  0  0  0  0  0  0  0
   24.0948  -22.0717  -14.3747 O   0  0  0  0  0  0  0  0  0  0  0  0
   21.4303  -19.2135  -15.7821 C   0  0  0  0  0  0  0  0  0  0  0  0
   22.3598  -20.4295  -15.6596 C   0  0  2  0  0  0  0  0  0  0  0  0
   23.5149  -19.9535  -14.9212 N   0  0  0  0  0  0  0  0  0  0  0  0
   22.7449  -20.9335  -17.0038 C   0  0  0  0  0  0  0  0  0  0  0  0
   21.9486  -21.6126  -17.7033 O   0  0  0  0  0  0  0  0  0  0  0  0
   23.9926  -20.6852  -17.5563 O   0  0  0  0  0  0  0  0  0  0  0  0
  1  2  1  0
  2  3  1  0
  3  4  1  0
  4  5  1  0
  5  6  1  6
  7  5  1  0
  7  8  2  0
 10  9  1  6
 10 12  1  0
 10 11  1  0
 13 12  1  6
 13 14  1  0
 13 15  1  0
 14  7  1  0
 15 16  2  0
 15 19  1  0
 18 17  1  6
 18 20  1  0
 19 18  1  0
 20 21  2  0
 20 22  1  0
M  END
$$$$
