MLA.pdb
     RDKit          3D

 22 21  0  0  1  0  0  0  0  0999 V2000
   20.2377  -23.4012   -8.2889 C   0  0  0  0  0  0  0  0  0  0  0  0
   19.0261  -22.9518   -9.5493 S   0  0  0  0  0  0  0  0  0  0  0  0
   19.5320  -21.4681  -10.4397 C   0  0  0  0  0  0  0  0  0  0  0  0
   21.0200  -21.2727  -10.2443 C   0  0  0  0  0  0  0  0  0  0  0  0
   21.4233  -20.0000  -10.9903 C   0  0  2  0  0  0  0  0  0  0  0  0
   20.7636  -20.0377  -12.2667 N   0  0  0  0  0  0  0  0  0  0  0  0
   22.8935  -19.9684  -11.1732 C   0  0  0  0  0  0  0  0  0  0  0  0
   23.3861  -19.2695  -12.0986 O   0  0  0  0  0  0  0  0  0  0  0  0
   26.8158  -20.9240   -6.8268 C   0  0  0  0  0  0  0  0  0  0  0  0
   26.5422  -20.1556   -8.1403 C   0  0  2  0  0  0  0  0  0  0  0  0
   25.9735  -18.8199   -7.7432 C   0  0  0  0  0  0  0  0  0  0  0  0
   25.5998  -21.0020   -8.9116 C   0  0  0  0  0  0  0  0  0  0  0  0
   25.1608  -20.4977  -10.2467 C   0  0  2  0  0  0  0  0  0  0  0  0
   23.6986  -20.7274  -10.2990 N   0  0  0  0  0  0  0  0  0  0  0  0
   25.7062  -21.2175  -11.4113 C   0  0  0  0  0  0  0  0  0  0  0  0
   26.9729  -21.3259  -11.6089 O   0  0  0  0  0  0  0  0  0  0  0  0
   24.8733  -23.8807  -13.6578 C   0  0  0  0  0  0  0  0  0  0  0  0
   25.5189  -22.4896  -13.5815 C   0  0  2  0  0  0  0  0  0  0  0  0
   24.9269  -21.8580  -12.4167 N   0  0  0  0  0  0  0  0  0  0  0  0
   25.2423  -21.7138  -14.8188 C   0  0  0  0  0  0  0  0  0  0  0  0
   24.5256  -20.6792  -14.7986 O   0  0  0  0  0  0  0  0  0  0  0  0
   25.7546  -22.0846  -16.0533 O   0  0  0  0  0  0  0  0  0  0  0  0
  1  2  1  0
  2  3  1  0
  3  4  1  0
  4  5  1  0
  5  6  1  6
  7  5  1  0
  7  8  2  0
 10  9  1  1
 10 12  1  0
 10 11  1  0
 13 12  1  1
 13 14  1  0
 13 15  1  0
 14  7  1  0
 15 16  2  0
 15 19  1  0
 18 17  1  6
 18 20  1  0
 19 18  1  0
 20 21  2  0
 20 22  1  0
M  END
$$$$
