MLA.pdb
     RDKit          3D

 22 21  0  0  1  0  0  0  0  0999 V2000
   28.7749  -19.9350   -6.3319 C   0  0  0  0  0  0  0  0  0  0  0  0
   27.0766  -19.7195   -5.7592 S   0  0  0  0  0  0  0  0  0  0  0  0
   25.8943  -20.2522   -7.0114 C   0  0  0  0  0  0  0  0  0  0  0  0
   26.3258  -19.6936   -8.3501 C   0  0  0  0  0  0  0  0  0  0  0  0
   25.2163  -19.9951   -9.3587 C   0  0  2  0  0  0  0  0  0  0  0  0
   24.9407  -21.4028   -9.2674 N   0  0  0  0  0  0  0  0  0  0  0  0
   25.6714  -19.6489  -10.7258 C   0  0  0  0  0  0  0  0  0  0  0  0
   25.9751  -18.4554  -10.9922 O   0  0  0  0  0  0  0  0  0  0  0  0
   28.9781  -19.3934  -13.2393 C   0  0  0  0  0  0  0  0  0  0  0  0
   28.6221  -20.7874  -12.6730 C   0  0  2  0  0  0  0  0  0  0  0  0
   29.7891  -21.6855  -12.9839 C   0  0  0  0  0  0  0  0  0  0  0  0
   27.3636  -21.1856  -13.3489 C   0  0  0  0  0  0  0  0  0  0  0  0
   26.1501  -20.3578  -13.0811 C   0  0  2  0  0  0  0  0  0  0  0  0
   25.7499  -20.6742  -11.6907 N   0  0  0  0  0  0  0  0  0  0  0  0
   24.9686  -20.6731  -13.9037 C   0  0  0  0  0  0  0  0  0  0  0  0
   24.4943  -21.8666  -13.9794 O   0  0  0  0  0  0  0  0  0  0  0  0
   22.4783  -18.7911  -15.9697 C   0  0  0  0  0  0  0  0  0  0  0  0
   23.1259  -20.1131  -15.5328 C   0  0  2  0  0  0  0  0  0  0  0  0
   24.2362  -19.7302  -14.6803 N   0  0  0  0  0  0  0  0  0  0  0  0
   23.5904  -20.8858  -16.7145 C   0  0  0  0  0  0  0  0  0  0  0  0
   22.8200  -21.6661  -17.3328 O   0  0  0  0  0  0  0  0  0  0  0  0
   24.8874  -20.7902  -17.1965 O   0  0  0  0  0  0  0  0  0  0  0  0
  1  2  1  0
  2  3  1  0
  3  4  1  0
  4  5  1  0
  5  6  1  6
  7  5  1  0
  7  8  2  0
 10  9  1  6
 10 12  1  0
 10 11  1  0
 13 12  1  6
 13 14  1  0
 13 15  1  0
 14  7  1  0
 15 16  2  0
 15 19  1  0
 18 17  1  6
 18 20  1  0
 19 18  1  0
 20 21  2  0
 20 22  1  0
M  END
$$$$
