MLA.pdb
     RDKit          3D

 22 21  0  0  1  0  0  0  0  0999 V2000
   18.5398  -10.0650  -22.0121 C   0  0  0  0  0  0  0  0  0  0  0  0
   17.8499  -11.6554  -21.5087 S   0  0  0  0  0  0  0  0  0  0  0  0
   18.6301  -12.2552  -19.9983 C   0  0  0  0  0  0  0  0  0  0  0  0
   18.4685  -11.2036  -18.9221 C   0  0  0  0  0  0  0  0  0  0  0  0
   19.1840  -11.7082  -17.6682 C   0  0  2  0  0  0  0  0  0  0  0  0
   18.4453  -12.8473  -17.1962 N   0  0  0  0  0  0  0  0  0  0  0  0
   19.2018  -10.6447  -16.6365 C   0  0  0  0  0  0  0  0  0  0  0  0
   18.2301  -10.5390  -15.8413 O   0  0  0  0  0  0  0  0  0  0  0  0
   21.0296   -9.6143  -12.8199 C   0  0  0  0  0  0  0  0  0  0  0  0
   22.0135   -9.8653  -13.9859 C   0  0  2  0  0  0  0  0  0  0  0  0
   23.3969   -9.8199  -13.3946 C   0  0  0  0  0  0  0  0  0  0  0  0
   21.7488   -8.7906  -14.9728 C   0  0  0  0  0  0  0  0  0  0  0  0
   20.3743   -8.7143  -15.5511 C   0  0  2  0  0  0  0  0  0  0  0  0
   20.3138   -9.7795  -16.5783 N   0  0  0  0  0  0  0  0  0  0  0  0
   20.0524   -7.4679  -16.2686 C   0  0  0  0  0  0  0  0  0  0  0  0
   20.7325   -7.0779  -17.2887 O   0  0  0  0  0  0  0  0  0  0  0  0
   17.2334   -5.0398  -16.3537 C   0  0  0  0  0  0  0  0  0  0  0  0
   18.6824   -5.3973  -16.7146 C   0  0  2  0  0  0  0  0  0  0  0  0
   18.9886   -6.5819  -15.9342 N   0  0  0  0  0  0  0  0  0  0  0  0
   19.5987   -4.2756  -16.3806 C   0  0  0  0  0  0  0  0  0  0  0  0
   19.5910   -3.2031  -17.0395 O   0  0  0  0  0  0  0  0  0  0  0  0
   20.5048   -4.3488  -15.3330 O   0  0  0  0  0  0  0  0  0  0  0  0
  1  2  1  0
  2  3  1  0
  3  4  1  0
  4  5  1  0
  5  6  1  1
  7  5  1  0
  7  8  2  0
 10  9  1  1
 10 12  1  0
 10 11  1  0
 13 12  1  6
 13 14  1  0
 13 15  1  0
 14  7  1  0
 15 16  2  0
 15 19  1  0
 18 17  1  1
 18 20  1  0
 19 18  1  0
 20 21  2  0
 20 22  1  0
M  END
$$$$
