IYL.pdb
     RDKit          3D

 29 29  0  0  1  0  0  0  0  0999 V2000
    5.9526  -11.5425   27.5219 C   0  0  0  0  0  0  0  0  0  0  0  0
    5.5055  -12.6567   26.6098 C   0  0  0  0  0  0  0  0  0  0  0  0
    6.6835  -13.5084   26.1299 C   0  0  2  0  0  0  0  0  0  0  0  0
    7.4788  -12.7739   25.0745 C   0  0  0  0  0  0  0  0  0  0  0  0
    6.1086  -14.8054   25.6239 C   0  0  2  0  0  0  0  0  0  0  0  0
    5.0639  -15.2283   26.5358 N   0  0  0  0  0  0  0  0  0  0  0  0
    7.1284  -15.8413   25.4157 C   0  0  0  0  0  0  0  0  0  0  0  0
    7.9122  -16.1962   26.3277 O   0  0  0  0  0  0  0  0  0  0  0  0
    9.3711  -13.1947   17.4227 O   0  0  0  0  0  0  0  0  0  0  0  0
    8.8680  -13.5799   18.6794 C   0  0  0  0  0  0  0  0  0  0  0  0
    8.5798  -12.6162   19.6253 C   0  0  0  0  0  0  0  0  0  0  0  0
    8.0879  -12.9749   20.8537 C   0  0  0  0  0  0  0  0  0  0  0  0
    7.8615  -14.2911   21.2001 C   0  0  0  0  0  0  0  0  0  0  0  0
    7.3934  -14.6787   22.5248 C   0  0  0  0  0  0  0  0  0  0  0  0
    8.0607  -15.8923   23.0532 C   0  0  2  0  0  0  0  0  0  0  0  0
    7.2388  -16.4661   24.1500 N   0  0  0  0  0  0  0  0  0  0  0  0
    9.3780  -15.6869   23.6173 C   0  0  0  0  0  0  0  0  0  0  0  0
    9.9125  -14.5225   23.4958 O   0  0  0  0  0  0  0  0  0  0  0  0
    8.1538  -15.2356   20.2515 C   0  0  0  0  0  0  0  0  0  0  0  0
    8.6524  -14.8954   18.9988 C   0  0  0  0  0  0  0  0  0  0  0  0
   11.7682  -13.8096   27.2851 C   0  0  0  0  0  0  0  0  0  0  0  0
   10.9369  -15.0254   27.6625 C   0  0  1  0  0  0  0  0  0  0  0  0
   10.0099  -14.5594   28.7889 C   0  0  0  0  0  0  0  0  0  0  0  0
   10.1409  -15.5313   26.4956 C   0  0  0  0  0  0  0  0  0  0  0  0
   10.9901  -16.2338   25.4784 C   0  0  2  0  0  0  0  0  0  0  0  0
   10.1868  -16.6099   24.3144 N   0  0  0  0  0  0  0  0  0  0  0  0
   11.7887  -17.3149   26.0449 C   0  0  0  0  0  0  0  0  0  0  0  0
   11.2784  -18.6067   26.1605 O   0  0  0  0  0  0  0  0  0  0  0  0
   12.9709  -17.1765   26.4665 O   0  0  0  0  0  0  0  0  0  0  0  0
  2  1  1  0
  3  4  1  6
  3  2  1  0
  5  6  1  1
  5  3  1  0
  7  8  2  0
  7  5  1  0
  9 10  1  0
 10 20  2  0
 10 11  1  0
 11 12  2  0
 12 13  1  0
 13 14  1  0
 15 14  1  1
 15 16  1  0
 15 17  1  0
 16  7  1  0
 17 18  2  0
 19 13  2  0
 20 19  1  0
 22 21  1  6
 22 24  1  0
 23 22  1  0
 25 24  1  1
 25 27  1  0
 26 17  1  0
 26 25  1  0
 27 29  2  0
 27 28  1  0
M  END
$$$$
