IYL.pdb
     RDKit          3D

 29 29  0  0  1  0  0  0  0  0999 V2000
    5.3200  -20.9682   23.6260 C   0  0  0  0  0  0  0  0  0  0  0  0
    5.6888  -20.1119   22.4411 C   0  0  0  0  0  0  0  0  0  0  0  0
    6.7027  -19.0274   22.8146 C   0  0  2  0  0  0  0  0  0  0  0  0
    6.1169  -18.0767   23.8338 C   0  0  0  0  0  0  0  0  0  0  0  0
    7.0951  -18.3356   21.5354 C   0  0  2  0  0  0  0  0  0  0  0  0
    7.2903  -19.3440   20.5124 N   0  0  0  0  0  0  0  0  0  0  0  0
    8.2627  -17.4592   21.6932 C   0  0  0  0  0  0  0  0  0  0  0  0
    9.4261  -17.9138   21.8024 O   0  0  0  0  0  0  0  0  0  0  0  0
    7.6837  -14.6513   15.7125 O   0  0  0  0  0  0  0  0  0  0  0  0
    8.0078  -14.4788   17.0711 C   0  0  0  0  0  0  0  0  0  0  0  0
    7.2286  -13.6569   17.8610 C   0  0  0  0  0  0  0  0  0  0  0  0
    7.5302  -13.4794   19.1866 C   0  0  0  0  0  0  0  0  0  0  0  0
    8.6069  -14.0999   19.7860 C   0  0  0  0  0  0  0  0  0  0  0  0
    8.9632  -13.8676   21.1800 C   0  0  0  0  0  0  0  0  0  0  0  0
    9.2118  -15.1158   21.9400 C   0  0  2  0  0  0  0  0  0  0  0  0
    8.0813  -16.0554   21.7237 N   0  0  0  0  0  0  0  0  0  0  0  0
    9.3248  -14.9628   23.3751 C   0  0  0  0  0  0  0  0  0  0  0  0
   10.4159  -14.4690   23.8461 O   0  0  0  0  0  0  0  0  0  0  0  0
    9.3712  -14.9109   18.9887 C   0  0  0  0  0  0  0  0  0  0  0  0
    9.0839  -15.1069   17.6424 C   0  0  0  0  0  0  0  0  0  0  0  0
    8.7292  -12.3159   27.5861 C   0  0  0  0  0  0  0  0  0  0  0  0
    7.4650  -13.1228   27.3373 C   0  0  1  0  0  0  0  0  0  0  0  0
    6.3030  -12.1493   27.5554 C   0  0  0  0  0  0  0  0  0  0  0  0
    7.4343  -13.6821   25.9454 C   0  0  0  0  0  0  0  0  0  0  0  0
    8.4547  -14.7607   25.7339 C   0  0  2  0  0  0  0  0  0  0  0  0
    8.3733  -15.2801   24.3682 N   0  0  0  0  0  0  0  0  0  0  0  0
    8.4380  -15.7798   26.7773 C   0  0  0  0  0  0  0  0  0  0  0  0
    9.6191  -16.3450   27.2549 O   0  0  0  0  0  0  0  0  0  0  0  0
    7.3863  -16.2233   27.3175 O   0  0  0  0  0  0  0  0  0  0  0  0
  2  1  1  0
  3  4  1  1
  3  2  1  0
  5  6  1  6
  5  3  1  0
  7  8  2  0
  7  5  1  0
  9 10  1  0
 10 20  2  0
 10 11  1  0
 11 12  2  0
 12 13  1  0
 13 14  1  0
 15 14  1  6
 15 16  1  0
 15 17  1  0
 16  7  1  0
 17 18  2  0
 19 13  2  0
 20 19  1  0
 22 21  1  6
 22 24  1  0
 23 22  1  0
 25 24  1  1
 25 27  1  0
 26 17  1  0
 26 25  1  0
 27 29  2  0
 27 28  1  0
M  END
$$$$
