IYL.pdb
     RDKit          3D

 29 29  0  0  1  0  0  0  0  0999 V2000
    7.6409  -11.9914   20.6365 C   0  0  0  0  0  0  0  0  0  0  0  0
    7.4660  -13.4881   20.5860 C   0  0  0  0  0  0  0  0  0  0  0  0
    8.5100  -14.1544   19.6864 C   0  0  2  0  0  0  0  0  0  0  0  0
    8.4546  -13.5811   18.2885 C   0  0  0  0  0  0  0  0  0  0  0  0
    8.2336  -15.6348   19.7168 C   0  0  2  0  0  0  0  0  0  0  0  0
    6.9160  -15.8647   19.1576 N   0  0  0  0  0  0  0  0  0  0  0  0
    8.3876  -16.2187   21.0553 C   0  0  0  0  0  0  0  0  0  0  0  0
    7.4106  -16.3941   21.8212 O   0  0  0  0  0  0  0  0  0  0  0  0
   12.3027  -20.1391   27.9611 O   0  0  0  0  0  0  0  0  0  0  0  0
   12.0318  -19.5770   26.6997 C   0  0  0  0  0  0  0  0  0  0  0  0
   12.8978  -18.6425   26.1671 C   0  0  0  0  0  0  0  0  0  0  0  0
   12.6488  -18.0865   24.9389 C   0  0  0  0  0  0  0  0  0  0  0  0
   11.5418  -18.4253   24.1883 C   0  0  0  0  0  0  0  0  0  0  0  0
   11.2447  -17.7935   22.9090 C   0  0  0  0  0  0  0  0  0  0  0  0
    9.9047  -17.1616   22.8615 C   0  0  2  0  0  0  0  0  0  0  0  0
    9.6747  -16.6000   21.5053 N   0  0  0  0  0  0  0  0  0  0  0  0
    9.6982  -16.0624   23.7807 C   0  0  0  0  0  0  0  0  0  0  0  0
   10.1020  -14.8934   23.4252 O   0  0  0  0  0  0  0  0  0  0  0  0
   10.6914  -19.3526   24.7309 C   0  0  0  0  0  0  0  0  0  0  0  0
   10.9240  -19.9307   25.9740 C   0  0  0  0  0  0  0  0  0  0  0  0
    7.9598  -11.6592   26.0781 C   0  0  0  0  0  0  0  0  0  0  0  0
    7.3309  -13.0191   26.3364 C   0  0  1  0  0  0  0  0  0  0  0  0
    5.8191  -12.8052   26.2169 C   0  0  0  0  0  0  0  0  0  0  0  0
    7.8022  -14.0407   25.3438 C   0  0  0  0  0  0  0  0  0  0  0  0
    8.9231  -14.8853   25.8724 C   0  0  2  0  0  0  0  0  0  0  0  0
    9.0878  -16.0866   25.0531 N   0  0  0  0  0  0  0  0  0  0  0  0
    8.8291  -15.1321   27.3069 C   0  0  0  0  0  0  0  0  0  0  0  0
    8.5784  -16.4091   27.8059 O   0  0  0  0  0  0  0  0  0  0  0  0
    8.9608  -14.2387   28.1896 O   0  0  0  0  0  0  0  0  0  0  0  0
  2  1  1  0
  3  4  1  6
  3  2  1  0
  5  6  1  1
  5  3  1  0
  7  8  2  0
  7  5  1  0
  9 10  1  0
 10 20  2  0
 10 11  1  0
 11 12  2  0
 12 13  1  0
 13 14  1  0
 15 14  1  6
 15 16  1  0
 15 17  1  0
 16  7  1  0
 17 18  2  0
 19 13  2  0
 20 19  1  0
 22 21  1  6
 22 24  1  0
 23 22  1  0
 25 24  1  6
 25 27  1  0
 26 17  1  0
 26 25  1  0
 27 29  2  0
 27 28  1  0
M  END
$$$$
