IYL.pdb
     RDKit          3D

 29 29  0  0  1  0  0  0  0  0999 V2000
    8.1130  -12.2865   18.0038 C   0  0  0  0  0  0  0  0  0  0  0  0
    8.2705  -13.7713   18.2134 C   0  0  0  0  0  0  0  0  0  0  0  0
    7.8917  -14.1899   19.6363 C   0  0  2  0  0  0  0  0  0  0  0  0
    8.7690  -13.4910   20.6501 C   0  0  0  0  0  0  0  0  0  0  0  0
    8.0155  -15.6897   19.6992 C   0  0  2  0  0  0  0  0  0  0  0  0
    7.1893  -16.2601   18.6534 N   0  0  0  0  0  0  0  0  0  0  0  0
    7.7018  -16.2352   21.0259 C   0  0  0  0  0  0  0  0  0  0  0  0
    6.5321  -16.2567   21.4770 O   0  0  0  0  0  0  0  0  0  0  0  0
    9.2323  -20.4386   28.7599 O   0  0  0  0  0  0  0  0  0  0  0  0
    9.2973  -19.9088   27.4577 C   0  0  0  0  0  0  0  0  0  0  0  0
    8.2363  -20.0889   26.5924 C   0  0  0  0  0  0  0  0  0  0  0  0
    8.2835  -19.5780   25.3210 C   0  0  0  0  0  0  0  0  0  0  0  0
    9.3723  -18.8730   24.8510 C   0  0  0  0  0  0  0  0  0  0  0  0
    9.4488  -18.3789   23.4820 C   0  0  0  0  0  0  0  0  0  0  0  0
    8.5036  -17.2718   23.2020 C   0  0  2  0  0  0  0  0  0  0  0  0
    8.7444  -16.7564   21.8295 N   0  0  0  0  0  0  0  0  0  0  0  0
    8.6092  -16.1227   24.0760 C   0  0  0  0  0  0  0  0  0  0  0  0
    9.6257  -15.3464   23.9336 O   0  0  0  0  0  0  0  0  0  0  0  0
   10.4175  -18.7041   25.7209 C   0  0  0  0  0  0  0  0  0  0  0  0
   10.3916  -19.2121   27.0150 C   0  0  0  0  0  0  0  0  0  0  0  0
    7.7303  -11.4935   26.3317 C   0  0  0  0  0  0  0  0  0  0  0  0
    6.9061  -12.5654   27.0267 C   0  0  1  0  0  0  0  0  0  0  0  0
    5.5627  -11.9070   27.3544 C   0  0  0  0  0  0  0  0  0  0  0  0
    6.7084  -13.7644   26.1465 C   0  0  0  0  0  0  0  0  0  0  0  0
    7.9744  -14.5401   25.9346 C   0  0  2  0  0  0  0  0  0  0  0  0
    7.7215  -15.7103   25.0931 N   0  0  0  0  0  0  0  0  0  0  0  0
    8.6896  -14.8219   27.1742 C   0  0  0  0  0  0  0  0  0  0  0  0
    9.7930  -14.0633   27.5608 O   0  0  0  0  0  0  0  0  0  0  0  0
    8.3810  -15.7480   27.9753 O   0  0  0  0  0  0  0  0  0  0  0  0
  2  1  1  0
  3  4  1  1
  3  2  1  0
  5  6  1  6
  5  3  1  0
  7  8  2  0
  7  5  1  0
  9 10  1  0
 10 20  2  0
 10 11  1  0
 11 12  2  0
 12 13  1  0
 13 14  1  0
 15 14  1  1
 15 16  1  0
 15 17  1  0
 16  7  1  0
 17 18  2  0
 19 13  2  0
 20 19  1  0
 22 21  1  6
 22 24  1  0
 23 22  1  0
 25 24  1  1
 25 27  1  0
 26 17  1  0
 26 25  1  0
 27 29  2  0
 27 28  1  0
M  END
$$$$
