IYL.pdb
     RDKit          3D

 29 29  0  0  1  0  0  0  0  0999 V2000
    8.3017  -12.4932   18.0245 C   0  0  0  0  0  0  0  0  0  0  0  0
    8.3641  -13.9813   18.2584 C   0  0  0  0  0  0  0  0  0  0  0  0
    7.8239  -14.3649   19.6385 C   0  0  2  0  0  0  0  0  0  0  0  0
    8.5564  -13.6131   20.7267 C   0  0  0  0  0  0  0  0  0  0  0  0
    7.9708  -15.8585   19.7666 C   0  0  2  0  0  0  0  0  0  0  0  0
    7.3043  -16.4810   18.6397 N   0  0  0  0  0  0  0  0  0  0  0  0
    7.4947  -16.3722   21.0572 C   0  0  0  0  0  0  0  0  0  0  0  0
    6.3048  -16.2377   21.4288 O   0  0  0  0  0  0  0  0  0  0  0  0
    7.9847  -20.0679   29.1047 O   0  0  0  0  0  0  0  0  0  0  0  0
    8.1704  -19.7347   27.7500 C   0  0  0  0  0  0  0  0  0  0  0  0
    9.4278  -19.3875   27.2973 C   0  0  0  0  0  0  0  0  0  0  0  0
    9.6256  -19.0615   25.9804 C   0  0  0  0  0  0  0  0  0  0  0  0
    8.5982  -19.0629   25.0595 C   0  0  0  0  0  0  0  0  0  0  0  0
    8.7946  -18.6612   23.6723 C   0  0  0  0  0  0  0  0  0  0  0  0
    8.0234  -17.4529   23.2945 C   0  0  2  0  0  0  0  0  0  0  0  0
    8.3984  -17.0425   21.9166 N   0  0  0  0  0  0  0  0  0  0  0  0
    8.2416  -16.2866   24.1236 C   0  0  0  0  0  0  0  0  0  0  0  0
    9.4127  -15.7528   24.1198 O   0  0  0  0  0  0  0  0  0  0  0  0
    7.3563  -19.4080   25.5244 C   0  0  0  0  0  0  0  0  0  0  0  0
    7.1321  -19.7434   26.8550 C   0  0  0  0  0  0  0  0  0  0  0  0
    7.8909  -11.5355   26.4454 C   0  0  0  0  0  0  0  0  0  0  0  0
    6.8604  -12.4896   27.0277 C   0  0  1  0  0  0  0  0  0  0  0  0
    5.6178  -11.6382   27.3043 C   0  0  0  0  0  0  0  0  0  0  0  0
    6.5395  -13.6020   26.0734 C   0  0  0  0  0  0  0  0  0  0  0  0
    7.7061  -14.5143   25.8365 C   0  0  2  0  0  0  0  0  0  0  0  0
    7.3199  -15.6202   24.9594 N   0  0  0  0  0  0  0  0  0  0  0  0
    8.3798  -14.9162   27.0662 C   0  0  0  0  0  0  0  0  0  0  0  0
    9.6282  -14.3998   27.4087 O   0  0  0  0  0  0  0  0  0  0  0  0
    7.9054  -15.7405   27.8970 O   0  0  0  0  0  0  0  0  0  0  0  0
  2  1  1  0
  3  4  1  1
  3  2  1  0
  5  6  1  6
  5  3  1  0
  7  8  2  0
  7  5  1  0
  9 10  1  0
 10 20  2  0
 10 11  1  0
 11 12  2  0
 12 13  1  0
 13 14  1  0
 15 14  1  1
 15 16  1  0
 15 17  1  0
 16  7  1  0
 17 18  2  0
 19 13  2  0
 20 19  1  0
 22 21  1  6
 22 24  1  0
 23 22  1  0
 25 24  1  1
 25 27  1  0
 26 17  1  0
 26 25  1  0
 27 29  2  0
 27 28  1  0
M  END
$$$$
