IYL.pdb
     RDKit          3D

 29 29  0  0  1  0  0  0  0  0999 V2000
    5.4454  -11.4375   27.8963 C   0  0  0  0  0  0  0  0  0  0  0  0
    5.0184  -12.5860   27.0178 C   0  0  0  0  0  0  0  0  0  0  0  0
    6.2191  -13.3247   26.4211 C   0  0  2  0  0  0  0  0  0  0  0  0
    7.1653  -12.3535   25.7523 C   0  0  0  0  0  0  0  0  0  0  0  0
    5.6707  -14.3509   25.4645 C   0  0  2  0  0  0  0  0  0  0  0  0
    5.0222  -15.3932   26.2357 N   0  0  0  0  0  0  0  0  0  0  0  0
    6.6876  -14.8789   24.5462 C   0  0  0  0  0  0  0  0  0  0  0  0
    7.0216  -16.0874   24.5470 O   0  0  0  0  0  0  0  0  0  0  0  0
   10.5571  -15.2007   16.5597 O   0  0  0  0  0  0  0  0  0  0  0  0
    9.9022  -14.8216   17.7462 C   0  0  0  0  0  0  0  0  0  0  0  0
    8.5517  -15.0698   17.8913 C   0  0  0  0  0  0  0  0  0  0  0  0
    7.8992  -14.7079   19.0415 C   0  0  0  0  0  0  0  0  0  0  0  0
    8.5463  -14.0886   20.0909 C   0  0  0  0  0  0  0  0  0  0  0  0
    7.8435  -13.6511   21.2905 C   0  0  0  0  0  0  0  0  0  0  0  0
    8.1059  -14.5073   22.4718 C   0  0  2  0  0  0  0  0  0  0  0  0
    7.3167  -14.0056   23.6264 N   0  0  0  0  0  0  0  0  0  0  0  0
    9.4805  -14.5455   22.9240 C   0  0  0  0  0  0  0  0  0  0  0  0
   10.1484  -13.4454   22.9217 O   0  0  0  0  0  0  0  0  0  0  0  0
    9.8857  -13.8477   19.9312 C   0  0  0  0  0  0  0  0  0  0  0  0
   10.5685  -14.2068   18.7744 C   0  0  0  0  0  0  0  0  0  0  0  0
   10.9685  -14.1992   27.4983 C   0  0  0  0  0  0  0  0  0  0  0  0
   10.1363  -15.4273   27.1658 C   0  0  1  0  0  0  0  0  0  0  0  0
    8.9552  -15.4031   28.1405 C   0  0  0  0  0  0  0  0  0  0  0  0
    9.6527  -15.3961   25.7458 C   0  0  0  0  0  0  0  0  0  0  0  0
   10.7307  -15.7390   24.7610 C   0  0  2  0  0  0  0  0  0  0  0  0
   10.2187  -15.6535   23.3928 N   0  0  0  0  0  0  0  0  0  0  0  0
   11.4234  -16.9830   25.0777 C   0  0  0  0  0  0  0  0  0  0  0  0
   10.8572  -18.2215   24.7810 O   0  0  0  0  0  0  0  0  0  0  0  0
   12.5570  -17.0416   25.6310 O   0  0  0  0  0  0  0  0  0  0  0  0
  2  1  1  0
  3  4  1  6
  3  2  1  0
  5  6  1  1
  5  3  1  0
  7  8  2  0
  7  5  1  0
  9 10  1  0
 10 20  2  0
 10 11  1  0
 11 12  2  0
 12 13  1  0
 13 14  1  0
 15 14  1  6
 15 16  1  0
 15 17  1  0
 16  7  1  0
 17 18  2  0
 19 13  2  0
 20 19  1  0
 22 21  1  1
 22 24  1  0
 23 22  1  0
 25 24  1  1
 25 27  1  0
 26 17  1  0
 26 25  1  0
 27 29  2  0
 27 28  1  0
M  END
$$$$
