IYL.pdb
     RDKit          3D

 29 29  0  0  1  0  0  0  0  0999 V2000
    7.8743  -12.5997   18.2483 C   0  0  0  0  0  0  0  0  0  0  0  0
    7.8636  -14.0911   18.4694 C   0  0  0  0  0  0  0  0  0  0  0  0
    7.4614  -14.4526   19.9015 C   0  0  2  0  0  0  0  0  0  0  0  0
    8.4127  -13.8285   20.8972 C   0  0  0  0  0  0  0  0  0  0  0  0
    7.4407  -15.9564   19.9842 C   0  0  2  0  0  0  0  0  0  0  0  0
    6.5836  -16.4598   18.9289 N   0  0  0  0  0  0  0  0  0  0  0  0
    7.0520  -16.4518   21.3107 C   0  0  0  0  0  0  0  0  0  0  0  0
    5.8750  -16.3662   21.7343 O   0  0  0  0  0  0  0  0  0  0  0  0
    8.0981  -20.5787   29.1650 O   0  0  0  0  0  0  0  0  0  0  0  0
    8.1659  -20.1203   27.8362 C   0  0  0  0  0  0  0  0  0  0  0  0
    7.0727  -20.2670   27.0055 C   0  0  0  0  0  0  0  0  0  0  0  0
    7.1222  -19.8245   25.7088 C   0  0  0  0  0  0  0  0  0  0  0  0
    8.2452  -19.2232   25.1787 C   0  0  0  0  0  0  0  0  0  0  0  0
    8.3202  -18.8044   23.7847 C   0  0  0  0  0  0  0  0  0  0  0  0
    7.7274  -17.4682   23.5386 C   0  0  2  0  0  0  0  0  0  0  0  0
    8.0280  -17.0469   22.1459 N   0  0  0  0  0  0  0  0  0  0  0  0
    8.2170  -16.4008   24.3850 C   0  0  0  0  0  0  0  0  0  0  0  0
    9.3145  -15.8184   24.0494 O   0  0  0  0  0  0  0  0  0  0  0  0
    9.3221  -19.0863   26.0148 C   0  0  0  0  0  0  0  0  0  0  0  0
    9.2944  -19.5263   27.3336 C   0  0  0  0  0  0  0  0  0  0  0  0
    6.2644  -11.3886   27.0561 C   0  0  0  0  0  0  0  0  0  0  0  0
    7.3783  -12.4232   27.0671 C   0  0  1  0  0  0  0  0  0  0  0  0
    7.6582  -12.7142   28.5444 C   0  0  0  0  0  0  0  0  0  0  0  0
    6.9730  -13.6756   26.3472 C   0  0  0  0  0  0  0  0  0  0  0  0
    8.1065  -14.6456   26.1931 C   0  0  2  0  0  0  0  0  0  0  0  0
    7.6393  -15.8812   25.5634 N   0  0  0  0  0  0  0  0  0  0  0  0
    8.8702  -14.8364   27.4210 C   0  0  0  0  0  0  0  0  0  0  0  0
    8.4891  -15.7836   28.3697 O   0  0  0  0  0  0  0  0  0  0  0  0
    9.9067  -14.1798   27.7198 O   0  0  0  0  0  0  0  0  0  0  0  0
  2  1  1  0
  3  4  1  1
  3  2  1  0
  5  6  1  6
  5  3  1  0
  7  8  2  0
  7  5  1  0
  9 10  1  0
 10 20  2  0
 10 11  1  0
 11 12  2  0
 12 13  1  0
 13 14  1  0
 15 14  1  1
 15 16  1  0
 15 17  1  0
 16  7  1  0
 17 18  2  0
 19 13  2  0
 20 19  1  0
 22 21  1  1
 22 24  1  0
 23 22  1  0
 25 24  1  1
 25 27  1  0
 26 17  1  0
 26 25  1  0
 27 29  2  0
 27 28  1  0
M  END
$$$$
