IYL.pdb
     RDKit          3D

 29 29  0  0  1  0  0  0  0  0999 V2000
    7.9757  -12.1685   18.9061 C   0  0  0  0  0  0  0  0  0  0  0  0
    8.2353  -13.6490   19.0244 C   0  0  0  0  0  0  0  0  0  0  0  0
    7.7529  -14.2073   20.3657 C   0  0  2  0  0  0  0  0  0  0  0  0
    8.5437  -13.6112   21.5080 C   0  0  0  0  0  0  0  0  0  0  0  0
    7.8852  -15.7058   20.2893 C   0  0  2  0  0  0  0  0  0  0  0  0
    7.2447  -16.1591   19.0703 N   0  0  0  0  0  0  0  0  0  0  0  0
    7.3708  -16.3878   21.4837 C   0  0  0  0  0  0  0  0  0  0  0  0
    6.1427  -16.5339   21.6894 O   0  0  0  0  0  0  0  0  0  0  0  0
    7.5811  -20.9577   29.1400 O   0  0  0  0  0  0  0  0  0  0  0  0
    7.8647  -20.3617   27.8970 C   0  0  0  0  0  0  0  0  0  0  0  0
    6.9338  -20.4267   26.8791 C   0  0  0  0  0  0  0  0  0  0  0  0
    7.1942  -19.8501   25.6629 C   0  0  0  0  0  0  0  0  0  0  0  0
    8.3765  -19.1897   25.3994 C   0  0  0  0  0  0  0  0  0  0  0  0
    8.6793  -18.6263   24.0898 C   0  0  0  0  0  0  0  0  0  0  0  0
    7.8304  -17.4629   23.7389 C   0  0  2  0  0  0  0  0  0  0  0  0
    8.2808  -16.9010   22.4393 N   0  0  0  0  0  0  0  0  0  0  0  0
    7.8630  -16.3592   24.6751 C   0  0  0  0  0  0  0  0  0  0  0  0
    7.3355  -16.5354   25.8356 O   0  0  0  0  0  0  0  0  0  0  0  0
    9.2906  -19.1351   26.4188 C   0  0  0  0  0  0  0  0  0  0  0  0
    9.0480  -19.7115   27.6607 C   0  0  0  0  0  0  0  0  0  0  0  0
    8.0189  -11.2246   26.5393 C   0  0  0  0  0  0  0  0  0  0  0  0
    7.0903  -12.3970   26.8122 C   0  0  1  0  0  0  0  0  0  0  0  0
    5.6908  -11.7917   26.9560 C   0  0  0  0  0  0  0  0  0  0  0  0
    7.1233  -13.3968   25.6939 C   0  0  0  0  0  0  0  0  0  0  0  0
    8.4551  -14.0744   25.5643 C   0  0  2  0  0  0  0  0  0  0  0  0
    8.4178  -15.0738   24.4960 N   0  0  0  0  0  0  0  0  0  0  0  0
    8.9792  -14.5589   26.8364 C   0  0  0  0  0  0  0  0  0  0  0  0
    9.3367  -13.6765   27.8542 O   0  0  0  0  0  0  0  0  0  0  0  0
    9.1496  -15.7790   27.1138 O   0  0  0  0  0  0  0  0  0  0  0  0
  2  1  1  0
  3  4  1  1
  3  2  1  0
  5  6  1  6
  5  3  1  0
  7  8  2  0
  7  5  1  0
  9 10  1  0
 10 20  2  0
 10 11  1  0
 11 12  2  0
 12 13  1  0
 13 14  1  0
 15 14  1  1
 15 16  1  0
 15 17  1  0
 16  7  1  0
 17 18  2  0
 19 13  2  0
 20 19  1  0
 22 21  1  6
 22 24  1  0
 23 22  1  0
 25 24  1  1
 25 27  1  0
 26 17  1  0
 26 25  1  0
 27 29  2  0
 27 28  1  0
M  END
$$$$
