IYL.pdb
     RDKit          3D

 29 29  0  0  1  0  0  0  0  0999 V2000
   13.9317  -20.1994   19.7179 C   0  0  0  0  0  0  0  0  0  0  0  0
   12.7030  -19.3574   19.4850 C   0  0  0  0  0  0  0  0  0  0  0  0
   12.3715  -18.4843   20.6980 C   0  0  2  0  0  0  0  0  0  0  0  0
   12.2648  -19.3263   21.9491 C   0  0  0  0  0  0  0  0  0  0  0  0
   11.0915  -17.7576   20.3778 C   0  0  2  0  0  0  0  0  0  0  0  0
   11.2022  -17.2050   19.0422 N   0  0  0  0  0  0  0  0  0  0  0  0
   10.7427  -16.7431   21.3805 C   0  0  0  0  0  0  0  0  0  0  0  0
   11.4336  -15.7108   21.5510 O   0  0  0  0  0  0  0  0  0  0  0  0
    5.5183  -12.0823   26.8569 O   0  0  0  0  0  0  0  0  0  0  0  0
    6.0635  -13.0003   25.9401 C   0  0  0  0  0  0  0  0  0  0  0  0
    6.8330  -12.5421   24.8890 C   0  0  0  0  0  0  0  0  0  0  0  0
    7.3724  -13.4236   23.9881 C   0  0  0  0  0  0  0  0  0  0  0  0
    7.1765  -14.7860   24.0836 C   0  0  0  0  0  0  0  0  0  0  0  0
    7.7004  -15.7198   23.0949 C   0  0  0  0  0  0  0  0  0  0  0  0
    9.1655  -15.9224   23.1948 C   0  0  2  0  0  0  0  0  0  0  0  0
    9.5922  -16.9254   22.1852 N   0  0  0  0  0  0  0  0  0  0  0  0
    9.6432  -16.4200   24.4675 C   0  0  0  0  0  0  0  0  0  0  0  0
   10.1574  -17.5993   24.5007 O   0  0  0  0  0  0  0  0  0  0  0  0
    6.4095  -15.2249   25.1309 C   0  0  0  0  0  0  0  0  0  0  0  0
    5.8533  -14.3498   26.0574 C   0  0  0  0  0  0  0  0  0  0  0  0
   10.3138  -13.1162   28.8921 C   0  0  0  0  0  0  0  0  0  0  0  0
   10.5572  -14.1070   27.7649 C   0  0  1  0  0  0  0  0  0  0  0  0
   12.0762  -14.1519   27.5743 C   0  0  0  0  0  0  0  0  0  0  0  0
   10.0248  -15.4681   28.1043 C   0  0  0  0  0  0  0  0  0  0  0  0
   10.0972  -16.4211   26.9486 C   0  0  2  0  0  0  0  0  0  0  0  0
    9.6343  -15.7720   25.7214 N   0  0  0  0  0  0  0  0  0  0  0  0
    9.4774  -17.7115   27.2285 C   0  0  0  0  0  0  0  0  0  0  0  0
    8.2451  -18.0567   26.6764 O   0  0  0  0  0  0  0  0  0  0  0  0
    9.9872  -18.5959   27.9720 O   0  0  0  0  0  0  0  0  0  0  0  0
  2  1  1  0
  3  4  1  1
  3  2  1  0
  5  6  1  6
  5  3  1  0
  7  8  2  0
  7  5  1  0
  9 10  1  0
 10 20  2  0
 10 11  1  0
 11 12  2  0
 12 13  1  0
 13 14  1  0
 15 14  1  1
 15 16  1  0
 15 17  1  0
 16  7  1  0
 17 18  2  0
 19 13  2  0
 20 19  1  0
 22 21  1  1
 22 24  1  0
 23 22  1  0
 25 24  1  1
 25 27  1  0
 26 17  1  0
 26 25  1  0
 27 29  2  0
 27 28  1  0
M  END
$$$$
