IYL.pdb
     RDKit          3D

 29 29  0  0  1  0  0  0  0  0999 V2000
    8.3625  -12.4092   18.4430 C   0  0  0  0  0  0  0  0  0  0  0  0
    8.2869  -13.8911   18.7100 C   0  0  0  0  0  0  0  0  0  0  0  0
    7.7850  -14.1910   20.1248 C   0  0  2  0  0  0  0  0  0  0  0  0
    8.6813  -13.5460   21.1575 C   0  0  0  0  0  0  0  0  0  0  0  0
    7.7293  -15.6900   20.2612 C   0  0  2  0  0  0  0  0  0  0  0  0
    6.8632  -16.2111   19.2220 N   0  0  0  0  0  0  0  0  0  0  0  0
    7.3261  -16.1284   21.6034 C   0  0  0  0  0  0  0  0  0  0  0  0
    6.1393  -16.0507   22.0002 O   0  0  0  0  0  0  0  0  0  0  0  0
    7.8571  -20.2696   29.3935 O   0  0  0  0  0  0  0  0  0  0  0  0
    7.9921  -19.8442   28.0588 C   0  0  0  0  0  0  0  0  0  0  0  0
    9.2514  -19.6453   27.5284 C   0  0  0  0  0  0  0  0  0  0  0  0
    9.3999  -19.2322   26.2296 C   0  0  0  0  0  0  0  0  0  0  0  0
    8.3198  -18.9981   25.4036 C   0  0  0  0  0  0  0  0  0  0  0  0
    8.4735  -18.5037   24.0412 C   0  0  0  0  0  0  0  0  0  0  0  0
    7.9560  -17.1275   23.8524 C   0  0  2  0  0  0  0  0  0  0  0  0
    8.2991  -16.6575   22.4853 N   0  0  0  0  0  0  0  0  0  0  0  0
    8.4890  -16.1292   24.7550 C   0  0  0  0  0  0  0  0  0  0  0  0
    9.7274  -15.8018   24.6308 O   0  0  0  0  0  0  0  0  0  0  0  0
    7.0770  -19.1983   25.9449 C   0  0  0  0  0  0  0  0  0  0  0  0
    6.9021  -19.6180   27.2589 C   0  0  0  0  0  0  0  0  0  0  0  0
    5.5807  -12.0697   26.9947 C   0  0  0  0  0  0  0  0  0  0  0  0
    6.6758  -12.8844   26.3250 C   0  0  1  0  0  0  0  0  0  0  0  0
    7.4946  -11.8824   25.5057 C   0  0  0  0  0  0  0  0  0  0  0  0
    7.5422  -13.5770   27.3354 C   0  0  0  0  0  0  0  0  0  0  0  0
    8.5134  -14.5310   26.7062 C   0  0  2  0  0  0  0  0  0  0  0  0
    7.8204  -15.4308   25.7833 N   0  0  0  0  0  0  0  0  0  0  0  0
    9.3754  -15.1964   27.6766 C   0  0  0  0  0  0  0  0  0  0  0  0
   10.4393  -14.5263   28.2778 O   0  0  0  0  0  0  0  0  0  0  0  0
    9.2365  -16.3975   28.0412 O   0  0  0  0  0  0  0  0  0  0  0  0
  2  1  1  0
  3  4  1  1
  3  2  1  0
  5  6  1  6
  5  3  1  0
  7  8  2  0
  7  5  1  0
  9 10  1  0
 10 20  2  0
 10 11  1  0
 11 12  2  0
 12 13  1  0
 13 14  1  0
 15 14  1  1
 15 16  1  0
 15 17  1  0
 16  7  1  0
 17 18  2  0
 19 13  2  0
 20 19  1  0
 22 21  1  1
 22 24  1  0
 23 22  1  0
 25 24  1  1
 25 27  1  0
 26 17  1  0
 26 25  1  0
 27 29  2  0
 27 28  1  0
M  END
$$$$
