IYL.pdb
     RDKit          3D

 29 29  0  0  1  0  0  0  0  0999 V2000
    7.4347  -11.9264   19.8416 C   0  0  0  0  0  0  0  0  0  0  0  0
    8.1063  -13.2391   19.5269 C   0  0  0  0  0  0  0  0  0  0  0  0
    8.2677  -14.1108   20.7749 C   0  0  2  0  0  0  0  0  0  0  0  0
    9.0994  -13.4006   21.8188 C   0  0  0  0  0  0  0  0  0  0  0  0
    8.8866  -15.4085   20.3256 C   0  0  2  0  0  0  0  0  0  0  0  0
    8.0492  -15.9786   19.2886 N   0  0  0  0  0  0  0  0  0  0  0  0
    9.1267  -16.3422   21.4332 C   0  0  0  0  0  0  0  0  0  0  0  0
    8.1986  -16.9961   21.9653 O   0  0  0  0  0  0  0  0  0  0  0  0
   11.7238  -21.9824   18.6111 O   0  0  0  0  0  0  0  0  0  0  0  0
   11.7768  -21.0394   19.6545 C   0  0  0  0  0  0  0  0  0  0  0  0
   12.2257  -19.7592   19.3970 C   0  0  0  0  0  0  0  0  0  0  0  0
   12.2822  -18.8285   20.4021 C   0  0  0  0  0  0  0  0  0  0  0  0
   11.9018  -19.1187   21.6962 C   0  0  0  0  0  0  0  0  0  0  0  0
   12.0153  -18.1486   22.7779 C   0  0  0  0  0  0  0  0  0  0  0  0
   10.7506  -17.4277   23.0573 C   0  0  2  0  0  0  0  0  0  0  0  0
   10.4432  -16.5183   21.9232 N   0  0  0  0  0  0  0  0  0  0  0  0
   10.7544  -16.5921   24.2394 C   0  0  0  0  0  0  0  0  0  0  0  0
   11.4115  -15.4864   24.1958 O   0  0  0  0  0  0  0  0  0  0  0  0
   11.4603  -20.3935   21.9360 C   0  0  0  0  0  0  0  0  0  0  0  0
   11.3933  -21.3536   20.9324 C   0  0  0  0  0  0  0  0  0  0  0  0
   10.5883  -13.0071   27.5906 C   0  0  0  0  0  0  0  0  0  0  0  0
    9.2888  -13.7962   27.5928 C   0  0  1  0  0  0  0  0  0  0  0  0
    8.1723  -12.7551   27.4705 C   0  0  0  0  0  0  0  0  0  0  0  0
    9.2341  -14.7692   26.4519 C   0  0  0  0  0  0  0  0  0  0  0  0
   10.2178  -15.8912   26.6022 C   0  0  2  0  0  0  0  0  0  0  0  0
   10.1110  -16.8185   25.4751 N   0  0  0  0  0  0  0  0  0  0  0  0
   10.1748  -16.5205   27.9174 C   0  0  0  0  0  0  0  0  0  0  0  0
   10.9552  -16.0476   28.9709 O   0  0  0  0  0  0  0  0  0  0  0  0
    9.4518  -17.5155   28.2034 O   0  0  0  0  0  0  0  0  0  0  0  0
  2  1  1  0
  3  4  1  1
  3  2  1  0
  5  6  1  6
  5  3  1  0
  7  8  2  0
  7  5  1  0
  9 10  1  0
 10 20  2  0
 10 11  1  0
 11 12  2  0
 12 13  1  0
 13 14  1  0
 15 14  1  6
 15 16  1  0
 15 17  1  0
 16  7  1  0
 17 18  2  0
 19 13  2  0
 20 19  1  0
 22 21  1  6
 22 24  1  0
 23 22  1  0
 25 24  1  1
 25 27  1  0
 26 17  1  0
 26 25  1  0
 27 29  2  0
 27 28  1  0
M  END
$$$$
