IYL.pdb
     RDKit          3D

 29 29  0  0  1  0  0  0  0  0999 V2000
    5.9329  -11.0349   26.3503 C   0  0  0  0  0  0  0  0  0  0  0  0
    5.6769  -12.5134   26.2029 C   0  0  0  0  0  0  0  0  0  0  0  0
    6.5839  -13.1467   25.1448 C   0  0  2  0  0  0  0  0  0  0  0  0
    6.4143  -12.4537   23.8118 C   0  0  0  0  0  0  0  0  0  0  0  0
    6.2324  -14.6102   25.0859 C   0  0  2  0  0  0  0  0  0  0  0  0
    6.1329  -15.1107   26.4427 N   0  0  0  0  0  0  0  0  0  0  0  0
    7.1660  -15.3908   24.2641 C   0  0  0  0  0  0  0  0  0  0  0  0
    6.7770  -16.3139   23.5100 O   0  0  0  0  0  0  0  0  0  0  0  0
    6.6648  -13.3797   18.4426 O   0  0  0  0  0  0  0  0  0  0  0  0
    7.5589  -13.7627   19.4597 C   0  0  0  0  0  0  0  0  0  0  0  0
    7.7993  -15.1028   19.6900 C   0  0  0  0  0  0  0  0  0  0  0  0
    8.6685  -15.4923   20.6761 C   0  0  0  0  0  0  0  0  0  0  0  0
    9.3329  -14.5828   21.4730 C   0  0  0  0  0  0  0  0  0  0  0  0
   10.2127  -14.9953   22.5593 C   0  0  0  0  0  0  0  0  0  0  0  0
    9.5528  -15.8824   23.5468 C   0  0  2  0  0  0  0  0  0  0  0  0
    8.5508  -15.1004   24.3162 N   0  0  0  0  0  0  0  0  0  0  0  0
   10.4269  -16.4786   24.5347 C   0  0  0  0  0  0  0  0  0  0  0  0
   11.5655  -16.9304   24.1403 O   0  0  0  0  0  0  0  0  0  0  0  0
    9.0826  -13.2572   21.2333 C   0  0  0  0  0  0  0  0  0  0  0  0
    8.2062  -12.8386   20.2382 C   0  0  0  0  0  0  0  0  0  0  0  0
   10.2620  -14.3274   29.2694 C   0  0  0  0  0  0  0  0  0  0  0  0
   10.6384  -14.9517   27.9352 C   0  0  1  0  0  0  0  0  0  0  0  0
   11.6712  -14.0073   27.3131 C   0  0  0  0  0  0  0  0  0  0  0  0
   11.2152  -16.3252   28.1137 C   0  0  0  0  0  0  0  0  0  0  0  0
   11.2445  -17.1097   26.8358 C   0  0  2  0  0  0  0  0  0  0  0  0
   10.2068  -16.6338   25.9203 N   0  0  0  0  0  0  0  0  0  0  0  0
   11.2573  -18.5528   27.0480 C   0  0  0  0  0  0  0  0  0  0  0  0
   12.2579  -19.1640   27.8015 O   0  0  0  0  0  0  0  0  0  0  0  0
   10.3921  -19.3452   26.5808 O   0  0  0  0  0  0  0  0  0  0  0  0
  2  1  1  0
  3  4  1  6
  3  2  1  0
  5  6  1  1
  5  3  1  0
  7  8  2  0
  7  5  1  0
  9 10  1  0
 10 20  2  0
 10 11  1  0
 11 12  2  0
 12 13  1  0
 13 14  1  0
 15 14  1  6
 15 16  1  0
 15 17  1  0
 16  7  1  0
 17 18  2  0
 19 13  2  0
 20 19  1  0
 22 21  1  1
 22 24  1  0
 23 22  1  0
 25 24  1  1
 25 27  1  0
 26 17  1  0
 26 25  1  0
 27 29  2  0
 27 28  1  0
M  END
$$$$
