IYL.pdb
     RDKit          3D

 29 29  0  0  1  0  0  0  0  0999 V2000
    8.1833  -12.4895   18.4381 C   0  0  0  0  0  0  0  0  0  0  0  0
    8.0562  -13.9710   18.6876 C   0  0  0  0  0  0  0  0  0  0  0  0
    7.6199  -14.2723   20.1236 C   0  0  2  0  0  0  0  0  0  0  0  0
    8.5794  -13.6531   21.1145 C   0  0  0  0  0  0  0  0  0  0  0  0
    7.5414  -15.7710   20.2522 C   0  0  2  0  0  0  0  0  0  0  0  0
    6.6420  -16.2703   19.2307 N   0  0  0  0  0  0  0  0  0  0  0  0
    7.1625  -16.2111   21.6009 C   0  0  0  0  0  0  0  0  0  0  0  0
    6.0086  -16.0350   22.0586 O   0  0  0  0  0  0  0  0  0  0  0  0
    7.7600  -20.6829   29.2802 O   0  0  0  0  0  0  0  0  0  0  0  0
    7.9458  -20.1568   27.9881 C   0  0  0  0  0  0  0  0  0  0  0  0
    6.8609  -20.0112   27.1464 C   0  0  0  0  0  0  0  0  0  0  0  0
    7.0250  -19.4992   25.8853 C   0  0  0  0  0  0  0  0  0  0  0  0
    8.2582  -19.1120   25.4028 C   0  0  0  0  0  0  0  0  0  0  0  0
    8.4440  -18.6215   24.0429 C   0  0  0  0  0  0  0  0  0  0  0  0
    7.8105  -17.3034   23.8009 C   0  0  2  0  0  0  0  0  0  0  0  0
    8.1216  -16.8559   22.4186 N   0  0  0  0  0  0  0  0  0  0  0  0
    8.2483  -16.2300   24.6679 C   0  0  0  0  0  0  0  0  0  0  0  0
    9.4736  -15.8458   24.5826 O   0  0  0  0  0  0  0  0  0  0  0  0
    9.3250  -19.2641   26.2492 C   0  0  0  0  0  0  0  0  0  0  0  0
    9.1825  -19.7799   27.5326 C   0  0  0  0  0  0  0  0  0  0  0  0
    7.8525  -12.1424   25.2810 C   0  0  0  0  0  0  0  0  0  0  0  0
    7.0758  -12.2306   26.5850 C   0  0  1  0  0  0  0  0  0  0  0  0
    5.6667  -11.7248   26.2624 C   0  0  0  0  0  0  0  0  0  0  0  0
    7.0286  -13.6379   27.1032 C   0  0  0  0  0  0  0  0  0  0  0  0
    8.0930  -14.5093   26.5055 C   0  0  2  0  0  0  0  0  0  0  0  0
    7.4960  -15.5114   25.6218 N   0  0  0  0  0  0  0  0  0  0  0  0
    9.0213  -15.0431   27.4958 C   0  0  0  0  0  0  0  0  0  0  0  0
    8.8850  -16.3393   27.9898 O   0  0  0  0  0  0  0  0  0  0  0  0
    9.9945  -14.3969   27.9753 O   0  0  0  0  0  0  0  0  0  0  0  0
  2  1  1  0
  3  4  1  1
  3  2  1  0
  5  6  1  6
  5  3  1  0
  7  8  2  0
  7  5  1  0
  9 10  1  0
 10 20  2  0
 10 11  1  0
 11 12  2  0
 12 13  1  0
 13 14  1  0
 15 14  1  1
 15 16  1  0
 15 17  1  0
 16  7  1  0
 17 18  2  0
 19 13  2  0
 20 19  1  0
 22 21  1  6
 22 24  1  0
 23 22  1  0
 25 24  1  1
 25 27  1  0
 26 17  1  0
 26 25  1  0
 27 29  2  0
 27 28  1  0
M  END
$$$$
