WQS.pdb
     RDKit          3D

 30 31  0  0  1  0  0  0  0  0999 V2000
   10.0588  -17.9559   20.4364 N   0  0  0  0  0  0  0  0  0  0  0  0
   10.6766  -16.6456   20.5194 C   0  0  1  0  0  0  0  0  0  0  0  0
   10.1830  -15.8471   21.6696 C   0  0  0  0  0  0  0  0  0  0  0  0
    8.9643  -15.0745   21.4626 C   0  0  0  0  0  0  0  0  0  0  0  0
    7.7560  -15.3358   22.1196 C   0  0  0  0  0  0  0  0  0  0  0  0
    6.8328  -14.4412   21.7319 N   0  0  0  0  0  0  0  0  0  0  0  0
    7.3902  -13.5897   20.8340 C   0  0  0  0  0  0  0  0  0  0  0  0
    6.8190  -12.5269   20.1733 C   0  0  0  0  0  0  0  0  0  0  0  0
    7.5866  -11.8048   19.2952 C   0  0  0  0  0  0  0  0  0  0  0  0
    8.9019  -12.1733   19.1091 C   0  0  0  0  0  0  0  0  0  0  0  0
    9.4546  -13.2459   19.7849 C   0  0  0  0  0  0  0  0  0  0  0  0
    8.7037  -13.9878   20.6740 C   0  0  0  0  0  0  0  0  0  0  0  0
   12.1334  -16.6587   20.3234 C   0  0  0  0  0  0  0  0  0  0  0  0
   12.7643  -17.7289   20.4979 O   0  0  0  0  0  0  0  0  0  0  0  0
   15.1901  -13.9820   16.4888 N   0  0  0  0  0  0  0  0  0  0  0  0
   16.2397  -14.1264   17.4042 C   0  0  0  0  0  0  0  0  0  0  0  0
   17.3757  -14.4840   17.0117 O   0  0  0  0  0  0  0  0  0  0  0  0
   16.0085  -13.8554   18.8447 C   0  0  0  0  0  0  0  0  0  0  0  0
   14.5482  -14.0885   19.1604 C   0  0  0  0  0  0  0  0  0  0  0  0
   14.2705  -15.4356   19.7703 C   0  0  2  0  0  0  0  0  0  0  0  0
   12.8306  -15.5086   19.9479 N   0  0  0  0  0  0  0  0  0  0  0  0
   14.9990  -15.7081   21.0123 C   0  0  0  0  0  0  0  0  0  0  0  0
   14.6814  -15.2272   22.1282 O   0  0  0  0  0  0  0  0  0  0  0  0
   18.2634  -18.2137   20.8529 O   0  0  0  0  0  0  0  0  0  0  0  0
   17.6630  -18.1064   22.0932 C   0  0  0  0  0  0  0  0  0  0  0  0
   16.9303  -16.7696   22.2475 C   0  0  2  0  0  0  0  0  0  0  0  0
   16.1607  -16.5661   21.0542 N   0  0  0  0  0  0  0  0  0  0  0  0
   17.9774  -15.7311   22.4279 C   0  0  0  0  0  0  0  0  0  0  0  0
   18.1335  -14.9141   21.4851 O   0  0  0  0  0  0  0  0  0  0  0  0
   18.7710  -15.6105   23.5410 O   0  0  0  0  0  0  0  0  0  0  0  0
  2  1  1  1
  2  3  1  0
  3  4  1  0
  4  5  2  0
  5  6  1  0
  7  6  1  0
  8  7  2  0
  9  8  1  0
 10 11  1  0
 10  9  2  0
 11 12  2  0
 12  4  1  0
 12  7  1  0
 13  2  1  0
 13 21  1  0
 14 13  2  0
 16 15  1  0
 17 16  2  0
 18 16  1  0
 20 19  1  1
 19 18  1  0
 20 21  1  0
 22 20  1  0
 23 22  2  0
 25 24  1  0
 26 25  1  6
 26 28  1  0
 26 27  1  0
 27 22  1  0
 28 30  1  0
 29 28  2  0
M  END
$$$$
