WQS.pdb
     RDKit          3D

 30 31  0  0  1  0  0  0  0  0999 V2000
    6.1651  -18.0452   24.0674 N   0  0  0  0  0  0  0  0  0  0  0  0
    6.6817  -16.7034   23.8714 C   0  0  1  0  0  0  0  0  0  0  0  0
    7.3967  -16.1808   25.0629 C   0  0  0  0  0  0  0  0  0  0  0  0
    6.7842  -15.0567   25.7602 C   0  0  0  0  0  0  0  0  0  0  0  0
    5.5447  -15.1242   26.4076 C   0  0  0  0  0  0  0  0  0  0  0  0
    5.2676  -13.9367   26.9695 N   0  0  0  0  0  0  0  0  0  0  0  0
    6.2870  -13.0774   26.7154 C   0  0  0  0  0  0  0  0  0  0  0  0
    6.4282  -11.7611   27.0897 C   0  0  0  0  0  0  0  0  0  0  0  0
    7.5572  -11.0826   26.7065 C   0  0  0  0  0  0  0  0  0  0  0  0
    8.5068  -11.7472   25.9604 C   0  0  0  0  0  0  0  0  0  0  0  0
    8.3430  -13.0714   25.5960 C   0  0  0  0  0  0  0  0  0  0  0  0
    7.2168  -13.7761   25.9694 C   0  0  0  0  0  0  0  0  0  0  0  0
    7.3543  -16.5053   22.5794 C   0  0  0  0  0  0  0  0  0  0  0  0
    7.9018  -17.4848   22.0184 O   0  0  0  0  0  0  0  0  0  0  0  0
    6.8572  -14.9888   18.0729 N   0  0  0  0  0  0  0  0  0  0  0  0
    7.8199  -13.9938   17.8645 C   0  0  0  0  0  0  0  0  0  0  0  0
    8.3214  -13.8282   16.7271 O   0  0  0  0  0  0  0  0  0  0  0  0
    8.2495  -13.1310   18.9928 C   0  0  0  0  0  0  0  0  0  0  0  0
    7.5938  -13.6215   20.2639 C   0  0  0  0  0  0  0  0  0  0  0  0
    8.0862  -14.9696   20.7153 C   0  0  2  0  0  0  0  0  0  0  0  0
    7.3978  -15.2533   21.9626 N   0  0  0  0  0  0  0  0  0  0  0  0
    9.5418  -15.0784   20.8456 C   0  0  0  0  0  0  0  0  0  0  0  0
   10.3351  -15.0360   19.8729 O   0  0  0  0  0  0  0  0  0  0  0  0
   11.0681  -16.1857   24.4385 O   0  0  0  0  0  0  0  0  0  0  0  0
   11.9255  -15.3346   23.7671 C   0  0  0  0  0  0  0  0  0  0  0  0
   11.6190  -15.2994   22.2663 C   0  0  2  0  0  0  0  0  0  0  0  0
   10.1926  -15.2463   22.1245 N   0  0  0  0  0  0  0  0  0  0  0  0
   12.1981  -16.5389   21.6867 C   0  0  0  0  0  0  0  0  0  0  0  0
   13.4488  -16.6574   21.7373 O   0  0  0  0  0  0  0  0  0  0  0  0
   11.4649  -17.5451   21.1095 O   0  0  0  0  0  0  0  0  0  0  0  0
  2  1  1  1
  2  3  1  0
  3  4  1  0
  4  5  2  0
  5  6  1  0
  7  6  1  0
  8  7  2  0
  9  8  1  0
 10 11  1  0
 10  9  2  0
 11 12  2  0
 12  4  1  0
 12  7  1  0
 13  2  1  0
 13 21  1  0
 14 13  2  0
 16 15  1  0
 17 16  2  0
 18 16  1  0
 20 19  1  1
 19 18  1  0
 20 21  1  0
 22 20  1  0
 23 22  2  0
 25 24  1  0
 26 25  1  1
 26 28  1  0
 26 27  1  0
 27 22  1  0
 28 30  1  0
 29 28  2  0
M  END
$$$$
