WQS.pdb
     RDKit          3D

 30 31  0  0  1  0  0  0  0  0999 V2000
    6.3914  -18.1279   24.5089 N   0  0  0  0  0  0  0  0  0  0  0  0
    7.0371  -16.9222   24.0241 C   0  0  1  0  0  0  0  0  0  0  0  0
    7.8147  -16.2212   25.0767 C   0  0  0  0  0  0  0  0  0  0  0  0
    7.1378  -15.1469   25.7927 C   0  0  0  0  0  0  0  0  0  0  0  0
    6.0534  -15.3486   26.6549 C   0  0  0  0  0  0  0  0  0  0  0  0
    5.6685  -14.1715   27.1735 N   0  0  0  0  0  0  0  0  0  0  0  0
    6.4650  -13.1887   26.6817 C   0  0  0  0  0  0  0  0  0  0  0  0
    6.4324  -11.8364   26.9321 C   0  0  0  0  0  0  0  0  0  0  0  0
    7.3457  -11.0263   26.3064 C   0  0  0  0  0  0  0  0  0  0  0  0
    8.2611  -11.6000   25.4502 C   0  0  0  0  0  0  0  0  0  0  0  0
    8.2747  -12.9627   25.2140 C   0  0  0  0  0  0  0  0  0  0  0  0
    7.3672  -13.7991   25.8314 C   0  0  0  0  0  0  0  0  0  0  0  0
    7.7110  -17.0856   22.7279 C   0  0  0  0  0  0  0  0  0  0  0  0
    8.1635  -18.2121   22.4115 O   0  0  0  0  0  0  0  0  0  0  0  0
    7.1012  -12.8849   18.2947 N   0  0  0  0  0  0  0  0  0  0  0  0
    8.1661  -13.5908   17.7218 C   0  0  0  0  0  0  0  0  0  0  0  0
    8.6134  -13.2578   16.5987 O   0  0  0  0  0  0  0  0  0  0  0  0
    8.7688  -14.7377   18.4454 C   0  0  0  0  0  0  0  0  0  0  0  0
    8.0031  -14.9660   19.7291 C   0  0  0  0  0  0  0  0  0  0  0  0
    8.5503  -16.0903   20.5659 C   0  0  2  0  0  0  0  0  0  0  0  0
    7.8589  -16.0169   21.8414 N   0  0  0  0  0  0  0  0  0  0  0  0
   10.0074  -16.0857   20.7216 C   0  0  0  0  0  0  0  0  0  0  0  0
   10.8127  -16.1325   19.7590 O   0  0  0  0  0  0  0  0  0  0  0  0
   11.6640  -16.1398   24.5470 O   0  0  0  0  0  0  0  0  0  0  0  0
   12.3604  -15.4454   23.5759 C   0  0  0  0  0  0  0  0  0  0  0  0
   12.0711  -15.9971   22.1760 C   0  0  2  0  0  0  0  0  0  0  0  0
   10.6459  -16.0260   22.0163 N   0  0  0  0  0  0  0  0  0  0  0  0
   12.6727  -17.3547   22.1233 C   0  0  0  0  0  0  0  0  0  0  0  0
   13.9265  -17.4218   22.1893 O   0  0  0  0  0  0  0  0  0  0  0  0
   11.9567  -18.5198   22.0092 O   0  0  0  0  0  0  0  0  0  0  0  0
  2  1  1  1
  2  3  1  0
  3  4  1  0
  4  5  2  0
  5  6  1  0
  7  6  1  0
  8  7  2  0
  9  8  1  0
 10 11  1  0
 10  9  2  0
 11 12  2  0
 12  4  1  0
 12  7  1  0
 13  2  1  0
 13 21  1  0
 14 13  2  0
 16 15  1  0
 17 16  2  0
 18 16  1  0
 20 19  1  6
 19 18  1  0
 20 21  1  0
 22 20  1  0
 23 22  2  0
 25 24  1  0
 26 25  1  1
 26 28  1  0
 26 27  1  0
 27 22  1  0
 28 30  1  0
 29 28  2  0
M  END
$$$$
