WQS.pdb
     RDKit          3D

 30 31  0  0  1  0  0  0  0  0999 V2000
    6.4830  -17.6667   24.7760 N   0  0  0  0  0  0  0  0  0  0  0  0
    7.1263  -16.5164   24.1689 C   0  0  1  0  0  0  0  0  0  0  0  0
    7.8707  -15.6873   25.1501 C   0  0  0  0  0  0  0  0  0  0  0  0
    7.0910  -14.7489   25.9479 C   0  0  0  0  0  0  0  0  0  0  0  0
    6.0711  -15.1339   26.8263 C   0  0  0  0  0  0  0  0  0  0  0  0
    5.5613  -14.0457   27.4252 N   0  0  0  0  0  0  0  0  0  0  0  0
    6.2116  -12.9443   26.9713 C   0  0  0  0  0  0  0  0  0  0  0  0
    6.0200  -11.6231   27.3034 C   0  0  0  0  0  0  0  0  0  0  0  0
    6.8029  -10.6704   26.7023 C   0  0  0  0  0  0  0  0  0  0  0  0
    7.7518  -11.0750   25.7880 C   0  0  0  0  0  0  0  0  0  0  0  0
    7.9264  -12.4097   25.4700 C   0  0  0  0  0  0  0  0  0  0  0  0
    7.1522  -13.3872   26.0611 C   0  0  0  0  0  0  0  0  0  0  0  0
    7.8325  -16.8193   22.9158 C   0  0  0  0  0  0  0  0  0  0  0  0
    8.4972  -17.8797   22.8293 O   0  0  0  0  0  0  0  0  0  0  0  0
    7.4038  -12.9826   18.0886 N   0  0  0  0  0  0  0  0  0  0  0  0
    8.3942  -13.8292   17.5762 C   0  0  0  0  0  0  0  0  0  0  0  0
    8.7973  -13.6889   16.3970 O   0  0  0  0  0  0  0  0  0  0  0  0
    8.9701  -14.8972   18.4304 C   0  0  0  0  0  0  0  0  0  0  0  0
    8.2726  -14.8832   19.7719 C   0  0  0  0  0  0  0  0  0  0  0  0
    8.6526  -16.0356   20.6614 C   0  0  2  0  0  0  0  0  0  0  0  0
    7.7807  -15.9548   21.8204 N   0  0  0  0  0  0  0  0  0  0  0  0
   10.0694  -16.0821   21.0328 C   0  0  0  0  0  0  0  0  0  0  0  0
   10.6568  -15.1677   21.6621 O   0  0  0  0  0  0  0  0  0  0  0  0
   12.0744  -19.5309   20.3809 O   0  0  0  0  0  0  0  0  0  0  0  0
   12.7461  -18.6542   21.2118 C   0  0  0  0  0  0  0  0  0  0  0  0
   12.3319  -17.2029   20.9478 C   0  0  2  0  0  0  0  0  0  0  0  0
   10.9192  -17.2021   20.6995 N   0  0  0  0  0  0  0  0  0  0  0  0
   13.1126  -16.7476   19.7684 C   0  0  0  0  0  0  0  0  0  0  0  0
   12.4606  -16.4720   18.7294 O   0  0  0  0  0  0  0  0  0  0  0  0
   14.4779  -16.6117   19.7436 O   0  0  0  0  0  0  0  0  0  0  0  0
  2  1  1  1
  2  3  1  0
  3  4  1  0
  4  5  2  0
  5  6  1  0
  7  6  1  0
  8  7  2  0
  9  8  1  0
 10 11  1  0
 10  9  2  0
 11 12  2  0
 12  4  1  0
 12  7  1  0
 13  2  1  0
 13 21  1  0
 14 13  2  0
 16 15  1  0
 17 16  2  0
 18 16  1  0
 20 19  1  6
 19 18  1  0
 20 21  1  0
 22 20  1  0
 23 22  2  0
 25 24  1  0
 26 25  1  6
 26 28  1  0
 26 27  1  0
 27 22  1  0
 28 30  1  0
 29 28  2  0
M  END
$$$$
