WQS.pdb
     RDKit          3D

 30 31  0  0  1  0  0  0  0  0999 V2000
    6.0780  -18.2247   24.2810 N   0  0  0  0  0  0  0  0  0  0  0  0
    6.6270  -16.8891   24.1385 C   0  0  1  0  0  0  0  0  0  0  0  0
    7.2329  -16.3776   25.3937 C   0  0  0  0  0  0  0  0  0  0  0  0
    6.7773  -15.0751   25.8639 C   0  0  0  0  0  0  0  0  0  0  0  0
    5.4356  -14.7636   26.1141 C   0  0  0  0  0  0  0  0  0  0  0  0
    5.3441  -13.4983   26.5541 N   0  0  0  0  0  0  0  0  0  0  0  0
    6.5871  -12.9555   26.6045 C   0  0  0  0  0  0  0  0  0  0  0  0
    6.9684  -11.6907   26.9882 C   0  0  0  0  0  0  0  0  0  0  0  0
    8.2996  -11.3617   26.9500 C   0  0  0  0  0  0  0  0  0  0  0  0
    9.2039  -12.3128   26.5280 C   0  0  0  0  0  0  0  0  0  0  0  0
    8.7968  -13.5785   26.1471 C   0  0  0  0  0  0  0  0  0  0  0  0
    7.4638  -13.9343   26.1771 C   0  0  0  0  0  0  0  0  0  0  0  0
    7.4208  -16.6969   22.9162 C   0  0  0  0  0  0  0  0  0  0  0  0
    8.0692  -17.6642   22.4497 O   0  0  0  0  0  0  0  0  0  0  0  0
    6.7583  -13.5828   17.7171 N   0  0  0  0  0  0  0  0  0  0  0  0
    8.0473  -13.9305   18.1390 C   0  0  0  0  0  0  0  0  0  0  0  0
    8.7366  -14.7343   17.4672 O   0  0  0  0  0  0  0  0  0  0  0  0
    8.6013  -13.3465   19.3856 C   0  0  0  0  0  0  0  0  0  0  0  0
    7.8015  -13.8544   20.5640 C   0  0  0  0  0  0  0  0  0  0  0  0
    8.2781  -15.1810   21.0897 C   0  0  2  0  0  0  0  0  0  0  0  0
    7.4696  -15.4637   22.2630 N   0  0  0  0  0  0  0  0  0  0  0  0
    9.7142  -15.2476   21.3741 C   0  0  0  0  0  0  0  0  0  0  0  0
   10.6058  -15.1310   20.4974 O   0  0  0  0  0  0  0  0  0  0  0  0
   10.9903  -16.5098   25.0852 O   0  0  0  0  0  0  0  0  0  0  0  0
   11.7790  -15.5228   24.5248 C   0  0  0  0  0  0  0  0  0  0  0  0
   11.6328  -15.4865   23.0001 C   0  0  2  0  0  0  0  0  0  0  0  0
   10.2288  -15.4563   22.7079 N   0  0  0  0  0  0  0  0  0  0  0  0
   12.2908  -16.7140   22.4824 C   0  0  0  0  0  0  0  0  0  0  0  0
   11.5407  -17.5930   21.9869 O   0  0  0  0  0  0  0  0  0  0  0  0
   13.6435  -16.9436   22.5110 O   0  0  0  0  0  0  0  0  0  0  0  0
  2  1  1  1
  2  3  1  0
  3  4  1  0
  4  5  2  0
  5  6  1  0
  7  6  1  0
  8  7  2  0
  9  8  1  0
 10 11  1  0
 10  9  2  0
 11 12  2  0
 12  4  1  0
 12  7  1  0
 13  2  1  0
 13 21  1  0
 14 13  2  0
 16 15  1  0
 17 16  2  0
 18 16  1  0
 20 19  1  1
 19 18  1  0
 20 21  1  0
 22 20  1  0
 23 22  2  0
 25 24  1  0
 26 25  1  1
 26 28  1  0
 26 27  1  0
 27 22  1  0
 28 30  1  0
 29 28  2  0
M  END
$$$$
