WQS.pdb
     RDKit          3D

 30 31  0  0  1  0  0  0  0  0999 V2000
    6.2835  -17.5783   23.7422 N   0  0  0  0  0  0  0  0  0  0  0  0
    7.2008  -16.4740   23.5309 C   0  0  1  0  0  0  0  0  0  0  0  0
    7.7979  -15.9706   24.7935 C   0  0  0  0  0  0  0  0  0  0  0  0
    7.0366  -14.9697   25.5310 C   0  0  0  0  0  0  0  0  0  0  0  0
    5.9062  -15.2644   26.3024 C   0  0  0  0  0  0  0  0  0  0  0  0
    5.4453  -14.1382   26.8700 N   0  0  0  0  0  0  0  0  0  0  0  0
    6.2359  -13.0992   26.4991 C   0  0  0  0  0  0  0  0  0  0  0  0
    6.1376  -11.7688   26.8352 C   0  0  0  0  0  0  0  0  0  0  0  0
    7.0597  -10.8891   26.3276 C   0  0  0  0  0  0  0  0  0  0  0  0
    8.0497  -11.3735   25.4996 C   0  0  0  0  0  0  0  0  0  0  0  0
    8.1285  -12.7159   25.1757 C   0  0  0  0  0  0  0  0  0  0  0  0
    7.2136  -13.6210   25.6738 C   0  0  0  0  0  0  0  0  0  0  0  0
    8.1349  -16.6788   22.4144 C   0  0  0  0  0  0  0  0  0  0  0  0
    8.3709  -17.8464   22.0209 O   0  0  0  0  0  0  0  0  0  0  0  0
    8.0103  -12.4266   18.7312 N   0  0  0  0  0  0  0  0  0  0  0  0
    7.8966  -13.7579   18.3130 C   0  0  0  0  0  0  0  0  0  0  0  0
    6.8412  -14.1614   17.7691 O   0  0  0  0  0  0  0  0  0  0  0  0
    9.0284  -14.6964   18.5134 C   0  0  0  0  0  0  0  0  0  0  0  0
    9.6144  -14.4729   19.8893 C   0  0  0  0  0  0  0  0  0  0  0  0
    9.7325  -15.7308   20.7063 C   0  0  2  0  0  0  0  0  0  0  0  0
    8.7649  -15.6049   21.7824 N   0  0  0  0  0  0  0  0  0  0  0  0
   11.0820  -16.0157   21.2016 C   0  0  0  0  0  0  0  0  0  0  0  0
   12.1029  -16.0425   20.4707 O   0  0  0  0  0  0  0  0  0  0  0  0
   11.5552  -17.1906   25.1194 O   0  0  0  0  0  0  0  0  0  0  0  0
   12.6009  -16.4337   24.6253 C   0  0  0  0  0  0  0  0  0  0  0  0
   12.6766  -16.5122   23.0970 C   0  0  2  0  0  0  0  0  0  0  0  0
   11.3514  -16.2936   22.5936 N   0  0  0  0  0  0  0  0  0  0  0  0
   13.1892  -17.8673   22.7676 C   0  0  0  0  0  0  0  0  0  0  0  0
   12.3770  -18.6666   22.2364 O   0  0  0  0  0  0  0  0  0  0  0  0
   14.4723  -18.2931   23.0031 O   0  0  0  0  0  0  0  0  0  0  0  0
  2  1  1  1
  2  3  1  0
  3  4  1  0
  4  5  2  0
  5  6  1  0
  7  6  1  0
  8  7  2  0
  9  8  1  0
 10 11  1  0
 10  9  2  0
 11 12  2  0
 12  4  1  0
 12  7  1  0
 13  2  1  0
 13 21  1  0
 14 13  2  0
 16 15  1  0
 17 16  2  0
 18 16  1  0
 20 19  1  1
 19 18  1  0
 20 21  1  0
 22 20  1  0
 23 22  2  0
 25 24  1  0
 26 25  1  1
 26 28  1  0
 26 27  1  0
 27 22  1  0
 28 30  1  0
 29 28  2  0
M  END
$$$$
