WQS.pdb
     RDKit          3D

 30 31  0  0  1  0  0  0  0  0999 V2000
    6.0117  -18.0634   24.1622 N   0  0  0  0  0  0  0  0  0  0  0  0
    6.6442  -16.7790   23.9258 C   0  0  1  0  0  0  0  0  0  0  0  0
    7.4414  -16.3065   25.0857 C   0  0  0  0  0  0  0  0  0  0  0  0
    6.9055  -15.1805   25.8406 C   0  0  0  0  0  0  0  0  0  0  0  0
    5.8535  -15.2885   26.7580 C   0  0  0  0  0  0  0  0  0  0  0  0
    5.6072  -14.0853   27.3007 N   0  0  0  0  0  0  0  0  0  0  0  0
    6.4649  -13.1763   26.7714 C   0  0  0  0  0  0  0  0  0  0  0  0
    6.5713  -11.8290   27.0285 C   0  0  0  0  0  0  0  0  0  0  0  0
    7.5221  -11.1015   26.3587 C   0  0  0  0  0  0  0  0  0  0  0  0
    8.3343  -11.7500   25.4531 C   0  0  0  0  0  0  0  0  0  0  0  0
    8.2088  -13.1060   25.2112 C   0  0  0  0  0  0  0  0  0  0  0  0
    7.2609  -13.8601   25.8724 C   0  0  0  0  0  0  0  0  0  0  0  0
    7.2918  -16.6652   22.6110 C   0  0  0  0  0  0  0  0  0  0  0  0
    7.8724  -17.6662   22.1266 O   0  0  0  0  0  0  0  0  0  0  0  0
    7.9408  -12.9772   16.8195 N   0  0  0  0  0  0  0  0  0  0  0  0
    8.1811  -13.8271   17.9059 C   0  0  0  0  0  0  0  0  0  0  0  0
    7.9953  -15.0623   17.7950 O   0  0  0  0  0  0  0  0  0  0  0  0
    8.6577  -13.2656   19.1942 C   0  0  0  0  0  0  0  0  0  0  0  0
    7.7802  -13.7845   20.3110 C   0  0  0  0  0  0  0  0  0  0  0  0
    8.1104  -15.1900   20.7342 C   0  0  2  0  0  0  0  0  0  0  0  0
    7.2756  -15.4697   21.8896 N   0  0  0  0  0  0  0  0  0  0  0  0
    9.5308  -15.4318   21.0020 C   0  0  0  0  0  0  0  0  0  0  0  0
   10.1955  -14.8052   21.8638 O   0  0  0  0  0  0  0  0  0  0  0  0
   11.2857  -18.7379   19.3841 O   0  0  0  0  0  0  0  0  0  0  0  0
   11.9201  -18.1674   20.4715 C   0  0  0  0  0  0  0  0  0  0  0  0
   11.6898  -16.6535   20.5242 C   0  0  2  0  0  0  0  0  0  0  0  0
   10.2938  -16.4270   20.2845 N   0  0  0  0  0  0  0  0  0  0  0  0
   12.5479  -16.0577   19.4677 C   0  0  0  0  0  0  0  0  0  0  0  0
   13.7911  -16.1241   19.6432 O   0  0  0  0  0  0  0  0  0  0  0  0
   12.0755  -15.4498   18.3317 O   0  0  0  0  0  0  0  0  0  0  0  0
  2  1  1  1
  2  3  1  0
  3  4  1  0
  4  5  2  0
  5  6  1  0
  7  6  1  0
  8  7  2  0
  9  8  1  0
 10 11  1  0
 10  9  2  0
 11 12  2  0
 12  4  1  0
 12  7  1  0
 13  2  1  0
 13 21  1  0
 14 13  2  0
 16 15  1  0
 17 16  2  0
 18 16  1  0
 20 19  1  1
 19 18  1  0
 20 21  1  0
 22 20  1  0
 23 22  2  0
 25 24  1  0
 26 25  1  6
 26 28  1  0
 26 27  1  0
 27 22  1  0
 28 30  1  0
 29 28  2  0
M  END
$$$$
