WQS.pdb
     RDKit          3D

 30 31  0  0  1  0  0  0  0  0999 V2000
    5.9917  -17.6692   23.2266 N   0  0  0  0  0  0  0  0  0  0  0  0
    6.7861  -16.4554   23.2614 C   0  0  1  0  0  0  0  0  0  0  0  0
    7.3548  -16.1766   24.6041 C   0  0  0  0  0  0  0  0  0  0  0  0
    6.6457  -15.2104   25.4340 C   0  0  0  0  0  0  0  0  0  0  0  0
    5.6702  -15.5604   26.3752 C   0  0  0  0  0  0  0  0  0  0  0  0
    5.2223  -14.4533   26.9889 N   0  0  0  0  0  0  0  0  0  0  0  0
    5.8709  -13.3734   26.4839 C   0  0  0  0  0  0  0  0  0  0  0  0
    5.7306  -12.0442   26.8098 C   0  0  0  0  0  0  0  0  0  0  0  0
    6.4994  -11.1178   26.1521 C   0  0  0  0  0  0  0  0  0  0  0  0
    7.3833  -11.5559   25.1892 C   0  0  0  0  0  0  0  0  0  0  0  0
    7.5072  -12.8979   24.8786 C   0  0  0  0  0  0  0  0  0  0  0  0
    6.7459  -13.8495   25.5262 C   0  0  0  0  0  0  0  0  0  0  0  0
    7.7125  -16.3153   22.1287 C   0  0  0  0  0  0  0  0  0  0  0  0
    8.1778  -17.3473   21.5880 O   0  0  0  0  0  0  0  0  0  0  0  0
    8.8572  -14.1061   17.4872 N   0  0  0  0  0  0  0  0  0  0  0  0
    7.6152  -13.6679   17.9625 C   0  0  0  0  0  0  0  0  0  0  0  0
    6.6194  -13.6451   17.2006 O   0  0  0  0  0  0  0  0  0  0  0  0
    7.4750  -13.2286   19.3729 C   0  0  0  0  0  0  0  0  0  0  0  0
    8.7942  -13.4302   20.0838 C   0  0  0  0  0  0  0  0  0  0  0  0
    9.0190  -14.8433   20.5491 C   0  0  2  0  0  0  0  0  0  0  0  0
    8.0862  -15.0613   21.6411 N   0  0  0  0  0  0  0  0  0  0  0  0
   10.4008  -15.1516   20.9273 C   0  0  0  0  0  0  0  0  0  0  0  0
   11.3850  -14.9984   20.1624 O   0  0  0  0  0  0  0  0  0  0  0  0
   11.1293  -17.1626   24.4723 O   0  0  0  0  0  0  0  0  0  0  0  0
   12.1010  -16.2473   24.1138 C   0  0  0  0  0  0  0  0  0  0  0  0
   12.0959  -15.9868   22.6040 C   0  0  2  0  0  0  0  0  0  0  0  0
   10.7483  -15.6654   22.2322 N   0  0  0  0  0  0  0  0  0  0  0  0
   12.5776  -17.2348   21.9574 C   0  0  0  0  0  0  0  0  0  0  0  0
   11.7199  -17.9268   21.3522 O   0  0  0  0  0  0  0  0  0  0  0  0
   13.8784  -17.6714   21.9795 O   0  0  0  0  0  0  0  0  0  0  0  0
  2  1  1  1
  2  3  1  0
  3  4  1  0
  4  5  2  0
  5  6  1  0
  7  6  1  0
  8  7  2  0
  9  8  1  0
 10 11  1  0
 10  9  2  0
 11 12  2  0
 12  4  1  0
 12  7  1  0
 13  2  1  0
 13 21  1  0
 14 13  2  0
 16 15  1  0
 17 16  2  0
 18 16  1  0
 20 19  1  1
 19 18  1  0
 20 21  1  0
 22 20  1  0
 23 22  2  0
 25 24  1  0
 26 25  1  1
 26 28  1  0
 26 27  1  0
 27 22  1  0
 28 30  1  0
 29 28  2  0
M  END
$$$$
