WQS.pdb
     RDKit          3D

 30 31  0  0  1  0  0  0  0  0999 V2000
    9.8901  -15.8752   21.9818 N   0  0  0  0  0  0  0  0  0  0  0  0
    9.2960  -15.9939   23.3004 C   0  0  1  0  0  0  0  0  0  0  0  0
    7.8387  -15.7105   23.3040 C   0  0  0  0  0  0  0  0  0  0  0  0
    7.4379  -14.3137   23.4188 C   0  0  0  0  0  0  0  0  0  0  0  0
    7.1286  -13.5000   22.3223 C   0  0  0  0  0  0  0  0  0  0  0  0
    6.7777  -12.2786   22.7558 N   0  0  0  0  0  0  0  0  0  0  0  0
    6.8442  -12.2532   24.1111 C   0  0  0  0  0  0  0  0  0  0  0  0
    6.5785  -11.2163   24.9752 C   0  0  0  0  0  0  0  0  0  0  0  0
    6.7229  -11.4259   26.3232 C   0  0  0  0  0  0  0  0  0  0  0  0
    7.1292  -12.6688   26.7593 C   0  0  0  0  0  0  0  0  0  0  0  0
    7.3905  -13.6966   25.8714 C   0  0  0  0  0  0  0  0  0  0  0  0
    7.2521  -13.5114   24.5109 C   0  0  0  0  0  0  0  0  0  0  0  0
    9.7205  -17.1906   24.0411 C   0  0  0  0  0  0  0  0  0  0  0  0
    8.8826  -17.8023   24.7466 O   0  0  0  0  0  0  0  0  0  0  0  0
   10.6221  -21.1594   21.4501 N   0  0  0  0  0  0  0  0  0  0  0  0
   11.5824  -20.9432   22.4458 C   0  0  0  0  0  0  0  0  0  0  0  0
   11.8023  -21.8220   23.3129 O   0  0  0  0  0  0  0  0  0  0  0  0
   12.3437  -19.6699   22.4764 C   0  0  0  0  0  0  0  0  0  0  0  0
   12.6948  -19.3417   23.9101 C   0  0  0  0  0  0  0  0  0  0  0  0
   11.5352  -18.8122   24.7091 C   0  0  2  0  0  0  0  0  0  0  0  0
   11.0333  -17.6618   23.9776 N   0  0  0  0  0  0  0  0  0  0  0  0
   11.8477  -18.4914   26.1045 C   0  0  0  0  0  0  0  0  0  0  0  0
   12.8482  -17.8206   26.4596 O   0  0  0  0  0  0  0  0  0  0  0  0
    9.1530  -19.5348   29.0742 O   0  0  0  0  0  0  0  0  0  0  0  0
   10.0234  -18.4925   29.3315 C   0  0  0  0  0  0  0  0  0  0  0  0
   11.3440  -18.6650   28.5740 C   0  0  2  0  0  0  0  0  0  0  0  0
   11.0165  -18.9284   27.2025 N   0  0  0  0  0  0  0  0  0  0  0  0
   12.0535  -19.8030   29.2135 C   0  0  0  0  0  0  0  0  0  0  0  0
   12.1643  -20.8553   28.5344 O   0  0  0  0  0  0  0  0  0  0  0  0
   12.5862  -19.7770   30.4779 O   0  0  0  0  0  0  0  0  0  0  0  0
  2  1  1  6
  2  3  1  0
  3  4  1  0
  4  5  2  0
  5  6  1  0
  7  6  1  0
  8  7  2  0
  9  8  1  0
 10 11  1  0
 10  9  2  0
 11 12  2  0
 12  4  1  0
 12  7  1  0
 13  2  1  0
 13 21  1  0
 14 13  2  0
 16 15  1  0
 17 16  2  0
 18 16  1  0
 20 19  1  6
 19 18  1  0
 20 21  1  0
 22 20  1  0
 23 22  2  0
 25 24  1  0
 26 25  1  1
 26 28  1  0
 26 27  1  0
 27 22  1  0
 28 30  1  0
 29 28  2  0
M  END
$$$$
