WQS.pdb
     RDKit          3D

 30 31  0  0  1  0  0  0  0  0999 V2000
    8.5826  -17.8152   22.2632 N   0  0  0  0  0  0  0  0  0  0  0  0
    9.7215  -16.9265   22.4000 C   0  0  1  0  0  0  0  0  0  0  0  0
    9.3299  -15.5348   22.7376 C   0  0  0  0  0  0  0  0  0  0  0  0
    8.4289  -14.8593   21.8118 C   0  0  0  0  0  0  0  0  0  0  0  0
    7.0366  -14.8377   21.9570 C   0  0  0  0  0  0  0  0  0  0  0  0
    6.4935  -14.1206   20.9603 N   0  0  0  0  0  0  0  0  0  0  0  0
    7.4837  -13.6627   20.1529 C   0  0  0  0  0  0  0  0  0  0  0  0
    7.3925  -12.8951   19.0149 C   0  0  0  0  0  0  0  0  0  0  0  0
    8.5449  -12.5559   18.3525 C   0  0  0  0  0  0  0  0  0  0  0  0
    9.7504  -12.9981   18.8539 C   0  0  0  0  0  0  0  0  0  0  0  0
    9.8174  -13.7689   20.0004 C   0  0  0  0  0  0  0  0  0  0  0  0
    8.6729  -14.1231   20.6853 C   0  0  0  0  0  0  0  0  0  0  0  0
   10.8289  -17.4914   23.1845 C   0  0  0  0  0  0  0  0  0  0  0  0
   10.5927  -17.9678   24.3208 O   0  0  0  0  0  0  0  0  0  0  0  0
   12.3868  -22.0063   24.3434 N   0  0  0  0  0  0  0  0  0  0  0  0
   11.4773  -21.3698   23.4902 C   0  0  0  0  0  0  0  0  0  0  0  0
   10.4642  -21.9821   23.0764 O   0  0  0  0  0  0  0  0  0  0  0  0
   11.7116  -19.9651   23.0732 C   0  0  0  0  0  0  0  0  0  0  0  0
   12.9746  -19.4604   23.7339 C   0  0  0  0  0  0  0  0  0  0  0  0
   13.2848  -18.0215   23.4225 C   0  0  2  0  0  0  0  0  0  0  0  0
   12.1364  -17.5100   22.6947 N   0  0  0  0  0  0  0  0  0  0  0  0
   14.5419  -17.8077   22.7003 C   0  0  0  0  0  0  0  0  0  0  0  0
   14.9393  -18.5379   21.7590 O   0  0  0  0  0  0  0  0  0  0  0  0
   16.0099  -14.2416   21.8896 O   0  0  0  0  0  0  0  0  0  0  0  0
   16.4437  -15.4098   21.2917 C   0  0  0  0  0  0  0  0  0  0  0  0
   16.6799  -16.5150   22.3263 C   0  0  2  0  0  0  0  0  0  0  0  0
   15.4405  -16.7220   23.0182 N   0  0  0  0  0  0  0  0  0  0  0  0
   17.7554  -16.0277   23.2283 C   0  0  0  0  0  0  0  0  0  0  0  0
   17.4292  -15.7811   24.4173 O   0  0  0  0  0  0  0  0  0  0  0  0
   19.0602  -15.8336   22.8504 O   0  0  0  0  0  0  0  0  0  0  0  0
  2  1  1  1
  2  3  1  0
  3  4  1  0
  4  5  2  0
  5  6  1  0
  7  6  1  0
  8  7  2  0
  9  8  1  0
 10 11  1  0
 10  9  2  0
 11 12  2  0
 12  4  1  0
 12  7  1  0
 13  2  1  0
 13 21  1  0
 14 13  2  0
 16 15  1  0
 17 16  2  0
 18 16  1  0
 20 19  1  6
 19 18  1  0
 20 21  1  0
 22 20  1  0
 23 22  2  0
 25 24  1  0
 26 25  1  6
 26 28  1  0
 26 27  1  0
 27 22  1  0
 28 30  1  0
 29 28  2  0
M  END
$$$$
