WQS.pdb
     RDKit          3D

 30 31  0  0  1  0  0  0  0  0999 V2000
    6.3358  -18.0717   24.3303 N   0  0  0  0  0  0  0  0  0  0  0  0
    7.0602  -16.9819   23.7032 C   0  0  1  0  0  0  0  0  0  0  0  0
    7.8881  -16.2110   24.6647 C   0  0  0  0  0  0  0  0  0  0  0  0
    7.1848  -15.3002   25.5596 C   0  0  0  0  0  0  0  0  0  0  0  0
    6.2555  -15.7161   26.5205 C   0  0  0  0  0  0  0  0  0  0  0  0
    5.8011  -14.6483   27.1959 N   0  0  0  0  0  0  0  0  0  0  0  0
    6.4006  -13.5305   26.7130 C   0  0  0  0  0  0  0  0  0  0  0  0
    6.2365  -12.2203   27.0990 C   0  0  0  0  0  0  0  0  0  0  0  0
    6.9544  -11.2461   26.4528 C   0  0  0  0  0  0  0  0  0  0  0  0
    7.8129  -11.6190   25.4407 C   0  0  0  0  0  0  0  0  0  0  0  0
    7.9614  -12.9432   25.0700 C   0  0  0  0  0  0  0  0  0  0  0  0
    7.2513  -13.9418   25.7048 C   0  0  0  0  0  0  0  0  0  0  0  0
    7.7160  -17.3495   22.4400 C   0  0  0  0  0  0  0  0  0  0  0  0
    8.2002  -18.5000   22.3145 O   0  0  0  0  0  0  0  0  0  0  0  0
    7.3787  -12.2921   18.4792 N   0  0  0  0  0  0  0  0  0  0  0  0
    7.9548  -13.5206   18.1340 C   0  0  0  0  0  0  0  0  0  0  0  0
    7.9428  -13.9115   16.9426 O   0  0  0  0  0  0  0  0  0  0  0  0
    8.5825  -14.3645   19.1809 C   0  0  0  0  0  0  0  0  0  0  0  0
    7.9756  -15.7483   19.1259 C   0  0  0  0  0  0  0  0  0  0  0  0
    8.5430  -16.6968   20.1467 C   0  0  2  0  0  0  0  0  0  0  0  0
    7.8124  -16.4486   21.3776 N   0  0  0  0  0  0  0  0  0  0  0  0
    9.9936  -16.6023   20.3317 C   0  0  0  0  0  0  0  0  0  0  0  0
   10.8259  -16.7216   19.3988 O   0  0  0  0  0  0  0  0  0  0  0  0
   11.6047  -15.8978   24.1594 O   0  0  0  0  0  0  0  0  0  0  0  0
   12.2631  -15.4119   23.0455 C   0  0  0  0  0  0  0  0  0  0  0  0
   12.0133  -16.2936   21.8176 C   0  0  2  0  0  0  0  0  0  0  0  0
   10.5936  -16.3605   21.6236 N   0  0  0  0  0  0  0  0  0  0  0  0
   12.6045  -17.6220   22.1229 C   0  0  0  0  0  0  0  0  0  0  0  0
   11.8005  -18.5685   22.3189 O   0  0  0  0  0  0  0  0  0  0  0  0
   13.9509  -17.8754   22.2028 O   0  0  0  0  0  0  0  0  0  0  0  0
  2  1  1  1
  2  3  1  0
  3  4  1  0
  4  5  2  0
  5  6  1  0
  7  6  1  0
  8  7  2  0
  9  8  1  0
 10 11  1  0
 10  9  2  0
 11 12  2  0
 12  4  1  0
 12  7  1  0
 13  2  1  0
 13 21  1  0
 14 13  2  0
 16 15  1  0
 17 16  2  0
 18 16  1  0
 20 19  1  6
 19 18  1  0
 20 21  1  0
 22 20  1  0
 23 22  2  0
 25 24  1  0
 26 25  1  1
 26 28  1  0
 26 27  1  0
 27 22  1  0
 28 30  1  0
 29 28  2  0
M  END
$$$$
