YGA.pdb
     RDKit          3D

 22 22  0  0  1  0  0  0  0  0999 V2000
   28.9101  -19.2929   -3.4650 O   0  0  0  0  0  0  0  0  0  0  0  0
   28.4772  -19.4924   -4.7814 C   0  0  0  0  0  0  0  0  0  0  0  0
   27.6095  -18.6176   -5.3732 C   0  0  0  0  0  0  0  0  0  0  0  0
   27.2010  -18.8529   -6.6911 C   0  0  0  0  0  0  0  0  0  0  0  0
   27.6579  -19.9435   -7.3908 C   0  0  0  0  0  0  0  0  0  0  0  0
   27.2348  -20.2008   -8.7776 C   0  0  0  0  0  0  0  0  0  0  0  0
   25.7339  -20.3298   -8.8836 C   0  0  2  0  0  0  0  0  0  0  0  0
   25.3178  -21.6071   -8.3765 N   0  0  0  0  0  0  0  0  0  0  0  0
   25.3536  -20.1599  -10.3226 C   0  0  0  0  0  0  0  0  0  0  0  0
   25.5556  -19.0622  -10.9001 O   0  0  0  0  0  0  0  0  0  0  0  0
   28.5285  -20.8095   -6.7780 C   0  0  0  0  0  0  0  0  0  0  0  0
   28.9557  -20.6043   -5.4658 C   0  0  0  0  0  0  0  0  0  0  0  0
   24.7623  -21.2077  -11.0783 N   0  0  0  0  0  0  0  0  0  0  0  0
   24.3444  -21.0434  -12.4555 C   0  0  0  0  0  0  0  0  0  0  0  0
   25.5161  -20.7476  -13.2896 C   0  0  0  0  0  0  0  0  0  0  0  0
   26.0153  -19.6054  -13.3034 O   0  0  0  0  0  0  0  0  0  0  0  0
   28.1641  -22.5961  -15.1643 C   0  0  0  0  0  0  0  0  0  0  0  0
   27.2633  -21.3871  -14.9531 C   0  0  2  0  0  0  0  0  0  0  0  0
   26.1360  -21.7354  -14.1154 N   0  0  0  0  0  0  0  0  0  0  0  0
   26.7671  -20.9240  -16.2742 C   0  0  0  0  0  0  0  0  0  0  0  0
   25.5313  -20.9937  -16.4904 O   0  0  0  0  0  0  0  0  0  0  0  0
   27.6316  -20.4341  -17.2318 O   0  0  0  0  0  0  0  0  0  0  0  0
  2  1  1  0
  3  2  2  0
  4  3  1  0
  5  4  2  0
  5 11  1  0
  6  7  1  0
  6  5  1  0
  7  8  1  6
  7  9  1  0
  9 13  1  0
  9 10  2  0
 11 12  2  0
 12  2  1  0
 13 14  1  0
 14 15  1  0
 15 19  1  0
 15 16  2  0
 18 20  1  0
 18 17  1  6
 19 18  1  0
 20 22  1  0
 21 20  2  0
M  END
$$$$
