YGA.pdb
     RDKit          3D

 22 22  0  0  1  0  0  0  0  0999 V2000
   29.0713  -20.6877   -4.7652 O   0  0  0  0  0  0  0  0  0  0  0  0
   28.5310  -20.4643   -6.0373 C   0  0  0  0  0  0  0  0  0  0  0  0
   27.2227  -20.0981   -6.1878 C   0  0  0  0  0  0  0  0  0  0  0  0
   26.7211  -19.8843   -7.4769 C   0  0  0  0  0  0  0  0  0  0  0  0
   27.5215  -20.0369   -8.5832 C   0  0  0  0  0  0  0  0  0  0  0  0
   27.0044  -19.8146   -9.9440 C   0  0  0  0  0  0  0  0  0  0  0  0
   25.9952  -20.8690  -10.3319 C   0  0  2  0  0  0  0  0  0  0  0  0
   26.6616  -22.1202  -10.5606 N   0  0  0  0  0  0  0  0  0  0  0  0
   25.2781  -20.3963  -11.5592 C   0  0  0  0  0  0  0  0  0  0  0  0
   24.3888  -19.5134  -11.4661 O   0  0  0  0  0  0  0  0  0  0  0  0
   28.8322  -20.4051   -8.4100 C   0  0  0  0  0  0  0  0  0  0  0  0
   29.3638  -20.6260   -7.1391 C   0  0  0  0  0  0  0  0  0  0  0  0
   25.5660  -20.9137  -12.8508 N   0  0  0  0  0  0  0  0  0  0  0  0
   24.9598  -20.3922  -14.0587 C   0  0  0  0  0  0  0  0  0  0  0  0
   23.6092  -20.9488  -14.2071 C   0  0  0  0  0  0  0  0  0  0  0  0
   22.8438  -20.5325  -15.0986 O   0  0  0  0  0  0  0  0  0  0  0  0
   21.7863  -24.0170  -13.1229 C   0  0  0  0  0  0  0  0  0  0  0  0
   21.8126  -22.5725  -13.6028 C   0  0  2  0  0  0  0  0  0  0  0  0
   23.1086  -21.9792  -13.3528 N   0  0  0  0  0  0  0  0  0  0  0  0
   20.7734  -21.8059  -12.8692 C   0  0  0  0  0  0  0  0  0  0  0  0
   21.1319  -21.1656  -11.8493 O   0  0  0  0  0  0  0  0  0  0  0  0
   19.4597  -21.7961  -13.2916 O   0  0  0  0  0  0  0  0  0  0  0  0
  2  1  1  0
  3  2  2  0
  4  3  1  0
  5  4  2  0
  5 11  1  0
  6  7  1  0
  6  5  1  0
  7  8  1  6
  7  9  1  0
  9 13  1  0
  9 10  2  0
 11 12  2  0
 12  2  1  0
 13 14  1  0
 14 15  1  0
 15 19  1  0
 15 16  2  0
 18 20  1  0
 18 17  1  1
 19 18  1  0
 20 22  1  0
 21 20  2  0
M  END
$$$$
