YGA.pdb
     RDKit          3D

 22 22  0  0  1  0  0  0  0  0999 V2000
   21.2735  -22.5748   14.6641 O   0  0  0  0  0  0  0  0  0  0  0  0
   21.4590  -21.7481   13.5496 C   0  0  0  0  0  0  0  0  0  0  0  0
   21.1906  -22.2023   12.2887 C   0  0  0  0  0  0  0  0  0  0  0  0
   21.3893  -21.3441   11.2009 C   0  0  0  0  0  0  0  0  0  0  0  0
   21.8470  -20.0617   11.3842 C   0  0  0  0  0  0  0  0  0  0  0  0
   22.0596  -19.1503   10.2472 C   0  0  0  0  0  0  0  0  0  0  0  0
   21.1326  -17.9597   10.3111 C   0  0  2  0  0  0  0  0  0  0  0  0
   19.7947  -18.3663    9.9848 N   0  0  0  0  0  0  0  0  0  0  0  0
   21.6404  -16.9240    9.3555 C   0  0  0  0  0  0  0  0  0  0  0  0
   21.4636  -17.0690    8.1198 O   0  0  0  0  0  0  0  0  0  0  0  0
   22.1104  -19.6255   12.6585 C   0  0  0  0  0  0  0  0  0  0  0  0
   21.9232  -20.4550   13.7645 C   0  0  0  0  0  0  0  0  0  0  0  0
   22.3277  -15.7606    9.7948 N   0  0  0  0  0  0  0  0  0  0  0  0
   22.7975  -14.7357    8.8853 C   0  0  0  0  0  0  0  0  0  0  0  0
   21.8874  -13.5845    8.9343 C   0  0  0  0  0  0  0  0  0  0  0  0
   20.9418  -13.5551    9.7461 O   0  0  0  0  0  0  0  0  0  0  0  0
   21.7037  -10.1137    7.4714 C   0  0  0  0  0  0  0  0  0  0  0  0
   21.1206  -11.3379    8.1637 C   0  0  2  0  0  0  0  0  0  0  0  0
   22.0341  -12.4562    8.0697 N   0  0  0  0  0  0  0  0  0  0  0  0
   19.8392  -11.6956    7.5033 C   0  0  0  0  0  0  0  0  0  0  0  0
   19.8609  -12.6141    6.6463 O   0  0  0  0  0  0  0  0  0  0  0  0
   18.6650  -11.0428    7.8187 O   0  0  0  0  0  0  0  0  0  0  0  0
  2  1  1  0
  3  2  2  0
  4  3  1  0
  5  4  2  0
  5 11  1  0
  6  7  1  0
  6  5  1  0
  7  8  1  6
  7  9  1  0
  9 13  1  0
  9 10  2  0
 11 12  2  0
 12  2  1  0
 13 14  1  0
 14 15  1  0
 15 19  1  0
 15 16  2  0
 18 20  1  0
 18 17  1  6
 19 18  1  0
 20 22  1  0
 21 20  2  0
M  END
$$$$
