YGA.pdb
     RDKit          3D

 22 22  0  0  1  0  0  0  0  0999 V2000
   28.1346  -19.2125   -5.6808 O   0  0  0  0  0  0  0  0  0  0  0  0
   27.8801  -19.5449   -7.0167 C   0  0  0  0  0  0  0  0  0  0  0  0
   28.1264  -20.8058   -7.4835 C   0  0  0  0  0  0  0  0  0  0  0  0
   27.8583  -21.0976   -8.8260 C   0  0  0  0  0  0  0  0  0  0  0  0
   27.3546  -20.1397   -9.6725 C   0  0  0  0  0  0  0  0  0  0  0  0
   27.0688  -20.4356  -11.0865 C   0  0  0  0  0  0  0  0  0  0  0  0
   25.5988  -20.6993  -11.3107 C   0  0  2  0  0  0  0  0  0  0  0  0
   25.1840  -21.8347  -10.5358 N   0  0  0  0  0  0  0  0  0  0  0  0
   25.3860  -20.9270  -12.7760 C   0  0  0  0  0  0  0  0  0  0  0  0
   25.7675  -22.0003  -13.3067 O   0  0  0  0  0  0  0  0  0  0  0  0
   27.1144  -18.8801   -9.1836 C   0  0  0  0  0  0  0  0  0  0  0  0
   27.3706  -18.5560   -7.8510 C   0  0  0  0  0  0  0  0  0  0  0  0
   24.7586  -19.9620  -13.6089 N   0  0  0  0  0  0  0  0  0  0  0  0
   24.4156  -20.2225  -14.9920 C   0  0  0  0  0  0  0  0  0  0  0  0
   23.7747  -19.0340  -15.5686 C   0  0  0  0  0  0  0  0  0  0  0  0
   23.4195  -18.0863  -14.8407 O   0  0  0  0  0  0  0  0  0  0  0  0
   23.1117  -17.6092  -18.9971 C   0  0  0  0  0  0  0  0  0  0  0  0
   22.8965  -17.7100  -17.4934 C   0  0  2  0  0  0  0  0  0  0  0  0
   23.5282  -18.9020  -16.9700 N   0  0  0  0  0  0  0  0  0  0  0  0
   21.4374  -17.7698  -17.2222 C   0  0  0  0  0  0  0  0  0  0  0  0
   20.9300  -18.8987  -17.0057 O   0  0  0  0  0  0  0  0  0  0  0  0
   20.6647  -16.6265  -17.2082 O   0  0  0  0  0  0  0  0  0  0  0  0
  2  1  1  0
  3  2  2  0
  4  3  1  0
  5  4  2  0
  5 11  1  0
  6  7  1  0
  6  5  1  0
  7  8  1  1
  7  9  1  0
  9 13  1  0
  9 10  2  0
 11 12  2  0
 12  2  1  0
 13 14  1  0
 14 15  1  0
 15 19  1  0
 15 16  2  0
 18 20  1  0
 18 17  1  6
 19 18  1  0
 20 22  1  0
 21 20  2  0
M  END
$$$$
