YGA.pdb
     RDKit          3D

 22 22  0  0  1  0  0  0  0  0999 V2000
   23.1755  -21.5465   -8.3177 O   0  0  0  0  0  0  0  0  0  0  0  0
   23.8776  -21.3404   -9.5112 C   0  0  0  0  0  0  0  0  0  0  0  0
   25.1735  -20.9057   -9.4951 C   0  0  0  0  0  0  0  0  0  0  0  0
   25.8402  -20.7120  -10.7104 C   0  0  0  0  0  0  0  0  0  0  0  0
   25.2129  -20.9517  -11.9091 C   0  0  0  0  0  0  0  0  0  0  0  0
   25.9046  -20.7513  -13.1936 C   0  0  0  0  0  0  0  0  0  0  0  0
   25.6521  -19.3697  -13.7487 C   0  0  2  0  0  0  0  0  0  0  0  0
   24.2578  -19.2152  -14.0550 N   0  0  0  0  0  0  0  0  0  0  0  0
   26.5049  -19.1962  -14.9680 C   0  0  0  0  0  0  0  0  0  0  0  0
   25.9814  -19.2268  -16.1101 O   0  0  0  0  0  0  0  0  0  0  0  0
   23.9116  -21.3876  -11.9030 C   0  0  0  0  0  0  0  0  0  0  0  0
   23.2181  -21.5908  -10.7096 C   0  0  0  0  0  0  0  0  0  0  0  0
   27.9089  -18.9944  -14.8875 N   0  0  0  0  0  0  0  0  0  0  0  0
   28.7525  -18.8677  -16.0584 C   0  0  0  0  0  0  0  0  0  0  0  0
   28.6695  -20.0979  -16.8556 C   0  0  0  0  0  0  0  0  0  0  0  0
   28.0988  -20.1007  -17.9639 O   0  0  0  0  0  0  0  0  0  0  0  0
   30.1802  -23.5426  -16.8353 C   0  0  0  0  0  0  0  0  0  0  0  0
   29.1206  -22.5237  -17.2314 C   0  0  2  0  0  0  0  0  0  0  0  0
   29.2285  -21.3359  -16.4119 N   0  0  0  0  0  0  0  0  0  0  0  0
   27.7786  -23.1304  -17.0399 C   0  0  0  0  0  0  0  0  0  0  0  0
   27.0502  -22.6606  -16.1303 O   0  0  0  0  0  0  0  0  0  0  0  0
   27.3452  -24.1738  -17.8324 O   0  0  0  0  0  0  0  0  0  0  0  0
  2  1  1  0
  3  2  2  0
  4  3  1  0
  5  4  2  0
  5 11  1  0
  6  7  1  0
  6  5  1  0
  7  8  1  6
  7  9  1  0
  9 13  1  0
  9 10  2  0
 11 12  2  0
 12  2  1  0
 13 14  1  0
 14 15  1  0
 15 19  1  0
 15 16  2  0
 18 20  1  0
 18 17  1  1
 19 18  1  0
 20 22  1  0
 21 20  2  0
M  END
$$$$
