YGA.pdb
     RDKit          3D

 22 22  0  0  1  0  0  0  0  0999 V2000
   20.7239  -19.8757  -14.4818 O   0  0  0  0  0  0  0  0  0  0  0  0
   20.9374  -18.7136  -15.2327 C   0  0  0  0  0  0  0  0  0  0  0  0
   20.0626  -18.3451  -16.2162 C   0  0  0  0  0  0  0  0  0  0  0  0
   20.3122  -17.1759  -16.9442 C   0  0  0  0  0  0  0  0  0  0  0  0
   21.4165  -16.4011  -16.6839 C   0  0  0  0  0  0  0  0  0  0  0  0
   21.6889  -15.1692  -17.4434 C   0  0  0  0  0  0  0  0  0  0  0  0
   21.5082  -13.9389  -16.5863 C   0  0  2  0  0  0  0  0  0  0  0  0
   20.1720  -13.9028  -16.0618 N   0  0  0  0  0  0  0  0  0  0  0  0
   21.7991  -12.7371  -17.4317 C   0  0  0  0  0  0  0  0  0  0  0  0
   22.8873  -12.6561  -18.0551 O   0  0  0  0  0  0  0  0  0  0  0  0
   22.2822  -16.7890  -15.6922 C   0  0  0  0  0  0  0  0  0  0  0  0
   22.0631  -17.9485  -14.9479 C   0  0  0  0  0  0  0  0  0  0  0  0
   20.8788  -11.6624  -17.5621 N   0  0  0  0  0  0  0  0  0  0  0  0
   21.1541  -10.4853  -18.3603 C   0  0  0  0  0  0  0  0  0  0  0  0
   20.1956   -9.4273  -18.0171 C   0  0  0  0  0  0  0  0  0  0  0  0
   20.2631   -8.3071  -18.5599 O   0  0  0  0  0  0  0  0  0  0  0  0
   16.9071   -9.0890  -16.2672 C   0  0  0  0  0  0  0  0  0  0  0  0
   18.2488   -8.5399  -16.7321 C   0  0  2  0  0  0  0  0  0  0  0  0
   19.1527   -9.6214  -17.0597 N   0  0  0  0  0  0  0  0  0  0  0  0
   18.8366   -7.7246  -15.6386 C   0  0  0  0  0  0  0  0  0  0  0  0
   19.8760   -8.1582  -15.0816 O   0  0  0  0  0  0  0  0  0  0  0  0
   18.2624   -6.5325  -15.2468 O   0  0  0  0  0  0  0  0  0  0  0  0
  2  1  1  0
  3  2  2  0
  4  3  1  0
  5  4  2  0
  5 11  1  0
  6  7  1  0
  6  5  1  0
  7  8  1  6
  7  9  1  0
  9 13  1  0
  9 10  2  0
 11 12  2  0
 12  2  1  0
 13 14  1  0
 14 15  1  0
 15 19  1  0
 15 16  2  0
 18 20  1  0
 18 17  1  1
 19 18  1  0
 20 22  1  0
 21 20  2  0
M  END
$$$$
