IRT.pdb
     RDKit          3D

 27 26  0  0  1  0  0  0  0  0999 V2000
    6.6120  -11.5550   28.0621 C   0  0  0  0  0  0  0  0  0  0  0  0
    5.7852  -12.6924   27.4282 C   0  0  0  0  0  0  0  0  0  0  0  0
    6.6256  -13.2564   26.3462 C   0  0  2  0  0  0  0  0  0  0  0  0
    7.0684  -12.0769   25.4696 C   0  0  0  0  0  0  0  0  0  0  0  0
    6.0752  -14.3727   25.5465 C   0  0  2  0  0  0  0  0  0  0  0  0
    5.8129  -15.4613   26.5276 N   0  0  0  0  0  0  0  0  0  0  0  0
    6.8972  -14.9554   24.5028 C   0  0  0  0  0  0  0  0  0  0  0  0
    7.5190  -16.0601   24.7271 O   0  0  0  0  0  0  0  0  0  0  0  0
    9.6260  -15.0018   16.4987 N   0  0  0  0  0  0  0  0  0  0  0  0
    8.4361  -14.4573   17.0299 C   0  0  0  0  0  0  0  0  0  0  0  0
    8.0818  -13.2291   16.8769 N   0  0  0  0  0  0  0  0  0  0  0  0
    7.5843  -15.3388   17.7812 N   0  0  0  0  0  0  0  0  0  0  0  0
    8.0185  -15.8965   19.0495 C   0  0  0  0  0  0  0  0  0  0  0  0
    8.7234  -14.8114   19.8207 C   0  0  0  0  0  0  0  0  0  0  0  0
    7.8729  -14.3322   20.9242 C   0  0  0  0  0  0  0  0  0  0  0  0
    7.8805  -15.1513   22.1889 C   0  0  2  0  0  0  0  0  0  0  0  0
    7.1230  -14.4506   23.1860 N   0  0  0  0  0  0  0  0  0  0  0  0
    9.2670  -15.4829   22.5603 C   0  0  0  0  0  0  0  0  0  0  0  0
    9.9577  -14.5900   23.1664 O   0  0  0  0  0  0  0  0  0  0  0  0
    7.1187  -12.9520   17.2002 C   0  0  0  0  0  0  0  0  0  0  0  0
   12.7880  -18.6602   23.7241 C   0  0  2  0  0  0  0  0  0  0  0  0
   11.3621  -18.3558   23.3140 O   0  0  0  0  0  0  0  0  0  0  0  0
   10.5727  -18.4906   24.4490 C   0  0  1  0  0  0  0  0  0  0  0  0
   11.3204  -16.9292   22.7776 N   0  0  0  0  0  0  0  0  0  0  0  0
    9.9398  -16.6988   22.3204 C   0  0  0  0  0  0  0  0  0  0  0  0
   12.2890  -16.7127   21.7046 O   0  0  0  0  0  0  0  0  0  0  0  0
   12.1243  -17.0892   20.5160 O   0  0  0  0  0  0  0  0  0  0  0  0
  1  2  1  0
  2  3  1  0
  3  5  1  0
  3  4  1  6
  5  6  1  1
  7  8  2  0
  7  5  1  0
  9 10  1  0
 10 12  1  0
 11 10  2  0
 12 13  1  0
 13 14  1  0
 14 15  1  0
 16 15  1  6
 16 17  1  0
 17  7  1  0
 18 16  1  0
 19 18  2  0
 21 20  1  6
 21 22  1  0
 23 21  1  0
 23 24  1  6
 24 18  1  0
 25 27  1  0
 25 23  1  0
 26 25  2  0
M  END
$$$$
