IRT.pdb
     RDKit          3D

 27 26  0  0  1  0  0  0  0  0999 V2000
    7.2218  -11.9623   28.3013 C   0  0  0  0  0  0  0  0  0  0  0  0
    6.3556  -13.1121   27.7472 C   0  0  0  0  0  0  0  0  0  0  0  0
    6.9690  -13.5023   26.4563 C   0  0  2  0  0  0  0  0  0  0  0  0
    7.0974  -12.2203   25.6222 C   0  0  0  0  0  0  0  0  0  0  0  0
    6.3454  -14.6062   25.6939 C   0  0  2  0  0  0  0  0  0  0  0  0
    6.3513  -15.7709   26.6213 N   0  0  0  0  0  0  0  0  0  0  0  0
    6.9823  -15.0571   24.4710 C   0  0  0  0  0  0  0  0  0  0  0  0
    7.5744  -16.1999   24.4478 O   0  0  0  0  0  0  0  0  0  0  0  0
    8.0189  -16.0307   16.9271 N   0  0  0  0  0  0  0  0  0  0  0  0
    8.5098  -14.7748   16.5075 C   0  0  0  0  0  0  0  0  0  0  0  0
    9.2081  -14.6010   15.4400 N   0  0  0  0  0  0  0  0  0  0  0  0
    8.2029  -13.6370   17.3311 N   0  0  0  0  0  0  0  0  0  0  0  0
    7.3079  -13.7570   18.4682 C   0  0  0  0  0  0  0  0  0  0  0  0
    8.0891  -14.3349   19.6192 C   0  0  0  0  0  0  0  0  0  0  0  0
    7.4512  -13.9821   20.8996 C   0  0  0  0  0  0  0  0  0  0  0  0
    7.7167  -14.9014   22.0636 C   0  0  2  0  0  0  0  0  0  0  0  0
    7.0447  -14.3757   23.2174 N   0  0  0  0  0  0  0  0  0  0  0  0
    9.1673  -15.1108   22.2131 C   0  0  0  0  0  0  0  0  0  0  0  0
    9.8797  -14.1243   22.6141 O   0  0  0  0  0  0  0  0  0  0  0  0
    9.6360  -13.6518   15.2823 C   0  0  0  0  0  0  0  0  0  0  0  0
   11.0897  -17.0620   24.4916 C   0  0  2  0  0  0  0  0  0  0  0  0
   11.5826  -17.5180   23.1340 O   0  0  0  0  0  0  0  0  0  0  0  0
   10.8553  -18.6517   22.7947 C   0  0  2  0  0  0  0  0  0  0  0  0
   11.3400  -16.3873   22.1404 N   0  0  0  0  0  0  0  0  0  0  0  0
    9.8813  -16.3003   21.9599 C   0  0  0  0  0  0  0  0  0  0  0  0
   12.0301  -16.6082   20.8710 O   0  0  0  0  0  0  0  0  0  0  0  0
   11.4650  -16.9957   19.8164 O   0  0  0  0  0  0  0  0  0  0  0  0
  1  2  1  0
  2  3  1  0
  3  5  1  0
  3  4  1  6
  5  6  1  1
  7  8  2  0
  7  5  1  0
  9 10  1  0
 10 12  1  0
 11 10  2  0
 12 13  1  0
 13 14  1  0
 14 15  1  0
 16 15  1  6
 16 17  1  0
 17  7  1  0
 18 16  1  0
 19 18  2  0
 21 20  1  1
 21 22  1  0
 23 21  1  0
 23 24  1  6
 24 18  1  0
 25 27  1  0
 25 23  1  0
 26 25  2  0
M  END
$$$$
