IRT.pdb
     RDKit          3D

 27 26  0  0  1  0  0  0  0  0999 V2000
    6.7675  -11.9227   28.1558 C   0  0  0  0  0  0  0  0  0  0  0  0
    5.8699  -12.8683   27.3314 C   0  0  0  0  0  0  0  0  0  0  0  0
    6.7447  -13.4637   26.2945 C   0  0  2  0  0  0  0  0  0  0  0  0
    7.4850  -12.3010   25.6195 C   0  0  0  0  0  0  0  0  0  0  0  0
    6.1327  -14.3841   25.3111 C   0  0  2  0  0  0  0  0  0  0  0  0
    5.5226  -15.4719   26.1241 N   0  0  0  0  0  0  0  0  0  0  0  0
    6.9887  -15.0353   24.3376 C   0  0  0  0  0  0  0  0  0  0  0  0
    7.5290  -16.1679   24.6247 O   0  0  0  0  0  0  0  0  0  0  0  0
    8.6026  -12.8606   16.2190 N   0  0  0  0  0  0  0  0  0  0  0  0
    8.0998  -14.1317   16.5739 C   0  0  0  0  0  0  0  0  0  0  0  0
    7.4727  -14.9052   15.7579 N   0  0  0  0  0  0  0  0  0  0  0  0
    8.3090  -14.5705   17.9270 N   0  0  0  0  0  0  0  0  0  0  0  0
    9.4206  -14.0658   18.7130 C   0  0  0  0  0  0  0  0  0  0  0  0
    9.4946  -14.8669   19.9866 C   0  0  0  0  0  0  0  0  0  0  0  0
    8.4796  -14.3981   20.9461 C   0  0  0  0  0  0  0  0  0  0  0  0
    8.2685  -15.2443   22.1749 C   0  0  2  0  0  0  0  0  0  0  0  0
    7.3321  -14.5734   23.0306 N   0  0  0  0  0  0  0  0  0  0  0  0
    9.5689  -15.5691   22.7864 C   0  0  0  0  0  0  0  0  0  0  0  0
   10.2046  -14.6304   23.3832 O   0  0  0  0  0  0  0  0  0  0  0  0
    7.1955  -15.8609   16.1024 C   0  0  0  0  0  0  0  0  0  0  0  0
   12.9013  -18.6530   24.6212 C   0  0  2  0  0  0  0  0  0  0  0  0
   11.5151  -18.3734   24.0789 O   0  0  0  0  0  0  0  0  0  0  0  0
   10.6456  -18.3688   25.1620 C   0  0  1  0  0  0  0  0  0  0  0  0
   11.5448  -17.0148   23.3876 N   0  0  0  0  0  0  0  0  0  0  0  0
   10.2120  -16.8242   22.7915 C   0  0  0  0  0  0  0  0  0  0  0  0
   12.6039  -16.9272   22.3841 O   0  0  0  0  0  0  0  0  0  0  0  0
   12.5278  -17.4208   21.2299 O   0  0  0  0  0  0  0  0  0  0  0  0
  1  2  1  0
  2  3  1  0
  3  5  1  0
  3  4  1  6
  5  6  1  1
  7  8  2  0
  7  5  1  0
  9 10  1  0
 10 12  1  0
 11 10  2  0
 12 13  1  0
 13 14  1  0
 14 15  1  0
 16 15  1  6
 16 17  1  0
 17  7  1  0
 18 16  1  0
 19 18  2  0
 21 20  1  6
 21 22  1  0
 23 21  1  0
 23 24  1  6
 24 18  1  0
 25 27  1  0
 25 23  1  0
 26 25  2  0
M  END
$$$$
