IRT.pdb
     RDKit          3D

 27 26  0  0  1  0  0  0  0  0999 V2000
    7.2625  -11.4358   27.5305 C   0  0  0  0  0  0  0  0  0  0  0  0
    6.2787  -12.4767   26.9578 C   0  0  0  0  0  0  0  0  0  0  0  0
    7.0876  -13.3816   26.1082 C   0  0  2  0  0  0  0  0  0  0  0  0
    7.8749  -12.4907   25.1376 C   0  0  0  0  0  0  0  0  0  0  0  0
    6.3956  -14.4901   25.4148 C   0  0  2  0  0  0  0  0  0  0  0  0
    5.7493  -15.2823   26.4970 N   0  0  0  0  0  0  0  0  0  0  0  0
    7.1840  -15.4288   24.6391 C   0  0  0  0  0  0  0  0  0  0  0  0
    7.7545  -16.4195   25.2310 O   0  0  0  0  0  0  0  0  0  0  0  0
    8.4443  -19.7215   18.8840 N   0  0  0  0  0  0  0  0  0  0  0  0
    9.3209  -19.0963   17.9700 C   0  0  0  0  0  0  0  0  0  0  0  0
   10.1252  -19.7394   17.1974 N   0  0  0  0  0  0  0  0  0  0  0  0
    9.3006  -17.6598   17.9126 N   0  0  0  0  0  0  0  0  0  0  0  0
    8.3912  -16.8913   18.7437 C   0  0  0  0  0  0  0  0  0  0  0  0
    8.7448  -17.1484   20.1853 C   0  0  0  0  0  0  0  0  0  0  0  0
    7.9998  -16.2324   21.0666 C   0  0  0  0  0  0  0  0  0  0  0  0
    8.2024  -16.4063   22.5496 C   0  0  2  0  0  0  0  0  0  0  0  0
    7.4264  -15.4106   23.2318 N   0  0  0  0  0  0  0  0  0  0  0  0
    9.6427  -16.4121   22.8590 C   0  0  0  0  0  0  0  0  0  0  0  0
   10.2163  -15.2871   23.0762 O   0  0  0  0  0  0  0  0  0  0  0  0
   10.7745  -19.1777   16.5877 C   0  0  0  0  0  0  0  0  0  0  0  0
   13.1445  -18.5330   25.3548 C   0  0  2  0  0  0  0  0  0  0  0  0
   11.7375  -18.3510   24.8247 O   0  0  0  0  0  0  0  0  0  0  0  0
   10.9984  -17.7387   25.8288 C   0  0  1  0  0  0  0  0  0  0  0  0
   11.8127  -17.4738   23.5800 N   0  0  0  0  0  0  0  0  0  0  0  0
   10.4853  -17.5396   22.9461 C   0  0  0  0  0  0  0  0  0  0  0  0
   12.8706  -17.8995   22.6657 O   0  0  0  0  0  0  0  0  0  0  0  0
   12.6681  -18.5020   21.5805 O   0  0  0  0  0  0  0  0  0  0  0  0
  1  2  1  0
  2  3  1  0
  3  5  1  0
  3  4  1  6
  5  6  1  1
  7  8  2  0
  7  5  1  0
  9 10  1  0
 10 12  1  0
 11 10  2  0
 12 13  1  0
 13 14  1  0
 14 15  1  0
 16 15  1  6
 16 17  1  0
 17  7  1  0
 18 16  1  0
 19 18  2  0
 21 20  1  1
 21 22  1  0
 23 21  1  0
 23 24  1  6
 24 18  1  0
 25 27  1  0
 25 23  1  0
 26 25  2  0
M  END
$$$$
