IRT.pdb
     RDKit          3D

 27 26  0  0  1  0  0  0  0  0999 V2000
    6.8121  -11.5394   28.1576 C   0  0  0  0  0  0  0  0  0  0  0  0
    5.9231  -12.4373   27.2727 C   0  0  0  0  0  0  0  0  0  0  0  0
    6.8443  -13.1566   26.3623 C   0  0  2  0  0  0  0  0  0  0  0  0
    7.7162  -12.0917   25.6832 C   0  0  0  0  0  0  0  0  0  0  0  0
    6.2615  -14.1068   25.3895 C   0  0  2  0  0  0  0  0  0  0  0  0
    5.5199  -15.1007   26.2134 N   0  0  0  0  0  0  0  0  0  0  0  0
    7.1545  -14.8698   24.5381 C   0  0  0  0  0  0  0  0  0  0  0  0
    7.7164  -15.9326   24.9985 O   0  0  0  0  0  0  0  0  0  0  0  0
    9.1760  -14.7488   16.6460 N   0  0  0  0  0  0  0  0  0  0  0  0
    8.1703  -14.3191   17.5396 C   0  0  0  0  0  0  0  0  0  0  0  0
    7.6895  -13.1249   17.5533 N   0  0  0  0  0  0  0  0  0  0  0  0
    7.6668  -15.2828   18.4803 N   0  0  0  0  0  0  0  0  0  0  0  0
    6.7158  -14.8982   19.5078 C   0  0  0  0  0  0  0  0  0  0  0  0
    7.4400  -14.0522   20.5222 C   0  0  0  0  0  0  0  0  0  0  0  0
    8.5977  -14.7835   21.0661 C   0  0  0  0  0  0  0  0  0  0  0  0
    8.4258  -15.4061   22.4274 C   0  0  2  0  0  0  0  0  0  0  0  0
    7.5148  -14.5954   23.1837 N   0  0  0  0  0  0  0  0  0  0  0  0
    9.7448  -15.6260   23.0456 C   0  0  0  0  0  0  0  0  0  0  0  0
   10.4116  -14.5989   23.4226 O   0  0  0  0  0  0  0  0  0  0  0  0
    8.0463  -12.4437   16.8339 C   0  0  0  0  0  0  0  0  0  0  0  0
   11.0044  -17.9897   25.8974 C   0  0  2  0  0  0  0  0  0  0  0  0
   11.8089  -18.2269   24.6363 O   0  0  0  0  0  0  0  0  0  0  0  0
   11.2239  -19.2983   23.9735 C   0  0  2  0  0  0  0  0  0  0  0  0
   11.7506  -16.9571   23.7944 N   0  0  0  0  0  0  0  0  0  0  0  0
   10.3752  -16.8662   23.2767 C   0  0  0  0  0  0  0  0  0  0  0  0
   12.7359  -16.9628   22.7148 O   0  0  0  0  0  0  0  0  0  0  0  0
   12.4478  -17.0593   21.4944 O   0  0  0  0  0  0  0  0  0  0  0  0
  1  2  1  0
  2  3  1  0
  3  5  1  0
  3  4  1  6
  5  6  1  1
  7  8  2  0
  7  5  1  0
  9 10  1  0
 10 12  1  0
 11 10  2  0
 12 13  1  0
 13 14  1  0
 14 15  1  0
 16 15  1  6
 16 17  1  0
 17  7  1  0
 18 16  1  0
 19 18  2  0
 21 20  1  1
 21 22  1  0
 23 21  1  0
 23 24  1  6
 24 18  1  0
 25 27  1  0
 25 23  1  0
 26 25  2  0
M  END
$$$$
