IRT.pdb
     RDKit          3D

 27 26  0  0  1  0  0  0  0  0999 V2000
    6.9564  -11.3937   27.6877 C   0  0  0  0  0  0  0  0  0  0  0  0
    6.0514  -12.2031   26.7363 C   0  0  0  0  0  0  0  0  0  0  0  0
    6.9339  -13.1904   26.0719 C   0  0  2  0  0  0  0  0  0  0  0  0
    8.0641  -12.3949   25.4045 C   0  0  0  0  0  0  0  0  0  0  0  0
    6.3158  -14.1672   25.1486 C   0  0  2  0  0  0  0  0  0  0  0  0
    5.2906  -14.8764   25.9624 N   0  0  0  0  0  0  0  0  0  0  0  0
    7.1512  -15.1968   24.5600 C   0  0  0  0  0  0  0  0  0  0  0  0
    7.3608  -16.2903   25.2062 O   0  0  0  0  0  0  0  0  0  0  0  0
    7.1767  -14.3634   16.9114 N   0  0  0  0  0  0  0  0  0  0  0  0
    8.2004  -13.7053   17.6279 C   0  0  0  0  0  0  0  0  0  0  0  0
    8.5652  -12.4918   17.4004 N   0  0  0  0  0  0  0  0  0  0  0  0
    8.8618  -14.4476   18.6665 N   0  0  0  0  0  0  0  0  0  0  0  0
    8.3968  -15.7673   19.0542 C   0  0  0  0  0  0  0  0  0  0  0  0
    7.9289  -15.6968   20.4843 C   0  0  0  0  0  0  0  0  0  0  0  0
    9.0577  -15.9210   21.4042 C   0  0  0  0  0  0  0  0  0  0  0  0
    8.7123  -16.1892   22.8462 C   0  0  2  0  0  0  0  0  0  0  0  0
    7.8071  -15.1688   23.2916 N   0  0  0  0  0  0  0  0  0  0  0  0
    9.9471  -16.3330   23.6366 C   0  0  0  0  0  0  0  0  0  0  0  0
   10.5651  -15.2667   23.9870 O   0  0  0  0  0  0  0  0  0  0  0  0
    9.3534  -12.0995   17.9782 C   0  0  0  0  0  0  0  0  0  0  0  0
   13.2398  -18.9487   26.2244 C   0  0  2  0  0  0  0  0  0  0  0  0
   11.8837  -18.8525   25.5568 O   0  0  0  0  0  0  0  0  0  0  0  0
   10.9307  -18.8380   26.5673 C   0  0  1  0  0  0  0  0  0  0  0  0
   11.8486  -17.5626   24.7448 N   0  0  0  0  0  0  0  0  0  0  0  0
   10.5437  -17.5376   24.0633 C   0  0  0  0  0  0  0  0  0  0  0  0
   12.9566  -17.4757   23.7955 O   0  0  0  0  0  0  0  0  0  0  0  0
   12.9659  -18.0289   22.6661 O   0  0  0  0  0  0  0  0  0  0  0  0
  1  2  1  0
  2  3  1  0
  3  5  1  0
  3  4  1  6
  5  6  1  1
  7  8  2  0
  7  5  1  0
  9 10  1  0
 10 12  1  0
 11 10  2  0
 12 13  1  0
 13 14  1  0
 14 15  1  0
 16 15  1  6
 16 17  1  0
 17  7  1  0
 18 16  1  0
 19 18  2  0
 21 20  1  6
 21 22  1  0
 23 21  1  0
 23 24  1  6
 24 18  1  0
 25 27  1  0
 25 23  1  0
 26 25  2  0
M  END
$$$$
