IRT.pdb
     RDKit          3D

 27 26  0  0  1  0  0  0  0  0999 V2000
    6.2703  -10.8530   27.3807 C   0  0  0  0  0  0  0  0  0  0  0  0
    5.4827  -12.0305   26.7704 C   0  0  0  0  0  0  0  0  0  0  0  0
    6.4949  -12.9459   26.1938 C   0  0  2  0  0  0  0  0  0  0  0  0
    7.3479  -12.1109   25.2290 C   0  0  0  0  0  0  0  0  0  0  0  0
    6.0244  -14.2061   25.5779 C   0  0  2  0  0  0  0  0  0  0  0  0
    5.0857  -14.7972   26.5709 N   0  0  0  0  0  0  0  0  0  0  0  0
    6.9960  -15.2389   25.2720 C   0  0  0  0  0  0  0  0  0  0  0  0
    7.4403  -15.9921   26.2167 O   0  0  0  0  0  0  0  0  0  0  0  0
    7.7768  -13.9234   18.7346 N   0  0  0  0  0  0  0  0  0  0  0  0
    9.0094  -13.3812   19.1605 C   0  0  0  0  0  0  0  0  0  0  0  0
    9.2772  -12.1221   19.1516 N   0  0  0  0  0  0  0  0  0  0  0  0
   10.0099  -14.3022   19.6272 N   0  0  0  0  0  0  0  0  0  0  0  0
    9.6366  -15.5690   20.2306 C   0  0  0  0  0  0  0  0  0  0  0  0
    9.3245  -15.3210   21.6834 C   0  0  0  0  0  0  0  0  0  0  0  0
    8.9450  -16.5800   22.3478 C   0  0  0  0  0  0  0  0  0  0  0  0
    8.6261  -16.4994   23.8184 C   0  0  2  0  0  0  0  0  0  0  0  0
    7.5572  -15.5591   23.9983 N   0  0  0  0  0  0  0  0  0  0  0  0
    9.8550  -16.2187   24.5807 C   0  0  0  0  0  0  0  0  0  0  0  0
   10.7386  -15.4635   24.0415 O   0  0  0  0  0  0  0  0  0  0  0  0
   10.2221  -11.8186   19.5037 C   0  0  0  0  0  0  0  0  0  0  0  0
   10.2426  -14.5084   27.7078 C   0  0  2  0  0  0  0  0  0  0  0  0
   11.0333  -15.7833   27.9154 O   0  0  0  0  0  0  0  0  0  0  0  0
   10.2033  -16.6751   28.5826 C   0  0  2  0  0  0  0  0  0  0  0  0
   11.4324  -16.3187   26.5448 N   0  0  0  0  0  0  0  0  0  0  0  0
   10.1809  -16.6961   25.8670 C   0  0  0  0  0  0  0  0  0  0  0  0
   12.3581  -17.4459   26.6388 O   0  0  0  0  0  0  0  0  0  0  0  0
   12.0771  -18.6228   26.2956 O   0  0  0  0  0  0  0  0  0  0  0  0
  1  2  1  0
  2  3  1  0
  3  5  1  0
  3  4  1  6
  5  6  1  1
  7  8  2  0
  7  5  1  0
  9 10  1  0
 10 12  1  0
 11 10  2  0
 12 13  1  0
 13 14  1  0
 14 15  1  0
 16 15  1  6
 16 17  1  0
 17  7  1  0
 18 16  1  0
 19 18  2  0
 21 20  1  1
 21 22  1  0
 23 21  1  0
 23 24  1  6
 24 18  1  0
 25 27  1  0
 25 23  1  0
 26 25  2  0
M  END
$$$$
