IRT.pdb
     RDKit          3D

 27 26  0  0  1  0  0  0  0  0999 V2000
    5.9495  -10.9052   27.1838 C   0  0  0  0  0  0  0  0  0  0  0  0
    5.3540  -12.0475   26.3354 C   0  0  0  0  0  0  0  0  0  0  0  0
    6.4948  -12.9119   25.9529 C   0  0  2  0  0  0  0  0  0  0  0  0
    7.5081  -12.0131   25.2311 C   0  0  0  0  0  0  0  0  0  0  0  0
    6.2075  -14.1509   25.1973 C   0  0  2  0  0  0  0  0  0  0  0  0
    5.1647  -14.8573   25.9911 N   0  0  0  0  0  0  0  0  0  0  0  0
    7.2788  -15.1072   24.9913 C   0  0  0  0  0  0  0  0  0  0  0  0
    7.4785  -16.0339   25.8623 O   0  0  0  0  0  0  0  0  0  0  0  0
    9.5909  -12.9545   18.4401 N   0  0  0  0  0  0  0  0  0  0  0  0
    8.3941  -13.6455   18.7313 C   0  0  0  0  0  0  0  0  0  0  0  0
    7.3101  -13.5159   18.0490 N   0  0  0  0  0  0  0  0  0  0  0  0
    8.4051  -14.5400   19.8569 N   0  0  0  0  0  0  0  0  0  0  0  0
    9.5767  -15.3409   20.1638 C   0  0  0  0  0  0  0  0  0  0  0  0
    9.2241  -16.2710   21.2951 C   0  0  0  0  0  0  0  0  0  0  0  0
    9.9838  -15.9152   22.5063 C   0  0  0  0  0  0  0  0  0  0  0  0
    9.2805  -16.1037   23.8256 C   0  0  2  0  0  0  0  0  0  0  0  0
    8.1914  -15.1721   23.8946 N   0  0  0  0  0  0  0  0  0  0  0  0
   10.2560  -16.0243   24.9267 C   0  0  0  0  0  0  0  0  0  0  0  0
   11.1866  -15.1474   24.8444 O   0  0  0  0  0  0  0  0  0  0  0  0
    6.4771  -14.0922   18.3366 C   0  0  0  0  0  0  0  0  0  0  0  0
   10.2877  -14.4509   27.6802 C   0  0  2  0  0  0  0  0  0  0  0  0
   10.6232  -15.8165   28.2428 O   0  0  0  0  0  0  0  0  0  0  0  0
    9.4267  -16.4013   28.6374 C   0  0  2  0  0  0  0  0  0  0  0  0
   11.2983  -16.6268   27.1418 N   0  0  0  0  0  0  0  0  0  0  0  0
   10.2860  -16.8207   26.0902 C   0  0  0  0  0  0  0  0  0  0  0  0
   11.8196  -17.9011   27.6326 O   0  0  0  0  0  0  0  0  0  0  0  0
   11.3629  -19.0260   27.3044 O   0  0  0  0  0  0  0  0  0  0  0  0
  1  2  1  0
  2  3  1  0
  3  5  1  0
  3  4  1  6
  5  6  1  1
  7  8  2  0
  7  5  1  0
  9 10  1  0
 10 12  1  0
 11 10  2  0
 12 13  1  0
 13 14  1  0
 14 15  1  0
 16 15  1  6
 16 17  1  0
 17  7  1  0
 18 16  1  0
 19 18  2  0
 21 20  1  1
 21 22  1  0
 23 21  1  0
 23 24  1  1
 24 18  1  0
 25 27  1  0
 25 23  1  0
 26 25  2  0
M  END
$$$$
