IRT.pdb
     RDKit          3D

 27 26  0  0  1  0  0  0  0  0999 V2000
    7.3591  -11.9828   28.3821 C   0  0  0  0  0  0  0  0  0  0  0  0
    6.4829  -13.0984   27.7761 C   0  0  0  0  0  0  0  0  0  0  0  0
    7.1560  -13.5134   26.5232 C   0  0  2  0  0  0  0  0  0  0  0  0
    7.3891  -12.2375   25.7027 C   0  0  0  0  0  0  0  0  0  0  0  0
    6.5331  -14.5891   25.7209 C   0  0  2  0  0  0  0  0  0  0  0  0
    6.5264  -15.7831   26.6102 N   0  0  0  0  0  0  0  0  0  0  0  0
    7.1774  -15.0034   24.4889 C   0  0  0  0  0  0  0  0  0  0  0  0
    7.9716  -16.0165   24.4976 O   0  0  0  0  0  0  0  0  0  0  0  0
    9.9995  -14.7507   17.7490 N   0  0  0  0  0  0  0  0  0  0  0  0
    8.9535  -14.4708   16.8422 C   0  0  0  0  0  0  0  0  0  0  0  0
    8.9117  -14.9239   15.6379 N   0  0  0  0  0  0  0  0  0  0  0  0
    7.8834  -13.6308   17.3073 N   0  0  0  0  0  0  0  0  0  0  0  0
    7.9020  -13.0688   18.6460 C   0  0  0  0  0  0  0  0  0  0  0  0
    8.1334  -14.1928   19.6219 C   0  0  0  0  0  0  0  0  0  0  0  0
    7.6125  -13.8316   20.9519 C   0  0  0  0  0  0  0  0  0  0  0  0
    7.7862  -14.8526   22.0465 C   0  0  2  0  0  0  0  0  0  0  0  0
    7.0437  -14.4158   23.1941 N   0  0  0  0  0  0  0  0  0  0  0  0
    9.2203  -15.1011   22.2738 C   0  0  0  0  0  0  0  0  0  0  0  0
    9.7267  -14.7264   23.3895 O   0  0  0  0  0  0  0  0  0  0  0  0
    8.1151  -14.6123   15.0236 C   0  0  0  0  0  0  0  0  0  0  0  0
   10.4563  -16.6133   23.9958 C   0  0  2  0  0  0  0  0  0  0  0  0
   11.2722  -17.2128   22.8694 O   0  0  0  0  0  0  0  0  0  0  0  0
   10.5496  -18.2883   22.3686 C   0  0  2  0  0  0  0  0  0  0  0  0
   11.4708  -16.1372   21.8072 N   0  0  0  0  0  0  0  0  0  0  0  0
   10.1238  -15.7189   21.3845 C   0  0  0  0  0  0  0  0  0  0  0  0
   12.2683  -16.6139   20.6789 O   0  0  0  0  0  0  0  0  0  0  0  0
   13.5097  -16.8105   20.7228 O   0  0  0  0  0  0  0  0  0  0  0  0
  1  2  1  0
  2  3  1  0
  3  5  1  0
  3  4  1  6
  5  6  1  1
  7  8  2  0
  7  5  1  0
  9 10  1  0
 10 12  1  0
 11 10  2  0
 12 13  1  0
 13 14  1  0
 14 15  1  0
 16 15  1  6
 16 17  1  0
 17  7  1  0
 18 16  1  0
 19 18  2  0
 21 20  1  1
 21 22  1  0
 23 21  1  0
 23 24  1  6
 24 18  1  0
 25 27  1  0
 25 23  1  0
 26 25  2  0
M  END
$$$$
