IRT.pdb
     RDKit          3D

 27 26  0  0  1  0  0  0  0  0999 V2000
    7.0131  -11.6205   28.2166 C   0  0  0  0  0  0  0  0  0  0  0  0
    6.1252  -12.6273   27.4568 C   0  0  0  0  0  0  0  0  0  0  0  0
    6.9928  -13.2423   26.4252 C   0  0  2  0  0  0  0  0  0  0  0  0
    7.6695  -12.0892   25.6716 C   0  0  0  0  0  0  0  0  0  0  0  0
    6.3891  -14.2331   25.5073 C   0  0  2  0  0  0  0  0  0  0  0  0
    5.8685  -15.3136   26.3895 N   0  0  0  0  0  0  0  0  0  0  0  0
    7.2370  -14.8829   24.5258 C   0  0  0  0  0  0  0  0  0  0  0  0
    7.6966  -16.0613   24.7650 O   0  0  0  0  0  0  0  0  0  0  0  0
    7.2495  -14.4272   17.1949 N   0  0  0  0  0  0  0  0  0  0  0  0
    8.6184  -14.2121   17.4678 C   0  0  0  0  0  0  0  0  0  0  0  0
    9.5743  -14.7607   16.8026 N   0  0  0  0  0  0  0  0  0  0  0  0
    8.9443  -13.3275   18.5534 N   0  0  0  0  0  0  0  0  0  0  0  0
    7.9031  -12.7413   19.3783 C   0  0  0  0  0  0  0  0  0  0  0  0
    7.5142  -13.7499   20.4274 C   0  0  0  0  0  0  0  0  0  0  0  0
    8.7116  -14.2524   21.1235 C   0  0  0  0  0  0  0  0  0  0  0  0
    8.4768  -15.1079   22.3415 C   0  0  2  0  0  0  0  0  0  0  0  0
    7.6533  -14.3729   23.2584 N   0  0  0  0  0  0  0  0  0  0  0  0
    9.7663  -15.5752   22.8791 C   0  0  0  0  0  0  0  0  0  0  0  0
   10.4047  -14.7980   23.6728 O   0  0  0  0  0  0  0  0  0  0  0  0
   10.5625  -14.5529   17.1012 C   0  0  0  0  0  0  0  0  0  0  0  0
   12.7404  -19.1723   24.3042 C   0  0  2  0  0  0  0  0  0  0  0  0
   11.4659  -18.6975   23.6377 O   0  0  0  0  0  0  0  0  0  0  0  0
   10.4315  -18.9001   24.5423 C   0  0  1  0  0  0  0  0  0  0  0  0
   11.6299  -17.2182   23.3072 N   0  0  0  0  0  0  0  0  0  0  0  0
   10.3962  -16.8091   22.6154 C   0  0  0  0  0  0  0  0  0  0  0  0
   12.8169  -16.9608   22.4941 O   0  0  0  0  0  0  0  0  0  0  0  0
   12.8211  -16.9337   21.2368 O   0  0  0  0  0  0  0  0  0  0  0  0
  1  2  1  0
  2  3  1  0
  3  5  1  0
  3  4  1  6
  5  6  1  1
  7  8  2  0
  7  5  1  0
  9 10  1  0
 10 12  1  0
 11 10  2  0
 12 13  1  0
 13 14  1  0
 14 15  1  0
 16 15  1  6
 16 17  1  0
 17  7  1  0
 18 16  1  0
 19 18  2  0
 21 20  1  6
 21 22  1  0
 23 21  1  0
 23 24  1  6
 24 18  1  0
 25 27  1  0
 25 23  1  0
 26 25  2  0
M  END
$$$$
