IRT.pdb
     RDKit          3D

 27 26  0  0  1  0  0  0  0  0999 V2000
    6.8904  -11.9837   28.6775 C   0  0  0  0  0  0  0  0  0  0  0  0
    5.9790  -12.9795   27.9312 C   0  0  0  0  0  0  0  0  0  0  0  0
    6.7886  -13.5176   26.8131 C   0  0  2  0  0  0  0  0  0  0  0  0
    7.3416  -12.3089   26.0457 C   0  0  0  0  0  0  0  0  0  0  0  0
    6.1621  -14.5122   25.9148 C   0  0  2  0  0  0  0  0  0  0  0  0
    5.8249  -15.6684   26.7900 N   0  0  0  0  0  0  0  0  0  0  0  0
    6.9416  -15.0485   24.8151 C   0  0  0  0  0  0  0  0  0  0  0  0
    7.5821  -16.1542   24.9712 O   0  0  0  0  0  0  0  0  0  0  0  0
   11.4529  -13.8926   17.3202 N   0  0  0  0  0  0  0  0  0  0  0  0
   10.0907  -14.2464   17.4377 C   0  0  0  0  0  0  0  0  0  0  0  0
    9.5486  -15.2235   16.7983 N   0  0  0  0  0  0  0  0  0  0  0  0
    9.2784  -13.4603   18.3262 N   0  0  0  0  0  0  0  0  0  0  0  0
    8.0022  -13.9571   18.8086 C   0  0  0  0  0  0  0  0  0  0  0  0
    8.2678  -14.8768   19.9717 C   0  0  0  0  0  0  0  0  0  0  0  0
    7.7320  -14.2970   21.2157 C   0  0  0  0  0  0  0  0  0  0  0  0
    7.8172  -15.1534   22.4527 C   0  0  2  0  0  0  0  0  0  0  0  0
    7.1041  -14.4941   23.5090 N   0  0  0  0  0  0  0  0  0  0  0  0
    9.2256  -15.4752   22.7406 C   0  0  0  0  0  0  0  0  0  0  0  0
    9.9157  -14.6205   23.4002 O   0  0  0  0  0  0  0  0  0  0  0  0
    8.5649  -15.4949   17.0584 C   0  0  0  0  0  0  0  0  0  0  0  0
   12.5405  -18.6930   24.0579 C   0  0  2  0  0  0  0  0  0  0  0  0
   11.1565  -18.2987   23.5856 O   0  0  0  0  0  0  0  0  0  0  0  0
   10.3483  -18.2155   24.7123 C   0  0  1  0  0  0  0  0  0  0  0  0
   11.2650  -16.9506   22.8819 N   0  0  0  0  0  0  0  0  0  0  0  0
    9.9208  -16.6435   22.3655 C   0  0  0  0  0  0  0  0  0  0  0  0
   12.2649  -16.9613   21.8158 O   0  0  0  0  0  0  0  0  0  0  0  0
   12.1127  -17.5383   20.7088 O   0  0  0  0  0  0  0  0  0  0  0  0
  1  2  1  0
  2  3  1  0
  3  5  1  0
  3  4  1  6
  5  6  1  1
  7  8  2  0
  7  5  1  0
  9 10  1  0
 10 12  1  0
 11 10  2  0
 12 13  1  0
 13 14  1  0
 14 15  1  0
 16 15  1  6
 16 17  1  0
 17  7  1  0
 18 16  1  0
 19 18  2  0
 21 20  1  6
 21 22  1  0
 23 21  1  0
 23 24  1  6
 24 18  1  0
 25 27  1  0
 25 23  1  0
 26 25  2  0
M  END
$$$$
