IRT.pdb
     RDKit          3D

 27 26  0  0  1  0  0  0  0  0999 V2000
    7.1005  -11.7520   28.2513 C   0  0  0  0  0  0  0  0  0  0  0  0
    6.4680  -13.1383   28.0119 C   0  0  0  0  0  0  0  0  0  0  0  0
    6.8856  -13.5502   26.6514 C   0  0  2  0  0  0  0  0  0  0  0  0
    6.4941  -12.4082   25.7038 C   0  0  0  0  0  0  0  0  0  0  0  0
    6.4367  -14.8693   26.1542 C   0  0  2  0  0  0  0  0  0  0  0  0
    6.7264  -15.8213   27.2615 N   0  0  0  0  0  0  0  0  0  0  0  0
    7.0668  -15.4201   24.9692 C   0  0  0  0  0  0  0  0  0  0  0  0
    7.7500  -16.5073   25.0609 O   0  0  0  0  0  0  0  0  0  0  0  0
    9.7252  -14.5886   17.9062 N   0  0  0  0  0  0  0  0  0  0  0  0
    9.0669  -13.3679   18.1728 C   0  0  0  0  0  0  0  0  0  0  0  0
    9.6251  -12.2141   18.0528 N   0  0  0  0  0  0  0  0  0  0  0  0
    7.6963  -13.4366   18.6015 N   0  0  0  0  0  0  0  0  0  0  0  0
    7.0456  -14.7156   18.8231 C   0  0  0  0  0  0  0  0  0  0  0  0
    7.7211  -15.3881   19.9896 C   0  0  0  0  0  0  0  0  0  0  0  0
    7.1987  -14.8559   21.2602 C   0  0  0  0  0  0  0  0  0  0  0  0
    7.6574  -15.5426   22.5207 C   0  0  2  0  0  0  0  0  0  0  0  0
    7.0303  -14.8995   23.6398 N   0  0  0  0  0  0  0  0  0  0  0  0
    9.1294  -15.5884   22.5565 C   0  0  0  0  0  0  0  0  0  0  0  0
    9.7513  -14.5798   23.0439 O   0  0  0  0  0  0  0  0  0  0  0  0
    9.0365  -11.3618   18.2426 C   0  0  0  0  0  0  0  0  0  0  0  0
   13.2354  -18.0864   23.1423 C   0  0  2  0  0  0  0  0  0  0  0  0
   11.7369  -18.0149   22.9346 O   0  0  0  0  0  0  0  0  0  0  0  0
   11.1431  -18.1841   24.1789 C   0  0  1  0  0  0  0  0  0  0  0  0
   11.4075  -16.6476   22.3459 N   0  0  0  0  0  0  0  0  0  0  0  0
    9.9548  -16.6392   22.1055 C   0  0  0  0  0  0  0  0  0  0  0  0
   12.1600  -16.3756   21.1228 O   0  0  0  0  0  0  0  0  0  0  0  0
   11.7976  -16.7367   19.9739 O   0  0  0  0  0  0  0  0  0  0  0  0
  1  2  1  0
  2  3  1  0
  3  5  1  0
  3  4  1  6
  5  6  1  1
  7  8  2  0
  7  5  1  0
  9 10  1  0
 10 12  1  0
 11 10  2  0
 12 13  1  0
 13 14  1  0
 14 15  1  0
 16 15  1  6
 16 17  1  0
 17  7  1  0
 18 16  1  0
 19 18  2  0
 21 20  1  6
 21 22  1  0
 23 21  1  0
 23 24  1  6
 24 18  1  0
 25 27  1  0
 25 23  1  0
 26 25  2  0
M  END
$$$$
