IRT.pdb
     RDKit          3D

 27 26  0  0  1  0  0  0  0  0999 V2000
    7.4432  -10.5906   26.7133 C   0  0  0  0  0  0  0  0  0  0  0  0
    6.9785  -11.8861   27.4097 C   0  0  0  0  0  0  0  0  0  0  0  0
    6.5878  -12.8171   26.3254 C   0  0  2  0  0  0  0  0  0  0  0  0
    5.0633  -12.9752   26.4060 C   0  0  0  0  0  0  0  0  0  0  0  0
    7.2823  -14.1207   26.2424 C   0  0  2  0  0  0  0  0  0  0  0  0
    8.6525  -13.8653   26.7658 N   0  0  0  0  0  0  0  0  0  0  0  0
    7.4529  -14.7392   24.9413 C   0  0  0  0  0  0  0  0  0  0  0  0
    6.8172  -15.8243   24.6661 O   0  0  0  0  0  0  0  0  0  0  0  0
    8.9474  -15.3557   17.3416 N   0  0  0  0  0  0  0  0  0  0  0  0
    8.3453  -14.1150   17.0372 C   0  0  0  0  0  0  0  0  0  0  0  0
    8.3370  -13.5947   15.8596 N   0  0  0  0  0  0  0  0  0  0  0  0
    7.7105  -13.4067   18.1154 N   0  0  0  0  0  0  0  0  0  0  0  0
    7.2919  -14.0995   19.3208 C   0  0  0  0  0  0  0  0  0  0  0  0
    8.5235  -14.4248   20.1248 C   0  0  0  0  0  0  0  0  0  0  0  0
    8.3809  -13.9271   21.5042 C   0  0  0  0  0  0  0  0  0  0  0  0
    8.3575  -14.9632   22.5981 C   0  0  2  0  0  0  0  0  0  0  0  0
    8.2689  -14.2863   23.8602 N   0  0  0  0  0  0  0  0  0  0  0  0
    9.5037  -15.8760   22.4452 C   0  0  0  0  0  0  0  0  0  0  0  0
   10.6322  -15.5117   22.9304 O   0  0  0  0  0  0  0  0  0  0  0  0
    7.8090  -12.6936   15.7247 C   0  0  0  0  0  0  0  0  0  0  0  0
   11.4407  -20.3010   21.4114 C   0  0  1  0  0  0  0  0  0  0  0  0
   10.2245  -19.4088   21.5479 O   0  0  0  0  0  0  0  0  0  0  0  0
    9.5086  -19.8592   22.6497 C   0  0  1  0  0  0  0  0  0  0  0  0
   10.7102  -17.9780   21.7510 N   0  0  0  0  0  0  0  0  0  0  0  0
    9.5039  -17.1357   21.8112 C   0  0  0  0  0  0  0  0  0  0  0  0
   11.6193  -17.5462   20.6911 O   0  0  0  0  0  0  0  0  0  0  0  0
   12.8526  -17.3581   20.8497 O   0  0  0  0  0  0  0  0  0  0  0  0
  1  2  1  0
  2  3  1  0
  3  5  1  0
  3  4  1  1
  5  6  1  6
  7  8  2  0
  7  5  1  0
  9 10  1  0
 10 12  1  0
 11 10  2  0
 12 13  1  0
 13 14  1  0
 14 15  1  0
 16 15  1  6
 16 17  1  0
 17  7  1  0
 18 16  1  0
 19 18  2  0
 21 20  1  6
 21 22  1  0
 23 21  1  0
 23 24  1  6
 24 18  1  0
 25 27  1  0
 25 23  1  0
 26 25  2  0
M  END
$$$$
