SYS.pdb
     RDKit          3D

 25 25  0  0  1  0  0  0  0  0999 V2000
   17.1092  -10.8198  -19.1725 O   0  0  0  0  0  0  0  0  0  0  0  0
   17.6907  -10.1962  -18.0692 C   0  0  0  0  0  0  0  0  0  0  0  0
   18.8293  -11.0822  -17.6161 C   0  0  2  0  0  0  0  0  0  0  0  0
   18.4019  -12.3848  -17.1856 N   0  0  0  0  0  0  0  0  0  0  0  0
   19.6018  -10.4028  -16.5058 C   0  0  0  0  0  0  0  0  0  0  0  0
   19.2460  -10.5351  -15.3120 O   0  0  0  0  0  0  0  0  0  0  0  0
   24.0421  -14.8845  -15.2429 O   0  0  0  0  0  0  0  0  0  0  0  0
   23.7842  -13.5146  -15.4408 C   0  0  0  0  0  0  0  0  0  0  0  0
   23.7443  -12.6477  -14.3696 C   0  0  0  0  0  0  0  0  0  0  0  0
   23.4898  -11.2975  -14.5697 C   0  0  0  0  0  0  0  0  0  0  0  0
   23.2696  -10.7712  -15.8216 C   0  0  0  0  0  0  0  0  0  0  0  0
   22.9889   -9.3354  -16.0006 C   0  0  0  0  0  0  0  0  0  0  0  0
   21.5559   -8.9449  -15.8159 C   0  0  2  0  0  0  0  0  0  0  0  0
   20.7377   -9.6079  -16.8003 N   0  0  0  0  0  0  0  0  0  0  0  0
   21.3666   -7.4737  -15.7948 C   0  0  0  0  0  0  0  0  0  0  0  0
   21.4811   -6.7573  -16.8158 O   0  0  0  0  0  0  0  0  0  0  0  0
   23.3097  -11.6392  -16.8893 C   0  0  0  0  0  0  0  0  0  0  0  0
   23.5655  -12.9993  -16.6947 C   0  0  0  0  0  0  0  0  0  0  0  0
   19.3280   -3.5949  -14.0520 O   0  0  0  0  0  0  0  0  0  0  0  0
   19.5697   -4.9541  -13.8308 C   0  0  0  0  0  0  0  0  0  0  0  0
   20.8110   -5.3496  -14.5971 C   0  0  2  0  0  0  0  0  0  0  0  0
   21.0375   -6.7671  -14.5897 N   0  0  0  0  0  0  0  0  0  0  0  0
   21.9647   -4.5948  -14.0253 C   0  0  0  0  0  0  0  0  0  0  0  0
   21.9915   -3.3547  -14.2354 O   0  0  0  0  0  0  0  0  0  0  0  0
   22.9735   -5.1990  -13.2944 O   0  0  0  0  0  0  0  0  0  0  0  0
  1  2  1  0
  2  3  1  0
  3  4  1  1
  5  6  2  0
  5  3  1  0
  7  8  1  0
  8  9  2  0
  8 18  1  0
  9 10  1  0
 10 11  2  0
 11 12  1  0
 13 12  1  6
 13 15  1  0
 13 14  1  0
 14  5  1  0
 15 16  2  0
 17 11  1  0
 18 17  2  0
 20 19  1  0
 21 20  1  1
 22 15  1  0
 22 21  1  0
 23 25  1  0
 23 21  1  0
 24 23  2  0
M  END
$$$$
