SYS.pdb
     RDKit          3D

 25 25  0  0  1  0  0  0  0  0999 V2000
   16.6495   -9.9374  -17.3616 O   0  0  0  0  0  0  0  0  0  0  0  0
   17.6124   -9.4302  -16.4899 C   0  0  0  0  0  0  0  0  0  0  0  0
   18.7195  -10.4576  -16.4158 C   0  0  2  0  0  0  0  0  0  0  0  0
   18.3156  -11.6874  -15.7919 N   0  0  0  0  0  0  0  0  0  0  0  0
   19.9124   -9.8794  -15.6852 C   0  0  0  0  0  0  0  0  0  0  0  0
   20.0124   -9.9954  -14.4418 O   0  0  0  0  0  0  0  0  0  0  0  0
   23.5879  -14.8963  -15.5368 O   0  0  0  0  0  0  0  0  0  0  0  0
   23.5247  -13.5054  -15.7463 C   0  0  0  0  0  0  0  0  0  0  0  0
   23.9126  -12.6297  -14.7546 C   0  0  0  0  0  0  0  0  0  0  0  0
   23.8488  -11.2589  -14.9659 C   0  0  0  0  0  0  0  0  0  0  0  0
   23.4043  -10.7203  -16.1511 C   0  0  0  0  0  0  0  0  0  0  0  0
   23.3356   -9.2601  -16.3406 C   0  0  0  0  0  0  0  0  0  0  0  0
   22.1028   -8.6105  -15.7947 C   0  0  2  0  0  0  0  0  0  0  0  0
   20.9325   -9.1992  -16.3962 N   0  0  0  0  0  0  0  0  0  0  0  0
   22.1395   -7.1323  -15.9145 C   0  0  0  0  0  0  0  0  0  0  0  0
   22.0991   -6.5368  -17.0157 O   0  0  0  0  0  0  0  0  0  0  0  0
   23.0173  -11.5970  -17.1393 C   0  0  0  0  0  0  0  0  0  0  0  0
   23.0793  -12.9780  -16.9332 C   0  0  0  0  0  0  0  0  0  0  0  0
   20.2645   -3.2569  -15.3398 O   0  0  0  0  0  0  0  0  0  0  0  0
   20.4993   -4.6353  -15.3433 C   0  0  0  0  0  0  0  0  0  0  0  0
   21.9062   -4.8816  -14.8490 C   0  0  2  0  0  0  0  0  0  0  0  0
   22.2260   -6.2785  -14.7641 N   0  0  0  0  0  0  0  0  0  0  0  0
   22.0599   -4.1906  -13.5350 C   0  0  0  0  0  0  0  0  0  0  0  0
   21.8777   -4.8868  -12.5032 O   0  0  0  0  0  0  0  0  0  0  0  0
   22.3865   -2.8499  -13.4215 O   0  0  0  0  0  0  0  0  0  0  0  0
  1  2  1  0
  2  3  1  0
  3  4  1  1
  5  6  2  0
  5  3  1  0
  7  8  1  0
  8  9  2  0
  8 18  1  0
  9 10  1  0
 10 11  2  0
 11 12  1  0
 13 12  1  6
 13 15  1  0
 13 14  1  0
 14  5  1  0
 15 16  2  0
 17 11  1  0
 18 17  2  0
 20 19  1  0
 21 20  1  1
 22 15  1  0
 22 21  1  0
 23 25  1  0
 23 21  1  0
 24 23  2  0
M  END
$$$$
