SYS.pdb
     RDKit          3D

 25 25  0  0  1  0  0  0  0  0999 V2000
   20.1139   -9.0903  -18.6892 O   0  0  0  0  0  0  0  0  0  0  0  0
   19.6945   -7.9721  -17.9694 C   0  0  0  0  0  0  0  0  0  0  0  0
   20.2366   -8.1271  -16.5662 C   0  0  2  0  0  0  0  0  0  0  0  0
   19.5973   -9.1758  -15.8203 N   0  0  0  0  0  0  0  0  0  0  0  0
   20.1139   -6.8172  -15.8178 C   0  0  0  0  0  0  0  0  0  0  0  0
   18.9978   -6.4223  -15.4084 O   0  0  0  0  0  0  0  0  0  0  0  0
   18.9243   -6.9483   -9.3598 O   0  0  0  0  0  0  0  0  0  0  0  0
   19.6812   -6.4112  -10.4187 C   0  0  0  0  0  0  0  0  0  0  0  0
   19.3790   -5.1695  -10.9359 C   0  0  0  0  0  0  0  0  0  0  0  0
   20.1283   -4.6438  -11.9798 C   0  0  0  0  0  0  0  0  0  0  0  0
   21.1868   -5.3236  -12.5366 C   0  0  0  0  0  0  0  0  0  0  0  0
   21.9553   -4.7446  -13.6532 C   0  0  0  0  0  0  0  0  0  0  0  0
   21.2346   -4.7110  -14.9645 C   0  0  2  0  0  0  0  0  0  0  0  0
   21.2587   -6.0192  -15.5695 N   0  0  0  0  0  0  0  0  0  0  0  0
   21.7395   -3.6435  -15.8625 C   0  0  0  0  0  0  0  0  0  0  0  0
   22.8821   -3.6680  -16.3748 O   0  0  0  0  0  0  0  0  0  0  0  0
   21.4861   -6.5634  -12.0185 C   0  0  0  0  0  0  0  0  0  0  0  0
   20.7359   -7.0981  -10.9675 C   0  0  0  0  0  0  0  0  0  0  0  0
   21.0909   -0.4939  -19.2489 O   0  0  0  0  0  0  0  0  0  0  0  0
   20.5160   -1.4075  -18.3601 C   0  0  0  0  0  0  0  0  0  0  0  0
   21.4117   -1.5235  -17.1483 C   0  0  2  0  0  0  0  0  0  0  0  0
   20.9433   -2.4997  -16.2057 N   0  0  0  0  0  0  0  0  0  0  0  0
   21.5355   -0.1678  -16.5361 C   0  0  0  0  0  0  0  0  0  0  0  0
   20.6389    0.1708  -15.7213 O   0  0  0  0  0  0  0  0  0  0  0  0
   22.5740    0.6999  -16.8288 O   0  0  0  0  0  0  0  0  0  0  0  0
  1  2  1  0
  2  3  1  0
  3  4  1  1
  5  6  2  0
  5  3  1  0
  7  8  1  0
  8  9  2  0
  8 18  1  0
  9 10  1  0
 10 11  2  0
 11 12  1  0
 13 12  1  1
 13 15  1  0
 13 14  1  0
 14  5  1  0
 15 16  2  0
 17 11  1  0
 18 17  2  0
 20 19  1  0
 21 20  1  6
 22 15  1  0
 22 21  1  0
 23 25  1  0
 23 21  1  0
 24 23  2  0
M  END
$$$$
