SYS.pdb
     RDKit          3D

 25 25  0  0  1  0  0  0  0  0999 V2000
   19.1420  -10.8512  -17.3715 O   0  0  0  0  0  0  0  0  0  0  0  0
   20.1070  -10.8827  -18.3776 C   0  0  0  0  0  0  0  0  0  0  0  0
   21.3244  -11.5640  -17.7943 C   0  0  2  0  0  0  0  0  0  0  0  0
   21.0306  -12.8297  -17.1806 N   0  0  0  0  0  0  0  0  0  0  0  0
   21.9960  -10.6511  -16.7911 C   0  0  0  0  0  0  0  0  0  0  0  0
   21.9061  -10.8821  -15.5631 O   0  0  0  0  0  0  0  0  0  0  0  0
   28.1287  -12.8971  -16.4730 O   0  0  0  0  0  0  0  0  0  0  0  0
   27.2951  -11.7638  -16.5288 C   0  0  0  0  0  0  0  0  0  0  0  0
   26.6314  -11.4394  -17.6927 C   0  0  0  0  0  0  0  0  0  0  0  0
   25.8103  -10.3209  -17.7429 C   0  0  0  0  0  0  0  0  0  0  0  0
   25.6239   -9.4995  -16.6551 C   0  0  0  0  0  0  0  0  0  0  0  0
   24.7560   -8.3115  -16.7434 C   0  0  0  0  0  0  0  0  0  0  0  0
   23.3297   -8.5419  -16.3524 C   0  0  2  0  0  0  0  0  0  0  0  0
   22.7355   -9.5228  -17.2257 N   0  0  0  0  0  0  0  0  0  0  0  0
   22.5515   -7.2813  -16.2756 C   0  0  0  0  0  0  0  0  0  0  0  0
   22.1299   -6.6780  -17.2890 O   0  0  0  0  0  0  0  0  0  0  0  0
   26.2882   -9.8256  -15.4944 C   0  0  0  0  0  0  0  0  0  0  0  0
   27.1160  -10.9503  -15.4372 C   0  0  0  0  0  0  0  0  0  0  0  0
   19.2275   -4.6991  -14.3511 O   0  0  0  0  0  0  0  0  0  0  0  0
   19.9899   -5.8698  -14.4064 C   0  0  0  0  0  0  0  0  0  0  0  0
   21.3550   -5.5254  -14.9562 C   0  0  2  0  0  0  0  0  0  0  0  0
   22.2282   -6.6630  -15.0213 N   0  0  0  0  0  0  0  0  0  0  0  0
   21.9249   -4.4287  -14.1194 C   0  0  0  0  0  0  0  0  0  0  0  0
   22.8109   -4.7522  -13.2869 O   0  0  0  0  0  0  0  0  0  0  0  0
   21.5207   -3.1090  -14.2284 O   0  0  0  0  0  0  0  0  0  0  0  0
  1  2  1  0
  2  3  1  0
  3  4  1  1
  5  6  2  0
  5  3  1  0
  7  8  1  0
  8  9  2  0
  8 18  1  0
  9 10  1  0
 10 11  2  0
 11 12  1  0
 13 12  1  6
 13 15  1  0
 13 14  1  0
 14  5  1  0
 15 16  2  0
 17 11  1  0
 18 17  2  0
 20 19  1  0
 21 20  1  1
 22 15  1  0
 22 21  1  0
 23 25  1  0
 23 21  1  0
 24 23  2  0
M  END
$$$$
