SYS.pdb
     RDKit          3D

 25 25  0  0  1  0  0  0  0  0999 V2000
   27.0570  -19.0875   14.9316 O   0  0  0  0  0  0  0  0  0  0  0  0
   27.8026  -18.2141   14.1404 C   0  0  0  0  0  0  0  0  0  0  0  0
   27.2832  -18.3533   12.7271 C   0  0  2  0  0  0  0  0  0  0  0  0
   25.8611  -18.5476   12.6585 N   0  0  0  0  0  0  0  0  0  0  0  0
   27.9910  -19.4933   12.0268 C   0  0  0  0  0  0  0  0  0  0  0  0
   27.4972  -20.6445   12.0300 O   0  0  0  0  0  0  0  0  0  0  0  0
   34.3333  -23.3761    7.0076 O   0  0  0  0  0  0  0  0  0  0  0  0
   33.4995  -22.4665    7.6857 C   0  0  0  0  0  0  0  0  0  0  0  0
   32.1790  -22.3192    7.3183 C   0  0  0  0  0  0  0  0  0  0  0  0
   31.3605  -21.4211    7.9901 C   0  0  0  0  0  0  0  0  0  0  0  0
   31.8195  -20.6509    9.0335 C   0  0  0  0  0  0  0  0  0  0  0  0
   30.9294  -19.6965    9.7187 C   0  0  0  0  0  0  0  0  0  0  0  0
   30.0124  -20.3055   10.7328 C   0  0  2  0  0  0  0  0  0  0  0  0
   29.2215  -19.2752   11.3581 N   0  0  0  0  0  0  0  0  0  0  0  0
   30.7322  -21.1611   11.7076 C   0  0  0  0  0  0  0  0  0  0  0  0
   31.3988  -20.6960   12.6606 O   0  0  0  0  0  0  0  0  0  0  0  0
   33.1385  -20.7997    9.3980 C   0  0  0  0  0  0  0  0  0  0  0  0
   33.9676  -21.7021    8.7260 C   0  0  0  0  0  0  0  0  0  0  0  0
   29.8309  -23.7991   14.1386 O   0  0  0  0  0  0  0  0  0  0  0  0
   30.6697  -24.4474   13.2270 C   0  0  0  0  0  0  0  0  0  0  0  0
   31.4955  -23.4032   12.5114 C   0  0  2  0  0  0  0  0  0  0  0  0
   30.7127  -22.5936   11.6211 N   0  0  0  0  0  0  0  0  0  0  0  0
   32.6070  -24.1023   11.8020 C   0  0  0  0  0  0  0  0  0  0  0  0
   32.3029  -25.1326   11.1472 O   0  0  0  0  0  0  0  0  0  0  0  0
   33.9201  -23.6651   11.8416 O   0  0  0  0  0  0  0  0  0  0  0  0
  1  2  1  0
  2  3  1  0
  3  4  1  1
  5  6  2  0
  5  3  1  0
  7  8  1  0
  8  9  2  0
  8 18  1  0
  9 10  1  0
 10 11  2  0
 11 12  1  0
 13 12  1  6
 13 15  1  0
 13 14  1  0
 14  5  1  0
 15 16  2  0
 17 11  1  0
 18 17  2  0
 20 19  1  0
 21 20  1  6
 22 15  1  0
 22 21  1  0
 23 25  1  0
 23 21  1  0
 24 23  2  0
M  END
$$$$
