SYS.pdb
     RDKit          3D

 25 25  0  0  1  0  0  0  0  0999 V2000
   18.3731  -13.4739  -14.9574 O   0  0  0  0  0  0  0  0  0  0  0  0
   19.0920  -12.2793  -14.9368 C   0  0  0  0  0  0  0  0  0  0  0  0
   19.9706  -12.2766  -16.1675 C   0  0  2  0  0  0  0  0  0  0  0  0
   20.9898  -13.2892  -16.1429 N   0  0  0  0  0  0  0  0  0  0  0  0
   20.6053  -10.9142  -16.3459 C   0  0  0  0  0  0  0  0  0  0  0  0
   21.7298  -10.6683  -15.8517 O   0  0  0  0  0  0  0  0  0  0  0  0
   21.7824   -2.8583  -20.0395 O   0  0  0  0  0  0  0  0  0  0  0  0
   21.3118   -4.1358  -19.6805 C   0  0  0  0  0  0  0  0  0  0  0  0
   20.0704   -4.2871  -19.1003 C   0  0  0  0  0  0  0  0  0  0  0  0
   19.6105   -5.5489  -18.7481 C   0  0  0  0  0  0  0  0  0  0  0  0
   20.3569   -6.6855  -18.9572 C   0  0  0  0  0  0  0  0  0  0  0  0
   19.8466   -8.0101  -18.5604 C   0  0  0  0  0  0  0  0  0  0  0  0
   20.4675   -8.5808  -17.3239 C   0  0  2  0  0  0  0  0  0  0  0  0
   19.9374   -9.8978  -17.0737 N   0  0  0  0  0  0  0  0  0  0  0  0
   20.3478   -7.6722  -16.1574 C   0  0  0  0  0  0  0  0  0  0  0  0
   19.3332   -7.6352  -15.4239 O   0  0  0  0  0  0  0  0  0  0  0  0
   21.5962   -6.5313  -19.5364 C   0  0  0  0  0  0  0  0  0  0  0  0
   22.0650   -5.2640  -19.8934 C   0  0  0  0  0  0  0  0  0  0  0  0
   22.0993   -5.3464  -12.5034 O   0  0  0  0  0  0  0  0  0  0  0  0
   22.3496   -6.1627  -13.6107 C   0  0  0  0  0  0  0  0  0  0  0  0
   21.2744   -5.9110  -14.6426 C   0  0  2  0  0  0  0  0  0  0  0  0
   21.3977   -6.7655  -15.7895 N   0  0  0  0  0  0  0  0  0  0  0  0
   21.3212   -4.4658  -15.0129 C   0  0  0  0  0  0  0  0  0  0  0  0
   22.1447   -4.1350  -15.9045 O   0  0  0  0  0  0  0  0  0  0  0  0
   20.5117   -3.5096  -14.4234 O   0  0  0  0  0  0  0  0  0  0  0  0
  1  2  1  0
  2  3  1  0
  3  4  1  1
  5  6  2  0
  5  3  1  0
  7  8  1  0
  8  9  2  0
  8 18  1  0
  9 10  1  0
 10 11  2  0
 11 12  1  0
 13 12  1  6
 13 15  1  0
 13 14  1  0
 14  5  1  0
 15 16  2  0
 17 11  1  0
 18 17  2  0
 20 19  1  0
 21 20  1  1
 22 15  1  0
 22 21  1  0
 23 25  1  0
 23 21  1  0
 24 23  2  0
M  END
$$$$
