SYS.pdb
     RDKit          3D

 25 25  0  0  1  0  0  0  0  0999 V2000
   21.8140  -27.1238  -13.0234 O   0  0  0  0  0  0  0  0  0  0  0  0
   20.6332  -27.3854  -13.7174 C   0  0  0  0  0  0  0  0  0  0  0  0
   20.0046  -26.0463  -14.0308 C   0  0  2  0  0  0  0  0  0  0  0  0
   20.8762  -25.1623  -14.7546 N   0  0  0  0  0  0  0  0  0  0  0  0
   19.5449  -25.3798  -12.7519 C   0  0  0  0  0  0  0  0  0  0  0  0
   20.1982  -24.4304  -12.2607 O   0  0  0  0  0  0  0  0  0  0  0  0
   15.7311  -20.2262  -14.5834 O   0  0  0  0  0  0  0  0  0  0  0  0
   15.8907  -21.3490  -13.7489 C   0  0  0  0  0  0  0  0  0  0  0  0
   16.0459  -22.6073  -14.2904 C   0  0  0  0  0  0  0  0  0  0  0  0
   16.2031  -23.7116  -13.4636 C   0  0  0  0  0  0  0  0  0  0  0  0
   16.2113  -23.6046  -12.0921 C   0  0  0  0  0  0  0  0  0  0  0  0
   16.3671  -24.7975  -11.2405 C   0  0  0  0  0  0  0  0  0  0  0  0
   17.7832  -25.1788  -10.9419 C   0  0  2  0  0  0  0  0  0  0  0  0
   18.3701  -25.8195  -12.0921 N   0  0  0  0  0  0  0  0  0  0  0  0
   17.9051  -25.9823   -9.7008 C   0  0  0  0  0  0  0  0  0  0  0  0
   18.0627  -27.2249   -9.7064 O   0  0  0  0  0  0  0  0  0  0  0  0
   16.0557  -22.3470  -11.5542 C   0  0  0  0  0  0  0  0  0  0  0  0
   15.8972  -21.2313  -12.3809 C   0  0  0  0  0  0  0  0  0  0  0  0
   19.2783  -24.4004   -6.2210 O   0  0  0  0  0  0  0  0  0  0  0  0
   18.2417  -25.3068   -5.9782 C   0  0  0  0  0  0  0  0  0  0  0  0
   18.0559  -26.1616   -7.2108 C   0  0  2  0  0  0  0  0  0  0  0  0
   17.8487  -25.3821   -8.3983 N   0  0  0  0  0  0  0  0  0  0  0  0
   16.9254  -27.1014   -6.9529 C   0  0  0  0  0  0  0  0  0  0  0  0
   15.8051  -26.7857   -7.4303 O   0  0  0  0  0  0  0  0  0  0  0  0
   17.0683  -28.2720   -6.2276 O   0  0  0  0  0  0  0  0  0  0  0  0
  1  2  1  0
  2  3  1  0
  3  4  1  1
  5  6  2  0
  5  3  1  0
  7  8  1  0
  8  9  2  0
  8 18  1  0
  9 10  1  0
 10 11  2  0
 11 12  1  0
 13 12  1  6
 13 15  1  0
 13 14  1  0
 14  5  1  0
 15 16  2  0
 17 11  1  0
 18 17  2  0
 20 19  1  0
 21 20  1  1
 22 15  1  0
 22 21  1  0
 23 25  1  0
 23 21  1  0
 24 23  2  0
M  END
$$$$
