SYS.pdb
     RDKit          3D

 25 25  0  0  1  0  0  0  0  0999 V2000
   18.6075  -11.6621  -15.8091 O   0  0  0  0  0  0  0  0  0  0  0  0
   19.1010  -11.4841  -17.1011 C   0  0  0  0  0  0  0  0  0  0  0  0
   20.5771  -11.8093  -17.0538 C   0  0  2  0  0  0  0  0  0  0  0  0
   20.8864  -12.9362  -16.2175 N   0  0  0  0  0  0  0  0  0  0  0  0
   21.3581  -10.5979  -16.5917 C   0  0  0  0  0  0  0  0  0  0  0  0
   21.6995  -10.4827  -15.3919 O   0  0  0  0  0  0  0  0  0  0  0  0
   26.2174   -3.1281  -17.5239 O   0  0  0  0  0  0  0  0  0  0  0  0
   25.4729   -4.3055  -17.7291 C   0  0  0  0  0  0  0  0  0  0  0  0
   25.9316   -5.5156  -17.2539 C   0  0  0  0  0  0  0  0  0  0  0  0
   25.1940   -6.6740  -17.4584 C   0  0  0  0  0  0  0  0  0  0  0  0
   23.9942   -6.6692  -18.1316 C   0  0  0  0  0  0  0  0  0  0  0  0
   23.2404   -7.9178  -18.3443 C   0  0  0  0  0  0  0  0  0  0  0  0
   22.4412   -8.3806  -17.1665 C   0  0  2  0  0  0  0  0  0  0  0  0
   21.7143   -9.5775  -17.5086 N   0  0  0  0  0  0  0  0  0  0  0  0
   21.5759   -7.3108  -16.6119 C   0  0  0  0  0  0  0  0  0  0  0  0
   20.5677   -6.8710  -17.2109 O   0  0  0  0  0  0  0  0  0  0  0  0
   23.5388   -5.4595  -18.6052 C   0  0  0  0  0  0  0  0  0  0  0  0
   24.2764   -4.2898  -18.4025 C   0  0  0  0  0  0  0  0  0  0  0  0
   19.3265   -7.0404  -14.0204 O   0  0  0  0  0  0  0  0  0  0  0  0
   20.2074   -6.0234  -13.6402 C   0  0  0  0  0  0  0  0  0  0  0  0
   21.0283   -5.6268  -14.8456 C   0  0  2  0  0  0  0  0  0  0  0  0
   21.8410   -6.7022  -15.3394 N   0  0  0  0  0  0  0  0  0  0  0  0
   21.8437   -4.4330  -14.4746 C   0  0  0  0  0  0  0  0  0  0  0  0
   21.2135   -3.4029  -14.1220 O   0  0  0  0  0  0  0  0  0  0  0  0
   23.2279   -4.4256  -14.5060 O   0  0  0  0  0  0  0  0  0  0  0  0
  1  2  1  0
  2  3  1  0
  3  4  1  1
  5  6  2  0
  5  3  1  0
  7  8  1  0
  8  9  2  0
  8 18  1  0
  9 10  1  0
 10 11  2  0
 11 12  1  0
 13 12  1  6
 13 15  1  0
 13 14  1  0
 14  5  1  0
 15 16  2  0
 17 11  1  0
 18 17  2  0
 20 19  1  0
 21 20  1  1
 22 15  1  0
 22 21  1  0
 23 25  1  0
 23 21  1  0
 24 23  2  0
M  END
$$$$
