VDT.pdb
     RDKit          3D

 23 22  0  0  1  0  0  0  0  0999 V2000
    8.1743  -14.5982   17.9319 C   0  0  0  0  0  0  0  0  0  0  0  0
    7.9442  -13.5308   19.0252 C   0  0  2  0  0  0  0  0  0  0  0  0
    7.7712  -12.2178   18.3641 C   0  0  0  0  0  0  0  0  0  0  0  0
    9.1034  -13.6781   19.9631 C   0  0  2  0  0  0  0  0  0  0  0  0
   10.2950  -13.4518   19.0940 N   0  0  0  0  0  0  0  0  0  0  0  0
    9.2299  -14.9437   20.6672 C   0  0  0  0  0  0  0  0  0  0  0  0
    8.2335  -15.3863   21.3003 O   0  0  0  0  0  0  0  0  0  0  0  0
   10.4245  -15.6950   20.6619 N   0  0  0  0  0  0  0  0  0  0  0  0
   10.4886  -16.9958   21.3759 C   0  0  1  0  0  0  0  0  0  0  0  0
   11.7535  -17.6719   20.9351 C   0  0  0  0  0  0  0  0  0  0  0  0
   11.7682  -18.1865   19.5619 C   0  0  0  0  0  0  0  0  0  0  0  0
   12.5796  -17.9666   18.6613 O   0  0  0  0  0  0  0  0  0  0  0  0
   10.5753  -16.6656   22.8223 C   0  0  0  0  0  0  0  0  0  0  0  0
   11.4806  -15.8517   23.1529 O   0  0  0  0  0  0  0  0  0  0  0  0
   10.6918  -19.0536   19.2522 O   0  0  0  0  0  0  0  0  0  0  0  0
    8.4789  -14.6385   25.1052 C   0  0  0  0  0  0  0  0  0  0  0  0
    8.6772  -15.9826   25.7227 C   0  0  1  0  0  0  0  0  0  0  0  0
    7.5171  -16.7499   25.4815 O   0  0  0  0  0  0  0  0  0  0  0  0
    9.8238  -16.7655   25.1961 C   0  0  2  0  0  0  0  0  0  0  0  0
    9.7531  -17.1700   23.8343 N   0  0  0  0  0  0  0  0  0  0  0  0
   10.2125  -17.8469   26.1442 C   0  0  0  0  0  0  0  0  0  0  0  0
   10.6621  -17.5520   27.4191 O   0  0  0  0  0  0  0  0  0  0  0  0
   10.1412  -19.0421   25.8097 O   0  0  0  0  0  0  0  0  0  0  0  0
  2  1  1  6
  2  3  1  0
  4  6  1  0
  4  2  1  0
  4  5  1  6
  6  8  1  0
  7  6  2  0
  8  9  1  0
  9 13  1  0
  9 10  1  6
 11 10  1  0
 11 12  2  0
 13 14  2  0
 13 20  1  0
 15 11  1  0
 17 16  1  6
 18 17  1  0
 19 17  1  0
 19 21  1  0
 19 20  1  6
 21 22  1  0
 23 21  2  0
M  END
$$$$
