VDT.pdb
     RDKit          3D

 23 22  0  0  1  0  0  0  0  0999 V2000
    7.1305  -12.9770   21.4956 C   0  0  0  0  0  0  0  0  0  0  0  0
    8.2237  -13.3205   20.4590 C   0  0  2  0  0  0  0  0  0  0  0  0
    7.9365  -12.5720   19.2148 C   0  0  0  0  0  0  0  0  0  0  0  0
    8.2231  -14.8165   20.3741 C   0  0  2  0  0  0  0  0  0  0  0  0
    6.9470  -15.1321   19.6682 N   0  0  0  0  0  0  0  0  0  0  0  0
    8.2984  -15.5517   21.6260 C   0  0  0  0  0  0  0  0  0  0  0  0
    7.2359  -16.0182   22.1189 O   0  0  0  0  0  0  0  0  0  0  0  0
    9.5174  -15.7660   22.3041 N   0  0  0  0  0  0  0  0  0  0  0  0
    9.5382  -16.5428   23.5698 C   0  0  1  0  0  0  0  0  0  0  0  0
   10.6871  -17.5030   23.4718 C   0  0  0  0  0  0  0  0  0  0  0  0
   10.9882  -18.2781   24.6798 C   0  0  0  0  0  0  0  0  0  0  0  0
   10.2108  -18.7475   25.5124 O   0  0  0  0  0  0  0  0  0  0  0  0
    9.8001  -15.5575   24.6511 C   0  0  0  0  0  0  0  0  0  0  0  0
   10.8428  -14.8589   24.5254 O   0  0  0  0  0  0  0  0  0  0  0  0
   12.3692  -18.5054   24.8981 O   0  0  0  0  0  0  0  0  0  0  0  0
    8.1209  -12.3571   25.7414 C   0  0  0  0  0  0  0  0  0  0  0  0
    8.2659  -13.2665   26.9158 C   0  0  1  0  0  0  0  0  0  0  0  0
    7.0215  -13.8946   27.1385 O   0  0  0  0  0  0  0  0  0  0  0  0
    9.2700  -14.3501   26.7656 C   0  0  2  0  0  0  0  0  0  0  0  0
    9.0034  -15.3395   25.7791 N   0  0  0  0  0  0  0  0  0  0  0  0
    9.6738  -14.8919   28.0932 C   0  0  0  0  0  0  0  0  0  0  0  0
   10.1237  -14.0557   29.0995 O   0  0  0  0  0  0  0  0  0  0  0  0
    9.6151  -16.1116   28.3271 O   0  0  0  0  0  0  0  0  0  0  0  0
  2  1  1  1
  2  3  1  0
  4  6  1  0
  4  2  1  0
  4  5  1  1
  6  8  1  0
  7  6  2  0
  8  9  1  0
  9 13  1  0
  9 10  1  6
 11 10  1  0
 11 12  2  0
 13 14  2  0
 13 20  1  0
 15 11  1  0
 17 16  1  6
 18 17  1  0
 19 17  1  0
 19 21  1  0
 19 20  1  6
 21 22  1  0
 23 21  2  0
M  END
$$$$
