VDT.pdb
     RDKit          3D

 23 22  0  0  1  0  0  0  0  0999 V2000
    7.2270  -13.5284   20.9560 C   0  0  0  0  0  0  0  0  0  0  0  0
    8.3245  -13.3799   19.8785 C   0  0  2  0  0  0  0  0  0  0  0  0
    7.8734  -12.3744   18.8906 C   0  0  0  0  0  0  0  0  0  0  0  0
    8.5689  -14.7708   19.3777 C   0  0  2  0  0  0  0  0  0  0  0  0
    7.2607  -15.1686   18.7804 N   0  0  0  0  0  0  0  0  0  0  0  0
    8.9967  -15.7610   20.3524 C   0  0  0  0  0  0  0  0  0  0  0  0
    8.1305  -16.5230   20.8611 O   0  0  0  0  0  0  0  0  0  0  0  0
   10.3452  -15.9026   20.7435 N   0  0  0  0  0  0  0  0  0  0  0  0
   10.7269  -16.9384   21.7370 C   0  0  1  0  0  0  0  0  0  0  0  0
   12.2137  -17.1132   21.6336 C   0  0  0  0  0  0  0  0  0  0  0  0
   12.8240  -18.0459   22.5865 C   0  0  0  0  0  0  0  0  0  0  0  0
   13.9037  -17.9575   23.1732 O   0  0  0  0  0  0  0  0  0  0  0  0
   10.3804  -16.3767   23.0686 C   0  0  0  0  0  0  0  0  0  0  0  0
   11.0359  -15.3617   23.4309 O   0  0  0  0  0  0  0  0  0  0  0  0
   12.0466  -19.1996   22.8531 O   0  0  0  0  0  0  0  0  0  0  0  0
    7.5874  -14.4227   24.3829 C   0  0  0  0  0  0  0  0  0  0  0  0
    7.7748  -15.5869   25.2975 C   0  0  1  0  0  0  0  0  0  0  0  0
    6.7875  -16.5478   24.9900 O   0  0  0  0  0  0  0  0  0  0  0  0
    9.0866  -16.2754   25.1959 C   0  0  2  0  0  0  0  0  0  0  0  0
    9.4052  -16.8670   23.9422 N   0  0  0  0  0  0  0  0  0  0  0  0
    9.3198  -17.1569   26.3740 C   0  0  0  0  0  0  0  0  0  0  0  0
    9.2114  -16.6689   27.6642 O   0  0  0  0  0  0  0  0  0  0  0  0
    9.6181  -18.3544   26.2234 O   0  0  0  0  0  0  0  0  0  0  0  0
  2  1  1  1
  2  3  1  0
  4  6  1  0
  4  2  1  0
  4  5  1  1
  6  8  1  0
  7  6  2  0
  8  9  1  0
  9 13  1  0
  9 10  1  1
 11 10  1  0
 11 12  2  0
 13 14  2  0
 13 20  1  0
 15 11  1  0
 17 16  1  6
 18 17  1  0
 19 17  1  0
 19 21  1  0
 19 20  1  6
 21 22  1  0
 23 21  2  0
M  END
$$$$
