VDT.pdb
     RDKit          3D

 23 22  0  0  1  0  0  0  0  0999 V2000
    7.2356  -12.7560   19.1338 C   0  0  0  0  0  0  0  0  0  0  0  0
    7.5068  -13.7201   20.3105 C   0  0  2  0  0  0  0  0  0  0  0  0
    8.1383  -12.9507   21.4059 C   0  0  0  0  0  0  0  0  0  0  0  0
    8.2997  -14.8446   19.7174 C   0  0  2  0  0  0  0  0  0  0  0  0
    7.3443  -15.4941   18.7731 N   0  0  0  0  0  0  0  0  0  0  0  0
    8.8430  -15.8304   20.6376 C   0  0  0  0  0  0  0  0  0  0  0  0
    8.0937  -16.7618   21.0384 O   0  0  0  0  0  0  0  0  0  0  0  0
   10.1783  -15.7845   21.0919 N   0  0  0  0  0  0  0  0  0  0  0  0
   10.6652  -16.7874   22.0732 C   0  0  1  0  0  0  0  0  0  0  0  0
   12.1644  -16.7536   22.0220 C   0  0  0  0  0  0  0  0  0  0  0  0
   12.8638  -17.7080   22.8883 C   0  0  0  0  0  0  0  0  0  0  0  0
   12.6344  -17.9993   24.0632 O   0  0  0  0  0  0  0  0  0  0  0  0
   10.1991  -16.3183   23.4042 C   0  0  0  0  0  0  0  0  0  0  0  0
   10.0544  -15.0720   23.5345 O   0  0  0  0  0  0  0  0  0  0  0  0
   13.9483  -18.3742   22.2667 O   0  0  0  0  0  0  0  0  0  0  0  0
    7.8103  -15.0365   24.2405 C   0  0  0  0  0  0  0  0  0  0  0  0
    7.7799  -16.1175   25.2690 C   0  0  1  0  0  0  0  0  0  0  0  0
    6.9661  -17.1625   24.7808 O   0  0  0  0  0  0  0  0  0  0  0  0
    9.0953  -16.7209   25.6017 C   0  0  2  0  0  0  0  0  0  0  0  0
    9.9104  -17.1255   24.5086 N   0  0  0  0  0  0  0  0  0  0  0  0
    8.9586  -17.7373   26.6823 C   0  0  0  0  0  0  0  0  0  0  0  0
    9.4525  -19.0199   26.5235 O   0  0  0  0  0  0  0  0  0  0  0  0
    8.3959  -17.4545   27.7542 O   0  0  0  0  0  0  0  0  0  0  0  0
  2  1  1  6
  2  3  1  0
  4  6  1  0
  4  2  1  0
  4  5  1  6
  6  8  1  0
  7  6  2  0
  8  9  1  0
  9 13  1  0
  9 10  1  1
 11 10  1  0
 11 12  2  0
 13 14  2  0
 13 20  1  0
 15 11  1  0
 17 16  1  6
 18 17  1  0
 19 17  1  0
 19 21  1  0
 19 20  1  6
 21 22  1  0
 23 21  2  0
M  END
$$$$
