VDT.pdb
     RDKit          3D

 23 22  0  0  1  0  0  0  0  0999 V2000
    7.4356  -13.6278   20.4534 C   0  0  0  0  0  0  0  0  0  0  0  0
    8.5975  -13.1596   19.5488 C   0  0  2  0  0  0  0  0  0  0  0  0
    8.0875  -12.1035   18.6459 C   0  0  0  0  0  0  0  0  0  0  0  0
    9.1234  -14.4100   18.9124 C   0  0  2  0  0  0  0  0  0  0  0  0
    7.9659  -14.9201   18.1210 N   0  0  0  0  0  0  0  0  0  0  0  0
    9.6195  -15.4482   19.8009 C   0  0  0  0  0  0  0  0  0  0  0  0
    8.8442  -16.3876   20.1265 O   0  0  0  0  0  0  0  0  0  0  0  0
   10.9374  -15.4443   20.3056 N   0  0  0  0  0  0  0  0  0  0  0  0
   11.3844  -16.5199   21.2271 C   0  0  1  0  0  0  0  0  0  0  0  0
   12.8848  -16.5053   21.2172 C   0  0  0  0  0  0  0  0  0  0  0  0
   13.5478  -17.4544   22.1173 C   0  0  0  0  0  0  0  0  0  0  0  0
   14.5757  -17.3047   22.7796 O   0  0  0  0  0  0  0  0  0  0  0  0
   10.8890  -16.1370   22.5750 C   0  0  0  0  0  0  0  0  0  0  0  0
   11.3058  -15.0358   23.0277 O   0  0  0  0  0  0  0  0  0  0  0  0
   12.8984  -18.7088   22.2235 O   0  0  0  0  0  0  0  0  0  0  0  0
    7.9887  -14.6629   24.0750 C   0  0  0  0  0  0  0  0  0  0  0  0
    8.2391  -15.9324   24.8186 C   0  0  1  0  0  0  0  0  0  0  0  0
    7.3469  -16.9099   24.3274 O   0  0  0  0  0  0  0  0  0  0  0  0
    9.6064  -16.4951   24.6812 C   0  0  2  0  0  0  0  0  0  0  0  0
   10.0138  -16.8790   23.3736 N   0  0  0  0  0  0  0  0  0  0  0  0
    9.8743  -17.5114   25.7370 C   0  0  0  0  0  0  0  0  0  0  0  0
    9.7995  -17.1842   27.0793 O   0  0  0  0  0  0  0  0  0  0  0  0
   10.1718  -18.6799   25.4343 O   0  0  0  0  0  0  0  0  0  0  0  0
  2  1  1  1
  2  3  1  0
  4  6  1  0
  4  2  1  0
  4  5  1  1
  6  8  1  0
  7  6  2  0
  8  9  1  0
  9 13  1  0
  9 10  1  1
 11 10  1  0
 11 12  2  0
 13 14  2  0
 13 20  1  0
 15 11  1  0
 17 16  1  6
 18 17  1  0
 19 17  1  0
 19 21  1  0
 19 20  1  6
 21 22  1  0
 23 21  2  0
M  END
$$$$
