VDT.pdb
     RDKit          3D

 23 22  0  0  1  0  0  0  0  0999 V2000
    7.2184  -13.2094   20.8694 C   0  0  0  0  0  0  0  0  0  0  0  0
    8.4639  -13.3620   19.9678 C   0  0  2  0  0  0  0  0  0  0  0  0
    8.2683  -12.5294   18.7597 C   0  0  0  0  0  0  0  0  0  0  0  0
    8.6188  -14.8384   19.7646 C   0  0  2  0  0  0  0  0  0  0  0  0
    7.4749  -15.1970   18.8762 N   0  0  0  0  0  0  0  0  0  0  0  0
    8.6120  -15.6756   20.9531 C   0  0  0  0  0  0  0  0  0  0  0  0
    7.5417  -16.2580   21.2770 O   0  0  0  0  0  0  0  0  0  0  0  0
    9.7604  -15.8634   21.7516 N   0  0  0  0  0  0  0  0  0  0  0  0
    9.6829  -16.6884   22.9841 C   0  0  1  0  0  0  0  0  0  0  0  0
   10.9271  -17.5262   23.0255 C   0  0  0  0  0  0  0  0  0  0  0  0
   11.1276  -18.3285   24.2365 C   0  0  0  0  0  0  0  0  0  0  0  0
   10.2849  -18.8550   24.9649 O   0  0  0  0  0  0  0  0  0  0  0  0
    9.6869  -15.7298   24.1199 C   0  0  0  0  0  0  0  0  0  0  0  0
   10.6710  -14.9429   24.1790 O   0  0  0  0  0  0  0  0  0  0  0  0
   12.4850  -18.5092   24.5986 O   0  0  0  0  0  0  0  0  0  0  0  0
    7.7157  -12.5768   27.1345 C   0  0  0  0  0  0  0  0  0  0  0  0
    7.5277  -13.8167   26.3254 C   0  0  1  0  0  0  0  0  0  0  0  0
    7.1209  -13.4350   25.0287 O   0  0  0  0  0  0  0  0  0  0  0  0
    8.7367  -14.6631   26.1616 C   0  0  2  0  0  0  0  0  0  0  0  0
    8.7095  -15.6247   25.1139 N   0  0  0  0  0  0  0  0  0  0  0  0
    9.2013  -15.1908   27.4750 C   0  0  0  0  0  0  0  0  0  0  0  0
    9.5110  -14.3372   28.5190 O   0  0  0  0  0  0  0  0  0  0  0  0
    9.3213  -16.4139   27.6627 O   0  0  0  0  0  0  0  0  0  0  0  0
  2  1  1  1
  2  3  1  0
  4  6  1  0
  4  2  1  0
  4  5  1  6
  6  8  1  0
  7  6  2  0
  8  9  1  0
  9 13  1  0
  9 10  1  1
 11 10  1  0
 11 12  2  0
 13 14  2  0
 13 20  1  0
 15 11  1  0
 17 16  1  1
 18 17  1  0
 19 17  1  0
 19 21  1  0
 19 20  1  6
 21 22  1  0
 23 21  2  0
M  END
$$$$
