VDT.pdb
     RDKit          3D

 23 22  0  0  1  0  0  0  0  0999 V2000
    7.1618  -13.2516   20.3314 C   0  0  0  0  0  0  0  0  0  0  0  0
    8.4228  -13.3799   19.4478 C   0  0  2  0  0  0  0  0  0  0  0  0
    8.2200  -12.5677   18.2272 C   0  0  0  0  0  0  0  0  0  0  0  0
    8.6216  -14.8537   19.2648 C   0  0  2  0  0  0  0  0  0  0  0  0
    7.4834  -15.2600   18.3897 N   0  0  0  0  0  0  0  0  0  0  0  0
    8.6482  -15.6733   20.4653 C   0  0  0  0  0  0  0  0  0  0  0  0
    7.5586  -16.1140   20.9215 O   0  0  0  0  0  0  0  0  0  0  0  0
    9.8488  -15.9967   21.1327 N   0  0  0  0  0  0  0  0  0  0  0  0
    9.8219  -16.8801   22.3264 C   0  0  1  0  0  0  0  0  0  0  0  0
   11.1420  -17.5920   22.3704 C   0  0  0  0  0  0  0  0  0  0  0  0
   11.3133  -18.6980   21.4228 C   0  0  0  0  0  0  0  0  0  0  0  0
   10.4673  -19.4768   20.9805 O   0  0  0  0  0  0  0  0  0  0  0  0
    9.7002  -15.9780   23.5012 C   0  0  0  0  0  0  0  0  0  0  0  0
   10.5229  -15.0234   23.5560 O   0  0  0  0  0  0  0  0  0  0  0  0
   12.6428  -18.8757   20.9675 O   0  0  0  0  0  0  0  0  0  0  0  0
    7.3932  -13.3450   26.7716 C   0  0  0  0  0  0  0  0  0  0  0  0
    7.3776  -14.4869   25.8108 C   0  0  1  0  0  0  0  0  0  0  0  0
    7.0071  -13.9870   24.5437 O   0  0  0  0  0  0  0  0  0  0  0  0
    8.6738  -15.1887   25.6303 C   0  0  2  0  0  0  0  0  0  0  0  0
    8.7670  -16.0924   24.5359 N   0  0  0  0  0  0  0  0  0  0  0  0
    9.1728  -15.7302   26.9253 C   0  0  0  0  0  0  0  0  0  0  0  0
    9.3282  -14.9116   28.0298 O   0  0  0  0  0  0  0  0  0  0  0  0
    9.4615  -16.9338   27.0425 O   0  0  0  0  0  0  0  0  0  0  0  0
  2  1  1  1
  2  3  1  0
  4  6  1  0
  4  2  1  0
  4  5  1  6
  6  8  1  0
  7  6  2  0
  8  9  1  0
  9 13  1  0
  9 10  1  1
 11 10  1  0
 11 12  2  0
 13 14  2  0
 13 20  1  0
 15 11  1  0
 17 16  1  1
 18 17  1  0
 19 17  1  0
 19 21  1  0
 19 20  1  6
 21 22  1  0
 23 21  2  0
M  END
$$$$
