VDT.pdb
     RDKit          3D

 23 22  0  0  1  0  0  0  0  0999 V2000
    7.1651  -13.8433   21.0185 C   0  0  0  0  0  0  0  0  0  0  0  0
    8.2858  -13.5537   19.9949 C   0  0  2  0  0  0  0  0  0  0  0  0
    7.7592  -12.6102   18.9833 C   0  0  0  0  0  0  0  0  0  0  0  0
    8.7282  -14.9008   19.5106 C   0  0  2  0  0  0  0  0  0  0  0  0
    7.5307  -15.4331   18.7971 N   0  0  0  0  0  0  0  0  0  0  0  0
    9.1773  -15.8518   20.5144 C   0  0  0  0  0  0  0  0  0  0  0  0
    8.3518  -16.6919   20.9643 O   0  0  0  0  0  0  0  0  0  0  0  0
   10.5032  -15.8710   20.9970 N   0  0  0  0  0  0  0  0  0  0  0  0
   10.9252  -16.9090   21.9718 C   0  0  1  0  0  0  0  0  0  0  0  0
   12.4232  -16.9754   21.9153 C   0  0  0  0  0  0  0  0  0  0  0  0
   12.9989  -17.6076   20.7239 C   0  0  0  0  0  0  0  0  0  0  0  0
   13.7371  -17.1178   19.8677 O   0  0  0  0  0  0  0  0  0  0  0  0
   10.4960  -16.4165   23.3067 C   0  0  0  0  0  0  0  0  0  0  0  0
   11.0034  -15.3255   23.6856 O   0  0  0  0  0  0  0  0  0  0  0  0
   12.6433  -18.9683   20.5558 O   0  0  0  0  0  0  0  0  0  0  0  0
    7.7727  -14.6469   24.7936 C   0  0  0  0  0  0  0  0  0  0  0  0
    7.9462  -15.8853   25.6081 C   0  0  1  0  0  0  0  0  0  0  0  0
    6.9601  -16.8130   25.2085 O   0  0  0  0  0  0  0  0  0  0  0  0
    9.2573  -16.5674   25.4637 C   0  0  2  0  0  0  0  0  0  0  0  0
    9.5918  -17.0466   24.1668 N   0  0  0  0  0  0  0  0  0  0  0  0
    9.4715  -17.5510   26.5619 C   0  0  0  0  0  0  0  0  0  0  0  0
    9.4172  -17.1634   27.8890 O   0  0  0  0  0  0  0  0  0  0  0  0
    9.7045  -18.7458   26.3093 O   0  0  0  0  0  0  0  0  0  0  0  0
  2  1  1  1
  2  3  1  0
  4  6  1  0
  4  2  1  0
  4  5  1  1
  6  8  1  0
  7  6  2  0
  8  9  1  0
  9 13  1  0
  9 10  1  1
 11 10  1  0
 11 12  2  0
 13 14  2  0
 13 20  1  0
 15 11  1  0
 17 16  1  6
 18 17  1  0
 19 17  1  0
 19 21  1  0
 19 20  1  6
 21 22  1  0
 23 21  2  0
M  END
$$$$
