HWI.pdb
     RDKit          3D

 33 35  0  0  1  0  0  0  0  0999 V2000
   10.5374  -18.2955   19.9878 N   0  0  0  0  0  0  0  0  0  0  0  0
   11.2741  -17.0876   20.2486 C   0  0  1  0  0  0  0  0  0  0  0  0
   11.2507  -16.1357   19.0848 C   0  0  0  0  0  0  0  0  0  0  0  0
   11.7126  -16.8268   17.8800 C   0  0  0  0  0  0  0  0  0  0  0  0
   10.9748  -17.1309   16.7756 C   0  0  0  0  0  0  0  0  0  0  0  0
   11.8230  -17.7699   15.9275 N   0  0  0  0  0  0  0  0  0  0  0  0
   13.0358  -17.8707   16.4566 C   0  0  0  0  0  0  0  0  0  0  0  0
   12.9672  -17.2905   17.6574 N   0  0  0  0  0  0  0  0  0  0  0  0
   10.7015  -16.3917   21.4033 C   0  0  0  0  0  0  0  0  0  0  0  0
   11.2039  -15.3140   21.8569 O   0  0  0  0  0  0  0  0  0  0  0  0
    9.5436  -16.9266   22.0515 N   0  0  0  0  0  0  0  0  0  0  0  0
    9.0501  -16.3193   23.2615 C   0  0  1  0  0  0  0  0  0  0  0  0
    7.5997  -16.4297   23.4951 C   0  0  0  0  0  0  0  0  0  0  0  0
    7.0222  -15.7206   24.6237 C   0  0  0  0  0  0  0  0  0  0  0  0
    6.4291  -16.1283   25.7974 C   0  0  0  0  0  0  0  0  0  0  0  0
    6.0590  -15.0413   26.5332 N   0  0  0  0  0  0  0  0  0  0  0  0
    6.4086  -13.9626   25.8438 C   0  0  0  0  0  0  0  0  0  0  0  0
    6.2524  -12.6091   26.1579 C   0  0  0  0  0  0  0  0  0  0  0  0
    6.6919  -11.6225   25.2916 C   0  0  0  0  0  0  0  0  0  0  0  0
    7.2855  -11.9844   24.1153 C   0  0  0  0  0  0  0  0  0  0  0  0
    7.4304  -13.3183   23.8234 C   0  0  0  0  0  0  0  0  0  0  0  0
    7.0033  -14.3243   24.6652 C   0  0  0  0  0  0  0  0  0  0  0  0
    9.8881  -16.7147   24.4386 C   0  0  0  0  0  0  0  0  0  0  0  0
   10.6645  -17.6882   24.3925 O   0  0  0  0  0  0  0  0  0  0  0  0
   10.3946  -12.6479   28.4133 C   0  0  0  0  0  0  0  0  0  0  0  0
   10.6975  -13.7458   27.4114 C   0  0  0  0  0  0  0  0  0  0  0  0
   10.2385  -15.0973   27.8989 C   0  0  2  0  0  0  0  0  0  0  0  0
   11.1892  -15.4500   29.0590 C   0  0  0  0  0  0  0  0  0  0  0  0
   10.4387  -16.1928   26.8515 C   0  0  2  0  0  0  0  0  0  0  0  0
    9.7689  -15.9462   25.6109 N   0  0  0  0  0  0  0  0  0  0  0  0
   10.2002  -17.5143   27.4048 C   0  0  0  0  0  0  0  0  0  0  0  0
   11.1826  -18.3665   27.8787 O   0  0  0  0  0  0  0  0  0  0  0  0
    9.0044  -17.9925   27.4901 O   0  0  0  0  0  0  0  0  0  0  0  0
  2  1  1  6
  2  3  1  0
  3  4  1  0
  4  8  1  0
  4  5  2  0
  5  6  1  0
  7  6  1  0
  8  7  2  0
  9  2  1  0
 10  9  2  0
 11  9  1  0
 12 13  1  1
 12 11  1  0
 13 14  1  0
 14 22  1  0
 14 15  2  0
 15 16  1  0
 17 16  1  0
 17 18  2  0
 19 18  1  0
 20 19  2  0
 21 22  2  0
 21 20  1  0
 22 17  1  0
 23 12  1  0
 24 23  2  0
 26 25  1  0
 27 26  1  0
 27 29  1  0
 27 28  1  1
 29 30  1  6
 30 23  1  0
 31 32  1  0
 31 29  1  0
 33 31  2  0
M  END
$$$$
