HWI.pdb
     RDKit          3D

 33 35  0  0  1  0  0  0  0  0999 V2000
   11.1754  -16.6664   19.1710 N   0  0  0  0  0  0  0  0  0  0  0  0
   11.2037  -17.5055   20.3393 C   0  0  1  0  0  0  0  0  0  0  0  0
   12.5819  -18.0251   20.6423 C   0  0  0  0  0  0  0  0  0  0  0  0
   12.9602  -19.0196   19.6371 C   0  0  0  0  0  0  0  0  0  0  0  0
   12.8079  -20.3709   19.7232 C   0  0  0  0  0  0  0  0  0  0  0  0
   13.3028  -20.8743   18.5618 N   0  0  0  0  0  0  0  0  0  0  0  0
   13.7474  -19.9025   17.7751 C   0  0  0  0  0  0  0  0  0  0  0  0
   13.5364  -18.7621   18.4370 N   0  0  0  0  0  0  0  0  0  0  0  0
   10.7466  -16.7509   21.5085 C   0  0  0  0  0  0  0  0  0  0  0  0
   11.1504  -15.5677   21.7462 O   0  0  0  0  0  0  0  0  0  0  0  0
    9.8190  -17.3478   22.4198 N   0  0  0  0  0  0  0  0  0  0  0  0
    9.3171  -16.5889   23.5373 C   0  0  1  0  0  0  0  0  0  0  0  0
    7.8546  -16.5899   23.7146 C   0  0  0  0  0  0  0  0  0  0  0  0
    7.1251  -15.3570   23.4740 C   0  0  0  0  0  0  0  0  0  0  0  0
    6.3601  -14.8965   22.4259 C   0  0  0  0  0  0  0  0  0  0  0  0
    5.8830  -13.6509   22.7109 N   0  0  0  0  0  0  0  0  0  0  0  0
    6.3338  -13.3236   23.9153 C   0  0  0  0  0  0  0  0  0  0  0  0
    6.1315  -12.1585   24.6613 C   0  0  0  0  0  0  0  0  0  0  0  0
    6.6969  -12.0104   25.9165 C   0  0  0  0  0  0  0  0  0  0  0  0
    7.4621  -13.0211   26.4264 C   0  0  0  0  0  0  0  0  0  0  0  0
    7.6500  -14.1579   25.6796 C   0  0  0  0  0  0  0  0  0  0  0  0
    7.1005  -14.3356   24.4267 C   0  0  0  0  0  0  0  0  0  0  0  0
   10.0818  -16.9060   24.7857 C   0  0  0  0  0  0  0  0  0  0  0  0
   10.6920  -17.9835   24.9243 O   0  0  0  0  0  0  0  0  0  0  0  0
   11.0441  -13.8584   30.2303 C   0  0  0  0  0  0  0  0  0  0  0  0
   11.3211  -15.0205   29.2955 C   0  0  0  0  0  0  0  0  0  0  0  0
   10.7020  -14.8113   27.9361 C   0  0  2  0  0  0  0  0  0  0  0  0
    9.2328  -14.4415   28.2164 C   0  0  0  0  0  0  0  0  0  0  0  0
   10.6554  -16.0991   27.1133 C   0  0  2  0  0  0  0  0  0  0  0  0
   10.0887  -15.9402   25.8087 N   0  0  0  0  0  0  0  0  0  0  0  0
   10.0973  -17.2025   27.8749 C   0  0  0  0  0  0  0  0  0  0  0  0
   10.8285  -18.0743   28.6631 O   0  0  0  0  0  0  0  0  0  0  0  0
    8.8297  -17.4456   27.8600 O   0  0  0  0  0  0  0  0  0  0  0  0
  2  1  1  6
  2  3  1  0
  3  4  1  0
  4  8  1  0
  4  5  2  0
  5  6  1  0
  7  6  1  0
  8  7  2  0
  9  2  1  0
 10  9  2  0
 11  9  1  0
 12 13  1  1
 12 11  1  0
 13 14  1  0
 14 22  1  0
 14 15  2  0
 15 16  1  0
 17 16  1  0
 17 18  2  0
 19 18  1  0
 20 19  2  0
 21 22  2  0
 21 20  1  0
 22 17  1  0
 23 12  1  0
 24 23  2  0
 26 25  1  0
 27 26  1  0
 27 29  1  0
 27 28  1  1
 29 30  1  6
 30 23  1  0
 31 32  1  0
 31 29  1  0
 33 31  2  0
M  END
$$$$
