HWI.pdb
     RDKit          3D

 33 35  0  0  1  0  0  0  0  0999 V2000
   10.5933  -16.5991   19.2714 N   0  0  0  0  0  0  0  0  0  0  0  0
   11.0460  -17.2635   20.4645 C   0  0  1  0  0  0  0  0  0  0  0  0
   12.5458  -17.3169   20.5604 C   0  0  0  0  0  0  0  0  0  0  0  0
   13.0611  -18.2988   19.6050 C   0  0  0  0  0  0  0  0  0  0  0  0
   12.3331  -19.1721   18.8540 C   0  0  0  0  0  0  0  0  0  0  0  0
   13.2377  -19.8790   18.1267 N   0  0  0  0  0  0  0  0  0  0  0  0
   14.4755  -19.4829   18.3951 C   0  0  0  0  0  0  0  0  0  0  0  0
   14.3661  -18.5110   19.3043 N   0  0  0  0  0  0  0  0  0  0  0  0
   10.5499  -16.5587   21.6487 C   0  0  0  0  0  0  0  0  0  0  0  0
   10.6951  -15.3029   21.7947 O   0  0  0  0  0  0  0  0  0  0  0  0
    9.8806  -17.2894   22.6807 N   0  0  0  0  0  0  0  0  0  0  0  0
    9.3819  -16.6005   23.8440 C   0  0  1  0  0  0  0  0  0  0  0  0
    7.9161  -16.5295   23.9743 C   0  0  0  0  0  0  0  0  0  0  0  0
    7.2453  -15.2947   23.6064 C   0  0  0  0  0  0  0  0  0  0  0  0
    6.7326  -14.8095   22.4243 C   0  0  0  0  0  0  0  0  0  0  0  0
    6.1881  -13.5753   22.6257 N   0  0  0  0  0  0  0  0  0  0  0  0
    6.3498  -13.2793   23.9092 C   0  0  0  0  0  0  0  0  0  0  0  0
    5.9692  -12.1368   24.6197 C   0  0  0  0  0  0  0  0  0  0  0  0
    6.2332  -12.0207   25.9740 C   0  0  0  0  0  0  0  0  0  0  0  0
    6.8749  -13.0408   26.6179 C   0  0  0  0  0  0  0  0  0  0  0  0
    7.2413  -14.1550   25.9040 C   0  0  0  0  0  0  0  0  0  0  0  0
    6.9927  -14.3007   24.5549 C   0  0  0  0  0  0  0  0  0  0  0  0
   10.0812  -17.0684   25.0834 C   0  0  0  0  0  0  0  0  0  0  0  0
   10.6511  -18.1752   25.1357 O   0  0  0  0  0  0  0  0  0  0  0  0
   10.5362  -12.9323   28.9989 C   0  0  0  0  0  0  0  0  0  0  0  0
   10.8429  -14.0365   28.0051 C   0  0  0  0  0  0  0  0  0  0  0  0
   10.4225  -15.3909   28.5188 C   0  0  2  0  0  0  0  0  0  0  0  0
   11.3973  -15.7041   29.6702 C   0  0  0  0  0  0  0  0  0  0  0  0
   10.6338  -16.4969   27.4846 C   0  0  2  0  0  0  0  0  0  0  0  0
   10.0732  -16.2114   26.1991 N   0  0  0  0  0  0  0  0  0  0  0  0
   10.2769  -17.8015   28.0136 C   0  0  0  0  0  0  0  0  0  0  0  0
   11.1721  -18.7196   28.5350 O   0  0  0  0  0  0  0  0  0  0  0  0
    9.0489  -18.1987   28.0286 O   0  0  0  0  0  0  0  0  0  0  0  0
  2  1  1  6
  2  3  1  0
  3  4  1  0
  4  8  1  0
  4  5  2  0
  5  6  1  0
  7  6  1  0
  8  7  2  0
  9  2  1  0
 10  9  2  0
 11  9  1  0
 12 13  1  1
 12 11  1  0
 13 14  1  0
 14 22  1  0
 14 15  2  0
 15 16  1  0
 17 16  1  0
 17 18  2  0
 19 18  1  0
 20 19  2  0
 21 22  2  0
 21 20  1  0
 22 17  1  0
 23 12  1  0
 24 23  2  0
 26 25  1  0
 27 26  1  0
 27 29  1  0
 27 28  1  1
 29 30  1  6
 30 23  1  0
 31 32  1  0
 31 29  1  0
 33 31  2  0
M  END
$$$$
