HWI.pdb
     RDKit          3D

 33 35  0  0  1  0  0  0  0  0999 V2000
   10.2118  -17.5914   19.3024 N   0  0  0  0  0  0  0  0  0  0  0  0
   11.1763  -17.4128   20.3549 C   0  0  1  0  0  0  0  0  0  0  0  0
   12.4383  -16.7515   19.8738 C   0  0  0  0  0  0  0  0  0  0  0  0
   13.2483  -17.7235   19.1377 C   0  0  0  0  0  0  0  0  0  0  0  0
   12.9669  -19.0418   18.9389 C   0  0  0  0  0  0  0  0  0  0  0  0
   14.0013  -19.5354   18.2085 N   0  0  0  0  0  0  0  0  0  0  0  0
   14.8957  -18.5890   17.9529 C   0  0  0  0  0  0  0  0  0  0  0  0
   14.4319  -17.4748   18.5248 N   0  0  0  0  0  0  0  0  0  0  0  0
   10.6114  -16.5739   21.4143 C   0  0  0  0  0  0  0  0  0  0  0  0
   10.6977  -15.3046   21.3861 O   0  0  0  0  0  0  0  0  0  0  0  0
    9.9399  -17.1844   22.5204 N   0  0  0  0  0  0  0  0  0  0  0  0
    9.3729  -16.3643   23.5609 C   0  0  1  0  0  0  0  0  0  0  0  0
    7.9015  -16.3174   23.6173 C   0  0  0  0  0  0  0  0  0  0  0  0
    7.1773  -15.8300   22.4562 C   0  0  0  0  0  0  0  0  0  0  0  0
    6.2292  -16.3864   21.6272 C   0  0  0  0  0  0  0  0  0  0  0  0
    5.8597  -15.4848   20.6728 N   0  0  0  0  0  0  0  0  0  0  0  0
    6.5571  -14.3766   20.8883 C   0  0  0  0  0  0  0  0  0  0  0  0
    6.5481  -13.1632   20.1935 C   0  0  0  0  0  0  0  0  0  0  0  0
    7.3624  -12.1138   20.5842 C   0  0  0  0  0  0  0  0  0  0  0  0
    8.1835  -12.2736   21.6646 C   0  0  0  0  0  0  0  0  0  0  0  0
    8.1791  -13.4722   22.3347 C   0  0  0  0  0  0  0  0  0  0  0  0
    7.3799  -14.5360   21.9704 C   0  0  0  0  0  0  0  0  0  0  0  0
   10.0239  -16.6480   24.8799 C   0  0  0  0  0  0  0  0  0  0  0  0
   10.7567  -17.6415   25.0485 O   0  0  0  0  0  0  0  0  0  0  0  0
    9.0885  -12.3717   28.4380 C   0  0  0  0  0  0  0  0  0  0  0  0
    9.8254  -13.3978   27.5983 C   0  0  0  0  0  0  0  0  0  0  0  0
    9.7816  -14.7717   28.2191 C   0  0  2  0  0  0  0  0  0  0  0  0
   10.7991  -14.7227   29.3751 C   0  0  0  0  0  0  0  0  0  0  0  0
   10.2870  -15.8566   27.2679 C   0  0  2  0  0  0  0  0  0  0  0  0
    9.7784  -15.7496   25.9344 N   0  0  0  0  0  0  0  0  0  0  0  0
   10.1602  -17.1815   27.8492 C   0  0  0  0  0  0  0  0  0  0  0  0
   11.1580  -17.8433   28.5437 O   0  0  0  0  0  0  0  0  0  0  0  0
    9.0603  -17.8490   27.7469 O   0  0  0  0  0  0  0  0  0  0  0  0
  2  1  1  6
  2  3  1  0
  3  4  1  0
  4  8  1  0
  4  5  2  0
  5  6  1  0
  7  6  1  0
  8  7  2  0
  9  2  1  0
 10  9  2  0
 11  9  1  0
 12 13  1  1
 12 11  1  0
 13 14  1  0
 14 22  1  0
 14 15  2  0
 15 16  1  0
 17 16  1  0
 17 18  2  0
 19 18  1  0
 20 19  2  0
 21 22  2  0
 21 20  1  0
 22 17  1  0
 23 12  1  0
 24 23  2  0
 26 25  1  0
 27 26  1  0
 27 29  1  0
 27 28  1  1
 29 30  1  6
 30 23  1  0
 31 32  1  0
 31 29  1  0
 33 31  2  0
M  END
$$$$
