HWI.pdb
     RDKit          3D

 33 35  0  0  1  0  0  0  0  0999 V2000
   11.1151  -18.3623   20.2014 N   0  0  0  0  0  0  0  0  0  0  0  0
   11.7414  -17.0801   20.3853 C   0  0  1  0  0  0  0  0  0  0  0  0
   11.7761  -16.2689   19.1196 C   0  0  0  0  0  0  0  0  0  0  0  0
   12.6014  -16.9540   18.1236 C   0  0  0  0  0  0  0  0  0  0  0  0
   13.0973  -18.2207   18.2012 C   0  0  0  0  0  0  0  0  0  0  0  0
   13.7997  -18.4147   17.0539 N   0  0  0  0  0  0  0  0  0  0  0  0
   13.7575  -17.3349   16.2838 C   0  0  0  0  0  0  0  0  0  0  0  0
   13.0203  -16.4369   16.9422 N   0  0  0  0  0  0  0  0  0  0  0  0
   11.0094  -16.3051   21.3897 C   0  0  0  0  0  0  0  0  0  0  0  0
   11.4015  -15.1558   21.7704 O   0  0  0  0  0  0  0  0  0  0  0  0
    9.8169  -16.8422   21.9697 N   0  0  0  0  0  0  0  0  0  0  0  0
    9.2210  -16.2021   23.1150 C   0  0  1  0  0  0  0  0  0  0  0  0
    7.7534  -16.0752   23.0938 C   0  0  0  0  0  0  0  0  0  0  0  0
    7.0851  -15.5458   24.2699 C   0  0  0  0  0  0  0  0  0  0  0  0
    6.3952  -16.1259   25.3106 C   0  0  0  0  0  0  0  0  0  0  0  0
    5.9672  -15.1642   26.1779 N   0  0  0  0  0  0  0  0  0  0  0  0
    6.3755  -13.9951   25.7007 C   0  0  0  0  0  0  0  0  0  0  0  0
    6.1965  -12.7066   26.2133 C   0  0  0  0  0  0  0  0  0  0  0  0
    6.7090  -11.6016   25.5549 C   0  0  0  0  0  0  0  0  0  0  0  0
    7.3980  -11.7808   24.3886 C   0  0  0  0  0  0  0  0  0  0  0  0
    7.5639  -13.0534   23.9002 C   0  0  0  0  0  0  0  0  0  0  0  0
    7.0658  -14.1738   24.5324 C   0  0  0  0  0  0  0  0  0  0  0  0
    9.7643  -16.7722   24.3892 C   0  0  0  0  0  0  0  0  0  0  0  0
   10.1892  -17.9418   24.4548 O   0  0  0  0  0  0  0  0  0  0  0  0
    9.9918  -12.7903   28.4535 C   0  0  0  0  0  0  0  0  0  0  0  0
   10.4384  -13.8534   27.4679 C   0  0  0  0  0  0  0  0  0  0  0  0
   10.0088  -15.2348   27.8946 C   0  0  2  0  0  0  0  0  0  0  0  0
   10.9339  -15.5973   29.0723 C   0  0  0  0  0  0  0  0  0  0  0  0
   10.2773  -16.2865   26.8179 C   0  0  2  0  0  0  0  0  0  0  0  0
    9.7788  -15.9385   25.5223 N   0  0  0  0  0  0  0  0  0  0  0  0
    9.9028  -17.6174   27.2625 C   0  0  0  0  0  0  0  0  0  0  0  0
   10.7787  -18.5617   27.7695 O   0  0  0  0  0  0  0  0  0  0  0  0
    8.6761  -18.0151   27.2078 O   0  0  0  0  0  0  0  0  0  0  0  0
  2  1  1  6
  2  3  1  0
  3  4  1  0
  4  8  1  0
  4  5  2  0
  5  6  1  0
  7  6  1  0
  8  7  2  0
  9  2  1  0
 10  9  2  0
 11  9  1  0
 12 13  1  1
 12 11  1  0
 13 14  1  0
 14 22  1  0
 14 15  2  0
 15 16  1  0
 17 16  1  0
 17 18  2  0
 19 18  1  0
 20 19  2  0
 21 22  2  0
 21 20  1  0
 22 17  1  0
 23 12  1  0
 24 23  2  0
 26 25  1  0
 27 26  1  0
 27 29  1  0
 27 28  1  1
 29 30  1  6
 30 23  1  0
 31 32  1  0
 31 29  1  0
 33 31  2  0
M  END
$$$$
