HWI.pdb
     RDKit          3D

 33 35  0  0  1  0  0  0  0  0999 V2000
   11.0014  -18.0528   20.1349 N   0  0  0  0  0  0  0  0  0  0  0  0
   10.2941  -16.8942   19.6582 C   0  0  1  0  0  0  0  0  0  0  0  0
    9.2883  -17.2312   18.5924 C   0  0  0  0  0  0  0  0  0  0  0  0
    9.9800  -17.7792   17.4246 C   0  0  0  0  0  0  0  0  0  0  0  0
   11.1251  -17.3094   16.8551 C   0  0  0  0  0  0  0  0  0  0  0  0
   11.3806  -18.1318   15.8037 N   0  0  0  0  0  0  0  0  0  0  0  0
   10.4530  -19.0754   15.7034 C   0  0  0  0  0  0  0  0  0  0  0  0
    9.5919  -18.8580   16.7007 N   0  0  0  0  0  0  0  0  0  0  0  0
    9.5739  -16.2577   20.7634 C   0  0  0  0  0  0  0  0  0  0  0  0
    8.6470  -15.4090   20.5630 O   0  0  0  0  0  0  0  0  0  0  0  0
    9.9106  -16.5891   22.1139 N   0  0  0  0  0  0  0  0  0  0  0  0
    9.2136  -15.9581   23.2060 C   0  0  1  0  0  0  0  0  0  0  0  0
    7.7446  -15.9231   23.1011 C   0  0  0  0  0  0  0  0  0  0  0  0
    6.9812  -15.3910   24.2165 C   0  0  0  0  0  0  0  0  0  0  0  0
    6.2526  -15.9716   25.2303 C   0  0  0  0  0  0  0  0  0  0  0  0
    5.7297  -15.0057   26.0389 N   0  0  0  0  0  0  0  0  0  0  0  0
    6.1166  -13.8336   25.5516 C   0  0  0  0  0  0  0  0  0  0  0  0
    5.8502  -12.5403   26.0115 C   0  0  0  0  0  0  0  0  0  0  0  0
    6.3552  -11.4326   25.3518 C   0  0  0  0  0  0  0  0  0  0  0  0
    7.1235  -11.6139   24.2365 C   0  0  0  0  0  0  0  0  0  0  0  0
    7.3745  -12.8912   23.7993 C   0  0  0  0  0  0  0  0  0  0  0  0
    6.8863  -14.0143   24.4343 C   0  0  0  0  0  0  0  0  0  0  0  0
    9.7180  -16.4605   24.5240 C   0  0  0  0  0  0  0  0  0  0  0  0
    9.5314  -17.6363   24.8917 O   0  0  0  0  0  0  0  0  0  0  0  0
   10.3233  -13.7914   30.0133 C   0  0  0  0  0  0  0  0  0  0  0  0
   10.8355  -14.8593   29.0655 C   0  0  0  0  0  0  0  0  0  0  0  0
   10.3413  -14.6474   27.6563 C   0  0  2  0  0  0  0  0  0  0  0  0
    8.8072  -14.7586   27.7478 C   0  0  0  0  0  0  0  0  0  0  0  0
   10.7821  -15.7649   26.7107 C   0  0  2  0  0  0  0  0  0  0  0  0
   10.4149  -15.5539   25.3436 N   0  0  0  0  0  0  0  0  0  0  0  0
   10.4284  -17.0755   27.2270 C   0  0  0  0  0  0  0  0  0  0  0  0
   11.2646  -17.8878   27.9733 O   0  0  0  0  0  0  0  0  0  0  0  0
    9.2612  -17.5819   27.0098 O   0  0  0  0  0  0  0  0  0  0  0  0
  2  1  1  1
  2  3  1  0
  3  4  1  0
  4  8  1  0
  4  5  2  0
  5  6  1  0
  7  6  1  0
  8  7  2  0
  9  2  1  0
 10  9  2  0
 11  9  1  0
 12 13  1  6
 12 11  1  0
 13 14  1  0
 14 22  1  0
 14 15  2  0
 15 16  1  0
 17 16  1  0
 17 18  2  0
 19 18  1  0
 20 19  2  0
 21 22  2  0
 21 20  1  0
 22 17  1  0
 23 12  1  0
 24 23  2  0
 26 25  1  0
 27 26  1  0
 27 29  1  0
 27 28  1  1
 29 30  1  6
 30 23  1  0
 31 32  1  0
 31 29  1  0
 33 31  2  0
M  END
$$$$
