HWI.pdb
     RDKit          3D

 33 35  0  0  1  0  0  0  0  0999 V2000
   10.9273  -18.7794   20.2317 N   0  0  0  0  0  0  0  0  0  0  0  0
   11.3571  -17.4199   20.0388 C   0  0  1  0  0  0  0  0  0  0  0  0
   10.8677  -16.8395   18.7408 C   0  0  0  0  0  0  0  0  0  0  0  0
   11.6599  -17.3805   17.6352 C   0  0  0  0  0  0  0  0  0  0  0  0
   13.0180  -17.4630   17.5634 C   0  0  0  0  0  0  0  0  0  0  0  0
   13.2919  -18.0275   16.3578 N   0  0  0  0  0  0  0  0  0  0  0  0
   12.1741  -18.2922   15.6933 C   0  0  0  0  0  0  0  0  0  0  0  0
   11.1708  -17.8940   16.4795 N   0  0  0  0  0  0  0  0  0  0  0  0
   10.8487  -16.5759   21.1226 C   0  0  0  0  0  0  0  0  0  0  0  0
   11.1686  -15.3485   21.2266 O   0  0  0  0  0  0  0  0  0  0  0  0
    9.9658  -17.1328   22.1011 N   0  0  0  0  0  0  0  0  0  0  0  0
    9.4337  -16.2991   23.1491 C   0  0  1  0  0  0  0  0  0  0  0  0
    7.9659  -16.2737   23.2723 C   0  0  0  0  0  0  0  0  0  0  0  0
    7.1818  -15.8120   22.1400 C   0  0  0  0  0  0  0  0  0  0  0  0
    6.1409  -16.3564   21.4218 C   0  0  0  0  0  0  0  0  0  0  0  0
    5.7500  -15.4919   20.4420 N   0  0  0  0  0  0  0  0  0  0  0  0
    6.5250  -14.4185   20.5331 C   0  0  0  0  0  0  0  0  0  0  0  0
    6.5313  -13.2505   19.7645 C   0  0  0  0  0  0  0  0  0  0  0  0
    7.4331  -12.2325   20.0249 C   0  0  0  0  0  0  0  0  0  0  0  0
    8.3261  -12.3788   21.0487 C   0  0  0  0  0  0  0  0  0  0  0  0
    8.3053  -13.5327   21.7927 C   0  0  0  0  0  0  0  0  0  0  0  0
    7.4199  -14.5643   21.5584 C   0  0  0  0  0  0  0  0  0  0  0  0
   10.1491  -16.5438   24.4423 C   0  0  0  0  0  0  0  0  0  0  0  0
   10.7167  -17.6268   24.6822 O   0  0  0  0  0  0  0  0  0  0  0  0
   10.1160  -13.3257   29.8804 C   0  0  0  0  0  0  0  0  0  0  0  0
   10.4854  -14.5485   29.0623 C   0  0  0  0  0  0  0  0  0  0  0  0
   10.0912  -14.3989   27.6142 C   0  0  2  0  0  0  0  0  0  0  0  0
    8.5528  -14.3150   27.6233 C   0  0  0  0  0  0  0  0  0  0  0  0
   10.4337  -15.6380   26.7867 C   0  0  2  0  0  0  0  0  0  0  0  0
   10.1589  -15.5028   25.3886 N   0  0  0  0  0  0  0  0  0  0  0  0
    9.8972  -16.8478   27.3850 C   0  0  0  0  0  0  0  0  0  0  0  0
   10.5479  -17.6236   28.3287 O   0  0  0  0  0  0  0  0  0  0  0  0
    8.7300  -17.2900   27.0561 O   0  0  0  0  0  0  0  0  0  0  0  0
  2  1  1  1
  2  3  1  0
  3  4  1  0
  4  8  1  0
  4  5  2  0
  5  6  1  0
  7  6  1  0
  8  7  2  0
  9  2  1  0
 10  9  2  0
 11  9  1  0
 12 13  1  1
 12 11  1  0
 13 14  1  0
 14 22  1  0
 14 15  2  0
 15 16  1  0
 17 16  1  0
 17 18  2  0
 19 18  1  0
 20 19  2  0
 21 22  2  0
 21 20  1  0
 22 17  1  0
 23 12  1  0
 24 23  2  0
 26 25  1  0
 27 26  1  0
 27 29  1  0
 27 28  1  1
 29 30  1  6
 30 23  1  0
 31 32  1  0
 31 29  1  0
 33 31  2  0
M  END
$$$$
