HWI.pdb
     RDKit          3D

 33 35  0  0  1  0  0  0  0  0999 V2000
   10.9208  -18.8004   20.5999 N   0  0  0  0  0  0  0  0  0  0  0  0
   11.4640  -17.4710   20.5125 C   0  0  1  0  0  0  0  0  0  0  0  0
   11.2390  -16.8442   19.1643 C   0  0  0  0  0  0  0  0  0  0  0  0
   12.0278  -17.5562   18.1576 C   0  0  0  0  0  0  0  0  0  0  0  0
   13.3145  -17.2979   17.7913 C   0  0  0  0  0  0  0  0  0  0  0  0
   13.6156  -18.2082   16.8281 N   0  0  0  0  0  0  0  0  0  0  0  0
   12.5818  -19.0052   16.5892 C   0  0  0  0  0  0  0  0  0  0  0  0
   11.6056  -18.6037   17.4072 N   0  0  0  0  0  0  0  0  0  0  0  0
   10.8357  -16.6069   21.5145 C   0  0  0  0  0  0  0  0  0  0  0  0
   11.0672  -15.3565   21.5654 O   0  0  0  0  0  0  0  0  0  0  0  0
    9.9332  -17.1699   22.4713 N   0  0  0  0  0  0  0  0  0  0  0  0
    9.4213  -16.3562   23.5448 C   0  0  1  0  0  0  0  0  0  0  0  0
    7.9556  -16.2234   23.6129 C   0  0  0  0  0  0  0  0  0  0  0  0
    7.2400  -15.8060   22.4197 C   0  0  0  0  0  0  0  0  0  0  0  0
    6.2745  -16.3981   21.6368 C   0  0  0  0  0  0  0  0  0  0  0  0
    5.9251  -15.5617   20.6177 N   0  0  0  0  0  0  0  0  0  0  0  0
    6.6521  -14.4591   20.7477 C   0  0  0  0  0  0  0  0  0  0  0  0
    6.6721  -13.3018   19.9633 C   0  0  0  0  0  0  0  0  0  0  0  0
    7.5151  -12.2477   20.2722 C   0  0  0  0  0  0  0  0  0  0  0  0
    8.3359  -12.3472   21.3601 C   0  0  0  0  0  0  0  0  0  0  0  0
    8.3027  -13.4913   22.1187 C   0  0  0  0  0  0  0  0  0  0  0  0
    7.4745  -14.5581   21.8373 C   0  0  0  0  0  0  0  0  0  0  0  0
   10.0602  -16.7266   24.8480 C   0  0  0  0  0  0  0  0  0  0  0  0
   10.6989  -17.7875   24.9864 O   0  0  0  0  0  0  0  0  0  0  0  0
    9.0610  -12.9081   29.1402 C   0  0  0  0  0  0  0  0  0  0  0  0
    9.0158  -14.1188   28.2273 C   0  0  0  0  0  0  0  0  0  0  0  0
   10.3503  -14.8174   28.1500 C   0  0  2  0  0  0  0  0  0  0  0  0
   11.2765  -13.8334   27.4097 C   0  0  0  0  0  0  0  0  0  0  0  0
   10.3001  -16.0736   27.2799 C   0  0  2  0  0  0  0  0  0  0  0  0
    9.9140  -15.8311   25.9233 N   0  0  0  0  0  0  0  0  0  0  0  0
    9.5633  -17.1451   27.9265 C   0  0  0  0  0  0  0  0  0  0  0  0
    8.4368  -17.7603   27.4083 O   0  0  0  0  0  0  0  0  0  0  0  0
    9.9325  -17.6065   29.0740 O   0  0  0  0  0  0  0  0  0  0  0  0
  2  1  1  6
  2  3  1  0
  3  4  1  0
  4  8  1  0
  4  5  2  0
  5  6  1  0
  7  6  1  0
  8  7  2  0
  9  2  1  0
 10  9  2  0
 11  9  1  0
 12 13  1  1
 12 11  1  0
 13 14  1  0
 14 22  1  0
 14 15  2  0
 15 16  1  0
 17 16  1  0
 17 18  2  0
 19 18  1  0
 20 19  2  0
 21 22  2  0
 21 20  1  0
 22 17  1  0
 23 12  1  0
 24 23  2  0
 26 25  1  0
 27 26  1  0
 27 29  1  0
 27 28  1  6
 29 30  1  6
 30 23  1  0
 31 32  1  0
 31 29  1  0
 33 31  2  0
M  END
$$$$
