TWM.pdb
     RDKit          3D

 30 31  0  0  1  0  0  0  0  0999 V2000
   27.9549  -20.0580  -15.9614 C   0  0  0  0  0  0  0  0  0  0  0  0
   27.0933  -20.1740  -14.7203 C   0  0  1  0  0  0  0  0  0  0  0  0
   25.8962  -19.5496  -14.9340 O   0  0  0  0  0  0  0  0  0  0  0  0
   26.9850  -21.5871  -14.2422 C   0  0  2  0  0  0  0  0  0  0  0  0
   26.3445  -22.4724  -15.1551 N   0  0  0  0  0  0  0  0  0  0  0  0
   26.3897  -21.6177  -12.8633 C   0  0  0  0  0  0  0  0  0  0  0  0
   25.1954  -21.9825  -12.6670 O   0  0  0  0  0  0  0  0  0  0  0  0
   27.1414  -21.2350  -11.7253 N   0  0  0  0  0  0  0  0  0  0  0  0
   26.5239  -20.9936  -10.4149 C   0  0  1  0  0  0  0  0  0  0  0  0
   27.5571  -20.6314   -9.4082 C   0  0  0  0  0  0  0  0  0  0  0  0
   27.0886  -20.5303   -8.0151 C   0  0  0  0  0  0  0  0  0  0  0  0
   25.8189  -20.9885   -7.5826 C   0  0  0  0  0  0  0  0  0  0  0  0
   25.7044  -20.7547   -6.2741 N   0  0  0  0  0  0  0  0  0  0  0  0
   26.7849  -20.1802   -5.7898 C   0  0  0  0  0  0  0  0  0  0  0  0
   27.1016  -19.7677   -4.5159 C   0  0  0  0  0  0  0  0  0  0  0  0
   28.3361  -19.1903   -4.3406 C   0  0  0  0  0  0  0  0  0  0  0  0
   29.2286  -19.0244   -5.3841 C   0  0  0  0  0  0  0  0  0  0  0  0
   28.9003  -19.4452   -6.6546 C   0  0  0  0  0  0  0  0  0  0  0  0
   27.6636  -20.0342   -6.8801 C   0  0  0  0  0  0  0  0  0  0  0  0
   25.3015  -20.2060  -10.4663 C   0  0  0  0  0  0  0  0  0  0  0  0
   25.2178  -18.9998  -10.7904 O   0  0  0  0  0  0  0  0  0  0  0  0
   23.1091  -18.1683  -15.0792 C   0  0  0  0  0  0  0  0  0  0  0  0
   21.8378  -19.2501  -14.4954 S   0  0  0  0  0  0  0  0  0  0  0  0
   21.6853  -19.4556  -12.7373 C   0  0  0  0  0  0  0  0  0  0  0  0
   22.8242  -20.0497  -12.0406 C   0  0  0  0  0  0  0  0  0  0  0  0
   22.7803  -20.3495  -10.5813 C   0  0  2  0  0  0  0  0  0  0  0  0
   24.0543  -20.8590  -10.1255 N   0  0  0  0  0  0  0  0  0  0  0  0
   21.6503  -21.0990  -10.0925 C   0  0  0  0  0  0  0  0  0  0  0  0
   21.7077  -22.3674   -9.9606 O   0  0  0  0  0  0  0  0  0  0  0  0
   20.4390  -20.5116   -9.7437 O   0  0  0  0  0  0  0  0  0  0  0  0
  2  1  1  6
  2  3  1  0
  4  2  1  0
  4  5  1  6
  6  7  2  0
  6  4  1  0
  8  6  1  0
  9  8  1  0
 10 11  1  0
  9 10  1  1
 11 19  1  0
 11 12  2  0
 12 13  1  0
 14 13  1  0
 14 15  2  0
 16 15  1  0
 17 16  2  0
 18 19  2  0
 18 17  1  0
 19 14  1  0
 20 21  2  0
 20  9  1  0
 23 22  1  0
 24 23  1  0
 25 24  1  0
 26 25  1  6
 26 27  1  0
 27 20  1  0
 28 26  1  0
 29 28  2  0
 30 28  1  0
M  END
$$$$
