TWM.pdb
     RDKit          3D

 30 31  0  0  1  0  0  0  0  0999 V2000
   25.7960  -21.3970  -17.3016 C   0  0  0  0  0  0  0  0  0  0  0  0
   26.1683  -22.8413  -17.5690 C   0  0  1  0  0  0  0  0  0  0  0  0
   26.6394  -22.9637  -18.8463 O   0  0  0  0  0  0  0  0  0  0  0  0
   27.0731  -23.3924  -16.5132 C   0  0  2  0  0  0  0  0  0  0  0  0
   27.4319  -24.7581  -16.6964 N   0  0  0  0  0  0  0  0  0  0  0  0
   26.5096  -23.1004  -15.1516 C   0  0  0  0  0  0  0  0  0  0  0  0
   25.6124  -23.8278  -14.6377 O   0  0  0  0  0  0  0  0  0  0  0  0
   26.9579  -21.9947  -14.3880 N   0  0  0  0  0  0  0  0  0  0  0  0
   26.3530  -21.6253  -13.1017 C   0  0  1  0  0  0  0  0  0  0  0  0
   27.3227  -20.8688  -12.2654 C   0  0  0  0  0  0  0  0  0  0  0  0
   26.8758  -20.5432  -10.8998 C   0  0  0  0  0  0  0  0  0  0  0  0
   25.6366  -19.9184  -10.6114 C   0  0  0  0  0  0  0  0  0  0  0  0
   25.5333  -19.7663   -9.2900 N   0  0  0  0  0  0  0  0  0  0  0  0
   26.5935  -20.2338   -8.6658 C   0  0  0  0  0  0  0  0  0  0  0  0
   26.9109  -20.2862   -7.3279 C   0  0  0  0  0  0  0  0  0  0  0  0
   28.1218  -20.8469   -6.9999 C   0  0  0  0  0  0  0  0  0  0  0  0
   28.9909  -21.3393   -7.9567 C   0  0  0  0  0  0  0  0  0  0  0  0
   28.6591  -21.2838   -9.2930 C   0  0  0  0  0  0  0  0  0  0  0  0
   27.4461  -20.7257   -9.6724 C   0  0  0  0  0  0  0  0  0  0  0  0
   24.9900  -21.1263  -13.2037 C   0  0  0  0  0  0  0  0  0  0  0  0
   24.5830  -20.2607  -14.0111 O   0  0  0  0  0  0  0  0  0  0  0  0
   17.6738  -23.3133  -10.6018 C   0  0  0  0  0  0  0  0  0  0  0  0
   19.4412  -23.3342  -10.5458 S   0  0  0  0  0  0  0  0  0  0  0  0
   20.3036  -22.1604  -11.5631 C   0  0  0  0  0  0  0  0  0  0  0  0
   21.7622  -22.2477  -11.5808 C   0  0  0  0  0  0  0  0  0  0  0  0
   22.5896  -21.3596  -12.4457 C   0  0  2  0  0  0  0  0  0  0  0  0
   23.9939  -21.6743  -12.3061 N   0  0  0  0  0  0  0  0  0  0  0  0
   22.3078  -19.9467  -12.4066 C   0  0  0  0  0  0  0  0  0  0  0  0
   23.0164  -19.1523  -11.7021 O   0  0  0  0  0  0  0  0  0  0  0  0
   21.2627  -19.3579  -13.1102 O   0  0  0  0  0  0  0  0  0  0  0  0
  2  1  1  1
  2  3  1  0
  4  2  1  0
  4  5  1  6
  6  7  2  0
  6  4  1  0
  8  6  1  0
  9  8  1  0
 10 11  1  0
  9 10  1  6
 11 19  1  0
 11 12  2  0
 12 13  1  0
 14 13  1  0
 14 15  2  0
 16 15  1  0
 17 16  2  0
 18 19  2  0
 18 17  1  0
 19 14  1  0
 20 21  2  0
 20  9  1  0
 23 22  1  0
 24 23  1  0
 25 24  1  0
 26 25  1  1
 26 27  1  0
 27 20  1  0
 28 26  1  0
 29 28  2  0
 30 28  1  0
M  END
$$$$
