TWM.pdb
     RDKit          3D

 30 31  0  0  1  0  0  0  0  0999 V2000
   26.9691  -17.9324  -14.0287 C   0  0  0  0  0  0  0  0  0  0  0  0
   27.6174  -19.0562  -14.8116 C   0  0  1  0  0  0  0  0  0  0  0  0
   28.4759  -18.5331  -15.7377 O   0  0  0  0  0  0  0  0  0  0  0  0
   28.2196  -20.0905  -13.9145 C   0  0  2  0  0  0  0  0  0  0  0  0
   28.9852  -21.0839  -14.5885 N   0  0  0  0  0  0  0  0  0  0  0  0
   27.1649  -20.6612  -13.0096 C   0  0  0  0  0  0  0  0  0  0  0  0
   26.5427  -21.7210  -13.3060 O   0  0  0  0  0  0  0  0  0  0  0  0
   26.8209  -20.0329  -11.7876 N   0  0  0  0  0  0  0  0  0  0  0  0
   25.7387  -20.5229  -10.9241 C   0  0  1  0  0  0  0  0  0  0  0  0
   25.9505  -20.0836   -9.5191 C   0  0  0  0  0  0  0  0  0  0  0  0
   27.1937  -20.5502   -8.8809 C   0  0  0  0  0  0  0  0  0  0  0  0
   28.0510  -21.5210   -9.4571 C   0  0  0  0  0  0  0  0  0  0  0  0
   29.0837  -21.7189   -8.6358 N   0  0  0  0  0  0  0  0  0  0  0  0
   28.9955  -20.9668   -7.5594 C   0  0  0  0  0  0  0  0  0  0  0  0
   29.8222  -20.8441   -6.4662 C   0  0  0  0  0  0  0  0  0  0  0  0
   29.4357  -19.9532   -5.4941 C   0  0  0  0  0  0  0  0  0  0  0  0
   28.2747  -19.2082   -5.5946 C   0  0  0  0  0  0  0  0  0  0  0  0
   27.4575  -19.3380   -6.6966 C   0  0  0  0  0  0  0  0  0  0  0  0
   27.8069  -20.2263   -7.7045 C   0  0  0  0  0  0  0  0  0  0  0  0
   24.4086  -20.3884  -11.4985 C   0  0  0  0  0  0  0  0  0  0  0  0
   23.9124  -19.3379  -11.9645 O   0  0  0  0  0  0  0  0  0  0  0  0
   19.4041  -24.9982  -15.5077 C   0  0  0  0  0  0  0  0  0  0  0  0
   20.5397  -24.7582  -14.1735 S   0  0  0  0  0  0  0  0  0  0  0  0
   20.8350  -23.0882  -13.6440 C   0  0  0  0  0  0  0  0  0  0  0  0
   21.8424  -22.8937  -12.6034 C   0  0  0  0  0  0  0  0  0  0  0  0
   22.2520  -21.5328  -12.1543 C   0  0  2  0  0  0  0  0  0  0  0  0
   23.5679  -21.5665  -11.5562 N   0  0  0  0  0  0  0  0  0  0  0  0
   21.2930  -20.7682  -11.3973 C   0  0  0  0  0  0  0  0  0  0  0  0
   21.3111  -20.7663  -10.1209 O   0  0  0  0  0  0  0  0  0  0  0  0
   20.2947  -19.9998  -11.9864 O   0  0  0  0  0  0  0  0  0  0  0  0
  2  1  1  1
  2  3  1  0
  4  2  1  0
  4  5  1  6
  6  7  2  0
  6  4  1  0
  8  6  1  0
  9  8  1  0
 10 11  1  0
  9 10  1  1
 11 19  1  0
 11 12  2  0
 12 13  1  0
 14 13  1  0
 14 15  2  0
 16 15  1  0
 17 16  2  0
 18 19  2  0
 18 17  1  0
 19 14  1  0
 20 21  2  0
 20  9  1  0
 23 22  1  0
 24 23  1  0
 25 24  1  0
 26 25  1  1
 26 27  1  0
 27 20  1  0
 28 26  1  0
 29 28  2  0
 30 28  1  0
M  END
$$$$
