TWM.pdb
     RDKit          3D

 30 31  0  0  1  0  0  0  0  0999 V2000
   27.0433  -25.1459  -16.3480 C   0  0  0  0  0  0  0  0  0  0  0  0
   28.5310  -25.2082  -16.6293 C   0  0  1  0  0  0  0  0  0  0  0  0
   28.8099  -26.3193  -17.3749 O   0  0  0  0  0  0  0  0  0  0  0  0
   29.0485  -23.9261  -17.1998 C   0  0  2  0  0  0  0  0  0  0  0  0
   30.4334  -23.9427  -17.5303 N   0  0  0  0  0  0  0  0  0  0  0  0
   28.6596  -22.7768  -16.3139 C   0  0  0  0  0  0  0  0  0  0  0  0
   29.2322  -22.5736  -15.2053 O   0  0  0  0  0  0  0  0  0  0  0  0
   27.6317  -21.8746  -16.6826 N   0  0  0  0  0  0  0  0  0  0  0  0
   27.1981  -20.7727  -15.8139 C   0  0  1  0  0  0  0  0  0  0  0  0
   26.7829  -19.5981  -16.6262 C   0  0  0  0  0  0  0  0  0  0  0  0
   26.2433  -18.4538  -15.8712 C   0  0  0  0  0  0  0  0  0  0  0  0
   27.0303  -17.6385  -15.0197 C   0  0  0  0  0  0  0  0  0  0  0  0
   26.2488  -16.6952  -14.4910 N   0  0  0  0  0  0  0  0  0  0  0  0
   25.0068  -16.8050  -14.9124 C   0  0  0  0  0  0  0  0  0  0  0  0
   23.8835  -16.0609  -14.6337 C   0  0  0  0  0  0  0  0  0  0  0  0
   22.7165  -16.4469  -15.2480 C   0  0  0  0  0  0  0  0  0  0  0  0
   22.6574  -17.5289  -16.1076 C   0  0  0  0  0  0  0  0  0  0  0  0
   23.7908  -18.2636  -16.3809 C   0  0  0  0  0  0  0  0  0  0  0  0
   24.9931  -17.9112  -15.7831 C   0  0  0  0  0  0  0  0  0  0  0  0
   26.3483  -21.1838  -14.7065 C   0  0  0  0  0  0  0  0  0  0  0  0
   25.4287  -22.0312  -14.7614 O   0  0  0  0  0  0  0  0  0  0  0  0
   27.3088  -20.5932   -7.1625 C   0  0  0  0  0  0  0  0  0  0  0  0
   26.3767  -19.6748   -8.3521 S   0  0  0  0  0  0  0  0  0  0  0  0
   25.6880  -20.5752   -9.7202 C   0  0  0  0  0  0  0  0  0  0  0  0
   26.3648  -20.4392  -11.0082 C   0  0  0  0  0  0  0  0  0  0  0  0
   25.7101  -20.8456  -12.2839 C   0  0  2  0  0  0  0  0  0  0  0  0
   26.5758  -20.5780  -13.4106 N   0  0  0  0  0  0  0  0  0  0  0  0
   24.3464  -20.4276  -12.4915 C   0  0  0  0  0  0  0  0  0  0  0  0
   24.0668  -19.2223  -12.8057 O   0  0  0  0  0  0  0  0  0  0  0  0
   23.2581  -21.2835  -12.3602 O   0  0  0  0  0  0  0  0  0  0  0  0
  2  1  1  6
  2  3  1  0
  4  2  1  0
  4  5  1  1
  6  7  2  0
  6  4  1  0
  8  6  1  0
  9  8  1  0
 10 11  1  0
  9 10  1  6
 11 19  1  0
 11 12  2  0
 12 13  1  0
 14 13  1  0
 14 15  2  0
 16 15  1  0
 17 16  2  0
 18 19  2  0
 18 17  1  0
 19 14  1  0
 20 21  2  0
 20  9  1  0
 23 22  1  0
 24 23  1  0
 25 24  1  0
 26 25  1  1
 26 27  1  0
 27 20  1  0
 28 26  1  0
 29 28  2  0
 30 28  1  0
M  END
$$$$
