TWM.pdb
     RDKit          3D

 30 31  0  0  1  0  0  0  0  0999 V2000
   24.7128  -22.5136  -15.3829 C   0  0  0  0  0  0  0  0  0  0  0  0
   26.2134  -22.3357  -15.2701 C   0  0  1  0  0  0  0  0  0  0  0  0
   26.7719  -22.3557  -16.5175 O   0  0  0  0  0  0  0  0  0  0  0  0
   26.5766  -21.1448  -14.4413 C   0  0  2  0  0  0  0  0  0  0  0  0
   27.9485  -20.7704  -14.5141 N   0  0  0  0  0  0  0  0  0  0  0  0
   26.0814  -21.3285  -13.0350 C   0  0  0  0  0  0  0  0  0  0  0  0
   25.0320  -21.9875  -12.7846 O   0  0  0  0  0  0  0  0  0  0  0  0
   26.7683  -20.7674  -11.9305 N   0  0  0  0  0  0  0  0  0  0  0  0
   26.2552  -20.8480  -10.5568 C   0  0  1  0  0  0  0  0  0  0  0  0
   27.3545  -20.6494   -9.5750 C   0  0  0  0  0  0  0  0  0  0  0  0
   26.9473  -20.5778   -8.1609 C   0  0  0  0  0  0  0  0  0  0  0  0
   25.7366  -21.1257   -7.6678 C   0  0  0  0  0  0  0  0  0  0  0  0
   25.6684  -20.8964   -6.3553 N   0  0  0  0  0  0  0  0  0  0  0  0
   26.7262  -20.2430   -5.9236 C   0  0  0  0  0  0  0  0  0  0  0  0
   27.0728  -19.8042   -4.6664 C   0  0  0  0  0  0  0  0  0  0  0  0
   28.2690  -19.1379   -4.5507 C   0  0  0  0  0  0  0  0  0  0  0  0
   29.0959  -18.9111   -5.6360 C   0  0  0  0  0  0  0  0  0  0  0  0
   28.7384  -19.3591   -6.8892 C   0  0  0  0  0  0  0  0  0  0  0  0
   27.5385  -20.0372   -7.0549 C   0  0  0  0  0  0  0  0  0  0  0  0
   25.0014  -20.1406  -10.3447 C   0  0  0  0  0  0  0  0  0  0  0  0
   24.8514  -18.8979  -10.3363 O   0  0  0  0  0  0  0  0  0  0  0  0
   23.0893  -17.8676  -14.8027 C   0  0  0  0  0  0  0  0  0  0  0  0
   21.8295  -19.0764  -14.5212 S   0  0  0  0  0  0  0  0  0  0  0  0
   21.5221  -19.5576  -12.8388 C   0  0  0  0  0  0  0  0  0  0  0  0
   22.6525  -20.1038  -12.0910 C   0  0  0  0  0  0  0  0  0  0  0  0
   22.5222  -20.5169  -10.6649 C   0  0  2  0  0  0  0  0  0  0  0  0
   23.8027  -20.9255  -10.1321 N   0  0  0  0  0  0  0  0  0  0  0  0
   21.4449  -21.4141  -10.3306 C   0  0  0  0  0  0  0  0  0  0  0  0
   20.4315  -21.0095   -9.6681 O   0  0  0  0  0  0  0  0  0  0  0  0
   21.4325  -22.7577  -10.6891 O   0  0  0  0  0  0  0  0  0  0  0  0
  2  1  1  6
  2  3  1  0
  4  2  1  0
  4  5  1  1
  6  7  2  0
  6  4  1  0
  8  6  1  0
  9  8  1  0
 10 11  1  0
  9 10  1  1
 11 19  1  0
 11 12  2  0
 12 13  1  0
 14 13  1  0
 14 15  2  0
 16 15  1  0
 17 16  2  0
 18 19  2  0
 18 17  1  0
 19 14  1  0
 20 21  2  0
 20  9  1  0
 23 22  1  0
 24 23  1  0
 25 24  1  0
 26 25  1  6
 26 27  1  0
 27 20  1  0
 28 26  1  0
 29 28  2  0
 30 28  1  0
M  END
$$$$
