TWM.pdb
     RDKit          3D

 30 31  0  0  1  0  0  0  0  0999 V2000
   28.4075  -19.6515  -16.2845 C   0  0  0  0  0  0  0  0  0  0  0  0
   27.4577  -19.9601  -15.1448 C   0  0  1  0  0  0  0  0  0  0  0  0
   26.1842  -19.6179  -15.5046 O   0  0  0  0  0  0  0  0  0  0  0  0
   27.6122  -21.3629  -14.6496 C   0  0  2  0  0  0  0  0  0  0  0  0
   27.2615  -22.3661  -15.5973 N   0  0  0  0  0  0  0  0  0  0  0  0
   26.9152  -21.5199  -13.3281 C   0  0  0  0  0  0  0  0  0  0  0  0
   25.7819  -22.0731  -13.2403 O   0  0  0  0  0  0  0  0  0  0  0  0
   27.4977  -21.0507  -12.1252 N   0  0  0  0  0  0  0  0  0  0  0  0
   26.7683  -21.0266  -10.8507 C   0  0  1  0  0  0  0  0  0  0  0  0
   27.6957  -20.7465   -9.7222 C   0  0  0  0  0  0  0  0  0  0  0  0
   27.0668  -20.5814   -8.4002 C   0  0  0  0  0  0  0  0  0  0  0  0
   25.7209  -20.9316   -8.1261 C   0  0  0  0  0  0  0  0  0  0  0  0
   25.4631  -20.6633   -6.8448 N   0  0  0  0  0  0  0  0  0  0  0  0
   26.5169  -20.1640   -6.2345 C   0  0  0  0  0  0  0  0  0  0  0  0
   26.7041  -19.7516   -4.9352 C   0  0  0  0  0  0  0  0  0  0  0  0
   27.9489  -19.2677   -4.6120 C   0  0  0  0  0  0  0  0  0  0  0  0
   28.9748  -19.1922   -5.5368 C   0  0  0  0  0  0  0  0  0  0  0  0
   28.7750  -19.6121   -6.8340 C   0  0  0  0  0  0  0  0  0  0  0  0
   27.5334  -20.1083   -7.2071 C   0  0  0  0  0  0  0  0  0  0  0  0
   25.5023  -20.3111  -10.9002 C   0  0  0  0  0  0  0  0  0  0  0  0
   25.3625  -19.0709  -10.9956 O   0  0  0  0  0  0  0  0  0  0  0  0
   23.0534  -20.6024  -15.8196 C   0  0  0  0  0  0  0  0  0  0  0  0
   21.8760  -19.6029  -14.9583 S   0  0  0  0  0  0  0  0  0  0  0  0
   22.1047  -19.3984  -13.2083 C   0  0  0  0  0  0  0  0  0  0  0  0
   22.5569  -20.5693  -12.4601 C   0  0  0  0  0  0  0  0  0  0  0  0
   22.9830  -20.4719  -11.0351 C   0  0  2  0  0  0  0  0  0  0  0  0
   24.2788  -21.0847  -10.8461 N   0  0  0  0  0  0  0  0  0  0  0  0
   22.0187  -20.8380  -10.0285 C   0  0  0  0  0  0  0  0  0  0  0  0
   22.0756  -21.9703   -9.4418 O   0  0  0  0  0  0  0  0  0  0  0  0
   20.9738  -20.0084   -9.6360 O   0  0  0  0  0  0  0  0  0  0  0  0
  2  1  1  6
  2  3  1  0
  4  2  1  0
  4  5  1  6
  6  7  2  0
  6  4  1  0
  8  6  1  0
  9  8  1  0
 10 11  1  0
  9 10  1  1
 11 19  1  0
 11 12  2  0
 12 13  1  0
 14 13  1  0
 14 15  2  0
 16 15  1  0
 17 16  2  0
 18 19  2  0
 18 17  1  0
 19 14  1  0
 20 21  2  0
 20  9  1  0
 23 22  1  0
 24 23  1  0
 25 24  1  0
 26 25  1  6
 26 27  1  0
 27 20  1  0
 28 26  1  0
 29 28  2  0
 30 28  1  0
M  END
$$$$
