TWM.pdb
     RDKit          3D

 30 31  0  0  1  0  0  0  0  0999 V2000
   29.5374  -24.4386  -18.5540 C   0  0  0  0  0  0  0  0  0  0  0  0
   28.5491  -23.6721  -17.6985 C   0  0  1  0  0  0  0  0  0  0  0  0
   28.6121  -24.1240  -16.4100 O   0  0  0  0  0  0  0  0  0  0  0  0
   28.7045  -22.1924  -17.8507 C   0  0  2  0  0  0  0  0  0  0  0  0
   30.0242  -21.7100  -17.6204 N   0  0  0  0  0  0  0  0  0  0  0  0
   27.6586  -21.4809  -17.0401 C   0  0  0  0  0  0  0  0  0  0  0  0
   27.9560  -20.8485  -15.9867 O   0  0  0  0  0  0  0  0  0  0  0  0
   26.2943  -21.4925  -17.4209 N   0  0  0  0  0  0  0  0  0  0  0  0
   25.2588  -20.7682  -16.6726 C   0  0  1  0  0  0  0  0  0  0  0  0
   24.1274  -20.4019  -17.5657 C   0  0  0  0  0  0  0  0  0  0  0  0
   23.0280  -19.6513  -16.9344 C   0  0  0  0  0  0  0  0  0  0  0  0
   23.1894  -18.3666  -16.3576 C   0  0  0  0  0  0  0  0  0  0  0  0
   22.0116  -17.9641  -15.8770 N   0  0  0  0  0  0  0  0  0  0  0  0
   21.0739  -18.8650  -16.0802 C   0  0  0  0  0  0  0  0  0  0  0  0
   19.7360  -18.8725  -15.7587 C   0  0  0  0  0  0  0  0  0  0  0  0
   19.0192  -19.9890  -16.1163 C   0  0  0  0  0  0  0  0  0  0  0  0
   19.5998  -21.0618  -16.7685 C   0  0  0  0  0  0  0  0  0  0  0  0
   20.9401  -21.0397  -17.0879 C   0  0  0  0  0  0  0  0  0  0  0  0
   21.7050  -19.9328  -16.7462 C   0  0  0  0  0  0  0  0  0  0  0  0
   24.9550  -21.3381  -15.3687 C   0  0  0  0  0  0  0  0  0  0  0  0
   24.9370  -22.5574  -15.0859 O   0  0  0  0  0  0  0  0  0  0  0  0
   26.8611  -20.9744   -8.0398 C   0  0  0  0  0  0  0  0  0  0  0  0
   26.8287  -20.6033   -9.7685 S   0  0  0  0  0  0  0  0  0  0  0  0
   25.2360  -20.4073  -10.5310 C   0  0  0  0  0  0  0  0  0  0  0  0
   25.2212  -20.0915  -11.9577 C   0  0  0  0  0  0  0  0  0  0  0  0
   24.4398  -20.9050  -12.9320 C   0  0  2  0  0  0  0  0  0  0  0  0
   24.6529  -20.4305  -14.2810 N   0  0  0  0  0  0  0  0  0  0  0  0
   23.0558  -21.1613  -12.6218 C   0  0  0  0  0  0  0  0  0  0  0  0
   22.5903  -22.3499  -12.6169 O   0  0  0  0  0  0  0  0  0  0  0  0
   22.1433  -20.1562  -12.3198 O   0  0  0  0  0  0  0  0  0  0  0  0
  2  1  1  6
  2  3  1  0
  4  2  1  0
  4  5  1  1
  6  7  2  0
  6  4  1  0
  8  6  1  0
  9  8  1  0
 10 11  1  0
  9 10  1  6
 11 19  1  0
 11 12  2  0
 12 13  1  0
 14 13  1  0
 14 15  2  0
 16 15  1  0
 17 16  2  0
 18 19  2  0
 18 17  1  0
 19 14  1  0
 20 21  2  0
 20  9  1  0
 23 22  1  0
 24 23  1  0
 25 24  1  0
 26 25  1  1
 26 27  1  0
 27 20  1  0
 28 26  1  0
 29 28  2  0
 30 28  1  0
M  END
$$$$
