TWM.pdb
     RDKit          3D

 30 31  0  0  1  0  0  0  0  0999 V2000
   26.5627  -18.9028  -15.7425 C   0  0  0  0  0  0  0  0  0  0  0  0
   26.0957  -19.4822  -14.4226 C   0  0  1  0  0  0  0  0  0  0  0  0
   24.7360  -19.6216  -14.4392 O   0  0  0  0  0  0  0  0  0  0  0  0
   26.8471  -20.7227  -14.0570 C   0  0  2  0  0  0  0  0  0  0  0  0
   26.7721  -21.7656  -15.0235 N   0  0  0  0  0  0  0  0  0  0  0  0
   26.4665  -21.1633  -12.6721 C   0  0  0  0  0  0  0  0  0  0  0  0
   25.8432  -22.2444  -12.4705 O   0  0  0  0  0  0  0  0  0  0  0  0
   26.7873  -20.3830  -11.5342 N   0  0  0  0  0  0  0  0  0  0  0  0
   26.4134  -20.7822  -10.1712 C   0  0  1  0  0  0  0  0  0  0  0  0
   27.1576  -19.9762   -9.1670 C   0  0  0  0  0  0  0  0  0  0  0  0
   26.9329  -20.3403   -7.7572 C   0  0  0  0  0  0  0  0  0  0  0  0
   26.0538  -21.3743   -7.3480 C   0  0  0  0  0  0  0  0  0  0  0  0
   26.0783  -21.4523   -6.0163 N   0  0  0  0  0  0  0  0  0  0  0  0
   26.8961  -20.5623   -5.4954 C   0  0  0  0  0  0  0  0  0  0  0  0
   27.2289  -20.2890   -4.1886 C   0  0  0  0  0  0  0  0  0  0  0  0
   28.1311  -19.2742   -3.9782 C   0  0  0  0  0  0  0  0  0  0  0  0
   28.6869  -18.5527   -5.0192 C   0  0  0  0  0  0  0  0  0  0  0  0
   28.3477  -18.8391   -6.3237 C   0  0  0  0  0  0  0  0  0  0  0  0
   27.4397  -19.8560   -6.5852 C   0  0  0  0  0  0  0  0  0  0  0  0
   24.9851  -20.9820   -9.9777 C   0  0  0  0  0  0  0  0  0  0  0  0
   24.4464  -21.5166   -8.9823 O   0  0  0  0  0  0  0  0  0  0  0  0
   18.9665  -20.9939   -6.7250 C   0  0  0  0  0  0  0  0  0  0  0  0
   20.3603  -20.2055   -7.4755 S   0  0  0  0  0  0  0  0  0  0  0  0
   20.8465  -20.7704   -9.0883 C   0  0  0  0  0  0  0  0  0  0  0  0
   22.1529  -20.3328   -9.5753 C   0  0  0  0  0  0  0  0  0  0  0  0
   22.6558  -20.7192  -10.9241 C   0  0  2  0  0  0  0  0  0  0  0  0
   24.0849  -20.5187  -11.0135 N   0  0  0  0  0  0  0  0  0  0  0  0
   21.9308  -20.2262  -12.0680 C   0  0  0  0  0  0  0  0  0  0  0  0
   20.6688  -20.3895  -12.1693 O   0  0  0  0  0  0  0  0  0  0  0  0
   22.5382  -19.5585  -13.1260 O   0  0  0  0  0  0  0  0  0  0  0  0
  2  1  1  6
  2  3  1  0
  4  2  1  0
  4  5  1  6
  6  7  2  0
  6  4  1  0
  8  6  1  0
  9  8  1  0
 10 11  1  0
  9 10  1  1
 11 19  1  0
 11 12  2  0
 12 13  1  0
 14 13  1  0
 14 15  2  0
 16 15  1  0
 17 16  2  0
 18 19  2  0
 18 17  1  0
 19 14  1  0
 20 21  2  0
 20  9  1  0
 23 22  1  0
 24 23  1  0
 25 24  1  0
 26 25  1  1
 26 27  1  0
 27 20  1  0
 28 26  1  0
 29 28  2  0
 30 28  1  0
M  END
$$$$
