EMR.pdb
     RDKit          3D

 29 28  0  0  1  0  0  0  0  0999 V2000
   28.2687  -20.6927  -14.1002 N   0  0  0  0  0  0  0  0  0  0  0  0
   27.9574  -19.9946  -15.3078 C   0  0  1  0  0  0  0  0  0  0  0  0
   27.6675  -20.9055  -16.4807 C   0  0  0  0  0  0  0  0  0  0  0  0
   28.8532  -21.8238  -16.6979 C   0  0  0  0  0  0  0  0  0  0  0  0
   28.6504  -22.6523  -17.9118 C   0  0  0  0  0  0  0  0  0  0  0  0
   28.1950  -23.8124  -17.8111 O   0  0  0  0  0  0  0  0  0  0  0  0
   26.8991  -18.9936  -15.0813 C   0  0  0  0  0  0  0  0  0  0  0  0
   25.9574  -19.1549  -14.2594 O   0  0  0  0  0  0  0  0  0  0  0  0
   28.9597  -22.1586  -19.1673 O   0  0  0  0  0  0  0  0  0  0  0  0
   23.6107  -12.4755  -14.9474 C   0  0  0  0  0  0  0  0  0  0  0  0
   24.8143  -13.7930  -14.6387 S   0  0  0  0  0  0  0  0  0  0  0  0
   25.4847  -14.3103  -16.2553 C   0  0  0  0  0  0  0  0  0  0  0  0
   26.4620  -15.4383  -16.0932 C   0  0  0  0  0  0  0  0  0  0  0  0
   25.8818  -16.7579  -15.7195 C   0  0  2  0  0  0  0  0  0  0  0  0
   26.9191  -17.7915  -15.8063 N   0  0  0  0  0  0  0  0  0  0  0  0
   24.6722  -17.1674  -16.4523 C   0  0  0  0  0  0  0  0  0  0  0  0
   24.7811  -17.5619  -17.6390 O   0  0  0  0  0  0  0  0  0  0  0  0
   20.5554  -23.2082  -14.5269 N   0  0  0  0  0  0  0  0  0  0  0  0
   19.8270  -21.9811  -14.5059 C   0  0  0  0  0  0  0  0  0  0  0  0
   18.5877  -21.9753  -14.1945 N   0  0  0  0  0  0  0  0  0  0  0  0
   20.5528  -20.8026  -14.8473 N   0  0  0  0  0  0  0  0  0  0  0  0
   21.9450  -20.9273  -15.1934 C   0  0  0  0  0  0  0  0  0  0  0  0
   22.5349  -19.5433  -15.4766 C   0  0  0  0  0  0  0  0  0  0  0  0
   21.6156  -18.7389  -16.3491 C   0  0  0  0  0  0  0  0  0  0  0  0
   22.2387  -17.4397  -16.7268 C   0  0  2  0  0  0  0  0  0  0  0  0
   23.3683  -17.1283  -15.8481 N   0  0  0  0  0  0  0  0  0  0  0  0
   21.2662  -16.3383  -16.5623 C   0  0  0  0  0  0  0  0  0  0  0  0
   21.5250  -15.4585  -15.6631 O   0  0  0  0  0  0  0  0  0  0  0  0
   20.1150  -16.2227  -17.3277 O   0  0  0  0  0  0  0  0  0  0  0  0
  2  1  1  1
  2  3  1  0
  3  4  1  0
  4  5  1  0
  5  9  1  0
  5  6  2  0
  7  2  1  0
  7  8  2  0
 10 11  1  0
 11 12  1  0
 13 12  1  0
 14 13  1  6
 14 15  1  0
 15  7  1  0
 16 14  1  0
 17 16  2  0
 18 19  1  0
 19 21  1  0
 20 19  2  0
 21 22  1  0
 22 23  1  0
 23 24  1  0
 25 24  1  1
 25 26  1  0
 25 27  1  0
 26 16  1  0
 27 29  1  0
 28 27  2  0
M  END
$$$$
