EMR.pdb
     RDKit          3D

 29 28  0  0  1  0  0  0  0  0999 V2000
   28.4344  -21.9263  -14.6697 N   0  0  0  0  0  0  0  0  0  0  0  0
   28.4086  -20.9125  -13.6628 C   0  0  1  0  0  0  0  0  0  0  0  0
   28.4465  -19.5042  -14.2149 C   0  0  0  0  0  0  0  0  0  0  0  0
   27.2330  -19.2862  -15.0960 C   0  0  0  0  0  0  0  0  0  0  0  0
   27.2101  -17.8947  -15.6100 C   0  0  0  0  0  0  0  0  0  0  0  0
   28.1606  -17.1198  -15.3664 O   0  0  0  0  0  0  0  0  0  0  0  0
   27.2957  -21.1316  -12.7211 C   0  0  0  0  0  0  0  0  0  0  0  0
   26.2624  -21.7922  -13.0115 O   0  0  0  0  0  0  0  0  0  0  0  0
   26.1438  -17.4341  -16.3627 O   0  0  0  0  0  0  0  0  0  0  0  0
   28.0526  -19.0107   -6.7193 C   0  0  0  0  0  0  0  0  0  0  0  0
   28.6604  -20.6910   -7.0136 S   0  0  0  0  0  0  0  0  0  0  0  0
   28.0744  -21.2027   -8.6644 C   0  0  0  0  0  0  0  0  0  0  0  0
   26.8678  -20.4088   -9.0739 C   0  0  0  0  0  0  0  0  0  0  0  0
   26.3097  -20.7145  -10.4202 C   0  0  2  0  0  0  0  0  0  0  0  0
   27.3666  -20.5864  -11.4293 N   0  0  0  0  0  0  0  0  0  0  0  0
   25.1130  -19.9536  -10.8161 C   0  0  0  0  0  0  0  0  0  0  0  0
   25.2013  -19.1180  -11.7487 O   0  0  0  0  0  0  0  0  0  0  0  0
   21.1181  -22.5435  -16.4599 N   0  0  0  0  0  0  0  0  0  0  0  0
   21.3749  -21.1771  -16.7821 C   0  0  0  0  0  0  0  0  0  0  0  0
   20.8278  -20.6452  -17.8071 N   0  0  0  0  0  0  0  0  0  0  0  0
   22.2563  -20.4715  -15.9117 N   0  0  0  0  0  0  0  0  0  0  0  0
   22.7731  -21.1539  -14.7538 C   0  0  0  0  0  0  0  0  0  0  0  0
   22.3844  -20.3900  -13.4853 C   0  0  0  0  0  0  0  0  0  0  0  0
   23.0050  -21.0188  -12.2716 C   0  0  0  0  0  0  0  0  0  0  0  0
   22.6767  -20.2446  -11.0421 C   0  0  2  0  0  0  0  0  0  0  0  0
   23.8449  -20.1393  -10.1649 N   0  0  0  0  0  0  0  0  0  0  0  0
   21.6311  -20.9408  -10.2624 C   0  0  0  0  0  0  0  0  0  0  0  0
   22.0039  -21.5455   -9.1925 O   0  0  0  0  0  0  0  0  0  0  0  0
   20.2947  -20.9607  -10.6346 O   0  0  0  0  0  0  0  0  0  0  0  0
  2  1  1  6
  2  3  1  0
  3  4  1  0
  4  5  1  0
  5  9  1  0
  5  6  2  0
  7  2  1  0
  7  8  2  0
 10 11  1  0
 11 12  1  0
 13 12  1  0
 14 13  1  1
 14 15  1  0
 15  7  1  0
 16 14  1  0
 17 16  2  0
 18 19  1  0
 19 21  1  0
 20 19  2  0
 21 22  1  0
 22 23  1  0
 23 24  1  0
 25 24  1  6
 25 26  1  0
 25 27  1  0
 26 16  1  0
 27 29  1  0
 28 27  2  0
M  END
$$$$
