EMR.pdb
     RDKit          3D

 29 28  0  0  1  0  0  0  0  0999 V2000
   21.5254  -15.1616  -19.7475 N   0  0  0  0  0  0  0  0  0  0  0  0
   20.5941  -14.5107  -18.8806 C   0  0  1  0  0  0  0  0  0  0  0  0
   19.7348  -15.4663  -18.0819 C   0  0  0  0  0  0  0  0  0  0  0  0
   20.5437  -16.7063  -17.7591 C   0  0  0  0  0  0  0  0  0  0  0  0
   19.6570  -17.8918  -17.6620 C   0  0  0  0  0  0  0  0  0  0  0  0
   19.5871  -18.5376  -16.5936 O   0  0  0  0  0  0  0  0  0  0  0  0
   21.2688  -13.5043  -18.0408 C   0  0  0  0  0  0  0  0  0  0  0  0
   20.6777  -12.8360  -17.1507 O   0  0  0  0  0  0  0  0  0  0  0  0
   18.8974  -18.3000  -18.7446 O   0  0  0  0  0  0  0  0  0  0  0  0
   27.3029  -11.2231  -14.5141 C   0  0  0  0  0  0  0  0  0  0  0  0
   26.3014  -12.3903  -15.4702 S   0  0  0  0  0  0  0  0  0  0  0  0
   25.8042  -11.5490  -17.0114 C   0  0  0  0  0  0  0  0  0  0  0  0
   24.8566  -12.4012  -17.8048 C   0  0  0  0  0  0  0  0  0  0  0  0
   23.4179  -12.2983  -17.4346 C   0  0  2  0  0  0  0  0  0  0  0  0
   22.6391  -13.2593  -18.2232 N   0  0  0  0  0  0  0  0  0  0  0  0
   22.8215  -10.9543  -17.5099 C   0  0  0  0  0  0  0  0  0  0  0  0
   22.6788  -10.4114  -18.6327 O   0  0  0  0  0  0  0  0  0  0  0  0
   15.6002   -7.1765  -15.5430 N   0  0  0  0  0  0  0  0  0  0  0  0
   16.3088   -6.0766  -16.1129 C   0  0  0  0  0  0  0  0  0  0  0  0
   15.7207   -4.9558  -16.2889 N   0  0  0  0  0  0  0  0  0  0  0  0
   17.6713   -6.3080  -16.4626 N   0  0  0  0  0  0  0  0  0  0  0  0
   18.2359   -7.6083  -16.2094 C   0  0  0  0  0  0  0  0  0  0  0  0
   19.7429   -7.5804  -16.4777 C   0  0  0  0  0  0  0  0  0  0  0  0
   20.3388   -8.9494  -16.3222 C   0  0  0  0  0  0  0  0  0  0  0  0
   21.8099   -8.9211  -16.5540 C   0  0  2  0  0  0  0  0  0  0  0  0
   22.3979  -10.2443  -16.3338 N   0  0  0  0  0  0  0  0  0  0  0  0
   22.4626   -8.0090  -15.5906 C   0  0  0  0  0  0  0  0  0  0  0  0
   22.9227   -8.5302  -14.5107 O   0  0  0  0  0  0  0  0  0  0  0  0
   22.5952   -6.6452  -15.8079 O   0  0  0  0  0  0  0  0  0  0  0  0
  2  1  1  1
  2  3  1  0
  3  4  1  0
  4  5  1  0
  5  9  1  0
  5  6  2  0
  7  2  1  0
  7  8  2  0
 10 11  1  0
 11 12  1  0
 13 12  1  0
 14 13  1  6
 14 15  1  0
 15  7  1  0
 16 14  1  0
 17 16  2  0
 18 19  1  0
 19 21  1  0
 20 19  2  0
 21 22  1  0
 22 23  1  0
 23 24  1  0
 25 24  1  1
 25 26  1  0
 25 27  1  0
 26 16  1  0
 27 29  1  0
 28 27  2  0
M  END
$$$$
