EMR.pdb
     RDKit          3D

 29 28  0  0  1  0  0  0  0  0999 V2000
   28.6327  -21.8223  -18.0810 N   0  0  0  0  0  0  0  0  0  0  0  0
   29.2891  -20.5528  -18.0775 C   0  0  1  0  0  0  0  0  0  0  0  0
   29.5336  -19.9894  -19.4604 C   0  0  0  0  0  0  0  0  0  0  0  0
   29.4775  -21.1176  -20.4705 C   0  0  0  0  0  0  0  0  0  0  0  0
   28.3693  -20.8968  -21.4319 C   0  0  0  0  0  0  0  0  0  0  0  0
   28.1626  -21.7188  -22.3511 O   0  0  0  0  0  0  0  0  0  0  0  0
   28.6002  -19.6045  -17.1834 C   0  0  0  0  0  0  0  0  0  0  0  0
   28.9830  -18.4170  -17.0057 O   0  0  0  0  0  0  0  0  0  0  0  0
   27.5514  -19.7852  -21.3282 O   0  0  0  0  0  0  0  0  0  0  0  0
   26.6287  -15.9003  -13.9932 C   0  0  0  0  0  0  0  0  0  0  0  0
   25.6355  -16.0074  -15.5037 S   0  0  0  0  0  0  0  0  0  0  0  0
   24.7351  -17.5939  -15.4543 C   0  0  0  0  0  0  0  0  0  0  0  0
   25.4851  -18.6585  -16.2012 C   0  0  0  0  0  0  0  0  0  0  0  0
   26.7136  -19.1793  -15.5400 C   0  0  2  0  0  0  0  0  0  0  0  0
   27.4575  -20.0220  -16.4826 N   0  0  0  0  0  0  0  0  0  0  0  0
   26.5166  -19.8760  -14.2580 C   0  0  0  0  0  0  0  0  0  0  0  0
   26.1220  -21.0676  -14.2647 O   0  0  0  0  0  0  0  0  0  0  0  0
   20.7933  -19.5967  -11.6760 N   0  0  0  0  0  0  0  0  0  0  0  0
   21.0020  -20.9781  -11.3843 C   0  0  0  0  0  0  0  0  0  0  0  0
   20.2328  -21.8645  -11.8897 N   0  0  0  0  0  0  0  0  0  0  0  0
   22.0899  -21.2895  -10.5172 N   0  0  0  0  0  0  0  0  0  0  0  0
   22.9715  -20.2265  -10.1094 C   0  0  0  0  0  0  0  0  0  0  0  0
   24.4191  -20.5965  -10.4436 C   0  0  0  0  0  0  0  0  0  0  0  0
   25.0624  -19.5318  -11.2839 C   0  0  0  0  0  0  0  0  0  0  0  0
   26.3842  -19.9848  -11.8000 C   0  0  2  0  0  0  0  0  0  0  0  0
   26.7626  -19.2307  -12.9972 N   0  0  0  0  0  0  0  0  0  0  0  0
   26.3161  -21.4049  -12.2058 C   0  0  0  0  0  0  0  0  0  0  0  0
   25.9115  -21.6539  -13.3990 O   0  0  0  0  0  0  0  0  0  0  0  0
   26.6682  -22.4512  -11.3656 O   0  0  0  0  0  0  0  0  0  0  0  0
  2  1  1  6
  2  3  1  0
  3  4  1  0
  4  5  1  0
  5  9  1  0
  5  6  2  0
  7  2  1  0
  7  8  2  0
 10 11  1  0
 11 12  1  0
 13 12  1  0
 14 13  1  6
 14 15  1  0
 15  7  1  0
 16 14  1  0
 17 16  2  0
 18 19  1  0
 19 21  1  0
 20 19  2  0
 21 22  1  0
 22 23  1  0
 23 24  1  0
 25 24  1  6
 25 26  1  0
 25 27  1  0
 26 16  1  0
 27 29  1  0
 28 27  2  0
M  END
$$$$
