EMR.pdb
     RDKit          3D

 29 28  0  0  1  0  0  0  0  0999 V2000
   16.5555  -10.4214  -10.6778 N   0  0  0  0  0  0  0  0  0  0  0  0
   16.2986   -9.0248  -10.8389 C   0  0  1  0  0  0  0  0  0  0  0  0
   15.5172   -8.4132   -9.6967 C   0  0  0  0  0  0  0  0  0  0  0  0
   14.2324   -9.1931   -9.5036 C   0  0  0  0  0  0  0  0  0  0  0  0
   13.1790   -8.6898  -10.4192 C   0  0  0  0  0  0  0  0  0  0  0  0
   12.4596   -9.4940  -11.0508 O   0  0  0  0  0  0  0  0  0  0  0  0
   17.5404   -8.2913  -11.1444 C   0  0  0  0  0  0  0  0  0  0  0  0
   17.6250   -7.0339  -11.1248 O   0  0  0  0  0  0  0  0  0  0  0  0
   12.9763   -7.3312  -10.5883 O   0  0  0  0  0  0  0  0  0  0  0  0
   23.7759  -10.6682  -11.5647 C   0  0  0  0  0  0  0  0  0  0  0  0
   23.0811  -10.2879   -9.9361 S   0  0  0  0  0  0  0  0  0  0  0  0
   21.7017   -9.1203  -10.1897 C   0  0  0  0  0  0  0  0  0  0  0  0
   21.0972   -9.2940  -11.5529 C   0  0  0  0  0  0  0  0  0  0  0  0
   19.9653   -8.3858  -11.8870 C   0  0  2  0  0  0  0  0  0  0  0  0
   18.7012   -9.0073  -11.4774 N   0  0  0  0  0  0  0  0  0  0  0  0
   19.8930   -7.9232  -13.2829 C   0  0  0  0  0  0  0  0  0  0  0  0
   19.5185   -8.7247  -14.1734 O   0  0  0  0  0  0  0  0  0  0  0  0
   14.4445   -3.9476  -17.0620 N   0  0  0  0  0  0  0  0  0  0  0  0
   15.3962   -3.2159  -16.2901 C   0  0  0  0  0  0  0  0  0  0  0  0
   15.0783   -2.0884  -15.7797 N   0  0  0  0  0  0  0  0  0  0  0  0
   16.6832   -3.8092  -16.1353 N   0  0  0  0  0  0  0  0  0  0  0  0
   17.0559   -4.8852  -17.0167 C   0  0  0  0  0  0  0  0  0  0  0  0
   18.5027   -5.3034  -16.7413 C   0  0  0  0  0  0  0  0  0  0  0  0
   18.6657   -5.7602  -15.3207 C   0  0  0  0  0  0  0  0  0  0  0  0
   20.0556   -6.2322  -15.0675 C   0  0  2  0  0  0  0  0  0  0  0  0
   20.2396   -6.5790  -13.6565 N   0  0  0  0  0  0  0  0  0  0  0  0
   21.0240   -5.1543  -15.3618 C   0  0  0  0  0  0  0  0  0  0  0  0
   21.6296   -4.6226  -14.3618 O   0  0  0  0  0  0  0  0  0  0  0  0
   21.2970   -4.7106  -16.6476 O   0  0  0  0  0  0  0  0  0  0  0  0
  2  1  1  1
  2  3  1  0
  3  4  1  0
  4  5  1  0
  5  9  1  0
  5  6  2  0
  7  2  1  0
  7  8  2  0
 10 11  1  0
 11 12  1  0
 13 12  1  0
 14 13  1  6
 14 15  1  0
 15  7  1  0
 16 14  1  0
 17 16  2  0
 18 19  1  0
 19 21  1  0
 20 19  2  0
 21 22  1  0
 22 23  1  0
 23 24  1  0
 25 24  1  1
 25 26  1  0
 25 27  1  0
 26 16  1  0
 27 29  1  0
 28 27  2  0
M  END
$$$$
