IME.pdb
     RDKit          3D

 26 25  0  0  1  0  0  0  0  0999 V2000
    6.9328  -12.6468   17.8685 C   0  0  0  0  0  0  0  0  0  0  0  0
    7.3233  -13.9156   18.5698 C   0  0  0  0  0  0  0  0  0  0  0  0
    8.1271  -13.6305   19.8429 C   0  0  2  0  0  0  0  0  0  0  0  0
    9.4286  -13.0189   19.4540 C   0  0  0  0  0  0  0  0  0  0  0  0
    8.2545  -14.9421   20.5760 C   0  0  2  0  0  0  0  0  0  0  0  0
    6.9124  -15.5449   20.5619 N   0  0  0  0  0  0  0  0  0  0  0  0
    8.6577  -14.7716   21.9986 C   0  0  0  0  0  0  0  0  0  0  0  0
    9.8559  -14.5653   22.3107 O   0  0  0  0  0  0  0  0  0  0  0  0
    6.3641  -10.9186   26.7217 C   0  0  0  0  0  0  0  0  0  0  0  0
    5.9139  -12.6324   27.1283 S   0  0  0  0  0  0  0  0  0  0  0  0
    7.2604  -13.7691   26.6111 C   0  0  0  0  0  0  0  0  0  0  0  0
    7.0199  -14.0749   25.1777 C   0  0  0  0  0  0  0  0  0  0  0  0
    8.1808  -14.6734   24.4273 C   0  0  2  0  0  0  0  0  0  0  0  0
    7.7036  -14.8369   23.0488 N   0  0  0  0  0  0  0  0  0  0  0  0
    8.5213  -15.9822   25.0208 C   0  0  0  0  0  0  0  0  0  0  0  0
    7.6565  -16.8957   25.0545 O   0  0  0  0  0  0  0  0  0  0  0  0
    9.8043  -16.2184   25.5496 N   0  0  0  0  0  0  0  0  0  0  0  0
   10.1846  -17.5332   26.0839 C   0  0  1  0  0  0  0  0  0  0  0  0
   11.2943  -18.0025   25.2080 C   0  0  0  0  0  0  0  0  0  0  0  0
   12.5768  -17.2558   25.2816 C   0  0  0  0  0  0  0  0  0  0  0  0
   13.2231  -17.0759   23.9792 C   0  0  0  0  0  0  0  0  0  0  0  0
   13.4162  -18.0597   23.1837 O   0  0  0  0  0  0  0  0  0  0  0  0
   10.3427  -17.5698   27.5138 C   0  0  0  0  0  0  0  0  0  0  0  0
   10.6490  -18.6128   28.1838 O   0  0  0  0  0  0  0  0  0  0  0  0
   13.6487  -15.8220   23.5656 O   0  0  0  0  0  0  0  0  0  0  0  0
   10.1757  -16.4237   28.2949 O   0  0  0  0  0  0  0  0  0  0  0  0
  2  1  1  0
  3  4  1  6
  3  2  1  0
  5  3  1  0
  5  6  1  1
  7  8  2  0
  7  5  1  0
  9 10  1  0
 10 11  1  0
 11 12  1  0
 13 12  1  1
 13 14  1  0
 14  7  1  0
 15 13  1  0
 16 15  2  0
 17 15  1  0
 18 17  1  0
 18 19  1  6
 19 20  1  0
 20 21  1  0
 21 22  2  0
 23 26  1  0
 23 18  1  0
 24 23  2  0
 25 21  1  0
M  END
$$$$
