IME.pdb
     RDKit          3D

 26 25  0  0  1  0  0  0  0  0999 V2000
    2.4235  -18.9175   21.5734 C   0  0  0  0  0  0  0  0  0  0  0  0
    3.7373  -19.1129   22.2734 C   0  0  0  0  0  0  0  0  0  0  0  0
    4.6131  -17.8585   22.1869 C   0  0  2  0  0  0  0  0  0  0  0  0
    4.7483  -17.4734   20.7542 C   0  0  0  0  0  0  0  0  0  0  0  0
    5.9184  -18.1958   22.8626 C   0  0  2  0  0  0  0  0  0  0  0  0
    5.5629  -18.7100   24.1945 N   0  0  0  0  0  0  0  0  0  0  0  0
    6.7924  -17.0068   23.0564 C   0  0  0  0  0  0  0  0  0  0  0  0
    7.5384  -16.5955   22.1345 O   0  0  0  0  0  0  0  0  0  0  0  0
    5.5757  -11.2322   26.2436 C   0  0  0  0  0  0  0  0  0  0  0  0
    6.8859  -12.1684   27.0874 S   0  0  0  0  0  0  0  0  0  0  0  0
    7.8985  -13.0739   25.8517 C   0  0  0  0  0  0  0  0  0  0  0  0
    7.1246  -14.2884   25.4882 C   0  0  0  0  0  0  0  0  0  0  0  0
    7.7249  -15.1555   24.4126 C   0  0  2  0  0  0  0  0  0  0  0  0
    6.8128  -16.2988   24.2877 N   0  0  0  0  0  0  0  0  0  0  0  0
    9.0664  -15.6018   24.8394 C   0  0  0  0  0  0  0  0  0  0  0  0
    9.9142  -14.7534   25.2200 O   0  0  0  0  0  0  0  0  0  0  0  0
    9.4066  -16.9677   24.8246 N   0  0  0  0  0  0  0  0  0  0  0  0
   10.7723  -17.4221   25.1197 C   0  0  1  0  0  0  0  0  0  0  0  0
   10.6034  -18.6523   25.9426 C   0  0  0  0  0  0  0  0  0  0  0  0
   10.3152  -18.4654   27.3883 C   0  0  0  0  0  0  0  0  0  0  0  0
   10.2216  -19.7239   28.1323 C   0  0  0  0  0  0  0  0  0  0  0  0
   10.3092  -20.8585   27.5466 O   0  0  0  0  0  0  0  0  0  0  0  0
   11.6502  -17.4438   23.9796 C   0  0  0  0  0  0  0  0  0  0  0  0
   12.9200  -17.5626   24.0432 O   0  0  0  0  0  0  0  0  0  0  0  0
   10.0336  -19.7231   29.5068 O   0  0  0  0  0  0  0  0  0  0  0  0
   11.1554  -17.3424   22.6770 O   0  0  0  0  0  0  0  0  0  0  0  0
  2  1  1  0
  3  4  1  6
  3  2  1  0
  5  3  1  0
  5  6  1  1
  7  8  2  0
  7  5  1  0
  9 10  1  0
 10 11  1  0
 11 12  1  0
 13 12  1  1
 13 14  1  0
 14  7  1  0
 15 13  1  0
 16 15  2  0
 17 15  1  0
 18 17  1  0
 18 19  1  6
 19 20  1  0
 20 21  1  0
 21 22  2  0
 23 26  1  0
 23 18  1  0
 24 23  2  0
 25 21  1  0
M  END
$$$$
