IME.pdb
     RDKit          3D

 26 25  0  0  1  0  0  0  0  0999 V2000
    7.8166  -11.8806   20.0938 C   0  0  0  0  0  0  0  0  0  0  0  0
    7.6819  -13.2097   20.7791 C   0  0  0  0  0  0  0  0  0  0  0  0
    8.4548  -14.3059   20.0378 C   0  0  2  0  0  0  0  0  0  0  0  0
    7.8878  -14.4404   18.6668 C   0  0  0  0  0  0  0  0  0  0  0  0
    8.3460  -15.5539   20.8774 C   0  0  2  0  0  0  0  0  0  0  0  0
    6.9158  -15.8981   20.9060 N   0  0  0  0  0  0  0  0  0  0  0  0
    8.7880  -15.3444   22.2831 C   0  0  0  0  0  0  0  0  0  0  0  0
    9.9889  -15.0985   22.5534 O   0  0  0  0  0  0  0  0  0  0  0  0
    7.5694  -11.5424   27.4385 C   0  0  0  0  0  0  0  0  0  0  0  0
    6.2324  -12.3579   26.5152 S   0  0  0  0  0  0  0  0  0  0  0  0
    6.9240  -13.2169   25.0468 C   0  0  0  0  0  0  0  0  0  0  0  0
    7.2880  -14.5846   25.4974 C   0  0  0  0  0  0  0  0  0  0  0  0
    8.3918  -15.2608   24.7268 C   0  0  2  0  0  0  0  0  0  0  0  0
    7.8691  -15.4158   23.3639 N   0  0  0  0  0  0  0  0  0  0  0  0
    8.6714  -16.5786   25.3320 C   0  0  0  0  0  0  0  0  0  0  0  0
    7.7577  -17.4413   25.3975 O   0  0  0  0  0  0  0  0  0  0  0  0
    9.9505  -16.8795   25.8369 N   0  0  0  0  0  0  0  0  0  0  0  0
   10.2520  -18.1874   26.4346 C   0  0  1  0  0  0  0  0  0  0  0  0
   11.2246  -18.8252   25.5039 C   0  0  0  0  0  0  0  0  0  0  0  0
   12.0797  -17.9196   24.6936 C   0  0  0  0  0  0  0  0  0  0  0  0
   13.0685  -18.6270   23.8762 C   0  0  0  0  0  0  0  0  0  0  0  0
   13.1191  -19.9053   23.8398 O   0  0  0  0  0  0  0  0  0  0  0  0
   10.5395  -18.1439   27.8440 C   0  0  0  0  0  0  0  0  0  0  0  0
   10.5684  -17.0779   28.5464 O   0  0  0  0  0  0  0  0  0  0  0  0
   13.9879  -17.9255   23.1099 O   0  0  0  0  0  0  0  0  0  0  0  0
   10.8069  -19.3076   28.5693 O   0  0  0  0  0  0  0  0  0  0  0  0
  2  1  1  0
  3  4  1  6
  3  2  1  0
  5  3  1  0
  5  6  1  1
  7  8  2  0
  7  5  1  0
  9 10  1  0
 10 11  1  0
 11 12  1  0
 13 12  1  1
 13 14  1  0
 14  7  1  0
 15 13  1  0
 16 15  2  0
 17 15  1  0
 18 17  1  0
 18 19  1  6
 19 20  1  0
 20 21  1  0
 21 22  2  0
 23 26  1  0
 23 18  1  0
 24 23  2  0
 25 21  1  0
M  END
$$$$
