IME.pdb
     RDKit          3D

 26 25  0  0  1  0  0  0  0  0999 V2000
   11.5603  -14.5794   29.9862 C   0  0  0  0  0  0  0  0  0  0  0  0
   10.5227  -15.5835   29.5745 C   0  0  0  0  0  0  0  0  0  0  0  0
   10.2908  -15.5643   28.0598 C   0  0  2  0  0  0  0  0  0  0  0  0
   10.1877  -14.1464   27.6147 C   0  0  0  0  0  0  0  0  0  0  0  0
    9.0522  -16.3851   27.8023 C   0  0  2  0  0  0  0  0  0  0  0  0
    9.3342  -17.7233   28.3451 N   0  0  0  0  0  0  0  0  0  0  0  0
    8.7534  -16.5400   26.3525 C   0  0  0  0  0  0  0  0  0  0  0  0
    8.7082  -17.6755   25.8194 O   0  0  0  0  0  0  0  0  0  0  0  0
    5.6385  -11.2994   26.0625 C   0  0  0  0  0  0  0  0  0  0  0  0
    6.8939  -12.0426   24.9777 S   0  0  0  0  0  0  0  0  0  0  0  0
    6.3647  -13.7283   24.4770 C   0  0  0  0  0  0  0  0  0  0  0  0
    7.4925  -14.3060   23.7021 C   0  0  0  0  0  0  0  0  0  0  0  0
    7.9958  -15.6465   24.1699 C   0  0  2  0  0  0  0  0  0  0  0  0
    8.5104  -15.4118   25.5245 N   0  0  0  0  0  0  0  0  0  0  0  0
    9.0767  -16.1010   23.2721 C   0  0  0  0  0  0  0  0  0  0  0  0
    8.7997  -16.4811   22.1050 O   0  0  0  0  0  0  0  0  0  0  0  0
   10.4148  -16.1134   23.7091 N   0  0  0  0  0  0  0  0  0  0  0  0
   11.4751  -16.7527   22.9179 C   0  0  1  0  0  0  0  0  0  0  0  0
   11.9899  -15.6813   22.0202 C   0  0  0  0  0  0  0  0  0  0  0  0
   13.1137  -16.0380   21.1158 C   0  0  0  0  0  0  0  0  0  0  0  0
   13.5369  -14.9361   20.2479 C   0  0  0  0  0  0  0  0  0  0  0  0
   12.7204  -14.3586   19.4492 O   0  0  0  0  0  0  0  0  0  0  0  0
   12.4002  -17.5390   23.6905 C   0  0  0  0  0  0  0  0  0  0  0  0
   12.4804  -17.5211   24.9648 O   0  0  0  0  0  0  0  0  0  0  0  0
   14.8474  -14.4817   20.2665 O   0  0  0  0  0  0  0  0  0  0  0  0
   13.3002  -18.4149   23.0786 O   0  0  0  0  0  0  0  0  0  0  0  0
  2  1  1  0
  3  4  1  1
  3  2  1  0
  5  3  1  0
  5  6  1  6
  7  8  2  0
  7  5  1  0
  9 10  1  0
 10 11  1  0
 11 12  1  0
 13 12  1  6
 13 14  1  0
 14  7  1  0
 15 13  1  0
 16 15  2  0
 17 15  1  0
 18 17  1  0
 18 19  1  1
 19 20  1  0
 20 21  1  0
 21 22  2  0
 23 26  1  0
 23 18  1  0
 24 23  2  0
 25 21  1  0
M  END
$$$$
