IME.pdb
     RDKit          3D

 26 25  0  0  1  0  0  0  0  0999 V2000
    7.4729  -11.8836   20.1340 C   0  0  0  0  0  0  0  0  0  0  0  0
    7.6134  -13.2054   20.8321 C   0  0  0  0  0  0  0  0  0  0  0  0
    8.4741  -14.1809   20.0221 C   0  0  2  0  0  0  0  0  0  0  0  0
    7.7889  -14.4544   18.7279 C   0  0  0  0  0  0  0  0  0  0  0  0
    8.6738  -15.4005   20.8862 C   0  0  2  0  0  0  0  0  0  0  0  0
    7.3594  -16.0565   20.9692 N   0  0  0  0  0  0  0  0  0  0  0  0
    9.0980  -15.0629   22.2723 C   0  0  0  0  0  0  0  0  0  0  0  0
   10.1170  -14.3612   22.4838 O   0  0  0  0  0  0  0  0  0  0  0  0
    6.6490  -11.6555   25.8310 C   0  0  0  0  0  0  0  0  0  0  0  0
    7.0104  -12.6960   27.2773 S   0  0  0  0  0  0  0  0  0  0  0  0
    8.2192  -14.0004   26.8193 C   0  0  0  0  0  0  0  0  0  0  0  0
    7.9074  -14.3841   25.4187 C   0  0  0  0  0  0  0  0  0  0  0  0
    8.9209  -15.2641   24.7349 C   0  0  2  0  0  0  0  0  0  0  0  0
    8.3668  -15.5220   23.4002 N   0  0  0  0  0  0  0  0  0  0  0  0
    9.0632  -16.5231   25.4935 C   0  0  0  0  0  0  0  0  0  0  0  0
    8.0767  -17.2954   25.6111 O   0  0  0  0  0  0  0  0  0  0  0  0
   10.2921  -16.8682   26.0870 N   0  0  0  0  0  0  0  0  0  0  0  0
   10.4628  -18.1291   26.8218 C   0  0  1  0  0  0  0  0  0  0  0  0
   11.6093  -18.8123   26.1603 C   0  0  0  0  0  0  0  0  0  0  0  0
   11.5582  -18.9417   24.6809 C   0  0  0  0  0  0  0  0  0  0  0  0
   12.8710  -18.8336   24.0398 C   0  0  0  0  0  0  0  0  0  0  0  0
   13.9405  -18.6685   24.7230 O   0  0  0  0  0  0  0  0  0  0  0  0
   10.4486  -17.9882   28.2539 C   0  0  0  0  0  0  0  0  0  0  0  0
   10.3216  -16.8786   28.8730 O   0  0  0  0  0  0  0  0  0  0  0  0
   12.9948  -18.9078   22.6601 O   0  0  0  0  0  0  0  0  0  0  0  0
   10.5674  -19.0964   29.0963 O   0  0  0  0  0  0  0  0  0  0  0  0
  2  1  1  0
  3  4  1  6
  3  2  1  0
  5  3  1  0
  5  6  1  1
  7  8  2  0
  7  5  1  0
  9 10  1  0
 10 11  1  0
 11 12  1  0
 13 12  1  1
 13 14  1  0
 14  7  1  0
 15 13  1  0
 16 15  2  0
 17 15  1  0
 18 17  1  0
 18 19  1  6
 19 20  1  0
 20 21  1  0
 21 22  2  0
 23 26  1  0
 23 18  1  0
 24 23  2  0
 25 21  1  0
M  END
$$$$
