IME.pdb
     RDKit          3D

 26 25  0  0  1  0  0  0  0  0999 V2000
    6.2233  -15.1048   17.4453 C   0  0  0  0  0  0  0  0  0  0  0  0
    7.7051  -14.8635   17.4600 C   0  0  0  0  0  0  0  0  0  0  0  0
    8.2849  -15.0084   18.8711 C   0  0  2  0  0  0  0  0  0  0  0  0
    7.9563  -16.3691   19.3805 C   0  0  0  0  0  0  0  0  0  0  0  0
    7.7069  -13.8839   19.6930 C   0  0  2  0  0  0  0  0  0  0  0  0
    8.1219  -12.6404   19.0249 N   0  0  0  0  0  0  0  0  0  0  0  0
    8.2411  -13.8500   21.0817 C   0  0  0  0  0  0  0  0  0  0  0  0
    9.4660  -13.6829   21.2994 O   0  0  0  0  0  0  0  0  0  0  0  0
    6.3468  -12.1134   28.4013 C   0  0  0  0  0  0  0  0  0  0  0  0
    5.9110  -12.4606   26.6708 S   0  0  0  0  0  0  0  0  0  0  0  0
    7.1775  -13.5566   25.9178 C   0  0  0  0  0  0  0  0  0  0  0  0
    6.8352  -13.6598   24.4762 C   0  0  0  0  0  0  0  0  0  0  0  0
    7.9848  -13.9399   23.5439 C   0  0  2  0  0  0  0  0  0  0  0  0
    7.3861  -14.0057   22.2052 N   0  0  0  0  0  0  0  0  0  0  0  0
    8.6003  -15.2329   23.9048 C   0  0  0  0  0  0  0  0  0  0  0  0
    8.0091  -16.3064   23.6195 O   0  0  0  0  0  0  0  0  0  0  0  0
    9.8426  -15.2767   24.5654 N   0  0  0  0  0  0  0  0  0  0  0  0
   10.5113  -16.5514   24.8598 C   0  0  1  0  0  0  0  0  0  0  0  0
   11.8752  -16.4189   24.2758 C   0  0  0  0  0  0  0  0  0  0  0  0
   12.8138  -17.5519   24.4842 C   0  0  0  0  0  0  0  0  0  0  0  0
   14.1405  -17.3247   23.9061 C   0  0  0  0  0  0  0  0  0  0  0  0
   14.5076  -16.1674   23.5013 O   0  0  0  0  0  0  0  0  0  0  0  0
   10.3597  -17.0015   26.2183 C   0  0  0  0  0  0  0  0  0  0  0  0
   10.7116  -18.1523   26.6453 O   0  0  0  0  0  0  0  0  0  0  0  0
   15.0470  -18.3672   23.7793 O   0  0  0  0  0  0  0  0  0  0  0  0
    9.8061  -16.1775   27.2013 O   0  0  0  0  0  0  0  0  0  0  0  0
  2  1  1  0
  3  4  1  1
  3  2  1  0
  5  3  1  0
  5  6  1  6
  7  8  2  0
  7  5  1  0
  9 10  1  0
 10 11  1  0
 11 12  1  0
 13 12  1  1
 13 14  1  0
 14  7  1  0
 15 13  1  0
 16 15  2  0
 17 15  1  0
 18 17  1  0
 18 19  1  1
 19 20  1  0
 20 21  1  0
 21 22  2  0
 23 26  1  0
 23 18  1  0
 24 23  2  0
 25 21  1  0
M  END
$$$$
