IME.pdb
     RDKit          3D

 26 25  0  0  1  0  0  0  0  0999 V2000
    5.4406  -18.5387   18.8665 C   0  0  0  0  0  0  0  0  0  0  0  0
    6.9265  -18.4649   18.6640 C   0  0  0  0  0  0  0  0  0  0  0  0
    7.6365  -17.9099   19.9034 C   0  0  2  0  0  0  0  0  0  0  0  0
    7.2400  -18.7292   21.0827 C   0  0  0  0  0  0  0  0  0  0  0  0
    7.2543  -16.4546   20.0045 C   0  0  2  0  0  0  0  0  0  0  0  0
    7.6126  -15.8520   18.7110 N   0  0  0  0  0  0  0  0  0  0  0  0
    8.0095  -15.7317   21.0639 C   0  0  0  0  0  0  0  0  0  0  0  0
    9.2489  -15.5571   20.9696 O   0  0  0  0  0  0  0  0  0  0  0  0
    6.2158  -12.6940   27.8279 C   0  0  0  0  0  0  0  0  0  0  0  0
    6.3877  -12.2137   26.0830 S   0  0  0  0  0  0  0  0  0  0  0  0
    7.7638  -13.1537   25.3113 C   0  0  0  0  0  0  0  0  0  0  0  0
    7.1960  -13.8088   24.1052 C   0  0  0  0  0  0  0  0  0  0  0  0
    8.1754  -14.5543   23.2369 C   0  0  2  0  0  0  0  0  0  0  0  0
    7.3558  -15.2163   22.2148 N   0  0  0  0  0  0  0  0  0  0  0  0
    8.8927  -15.5510   24.0573 C   0  0  0  0  0  0  0  0  0  0  0  0
    8.2804  -16.5636   24.4853 O   0  0  0  0  0  0  0  0  0  0  0  0
   10.2554  -15.3796   24.3657 N   0  0  0  0  0  0  0  0  0  0  0  0
   11.0830  -16.4989   24.8360 C   0  0  1  0  0  0  0  0  0  0  0  0
   12.4182  -16.2844   24.2115 C   0  0  0  0  0  0  0  0  0  0  0  0
   13.5039  -17.2234   24.5957 C   0  0  0  0  0  0  0  0  0  0  0  0
   14.7983  -16.8976   23.9919 C   0  0  0  0  0  0  0  0  0  0  0  0
   15.2765  -15.7110   24.0276 O   0  0  0  0  0  0  0  0  0  0  0  0
   10.9912  -16.7521   26.2498 C   0  0  0  0  0  0  0  0  0  0  0  0
   11.3554  -17.8359   26.8183 O   0  0  0  0  0  0  0  0  0  0  0  0
   15.5512  -17.8750   23.3576 O   0  0  0  0  0  0  0  0  0  0  0  0
   10.4883  -15.7916   27.1308 O   0  0  0  0  0  0  0  0  0  0  0  0
  2  1  1  0
  3  4  1  1
  3  2  1  0
  5  3  1  0
  5  6  1  6
  7  8  2  0
  7  5  1  0
  9 10  1  0
 10 11  1  0
 11 12  1  0
 13 12  1  1
 13 14  1  0
 14  7  1  0
 15 13  1  0
 16 15  2  0
 17 15  1  0
 18 17  1  0
 18 19  1  1
 19 20  1  0
 20 21  1  0
 21 22  2  0
 23 26  1  0
 23 18  1  0
 24 23  2  0
 25 21  1  0
M  END
$$$$
