IME.pdb
     RDKit          3D

 26 25  0  0  1  0  0  0  0  0999 V2000
    7.5167  -17.5673   17.4861 C   0  0  0  0  0  0  0  0  0  0  0  0
    7.3746  -16.2025   18.0957 C   0  0  0  0  0  0  0  0  0  0  0  0
    7.8732  -16.1786   19.5445 C   0  0  2  0  0  0  0  0  0  0  0  0
    7.2441  -17.3108   20.2805 C   0  0  0  0  0  0  0  0  0  0  0  0
    7.5325  -14.8170   20.0960 C   0  0  2  0  0  0  0  0  0  0  0  0
    8.2107  -13.8462   19.2227 N   0  0  0  0  0  0  0  0  0  0  0  0
    8.0403  -14.6110   21.4798 C   0  0  0  0  0  0  0  0  0  0  0  0
    9.2716  -14.5360   21.7122 O   0  0  0  0  0  0  0  0  0  0  0  0
    7.6174  -11.6850   28.2846 C   0  0  0  0  0  0  0  0  0  0  0  0
    7.2133  -11.9504   26.5321 S   0  0  0  0  0  0  0  0  0  0  0  0
    6.8700  -13.7298   26.2350 C   0  0  0  0  0  0  0  0  0  0  0  0
    6.5782  -13.8613   24.7845 C   0  0  0  0  0  0  0  0  0  0  0  0
    7.7294  -14.2997   23.9175 C   0  0  2  0  0  0  0  0  0  0  0  0
    7.1519  -14.4930   22.5818 N   0  0  0  0  0  0  0  0  0  0  0  0
    8.2757  -15.5688   24.4389 C   0  0  0  0  0  0  0  0  0  0  0  0
    7.5340  -16.5823   24.5158 O   0  0  0  0  0  0  0  0  0  0  0  0
    9.6189  -15.6562   24.8510 N   0  0  0  0  0  0  0  0  0  0  0  0
   10.1560  -16.8786   25.4642 C   0  0  1  0  0  0  0  0  0  0  0  0
   11.4869  -17.0810   24.8266 C   0  0  0  0  0  0  0  0  0  0  0  0
   11.5095  -17.2727   23.3532 C   0  0  0  0  0  0  0  0  0  0  0  0
   12.8137  -16.9919   22.7480 C   0  0  0  0  0  0  0  0  0  0  0  0
   13.9041  -17.1467   23.4000 O   0  0  0  0  0  0  0  0  0  0  0  0
   10.0396  -16.9241   26.8979 C   0  0  0  0  0  0  0  0  0  0  0  0
    9.6012  -15.9675   27.6213 O   0  0  0  0  0  0  0  0  0  0  0  0
   12.9064  -16.5459   21.4376 O   0  0  0  0  0  0  0  0  0  0  0  0
   10.4023  -18.0620   27.6226 O   0  0  0  0  0  0  0  0  0  0  0  0
  2  1  1  0
  3  4  1  1
  3  2  1  0
  5  3  1  0
  5  6  1  6
  7  8  2  0
  7  5  1  0
  9 10  1  0
 10 11  1  0
 11 12  1  0
 13 12  1  1
 13 14  1  0
 14  7  1  0
 15 13  1  0
 16 15  2  0
 17 15  1  0
 18 17  1  0
 18 19  1  1
 19 20  1  0
 20 21  1  0
 21 22  2  0
 23 26  1  0
 23 18  1  0
 24 23  2  0
 25 21  1  0
M  END
$$$$
