APG.pdb
     RDKit          3D

 17 17  0  0  1  0  0  0  0  0999 V2000
    6.5343  -17.4775   18.5389 C   0  0  0  0  0  0  0  0  0  0  0  0
    7.5647  -16.6392   17.7837 C   0  0  2  0  0  0  0  0  0  0  0  0
    8.2402  -17.5151   16.8309 N   0  0  0  0  0  0  0  0  0  0  0  0
    8.5366  -16.0533   18.7251 C   0  0  0  0  0  0  0  0  0  0  0  0
    9.6335  -16.6727   18.9014 O   0  0  0  0  0  0  0  0  0  0  0  0
    8.2623  -14.8654   19.3947 N   0  0  0  0  0  0  0  0  0  0  0  0
    7.0261  -14.1373   19.3231 C   0  0  0  0  0  0  0  0  0  0  0  0
    7.3328  -12.6954   19.5668 C   0  0  0  0  0  0  0  0  0  0  0  0
    8.5688  -12.7557   20.4043 C   0  0  0  0  0  0  0  0  0  0  0  0
    9.1347  -14.1574   20.2777 C   0  0  1  0  0  0  0  0  0  0  0  0
    9.2190  -14.7976   21.6220 C   0  0  0  0  0  0  0  0  0  0  0  0
    8.1990  -15.3618   22.0822 O   0  0  0  0  0  0  0  0  0  0  0  0
   10.4268  -14.7677   22.3613 N   0  0  0  0  0  0  0  0  0  0  0  0
   10.5490  -15.4827   23.6084 C   0  0  0  0  0  0  0  0  0  0  0  0
   11.8576  -16.1793   23.6724 C   0  0  0  0  0  0  0  0  0  0  0  0
   12.2184  -16.7937   24.7069 O   0  0  0  0  0  0  0  0  0  0  0  0
   12.7359  -16.1728   22.5745 O   0  0  0  0  0  0  0  0  0  0  0  0
  2  1  1  1
  2  3  1  0
  4  5  2  0
  4  2  1  0
  6  4  1  0
  7  6  1  0
  8  7  1  0
  9  8  1  0
  9 10  1  0
 10 11  1  1
 10  6  1  0
 11 12  2  0
 13 14  1  0
 13 11  1  0
 14 15  1  0
 15 16  2  0
 15 17  1  0
M  END
$$$$
