APG.pdb
     RDKit          3D

 17 17  0  0  1  0  0  0  0  0999 V2000
    5.5375  -18.2817   23.1757 C   0  0  0  0  0  0  0  0  0  0  0  0
    5.9335  -18.1224   21.7086 C   0  0  2  0  0  0  0  0  0  0  0  0
    5.8438  -19.4357   21.0773 N   0  0  0  0  0  0  0  0  0  0  0  0
    7.3052  -17.5918   21.6037 C   0  0  0  0  0  0  0  0  0  0  0  0
    8.2433  -18.4223   21.3844 O   0  0  0  0  0  0  0  0  0  0  0  0
    7.5621  -16.2315   21.7391 N   0  0  0  0  0  0  0  0  0  0  0  0
    6.5850  -15.2294   22.0630 C   0  0  0  0  0  0  0  0  0  0  0  0
    7.0418  -13.9388   21.4645 C   0  0  0  0  0  0  0  0  0  0  0  0
    8.5259  -14.1035   21.4128 C   0  0  0  0  0  0  0  0  0  0  0  0
    8.8255  -15.5789   21.5979 C   0  0  1  0  0  0  0  0  0  0  0  0
    9.6999  -15.7770   22.7898 C   0  0  0  0  0  0  0  0  0  0  0  0
    9.1747  -15.7622   23.9275 O   0  0  0  0  0  0  0  0  0  0  0  0
   11.0937  -15.9775   22.6371 N   0  0  0  0  0  0  0  0  0  0  0  0
   11.9132  -16.3632   23.7601 C   0  0  0  0  0  0  0  0  0  0  0  0
   13.3270  -16.5108   23.3346 C   0  0  0  0  0  0  0  0  0  0  0  0
   13.7006  -17.4922   22.6453 O   0  0  0  0  0  0  0  0  0  0  0  0
   14.2942  -15.5544   23.6907 O   0  0  0  0  0  0  0  0  0  0  0  0
  2  1  1  1
  2  3  1  0
  4  5  2  0
  4  2  1  0
  6  4  1  0
  7  6  1  0
  8  7  1  0
  9  8  1  0
  9 10  1  0
 10 11  1  1
 10  6  1  0
 11 12  2  0
 13 14  1  0
 13 11  1  0
 14 15  1  0
 15 16  2  0
 15 17  1  0
M  END
$$$$
