APG.pdb
     RDKit          3D

 17 17  0  0  1  0  0  0  0  0999 V2000
    6.2424  -17.3908   18.7975 C   0  0  0  0  0  0  0  0  0  0  0  0
    7.1688  -16.6320   17.8484 C   0  0  2  0  0  0  0  0  0  0  0  0
    7.5779  -17.5537   16.7928 N   0  0  0  0  0  0  0  0  0  0  0  0
    8.3464  -16.1271   18.5780 C   0  0  0  0  0  0  0  0  0  0  0  0
    9.3982  -16.8424   18.5666 O   0  0  0  0  0  0  0  0  0  0  0  0
    8.3071  -14.9116   19.2531 N   0  0  0  0  0  0  0  0  0  0  0  0
    7.1526  -14.0654   19.3746 C   0  0  0  0  0  0  0  0  0  0  0  0
    7.6338  -12.6587   19.5243 C   0  0  0  0  0  0  0  0  0  0  0  0
    8.9841  -12.8333   20.1397 C   0  0  0  0  0  0  0  0  0  0  0  0
    9.3826  -14.2852   19.9552 C   0  0  1  0  0  0  0  0  0  0  0  0
    9.6358  -14.9180   21.2817 C   0  0  0  0  0  0  0  0  0  0  0  0
    8.6540  -15.2963   21.9625 O   0  0  0  0  0  0  0  0  0  0  0  0
   10.9582  -15.0870   21.7602 N   0  0  0  0  0  0  0  0  0  0  0  0
   11.2349  -15.9539   22.8798 C   0  0  0  0  0  0  0  0  0  0  0  0
   12.6959  -16.0119   23.1327 C   0  0  0  0  0  0  0  0  0  0  0  0
   13.1924  -15.5511   24.1905 O   0  0  0  0  0  0  0  0  0  0  0  0
   13.5712  -16.5857   22.1939 O   0  0  0  0  0  0  0  0  0  0  0  0
  2  1  1  1
  2  3  1  0
  4  5  2  0
  4  2  1  0
  6  4  1  0
  7  6  1  0
  8  7  1  0
  9  8  1  0
  9 10  1  0
 10 11  1  1
 10  6  1  0
 11 12  2  0
 13 14  1  0
 13 11  1  0
 14 15  1  0
 15 16  2  0
 15 17  1  0
M  END
$$$$
