APG.pdb
     RDKit          3D

 17 17  0  0  1  0  0  0  0  0999 V2000
    5.6342  -17.6514   19.8646 C   0  0  0  0  0  0  0  0  0  0  0  0
    6.5834  -17.0442   18.8326 C   0  0  2  0  0  0  0  0  0  0  0  0
    6.9353  -18.0922   17.8793 N   0  0  0  0  0  0  0  0  0  0  0  0
    7.7927  -16.5217   19.4950 C   0  0  0  0  0  0  0  0  0  0  0  0
    8.8026  -17.2912   19.5705 O   0  0  0  0  0  0  0  0  0  0  0  0
    7.8262  -15.2329   20.0172 N   0  0  0  0  0  0  0  0  0  0  0  0
    6.7217  -14.3145   20.0354 C   0  0  0  0  0  0  0  0  0  0  0  0
    7.2817  -12.9294   20.0125 C   0  0  0  0  0  0  0  0  0  0  0  0
    8.6247  -13.1036   20.6439 C   0  0  0  0  0  0  0  0  0  0  0  0
    8.9402  -14.5873   20.6372 C   0  0  1  0  0  0  0  0  0  0  0  0
    9.1674  -15.0675   22.0308 C   0  0  0  0  0  0  0  0  0  0  0  0
    8.1710  -15.3198   22.7478 O   0  0  0  0  0  0  0  0  0  0  0  0
   10.4819  -15.2342   22.5315 N   0  0  0  0  0  0  0  0  0  0  0  0
   10.7371  -16.0775   23.6740 C   0  0  0  0  0  0  0  0  0  0  0  0
   12.1880  -16.0921   23.9847 C   0  0  0  0  0  0  0  0  0  0  0  0
   13.0438  -15.8015   23.1123 O   0  0  0  0  0  0  0  0  0  0  0  0
   12.6504  -16.4323   25.2682 O   0  0  0  0  0  0  0  0  0  0  0  0
  2  1  1  1
  2  3  1  0
  4  5  2  0
  4  2  1  0
  6  4  1  0
  7  6  1  0
  8  7  1  0
  9  8  1  0
  9 10  1  0
 10 11  1  1
 10  6  1  0
 11 12  2  0
 13 14  1  0
 13 11  1  0
 14 15  1  0
 15 16  2  0
 15 17  1  0
M  END
$$$$
