APG.pdb
     RDKit          3D

 17 17  0  0  1  0  0  0  0  0999 V2000
    6.0730  -17.3416   25.5307 C   0  0  0  0  0  0  0  0  0  0  0  0
    6.1192  -16.1873   24.5308 C   0  0  2  0  0  0  0  0  0  0  0  0
    6.0675  -16.7579   23.1881 N   0  0  0  0  0  0  0  0  0  0  0  0
    7.3548  -15.4033   24.7112 C   0  0  0  0  0  0  0  0  0  0  0  0
    8.3201  -15.6329   23.9154 O   0  0  0  0  0  0  0  0  0  0  0  0
    7.4589  -14.4466   25.7157 N   0  0  0  0  0  0  0  0  0  0  0  0
    6.4018  -14.0605   26.6084 C   0  0  0  0  0  0  0  0  0  0  0  0
    6.6476  -12.6450   27.0188 C   0  0  0  0  0  0  0  0  0  0  0  0
    8.1305  -12.5147   26.8906 C   0  0  0  0  0  0  0  0  0  0  0  0
    8.6185  -13.6849   26.0578 C   0  0  1  0  0  0  0  0  0  0  0  0
    9.6112  -14.4843   26.8323 C   0  0  0  0  0  0  0  0  0  0  0  0
    9.4284  -14.6375   28.0626 O   0  0  0  0  0  0  0  0  0  0  0  0
   10.7358  -15.0573   26.1894 N   0  0  0  0  0  0  0  0  0  0  0  0
   12.0761  -14.6799   26.5672 C   0  0  0  0  0  0  0  0  0  0  0  0
   13.0629  -15.3357   25.6739 C   0  0  0  0  0  0  0  0  0  0  0  0
   13.7496  -16.3112   26.0671 O   0  0  0  0  0  0  0  0  0  0  0  0
   13.2599  -14.8842   24.3570 O   0  0  0  0  0  0  0  0  0  0  0  0
  2  1  1  1
  2  3  1  0
  4  5  2  0
  4  2  1  0
  6  4  1  0
  7  6  1  0
  8  7  1  0
  9  8  1  0
  9 10  1  0
 10 11  1  1
 10  6  1  0
 11 12  2  0
 13 14  1  0
 13 11  1  0
 14 15  1  0
 15 16  2  0
 15 17  1  0
M  END
$$$$
