APG.pdb
     RDKit          3D

 17 17  0  0  1  0  0  0  0  0999 V2000
    5.2448  -17.1464   21.6102 C   0  0  0  0  0  0  0  0  0  0  0  0
    5.6572  -16.8727   20.1647 C   0  0  2  0  0  0  0  0  0  0  0  0
    5.4041  -18.0848   19.3915 N   0  0  0  0  0  0  0  0  0  0  0  0
    7.0844  -16.5080   20.1003 C   0  0  0  0  0  0  0  0  0  0  0  0
    7.9132  -17.4224   19.7924 O   0  0  0  0  0  0  0  0  0  0  0  0
    7.5073  -15.2097   20.3661 N   0  0  0  0  0  0  0  0  0  0  0  0
    6.6437  -14.0845   20.5931 C   0  0  0  0  0  0  0  0  0  0  0  0
    7.3767  -12.8551   20.1642 C   0  0  0  0  0  0  0  0  0  0  0  0
    8.8086  -13.2425   20.3436 C   0  0  0  0  0  0  0  0  0  0  0  0
    8.8568  -14.7528   20.4761 C   0  0  1  0  0  0  0  0  0  0  0  0
    9.4771  -15.1318   21.7783 C   0  0  0  0  0  0  0  0  0  0  0  0
    8.7728  -15.0853   22.8138 O   0  0  0  0  0  0  0  0  0  0  0  0
   10.8334  -15.5355   21.8415 N   0  0  0  0  0  0  0  0  0  0  0  0
   11.3816  -16.1013   23.0501 C   0  0  0  0  0  0  0  0  0  0  0  0
   12.8182  -16.4201   22.8596 C   0  0  0  0  0  0  0  0  0  0  0  0
   13.1819  -17.3772   22.1318 O   0  0  0  0  0  0  0  0  0  0  0  0
   13.8187  -15.6590   23.4894 O   0  0  0  0  0  0  0  0  0  0  0  0
  2  1  1  1
  2  3  1  0
  4  5  2  0
  4  2  1  0
  6  4  1  0
  7  6  1  0
  8  7  1  0
  9  8  1  0
  9 10  1  0
 10 11  1  1
 10  6  1  0
 11 12  2  0
 13 14  1  0
 13 11  1  0
 14 15  1  0
 15 16  2  0
 15 17  1  0
M  END
$$$$
