HPK.pdb
     RDKit          3D

 27 28  0  0  1  0  0  0  0  0999 V2000
   22.8954  -20.9146  -14.9836 N   0  0  0  0  0  0  0  0  0  0  0  0
   21.7445  -20.6012  -14.2414 C   0  0  1  0  0  0  0  0  0  0  0  0
   20.5532  -20.6450  -15.1879 C   0  0  0  0  0  0  0  0  0  0  0  0
   20.7784  -19.6458  -16.2670 C   0  0  0  0  0  0  0  0  0  0  0  0
   20.3389  -18.3286  -16.3162 C   0  0  0  0  0  0  0  0  0  0  0  0
   20.7674  -17.7963  -17.4674 N   0  0  0  0  0  0  0  0  0  0  0  0
   21.4561  -18.7004  -18.1559 C   0  0  0  0  0  0  0  0  0  0  0  0
   21.4627  -19.8217  -17.4279 N   0  0  0  0  0  0  0  0  0  0  0  0
   21.4837  -21.3078  -12.9883 C   0  0  0  0  0  0  0  0  0  0  0  0
   21.2650  -22.5843  -13.0950 O   0  0  0  0  0  0  0  0  0  0  0  0
   21.4340  -20.8191  -11.6846 N   0  0  0  0  0  0  0  0  0  0  0  0
   22.3093  -19.7420  -11.1843 C   0  0  0  0  0  0  0  0  0  0  0  0
   21.2397  -18.8083  -10.5801 C   0  0  0  0  0  0  0  0  0  0  0  0
   20.0313  -19.6789  -10.3083 C   0  0  0  0  0  0  0  0  0  0  0  0
   20.6472  -21.0855  -10.5279 C   0  0  1  0  0  0  0  0  0  0  0  0
   19.6482  -22.1167  -10.5118 C   0  0  0  0  0  0  0  0  0  0  0  0
   18.8657  -22.5340  -11.3673 O   0  0  0  0  0  0  0  0  0  0  0  0
   19.5349  -22.8114   -9.2251 N   0  0  0  0  0  0  0  0  0  0  0  0
   18.5508  -23.8317   -9.0017 C   0  0  1  0  0  0  0  0  0  0  0  0
   18.6864  -24.4121   -7.6319 C   0  0  0  0  0  0  0  0  0  0  0  0
   17.7228  -25.4945   -7.2908 C   0  0  0  0  0  0  0  0  0  0  0  0
   17.9094  -26.1194   -5.9485 C   0  0  0  0  0  0  0  0  0  0  0  0
   16.8465  -27.1949   -5.7855 C   0  0  0  0  0  0  0  0  0  0  0  0
   16.9936  -27.8922   -4.5180 N   0  0  0  0  0  0  0  0  0  0  0  0
   17.1642  -23.3145   -9.1682 C   0  0  0  0  0  0  0  0  0  0  0  0
   16.2171  -24.1154   -9.7764 O   0  0  0  0  0  0  0  0  0  0  0  0
   16.8490  -22.1716   -8.7668 O   0  0  0  0  0  0  0  0  0  0  0  0
  2  9  1  0
  2  1  1  6
  3  2  1  0
  4  3  1  0
  4  8  1  0
  5  4  2  0
  6  5  1  0
  6  7  1  0
  7  8  2  0
  9 11  1  0
 10  9  2  0
 11 15  1  0
 11 12  1  0
 12 13  1  0
 14 13  1  0
 15 14  1  0
 15 16  1  6
 17 16  2  0
 18 16  1  0
 19 20  1  1
 19 18  1  0
 21 20  1  0
 22 23  1  0
 22 21  1  0
 24 23  1  0
 25 19  1  0
 25 26  1  0
 27 25  2  0
M  END
$$$$
