HPK.pdb
     RDKit          3D

 27 28  0  0  1  0  0  0  0  0999 V2000
   24.4038  -21.0612  -15.4687 N   0  0  0  0  0  0  0  0  0  0  0  0
   23.6406  -20.5405  -14.4104 C   0  0  1  0  0  0  0  0  0  0  0  0
   22.3811  -19.9245  -15.0029 C   0  0  0  0  0  0  0  0  0  0  0  0
   22.7790  -19.0581  -16.1450 C   0  0  0  0  0  0  0  0  0  0  0  0
   22.5365  -19.2637  -17.4977 C   0  0  0  0  0  0  0  0  0  0  0  0
   23.0706  -18.2370  -18.1705 N   0  0  0  0  0  0  0  0  0  0  0  0
   23.6405  -17.3872  -17.3226 C   0  0  0  0  0  0  0  0  0  0  0  0
   23.4636  -17.8852  -16.0946 N   0  0  0  0  0  0  0  0  0  0  0  0
   23.3535  -21.3823  -13.2501 C   0  0  0  0  0  0  0  0  0  0  0  0
   22.8881  -22.5667  -13.5133 O   0  0  0  0  0  0  0  0  0  0  0  0
   23.5042  -21.1084  -11.8924 N   0  0  0  0  0  0  0  0  0  0  0  0
   24.7483  -20.5800  -11.3011 C   0  0  0  0  0  0  0  0  0  0  0  0
   24.1680  -19.3804  -10.5232 C   0  0  0  0  0  0  0  0  0  0  0  0
   22.7028  -19.6936  -10.3055 C   0  0  0  0  0  0  0  0  0  0  0  0
   22.6692  -21.1820  -10.7412 C   0  0  1  0  0  0  0  0  0  0  0  0
   21.3282  -21.6907  -10.8088 C   0  0  0  0  0  0  0  0  0  0  0  0
   20.4705  -21.6676  -11.6932 O   0  0  0  0  0  0  0  0  0  0  0  0
   20.8909  -22.3720   -9.5858 N   0  0  0  0  0  0  0  0  0  0  0  0
   19.5734  -22.9267   -9.4602 C   0  0  1  0  0  0  0  0  0  0  0  0
   19.4081  -23.6146   -8.1444 C   0  0  0  0  0  0  0  0  0  0  0  0
   18.1002  -24.2928   -7.9301 C   0  0  0  0  0  0  0  0  0  0  0  0
   17.9510  -24.9996   -6.6242 C   0  0  0  0  0  0  0  0  0  0  0  0
   16.5532  -25.5970   -6.5770 C   0  0  0  0  0  0  0  0  0  0  0  0
   16.3521  -26.3699   -5.3618 N   0  0  0  0  0  0  0  0  0  0  0  0
   18.5160  -21.8866   -9.5936 C   0  0  0  0  0  0  0  0  0  0  0  0
   18.8118  -20.5805   -9.2542 O   0  0  0  0  0  0  0  0  0  0  0  0
   17.3711  -22.1791  -10.0064 O   0  0  0  0  0  0  0  0  0  0  0  0
  2  9  1  0
  2  1  1  6
  3  2  1  0
  4  3  1  0
  4  8  1  0
  5  4  2  0
  6  5  1  0
  6  7  1  0
  7  8  2  0
  9 11  1  0
 10  9  2  0
 11 15  1  0
 11 12  1  0
 12 13  1  0
 14 13  1  0
 15 14  1  0
 15 16  1  6
 17 16  2  0
 18 16  1  0
 19 20  1  1
 19 18  1  0
 21 20  1  0
 22 23  1  0
 22 21  1  0
 24 23  1  0
 25 19  1  0
 25 26  1  0
 27 25  2  0
M  END
$$$$
