HPK.pdb
     RDKit          3D

 27 28  0  0  1  0  0  0  0  0999 V2000
   27.2194  -19.8672  -18.2960 N   0  0  0  0  0  0  0  0  0  0  0  0
   27.0266  -19.1745  -17.0891 C   0  0  1  0  0  0  0  0  0  0  0  0
   26.2792  -17.8867  -17.4050 C   0  0  0  0  0  0  0  0  0  0  0  0
   27.0612  -17.1310  -18.4203 C   0  0  0  0  0  0  0  0  0  0  0  0
   26.8056  -17.0137  -19.7811 C   0  0  0  0  0  0  0  0  0  0  0  0
   27.7622  -16.2428  -20.3128 N   0  0  0  0  0  0  0  0  0  0  0  0
   28.6143  -15.8613  -19.3672 C   0  0  0  0  0  0  0  0  0  0  0  0
   28.1892  -16.3999  -18.2199 N   0  0  0  0  0  0  0  0  0  0  0  0
   26.4587  -19.8780  -15.9402 C   0  0  0  0  0  0  0  0  0  0  0  0
   25.1630  -19.9758  -15.9223 O   0  0  0  0  0  0  0  0  0  0  0  0
   27.0986  -20.4663  -14.8514 N   0  0  0  0  0  0  0  0  0  0  0  0
   28.3891  -21.1744  -14.9501 C   0  0  0  0  0  0  0  0  0  0  0  0
   29.1580  -20.4554  -13.8219 C   0  0  0  0  0  0  0  0  0  0  0  0
   28.1040  -19.8783  -12.9007 C   0  0  0  0  0  0  0  0  0  0  0  0
   26.8361  -20.5783  -13.4562 C   0  0  1  0  0  0  0  0  0  0  0  0
   25.6347  -20.0580  -12.8669 C   0  0  0  0  0  0  0  0  0  0  0  0
   25.2130  -18.9115  -12.7056 O   0  0  0  0  0  0  0  0  0  0  0  0
   24.7298  -21.0927  -12.3553 N   0  0  0  0  0  0  0  0  0  0  0  0
   23.5280  -20.7610  -11.6448 C   0  0  1  0  0  0  0  0  0  0  0  0
   22.4010  -21.6494  -12.0600 C   0  0  0  0  0  0  0  0  0  0  0  0
   21.0811  -21.3513  -11.4391 C   0  0  0  0  0  0  0  0  0  0  0  0
   19.9530  -22.2220  -11.8820 C   0  0  0  0  0  0  0  0  0  0  0  0
   18.6869  -21.7217  -11.2041 C   0  0  0  0  0  0  0  0  0  0  0  0
   17.5218  -22.4706  -11.6470 N   0  0  0  0  0  0  0  0  0  0  0  0
   23.7049  -20.8685  -10.1701 C   0  0  0  0  0  0  0  0  0  0  0  0
   23.0871  -19.9440   -9.3502 O   0  0  0  0  0  0  0  0  0  0  0  0
   24.4013  -21.7794   -9.6681 O   0  0  0  0  0  0  0  0  0  0  0  0
  2  9  1  0
  2  1  1  6
  3  2  1  0
  4  3  1  0
  4  8  1  0
  5  4  2  0
  6  5  1  0
  6  7  1  0
  7  8  2  0
  9 11  1  0
 10  9  2  0
 11 15  1  0
 11 12  1  0
 12 13  1  0
 14 13  1  0
 15 14  1  0
 15 16  1  6
 17 16  2  0
 18 16  1  0
 19 20  1  6
 19 18  1  0
 21 20  1  0
 22 23  1  0
 22 21  1  0
 24 23  1  0
 25 19  1  0
 25 26  1  0
 27 25  2  0
M  END
$$$$
