HPK.pdb
     RDKit          3D

 27 28  0  0  1  0  0  0  0  0999 V2000
   20.6928  -12.8123  -17.0926 N   0  0  0  0  0  0  0  0  0  0  0  0
   19.9017  -11.7793  -16.5627 C   0  0  1  0  0  0  0  0  0  0  0  0
   18.7447  -12.4185  -15.8079 C   0  0  0  0  0  0  0  0  0  0  0  0
   17.8945  -13.1466  -16.7879 C   0  0  0  0  0  0  0  0  0  0  0  0
   17.7536  -12.8967  -18.1475 C   0  0  0  0  0  0  0  0  0  0  0  0
   16.8892  -13.7917  -18.6413 N   0  0  0  0  0  0  0  0  0  0  0  0
   16.4704  -14.5992  -17.6725 C   0  0  0  0  0  0  0  0  0  0  0  0
   17.0800  -14.2079  -16.5489 N   0  0  0  0  0  0  0  0  0  0  0  0
   20.5379  -10.7075  -15.7987 C   0  0  0  0  0  0  0  0  0  0  0  0
   19.7305   -9.9039  -15.1734 O   0  0  0  0  0  0  0  0  0  0  0  0
   21.8897  -10.4122  -15.6352 N   0  0  0  0  0  0  0  0  0  0  0  0
   22.9189  -11.4327  -15.3594 C   0  0  0  0  0  0  0  0  0  0  0  0
   23.9336  -11.0723  -16.4646 C   0  0  0  0  0  0  0  0  0  0  0  0
   23.6550   -9.6304  -16.8327 C   0  0  0  0  0  0  0  0  0  0  0  0
   22.6868   -9.2333  -15.6877 C   0  0  1  0  0  0  0  0  0  0  0  0
   22.1087   -7.9363  -15.8999 C   0  0  0  0  0  0  0  0  0  0  0  0
   21.4090   -7.4719  -16.8017 O   0  0  0  0  0  0  0  0  0  0  0  0
   22.4087   -6.9729  -14.8356 N   0  0  0  0  0  0  0  0  0  0  0  0
   21.8582   -5.6476  -14.8393 C   0  0  1  0  0  0  0  0  0  0  0  0
   20.3649   -5.6909  -14.8279 C   0  0  0  0  0  0  0  0  0  0  0  0
   19.6802   -4.3698  -14.8766 C   0  0  0  0  0  0  0  0  0  0  0  0
   18.1887   -4.4204  -14.8761 C   0  0  0  0  0  0  0  0  0  0  0  0
   17.6765   -3.0088  -15.1167 C   0  0  0  0  0  0  0  0  0  0  0  0
   16.2234   -2.9768  -15.1614 N   0  0  0  0  0  0  0  0  0  0  0  0
   22.3236   -4.8478  -13.6725 C   0  0  0  0  0  0  0  0  0  0  0  0
   22.5741   -3.4995  -13.8393 O   0  0  0  0  0  0  0  0  0  0  0  0
   22.4893   -5.3783  -12.5509 O   0  0  0  0  0  0  0  0  0  0  0  0
  2  9  1  0
  2  1  1  1
  3  2  1  0
  4  3  1  0
  4  8  1  0
  5  4  2  0
  6  5  1  0
  6  7  1  0
  7  8  2  0
  9 11  1  0
 10  9  2  0
 11 15  1  0
 11 12  1  0
 12 13  1  0
 14 13  1  0
 15 14  1  0
 15 16  1  6
 17 16  2  0
 18 16  1  0
 19 20  1  1
 19 18  1  0
 21 20  1  0
 22 23  1  0
 22 21  1  0
 24 23  1  0
 25 19  1  0
 25 26  1  0
 27 25  2  0
M  END
$$$$
