HPK.pdb
     RDKit          3D

 27 28  0  0  1  0  0  0  0  0999 V2000
   17.1656  -24.0484  -13.1581 N   0  0  0  0  0  0  0  0  0  0  0  0
   18.0730  -23.9364  -12.0914 C   0  0  1  0  0  0  0  0  0  0  0  0
   18.4912  -22.4766  -11.9864 C   0  0  0  0  0  0  0  0  0  0  0  0
   18.9428  -22.0234  -13.3295 C   0  0  0  0  0  0  0  0  0  0  0  0
   18.4425  -20.9729  -14.0890 C   0  0  0  0  0  0  0  0  0  0  0  0
   19.1423  -20.9216  -15.2290 N   0  0  0  0  0  0  0  0  0  0  0  0
   20.0617  -21.8810  -15.2396 C   0  0  0  0  0  0  0  0  0  0  0  0
   19.9406  -22.5489  -14.0879 N   0  0  0  0  0  0  0  0  0  0  0  0
   17.7273  -24.5094  -10.7916 C   0  0  0  0  0  0  0  0  0  0  0  0
   17.2973  -23.6676   -9.8999 O   0  0  0  0  0  0  0  0  0  0  0  0
   17.7877  -25.8318  -10.3573 N   0  0  0  0  0  0  0  0  0  0  0  0
   17.6090  -26.9918  -11.2512 C   0  0  0  0  0  0  0  0  0  0  0  0
   18.8743  -27.7933  -10.8802 C   0  0  0  0  0  0  0  0  0  0  0  0
   19.2827  -27.3142   -9.5032 C   0  0  0  0  0  0  0  0  0  0  0  0
   18.0310  -26.4844   -9.1151 C   0  0  1  0  0  0  0  0  0  0  0  0
   18.2316  -25.7482   -7.8988 C   0  0  0  0  0  0  0  0  0  0  0  0
   18.9896  -24.8245   -7.5978 O   0  0  0  0  0  0  0  0  0  0  0  0
   17.3654  -26.1786   -6.7964 N   0  0  0  0  0  0  0  0  0  0  0  0
   17.4083  -25.5438   -5.5101 C   0  0  1  0  0  0  0  0  0  0  0  0
   16.0387  -25.1445   -5.0669 C   0  0  0  0  0  0  0  0  0  0  0  0
   15.9684  -24.3939   -3.7831 C   0  0  0  0  0  0  0  0  0  0  0  0
   14.6249  -23.8468   -3.4330 C   0  0  0  0  0  0  0  0  0  0  0  0
   14.7849  -22.9825   -2.1919 C   0  0  0  0  0  0  0  0  0  0  0  0
   13.5573  -22.2643   -1.8891 N   0  0  0  0  0  0  0  0  0  0  0  0
   18.0094  -26.4271   -4.4727 C   0  0  0  0  0  0  0  0  0  0  0  0
   18.8792  -25.8819   -3.5482 O   0  0  0  0  0  0  0  0  0  0  0  0
   17.7382  -27.6482   -4.4285 O   0  0  0  0  0  0  0  0  0  0  0  0
  2  9  1  0
  2  1  1  6
  3  2  1  0
  4  3  1  0
  4  8  1  0
  5  4  2  0
  6  5  1  0
  6  7  1  0
  7  8  2  0
  9 11  1  0
 10  9  2  0
 11 15  1  0
 11 12  1  0
 12 13  1  0
 14 13  1  0
 15 14  1  0
 15 16  1  1
 17 16  2  0
 18 16  1  0
 19 20  1  1
 19 18  1  0
 21 20  1  0
 22 23  1  0
 22 21  1  0
 24 23  1  0
 25 19  1  0
 25 26  1  0
 27 25  2  0
M  END
$$$$
