HNK.pdb
     RDKit          3D

 28 28  0  0  1  0  0  0  0  0999 V2000
    7.5299  -17.3288   19.1499 N   0  0  0  0  0  0  0  0  0  0  0  0
    8.4916  -16.5089   19.8602 C   0  0  1  0  0  0  0  0  0  0  0  0
    7.8322  -15.1690   20.1934 C   0  0  0  0  0  0  0  0  0  0  0  0
    7.9892  -14.2149   19.0701 C   0  0  0  0  0  0  0  0  0  0  0  0
    8.6861  -14.3943   17.8947 C   0  0  0  0  0  0  0  0  0  0  0  0
    8.5700  -13.2677   17.1404 N   0  0  0  0  0  0  0  0  0  0  0  0
    7.8132  -12.3988   17.8329 C   0  0  0  0  0  0  0  0  0  0  0  0
    7.4705  -12.9813   18.9920 N   0  0  0  0  0  0  0  0  0  0  0  0
    8.8834  -17.2230   21.1010 C   0  0  0  0  0  0  0  0  0  0  0  0
    8.0289  -17.9216   21.6985 O   0  0  0  0  0  0  0  0  0  0  0  0
   11.1424  -19.9685   24.6063 N   0  0  0  0  0  0  0  0  0  0  0  0
   12.1956  -19.3085   23.9249 C   0  0  0  0  0  0  0  0  0  0  0  0
   13.3641  -19.4185   24.3688 O   0  0  0  0  0  0  0  0  0  0  0  0
   11.8475  -18.5194   22.7155 C   0  0  0  0  0  0  0  0  0  0  0  0
   10.5405  -17.7882   22.8794 C   0  0  2  0  0  0  0  0  0  0  0  0
   10.1868  -17.1534   21.6488 N   0  0  0  0  0  0  0  0  0  0  0  0
   10.5740  -16.8370   24.0215 C   0  0  0  0  0  0  0  0  0  0  0  0
   11.5968  -16.0962   24.1195 O   0  0  0  0  0  0  0  0  0  0  0  0
    9.5571  -16.7212   24.9711 N   0  0  0  0  0  0  0  0  0  0  0  0
    9.7053  -15.8577   26.1857 C   0  0  1  0  0  0  0  0  0  0  0  0
    8.4003  -15.2610   26.5062 C   0  0  0  0  0  0  0  0  0  0  0  0
    8.1187  -13.8402   26.3071 C   0  0  0  0  0  0  0  0  0  0  0  0
    6.8281  -13.2453   26.6556 C   0  0  0  0  0  0  0  0  0  0  0  0
    6.6193  -11.7814   26.4837 C   0  0  0  0  0  0  0  0  0  0  0  0
    5.3018  -11.3138   26.8278 N   0  0  0  0  0  0  0  0  0  0  0  0
   10.2245  -16.7474   27.2726 C   0  0  0  0  0  0  0  0  0  0  0  0
    9.7124  -18.0550   27.4256 O   0  0  0  0  0  0  0  0  0  0  0  0
   11.1028  -16.4315   28.0905 O   0  0  0  0  0  0  0  0  0  0  0  0
  2  1  1  1
  2  9  1  0
  3  2  1  0
  4  3  1  0
  5  4  2  0
  6  5  1  0
  7  6  1  0
  7  8  2  0
  8  4  1  0
  9 10  2  0
 11 12  1  0
 12 14  1  0
 13 12  2  0
 15 14  1  6
 15 17  1  0
 16  9  1  0
 16 15  1  0
 17 18  2  0
 19 20  1  0
 19 17  1  0
 20 26  1  0
 20 21  1  1
 22 21  1  0
 23 22  1  0
 24 23  1  0
 25 24  1  0
 26 28  2  0
 26 27  1  0
M  END
$$$$
