HNK.pdb
     RDKit          3D

 28 28  0  0  1  0  0  0  0  0999 V2000
   10.6915  -16.1870   17.7793 N   0  0  0  0  0  0  0  0  0  0  0  0
   11.2937  -16.0823   19.0939 C   0  0  1  0  0  0  0  0  0  0  0  0
   11.9081  -14.6881   19.2347 C   0  0  0  0  0  0  0  0  0  0  0  0
   13.3235  -14.6933   18.7949 C   0  0  0  0  0  0  0  0  0  0  0  0
   14.0581  -15.7537   18.3098 C   0  0  0  0  0  0  0  0  0  0  0  0
   15.3160  -15.3206   18.0238 N   0  0  0  0  0  0  0  0  0  0  0  0
   15.3666  -14.0114   18.3250 C   0  0  0  0  0  0  0  0  0  0  0  0
   14.1612  -13.6468   18.7880 N   0  0  0  0  0  0  0  0  0  0  0  0
   10.2312  -16.2917   20.1090 C   0  0  0  0  0  0  0  0  0  0  0  0
    9.1075  -15.7605   19.9344 O   0  0  0  0  0  0  0  0  0  0  0  0
    7.4419  -17.9000   24.0162 N   0  0  0  0  0  0  0  0  0  0  0  0
    8.2961  -18.9753   23.6651 C   0  0  0  0  0  0  0  0  0  0  0  0
    8.1230  -20.0888   24.2171 O   0  0  0  0  0  0  0  0  0  0  0  0
    9.3541  -18.7150   22.6554 C   0  0  0  0  0  0  0  0  0  0  0  0
    9.3998  -17.2643   22.2516 C   0  0  2  0  0  0  0  0  0  0  0  0
   10.4258  -17.0686   21.2761 N   0  0  0  0  0  0  0  0  0  0  0  0
    9.5510  -16.3642   23.4251 C   0  0  0  0  0  0  0  0  0  0  0  0
   10.7315  -16.1397   23.8260 O   0  0  0  0  0  0  0  0  0  0  0  0
    8.4808  -15.7663   24.0934 N   0  0  0  0  0  0  0  0  0  0  0  0
    8.6925  -14.7944   25.2131 C   0  0  1  0  0  0  0  0  0  0  0  0
    7.4435  -14.0529   25.4406 C   0  0  0  0  0  0  0  0  0  0  0  0
    7.2988  -13.0739   26.5168 C   0  0  0  0  0  0  0  0  0  0  0  0
    6.0299  -12.3988   26.7907 C   0  0  0  0  0  0  0  0  0  0  0  0
    5.9379  -11.4276   27.9151 C   0  0  0  0  0  0  0  0  0  0  0  0
    4.6464  -10.8130   28.0795 N   0  0  0  0  0  0  0  0  0  0  0  0
    9.1157  -15.6054   26.3987 C   0  0  0  0  0  0  0  0  0  0  0  0
    9.8369  -15.0008   27.4521 O   0  0  0  0  0  0  0  0  0  0  0  0
    8.8826  -16.8147   26.5520 O   0  0  0  0  0  0  0  0  0  0  0  0
  2  1  1  6
  2  9  1  0
  3  2  1  0
  4  3  1  0
  5  4  2  0
  6  5  1  0
  7  6  1  0
  7  8  2  0
  8  4  1  0
  9 10  2  0
 11 12  1  0
 12 14  1  0
 13 12  2  0
 15 14  1  1
 15 17  1  0
 16  9  1  0
 16 15  1  0
 17 18  2  0
 19 20  1  0
 19 17  1  0
 20 26  1  0
 20 21  1  1
 22 21  1  0
 23 22  1  0
 24 23  1  0
 25 24  1  0
 26 28  2  0
 26 27  1  0
M  END
$$$$
