HNK.pdb
     RDKit          3D

 28 28  0  0  1  0  0  0  0  0999 V2000
   10.1588  -15.4398   19.1824 N   0  0  0  0  0  0  0  0  0  0  0  0
    8.9555  -15.0684   19.9006 C   0  0  1  0  0  0  0  0  0  0  0  0
    7.7455  -15.4324   19.0379 C   0  0  0  0  0  0  0  0  0  0  0  0
    7.7475  -14.6518   17.7779 C   0  0  0  0  0  0  0  0  0  0  0  0
    8.7214  -13.7959   17.3109 C   0  0  0  0  0  0  0  0  0  0  0  0
    8.3214  -13.2894   16.1128 N   0  0  0  0  0  0  0  0  0  0  0  0
    7.1178  -13.8201   15.8359 C   0  0  0  0  0  0  0  0  0  0  0  0
    6.7841  -14.6379   16.8458 N   0  0  0  0  0  0  0  0  0  0  0  0
    8.9300  -15.8175   21.1818 C   0  0  0  0  0  0  0  0  0  0  0  0
    7.9466  -15.6800   21.9494 O   0  0  0  0  0  0  0  0  0  0  0  0
    9.6466  -20.5421   22.3626 N   0  0  0  0  0  0  0  0  0  0  0  0
   10.4976  -19.5149   21.8833 C   0  0  0  0  0  0  0  0  0  0  0  0
   10.8342  -19.5248   20.6745 O   0  0  0  0  0  0  0  0  0  0  0  0
   10.9431  -18.4799   22.8512 C   0  0  0  0  0  0  0  0  0  0  0  0
   10.0108  -17.2967   22.8764 C   0  0  2  0  0  0  0  0  0  0  0  0
    9.9714  -16.6878   21.5840 N   0  0  0  0  0  0  0  0  0  0  0  0
   10.3654  -16.3313   23.9499 C   0  0  0  0  0  0  0  0  0  0  0  0
   10.8819  -15.2337   23.5849 O   0  0  0  0  0  0  0  0  0  0  0  0
   10.1621  -16.5678   25.3108 N   0  0  0  0  0  0  0  0  0  0  0  0
   10.0580  -15.4482   26.3001 C   0  0  1  0  0  0  0  0  0  0  0  0
    8.8834  -14.6287   25.9678 C   0  0  0  0  0  0  0  0  0  0  0  0
    8.4501  -13.5072   26.7997 C   0  0  0  0  0  0  0  0  0  0  0  0
    7.1263  -12.8997   26.6606 C   0  0  0  0  0  0  0  0  0  0  0  0
    6.7304  -11.7790   27.5569 C   0  0  0  0  0  0  0  0  0  0  0  0
    5.4113  -11.2525   27.3207 N   0  0  0  0  0  0  0  0  0  0  0  0
    9.9615  -16.0886   27.6503 C   0  0  0  0  0  0  0  0  0  0  0  0
   10.4824  -15.4314   28.7871 O   0  0  0  0  0  0  0  0  0  0  0  0
    9.4435  -17.1932   27.8773 O   0  0  0  0  0  0  0  0  0  0  0  0
  2  1  1  6
  2  9  1  0
  3  2  1  0
  4  3  1  0
  5  4  2  0
  6  5  1  0
  7  6  1  0
  7  8  2  0
  8  4  1  0
  9 10  2  0
 11 12  1  0
 12 14  1  0
 13 12  2  0
 15 14  1  6
 15 17  1  0
 16  9  1  0
 16 15  1  0
 17 18  2  0
 19 20  1  0
 19 17  1  0
 20 26  1  0
 20 21  1  6
 22 21  1  0
 23 22  1  0
 24 23  1  0
 25 24  1  0
 26 28  2  0
 26 27  1  0
M  END
$$$$
