HNK.pdb
     RDKit          3D

 28 28  0  0  1  0  0  0  0  0999 V2000
   10.3757  -15.1280   18.5614 N   0  0  0  0  0  0  0  0  0  0  0  0
    9.0163  -15.2001   19.0599 C   0  0  1  0  0  0  0  0  0  0  0  0
    8.1517  -15.8971   18.0075 C   0  0  0  0  0  0  0  0  0  0  0  0
    8.0602  -15.0752   16.7775 C   0  0  0  0  0  0  0  0  0  0  0  0
    8.7597  -13.9287   16.4685 C   0  0  0  0  0  0  0  0  0  0  0  0
    8.3705  -13.4965   15.2383 N   0  0  0  0  0  0  0  0  0  0  0  0
    7.4434  -14.3586   14.7861 C   0  0  0  0  0  0  0  0  0  0  0  0
    7.2661  -15.3036   15.7220 N   0  0  0  0  0  0  0  0  0  0  0  0
    9.0269  -15.9746   20.3261 C   0  0  0  0  0  0  0  0  0  0  0  0
    7.9451  -16.1668   20.9327 O   0  0  0  0  0  0  0  0  0  0  0  0
    9.9926  -19.7784   21.2691 N   0  0  0  0  0  0  0  0  0  0  0  0
   11.2951  -19.2450   21.4366 C   0  0  0  0  0  0  0  0  0  0  0  0
   12.2586  -19.8157   20.8704 O   0  0  0  0  0  0  0  0  0  0  0  0
   11.4407  -18.0312   22.2805 C   0  0  0  0  0  0  0  0  0  0  0  0
   10.2389  -17.1286   22.1774 C   0  0  2  0  0  0  0  0  0  0  0  0
   10.2095  -16.5119   20.8884 N   0  0  0  0  0  0  0  0  0  0  0  0
   10.1909  -16.1369   23.2840 C   0  0  0  0  0  0  0  0  0  0  0  0
   11.1131  -15.2691   23.3153 O   0  0  0  0  0  0  0  0  0  0  0  0
    9.2019  -16.1140   24.2692 N   0  0  0  0  0  0  0  0  0  0  0  0
    9.2616  -15.1648   25.4262 C   0  0  1  0  0  0  0  0  0  0  0  0
    8.0702  -14.3038   25.3959 C   0  0  0  0  0  0  0  0  0  0  0  0
    7.8048  -13.2974   26.4228 C   0  0  0  0  0  0  0  0  0  0  0  0
    6.5968  -12.4719   26.4110 C   0  0  0  0  0  0  0  0  0  0  0  0
    6.3661  -11.4852   27.5015 C   0  0  0  0  0  0  0  0  0  0  0  0
    5.1272  -10.7579   27.4072 N   0  0  0  0  0  0  0  0  0  0  0  0
    9.3409  -16.0106   26.6595 C   0  0  0  0  0  0  0  0  0  0  0  0
    9.8149  -15.4585   27.8702 O   0  0  0  0  0  0  0  0  0  0  0  0
    9.0150  -17.2064   26.7230 O   0  0  0  0  0  0  0  0  0  0  0  0
  2  1  1  6
  2  9  1  0
  3  2  1  0
  4  3  1  0
  5  4  2  0
  6  5  1  0
  7  6  1  0
  7  8  2  0
  8  4  1  0
  9 10  2  0
 11 12  1  0
 12 14  1  0
 13 12  2  0
 15 14  1  1
 15 17  1  0
 16  9  1  0
 16 15  1  0
 17 18  2  0
 19 20  1  0
 19 17  1  0
 20 26  1  0
 20 21  1  1
 22 21  1  0
 23 22  1  0
 24 23  1  0
 25 24  1  0
 26 28  2  0
 26 27  1  0
M  END
$$$$
