HNK.pdb
     RDKit          3D

 28 28  0  0  1  0  0  0  0  0999 V2000
    9.6245  -17.2760   19.1428 N   0  0  0  0  0  0  0  0  0  0  0  0
    9.5395  -16.2269   20.1397 C   0  0  1  0  0  0  0  0  0  0  0  0
    8.2074  -15.4959   19.9601 C   0  0  0  0  0  0  0  0  0  0  0  0
    8.2449  -14.6274   18.7596 C   0  0  0  0  0  0  0  0  0  0  0  0
    9.2609  -14.4964   17.8377 C   0  0  0  0  0  0  0  0  0  0  0  0
    8.8816  -13.5931   16.8933 N   0  0  0  0  0  0  0  0  0  0  0  0
    7.6491  -13.1667   17.2197 C   0  0  0  0  0  0  0  0  0  0  0  0
    7.2779  -13.7968   18.3446 N   0  0  0  0  0  0  0  0  0  0  0  0
    9.6155  -16.8553   21.4823 C   0  0  0  0  0  0  0  0  0  0  0  0
    8.5592  -17.0181   22.1403 O   0  0  0  0  0  0  0  0  0  0  0  0
   10.9400  -20.2182   22.3774 N   0  0  0  0  0  0  0  0  0  0  0  0
   12.1513  -19.8340   23.0053 C   0  0  0  0  0  0  0  0  0  0  0  0
   13.1095  -20.6441   23.0152 O   0  0  0  0  0  0  0  0  0  0  0  0
   12.2122  -18.4827   23.6191 C   0  0  0  0  0  0  0  0  0  0  0  0
   10.9295  -17.7177   23.4207 C   0  0  2  0  0  0  0  0  0  0  0  0
   10.8335  -17.2836   22.0625 N   0  0  0  0  0  0  0  0  0  0  0  0
   10.7947  -16.5965   24.3875 C   0  0  0  0  0  0  0  0  0  0  0  0
   11.7554  -15.7731   24.4467 O   0  0  0  0  0  0  0  0  0  0  0  0
    9.6864  -16.4089   25.2158 N   0  0  0  0  0  0  0  0  0  0  0  0
    9.5636  -15.2157   26.1126 C   0  0  1  0  0  0  0  0  0  0  0  0
    8.2743  -14.5580   25.8538 C   0  0  0  0  0  0  0  0  0  0  0  0
    7.8030  -13.4207   26.6425 C   0  0  0  0  0  0  0  0  0  0  0  0
    6.5300  -12.7545   26.3656 C   0  0  0  0  0  0  0  0  0  0  0  0
    6.0905  -11.6175   27.2200 C   0  0  0  0  0  0  0  0  0  0  0  0
    4.7736  -11.1145   26.9272 N   0  0  0  0  0  0  0  0  0  0  0  0
    9.6876  -15.7290   27.5138 C   0  0  0  0  0  0  0  0  0  0  0  0
    9.4430  -17.0914   27.7955 O   0  0  0  0  0  0  0  0  0  0  0  0
    9.9995  -15.0401   28.4978 O   0  0  0  0  0  0  0  0  0  0  0  0
  2  1  1  6
  2  9  1  0
  3  2  1  0
  4  3  1  0
  5  4  2  0
  6  5  1  0
  7  6  1  0
  7  8  2  0
  8  4  1  0
  9 10  2  0
 11 12  1  0
 12 14  1  0
 13 12  2  0
 15 14  1  6
 15 17  1  0
 16  9  1  0
 16 15  1  0
 17 18  2  0
 19 20  1  0
 19 17  1  0
 20 26  1  0
 20 21  1  1
 22 21  1  0
 23 22  1  0
 24 23  1  0
 25 24  1  0
 26 28  2  0
 26 27  1  0
M  END
$$$$
