AKR.pdb
     RDKit          3D

 26 25  0  0  1  0  0  0  0  0999 V2000
   25.5890  -24.4741  -15.3583 C   0  0  0  0  0  0  0  0  0  0  0  0
   25.4867  -23.0683  -15.9117 C   0  0  2  0  0  0  0  0  0  0  0  0
   26.7775  -22.4148  -15.9553 N   0  0  0  0  0  0  0  0  0  0  0  0
   24.5690  -22.3088  -15.0178 C   0  0  0  0  0  0  0  0  0  0  0  0
   24.8643  -22.1360  -13.8258 O   0  0  0  0  0  0  0  0  0  0  0  0
   23.3493  -21.7703  -15.5007 N   0  0  0  0  0  0  0  0  0  0  0  0
   22.4188  -21.0209  -14.7357 C   0  0  1  0  0  0  0  0  0  0  0  0
   21.8520  -19.8100  -15.3966 C   0  0  0  0  0  0  0  0  0  0  0  0
   22.6927  -18.5756  -15.2633 C   0  0  0  0  0  0  0  0  0  0  0  0
   21.9641  -17.4206  -15.8921 C   0  0  0  0  0  0  0  0  0  0  0  0
   22.7751  -16.1483  -15.8757 C   0  0  0  0  0  0  0  0  0  0  0  0
   22.1447  -15.0741  -16.6145 N   0  0  0  0  0  0  0  0  0  0  0  0
   21.2982  -21.9308  -14.3071 C   0  0  0  0  0  0  0  0  0  0  0  0
   20.7899  -22.7481  -15.1124 O   0  0  0  0  0  0  0  0  0  0  0  0
   16.5355  -25.4174   -8.3532 N   0  0  0  0  0  0  0  0  0  0  0  0
   17.6605  -26.2621   -8.5278 C   0  0  0  0  0  0  0  0  0  0  0  0
   17.5167  -27.5276   -8.4070 N   0  0  0  0  0  0  0  0  0  0  0  0
   18.9437  -25.7229   -8.8349 N   0  0  0  0  0  0  0  0  0  0  0  0
   19.1768  -24.3210   -9.0112 C   0  0  0  0  0  0  0  0  0  0  0  0
   18.8986  -23.9955  -10.4941 C   0  0  0  0  0  0  0  0  0  0  0  0
   19.9150  -23.0134  -11.0029 C   0  0  0  0  0  0  0  0  0  0  0  0
   19.7589  -22.7449  -12.4423 C   0  0  2  0  0  0  0  0  0  0  0  0
   20.7905  -21.8862  -12.9857 N   0  0  0  0  0  0  0  0  0  0  0  0
   18.3995  -22.4234  -12.9349 C   0  0  0  0  0  0  0  0  0  0  0  0
   17.5371  -23.3981  -13.4148 O   0  0  0  0  0  0  0  0  0  0  0  0
   17.9403  -21.2395  -12.9521 O   0  0  0  0  0  0  0  0  0  0  0  0
  2  1  1  1
  3  2  1  0
  4  2  1  0
  4  5  2  0
  6  4  1  0
  7  6  1  0
  7  8  1  6
  9  8  1  0
 10  9  1  0
 11 10  1  0
 12 11  1  0
 13  7  1  0
 14 13  2  0
 16 17  2  0
 16 15  1  0
 18 16  1  0
 19 18  1  0
 20 19  1  0
 22 21  1  1
 21 20  1  0
 22 23  1  0
 23 13  1  0
 24 25  1  0
 24 22  1  0
 26 24  2  0
M  END
$$$$
