AKR.pdb
     RDKit          3D

 26 25  0  0  1  0  0  0  0  0999 V2000
   20.0483  -20.7363  -12.3047 C   0  0  0  0  0  0  0  0  0  0  0  0
   19.9271  -19.6904  -13.3930 C   0  0  2  0  0  0  0  0  0  0  0  0
   18.6670  -19.7943  -14.0976 N   0  0  0  0  0  0  0  0  0  0  0  0
   21.0532  -19.9103  -14.3426 C   0  0  0  0  0  0  0  0  0  0  0  0
   21.2454  -21.0347  -14.8292 O   0  0  0  0  0  0  0  0  0  0  0  0
   21.9236  -18.8530  -14.7101 N   0  0  0  0  0  0  0  0  0  0  0  0
   22.9993  -18.9525  -15.6296 C   0  0  1  0  0  0  0  0  0  0  0  0
   23.5906  -17.6623  -16.0883 C   0  0  0  0  0  0  0  0  0  0  0  0
   24.7274  -17.8063  -17.0554 C   0  0  0  0  0  0  0  0  0  0  0  0
   25.2820  -16.4426  -17.3606 C   0  0  0  0  0  0  0  0  0  0  0  0
   26.4833  -16.4983  -18.2719 C   0  0  0  0  0  0  0  0  0  0  0  0
   27.7290  -16.2717  -17.5692 N   0  0  0  0  0  0  0  0  0  0  0  0
   24.0772  -19.8126  -15.0247 C   0  0  0  0  0  0  0  0  0  0  0  0
   24.6201  -19.4942  -13.9391 O   0  0  0  0  0  0  0  0  0  0  0  0
   23.7367  -26.4269  -17.7739 N   0  0  0  0  0  0  0  0  0  0  0  0
   24.5849  -27.1124  -16.8683 C   0  0  0  0  0  0  0  0  0  0  0  0
   25.1932  -28.1680  -17.2585 N   0  0  0  0  0  0  0  0  0  0  0  0
   24.7683  -26.6433  -15.5348 N   0  0  0  0  0  0  0  0  0  0  0  0
   24.1276  -25.4668  -15.0287 C   0  0  0  0  0  0  0  0  0  0  0  0
   24.8642  -24.2516  -15.6312 C   0  0  0  0  0  0  0  0  0  0  0  0
   24.9651  -23.1550  -14.6096 C   0  0  0  0  0  0  0  0  0  0  0  0
   25.5170  -21.9134  -15.1772 C   0  0  2  0  0  0  0  0  0  0  0  0
   24.5044  -21.0009  -15.6661 N   0  0  0  0  0  0  0  0  0  0  0  0
   26.6900  -22.0331  -16.0736 C   0  0  0  0  0  0  0  0  0  0  0  0
   26.6631  -21.5947  -17.3893 O   0  0  0  0  0  0  0  0  0  0  0  0
   27.7892  -22.5457  -15.6972 O   0  0  0  0  0  0  0  0  0  0  0  0
  2  1  1  1
  3  2  1  0
  4  2  1  0
  4  5  2  0
  6  4  1  0
  7  6  1  0
  7  8  1  1
  9  8  1  0
 10  9  1  0
 11 10  1  0
 12 11  1  0
 13  7  1  0
 14 13  2  0
 16 17  2  0
 16 15  1  0
 18 16  1  0
 19 18  1  0
 20 19  1  0
 22 21  1  6
 21 20  1  0
 22 23  1  0
 23 13  1  0
 24 25  1  0
 24 22  1  0
 26 24  2  0
M  END
$$$$
