AKR.pdb
     RDKit          3D

 26 25  0  0  1  0  0  0  0  0999 V2000
   20.5497  -26.4036  -11.9636 C   0  0  0  0  0  0  0  0  0  0  0  0
   20.4995  -27.4320  -10.8532 C   0  0  2  0  0  0  0  0  0  0  0  0
   20.5786  -28.7818  -11.3696 N   0  0  0  0  0  0  0  0  0  0  0  0
   19.2079  -27.2431  -10.1362 C   0  0  0  0  0  0  0  0  0  0  0  0
   18.1417  -27.5677  -10.6802 O   0  0  0  0  0  0  0  0  0  0  0  0
   19.1646  -26.6944   -8.8294 N   0  0  0  0  0  0  0  0  0  0  0  0
   17.9895  -26.4782   -8.0646 C   0  0  1  0  0  0  0  0  0  0  0  0
   18.1789  -26.3688   -6.5892 C   0  0  0  0  0  0  0  0  0  0  0  0
   16.9156  -26.1451   -5.8132 C   0  0  0  0  0  0  0  0  0  0  0  0
   17.2553  -26.0309   -4.3531 C   0  0  0  0  0  0  0  0  0  0  0  0
   16.0397  -25.7807   -3.4950 C   0  0  0  0  0  0  0  0  0  0  0  0
   16.3599  -25.6867   -2.0858 N   0  0  0  0  0  0  0  0  0  0  0  0
   17.2982  -25.2420   -8.5757 C   0  0  0  0  0  0  0  0  0  0  0  0
   17.9434  -24.1879   -8.7931 O   0  0  0  0  0  0  0  0  0  0  0  0
   12.8183  -23.2207  -15.5543 N   0  0  0  0  0  0  0  0  0  0  0  0
   13.5738  -22.2205  -14.8922 C   0  0  0  0  0  0  0  0  0  0  0  0
   14.0207  -21.2276  -15.5636 N   0  0  0  0  0  0  0  0  0  0  0  0
   13.8408  -22.3060  -13.4946 N   0  0  0  0  0  0  0  0  0  0  0  0
   13.4335  -23.4193  -12.6912 C   0  0  0  0  0  0  0  0  0  0  0  0
   13.9139  -23.1420  -11.2508 C   0  0  0  0  0  0  0  0  0  0  0  0
   14.6989  -24.3153  -10.7374 C   0  0  0  0  0  0  0  0  0  0  0  0
   15.1357  -24.1269   -9.3438 C   0  0  2  0  0  0  0  0  0  0  0  0
   15.9036  -25.2387   -8.8231 N   0  0  0  0  0  0  0  0  0  0  0  0
   14.1450  -23.5888   -8.3831 C   0  0  0  0  0  0  0  0  0  0  0  0
   13.7256  -22.2671   -8.4158 O   0  0  0  0  0  0  0  0  0  0  0  0
   13.6215  -24.2994   -7.4701 O   0  0  0  0  0  0  0  0  0  0  0  0
  2  1  1  6
  3  2  1  0
  4  2  1  0
  4  5  2  0
  6  4  1  0
  7  6  1  0
  7  8  1  1
  9  8  1  0
 10  9  1  0
 11 10  1  0
 12 11  1  0
 13  7  1  0
 14 13  2  0
 16 17  2  0
 16 15  1  0
 18 16  1  0
 19 18  1  0
 20 19  1  0
 22 21  1  6
 21 20  1  0
 22 23  1  0
 23 13  1  0
 24 25  1  0
 24 22  1  0
 26 24  2  0
M  END
$$$$
