AKR.pdb
     RDKit          3D

 26 25  0  0  1  0  0  0  0  0999 V2000
   25.7189  -12.6022  -16.3081 C   0  0  0  0  0  0  0  0  0  0  0  0
   24.3207  -12.2892  -15.8181 C   0  0  2  0  0  0  0  0  0  0  0  0
   23.4014  -13.3724  -16.0949 N   0  0  0  0  0  0  0  0  0  0  0  0
   23.8722  -11.0569  -16.5240 C   0  0  0  0  0  0  0  0  0  0  0  0
   24.4735   -9.9865  -16.3488 O   0  0  0  0  0  0  0  0  0  0  0  0
   22.7602  -11.0756  -17.4036 N   0  0  0  0  0  0  0  0  0  0  0  0
   22.1848   -9.9398  -18.0294 C   0  0  1  0  0  0  0  0  0  0  0  0
   21.3046  -10.2134  -19.2019 C   0  0  0  0  0  0  0  0  0  0  0  0
   20.7422   -8.9885  -19.8588 C   0  0  0  0  0  0  0  0  0  0  0  0
   19.8068   -9.4115  -20.9571 C   0  0  0  0  0  0  0  0  0  0  0  0
   19.1462   -8.2377  -21.6373 C   0  0  0  0  0  0  0  0  0  0  0  0
   18.0835   -8.6379  -22.5359 N   0  0  0  0  0  0  0  0  0  0  0  0
   21.4191   -9.1533  -16.9986 C   0  0  0  0  0  0  0  0  0  0  0  0
   20.6239   -9.7248  -16.2140 O   0  0  0  0  0  0  0  0  0  0  0  0
   21.1747   -6.6277   -9.2057 N   0  0  0  0  0  0  0  0  0  0  0  0
   20.2939   -5.7318   -9.8623 C   0  0  0  0  0  0  0  0  0  0  0  0
   19.5371   -4.9739   -9.1626 N   0  0  0  0  0  0  0  0  0  0  0  0
   20.2405   -5.6643  -11.2851 N   0  0  0  0  0  0  0  0  0  0  0  0
   20.8621   -6.6357  -12.1341 C   0  0  0  0  0  0  0  0  0  0  0  0
   20.5224   -6.2526  -13.5901 C   0  0  0  0  0  0  0  0  0  0  0  0
   21.1849   -7.2093  -14.5400 C   0  0  0  0  0  0  0  0  0  0  0  0
   20.8944   -6.8884  -15.9474 C   0  0  2  0  0  0  0  0  0  0  0  0
   21.5774   -7.7500  -16.8899 N   0  0  0  0  0  0  0  0  0  0  0  0
   20.8995   -5.4598  -16.3386 C   0  0  0  0  0  0  0  0  0  0  0  0
   20.1107   -4.5152  -15.6988 O   0  0  0  0  0  0  0  0  0  0  0  0
   21.6207   -5.0116  -17.2829 O   0  0  0  0  0  0  0  0  0  0  0  0
  2  1  1  6
  3  2  1  0
  4  2  1  0
  4  5  2  0
  6  4  1  0
  7  6  1  0
  7  8  1  6
  9  8  1  0
 10  9  1  0
 11 10  1  0
 12 11  1  0
 13  7  1  0
 14 13  2  0
 16 17  2  0
 16 15  1  0
 18 16  1  0
 19 18  1  0
 20 19  1  0
 22 21  1  1
 21 20  1  0
 22 23  1  0
 23 13  1  0
 24 25  1  0
 24 22  1  0
 26 24  2  0
M  END
$$$$
