AKR.pdb
     RDKit          3D

 26 25  0  0  1  0  0  0  0  0999 V2000
   20.0043  -15.6220  -17.9079 C   0  0  0  0  0  0  0  0  0  0  0  0
   21.3658  -16.1727  -17.5387 C   0  0  2  0  0  0  0  0  0  0  0  0
   22.1999  -16.3651  -18.7059 N   0  0  0  0  0  0  0  0  0  0  0  0
   21.1430  -17.4792  -16.8594 C   0  0  0  0  0  0  0  0  0  0  0  0
   20.3209  -18.2863  -17.3184 O   0  0  0  0  0  0  0  0  0  0  0  0
   21.8563  -17.8295  -15.6851 N   0  0  0  0  0  0  0  0  0  0  0  0
   21.8956  -19.1207  -15.0987 C   0  0  1  0  0  0  0  0  0  0  0  0
   23.2506  -19.6492  -14.7681 C   0  0  0  0  0  0  0  0  0  0  0  0
   23.2599  -21.0490  -14.2305 C   0  0  0  0  0  0  0  0  0  0  0  0
   24.6740  -21.4304  -13.8914 C   0  0  0  0  0  0  0  0  0  0  0  0
   24.7901  -22.8597  -13.4221 C   0  0  0  0  0  0  0  0  0  0  0  0
   26.1386  -23.2109  -13.0280 N   0  0  0  0  0  0  0  0  0  0  0  0
   21.0412  -19.1170  -13.8588 C   0  0  0  0  0  0  0  0  0  0  0  0
   21.0855  -18.1583  -13.0503 O   0  0  0  0  0  0  0  0  0  0  0  0
   18.7357  -24.5153   -7.5303 N   0  0  0  0  0  0  0  0  0  0  0  0
   17.5069  -23.9785   -7.9901 C   0  0  0  0  0  0  0  0  0  0  0  0
   16.4109  -24.4063   -7.4877 N   0  0  0  0  0  0  0  0  0  0  0  0
   17.4763  -22.9731   -9.0000 N   0  0  0  0  0  0  0  0  0  0  0  0
   18.3068  -23.0157  -10.1659 C   0  0  0  0  0  0  0  0  0  0  0  0
   17.8873  -21.8355  -11.0678 C   0  0  0  0  0  0  0  0  0  0  0  0
   18.8149  -21.7347  -12.2450 C   0  0  0  0  0  0  0  0  0  0  0  0
   19.4769  -20.4217  -12.3223 C   0  0  2  0  0  0  0  0  0  0  0  0
   20.1675  -20.1950  -13.5747 N   0  0  0  0  0  0  0  0  0  0  0  0
   20.2375  -19.9679  -11.1351 C   0  0  0  0  0  0  0  0  0  0  0  0
   19.7141  -19.0638  -10.2227 O   0  0  0  0  0  0  0  0  0  0  0  0
   21.4136  -20.3735  -10.8800 O   0  0  0  0  0  0  0  0  0  0  0  0
  2  1  1  6
  3  2  1  0
  4  2  1  0
  4  5  2  0
  6  4  1  0
  7  6  1  0
  7  8  1  1
  9  8  1  0
 10  9  1  0
 11 10  1  0
 12 11  1  0
 13  7  1  0
 14 13  2  0
 16 17  2  0
 16 15  1  0
 18 16  1  0
 19 18  1  0
 20 19  1  0
 22 21  1  1
 21 20  1  0
 22 23  1  0
 23 13  1  0
 24 25  1  0
 24 22  1  0
 26 24  2  0
M  END
$$$$
