AKR.pdb
     RDKit          3D

 26 25  0  0  1  0  0  0  0  0999 V2000
   15.0051  -15.5359  -16.0214 C   0  0  0  0  0  0  0  0  0  0  0  0
   16.3499  -15.2590  -16.6598 C   0  0  2  0  0  0  0  0  0  0  0  0
   17.2429  -16.3918  -16.5400 N   0  0  0  0  0  0  0  0  0  0  0  0
   16.9354  -14.0816  -15.9603 C   0  0  0  0  0  0  0  0  0  0  0  0
   16.6840  -13.8820  -14.7624 O   0  0  0  0  0  0  0  0  0  0  0  0
   17.7847  -13.1702  -16.6376 N   0  0  0  0  0  0  0  0  0  0  0  0
   18.3916  -12.0248  -16.0611 C   0  0  1  0  0  0  0  0  0  0  0  0
   19.6247  -11.5269  -16.7364 C   0  0  0  0  0  0  0  0  0  0  0  0
   20.7668  -12.4984  -16.7446 C   0  0  0  0  0  0  0  0  0  0  0  0
   21.8518  -11.9661  -17.6388 C   0  0  0  0  0  0  0  0  0  0  0  0
   23.0658  -12.8616  -17.6700 C   0  0  0  0  0  0  0  0  0  0  0  0
   24.0171  -12.4783  -18.6923 N   0  0  0  0  0  0  0  0  0  0  0  0
   17.3733  -10.9176  -15.9939 C   0  0  0  0  0  0  0  0  0  0  0  0
   16.6753  -10.6245  -16.9948 O   0  0  0  0  0  0  0  0  0  0  0  0
   10.6825  -11.4568  -12.6092 N   0  0  0  0  0  0  0  0  0  0  0  0
   12.0166  -11.3588  -12.1400 C   0  0  0  0  0  0  0  0  0  0  0  0
   12.2708  -11.6341  -10.9168 N   0  0  0  0  0  0  0  0  0  0  0  0
   13.0737  -10.9597  -13.0088 N   0  0  0  0  0  0  0  0  0  0  0  0
   12.8721  -10.6664  -14.3960 C   0  0  0  0  0  0  0  0  0  0  0  0
   14.2555  -10.3426  -14.9992 C   0  0  0  0  0  0  0  0  0  0  0  0
   14.9793   -9.3599  -14.1236 C   0  0  0  0  0  0  0  0  0  0  0  0
   16.3159   -9.0278  -14.6448 C   0  0  2  0  0  0  0  0  0  0  0  0
   17.1787  -10.1802  -14.8004 N   0  0  0  0  0  0  0  0  0  0  0  0
   17.0009   -7.8474  -14.0690 C   0  0  0  0  0  0  0  0  0  0  0  0
   16.9306   -6.5925  -14.6556 O   0  0  0  0  0  0  0  0  0  0  0  0
   17.6961   -7.9099  -13.0081 O   0  0  0  0  0  0  0  0  0  0  0  0
  2  1  1  1
  3  2  1  0
  4  2  1  0
  4  5  2  0
  6  4  1  0
  7  6  1  0
  7  8  1  6
  9  8  1  0
 10  9  1  0
 11 10  1  0
 12 11  1  0
 13  7  1  0
 14 13  2  0
 16 17  2  0
 16 15  1  0
 18 16  1  0
 19 18  1  0
 20 19  1  0
 22 21  1  1
 21 20  1  0
 22 23  1  0
 23 13  1  0
 24 25  1  0
 24 22  1  0
 26 24  2  0
M  END
$$$$
