AKR.pdb
     RDKit          3D

 26 25  0  0  1  0  0  0  0  0999 V2000
   20.2956  -29.6933  -11.4122 C   0  0  0  0  0  0  0  0  0  0  0  0
   20.8326  -28.2961  -11.6408 C   0  0  2  0  0  0  0  0  0  0  0  0
   21.8336  -27.9397  -10.6579 N   0  0  0  0  0  0  0  0  0  0  0  0
   19.6786  -27.3595  -11.5450 C   0  0  0  0  0  0  0  0  0  0  0  0
   18.7329  -27.4549  -12.3416 O   0  0  0  0  0  0  0  0  0  0  0  0
   19.6320  -26.3475  -10.5529 N   0  0  0  0  0  0  0  0  0  0  0  0
   18.5540  -25.4500  -10.3407 C   0  0  1  0  0  0  0  0  0  0  0  0
   18.3476  -24.9946   -8.9355 C   0  0  0  0  0  0  0  0  0  0  0  0
   17.7967  -26.0422   -8.0150 C   0  0  0  0  0  0  0  0  0  0  0  0
   17.7618  -25.4912   -6.6166 C   0  0  0  0  0  0  0  0  0  0  0  0
   17.0915  -26.4289   -5.6429 C   0  0  0  0  0  0  0  0  0  0  0  0
   17.0403  -25.8950   -4.2977 N   0  0  0  0  0  0  0  0  0  0  0  0
   18.7356  -24.2527  -11.2357 C   0  0  0  0  0  0  0  0  0  0  0  0
   19.8633  -23.7203  -11.3763 O   0  0  0  0  0  0  0  0  0  0  0  0
   20.0936  -20.8842  -18.0507 N   0  0  0  0  0  0  0  0  0  0  0  0
   20.1113  -22.2408  -17.6399 C   0  0  0  0  0  0  0  0  0  0  0  0
   21.1183  -22.9713  -17.9385 N   0  0  0  0  0  0  0  0  0  0  0  0
   19.0273  -22.7993  -16.9020 N   0  0  0  0  0  0  0  0  0  0  0  0
   17.8356  -22.0668  -16.5951 C   0  0  0  0  0  0  0  0  0  0  0  0
   17.9161  -21.6685  -15.1061 C   0  0  0  0  0  0  0  0  0  0  0  0
   17.7038  -22.8772  -14.2398 C   0  0  0  0  0  0  0  0  0  0  0  0
   17.6840  -22.5394  -12.8067 C   0  0  2  0  0  0  0  0  0  0  0  0
   17.6389  -23.6984  -11.9398 N   0  0  0  0  0  0  0  0  0  0  0  0
   16.7892  -21.4407  -12.3750 C   0  0  0  0  0  0  0  0  0  0  0  0
   17.2646  -20.1702  -12.0857 O   0  0  0  0  0  0  0  0  0  0  0  0
   15.5357  -21.5926  -12.2395 O   0  0  0  0  0  0  0  0  0  0  0  0
  2  1  1  1
  3  2  1  0
  4  2  1  0
  4  5  2  0
  6  4  1  0
  7  6  1  0
  7  8  1  1
  9  8  1  0
 10  9  1  0
 11 10  1  0
 12 11  1  0
 13  7  1  0
 14 13  2  0
 16 17  2  0
 16 15  1  0
 18 16  1  0
 19 18  1  0
 20 19  1  0
 22 21  1  6
 21 20  1  0
 22 23  1  0
 23 13  1  0
 24 25  1  0
 24 22  1  0
 26 24  2  0
M  END
$$$$
