AKR.pdb
     RDKit          3D

 26 25  0  0  1  0  0  0  0  0999 V2000
   25.2536  -15.1543  -15.4261 C   0  0  0  0  0  0  0  0  0  0  0  0
   26.6756  -15.6062  -15.6845 C   0  0  2  0  0  0  0  0  0  0  0  0
   27.0988  -15.2973  -17.0338 N   0  0  0  0  0  0  0  0  0  0  0  0
   26.7152  -17.0795  -15.4704 C   0  0  0  0  0  0  0  0  0  0  0  0
   26.4208  -17.8503  -16.3962 O   0  0  0  0  0  0  0  0  0  0  0  0
   27.0861  -17.6319  -14.2182 N   0  0  0  0  0  0  0  0  0  0  0  0
   27.0410  -19.0086  -13.8786 C   0  0  1  0  0  0  0  0  0  0  0  0
   27.8713  -19.4228  -12.7108 C   0  0  0  0  0  0  0  0  0  0  0  0
   27.8241  -20.8891  -12.4009 C   0  0  0  0  0  0  0  0  0  0  0  0
   29.2084  -21.3561  -12.0463 C   0  0  0  0  0  0  0  0  0  0  0  0
   29.3725  -21.6064  -10.5674 C   0  0  0  0  0  0  0  0  0  0  0  0
   30.7507  -21.8405  -10.1895 N   0  0  0  0  0  0  0  0  0  0  0  0
   25.6074  -19.4035  -13.6414 C   0  0  0  0  0  0  0  0  0  0  0  0
   24.8386  -18.6659  -12.9784 O   0  0  0  0  0  0  0  0  0  0  0  0
   18.3732  -21.9965  -11.0659 N   0  0  0  0  0  0  0  0  0  0  0  0
   18.6514  -22.5014  -12.3611 C   0  0  0  0  0  0  0  0  0  0  0  0
   17.6977  -22.9904  -13.0595 N   0  0  0  0  0  0  0  0  0  0  0  0
   19.9734  -22.4714  -12.8931 N   0  0  0  0  0  0  0  0  0  0  0  0
   21.0464  -21.7552  -12.2714 C   0  0  0  0  0  0  0  0  0  0  0  0
   21.4431  -20.6091  -13.2262 C   0  0  0  0  0  0  0  0  0  0  0  0
   22.9118  -20.3208  -13.0988 C   0  0  0  0  0  0  0  0  0  0  0  0
   23.7115  -21.0487  -14.0982 C   0  0  2  0  0  0  0  0  0  0  0  0
   25.0922  -20.6165  -14.1602 N   0  0  0  0  0  0  0  0  0  0  0  0
   23.1012  -21.2770  -15.4284 C   0  0  0  0  0  0  0  0  0  0  0  0
   23.4378  -20.5145  -16.5371 O   0  0  0  0  0  0  0  0  0  0  0  0
   22.2322  -22.1793  -15.6366 O   0  0  0  0  0  0  0  0  0  0  0  0
  2  1  1  6
  3  2  1  0
  4  2  1  0
  4  5  2  0
  6  4  1  0
  7  6  1  0
  7  8  1  1
  9  8  1  0
 10  9  1  0
 11 10  1  0
 12 11  1  0
 13  7  1  0
 14 13  2  0
 16 17  2  0
 16 15  1  0
 18 16  1  0
 19 18  1  0
 20 19  1  0
 22 21  1  6
 21 20  1  0
 22 23  1  0
 23 13  1  0
 24 25  1  0
 24 22  1  0
 26 24  2  0
M  END
$$$$
