AKR.pdb
     RDKit          3D

 26 25  0  0  1  0  0  0  0  0999 V2000
   16.1668  -27.7041   -3.2582 C   0  0  0  0  0  0  0  0  0  0  0  0
   17.4412  -26.8954   -3.3808 C   0  0  2  0  0  0  0  0  0  0  0  0
   17.7523  -26.1968   -2.1519 N   0  0  0  0  0  0  0  0  0  0  0  0
   17.2344  -25.9115   -4.4796 C   0  0  0  0  0  0  0  0  0  0  0  0
   16.9494  -24.7341   -4.2142 O   0  0  0  0  0  0  0  0  0  0  0  0
   17.3566  -26.2910   -5.8404 N   0  0  0  0  0  0  0  0  0  0  0  0
   17.3271  -25.4061   -6.9488 C   0  0  1  0  0  0  0  0  0  0  0  0
   18.2368  -25.7441   -8.0814 C   0  0  0  0  0  0  0  0  0  0  0  0
   18.2018  -24.7706   -9.2213 C   0  0  0  0  0  0  0  0  0  0  0  0
   19.0908  -25.2785  -10.3222 C   0  0  0  0  0  0  0  0  0  0  0  0
   19.1464  -24.3374  -11.5003 C   0  0  0  0  0  0  0  0  0  0  0  0
   20.0299  -24.8051  -12.5481 N   0  0  0  0  0  0  0  0  0  0  0  0
   15.9118  -25.3067   -7.4533 C   0  0  0  0  0  0  0  0  0  0  0  0
   15.1747  -26.3211   -7.5042 O   0  0  0  0  0  0  0  0  0  0  0  0
   10.4195  -18.4131   -7.8428 N   0  0  0  0  0  0  0  0  0  0  0  0
   10.6117  -19.5185   -6.9763 C   0  0  0  0  0  0  0  0  0  0  0  0
   10.2407  -19.4277   -5.7554 N   0  0  0  0  0  0  0  0  0  0  0  0
   11.2100  -20.7243   -7.4452 N   0  0  0  0  0  0  0  0  0  0  0  0
   11.7197  -20.8742   -8.7750 C   0  0  0  0  0  0  0  0  0  0  0  0
   12.1888  -22.3374   -8.9212 C   0  0  0  0  0  0  0  0  0  0  0  0
   13.5675  -22.4939   -8.3457 C   0  0  0  0  0  0  0  0  0  0  0  0
   14.0809  -23.8660   -8.4934 C   0  0  2  0  0  0  0  0  0  0  0  0
   15.3784  -24.0669   -7.8827 N   0  0  0  0  0  0  0  0  0  0  0  0
   13.9444  -24.5084   -9.8211 C   0  0  0  0  0  0  0  0  0  0  0  0
   12.8287  -25.2548  -10.1703 O   0  0  0  0  0  0  0  0  0  0  0  0
   14.8381  -24.4198  -10.7190 O   0  0  0  0  0  0  0  0  0  0  0  0
  2  1  1  1
  3  2  1  0
  4  2  1  0
  4  5  2  0
  6  4  1  0
  7  6  1  0
  7  8  1  6
  9  8  1  0
 10  9  1  0
 11 10  1  0
 12 11  1  0
 13  7  1  0
 14 13  2  0
 16 17  2  0
 16 15  1  0
 18 16  1  0
 19 18  1  0
 20 19  1  0
 22 21  1  6
 21 20  1  0
 22 23  1  0
 23 13  1  0
 24 25  1  0
 24 22  1  0
 26 24  2  0
M  END
$$$$
