AKR.pdb
     RDKit          3D

 26 25  0  0  1  0  0  0  0  0999 V2000
   24.1559  -14.9107  -21.1388 C   0  0  0  0  0  0  0  0  0  0  0  0
   23.3506  -13.6297  -21.2000 C   0  0  2  0  0  0  0  0  0  0  0  0
   23.8200  -12.6558  -20.2376 N   0  0  0  0  0  0  0  0  0  0  0  0
   21.9347  -13.9852  -20.9054 C   0  0  0  0  0  0  0  0  0  0  0  0
   21.0125  -13.4166  -21.5090 O   0  0  0  0  0  0  0  0  0  0  0  0
   21.6086  -14.9707  -19.9393 N   0  0  0  0  0  0  0  0  0  0  0  0
   20.2962  -15.3844  -19.5942 C   0  0  1  0  0  0  0  0  0  0  0  0
   20.1929  -16.6490  -18.8102 C   0  0  0  0  0  0  0  0  0  0  0  0
   20.2999  -17.9007  -19.6288 C   0  0  0  0  0  0  0  0  0  0  0  0
   20.0939  -19.0885  -18.7305 C   0  0  0  0  0  0  0  0  0  0  0  0
   20.0139  -20.3856  -19.4972 C   0  0  0  0  0  0  0  0  0  0  0  0
   19.9740  -21.5454  -18.6310 N   0  0  0  0  0  0  0  0  0  0  0  0
   19.6178  -14.2700  -18.8424 C   0  0  0  0  0  0  0  0  0  0  0  0
   20.2850  -13.4569  -18.1578 O   0  0  0  0  0  0  0  0  0  0  0  0
   18.2252   -6.3574  -18.6431 N   0  0  0  0  0  0  0  0  0  0  0  0
   17.1657   -6.8424  -17.8357 C   0  0  0  0  0  0  0  0  0  0  0  0
   16.3818   -6.0076  -17.2654 N   0  0  0  0  0  0  0  0  0  0  0  0
   16.9630   -8.2412  -17.6519 N   0  0  0  0  0  0  0  0  0  0  0  0
   17.8029   -9.2346  -18.2507 C   0  0  0  0  0  0  0  0  0  0  0  0
   17.1921  -10.6114  -17.9137 C   0  0  0  0  0  0  0  0  0  0  0  0
   18.0204  -11.7039  -18.5275 C   0  0  0  0  0  0  0  0  0  0  0  0
   17.4552  -13.0402  -18.2762 C   0  0  2  0  0  0  0  0  0  0  0  0
   18.2110  -14.1125  -18.8892 N   0  0  0  0  0  0  0  0  0  0  0  0
   15.9883  -13.1983  -18.4074 C   0  0  0  0  0  0  0  0  0  0  0  0
   15.4173  -14.2617  -19.0909 O   0  0  0  0  0  0  0  0  0  0  0  0
   15.1637  -12.3720  -17.9075 O   0  0  0  0  0  0  0  0  0  0  0  0
  2  1  1  1
  3  2  1  0
  4  2  1  0
  4  5  2  0
  6  4  1  0
  7  6  1  0
  7  8  1  1
  9  8  1  0
 10  9  1  0
 11 10  1  0
 12 11  1  0
 13  7  1  0
 14 13  2  0
 16 17  2  0
 16 15  1  0
 18 16  1  0
 19 18  1  0
 20 19  1  0
 22 21  1  6
 21 20  1  0
 22 23  1  0
 23 13  1  0
 24 25  1  0
 24 22  1  0
 26 24  2  0
M  END
$$$$
