AKR.pdb
     RDKit          3D

 26 25  0  0  1  0  0  0  0  0999 V2000
   28.1455  -20.4309  -16.1399 C   0  0  0  0  0  0  0  0  0  0  0  0
   27.1011  -21.3901  -15.6088 C   0  0  2  0  0  0  0  0  0  0  0  0
   26.5932  -22.2586  -16.6495 N   0  0  0  0  0  0  0  0  0  0  0  0
   25.9900  -20.5682  -15.0537 C   0  0  0  0  0  0  0  0  0  0  0  0
   26.1955  -19.8147  -14.0904 O   0  0  0  0  0  0  0  0  0  0  0  0
   24.6851  -20.6254  -15.6055 N   0  0  0  0  0  0  0  0  0  0  0  0
   23.5716  -19.8620  -15.1697 C   0  0  1  0  0  0  0  0  0  0  0  0
   22.9861  -18.9260  -16.1725 C   0  0  0  0  0  0  0  0  0  0  0  0
   23.7658  -17.6613  -16.3748 C   0  0  0  0  0  0  0  0  0  0  0  0
   23.0567  -16.8099  -17.3910 C   0  0  0  0  0  0  0  0  0  0  0  0
   23.8491  -15.5834  -17.7710 C   0  0  0  0  0  0  0  0  0  0  0  0
   23.1899  -14.7830  -18.7819 N   0  0  0  0  0  0  0  0  0  0  0  0
   22.5033  -20.8006  -14.6744 C   0  0  0  0  0  0  0  0  0  0  0  0
   22.2356  -21.8563  -15.2979 O   0  0  0  0  0  0  0  0  0  0  0  0
   19.1368  -24.2527   -7.5399 N   0  0  0  0  0  0  0  0  0  0  0  0
   18.1278  -24.2350   -8.5356 C   0  0  0  0  0  0  0  0  0  0  0  0
   17.1131  -25.0040   -8.4110 N   0  0  0  0  0  0  0  0  0  0  0  0
   18.2282  -23.3755   -9.6682 N   0  0  0  0  0  0  0  0  0  0  0  0
   19.4113  -22.6299   -9.9769 C   0  0  0  0  0  0  0  0  0  0  0  0
   19.0617  -21.6829  -11.1445 C   0  0  0  0  0  0  0  0  0  0  0  0
   20.2941  -20.9556  -11.6014 C   0  0  0  0  0  0  0  0  0  0  0  0
   20.6263  -21.2491  -13.0056 C   0  0  2  0  0  0  0  0  0  0  0  0
   21.7749  -20.5149  -13.4939 N   0  0  0  0  0  0  0  0  0  0  0  0
   19.5075  -21.3129  -13.9743 C   0  0  0  0  0  0  0  0  0  0  0  0
   18.9240  -22.5132  -14.3520 O   0  0  0  0  0  0  0  0  0  0  0  0
   19.0160  -20.2773  -14.5209 O   0  0  0  0  0  0  0  0  0  0  0  0
  2  1  1  6
  3  2  1  0
  4  2  1  0
  4  5  2  0
  6  4  1  0
  7  6  1  0
  7  8  1  6
  9  8  1  0
 10  9  1  0
 11 10  1  0
 12 11  1  0
 13  7  1  0
 14 13  2  0
 16 17  2  0
 16 15  1  0
 18 16  1  0
 19 18  1  0
 20 19  1  0
 22 21  1  1
 21 20  1  0
 22 23  1  0
 23 13  1  0
 24 25  1  0
 24 22  1  0
 26 24  2  0
M  END
$$$$
