AKR.pdb
     RDKit          3D

 26 25  0  0  1  0  0  0  0  0999 V2000
   21.7271  -21.2195    6.0139 C   0  0  0  0  0  0  0  0  0  0  0  0
   20.6723  -20.4850    6.8143 C   0  0  2  0  0  0  0  0  0  0  0  0
   21.1652  -20.0941    8.1180 N   0  0  0  0  0  0  0  0  0  0  0  0
   19.5153  -21.4095    6.9711 C   0  0  0  0  0  0  0  0  0  0  0  0
   19.5512  -22.3117    7.8212 O   0  0  0  0  0  0  0  0  0  0  0  0
   18.3572  -21.2833    6.1626 N   0  0  0  0  0  0  0  0  0  0  0  0
   17.1714  -22.0507    6.2954 C   0  0  1  0  0  0  0  0  0  0  0  0
   15.9049  -21.3748    5.8910 C   0  0  0  0  0  0  0  0  0  0  0  0
   15.5261  -20.1995    6.7417 C   0  0  0  0  0  0  0  0  0  0  0  0
   14.2221  -19.6398    6.2451 C   0  0  0  0  0  0  0  0  0  0  0  0
   13.7067  -18.5186    7.1135 C   0  0  0  0  0  0  0  0  0  0  0  0
   12.4320  -18.0016    6.6607 N   0  0  0  0  0  0  0  0  0  0  0  0
   17.3304  -23.3288    5.5154 C   0  0  0  0  0  0  0  0  0  0  0  0
   17.9790  -23.3501    4.4413 O   0  0  0  0  0  0  0  0  0  0  0  0
   21.3513  -30.7800    6.4370 N   0  0  0  0  0  0  0  0  0  0  0  0
   20.5139  -30.8919    5.2987 C   0  0  0  0  0  0  0  0  0  0  0  0
   20.6813  -31.8717    4.4934 N   0  0  0  0  0  0  0  0  0  0  0  0
   19.4925  -29.9318    5.0407 N   0  0  0  0  0  0  0  0  0  0  0  0
   19.3122  -28.7546    5.8361 C   0  0  0  0  0  0  0  0  0  0  0  0
   18.1266  -27.9729    5.2312 C   0  0  0  0  0  0  0  0  0  0  0  0
   17.9686  -26.6554    5.9352 C   0  0  0  0  0  0  0  0  0  0  0  0
   16.8926  -25.8370    5.3515 C   0  0  2  0  0  0  0  0  0  0  0  0
   16.7518  -24.5374    5.9743 N   0  0  0  0  0  0  0  0  0  0  0  0
   15.5998  -26.5043    5.0730 C   0  0  0  0  0  0  0  0  0  0  0  0
   14.5384  -26.4619    5.9649 O   0  0  0  0  0  0  0  0  0  0  0  0
   15.3832  -27.1578    4.0058 O   0  0  0  0  0  0  0  0  0  0  0  0
  2  1  1  6
  3  2  1  0
  4  2  1  0
  4  5  2  0
  6  4  1  0
  7  6  1  0
  7  8  1  6
  9  8  1  0
 10  9  1  0
 11 10  1  0
 12 11  1  0
 13  7  1  0
 14 13  2  0
 16 17  2  0
 16 15  1  0
 18 16  1  0
 19 18  1  0
 20 19  1  0
 22 21  1  1
 21 20  1  0
 22 23  1  0
 23 13  1  0
 24 25  1  0
 24 22  1  0
 26 24  2  0
M  END
$$$$
