MRT.pdb
     RDKit          3D

 27 26  0  0  1  0  0  0  0  0999 V2000
    7.4405  -11.3908   26.1976 C   0  0  0  0  0  0  0  0  0  0  0  0
    6.2841  -12.2441   27.2814 S   0  0  0  0  0  0  0  0  0  0  0  0
    5.6996  -13.7463   26.4367 C   0  0  0  0  0  0  0  0  0  0  0  0
    6.8681  -14.3856   25.7436 C   0  0  0  0  0  0  0  0  0  0  0  0
    6.4198  -15.6441   25.0217 C   0  0  2  0  0  0  0  0  0  0  0  0
    5.7810  -16.5314   25.9650 N   0  0  0  0  0  0  0  0  0  0  0  0
    7.6373  -16.2760   24.4444 C   0  0  0  0  0  0  0  0  0  0  0  0
    7.9599  -17.4210   24.8460 O   0  0  0  0  0  0  0  0  0  0  0  0
    7.9602  -12.0609   18.5135 N   0  0  0  0  0  0  0  0  0  0  0  0
    7.7656  -13.3413   17.9247 C   0  0  0  0  0  0  0  0  0  0  0  0
    7.1101  -13.4214   16.8250 N   0  0  0  0  0  0  0  0  0  0  0  0
    8.3004  -14.4684   18.5717 N   0  0  0  0  0  0  0  0  0  0  0  0
    9.2285  -14.2906   19.6595 C   0  0  0  0  0  0  0  0  0  0  0  0
    9.0912  -15.4847   20.5625 C   0  0  0  0  0  0  0  0  0  0  0  0
   10.0345  -15.4137   21.7238 C   0  0  0  0  0  0  0  0  0  0  0  0
    9.5578  -16.3159   22.8213 C   0  0  2  0  0  0  0  0  0  0  0  0
    8.4436  -15.6545   23.4722 N   0  0  0  0  0  0  0  0  0  0  0  0
   10.6446  -16.5263   23.8462 C   0  0  0  0  0  0  0  0  0  0  0  0
   10.7426  -15.7386   24.8146 O   0  0  0  0  0  0  0  0  0  0  0  0
    6.9649  -14.3119   16.3397 C   0  0  0  0  0  0  0  0  0  0  0  0
   10.8075  -17.2974   26.5933 C   0  0  2  0  0  0  0  0  0  0  0  0
   11.6546  -18.4378   26.0704 O   0  0  0  0  0  0  0  0  0  0  0  0
   10.7999  -19.4789   25.6907 C   0  0  2  0  0  0  0  0  0  0  0  0
   12.4432  -17.9578   24.8738 N   0  0  0  0  0  0  0  0  0  0  0  0
   11.5787  -17.5895   23.7689 C   0  0  0  0  0  0  0  0  0  0  0  0
   13.3990  -19.0085   24.4262 O   0  0  0  0  0  0  0  0  0  0  0  0
   13.2322  -19.6010   23.3299 O   0  0  0  0  0  0  0  0  0  0  0  0
  2  1  1  0
  3  4  1  0
  3  2  1  0
  4  5  1  0
  5  6  1  1
  7  8  2  0
  7  5  1  0
 10  9  1  0
 11 10  2  0
 12 10  1  0
 13 12  1  0
 14 13  1  0
 14 15  1  0
 16 15  1  6
 16 17  1  0
 17  7  1  0
 18 19  2  0
 18 16  1  0
 21 20  1  1
 21 22  1  0
 23 21  1  0
 23 24  1  1
 24 18  1  0
 25 23  1  0
 26 25  2  0
 27 25  1  0
M  END
$$$$
