MRT.pdb
     RDKit          3D

 27 26  0  0  1  0  0  0  0  0999 V2000
   10.6006  -14.5094   29.5402 C   0  0  0  0  0  0  0  0  0  0  0  0
    9.2800  -13.5487   28.7831 S   0  0  0  0  0  0  0  0  0  0  0  0
    8.0360  -14.6983   28.1178 C   0  0  0  0  0  0  0  0  0  0  0  0
    8.6915  -15.5528   27.0716 C   0  0  0  0  0  0  0  0  0  0  0  0
    7.6773  -16.5111   26.4723 C   0  0  2  0  0  0  0  0  0  0  0  0
    7.7736  -17.7861   27.1434 N   0  0  0  0  0  0  0  0  0  0  0  0
    8.0052  -16.6496   25.0273 C   0  0  0  0  0  0  0  0  0  0  0  0
    8.4884  -17.7379   24.6291 O   0  0  0  0  0  0  0  0  0  0  0  0
    9.4302  -12.7967   18.4091 N   0  0  0  0  0  0  0  0  0  0  0  0
    8.4447  -13.5268   17.6883 C   0  0  0  0  0  0  0  0  0  0  0  0
    8.6860  -13.8533   16.4715 N   0  0  0  0  0  0  0  0  0  0  0  0
    7.2450  -13.8622   18.3388 N   0  0  0  0  0  0  0  0  0  0  0  0
    7.0891  -13.5665   19.7405 C   0  0  0  0  0  0  0  0  0  0  0  0
    7.7821  -14.6589   20.5065 C   0  0  0  0  0  0  0  0  0  0  0  0
    7.4702  -14.5942   21.9701 C   0  0  0  0  0  0  0  0  0  0  0  0
    8.0693  -15.7762   22.6698 C   0  0  2  0  0  0  0  0  0  0  0  0
    7.8008  -15.6225   24.0865 N   0  0  0  0  0  0  0  0  0  0  0  0
    9.5649  -15.8077   22.4746 C   0  0  0  0  0  0  0  0  0  0  0  0
   10.2966  -15.0782   23.1820 O   0  0  0  0  0  0  0  0  0  0  0  0
    7.9999  -14.3466   15.8922 C   0  0  0  0  0  0  0  0  0  0  0  0
   13.0253  -17.6966   23.2326 C   0  0  2  0  0  0  0  0  0  0  0  0
   12.1286  -18.0463   22.0643 O   0  0  0  0  0  0  0  0  0  0  0  0
   11.0418  -18.7810   22.5520 C   0  0  2  0  0  0  0  0  0  0  0  0
   11.6386  -16.7703   21.4195 N   0  0  0  0  0  0  0  0  0  0  0  0
   10.1974  -16.6357   21.5138 C   0  0  0  0  0  0  0  0  0  0  0  0
   12.0483  -16.7208   19.9886 O   0  0  0  0  0  0  0  0  0  0  0  0
   11.1900  -16.8027   19.0734 O   0  0  0  0  0  0  0  0  0  0  0  0
  2  1  1  0
  3  4  1  0
  3  2  1  0
  4  5  1  0
  5  6  1  1
  7  8  2  0
  7  5  1  0
 10  9  1  0
 11 10  2  0
 12 10  1  0
 13 12  1  0
 14 13  1  0
 14 15  1  0
 16 15  1  6
 16 17  1  0
 17  7  1  0
 18 19  2  0
 18 16  1  0
 21 20  1  6
 21 22  1  0
 23 21  1  0
 23 24  1  6
 24 18  1  0
 25 23  1  0
 26 25  2  0
 27 25  1  0
M  END
$$$$
