MRT.pdb
     RDKit          3D

 27 26  0  0  1  0  0  0  0  0999 V2000
    8.0694  -11.9855   19.3302 C   0  0  0  0  0  0  0  0  0  0  0  0
    7.2111  -12.9685   20.5701 S   0  0  0  0  0  0  0  0  0  0  0  0
    7.3118  -14.7212   20.0908 C   0  0  0  0  0  0  0  0  0  0  0  0
    8.2146  -14.8351   18.8965 C   0  0  0  0  0  0  0  0  0  0  0  0
    8.2729  -16.2771   18.4240 C   0  0  2  0  0  0  0  0  0  0  0  0
    6.9748  -16.6671   17.9261 N   0  0  0  0  0  0  0  0  0  0  0  0
    8.6593  -17.1077   19.5969 C   0  0  0  0  0  0  0  0  0  0  0  0
    8.1667  -18.2581   19.6986 O   0  0  0  0  0  0  0  0  0  0  0  0
   16.3024  -17.7510   19.4845 N   0  0  0  0  0  0  0  0  0  0  0  0
   16.0678  -19.1162   19.8085 C   0  0  0  0  0  0  0  0  0  0  0  0
   17.0598  -19.8428   20.1738 N   0  0  0  0  0  0  0  0  0  0  0  0
   14.7572  -19.6148   19.7161 N   0  0  0  0  0  0  0  0  0  0  0  0
   13.7071  -18.7662   19.2123 C   0  0  0  0  0  0  0  0  0  0  0  0
   12.7481  -18.5235   20.3445 C   0  0  0  0  0  0  0  0  0  0  0  0
   11.6055  -17.6501   19.9262 C   0  0  0  0  0  0  0  0  0  0  0  0
   10.6623  -17.4626   21.0756 C   0  0  2  0  0  0  0  0  0  0  0  0
    9.5481  -16.6681   20.5962 N   0  0  0  0  0  0  0  0  0  0  0  0
   11.3328  -16.7063   22.1955 C   0  0  0  0  0  0  0  0  0  0  0  0
   11.5777  -15.4860   22.0581 O   0  0  0  0  0  0  0  0  0  0  0  0
   16.9445  -20.8191   20.4624 C   0  0  0  0  0  0  0  0  0  0  0  0
    9.2259  -15.8901   23.7021 C   0  0  2  0  0  0  0  0  0  0  0  0
    9.7659  -16.7635   24.8143 O   0  0  0  0  0  0  0  0  0  0  0  0
    9.2304  -18.0474   24.6611 C   0  0  2  0  0  0  0  0  0  0  0  0
   11.2726  -16.8192   24.7102 N   0  0  0  0  0  0  0  0  0  0  0  0
   11.7073  -17.3164   23.4187 C   0  0  0  0  0  0  0  0  0  0  0  0
   11.8363  -17.6792   25.7875 O   0  0  0  0  0  0  0  0  0  0  0  0
   12.2867  -18.8231   25.5241 O   0  0  0  0  0  0  0  0  0  0  0  0
  2  1  1  0
  3  4  1  0
  3  2  1  0
  4  5  1  0
  5  6  1  1
  7  8  2  0
  7  5  1  0
 10  9  1  0
 11 10  2  0
 12 10  1  0
 13 12  1  0
 14 13  1  0
 14 15  1  0
 16 15  1  6
 16 17  1  0
 17  7  1  0
 18 19  2  0
 18 16  1  0
 21 20  1  1
 21 22  1  0
 23 21  1  0
 23 24  1  1
 24 18  1  0
 25 23  1  0
 26 25  2  0
 27 25  1  0
M  END
$$$$
