MRT.pdb
     RDKit          3D

 27 26  0  0  1  0  0  0  0  0999 V2000
    8.2116  -11.6442   20.0222 C   0  0  0  0  0  0  0  0  0  0  0  0
    7.8881  -12.4923   18.4678 S   0  0  0  0  0  0  0  0  0  0  0  0
    8.1512  -14.2759   18.7157 C   0  0  0  0  0  0  0  0  0  0  0  0
    7.8358  -14.6075   20.1457 C   0  0  0  0  0  0  0  0  0  0  0  0
    8.0694  -16.0861   20.4006 C   0  0  2  0  0  0  0  0  0  0  0  0
    7.1066  -16.8561   19.6489 N   0  0  0  0  0  0  0  0  0  0  0  0
    7.8999  -16.3116   21.8619 C   0  0  0  0  0  0  0  0  0  0  0  0
    6.7334  -16.3905   22.3197 O   0  0  0  0  0  0  0  0  0  0  0  0
   12.4099  -20.6924   27.7876 N   0  0  0  0  0  0  0  0  0  0  0  0
   11.2204  -21.0194   27.0791 C   0  0  0  0  0  0  0  0  0  0  0  0
   10.9149  -22.2556   26.9238 N   0  0  0  0  0  0  0  0  0  0  0  0
   10.4262  -19.9741   26.5776 N   0  0  0  0  0  0  0  0  0  0  0  0
   10.9103  -18.6185   26.6431 C   0  0  0  0  0  0  0  0  0  0  0  0
    9.8134  -17.7279   26.1294 C   0  0  0  0  0  0  0  0  0  0  0  0
    9.8685  -17.5825   24.6397 C   0  0  0  0  0  0  0  0  0  0  0  0
    8.8152  -16.6189   24.1841 C   0  0  2  0  0  0  0  0  0  0  0  0
    8.9807  -16.4404   22.7546 N   0  0  0  0  0  0  0  0  0  0  0  0
    8.9975  -15.2777   24.8504 C   0  0  0  0  0  0  0  0  0  0  0  0
   10.0953  -14.6832   24.7541 O   0  0  0  0  0  0  0  0  0  0  0  0
   10.0857  -22.5513   26.3999 C   0  0  0  0  0  0  0  0  0  0  0  0
    6.5670  -12.0685   24.9558 C   0  0  2  0  0  0  0  0  0  0  0  0
    6.8962  -12.5692   26.3459 O   0  0  0  0  0  0  0  0  0  0  0  0
    5.8360  -13.3707   26.7842 C   0  0  2  0  0  0  0  0  0  0  0  0
    8.1674  -13.3846   26.2881 N   0  0  0  0  0  0  0  0  0  0  0  0
    7.9713  -14.6432   25.5942 C   0  0  0  0  0  0  0  0  0  0  0  0
    8.6769  -13.6504   27.6620 O   0  0  0  0  0  0  0  0  0  0  0  0
    8.7614  -14.8269   28.0973 O   0  0  0  0  0  0  0  0  0  0  0  0
  2  1  1  0
  3  4  1  0
  3  2  1  0
  4  5  1  0
  5  6  1  6
  7  8  2  0
  7  5  1  0
 10  9  1  0
 11 10  2  0
 12 10  1  0
 13 12  1  0
 14 13  1  0
 14 15  1  0
 16 15  1  1
 16 17  1  0
 17  7  1  0
 18 19  2  0
 18 16  1  0
 21 20  1  1
 21 22  1  0
 23 21  1  0
 23 24  1  1
 24 18  1  0
 25 23  1  0
 26 25  2  0
 27 25  1  0
M  END
$$$$
