MRT.pdb
     RDKit          3D

 27 26  0  0  1  0  0  0  0  0999 V2000
    7.6360  -12.3667   28.0573 C   0  0  0  0  0  0  0  0  0  0  0  0
    6.7878  -11.4353   26.7715 S   0  0  0  0  0  0  0  0  0  0  0  0
    5.5689  -12.5265   25.9745 C   0  0  0  0  0  0  0  0  0  0  0  0
    6.2262  -13.8472   25.6947 C   0  0  0  0  0  0  0  0  0  0  0  0
    7.4229  -13.6494   24.7811 C   0  0  2  0  0  0  0  0  0  0  0  0
    6.9944  -12.9838   23.5735 N   0  0  0  0  0  0  0  0  0  0  0  0
    7.9682  -14.9997   24.4740 C   0  0  0  0  0  0  0  0  0  0  0  0
    7.9138  -15.8800   25.3676 O   0  0  0  0  0  0  0  0  0  0  0  0
    7.1456  -13.3224   19.2153 N   0  0  0  0  0  0  0  0  0  0  0  0
    8.2779  -13.6050   18.4018 C   0  0  0  0  0  0  0  0  0  0  0  0
    8.1347  -13.6144   17.1271 N   0  0  0  0  0  0  0  0  0  0  0  0
    9.5095  -13.8622   19.0276 N   0  0  0  0  0  0  0  0  0  0  0  0
    9.8015  -15.1902   19.5048 C   0  0  0  0  0  0  0  0  0  0  0  0
    9.2470  -15.2953   20.8983 C   0  0  0  0  0  0  0  0  0  0  0  0
    9.5023  -16.6444   21.4968 C   0  0  0  0  0  0  0  0  0  0  0  0
    9.0352  -16.6650   22.9206 C   0  0  2  0  0  0  0  0  0  0  0  0
    8.5409  -15.3382   23.2333 N   0  0  0  0  0  0  0  0  0  0  0  0
   10.1815  -16.9723   23.8518 C   0  0  0  0  0  0  0  0  0  0  0  0
   11.1214  -16.1530   23.9674 O   0  0  0  0  0  0  0  0  0  0  0  0
    8.9007  -13.8622   16.4935 C   0  0  0  0  0  0  0  0  0  0  0  0
   10.2698  -17.3501   27.5060 C   0  0  2  0  0  0  0  0  0  0  0  0
   10.8001  -18.6577   26.9579 O   0  0  0  0  0  0  0  0  0  0  0  0
    9.7466  -19.5786   26.9283 C   0  0  2  0  0  0  0  0  0  0  0  0
   11.3231  -18.4299   25.5584 N   0  0  0  0  0  0  0  0  0  0  0  0
   10.2518  -18.1629   24.6176 C   0  0  0  0  0  0  0  0  0  0  0  0
   12.1046  -19.6107   25.0972 O   0  0  0  0  0  0  0  0  0  0  0  0
   11.7248  -20.2821   24.1043 O   0  0  0  0  0  0  0  0  0  0  0  0
  2  1  1  0
  3  4  1  0
  3  2  1  0
  4  5  1  0
  5  6  1  6
  7  8  2  0
  7  5  1  0
 10  9  1  0
 11 10  2  0
 12 10  1  0
 13 12  1  0
 14 13  1  0
 14 15  1  0
 16 15  1  6
 16 17  1  0
 17  7  1  0
 18 19  2  0
 18 16  1  0
 21 20  1  1
 21 22  1  0
 23 21  1  0
 23 24  1  1
 24 18  1  0
 25 23  1  0
 26 25  2  0
 27 25  1  0
M  END
$$$$
