PWE.pdb
     RDKit          3D

 31 33  0  0  1  0  0  0  0  0999 V2000
   27.3834  -21.5813  -13.5378 N   0  0  0  0  0  0  0  0  0  0  0  0
   28.1936  -20.5795  -14.1869 C   0  0  0  0  0  0  0  0  0  0  0  0
   28.4295  -19.4658  -13.2076 C   0  0  0  0  0  0  0  0  0  0  0  0
   28.0168  -20.0457  -11.8978 C   0  0  0  0  0  0  0  0  0  0  0  0
   26.9871  -21.0650  -12.2522 C   0  0  1  0  0  0  0  0  0  0  0  0
   25.6091  -20.5381  -12.3171 C   0  0  0  0  0  0  0  0  0  0  0  0
   25.1879  -19.8250  -11.3660 O   0  0  0  0  0  0  0  0  0  0  0  0
   24.7117  -20.7700  -13.3704 N   0  0  0  0  0  0  0  0  0  0  0  0
   23.3368  -20.2333  -13.4160 C   0  0  1  0  0  0  0  0  0  0  0  0
   23.2694  -19.5176  -14.7293 C   0  0  0  0  0  0  0  0  0  0  0  0
   23.9930  -18.2562  -14.8440 C   0  0  0  0  0  0  0  0  0  0  0  0
   25.3051  -18.0404  -14.4157 C   0  0  0  0  0  0  0  0  0  0  0  0
   25.6617  -16.7660  -14.6373 N   0  0  0  0  0  0  0  0  0  0  0  0
   24.6215  -16.1240  -15.2035 C   0  0  0  0  0  0  0  0  0  0  0  0
   24.5145  -14.7995  -15.6276 C   0  0  0  0  0  0  0  0  0  0  0  0
   23.3494  -14.3675  -16.1996 C   0  0  0  0  0  0  0  0  0  0  0  0
   22.3240  -15.2810  -16.3289 C   0  0  0  0  0  0  0  0  0  0  0  0
   22.4246  -16.5755  -15.9151 C   0  0  0  0  0  0  0  0  0  0  0  0
   23.5903  -17.0331  -15.3347 C   0  0  0  0  0  0  0  0  0  0  0  0
   22.3430  -21.2901  -13.2486 C   0  0  0  0  0  0  0  0  0  0  0  0
   22.3711  -22.3622  -13.9001 O   0  0  0  0  0  0  0  0  0  0  0  0
   21.2618  -21.1373  -12.3039 N   0  0  0  0  0  0  0  0  0  0  0  0
   20.2932  -22.1927  -12.0668 C   0  0  1  0  0  0  0  0  0  0  0  0
   19.5751  -21.9883  -10.7474 C   0  0  0  0  0  0  0  0  0  0  0  0
   18.6717  -23.1595  -10.4262 C   0  0  0  0  0  0  0  0  0  0  0  0
   19.3040  -23.9502   -9.3474 C   0  0  0  0  0  0  0  0  0  0  0  0
   19.1085  -25.1828   -9.2535 O   0  0  0  0  0  0  0  0  0  0  0  0
   19.3216  -22.2184  -13.1982 C   0  0  0  0  0  0  0  0  0  0  0  0
   18.9269  -21.0789  -13.8792 O   0  0  0  0  0  0  0  0  0  0  0  0
   20.1395  -23.3766   -8.3898 O   0  0  0  0  0  0  0  0  0  0  0  0
   18.8378  -23.3163  -13.5527 O   0  0  0  0  0  0  0  0  0  0  0  0
  1  2  1  0
  3  2  1  0
  4  3  1  0
  5  4  1  0
  5  1  1  0
  5  6  1  6
  6  8  1  0
  7  6  2  0
  9  8  1  0
  9 10  1  6
 11 10  1  0
 11 19  1  0
 12 11  2  0
 13 12  1  0
 13 14  1  0
 14 15  1  0
 14 19  2  0
 15 16  2  0
 16 17  1  0
 18 17  2  0
 19 18  1  0
 20  9  1  0
 21 20  2  0
 22 20  1  0
 23 22  1  0
 23 24  1  1
 24 25  1  0
 25 26  1  0
 26 30  1  0
 27 26  2  0
 28 23  1  0
 29 28  1  0
 31 28  2  0
M  END
$$$$
