PWE.pdb
     RDKit          3D

 31 33  0  0  1  0  0  0  0  0999 V2000
   27.7996  -19.5729  -14.8820 N   0  0  0  0  0  0  0  0  0  0  0  0
   29.1734  -19.2416  -14.5919 C   0  0  0  0  0  0  0  0  0  0  0  0
   29.9513  -20.5228  -14.4997 C   0  0  0  0  0  0  0  0  0  0  0  0
   29.0363  -21.5420  -15.0879 C   0  0  0  0  0  0  0  0  0  0  0  0
   27.6688  -21.0068  -14.8259 C   0  0  1  0  0  0  0  0  0  0  0  0
   27.0957  -21.4161  -13.5280 C   0  0  0  0  0  0  0  0  0  0  0  0
   26.3282  -22.4162  -13.4932 O   0  0  0  0  0  0  0  0  0  0  0  0
   27.3391  -20.7713  -12.3059 N   0  0  0  0  0  0  0  0  0  0  0  0
   26.6251  -21.0838  -11.0517 C   0  0  1  0  0  0  0  0  0  0  0  0
   27.6237  -20.7780   -9.9791 C   0  0  0  0  0  0  0  0  0  0  0  0
   27.1197  -20.6139   -8.6200 C   0  0  0  0  0  0  0  0  0  0  0  0
   25.7726  -20.6519   -8.2523 C   0  0  0  0  0  0  0  0  0  0  0  0
   25.6452  -20.4358   -6.9342 N   0  0  0  0  0  0  0  0  0  0  0  0
   26.8733  -20.2548   -6.4107 C   0  0  0  0  0  0  0  0  0  0  0  0
   27.2538  -20.0152   -5.0904 C   0  0  0  0  0  0  0  0  0  0  0  0
   28.5806  -19.8806   -4.7857 C   0  0  0  0  0  0  0  0  0  0  0  0
   29.4878  -19.9909   -5.8189 C   0  0  0  0  0  0  0  0  0  0  0  0
   29.1198  -20.2243   -7.1100 C   0  0  0  0  0  0  0  0  0  0  0  0
   27.7868  -20.3628   -7.4407 C   0  0  0  0  0  0  0  0  0  0  0  0
   25.3739  -20.3382  -10.9470 C   0  0  0  0  0  0  0  0  0  0  0  0
   25.3291  -19.1185  -10.6555 O   0  0  0  0  0  0  0  0  0  0  0  0
   24.1081  -20.9929  -11.1795 N   0  0  0  0  0  0  0  0  0  0  0  0
   22.8650  -20.2493  -11.2802 C   0  0  1  0  0  0  0  0  0  0  0  0
   22.8125  -19.4451  -12.5642 C   0  0  0  0  0  0  0  0  0  0  0  0
   22.8617  -20.3461  -13.7795 C   0  0  0  0  0  0  0  0  0  0  0  0
   23.0706  -19.5002  -14.9752 C   0  0  0  0  0  0  0  0  0  0  0  0
   22.9497  -18.2561  -14.9126 O   0  0  0  0  0  0  0  0  0  0  0  0
   21.7235  -21.2067  -11.2099 C   0  0  0  0  0  0  0  0  0  0  0  0
   20.4401  -20.8251  -10.8561 O   0  0  0  0  0  0  0  0  0  0  0  0
   23.4082  -20.0322  -16.2190 O   0  0  0  0  0  0  0  0  0  0  0  0
   21.9286  -22.4105  -11.4818 O   0  0  0  0  0  0  0  0  0  0  0  0
  1  2  1  0
  3  2  1  0
  4  3  1  0
  5  4  1  0
  5  1  1  0
  5  6  1  1
  6  8  1  0
  7  6  2  0
  9  8  1  0
  9 10  1  1
 11 10  1  0
 11 19  1  0
 12 11  2  0
 13 12  1  0
 13 14  1  0
 14 15  1  0
 14 19  2  0
 15 16  2  0
 16 17  1  0
 18 17  2  0
 19 18  1  0
 20  9  1  0
 21 20  2  0
 22 20  1  0
 23 22  1  0
 23 24  1  6
 24 25  1  0
 25 26  1  0
 26 30  1  0
 27 26  2  0
 28 23  1  0
 29 28  1  0
 31 28  2  0
M  END
$$$$
