PWE.pdb
     RDKit          3D

 31 33  0  0  1  0  0  0  0  0999 V2000
   29.0180  -21.3321  -14.3577 N   0  0  0  0  0  0  0  0  0  0  0  0
   28.3373  -21.2053  -15.6233 C   0  0  0  0  0  0  0  0  0  0  0  0
   27.5985  -19.8979  -15.6252 C   0  0  0  0  0  0  0  0  0  0  0  0
   28.1734  -19.1585  -14.4655 C   0  0  0  0  0  0  0  0  0  0  0  0
   28.6111  -20.2295  -13.5239 C   0  0  1  0  0  0  0  0  0  0  0  0
   27.5676  -20.6662  -12.5747 C   0  0  0  0  0  0  0  0  0  0  0  0
   26.9073  -21.7080  -12.8377 O   0  0  0  0  0  0  0  0  0  0  0  0
   27.2434  -20.0047  -11.3806 N   0  0  0  0  0  0  0  0  0  0  0  0
   26.1945  -20.4576  -10.4452 C   0  0  1  0  0  0  0  0  0  0  0  0
   26.5347  -19.7723   -9.1582 C   0  0  0  0  0  0  0  0  0  0  0  0
   27.6174  -20.3393   -8.3619 C   0  0  0  0  0  0  0  0  0  0  0  0
   28.5601  -21.2596   -8.8263 C   0  0  0  0  0  0  0  0  0  0  0  0
   29.3987  -21.6040   -7.8372 N   0  0  0  0  0  0  0  0  0  0  0  0
   29.0412  -20.9367   -6.7228 C   0  0  0  0  0  0  0  0  0  0  0  0
   29.6148  -20.9515   -5.4515 C   0  0  0  0  0  0  0  0  0  0  0  0
   29.0850  -20.1665   -4.4644 C   0  0  0  0  0  0  0  0  0  0  0  0
   27.9922  -19.3881   -4.7846 C   0  0  0  0  0  0  0  0  0  0  0  0
   27.4288  -19.3715   -6.0252 C   0  0  0  0  0  0  0  0  0  0  0  0
   27.9462  -20.1559   -7.0362 C   0  0  0  0  0  0  0  0  0  0  0  0
   24.8581  -20.1636  -10.9550 C   0  0  0  0  0  0  0  0  0  0  0  0
   24.5436  -19.0509  -11.4425 O   0  0  0  0  0  0  0  0  0  0  0  0
   23.8206  -21.1670  -10.9152 N   0  0  0  0  0  0  0  0  0  0  0  0
   22.5420  -20.9774  -11.5766 C   0  0  1  0  0  0  0  0  0  0  0  0
   22.2321  -22.1332  -12.5074 C   0  0  0  0  0  0  0  0  0  0  0  0
   21.1650  -21.7580  -13.5132 C   0  0  0  0  0  0  0  0  0  0  0  0
   21.1722  -22.7675  -14.5947 C   0  0  0  0  0  0  0  0  0  0  0  0
   21.9787  -23.7245  -14.5766 O   0  0  0  0  0  0  0  0  0  0  0  0
   21.4793  -20.8350  -10.5397 C   0  0  0  0  0  0  0  0  0  0  0  0
   20.2200  -20.3288  -10.8152 O   0  0  0  0  0  0  0  0  0  0  0  0
   20.2958  -22.7112  -15.6776 O   0  0  0  0  0  0  0  0  0  0  0  0
   21.7311  -21.1873   -9.3660 O   0  0  0  0  0  0  0  0  0  0  0  0
  1  2  1  0
  3  2  1  0
  4  3  1  0
  5  4  1  0
  5  1  1  0
  5  6  1  1
  6  8  1  0
  7  6  2  0
  9  8  1  0
  9 10  1  1
 11 10  1  0
 11 19  1  0
 12 11  2  0
 13 12  1  0
 13 14  1  0
 14 15  1  0
 14 19  2  0
 15 16  2  0
 16 17  1  0
 18 17  2  0
 19 18  1  0
 20  9  1  0
 21 20  2  0
 22 20  1  0
 23 22  1  0
 23 24  1  6
 24 25  1  0
 25 26  1  0
 26 30  1  0
 27 26  2  0
 28 23  1  0
 29 28  1  0
 31 28  2  0
M  END
$$$$
