PWE.pdb
     RDKit          3D

 31 33  0  0  1  0  0  0  0  0999 V2000
   27.5000  -19.0969  -14.8166 N   0  0  0  0  0  0  0  0  0  0  0  0
   28.7351  -18.6520  -14.2181 C   0  0  0  0  0  0  0  0  0  0  0  0
   29.6040  -19.8563  -13.9947 C   0  0  0  0  0  0  0  0  0  0  0  0
   28.9511  -20.9253  -14.8028 C   0  0  0  0  0  0  0  0  0  0  0  0
   27.5111  -20.5377  -14.8351 C   0  0  1  0  0  0  0  0  0  0  0  0
   26.7147  -21.0681  -13.7104 C   0  0  0  0  0  0  0  0  0  0  0  0
   26.5523  -22.3154  -13.6185 O   0  0  0  0  0  0  0  0  0  0  0  0
   26.1116  -20.2836  -12.7158 N   0  0  0  0  0  0  0  0  0  0  0  0
   25.1024  -20.7903  -11.7644 C   0  0  1  0  0  0  0  0  0  0  0  0
   25.4937  -20.1742  -10.4572 C   0  0  0  0  0  0  0  0  0  0  0  0
   26.7837  -20.5572   -9.8942 C   0  0  0  0  0  0  0  0  0  0  0  0
   27.8020  -21.2127  -10.5907 C   0  0  0  0  0  0  0  0  0  0  0  0
   28.8435  -21.4471   -9.7780 N   0  0  0  0  0  0  0  0  0  0  0  0
   28.5479  -20.9644   -8.5554 C   0  0  0  0  0  0  0  0  0  0  0  0
   29.3139  -20.9579   -7.3898 C   0  0  0  0  0  0  0  0  0  0  0  0
   28.8075  -20.3874   -6.2543 C   0  0  0  0  0  0  0  0  0  0  0  0
   27.5437  -19.8392   -6.3236 C   0  0  0  0  0  0  0  0  0  0  0  0
   26.7922  -19.8443   -7.4603 C   0  0  0  0  0  0  0  0  0  0  0  0
   27.2826  -20.4149   -8.6175 C   0  0  0  0  0  0  0  0  0  0  0  0
   23.7459  -20.4742  -12.2029 C   0  0  0  0  0  0  0  0  0  0  0  0
   23.4104  -19.3383  -12.6176 O   0  0  0  0  0  0  0  0  0  0  0  0
   22.7121  -21.4818  -12.1739 N   0  0  0  0  0  0  0  0  0  0  0  0
   21.3565  -21.2053  -12.6148 C   0  0  1  0  0  0  0  0  0  0  0  0
   20.8212  -22.3335  -13.4743 C   0  0  0  0  0  0  0  0  0  0  0  0
   21.0038  -22.0364  -14.9473 C   0  0  0  0  0  0  0  0  0  0  0  0
   20.9817  -23.3188  -15.6847 C   0  0  0  0  0  0  0  0  0  0  0  0
   21.9787  -23.7042  -16.3358 O   0  0  0  0  0  0  0  0  0  0  0  0
   20.4926  -20.9988  -11.4166 C   0  0  0  0  0  0  0  0  0  0  0  0
   19.2021  -20.5021  -11.4940 O   0  0  0  0  0  0  0  0  0  0  0  0
   19.8675  -24.1569  -15.6962 O   0  0  0  0  0  0  0  0  0  0  0  0
   20.9490  -21.2855  -10.2875 O   0  0  0  0  0  0  0  0  0  0  0  0
  1  2  1  0
  3  2  1  0
  4  3  1  0
  5  4  1  0
  5  1  1  0
  5  6  1  1
  6  8  1  0
  7  6  2  0
  9  8  1  0
  9 10  1  1
 11 10  1  0
 11 19  1  0
 12 11  2  0
 13 12  1  0
 13 14  1  0
 14 15  1  0
 14 19  2  0
 15 16  2  0
 16 17  1  0
 18 17  2  0
 19 18  1  0
 20  9  1  0
 21 20  2  0
 22 20  1  0
 23 22  1  0
 23 24  1  1
 24 25  1  0
 25 26  1  0
 26 30  1  0
 27 26  2  0
 28 23  1  0
 29 28  1  0
 31 28  2  0
M  END
$$$$
