PWE.pdb
     RDKit          3D

 31 33  0  0  1  0  0  0  0  0999 V2000
   28.0519  -19.9660  -14.6450 N   0  0  0  0  0  0  0  0  0  0  0  0
   29.4517  -20.2989  -14.5392 C   0  0  0  0  0  0  0  0  0  0  0  0
   29.5837  -21.7914  -14.6392 C   0  0  0  0  0  0  0  0  0  0  0  0
   28.2551  -22.2364  -15.1480 C   0  0  0  0  0  0  0  0  0  0  0  0
   27.3039  -21.1975  -14.6572 C   0  0  1  0  0  0  0  0  0  0  0  0
   26.7475  -21.4693  -13.3166 C   0  0  0  0  0  0  0  0  0  0  0  0
   25.8858  -22.3818  -13.1922 O   0  0  0  0  0  0  0  0  0  0  0  0
   27.1051  -20.7825  -12.1466 N   0  0  0  0  0  0  0  0  0  0  0  0
   26.3433  -20.8523  -10.8836 C   0  0  1  0  0  0  0  0  0  0  0  0
   27.2987  -20.3341   -9.8539 C   0  0  0  0  0  0  0  0  0  0  0  0
   26.8861  -20.4110   -8.4568 C   0  0  0  0  0  0  0  0  0  0  0  0
   25.6281  -20.8244   -8.0118 C   0  0  0  0  0  0  0  0  0  0  0  0
   25.5621  -20.7506   -6.6737 N   0  0  0  0  0  0  0  0  0  0  0  0
   26.7445  -20.2989   -6.2123 C   0  0  0  0  0  0  0  0  0  0  0  0
   27.1623  -20.0712   -4.9012 C   0  0  0  0  0  0  0  0  0  0  0  0
   28.4330  -19.6218   -4.6676 C   0  0  0  0  0  0  0  0  0  0  0  0
   29.2481  -19.4139   -5.7608 C   0  0  0  0  0  0  0  0  0  0  0  0
   28.8433  -19.6345   -7.0430 C   0  0  0  0  0  0  0  0  0  0  0  0
   27.5654  -20.0873   -7.3024 C   0  0  0  0  0  0  0  0  0  0  0  0
   25.0873  -20.1128  -10.9734 C   0  0  0  0  0  0  0  0  0  0  0  0
   25.0003  -18.9780  -11.5020 O   0  0  0  0  0  0  0  0  0  0  0  0
   23.8668  -20.6727  -10.4427 N   0  0  0  0  0  0  0  0  0  0  0  0
   22.5679  -20.3656  -11.0144 C   0  0  1  0  0  0  0  0  0  0  0  0
   22.2878  -21.2293  -12.2284 C   0  0  0  0  0  0  0  0  0  0  0  0
   21.8396  -20.3920  -13.4070 C   0  0  0  0  0  0  0  0  0  0  0  0
   20.5043  -20.8669  -13.8316 C   0  0  0  0  0  0  0  0  0  0  0  0
   19.5677  -20.0609  -14.0304 O   0  0  0  0  0  0  0  0  0  0  0  0
   21.5219  -20.5672   -9.9704 C   0  0  0  0  0  0  0  0  0  0  0  0
   21.6520  -21.4827   -8.9395 O   0  0  0  0  0  0  0  0  0  0  0  0
   20.2181  -22.2169  -14.0307 O   0  0  0  0  0  0  0  0  0  0  0  0
   20.4772  -19.8809  -10.0233 O   0  0  0  0  0  0  0  0  0  0  0  0
  1  2  1  0
  3  2  1  0
  4  3  1  0
  5  4  1  0
  5  1  1  0
  5  6  1  1
  6  8  1  0
  7  6  2  0
  9  8  1  0
  9 10  1  1
 11 10  1  0
 11 19  1  0
 12 11  2  0
 13 12  1  0
 13 14  1  0
 14 15  1  0
 14 19  2  0
 15 16  2  0
 16 17  1  0
 18 17  2  0
 19 18  1  0
 20  9  1  0
 21 20  2  0
 22 20  1  0
 23 22  1  0
 23 24  1  6
 24 25  1  0
 25 26  1  0
 26 30  1  0
 27 26  2  0
 28 23  1  0
 29 28  1  0
 31 28  2  0
M  END
$$$$
