PWE.pdb
     RDKit          3D

 31 33  0  0  1  0  0  0  0  0999 V2000
   27.7800  -21.5714  -17.9862 N   0  0  0  0  0  0  0  0  0  0  0  0
   29.0578  -20.9650  -17.7020 C   0  0  0  0  0  0  0  0  0  0  0  0
   29.8115  -21.8791  -16.7792 C   0  0  0  0  0  0  0  0  0  0  0  0
   29.0521  -23.1602  -16.8431 C   0  0  0  0  0  0  0  0  0  0  0  0
   27.6548  -22.7467  -17.1620 C   0  0  1  0  0  0  0  0  0  0  0  0
   26.8240  -22.4523  -15.9772 C   0  0  0  0  0  0  0  0  0  0  0  0
   26.7895  -23.2929  -15.0377 O   0  0  0  0  0  0  0  0  0  0  0  0
   26.0541  -21.2918  -15.8071 N   0  0  0  0  0  0  0  0  0  0  0  0
   25.2705  -20.9924  -14.5919 C   0  0  1  0  0  0  0  0  0  0  0  0
   25.8663  -19.7179  -14.0800 C   0  0  0  0  0  0  0  0  0  0  0  0
   27.1653  -19.8014  -13.4215 C   0  0  0  0  0  0  0  0  0  0  0  0
   28.3731  -19.3598  -13.9672 C   0  0  0  0  0  0  0  0  0  0  0  0
   29.3836  -19.6099  -13.1208 N   0  0  0  0  0  0  0  0  0  0  0  0
   28.8822  -20.2072  -12.0222 C   0  0  0  0  0  0  0  0  0  0  0  0
   29.5329  -20.6417  -10.8675 C   0  0  0  0  0  0  0  0  0  0  0  0
   28.8059  -21.2122   -9.8589 C   0  0  0  0  0  0  0  0  0  0  0  0
   27.4436  -21.3296  -10.0408 C   0  0  0  0  0  0  0  0  0  0  0  0
   26.8046  -20.9068  -11.1676 C   0  0  0  0  0  0  0  0  0  0  0  0
   27.5180  -20.3289  -12.1983 C   0  0  0  0  0  0  0  0  0  0  0  0
   23.8407  -20.9217  -14.8800 C   0  0  0  0  0  0  0  0  0  0  0  0
   23.3835  -20.4694  -15.9576 O   0  0  0  0  0  0  0  0  0  0  0  0
   22.8735  -21.3797  -13.9105 N   0  0  0  0  0  0  0  0  0  0  0  0
   21.4455  -21.3369  -14.1699 C   0  0  1  0  0  0  0  0  0  0  0  0
   20.6873  -22.2179  -13.1968 C   0  0  0  0  0  0  0  0  0  0  0  0
   19.2087  -22.2476  -13.5196 C   0  0  0  0  0  0  0  0  0  0  0  0
   18.5274  -21.2524  -12.6628 C   0  0  0  0  0  0  0  0  0  0  0  0
   18.6236  -21.3029  -11.4160 O   0  0  0  0  0  0  0  0  0  0  0  0
   20.9805  -19.9229  -14.0746 C   0  0  0  0  0  0  0  0  0  0  0  0
   20.0186  -19.3872  -14.9148 O   0  0  0  0  0  0  0  0  0  0  0  0
   17.7521  -20.2188  -13.1870 O   0  0  0  0  0  0  0  0  0  0  0  0
   21.4783  -19.1823  -13.1978 O   0  0  0  0  0  0  0  0  0  0  0  0
  1  2  1  0
  3  2  1  0
  4  3  1  0
  5  4  1  0
  5  1  1  0
  5  6  1  1
  6  8  1  0
  7  6  2  0
  9  8  1  0
  9 10  1  6
 11 10  1  0
 11 19  1  0
 12 11  2  0
 13 12  1  0
 13 14  1  0
 14 15  1  0
 14 19  2  0
 15 16  2  0
 16 17  1  0
 18 17  2  0
 19 18  1  0
 20  9  1  0
 21 20  2  0
 22 20  1  0
 23 22  1  0
 23 24  1  1
 24 25  1  0
 25 26  1  0
 26 30  1  0
 27 26  2  0
 28 23  1  0
 29 28  1  0
 31 28  2  0
M  END
$$$$
