PWE.pdb
     RDKit          3D

 31 33  0  0  1  0  0  0  0  0999 V2000
   28.5239  -20.4003  -15.9970 N   0  0  0  0  0  0  0  0  0  0  0  0
   27.9310  -19.2772  -16.6816 C   0  0  0  0  0  0  0  0  0  0  0  0
   27.8416  -18.1351  -15.7107 C   0  0  0  0  0  0  0  0  0  0  0  0
   28.7166  -18.5556  -14.5795 C   0  0  0  0  0  0  0  0  0  0  0  0
   28.6671  -20.0462  -14.6076 C   0  0  1  0  0  0  0  0  0  0  0  0
   27.5663  -20.6316  -13.8163 C   0  0  0  0  0  0  0  0  0  0  0  0
   26.5317  -21.0281  -14.4187 O   0  0  0  0  0  0  0  0  0  0  0  0
   27.5764  -20.7861  -12.4218 N   0  0  0  0  0  0  0  0  0  0  0  0
   26.4676  -21.3817  -11.6498 C   0  0  1  0  0  0  0  0  0  0  0  0
   27.0894  -21.7357  -10.3347 C   0  0  0  0  0  0  0  0  0  0  0  0
   26.8630  -20.8244   -9.2184 C   0  0  0  0  0  0  0  0  0  0  0  0
   25.7345  -20.0171   -9.0559 C   0  0  0  0  0  0  0  0  0  0  0  0
   25.8506  -19.2759   -7.9435 N   0  0  0  0  0  0  0  0  0  0  0  0
   27.0281  -19.5674   -7.3574 C   0  0  0  0  0  0  0  0  0  0  0  0
   27.5863  -19.0689   -6.1803 C   0  0  0  0  0  0  0  0  0  0  0  0
   28.8045  -19.5314   -5.7640 C   0  0  0  0  0  0  0  0  0  0  0  0
   29.4273  -20.4831   -6.5444 C   0  0  0  0  0  0  0  0  0  0  0  0
   28.8855  -20.9719   -7.6952 C   0  0  0  0  0  0  0  0  0  0  0  0
   27.6578  -20.5193   -8.1347 C   0  0  0  0  0  0  0  0  0  0  0  0
   25.3290  -20.4719  -11.5578 C   0  0  0  0  0  0  0  0  0  0  0  0
   25.4542  -19.2238  -11.5244 O   0  0  0  0  0  0  0  0  0  0  0  0
   23.9813  -20.9870  -11.4989 N   0  0  0  0  0  0  0  0  0  0  0  0
   22.8870  -20.3612  -12.2194 C   0  0  1  0  0  0  0  0  0  0  0  0
   23.1439  -20.3655  -13.7135 C   0  0  0  0  0  0  0  0  0  0  0  0
   21.9765  -19.7734  -14.4735 C   0  0  0  0  0  0  0  0  0  0  0  0
   22.2776  -19.8519  -15.9198 C   0  0  0  0  0  0  0  0  0  0  0  0
   23.3354  -19.3702  -16.3842 O   0  0  0  0  0  0  0  0  0  0  0  0
   21.6227  -21.0846  -11.8990 C   0  0  0  0  0  0  0  0  0  0  0  0
   21.5748  -22.4469  -11.6539 O   0  0  0  0  0  0  0  0  0  0  0  0
   21.4145  -20.4567  -16.8327 O   0  0  0  0  0  0  0  0  0  0  0  0
   20.5536  -20.4368  -11.8478 O   0  0  0  0  0  0  0  0  0  0  0  0
  1  2  1  0
  3  2  1  0
  4  3  1  0
  5  4  1  0
  5  1  1  0
  5  6  1  1
  6  8  1  0
  7  6  2  0
  9  8  1  0
  9 10  1  1
 11 10  1  0
 11 19  1  0
 12 11  2  0
 13 12  1  0
 13 14  1  0
 14 15  1  0
 14 19  2  0
 15 16  2  0
 16 17  1  0
 18 17  2  0
 19 18  1  0
 20  9  1  0
 21 20  2  0
 22 20  1  0
 23 22  1  0
 23 24  1  6
 24 25  1  0
 25 26  1  0
 26 30  1  0
 27 26  2  0
 28 23  1  0
 29 28  1  0
 31 28  2  0
M  END
$$$$
