PWE.pdb
     RDKit          3D

 31 33  0  0  1  0  0  0  0  0999 V2000
   28.0855  -21.2390  -16.7372 N   0  0  0  0  0  0  0  0  0  0  0  0
   29.4799  -21.2774  -16.3689 C   0  0  0  0  0  0  0  0  0  0  0  0
   29.7923  -22.6604  -15.8740 C   0  0  0  0  0  0  0  0  0  0  0  0
   28.6179  -23.4705  -16.3060 C   0  0  0  0  0  0  0  0  0  0  0  0
   27.4913  -22.4940  -16.3520 C   0  0  1  0  0  0  0  0  0  0  0  0
   26.7661  -22.3438  -15.0745 C   0  0  0  0  0  0  0  0  0  0  0  0
   26.3170  -23.3772  -14.5080 O   0  0  0  0  0  0  0  0  0  0  0  0
   26.5306  -21.1222  -14.4259 N   0  0  0  0  0  0  0  0  0  0  0  0
   25.7112  -20.9806  -13.2057 C   0  0  1  0  0  0  0  0  0  0  0  0
   26.4237  -19.9320  -12.4092 C   0  0  0  0  0  0  0  0  0  0  0  0
   27.4394  -20.3822  -11.4638 C   0  0  0  0  0  0  0  0  0  0  0  0
   28.7076  -20.8543  -11.8108 C   0  0  0  0  0  0  0  0  0  0  0  0
   29.3848  -21.2164  -10.7107 N   0  0  0  0  0  0  0  0  0  0  0  0
   28.6019  -20.9979   -9.6363 C   0  0  0  0  0  0  0  0  0  0  0  0
   28.8675  -21.2030   -8.2824 C   0  0  0  0  0  0  0  0  0  0  0  0
   27.9141  -20.8872   -7.3537 C   0  0  0  0  0  0  0  0  0  0  0  0
   26.7194  -20.3737   -7.8137 C   0  0  0  0  0  0  0  0  0  0  0  0
   26.4562  -20.1725   -9.1354 C   0  0  0  0  0  0  0  0  0  0  0  0
   27.4030  -20.4845  -10.0901 C   0  0  0  0  0  0  0  0  0  0  0  0
   24.3229  -20.6608  -13.5263 C   0  0  0  0  0  0  0  0  0  0  0  0
   23.9988  -19.7223  -14.2937 O   0  0  0  0  0  0  0  0  0  0  0  0
   23.2424  -21.4310  -12.9569 N   0  0  0  0  0  0  0  0  0  0  0  0
   21.8533  -21.1681  -13.2878 C   0  0  1  0  0  0  0  0  0  0  0  0
   21.0983  -22.4585  -13.5388 C   0  0  0  0  0  0  0  0  0  0  0  0
   19.6252  -22.1975  -13.7689 C   0  0  0  0  0  0  0  0  0  0  0  0
   19.0439  -23.3818  -14.4385 C   0  0  0  0  0  0  0  0  0  0  0  0
   19.7657  -24.3427  -14.7878 O   0  0  0  0  0  0  0  0  0  0  0  0
   21.2291  -20.3996  -12.1723 C   0  0  0  0  0  0  0  0  0  0  0  0
   21.8867  -20.1261  -10.9845 O   0  0  0  0  0  0  0  0  0  0  0  0
   17.6816  -23.4928  -14.7140 O   0  0  0  0  0  0  0  0  0  0  0  0
   20.0584  -19.9804  -12.3099 O   0  0  0  0  0  0  0  0  0  0  0  0
  1  2  1  0
  3  2  1  0
  4  3  1  0
  5  4  1  0
  5  1  1  0
  5  6  1  1
  6  8  1  0
  7  6  2  0
  9  8  1  0
  9 10  1  1
 11 10  1  0
 11 19  1  0
 12 11  2  0
 13 12  1  0
 13 14  1  0
 14 15  1  0
 14 19  2  0
 15 16  2  0
 16 17  1  0
 18 17  2  0
 19 18  1  0
 20  9  1  0
 21 20  2  0
 22 20  1  0
 23 22  1  0
 23 24  1  1
 24 25  1  0
 25 26  1  0
 26 30  1  0
 27 26  2  0
 28 23  1  0
 29 28  1  0
 31 28  2  0
M  END
$$$$
