PWE.pdb
     RDKit          3D

 31 33  0  0  1  0  0  0  0  0999 V2000
   19.9264  -11.1204  -18.5430 N   0  0  0  0  0  0  0  0  0  0  0  0
   20.3428  -12.4634  -18.8657 C   0  0  0  0  0  0  0  0  0  0  0  0
   20.1120  -13.3250  -17.6577 C   0  0  0  0  0  0  0  0  0  0  0  0
   19.2386  -12.4914  -16.7833 C   0  0  0  0  0  0  0  0  0  0  0  0
   19.5879  -11.0865  -17.1427 C   0  0  1  0  0  0  0  0  0  0  0  0
   20.7061  -10.5207  -16.3615 C   0  0  0  0  0  0  0  0  0  0  0  0
   20.6828  -10.6286  -15.1052 O   0  0  0  0  0  0  0  0  0  0  0  0
   21.8143   -9.8596  -16.9124 N   0  0  0  0  0  0  0  0  0  0  0  0
   22.8357   -9.1546  -16.1124 C   0  0  1  0  0  0  0  0  0  0  0  0
   24.1295   -9.5213  -16.7705 C   0  0  0  0  0  0  0  0  0  0  0  0
   24.6322  -10.8737  -16.5552 C   0  0  0  0  0  0  0  0  0  0  0  0
   23.9182  -12.0468  -16.8113 C   0  0  0  0  0  0  0  0  0  0  0  0
   24.6524  -13.1190  -16.4772 N   0  0  0  0  0  0  0  0  0  0  0  0
   25.8398  -12.6928  -16.0046 C   0  0  0  0  0  0  0  0  0  0  0  0
   26.9345  -13.4275  -15.5491 C   0  0  0  0  0  0  0  0  0  0  0  0
   28.0579  -12.7708  -15.1273 C   0  0  0  0  0  0  0  0  0  0  0  0
   28.0483  -11.3924  -15.1756 C   0  0  0  0  0  0  0  0  0  0  0  0
   26.9806  -10.6712  -15.6193 C   0  0  0  0  0  0  0  0  0  0  0  0
   25.8364  -11.3126  -16.0491 C   0  0  0  0  0  0  0  0  0  0  0  0
   22.5715   -7.7198  -16.0499 C   0  0  0  0  0  0  0  0  0  0  0  0
   22.6168   -6.9734  -17.0577 O   0  0  0  0  0  0  0  0  0  0  0  0
   22.2410   -7.0888  -14.7939 N   0  0  0  0  0  0  0  0  0  0  0  0
   21.9364   -5.6721  -14.7021 C   0  0  1  0  0  0  0  0  0  0  0  0
   20.4937   -5.3984  -15.0788 C   0  0  0  0  0  0  0  0  0  0  0  0
   20.1854   -3.9171  -15.0339 C   0  0  0  0  0  0  0  0  0  0  0  0
   18.7880   -3.7210  -15.4783 C   0  0  0  0  0  0  0  0  0  0  0  0
   18.3183   -4.3782  -16.4342 O   0  0  0  0  0  0  0  0  0  0  0  0
   22.2164   -5.2079  -13.3126 C   0  0  0  0  0  0  0  0  0  0  0  0
   22.3021   -6.0703  -12.2324 O   0  0  0  0  0  0  0  0  0  0  0  0
   17.9292   -2.8079  -14.8677 O   0  0  0  0  0  0  0  0  0  0  0  0
   22.3822   -3.9849  -13.1074 O   0  0  0  0  0  0  0  0  0  0  0  0
  1  2  1  0
  3  2  1  0
  4  3  1  0
  5  4  1  0
  5  1  1  0
  5  6  1  1
  6  8  1  0
  7  6  2  0
  9  8  1  0
  9 10  1  6
 11 10  1  0
 11 19  1  0
 12 11  2  0
 13 12  1  0
 13 14  1  0
 14 15  1  0
 14 19  2  0
 15 16  2  0
 16 17  1  0
 18 17  2  0
 19 18  1  0
 20  9  1  0
 21 20  2  0
 22 20  1  0
 23 22  1  0
 23 24  1  1
 24 25  1  0
 25 26  1  0
 26 30  1  0
 27 26  2  0
 28 23  1  0
 29 28  1  0
 31 28  2  0
M  END
$$$$
