SQG.pdb
     RDKit          3D

 20 19  0  0  1  0  0  0  0  0999 V2000
   27.1000  -13.2924  -17.9470 O   0  0  0  0  0  0  0  0  0  0  0  0
   26.2707  -12.2191  -18.2863 C   0  0  0  0  0  0  0  0  0  0  0  0
   26.1000  -11.3843  -17.0443 C   0  0  2  0  0  0  0  0  0  0  0  0
   25.5774  -12.1862  -15.9893 N   0  0  0  0  0  0  0  0  0  0  0  0
   25.2456  -10.1926  -17.2704 C   0  0  0  0  0  0  0  0  0  0  0  0
   25.5458   -9.3037  -18.1036 O   0  0  0  0  0  0  0  0  0  0  0  0
   19.0973  -10.5609  -17.2070 N   0  0  0  0  0  0  0  0  0  0  0  0
   19.2702   -9.1504  -17.2275 C   0  0  0  0  0  0  0  0  0  0  0  0
   18.2871   -8.4050  -17.4022 O   0  0  0  0  0  0  0  0  0  0  0  0
   20.6097   -8.5468  -17.0434 C   0  0  0  0  0  0  0  0  0  0  0  0
   21.6310   -9.6338  -16.8076 C   0  0  0  0  0  0  0  0  0  0  0  0
   23.0366   -9.0894  -16.6125 C   0  0  2  0  0  0  0  0  0  0  0  0
   24.0615  -10.0780  -16.5112 N   0  0  0  0  0  0  0  0  0  0  0  0
   23.1330   -7.9718  -15.6825 C   0  0  0  0  0  0  0  0  0  0  0  0
   23.3935   -8.2189  -14.4726 O   0  0  0  0  0  0  0  0  0  0  0  0
   22.9423   -6.6392  -16.1128 N   0  0  0  0  0  0  0  0  0  0  0  0
   23.0948   -5.5705  -15.1372 C   0  0  0  0  0  0  0  0  0  0  0  0
   21.9053   -5.4645  -14.2791 C   0  0  0  0  0  0  0  0  0  0  0  0
   20.9576   -6.2711  -14.4543 O   0  0  0  0  0  0  0  0  0  0  0  0
   21.7801   -4.5170  -13.2862 O   0  0  0  0  0  0  0  0  0  0  0  0
  2  1  1  0
  3  2  1  0
  3  4  1  1
  5  6  2  0
  5  3  1  0
  7  8  1  0
  8  9  2  0
 10  8  1  0
 10 11  1  0
 12 11  1  1
 12 13  1  0
 13  5  1  0
 14 12  1  0
 14 16  1  0
 15 14  2  0
 17 16  1  0
 18 17  1  0
 19 18  2  0
 20 18  1  0
M  END
$$$$
