SQG.pdb
     RDKit          3D

 20 19  0  0  1  0  0  0  0  0999 V2000
   17.1128  -12.9759  -14.2449 O   0  0  0  0  0  0  0  0  0  0  0  0
   17.3665  -11.6021  -14.2985 C   0  0  0  0  0  0  0  0  0  0  0  0
   16.1338  -10.9057  -13.7845 C   0  0  2  0  0  0  0  0  0  0  0  0
   15.0975  -10.9721  -14.7596 N   0  0  0  0  0  0  0  0  0  0  0  0
   16.3948   -9.4993  -13.3908 C   0  0  0  0  0  0  0  0  0  0  0  0
   16.0628   -8.5302  -14.1154 O   0  0  0  0  0  0  0  0  0  0  0  0
   15.5124   -7.0071   -7.9339 N   0  0  0  0  0  0  0  0  0  0  0  0
   14.6789   -7.2787   -9.0525 C   0  0  0  0  0  0  0  0  0  0  0  0
   13.4396   -7.2583   -8.9251 O   0  0  0  0  0  0  0  0  0  0  0  0
   15.2631   -7.5879  -10.3775 C   0  0  0  0  0  0  0  0  0  0  0  0
   16.7663   -7.6771  -10.2641 C   0  0  0  0  0  0  0  0  0  0  0  0
   17.4371   -8.0248  -11.5829 C   0  0  2  0  0  0  0  0  0  0  0  0
   17.0389   -9.2700  -12.1563 N   0  0  0  0  0  0  0  0  0  0  0  0
   18.8612   -7.7217  -11.6400 C   0  0  0  0  0  0  0  0  0  0  0  0
   19.6424   -8.3655  -10.8863 O   0  0  0  0  0  0  0  0  0  0  0  0
   19.3677   -6.7337  -12.5145 N   0  0  0  0  0  0  0  0  0  0  0  0
   20.8067   -6.5223  -12.5575 C   0  0  0  0  0  0  0  0  0  0  0  0
   21.1528   -5.4266  -13.4752 C   0  0  0  0  0  0  0  0  0  0  0  0
   20.2644   -4.9728  -14.2397 O   0  0  0  0  0  0  0  0  0  0  0  0
   22.4123   -4.8709  -13.5369 O   0  0  0  0  0  0  0  0  0  0  0  0
  2  1  1  0
  3  2  1  0
  3  4  1  6
  5  6  2  0
  5  3  1  0
  7  8  1  0
  8  9  2  0
 10  8  1  0
 10 11  1  0
 12 11  1  1
 12 13  1  0
 13  5  1  0
 14 12  1  0
 14 16  1  0
 15 14  2  0
 17 16  1  0
 18 17  1  0
 19 18  2  0
 20 18  1  0
M  END
$$$$
