SQG.pdb
     RDKit          3D

 20 19  0  0  1  0  0  0  0  0999 V2000
   14.1620   -7.2863  -10.5111 O   0  0  0  0  0  0  0  0  0  0  0  0
   15.1342   -8.2865  -10.6069 C   0  0  0  0  0  0  0  0  0  0  0  0
   16.3715   -7.7653   -9.9243 C   0  0  2  0  0  0  0  0  0  0  0  0
   16.0530   -7.3387   -8.6030 N   0  0  0  0  0  0  0  0  0  0  0  0
   17.0261   -6.6727  -10.6852 C   0  0  0  0  0  0  0  0  0  0  0  0
   17.1214   -5.5067  -10.2315 O   0  0  0  0  0  0  0  0  0  0  0  0
   20.2932   -9.2004  -14.5909 N   0  0  0  0  0  0  0  0  0  0  0  0
   20.8705   -8.6909  -13.3964 C   0  0  0  0  0  0  0  0  0  0  0  0
   21.7383   -9.3511  -12.7934 O   0  0  0  0  0  0  0  0  0  0  0  0
   20.4547   -7.3782  -12.8520 C   0  0  0  0  0  0  0  0  0  0  0  0
   19.3321   -6.8115  -13.6881 C   0  0  0  0  0  0  0  0  0  0  0  0
   18.2637   -6.1254  -12.8527 C   0  0  2  0  0  0  0  0  0  0  0  0
   17.5508   -6.9801  -11.9587 N   0  0  0  0  0  0  0  0  0  0  0  0
   17.4626   -5.1455  -13.5746 C   0  0  0  0  0  0  0  0  0  0  0  0
   16.4068   -5.5366  -14.1450 O   0  0  0  0  0  0  0  0  0  0  0  0
   17.8473   -3.7872  -13.6410 N   0  0  0  0  0  0  0  0  0  0  0  0
   17.0726   -2.8910  -14.4859 C   0  0  0  0  0  0  0  0  0  0  0  0
   17.6098   -1.5230  -14.4378 C   0  0  0  0  0  0  0  0  0  0  0  0
   18.5596   -1.2720  -13.6538 O   0  0  0  0  0  0  0  0  0  0  0  0
   17.1182   -0.4975  -15.2160 O   0  0  0  0  0  0  0  0  0  0  0  0
  2  1  1  0
  3  2  1  0
  3  4  1  1
  5  6  2  0
  5  3  1  0
  7  8  1  0
  8  9  2  0
 10  8  1  0
 10 11  1  0
 12 11  1  6
 12 13  1  0
 13  5  1  0
 14 12  1  0
 14 16  1  0
 15 14  2  0
 17 16  1  0
 18 17  1  0
 19 18  2  0
 20 18  1  0
M  END
$$$$
