SQG.pdb
     RDKit          3D

 20 19  0  0  1  0  0  0  0  0999 V2000
   21.4766   -8.2951  -12.4484 O   0  0  0  0  0  0  0  0  0  0  0  0
   20.2602   -7.6548  -12.1929 C   0  0  0  0  0  0  0  0  0  0  0  0
   19.1671   -8.5974  -12.6233 C   0  0  2  0  0  0  0  0  0  0  0  0
   19.2642   -8.8457  -14.0226 N   0  0  0  0  0  0  0  0  0  0  0  0
   17.8139   -8.1013  -12.2710 C   0  0  0  0  0  0  0  0  0  0  0  0
   17.1392   -7.3885  -13.0528 O   0  0  0  0  0  0  0  0  0  0  0  0
   13.5089  -11.2299   -9.1961 N   0  0  0  0  0  0  0  0  0  0  0  0
   13.8431  -11.1650  -10.5760 C   0  0  0  0  0  0  0  0  0  0  0  0
   13.4013  -12.0227  -11.3646 O   0  0  0  0  0  0  0  0  0  0  0  0
   14.7146  -10.0870  -11.0964 C   0  0  0  0  0  0  0  0  0  0  0  0
   15.1591   -9.1971   -9.9602 C   0  0  0  0  0  0  0  0  0  0  0  0
   16.0532   -8.0572  -10.4197 C   0  0  2  0  0  0  0  0  0  0  0  0
   17.2905   -8.4564  -11.0095 N   0  0  0  0  0  0  0  0  0  0  0  0
   16.1183   -6.9268   -9.5025 C   0  0  0  0  0  0  0  0  0  0  0  0
   17.0980   -6.8525   -8.7103 O   0  0  0  0  0  0  0  0  0  0  0  0
   15.1155   -5.9310   -9.4912 N   0  0  0  0  0  0  0  0  0  0  0  0
   15.1933   -4.8846   -8.4832 C   0  0  0  0  0  0  0  0  0  0  0  0
   15.8142   -3.6689   -9.0301 C   0  0  0  0  0  0  0  0  0  0  0  0
   16.2234   -3.6793  -10.2183 O   0  0  0  0  0  0  0  0  0  0  0  0
   15.9693   -2.5124   -8.2970 O   0  0  0  0  0  0  0  0  0  0  0  0
  2  1  1  0
  3  2  1  0
  3  4  1  6
  5  6  2  0
  5  3  1  0
  7  8  1  0
  8  9  2  0
 10  8  1  0
 10 11  1  0
 12 11  1  1
 12 13  1  0
 13  5  1  0
 14 12  1  0
 14 16  1  0
 15 14  2  0
 17 16  1  0
 18 17  1  0
 19 18  2  0
 20 18  1  0
M  END
$$$$
