SQG.pdb
     RDKit          3D

 20 19  0  0  1  0  0  0  0  0999 V2000
   27.4624  -11.5457  -15.7064 O   0  0  0  0  0  0  0  0  0  0  0  0
   26.5098  -10.5847  -16.0577 C   0  0  0  0  0  0  0  0  0  0  0  0
   25.4384  -11.2930  -16.8446 C   0  0  2  0  0  0  0  0  0  0  0  0
   26.0120  -11.9235  -17.9859 N   0  0  0  0  0  0  0  0  0  0  0  0
   24.3320  -10.3892  -17.2448 C   0  0  0  0  0  0  0  0  0  0  0  0
   24.3421   -9.7613  -18.3311 O   0  0  0  0  0  0  0  0  0  0  0  0
   18.5522  -11.4339  -15.1658 N   0  0  0  0  0  0  0  0  0  0  0  0
   19.1632  -11.9432  -16.3435 C   0  0  0  0  0  0  0  0  0  0  0  0
   18.6702  -12.9293  -16.9242 O   0  0  0  0  0  0  0  0  0  0  0  0
   20.3856  -11.3167  -16.8966 C   0  0  0  0  0  0  0  0  0  0  0  0
   20.7772  -10.1285  -16.0511 C   0  0  0  0  0  0  0  0  0  0  0  0
   22.0609   -9.4663  -16.5240 C   0  0  2  0  0  0  0  0  0  0  0  0
   23.2439  -10.2479  -16.3574 N   0  0  0  0  0  0  0  0  0  0  0  0
   22.1765   -8.0532  -16.1880 C   0  0  0  0  0  0  0  0  0  0  0  0
   21.2879   -7.2618  -16.6086 O   0  0  0  0  0  0  0  0  0  0  0  0
   23.2522   -7.5684  -15.4099 N   0  0  0  0  0  0  0  0  0  0  0  0
   23.3906   -6.1295  -15.2441 C   0  0  0  0  0  0  0  0  0  0  0  0
   22.5039   -5.6322  -14.1815 C   0  0  0  0  0  0  0  0  0  0  0  0
   22.6635   -4.4596  -13.7584 O   0  0  0  0  0  0  0  0  0  0  0  0
   21.5008   -6.3956  -13.6248 O   0  0  0  0  0  0  0  0  0  0  0  0
  2  1  1  0
  3  2  1  0
  3  4  1  6
  5  6  2  0
  5  3  1  0
  7  8  1  0
  8  9  2  0
 10  8  1  0
 10 11  1  0
 12 11  1  1
 12 13  1  0
 13  5  1  0
 14 12  1  0
 14 16  1  0
 15 14  2  0
 17 16  1  0
 18 17  1  0
 19 18  2  0
 20 18  1  0
M  END
$$$$
