SQG.pdb
     RDKit          3D

 20 19  0  0  1  0  0  0  0  0999 V2000
   29.4989  -17.5186  -17.0740 O   0  0  0  0  0  0  0  0  0  0  0  0
   28.2571  -17.4139  -16.4402 C   0  0  0  0  0  0  0  0  0  0  0  0
   27.3855  -18.5102  -16.9944 C   0  0  2  0  0  0  0  0  0  0  0  0
   26.9074  -18.1435  -18.2852 N   0  0  0  0  0  0  0  0  0  0  0  0
   26.2568  -18.8524  -16.0943 C   0  0  0  0  0  0  0  0  0  0  0  0
   25.0620  -18.6312  -16.4073 O   0  0  0  0  0  0  0  0  0  0  0  0
   24.2849  -23.8531  -13.7351 N   0  0  0  0  0  0  0  0  0  0  0  0
   23.2628  -22.8691  -13.8165 C   0  0  0  0  0  0  0  0  0  0  0  0
   22.0960  -23.1543  -13.4847 O   0  0  0  0  0  0  0  0  0  0  0  0
   23.5632  -21.4997  -14.2929 C   0  0  0  0  0  0  0  0  0  0  0  0
   25.0272  -21.3925  -14.6471 C   0  0  0  0  0  0  0  0  0  0  0  0
   25.7056  -20.1994  -13.9941 C   0  0  2  0  0  0  0  0  0  0  0  0
   26.5630  -19.4451  -14.8508 N   0  0  0  0  0  0  0  0  0  0  0  0
   26.2037  -20.4445  -12.6469 C   0  0  0  0  0  0  0  0  0  0  0  0
   27.1230  -21.2954  -12.4927 O   0  0  0  0  0  0  0  0  0  0  0  0
   25.6792  -19.7520  -11.5321 N   0  0  0  0  0  0  0  0  0  0  0  0
   26.1758  -20.0976  -10.2089 C   0  0  0  0  0  0  0  0  0  0  0  0
   25.2016  -20.9210   -9.4771 C   0  0  0  0  0  0  0  0  0  0  0  0
   24.1248  -21.2339  -10.0447 O   0  0  0  0  0  0  0  0  0  0  0  0
   25.4149  -21.3682   -8.1912 O   0  0  0  0  0  0  0  0  0  0  0  0
  2  1  1  0
  3  2  1  0
  3  4  1  6
  5  6  2  0
  5  3  1  0
  7  8  1  0
  8  9  2  0
 10  8  1  0
 10 11  1  0
 12 11  1  6
 12 13  1  0
 13  5  1  0
 14 12  1  0
 14 16  1  0
 15 14  2  0
 17 16  1  0
 18 17  1  0
 19 18  2  0
 20 18  1  0
M  END
$$$$
