SQG.pdb
     RDKit          3D

 20 19  0  0  1  0  0  0  0  0999 V2000
   27.9564  -18.7150  -16.3246 O   0  0  0  0  0  0  0  0  0  0  0  0
   26.8834  -19.6041  -16.2114 C   0  0  0  0  0  0  0  0  0  0  0  0
   27.3772  -20.7939  -15.4310 C   0  0  2  0  0  0  0  0  0  0  0  0
   27.7597  -21.8351  -16.3248 N   0  0  0  0  0  0  0  0  0  0  0  0
   26.3806  -21.2857  -14.4481 C   0  0  0  0  0  0  0  0  0  0  0  0
   25.6025  -22.2362  -14.7043 O   0  0  0  0  0  0  0  0  0  0  0  0
   26.6627  -19.7721   -8.2234 N   0  0  0  0  0  0  0  0  0  0  0  0
   25.5379  -20.6348   -8.3258 C   0  0  0  0  0  0  0  0  0  0  0  0
   25.0093  -21.0936   -7.2950 O   0  0  0  0  0  0  0  0  0  0  0  0
   24.9792  -21.0004   -9.6474 C   0  0  0  0  0  0  0  0  0  0  0  0
   25.9022  -20.5206  -10.7420 C   0  0  0  0  0  0  0  0  0  0  0  0
   25.3886  -20.8525  -12.1335 C   0  0  2  0  0  0  0  0  0  0  0  0
   26.3254  -20.6470  -13.1909 N   0  0  0  0  0  0  0  0  0  0  0  0
   24.0225  -20.4199  -12.3974 C   0  0  0  0  0  0  0  0  0  0  0  0
   23.8314  -19.2288  -12.7684 O   0  0  0  0  0  0  0  0  0  0  0  0
   22.9298  -21.3033  -12.2461 N   0  0  0  0  0  0  0  0  0  0  0  0
   21.5875  -20.7836  -12.4595 C   0  0  0  0  0  0  0  0  0  0  0  0
   21.0927  -21.1319  -13.7998 C   0  0  0  0  0  0  0  0  0  0  0  0
   19.8959  -20.8790  -14.0886 O   0  0  0  0  0  0  0  0  0  0  0  0
   21.8837  -21.7257  -14.7592 O   0  0  0  0  0  0  0  0  0  0  0  0
  2  1  1  0
  3  2  1  0
  3  4  1  6
  5  6  2  0
  5  3  1  0
  7  8  1  0
  8  9  2  0
 10  8  1  0
 10 11  1  0
 12 11  1  1
 12 13  1  0
 13  5  1  0
 14 12  1  0
 14 16  1  0
 15 14  2  0
 17 16  1  0
 18 17  1  0
 19 18  2  0
 20 18  1  0
M  END
$$$$
