SQG.pdb
     RDKit          3D

 20 19  0  0  1  0  0  0  0  0999 V2000
   25.0792  -14.1946  -15.2864 O   0  0  0  0  0  0  0  0  0  0  0  0
   24.6941  -12.8642  -15.4778 C   0  0  0  0  0  0  0  0  0  0  0  0
   23.8032  -12.8336  -16.6919 C   0  0  2  0  0  0  0  0  0  0  0  0
   24.5473  -13.2038  -17.8488 N   0  0  0  0  0  0  0  0  0  0  0  0
   23.1498  -11.5160  -16.8875 C   0  0  0  0  0  0  0  0  0  0  0  0
   23.5859  -10.6688  -17.7039 O   0  0  0  0  0  0  0  0  0  0  0  0
   16.9949  -10.7117  -15.8459 N   0  0  0  0  0  0  0  0  0  0  0  0
   17.4215   -9.3994  -16.1858 C   0  0  0  0  0  0  0  0  0  0  0  0
   16.5797   -8.5001  -16.3738 O   0  0  0  0  0  0  0  0  0  0  0  0
   18.8610   -9.0801  -16.3214 C   0  0  0  0  0  0  0  0  0  0  0  0
   19.6836  -10.3256  -16.0924 C   0  0  0  0  0  0  0  0  0  0  0  0
   21.1795  -10.0635  -16.1546 C   0  0  2  0  0  0  0  0  0  0  0  0
   22.0018  -11.2298  -16.1183 N   0  0  0  0  0  0  0  0  0  0  0  0
   21.6339   -8.9363  -15.3508 C   0  0  0  0  0  0  0  0  0  0  0  0
   21.8799   -9.1316  -14.1284 O   0  0  0  0  0  0  0  0  0  0  0  0
   21.8000   -7.6511  -15.9147 N   0  0  0  0  0  0  0  0  0  0  0  0
   22.4856   -6.6361  -15.1293 C   0  0  0  0  0  0  0  0  0  0  0  0
   21.5502   -5.9396  -14.2336 C   0  0  0  0  0  0  0  0  0  0  0  0
   21.9749   -4.9812  -13.5403 O   0  0  0  0  0  0  0  0  0  0  0  0
   20.2226   -6.2903  -14.1178 O   0  0  0  0  0  0  0  0  0  0  0  0
  2  1  1  0
  3  2  1  0
  3  4  1  6
  5  6  2  0
  5  3  1  0
  7  8  1  0
  8  9  2  0
 10  8  1  0
 10 11  1  0
 12 11  1  1
 12 13  1  0
 13  5  1  0
 14 12  1  0
 14 16  1  0
 15 14  2  0
 17 16  1  0
 18 17  1  0
 19 18  2  0
 20 18  1  0
M  END
$$$$
