SQG.pdb
     RDKit          3D

 20 19  0  0  1  0  0  0  0  0999 V2000
   19.4213   -8.4919  -14.9889 O   0  0  0  0  0  0  0  0  0  0  0  0
   19.5498   -9.8782  -15.1168 C   0  0  0  0  0  0  0  0  0  0  0  0
   20.6258  -10.1285  -16.1406 C   0  0  2  0  0  0  0  0  0  0  0  0
   20.6757  -11.5153  -16.4621 N   0  0  0  0  0  0  0  0  0  0  0  0
   21.9569   -9.6436  -15.7000 C   0  0  0  0  0  0  0  0  0  0  0  0
   22.6944  -10.3155  -14.9391 O   0  0  0  0  0  0  0  0  0  0  0  0
   26.1265   -7.0886  -19.2614 N   0  0  0  0  0  0  0  0  0  0  0  0
   25.6971   -8.4194  -19.0077 C   0  0  0  0  0  0  0  0  0  0  0  0
   26.0151   -9.3360  -19.7896 O   0  0  0  0  0  0  0  0  0  0  0  0
   24.8716   -8.7377  -17.8204 C   0  0  0  0  0  0  0  0  0  0  0  0
   24.5003   -7.4632  -17.1007 C   0  0  0  0  0  0  0  0  0  0  0  0
   23.6125   -7.7066  -15.8913 C   0  0  2  0  0  0  0  0  0  0  0  0
   22.3852   -8.3821  -16.1657 N   0  0  0  0  0  0  0  0  0  0  0  0
   23.5319   -6.5886  -14.9603 C   0  0  0  0  0  0  0  0  0  0  0  0
   24.6053   -6.0376  -14.5900 O   0  0  0  0  0  0  0  0  0  0  0  0
   22.2881   -6.1227  -14.4774 N   0  0  0  0  0  0  0  0  0  0  0  0
   22.2816   -4.9794  -13.5774 C   0  0  0  0  0  0  0  0  0  0  0  0
   22.2352   -3.7159  -14.3282 C   0  0  0  0  0  0  0  0  0  0  0  0
   22.1828   -2.6338  -13.6911 O   0  0  0  0  0  0  0  0  0  0  0  0
   22.2467   -3.6621  -15.7051 O   0  0  0  0  0  0  0  0  0  0  0  0
  2  1  1  0
  3  2  1  0
  3  4  1  1
  5  6  2  0
  5  3  1  0
  7  8  1  0
  8  9  2  0
 10  8  1  0
 10 11  1  0
 12 11  1  6
 12 13  1  0
 13  5  1  0
 14 12  1  0
 14 16  1  0
 15 14  2  0
 17 16  1  0
 18 17  1  0
 19 18  2  0
 20 18  1  0
M  END
$$$$
