SQG.pdb
     RDKit          3D

 20 19  0  0  1  0  0  0  0  0999 V2000
   17.6007  -13.2457  -17.4643 O   0  0  0  0  0  0  0  0  0  0  0  0
   18.3280  -12.2839  -16.7566 C   0  0  0  0  0  0  0  0  0  0  0  0
   19.6580  -12.9018  -16.4130 C   0  0  2  0  0  0  0  0  0  0  0  0
   19.4603  -14.0663  -15.6168 N   0  0  0  0  0  0  0  0  0  0  0  0
   20.5711  -11.9501  -15.7333 C   0  0  0  0  0  0  0  0  0  0  0  0
   20.4011  -11.5968  -14.5414 O   0  0  0  0  0  0  0  0  0  0  0  0
   26.6589  -11.6993  -16.8709 N   0  0  0  0  0  0  0  0  0  0  0  0
   25.9872  -12.3796  -15.8193 C   0  0  0  0  0  0  0  0  0  0  0  0
   26.5764  -13.2707  -15.1778 O   0  0  0  0  0  0  0  0  0  0  0  0
   24.5878  -12.0445  -15.4703 C   0  0  0  0  0  0  0  0  0  0  0  0
   24.0924  -10.9307  -16.3614 C   0  0  0  0  0  0  0  0  0  0  0  0
   22.6633  -10.5177  -16.0493 C   0  0  2  0  0  0  0  0  0  0  0  0
   21.6590  -11.4395  -16.4730 N   0  0  0  0  0  0  0  0  0  0  0  0
   22.3735   -9.1080  -16.2773 C   0  0  0  0  0  0  0  0  0  0  0  0
   22.2003   -8.7154  -17.4642 O   0  0  0  0  0  0  0  0  0  0  0  0
   22.2848   -8.1930  -15.2038 N   0  0  0  0  0  0  0  0  0  0  0  0
   22.0842   -6.7852  -15.5118 C   0  0  0  0  0  0  0  0  0  0  0  0
   21.9626   -5.9873  -14.2825 C   0  0  0  0  0  0  0  0  0  0  0  0
   21.8418   -6.5832  -13.1826 O   0  0  0  0  0  0  0  0  0  0  0  0
   21.9748   -4.6093  -14.2798 O   0  0  0  0  0  0  0  0  0  0  0  0
  2  1  1  0
  3  2  1  0
  3  4  1  1
  5  6  2  0
  5  3  1  0
  7  8  1  0
  8  9  2  0
 10  8  1  0
 10 11  1  0
 12 11  1  6
 12 13  1  0
 13  5  1  0
 14 12  1  0
 14 16  1  0
 15 14  2  0
 17 16  1  0
 18 17  1  0
 19 18  2  0
 20 18  1  0
M  END
$$$$
