SQG.pdb
     RDKit          3D

 20 19  0  0  1  0  0  0  0  0999 V2000
   15.5669  -13.8723  -12.2947 O   0  0  0  0  0  0  0  0  0  0  0  0
   15.7429  -12.5222  -12.6125 C   0  0  0  0  0  0  0  0  0  0  0  0
   14.9682  -11.7255  -11.5958 C   0  0  2  0  0  0  0  0  0  0  0  0
   13.5725  -11.9610  -11.7565 N   0  0  0  0  0  0  0  0  0  0  0  0
   15.2663  -10.2735  -11.6606 C   0  0  0  0  0  0  0  0  0  0  0  0
   14.7910   -9.5332  -12.5553 O   0  0  0  0  0  0  0  0  0  0  0  0
   15.3899   -6.0163   -7.2933 N   0  0  0  0  0  0  0  0  0  0  0  0
   14.3706   -6.5043   -8.1551 C   0  0  0  0  0  0  0  0  0  0  0  0
   13.1799   -6.2040   -7.9436 O   0  0  0  0  0  0  0  0  0  0  0  0
   14.7023   -7.3705   -9.3093 C   0  0  0  0  0  0  0  0  0  0  0  0
   16.1897   -7.6291   -9.3422 C   0  0  0  0  0  0  0  0  0  0  0  0
   16.6263   -8.4016  -10.5762 C   0  0  2  0  0  0  0  0  0  0  0  0
   16.1150   -9.7311  -10.6721 N   0  0  0  0  0  0  0  0  0  0  0  0
   18.0268   -8.2282  -10.9391 C   0  0  0  0  0  0  0  0  0  0  0  0
   18.9039   -8.8065  -10.2395 O   0  0  0  0  0  0  0  0  0  0  0  0
   18.4065   -7.4352  -12.0455 N   0  0  0  0  0  0  0  0  0  0  0  0
   19.8216   -7.3332  -12.3683 C   0  0  0  0  0  0  0  0  0  0  0  0
   20.0282   -6.5569  -13.6000 C   0  0  0  0  0  0  0  0  0  0  0  0
   19.0263   -6.2236  -14.2817 O   0  0  0  0  0  0  0  0  0  0  0  0
   21.2756   -6.1756  -14.0446 O   0  0  0  0  0  0  0  0  0  0  0  0
  2  1  1  0
  3  2  1  0
  3  4  1  6
  5  6  2  0
  5  3  1  0
  7  8  1  0
  8  9  2  0
 10  8  1  0
 10 11  1  0
 12 11  1  1
 12 13  1  0
 13  5  1  0
 14 12  1  0
 14 16  1  0
 15 14  2  0
 17 16  1  0
 18 17  1  0
 19 18  2  0
 20 18  1  0
M  END
$$$$
