SAY.pdb
     RDKit          3D

 24 24  0  0  1  0  0  0  0  0999 V2000
   10.6280  -16.6272   15.4540 O   0  0  0  0  0  0  0  0  0  0  0  0
   10.2169  -16.6069   16.7909 C   0  0  0  0  0  0  0  0  0  0  0  0
    9.2043  -17.7124   17.0608 C   0  0  2  0  0  0  0  0  0  0  0  0
    7.9824  -17.4703   16.3233 N   0  0  0  0  0  0  0  0  0  0  0  0
    8.9061  -17.6903   18.4999 C   0  0  0  0  0  0  0  0  0  0  0  0
    8.0843  -16.8538   18.9454 O   0  0  0  0  0  0  0  0  0  0  0  0
    9.4017  -19.9876   21.3833 C   0  0  0  0  0  0  0  0  0  0  0  0
    9.0403  -18.6523   20.8021 C   0  0  2  0  0  0  0  0  0  0  0  0
    9.5104  -18.5837   19.4358 N   0  0  0  0  0  0  0  0  0  0  0  0
    9.5223  -17.5072   21.5500 C   0  0  0  0  0  0  0  0  0  0  0  0
   10.6652  -17.0408   21.2754 O   0  0  0  0  0  0  0  0  0  0  0  0
    7.4289  -12.9049   17.8507 O   0  0  0  0  0  0  0  0  0  0  0  0
    7.6278  -13.3359   19.1749 C   0  0  0  0  0  0  0  0  0  0  0  0
    6.7110  -14.0932   19.8408 C   0  0  0  0  0  0  0  0  0  0  0  0
    6.9133  -14.5162   21.1499 C   0  0  0  0  0  0  0  0  0  0  0  0
    8.0844  -14.1448   21.7694 C   0  0  0  0  0  0  0  0  0  0  0  0
    8.3179  -14.5840   23.1566 C   0  0  0  0  0  0  0  0  0  0  0  0
    9.3726  -15.6719   23.2089 C   0  0  2  0  0  0  0  0  0  0  0  0
    8.8128  -16.8458   22.5866 N   0  0  0  0  0  0  0  0  0  0  0  0
    9.7731  -15.9970   24.5891 C   0  0  0  0  0  0  0  0  0  0  0  0
    9.5026  -17.2278   25.1571 O   0  0  0  0  0  0  0  0  0  0  0  0
    9.0443  -13.3704   21.1180 C   0  0  0  0  0  0  0  0  0  0  0  0
    8.7856  -12.9856   19.8292 C   0  0  0  0  0  0  0  0  0  0  0  0
   10.3746  -15.1417   25.2728 O   0  0  0  0  0  0  0  0  0  0  0  0
  2  3  1  0
  2  1  1  0
  3  4  1  6
  5  9  1  0
  5  3  1  0
  6  5  2  0
  8  7  1  1
  8 10  1  0
  8  9  1  0
 10 19  1  0
 11 10  2  0
 13 12  1  0
 14 13  2  0
 15 14  1  0
 16 22  1  0
 16 15  2  0
 17 16  1  0
 18 17  1  1
 19 18  1  0
 20 21  1  0
 20 18  1  0
 22 23  2  0
 23 13  1  0
 24 20  2  0
M  END
$$$$
