SAY.pdb
     RDKit          3D

 24 24  0  0  1  0  0  0  0  0999 V2000
   11.0857  -13.5227   19.0137 O   0  0  0  0  0  0  0  0  0  0  0  0
   10.3603  -14.4716   18.2857 C   0  0  0  0  0  0  0  0  0  0  0  0
    8.8792  -14.1166   18.2621 C   0  0  2  0  0  0  0  0  0  0  0  0
    8.7020  -12.7024   18.0085 N   0  0  0  0  0  0  0  0  0  0  0  0
    8.3318  -14.4363   19.5882 C   0  0  0  0  0  0  0  0  0  0  0  0
    8.5018  -13.6310   20.5348 O   0  0  0  0  0  0  0  0  0  0  0  0
    6.1985  -17.1016   21.1466 C   0  0  0  0  0  0  0  0  0  0  0  0
    7.1013  -15.9040   21.1932 C   0  0  2  0  0  0  0  0  0  0  0  0
    7.6044  -15.6339   19.8640 N   0  0  0  0  0  0  0  0  0  0  0  0
    8.2041  -16.0033   22.1296 C   0  0  0  0  0  0  0  0  0  0  0  0
    9.3239  -15.5157   21.8019 O   0  0  0  0  0  0  0  0  0  0  0  0
    6.7624  -11.0312   28.5775 O   0  0  0  0  0  0  0  0  0  0  0  0
    6.8944  -11.9184   27.4939 C   0  0  0  0  0  0  0  0  0  0  0  0
    8.1000  -12.4230   27.1072 C   0  0  0  0  0  0  0  0  0  0  0  0
    8.2241  -13.2998   26.0351 C   0  0  0  0  0  0  0  0  0  0  0  0
    7.0781  -13.6529   25.3604 C   0  0  0  0  0  0  0  0  0  0  0  0
    7.1887  -14.5818   24.2216 C   0  0  0  0  0  0  0  0  0  0  0  0
    8.0190  -15.7950   24.5923 C   0  0  2  0  0  0  0  0  0  0  0  0
    8.1411  -16.6119   23.4106 N   0  0  0  0  0  0  0  0  0  0  0  0
    7.4014  -16.5877   25.6700 C   0  0  0  0  0  0  0  0  0  0  0  0
    8.0054  -16.7376   26.9042 O   0  0  0  0  0  0  0  0  0  0  0  0
    5.8282  -13.1557   25.7289 C   0  0  0  0  0  0  0  0  0  0  0  0
    5.7726  -12.2959   26.7936 C   0  0  0  0  0  0  0  0  0  0  0  0
    6.3005  -17.1437   25.4712 O   0  0  0  0  0  0  0  0  0  0  0  0
  2  3  1  0
  2  1  1  0
  3  4  1  1
  5  9  1  0
  5  3  1  0
  6  5  2  0
  8  7  1  6
  8 10  1  0
  8  9  1  0
 10 19  1  0
 11 10  2  0
 13 12  1  0
 14 13  2  0
 15 14  1  0
 16 22  1  0
 16 15  2  0
 17 16  1  0
 18 17  1  6
 19 18  1  0
 20 21  1  0
 20 18  1  0
 22 23  2  0
 23 13  1  0
 24 20  2  0
M  END
$$$$
