SAY.pdb
     RDKit          3D

 24 24  0  0  1  0  0  0  0  0999 V2000
    7.6565  -19.7146   21.2591 O   0  0  0  0  0  0  0  0  0  0  0  0
    6.4896  -19.0030   20.9611 C   0  0  0  0  0  0  0  0  0  0  0  0
    6.7206  -18.0531   19.7929 C   0  0  2  0  0  0  0  0  0  0  0  0
    7.4609  -18.7162   18.7404 N   0  0  0  0  0  0  0  0  0  0  0  0
    7.5152  -16.9244   20.2977 C   0  0  0  0  0  0  0  0  0  0  0  0
    8.7656  -17.0190   20.3332 O   0  0  0  0  0  0  0  0  0  0  0  0
    6.9163  -13.4279   21.5283 C   0  0  0  0  0  0  0  0  0  0  0  0
    7.7611  -14.6455   21.2927 C   0  0  2  0  0  0  0  0  0  0  0  0
    6.9330  -15.7045   20.7583 N   0  0  0  0  0  0  0  0  0  0  0  0
    8.4871  -15.1222   22.4540 C   0  0  0  0  0  0  0  0  0  0  0  0
    7.9814  -16.0523   23.1456 O   0  0  0  0  0  0  0  0  0  0  0  0
   10.4420  -15.6764   30.5234 O   0  0  0  0  0  0  0  0  0  0  0  0
   10.0865  -15.4088   29.1889 C   0  0  0  0  0  0  0  0  0  0  0  0
   10.0847  -14.1470   28.6737 C   0  0  0  0  0  0  0  0  0  0  0  0
    9.7322  -13.8887   27.3536 C   0  0  0  0  0  0  0  0  0  0  0  0
    9.3782  -14.9585   26.5641 C   0  0  0  0  0  0  0  0  0  0  0  0
    9.0022  -14.7055   25.1618 C   0  0  0  0  0  0  0  0  0  0  0  0
   10.1905  -14.8986   24.2403 C   0  0  2  0  0  0  0  0  0  0  0  0
    9.7427  -14.6296   22.8964 N   0  0  0  0  0  0  0  0  0  0  0  0
   10.7341  -16.2665   24.3072 C   0  0  0  0  0  0  0  0  0  0  0  0
   11.8951  -16.5577   24.9985 O   0  0  0  0  0  0  0  0  0  0  0  0
    9.3689  -16.2627   27.0584 C   0  0  0  0  0  0  0  0  0  0  0  0
    9.7263  -16.4510   28.3671 C   0  0  0  0  0  0  0  0  0  0  0  0
   10.1352  -17.1956   23.7253 O   0  0  0  0  0  0  0  0  0  0  0  0
  2  3  1  0
  2  1  1  0
  3  4  1  6
  5  9  1  0
  5  3  1  0
  6  5  2  0
  8  7  1  1
  8 10  1  0
  8  9  1  0
 10 19  1  0
 11 10  2  0
 13 12  1  0
 14 13  2  0
 15 14  1  0
 16 22  1  0
 16 15  2  0
 17 16  1  0
 18 17  1  1
 19 18  1  0
 20 21  1  0
 20 18  1  0
 22 23  2  0
 23 13  1  0
 24 20  2  0
M  END
$$$$
