SAY.pdb
     RDKit          3D

 24 24  0  0  1  0  0  0  0  0999 V2000
    7.4966  -18.6192   21.8737 O   0  0  0  0  0  0  0  0  0  0  0  0
    6.4936  -18.1201   21.0361 C   0  0  0  0  0  0  0  0  0  0  0  0
    7.0918  -17.5617   19.7514 C   0  0  2  0  0  0  0  0  0  0  0  0
    7.9194  -18.5576   19.1041 N   0  0  0  0  0  0  0  0  0  0  0  0
    7.9296  -16.4125   20.1227 C   0  0  0  0  0  0  0  0  0  0  0  0
    9.1718  -16.5606   20.2152 O   0  0  0  0  0  0  0  0  0  0  0  0
    7.6406  -12.7291   20.5644 C   0  0  0  0  0  0  0  0  0  0  0  0
    8.2462  -14.0597   20.9025 C   0  0  2  0  0  0  0  0  0  0  0  0
    7.3989  -15.1137   20.3887 N   0  0  0  0  0  0  0  0  0  0  0  0
    8.5049  -14.2752   22.3130 C   0  0  0  0  0  0  0  0  0  0  0  0
    8.1449  -13.3872   23.1382 O   0  0  0  0  0  0  0  0  0  0  0  0
    6.4864  -10.6197   27.1385 O   0  0  0  0  0  0  0  0  0  0  0  0
    6.8085  -11.8657   26.5704 C   0  0  0  0  0  0  0  0  0  0  0  0
    5.8600  -12.7041   26.0655 C   0  0  0  0  0  0  0  0  0  0  0  0
    6.1847  -13.9346   25.5052 C   0  0  0  0  0  0  0  0  0  0  0  0
    7.5127  -14.2929   25.4718 C   0  0  0  0  0  0  0  0  0  0  0  0
    7.8773  -15.5929   24.8811 C   0  0  0  0  0  0  0  0  0  0  0  0
    9.2751  -15.5475   24.2956 C   0  0  2  0  0  0  0  0  0  0  0  0
    9.1401  -15.4180   22.8660 N   0  0  0  0  0  0  0  0  0  0  0  0
   10.0501  -16.7624   24.6029 C   0  0  0  0  0  0  0  0  0  0  0  0
   10.4474  -17.6443   23.6154 O   0  0  0  0  0  0  0  0  0  0  0  0
    8.5094  -13.4596   25.9794 C   0  0  0  0  0  0  0  0  0  0  0  0
    8.1248  -12.2606   26.5182 C   0  0  0  0  0  0  0  0  0  0  0  0
   10.3613  -17.0105   25.7871 O   0  0  0  0  0  0  0  0  0  0  0  0
  2  3  1  0
  2  1  1  0
  3  4  1  1
  5  9  1  0
  5  3  1  0
  6  5  2  0
  8  7  1  1
  8 10  1  0
  8  9  1  0
 10 19  1  0
 11 10  2  0
 13 12  1  0
 14 13  2  0
 15 14  1  0
 16 22  1  0
 16 15  2  0
 17 16  1  0
 18 17  1  1
 19 18  1  0
 20 21  1  0
 20 18  1  0
 22 23  2  0
 23 13  1  0
 24 20  2  0
M  END
$$$$
