SAY.pdb
     RDKit          3D

 24 24  0  0  1  0  0  0  0  0999 V2000
   11.0088  -12.8127   18.7898 O   0  0  0  0  0  0  0  0  0  0  0  0
   10.4148  -14.0791   18.7737 C   0  0  0  0  0  0  0  0  0  0  0  0
    8.9204  -13.9707   18.4993 C   0  0  2  0  0  0  0  0  0  0  0  0
    8.5680  -12.6113   18.1477 N   0  0  0  0  0  0  0  0  0  0  0  0
    8.2207  -14.3405   19.7379 C   0  0  0  0  0  0  0  0  0  0  0  0
    7.9025  -13.4445   20.5561 O   0  0  0  0  0  0  0  0  0  0  0  0
    6.6902  -17.4005   21.2637 C   0  0  0  0  0  0  0  0  0  0  0  0
    7.2169  -15.9965   21.3171 C   0  0  2  0  0  0  0  0  0  0  0  0
    7.8766  -15.6867   20.0675 N   0  0  0  0  0  0  0  0  0  0  0  0
    8.1048  -15.7164   22.4289 C   0  0  0  0  0  0  0  0  0  0  0  0
    9.3526  -15.7172   22.2237 O   0  0  0  0  0  0  0  0  0  0  0  0
   11.2863  -14.9766   30.5744 O   0  0  0  0  0  0  0  0  0  0  0  0
   10.4558  -14.9306   29.4399 C   0  0  0  0  0  0  0  0  0  0  0  0
    9.5869  -15.9341   29.1311 C   0  0  0  0  0  0  0  0  0  0  0  0
    8.7684  -15.8828   28.0081 C   0  0  0  0  0  0  0  0  0  0  0  0
    8.8582  -14.7728   27.2000 C   0  0  0  0  0  0  0  0  0  0  0  0
    7.9983  -14.6993   26.0055 C   0  0  0  0  0  0  0  0  0  0  0  0
    8.6703  -15.3544   24.8147 C   0  0  2  0  0  0  0  0  0  0  0  0
    7.6928  -15.4349   23.7579 N   0  0  0  0  0  0  0  0  0  0  0  0
    9.1635  -16.7077   25.1251 C   0  0  0  0  0  0  0  0  0  0  0  0
    8.3486  -17.8205   25.0344 O   0  0  0  0  0  0  0  0  0  0  0  0
    9.7362  -13.7275   27.4859 C   0  0  0  0  0  0  0  0  0  0  0  0
   10.5157  -13.8380   28.6068 C   0  0  0  0  0  0  0  0  0  0  0  0
   10.3508  -16.8630   25.4815 O   0  0  0  0  0  0  0  0  0  0  0  0
  2  3  1  0
  2  1  1  0
  3  4  1  1
  5  9  1  0
  5  3  1  0
  6  5  2  0
  8  7  1  6
  8 10  1  0
  8  9  1  0
 10 19  1  0
 11 10  2  0
 13 12  1  0
 14 13  2  0
 15 14  1  0
 16 22  1  0
 16 15  2  0
 17 16  1  0
 18 17  1  1
 19 18  1  0
 20 21  1  0
 20 18  1  0
 22 23  2  0
 23 13  1  0
 24 20  2  0
M  END
$$$$
