SAY.pdb
     RDKit          3D

 24 24  0  0  1  0  0  0  0  0999 V2000
    8.2361  -12.9431   21.9537 O   0  0  0  0  0  0  0  0  0  0  0  0
    8.4061  -13.8024   20.8631 C   0  0  0  0  0  0  0  0  0  0  0  0
    7.5136  -15.0294   20.9988 C   0  0  2  0  0  0  0  0  0  0  0  0
    6.1404  -14.6331   21.2287 N   0  0  0  0  0  0  0  0  0  0  0  0
    7.9919  -15.7915   22.1610 C   0  0  0  0  0  0  0  0  0  0  0  0
    7.2769  -15.8588   23.1896 O   0  0  0  0  0  0  0  0  0  0  0  0
   10.6963  -18.2609   22.8741 C   0  0  0  0  0  0  0  0  0  0  0  0
    9.6068  -17.3209   23.2996 C   0  0  2  0  0  0  0  0  0  0  0  0
    9.2473  -16.4716   22.1851 N   0  0  0  0  0  0  0  0  0  0  0  0
    9.9159  -16.5097   24.4613 C   0  0  0  0  0  0  0  0  0  0  0  0
   10.5184  -15.4111   24.2909 O   0  0  0  0  0  0  0  0  0  0  0  0
    6.0342  -11.3192   25.4711 O   0  0  0  0  0  0  0  0  0  0  0  0
    6.7183  -12.4160   26.0258 C   0  0  0  0  0  0  0  0  0  0  0  0
    6.2538  -13.6932   25.9228 C   0  0  0  0  0  0  0  0  0  0  0  0
    6.9347  -14.7734   26.4733 C   0  0  0  0  0  0  0  0  0  0  0  0
    8.1119  -14.5174   27.1378 C   0  0  0  0  0  0  0  0  0  0  0  0
    8.8489  -15.6491   27.7276 C   0  0  0  0  0  0  0  0  0  0  0  0
   10.0569  -16.0061   26.8839 C   0  0  2  0  0  0  0  0  0  0  0  0
    9.5968  -16.8430   25.8038 N   0  0  0  0  0  0  0  0  0  0  0  0
   11.0844  -16.7279   27.6549 C   0  0  0  0  0  0  0  0  0  0  0  0
   11.5043  -17.9968   27.3027 O   0  0  0  0  0  0  0  0  0  0  0  0
    8.6164  -13.2230   27.2624 C   0  0  0  0  0  0  0  0  0  0  0  0
    7.8988  -12.2020   26.6981 C   0  0  0  0  0  0  0  0  0  0  0  0
   11.5958  -16.1851   28.6571 O   0  0  0  0  0  0  0  0  0  0  0  0
  2  3  1  0
  2  1  1  0
  3  4  1  1
  5  9  1  0
  5  3  1  0
  6  5  2  0
  8  7  1  6
  8 10  1  0
  8  9  1  0
 10 19  1  0
 11 10  2  0
 13 12  1  0
 14 13  2  0
 15 14  1  0
 16 22  1  0
 16 15  2  0
 17 16  1  0
 18 17  1  1
 19 18  1  0
 20 21  1  0
 20 18  1  0
 22 23  2  0
 23 13  1  0
 24 20  2  0
M  END
$$$$
