KHC.pdb
     RDKit          3D

 26 26  0  0  1  0  0  0  0  0999 V2000
   11.4033  -17.9124   16.4733 N   0  0  0  0  0  0  0  0  0  0  0  0
   10.7586  -18.5220   17.5963 C   0  0  1  0  0  0  0  0  0  0  0  0
   11.3638  -19.8650   17.9086 C   0  0  0  0  0  0  0  0  0  0  0  0
   12.7872  -20.0507   17.5851 C   0  0  0  0  0  0  0  0  0  0  0  0
   13.4046  -21.3794   17.8035 C   0  0  0  0  0  0  0  0  0  0  0  0
   14.8696  -21.4722   17.5512 C   0  0  0  0  0  0  0  0  0  0  0  0
   15.3971  -22.7797   17.7864 N   0  0  0  0  0  0  0  0  0  0  0  0
   10.8577  -17.6905   18.8224 C   0  0  0  0  0  0  0  0  0  0  0  0
   11.9749  -17.1443   19.0330 O   0  0  0  0  0  0  0  0  0  0  0  0
    9.8435  -17.4476   19.7713 N   0  0  0  0  0  0  0  0  0  0  0  0
    9.9164  -16.4999   20.8334 C   0  0  1  0  0  0  0  0  0  0  0  0
    8.6108  -15.9184   21.2662 C   0  0  0  0  0  0  0  0  0  0  0  0
    8.0833  -14.9140   20.3104 C   0  0  0  0  0  0  0  0  0  0  0  0
    8.6098  -14.3859   19.1551 C   0  0  0  0  0  0  0  0  0  0  0  0
    7.7641  -13.4898   18.6077 N   0  0  0  0  0  0  0  0  0  0  0  0
    6.6983  -13.4517   19.4213 C   0  0  0  0  0  0  0  0  0  0  0  0
    6.8712  -14.2993   20.4485 N   0  0  0  0  0  0  0  0  0  0  0  0
   10.5322  -17.1174   22.0277 C   0  0  0  0  0  0  0  0  0  0  0  0
   10.2538  -18.3113   22.2903 O   0  0  0  0  0  0  0  0  0  0  0  0
   11.4325  -16.4241   22.9000 N   0  0  0  0  0  0  0  0  0  0  0  0
   12.0138  -17.0659   24.0631 C   0  0  1  0  0  0  0  0  0  0  0  0
   13.2475  -16.2575   24.5218 C   0  0  0  0  0  0  0  0  0  0  0  0
   14.4222  -16.0491   23.1672 S   0  0  0  0  0  0  0  0  0  0  0  0
   11.1004  -17.2221   25.1916 C   0  0  0  0  0  0  0  0  0  0  0  0
   11.4674  -17.8831   26.1862 O   0  0  0  0  0  0  0  0  0  0  0  0
    9.8378  -16.6613   25.1995 O   0  0  0  0  0  0  0  0  0  0  0  0
  2  1  1  6
  2  3  1  0
  3  4  1  0
  5  4  1  0
  6  5  1  0
  7  6  1  0
  8  2  1  0
  8  9  2  0
 10  8  1  0
 11 10  1  0
 11 12  1  1
 13 14  2  0
 13 12  1  0
 15 14  1  0
 16 17  2  0
 16 15  1  0
 17 13  1  0
 18 11  1  0
 19 18  2  0
 20 18  1  0
 21 22  1  1
 21 20  1  0
 22 23  1  0
 24 21  1  0
 25 24  2  0
 26 24  1  0
M  END
$$$$
