KHC.pdb
     RDKit          3D

 26 26  0  0  1  0  0  0  0  0999 V2000
   10.2198  -16.2303   19.3656 N   0  0  0  0  0  0  0  0  0  0  0  0
    9.8144  -16.9290   20.5471 C   0  0  1  0  0  0  0  0  0  0  0  0
   10.7958  -18.0145   20.9015 C   0  0  0  0  0  0  0  0  0  0  0  0
   10.9698  -19.1048   19.9289 C   0  0  0  0  0  0  0  0  0  0  0  0
   11.9165  -20.2004   20.2419 C   0  0  0  0  0  0  0  0  0  0  0  0
   11.9613  -21.3276   19.2692 C   0  0  0  0  0  0  0  0  0  0  0  0
   12.8506  -22.3743   19.6648 N   0  0  0  0  0  0  0  0  0  0  0  0
    9.6990  -16.0287   21.7222 C   0  0  0  0  0  0  0  0  0  0  0  0
   10.4802  -15.0386   21.7407 O   0  0  0  0  0  0  0  0  0  0  0  0
    8.8158  -16.1609   22.8132 N   0  0  0  0  0  0  0  0  0  0  0  0
    8.6190  -15.1904   23.8384 C   0  0  1  0  0  0  0  0  0  0  0  0
    7.2030  -14.7734   24.0649 C   0  0  0  0  0  0  0  0  0  0  0  0
    7.0631  -13.7835   25.1609 C   0  0  0  0  0  0  0  0  0  0  0  0
    6.2884  -13.7800   26.2968 C   0  0  0  0  0  0  0  0  0  0  0  0
    6.4907  -12.6554   27.0127 N   0  0  0  0  0  0  0  0  0  0  0  0
    7.3977  -11.9453   26.3254 C   0  0  0  0  0  0  0  0  0  0  0  0
    7.7532  -12.6057   25.2114 N   0  0  0  0  0  0  0  0  0  0  0  0
    9.1319  -15.6991   25.1287 C   0  0  0  0  0  0  0  0  0  0  0  0
    8.3706  -16.3998   25.8366 O   0  0  0  0  0  0  0  0  0  0  0  0
   10.4545  -15.4353   25.6121 N   0  0  0  0  0  0  0  0  0  0  0  0
   10.7471  -15.3580   27.0301 C   0  0  1  0  0  0  0  0  0  0  0  0
   10.0441  -14.1172   27.6235 C   0  0  0  0  0  0  0  0  0  0  0  0
   10.3675  -13.9776   29.3940 S   0  0  0  0  0  0  0  0  0  0  0  0
   10.3574  -16.5381   27.7968 C   0  0  0  0  0  0  0  0  0  0  0  0
    9.2285  -17.0402   27.6117 O   0  0  0  0  0  0  0  0  0  0  0  0
   11.1973  -17.1233   28.7246 O   0  0  0  0  0  0  0  0  0  0  0  0
  2  1  1  6
  2  3  1  0
  3  4  1  0
  5  4  1  0
  6  5  1  0
  7  6  1  0
  8  2  1  0
  8  9  2  0
 10  8  1  0
 11 10  1  0
 11 12  1  1
 13 14  2  0
 13 12  1  0
 15 14  1  0
 16 17  2  0
 16 15  1  0
 17 13  1  0
 18 11  1  0
 19 18  2  0
 20 18  1  0
 21 22  1  1
 21 20  1  0
 22 23  1  0
 24 21  1  0
 25 24  2  0
 26 24  1  0
M  END
$$$$
