KHC.pdb
     RDKit          3D

 26 26  0  0  1  0  0  0  0  0999 V2000
    9.5298  -16.1582   18.3123 N   0  0  0  0  0  0  0  0  0  0  0  0
   10.2720  -16.0680   19.5328 C   0  0  1  0  0  0  0  0  0  0  0  0
   11.2370  -14.9126   19.4991 C   0  0  0  0  0  0  0  0  0  0  0  0
   12.6623  -15.2343   19.3252 C   0  0  0  0  0  0  0  0  0  0  0  0
   13.6532  -14.1333   19.3448 C   0  0  0  0  0  0  0  0  0  0  0  0
   15.0658  -14.5162   19.0681 C   0  0  0  0  0  0  0  0  0  0  0  0
   15.9384  -13.3905   18.9478 N   0  0  0  0  0  0  0  0  0  0  0  0
    9.3924  -15.8822   20.7144 C   0  0  0  0  0  0  0  0  0  0  0  0
    8.2136  -15.5035   20.4739 O   0  0  0  0  0  0  0  0  0  0  0  0
    9.7311  -16.0818   22.0684 N   0  0  0  0  0  0  0  0  0  0  0  0
    8.8024  -16.2818   23.1310 C   0  0  1  0  0  0  0  0  0  0  0  0
    8.7239  -17.6754   23.6617 C   0  0  0  0  0  0  0  0  0  0  0  0
    7.8051  -17.7991   24.8199 C   0  0  0  0  0  0  0  0  0  0  0  0
    6.9685  -16.8909   25.4246 C   0  0  0  0  0  0  0  0  0  0  0  0
    6.3145  -17.4555   26.4598 N   0  0  0  0  0  0  0  0  0  0  0  0
    6.7403  -18.7265   26.5089 C   0  0  0  0  0  0  0  0  0  0  0  0
    7.6349  -18.9517   25.5330 N   0  0  0  0  0  0  0  0  0  0  0  0
    9.1349  -15.4022   24.2724 C   0  0  0  0  0  0  0  0  0  0  0  0
   10.3230  -15.3692   24.6714 O   0  0  0  0  0  0  0  0  0  0  0  0
    8.1711  -14.5835   24.9455 N   0  0  0  0  0  0  0  0  0  0  0  0
    8.5505  -13.6825   26.0164 C   0  0  1  0  0  0  0  0  0  0  0  0
    7.3876  -12.7026   26.2873 C   0  0  0  0  0  0  0  0  0  0  0  0
    5.8947  -13.5925   26.7749 S   0  0  0  0  0  0  0  0  0  0  0  0
    8.9173  -14.3432   27.2658 C   0  0  0  0  0  0  0  0  0  0  0  0
    8.6606  -15.5571   27.4120 O   0  0  0  0  0  0  0  0  0  0  0  0
    9.5423  -13.6705   28.2981 O   0  0  0  0  0  0  0  0  0  0  0  0
  2  1  1  6
  2  3  1  0
  3  4  1  0
  5  4  1  0
  6  5  1  0
  7  6  1  0
  8  2  1  0
  8  9  2  0
 10  8  1  0
 11 10  1  0
 11 12  1  1
 13 14  2  0
 13 12  1  0
 15 14  1  0
 16 17  2  0
 16 15  1  0
 17 13  1  0
 18 11  1  0
 19 18  2  0
 20 18  1  0
 21 22  1  1
 21 20  1  0
 22 23  1  0
 24 21  1  0
 25 24  2  0
 26 24  1  0
M  END
$$$$
