KHC.pdb
     RDKit          3D

 26 26  0  0  1  0  0  0  0  0999 V2000
   10.5137  -18.7599   18.6059 N   0  0  0  0  0  0  0  0  0  0  0  0
    9.3664  -18.6446   19.4538 C   0  0  1  0  0  0  0  0  0  0  0  0
    9.1448  -19.9066   20.2448 C   0  0  0  0  0  0  0  0  0  0  0  0
   10.3210  -20.5053   20.8956 C   0  0  0  0  0  0  0  0  0  0  0  0
   10.2073  -21.8660   21.4700 C   0  0  0  0  0  0  0  0  0  0  0  0
   11.4602  -22.4523   22.0224 C   0  0  0  0  0  0  0  0  0  0  0  0
   11.2715  -23.7553   22.5789 N   0  0  0  0  0  0  0  0  0  0  0  0
    9.4916  -17.5258   20.4219 C   0  0  0  0  0  0  0  0  0  0  0  0
   10.6529  -17.2970   20.8574 O   0  0  0  0  0  0  0  0  0  0  0  0
    8.4580  -16.6969   20.9042 N   0  0  0  0  0  0  0  0  0  0  0  0
    8.6332  -15.5773   21.7687 C   0  0  1  0  0  0  0  0  0  0  0  0
    7.6885  -14.4418   21.5487 C   0  0  0  0  0  0  0  0  0  0  0  0
    7.8392  -13.8190   20.2108 C   0  0  0  0  0  0  0  0  0  0  0  0
    8.4650  -12.6639   19.8049 C   0  0  0  0  0  0  0  0  0  0  0  0
    8.3438  -12.4946   18.4727 N   0  0  0  0  0  0  0  0  0  0  0  0
    7.6379  -13.5480   18.0353 C   0  0  0  0  0  0  0  0  0  0  0  0
    7.3260  -14.3537   19.0633 N   0  0  0  0  0  0  0  0  0  0  0  0
    8.4876  -15.9941   23.1801 C   0  0  0  0  0  0  0  0  0  0  0  0
    7.4552  -16.6240   23.5107 O   0  0  0  0  0  0  0  0  0  0  0  0
    9.4654  -15.7180   24.1900 N   0  0  0  0  0  0  0  0  0  0  0  0
    9.7773  -16.6766   25.2322 C   0  0  1  0  0  0  0  0  0  0  0  0
   10.1752  -18.0192   24.5803 C   0  0  0  0  0  0  0  0  0  0  0  0
   10.7022  -19.2115   25.8290 S   0  0  0  0  0  0  0  0  0  0  0  0
   10.8367  -16.2585   26.1459 C   0  0  0  0  0  0  0  0  0  0  0  0
   11.7756  -15.5581   25.7114 O   0  0  0  0  0  0  0  0  0  0  0  0
   10.8380  -16.6110   27.4818 O   0  0  0  0  0  0  0  0  0  0  0  0
  2  1  1  1
  2  3  1  0
  3  4  1  0
  5  4  1  0
  6  5  1  0
  7  6  1  0
  8  2  1  0
  8  9  2  0
 10  8  1  0
 11 10  1  0
 11 12  1  6
 13 14  2  0
 13 12  1  0
 15 14  1  0
 16 17  2  0
 16 15  1  0
 17 13  1  0
 18 11  1  0
 19 18  2  0
 20 18  1  0
 21 22  1  6
 21 20  1  0
 22 23  1  0
 24 21  1  0
 25 24  2  0
 26 24  1  0
M  END
$$$$
