KHC.pdb
     RDKit          3D

 26 26  0  0  1  0  0  0  0  0999 V2000
   10.4024  -17.2775   16.5010 N   0  0  0  0  0  0  0  0  0  0  0  0
    9.9955  -17.9488   17.6978 C   0  0  1  0  0  0  0  0  0  0  0  0
   10.7412  -19.2449   17.8755 C   0  0  0  0  0  0  0  0  0  0  0  0
   12.1613  -19.2597   17.4903 C   0  0  0  0  0  0  0  0  0  0  0  0
   12.9094  -20.5364   17.5594 C   0  0  0  0  0  0  0  0  0  0  0  0
   14.3371  -20.4845   17.1377 C   0  0  0  0  0  0  0  0  0  0  0  0
   14.9873  -21.7557   17.2026 N   0  0  0  0  0  0  0  0  0  0  0  0
   10.2303  -17.1272   18.9121 C   0  0  0  0  0  0  0  0  0  0  0  0
   11.3508  -16.5527   18.9845 O   0  0  0  0  0  0  0  0  0  0  0  0
    9.3411  -16.9218   19.9868 N   0  0  0  0  0  0  0  0  0  0  0  0
    9.5676  -16.0489   21.0905 C   0  0  1  0  0  0  0  0  0  0  0  0
    8.3793  -15.2674   21.5459 C   0  0  0  0  0  0  0  0  0  0  0  0
    7.9004  -14.3021   20.5262 C   0  0  0  0  0  0  0  0  0  0  0  0
    8.1690  -12.9676   20.3328 C   0  0  0  0  0  0  0  0  0  0  0  0
    7.4985  -12.4927   19.2637 N   0  0  0  0  0  0  0  0  0  0  0  0
    6.8031  -13.5326   18.7796 C   0  0  0  0  0  0  0  0  0  0  0  0
    7.0312  -14.6270   19.5237 N   0  0  0  0  0  0  0  0  0  0  0  0
   10.0538  -16.8163   22.2573 C   0  0  0  0  0  0  0  0  0  0  0  0
    9.5656  -17.9518   22.4677 O   0  0  0  0  0  0  0  0  0  0  0  0
   11.0555  -16.3318   23.1596 N   0  0  0  0  0  0  0  0  0  0  0  0
   11.5747  -17.1534   24.2356 C   0  0  1  0  0  0  0  0  0  0  0  0
   12.9180  -16.5629   24.7184 C   0  0  0  0  0  0  0  0  0  0  0  0
   13.5870  -17.5218   26.0937 S   0  0  0  0  0  0  0  0  0  0  0  0
   10.6784  -17.2951   25.3796 C   0  0  0  0  0  0  0  0  0  0  0  0
    9.7344  -16.4886   25.5182 O   0  0  0  0  0  0  0  0  0  0  0  0
   10.8371  -18.2953   26.3194 O   0  0  0  0  0  0  0  0  0  0  0  0
  2  1  1  6
  2  3  1  0
  3  4  1  0
  5  4  1  0
  6  5  1  0
  7  6  1  0
  8  2  1  0
  8  9  2  0
 10  8  1  0
 11 10  1  0
 11 12  1  1
 13 14  2  0
 13 12  1  0
 15 14  1  0
 16 17  2  0
 16 15  1  0
 17 13  1  0
 18 11  1  0
 19 18  2  0
 20 18  1  0
 21 22  1  1
 21 20  1  0
 22 23  1  0
 24 21  1  0
 25 24  2  0
 26 24  1  0
M  END
$$$$
