KHC.pdb
     RDKit          3D

 26 26  0  0  1  0  0  0  0  0999 V2000
   12.9275  -16.9282   19.6647 N   0  0  0  0  0  0  0  0  0  0  0  0
   13.1840  -15.5443   19.9245 C   0  0  1  0  0  0  0  0  0  0  0  0
   13.1639  -14.7387   18.6525 C   0  0  0  0  0  0  0  0  0  0  0  0
   13.7094  -15.3785   17.4449 C   0  0  0  0  0  0  0  0  0  0  0  0
   12.8022  -15.6512   16.3061 C   0  0  0  0  0  0  0  0  0  0  0  0
   13.4351  -16.2221   15.0845 C   0  0  0  0  0  0  0  0  0  0  0  0
   12.5311  -16.3286   13.9825 N   0  0  0  0  0  0  0  0  0  0  0  0
   12.1840  -14.9495   20.8468 C   0  0  0  0  0  0  0  0  0  0  0  0
   12.3411  -13.7288   21.1224 O   0  0  0  0  0  0  0  0  0  0  0  0
   11.0844  -15.5987   21.4447 N   0  0  0  0  0  0  0  0  0  0  0  0
   10.1535  -14.9925   22.3378 C   0  0  1  0  0  0  0  0  0  0  0  0
    8.7172  -15.1116   21.9467 C   0  0  0  0  0  0  0  0  0  0  0  0
    8.3940  -14.3614   20.7083 C   0  0  0  0  0  0  0  0  0  0  0  0
    9.1765  -13.6092   19.8641 C   0  0  0  0  0  0  0  0  0  0  0  0
    8.4434  -13.1069   18.8501 N   0  0  0  0  0  0  0  0  0  0  0  0
    7.1920  -13.5440   19.0549 C   0  0  0  0  0  0  0  0  0  0  0  0
    7.1423  -14.2983   20.1649 N   0  0  0  0  0  0  0  0  0  0  0  0
   10.2843  -15.5803   23.6884 C   0  0  0  0  0  0  0  0  0  0  0  0
   10.9816  -16.6136   23.8223 O   0  0  0  0  0  0  0  0  0  0  0  0
    9.6579  -15.0301   24.8534 N   0  0  0  0  0  0  0  0  0  0  0  0
    9.7855  -15.6552   26.1554 C   0  0  1  0  0  0  0  0  0  0  0  0
    9.0776  -14.7754   27.2093 C   0  0  0  0  0  0  0  0  0  0  0  0
    9.6174  -13.0575   27.0830 S   0  0  0  0  0  0  0  0  0  0  0  0
    9.2529  -17.0126   26.2331 C   0  0  0  0  0  0  0  0  0  0  0  0
    8.6312  -17.4807   25.2557 O   0  0  0  0  0  0  0  0  0  0  0  0
    9.4132  -17.8030   27.3549 O   0  0  0  0  0  0  0  0  0  0  0  0
  2  1  1  6
  2  3  1  0
  3  4  1  0
  5  4  1  0
  6  5  1  0
  7  6  1  0
  8  2  1  0
  8  9  2  0
 10  8  1  0
 11 10  1  0
 11 12  1  6
 13 14  2  0
 13 12  1  0
 15 14  1  0
 16 17  2  0
 16 15  1  0
 17 13  1  0
 18 11  1  0
 19 18  2  0
 20 18  1  0
 21 22  1  1
 21 20  1  0
 22 23  1  0
 24 21  1  0
 25 24  2  0
 26 24  1  0
M  END
$$$$
