IEI.pdb
     RDKit          3D

 26 25  0  0  1  0  0  0  0  0999 V2000
    7.5892  -11.7462   19.1721 C   0  0  0  0  0  0  0  0  0  0  0  0
    7.9414  -13.1975   18.9854 C   0  0  0  0  0  0  0  0  0  0  0  0
    7.9374  -13.9539   20.2981 C   0  0  2  0  0  0  0  0  0  0  0  0
    8.8840  -13.2227   21.2278 C   0  0  0  0  0  0  0  0  0  0  0  0
    8.3683  -15.3961   20.1000 C   0  0  2  0  0  0  0  0  0  0  0  0
    7.4032  -16.0665   19.2768 N   0  0  0  0  0  0  0  0  0  0  0  0
    8.3652  -16.0152   21.4701 C   0  0  0  0  0  0  0  0  0  0  0  0
    7.2778  -16.3100   22.0355 O   0  0  0  0  0  0  0  0  0  0  0  0
    9.5627  -16.2881   22.1699 N   0  0  0  0  0  0  0  0  0  0  0  0
    9.5934  -16.8929   23.5129 C   0  0  1  0  0  0  0  0  0  0  0  0
   10.6941  -17.9123   23.5506 C   0  0  0  0  0  0  0  0  0  0  0  0
   10.4341  -19.0443   22.6132 C   0  0  0  0  0  0  0  0  0  0  0  0
   11.5949  -20.0268   22.6970 C   0  0  0  0  0  0  0  0  0  0  0  0
   12.6586  -19.7243   22.1111 O   0  0  0  0  0  0  0  0  0  0  0  0
    9.8677  -15.8473   24.5332 C   0  0  0  0  0  0  0  0  0  0  0  0
   10.7801  -15.0176   24.2685 O   0  0  0  0  0  0  0  0  0  0  0  0
   11.4892  -21.2168   23.3944 O   0  0  0  0  0  0  0  0  0  0  0  0
    5.9813  -12.9198   26.5845 C   0  0  0  0  0  0  0  0  0  0  0  0
    7.2927  -13.4579   26.0643 C   0  0  0  0  0  0  0  0  0  0  0  0
    8.0801  -14.0250   27.2166 C   0  0  2  0  0  0  0  0  0  0  0  0
    8.4486  -12.7881   28.0594 C   0  0  0  0  0  0  0  0  0  0  0  0
    9.3510  -14.7348   26.7805 C   0  0  2  0  0  0  0  0  0  0  0  0
    9.1804  -15.7197   25.7600 N   0  0  0  0  0  0  0  0  0  0  0  0
   10.1712  -15.2493   27.8701 C   0  0  0  0  0  0  0  0  0  0  0  0
   10.0877  -16.4688   28.2036 O   0  0  0  0  0  0  0  0  0  0  0  0
   11.0743  -14.4939   28.6076 O   0  0  0  0  0  0  0  0  0  0  0  0
  2  3  1  0
  2  1  1  0
  3  4  1  1
  5  6  1  6
  5  3  1  0
  7  5  1  0
  8  7  2  0
  9  7  1  0
 10  9  1  0
 11 12  1  0
 10 11  1  6
 12 13  1  0
 13 14  2  0
 15 16  2  0
 15 10  1  0
 17 13  1  0
 18 19  1  0
 19 20  1  0
 20 22  1  0
 20 21  1  1
 22 23  1  6
 23 15  1  0
 24 22  1  0
 25 24  2  0
 26 24  1  0
M  END
$$$$
