IEI.pdb
     RDKit          3D

 26 25  0  0  1  0  0  0  0  0999 V2000
    7.0271  -11.9986   21.1210 C   0  0  0  0  0  0  0  0  0  0  0  0
    7.0600  -13.5026   21.0747 C   0  0  0  0  0  0  0  0  0  0  0  0
    8.2376  -14.0181   20.2728 C   0  0  2  0  0  0  0  0  0  0  0  0
    8.1349  -13.3967   18.8950 C   0  0  0  0  0  0  0  0  0  0  0  0
    8.2235  -15.5342   20.1930 C   0  0  2  0  0  0  0  0  0  0  0  0
    6.9489  -15.9673   19.6969 N   0  0  0  0  0  0  0  0  0  0  0  0
    8.3955  -16.0191   21.6056 C   0  0  0  0  0  0  0  0  0  0  0  0
    7.3972  -16.1388   22.3660 O   0  0  0  0  0  0  0  0  0  0  0  0
    9.6638  -16.3557   22.1314 N   0  0  0  0  0  0  0  0  0  0  0  0
    9.8554  -16.9229   23.4775 C   0  0  1  0  0  0  0  0  0  0  0  0
   11.1495  -17.6826   23.4939 C   0  0  0  0  0  0  0  0  0  0  0  0
   11.1529  -18.7941   22.4977 C   0  0  0  0  0  0  0  0  0  0  0  0
   12.5623  -19.3638   22.4037 C   0  0  0  0  0  0  0  0  0  0  0  0
   13.2754  -19.0003   21.4415 O   0  0  0  0  0  0  0  0  0  0  0  0
    9.9236  -15.8299   24.4827 C   0  0  0  0  0  0  0  0  0  0  0  0
   10.6793  -14.8560   24.2157 O   0  0  0  0  0  0  0  0  0  0  0  0
   13.0492  -20.2538   23.3440 O   0  0  0  0  0  0  0  0  0  0  0  0
    6.4318  -12.4559   26.2836 C   0  0  0  0  0  0  0  0  0  0  0  0
    7.7110  -13.1766   25.9314 C   0  0  0  0  0  0  0  0  0  0  0  0
    8.1131  -14.0531   27.0889 C   0  0  2  0  0  0  0  0  0  0  0  0
    8.4426  -13.0535   28.2151 C   0  0  0  0  0  0  0  0  0  0  0  0
    9.3369  -14.9051   26.7969 C   0  0  2  0  0  0  0  0  0  0  0  0
    9.2042  -15.8074   25.6975 N   0  0  0  0  0  0  0  0  0  0  0  0
    9.9078  -15.5773   27.9575 C   0  0  0  0  0  0  0  0  0  0  0  0
    9.5883  -16.7761   28.2149 O   0  0  0  0  0  0  0  0  0  0  0  0
   10.8078  -15.0005   28.8447 O   0  0  0  0  0  0  0  0  0  0  0  0
  2  3  1  0
  2  1  1  0
  3  4  1  6
  5  6  1  1
  5  3  1  0
  7  5  1  0
  8  7  2  0
  9  7  1  0
 10  9  1  0
 11 12  1  0
 10 11  1  6
 12 13  1  0
 13 14  2  0
 15 16  2  0
 15 10  1  0
 17 13  1  0
 18 19  1  0
 19 20  1  0
 20 22  1  0
 20 21  1  1
 22 23  1  6
 23 15  1  0
 24 22  1  0
 25 24  2  0
 26 24  1  0
M  END
$$$$
