TNI.pdb
     RDKit          3D

 24 23  0  0  1  0  0  0  0  0999 V2000
   17.9351  -33.4102  -11.8723 C   0  0  0  0  0  0  0  0  0  0  0  0
   18.2481  -33.6990  -10.4355 C   0  0  1  0  0  0  0  0  0  0  0  0
   17.7289  -34.9263  -10.0534 O   0  0  0  0  0  0  0  0  0  0  0  0
   19.7288  -33.6890  -10.1272 C   0  0  2  0  0  0  0  0  0  0  0  0
   20.4507  -34.7190  -10.8096 N   0  0  0  0  0  0  0  0  0  0  0  0
   19.9806  -33.7145   -8.6544 C   0  0  0  0  0  0  0  0  0  0  0  0
   19.4523  -32.8424   -7.9192 O   0  0  0  0  0  0  0  0  0  0  0  0
   19.4430  -34.6074   -3.5624 N   0  0  0  0  0  0  0  0  0  0  0  0
   20.1593  -35.4748   -4.4229 C   0  0  0  0  0  0  0  0  0  0  0  0
   20.8845  -36.3323   -3.8741 O   0  0  0  0  0  0  0  0  0  0  0  0
   20.0156  -35.3242   -5.8574 C   0  0  0  0  0  0  0  0  0  0  0  0
   21.0732  -34.6160   -6.6067 C   0  0  2  0  0  0  0  0  0  0  0  0
   20.8044  -34.7001   -8.0539 N   0  0  0  0  0  0  0  0  0  0  0  0
   22.4659  -34.9393   -6.3323 C   0  0  0  0  0  0  0  0  0  0  0  0
   22.9670  -35.9829   -6.8538 O   0  0  0  0  0  0  0  0  0  0  0  0
   25.4068  -31.6861   -8.5533 C   0  0  0  0  0  0  0  0  0  0  0  0
   25.0123  -32.8603   -7.7805 C   0  0  0  0  0  0  0  0  0  0  0  0
   25.3011  -33.0116   -6.3463 C   0  0  2  0  0  0  0  0  0  0  0  0
   26.7997  -32.7565   -6.1466 C   0  0  0  0  0  0  0  0  0  0  0  0
   24.8106  -34.1888   -5.6678 C   0  0  2  0  0  0  0  0  0  0  0  0
   23.3420  -34.2108   -5.5419 N   0  0  0  0  0  0  0  0  0  0  0  0
   25.3384  -34.6465   -4.4029 C   0  0  0  0  0  0  0  0  0  0  0  0
   26.3425  -35.4580   -4.4091 O   0  0  0  0  0  0  0  0  0  0  0  0
   24.9316  -34.3416   -3.1237 O   0  0  0  0  0  0  0  0  0  0  0  0
  2  3  1  0
  2  1  1  6
  4  2  1  0
  4  5  1  6
  6  7  2  0
  6  4  1  0
  9  8  1  0
  9 11  1  0
 10  9  2  0
 12 11  1  1
 12 13  1  0
 13  6  1  0
 14 12  1  0
 15 14  2  0
 17 16  1  0
 18 17  1  0
 18 20  1  0
 18 19  1  6
 20 22  1  0
 20 21  1  1
 21 14  1  0
 22 24  1  0
 23 22  2  0
M  END
$$$$
