TNI.pdb
     RDKit          3D

 24 23  0  0  1  0  0  0  0  0999 V2000
   18.9226  -13.6843  -16.1067 C   0  0  0  0  0  0  0  0  0  0  0  0
   19.4564  -14.2246  -17.3987 C   0  0  1  0  0  0  0  0  0  0  0  0
   19.1885  -15.5797  -17.5161 O   0  0  0  0  0  0  0  0  0  0  0  0
   18.9070  -13.5207  -18.6194 C   0  0  2  0  0  0  0  0  0  0  0  0
   19.2873  -14.1489  -19.8476 N   0  0  0  0  0  0  0  0  0  0  0  0
   19.2459  -12.0653  -18.6099 C   0  0  0  0  0  0  0  0  0  0  0  0
   20.4119  -11.6976  -18.9021 O   0  0  0  0  0  0  0  0  0  0  0  0
   18.9852   -6.8291  -18.1136 N   0  0  0  0  0  0  0  0  0  0  0  0
   17.8349   -7.3626  -18.7446 C   0  0  0  0  0  0  0  0  0  0  0  0
   17.0348   -6.5380  -19.2368 O   0  0  0  0  0  0  0  0  0  0  0  0
   17.6530   -8.8002  -18.7837 C   0  0  0  0  0  0  0  0  0  0  0  0
   18.7091   -9.6654  -18.2204 C   0  0  2  0  0  0  0  0  0  0  0  0
   18.2854  -11.0763  -18.2785 N   0  0  0  0  0  0  0  0  0  0  0  0
   19.2457   -9.3532  -16.9036 C   0  0  0  0  0  0  0  0  0  0  0  0
   18.5350   -9.5939  -15.8794 O   0  0  0  0  0  0  0  0  0  0  0  0
   23.5519  -11.4906  -15.0919 C   0  0  0  0  0  0  0  0  0  0  0  0
   22.3445  -10.6931  -15.2865 C   0  0  0  0  0  0  0  0  0  0  0  0
   22.2949   -9.2417  -15.0535 C   0  0  2  0  0  0  0  0  0  0  0  0
   22.9063   -8.9734  -13.6733 C   0  0  0  0  0  0  0  0  0  0  0  0
   21.0477   -8.5513  -15.2872 C   0  0  2  0  0  0  0  0  0  0  0  0
   20.4903   -8.8073  -16.6278 N   0  0  0  0  0  0  0  0  0  0  0  0
   20.8676   -7.1409  -15.0297 C   0  0  0  0  0  0  0  0  0  0  0  0
   21.1244   -6.3017  -15.9767 O   0  0  0  0  0  0  0  0  0  0  0  0
   20.4401   -6.5085  -13.8843 O   0  0  0  0  0  0  0  0  0  0  0  0
  2  3  1  0
  2  1  1  1
  4  2  1  0
  4  5  1  6
  6  7  2  0
  6  4  1  0
  9  8  1  0
  9 11  1  0
 10  9  2  0
 12 11  1  1
 12 13  1  0
 13  6  1  0
 14 12  1  0
 15 14  2  0
 17 16  1  0
 18 17  1  0
 18 20  1  0
 18 19  1  1
 20 22  1  0
 20 21  1  6
 21 14  1  0
 22 24  1  0
 23 22  2  0
M  END
$$$$
