TNI.pdb
     RDKit          3D

 24 23  0  0  1  0  0  0  0  0999 V2000
  -10.9376   38.0764    9.0796 C   0  0  0  0  0  0  0  0  0  0  0  0
  -12.2179   37.4332    8.6402 C   0  0  1  0  0  0  0  0  0  0  0  0
  -13.2922   38.2882    8.8324 O   0  0  0  0  0  0  0  0  0  0  0  0
  -12.2072   36.9962    7.1923 C   0  0  2  0  0  0  0  0  0  0  0  0
  -12.2439   35.5743    7.0354 N   0  0  0  0  0  0  0  0  0  0  0  0
  -11.0682   37.6099    6.4446 C   0  0  0  0  0  0  0  0  0  0  0  0
  -11.2965   38.5003    5.5872 O   0  0  0  0  0  0  0  0  0  0  0  0
  -10.3652   35.6428    3.2310 N   0  0  0  0  0  0  0  0  0  0  0  0
  -10.5699   34.8183    4.3643 C   0  0  0  0  0  0  0  0  0  0  0  0
  -11.4186   33.9081    4.2467 O   0  0  0  0  0  0  0  0  0  0  0  0
   -9.8029   35.0690    5.5684 C   0  0  0  0  0  0  0  0  0  0  0  0
   -9.0635   36.3420    5.6874 C   0  0  2  0  0  0  0  0  0  0  0  0
   -9.7253   37.2160    6.6732 N   0  0  0  0  0  0  0  0  0  0  0  0
   -8.7526   37.0901    4.4779 C   0  0  0  0  0  0  0  0  0  0  0  0
   -9.5665   37.9804    4.0817 O   0  0  0  0  0  0  0  0  0  0  0  0
   -7.3668   34.3745   -0.0386 C   0  0  0  0  0  0  0  0  0  0  0  0
   -7.8485   35.7440    0.1163 C   0  0  0  0  0  0  0  0  0  0  0  0
   -8.2466   36.3131    1.4128 C   0  0  2  0  0  0  0  0  0  0  0  0
   -8.4481   37.8201    1.2145 C   0  0  0  0  0  0  0  0  0  0  0  0
   -7.4660   35.9740    2.5800 C   0  0  2  0  0  0  0  0  0  0  0  0
   -7.6272   36.9406    3.6813 N   0  0  0  0  0  0  0  0  0  0  0  0
   -6.0590   35.6503    2.5201 C   0  0  0  0  0  0  0  0  0  0  0  0
   -5.2646   36.4575    1.9002 O   0  0  0  0  0  0  0  0  0  0  0  0
   -5.3868   34.5703    3.0460 O   0  0  0  0  0  0  0  0  0  0  0  0
  2  3  1  0
  2  1  1  6
  4  2  1  0
  4  5  1  1
  6  7  2  0
  6  4  1  0
  9  8  1  0
  9 11  1  0
 10  9  2  0
 12 11  1  6
 12 13  1  0
 13  6  1  0
 14 12  1  0
 15 14  2  0
 17 16  1  0
 18 17  1  0
 18 20  1  0
 18 19  1  6
 20 22  1  0
 20 21  1  1
 21 14  1  0
 22 24  1  0
 23 22  2  0
M  END
$$$$
