TNI.pdb
     RDKit          3D

 24 23  0  0  1  0  0  0  0  0999 V2000
   14.6901  -14.9298  -15.5901 C   0  0  0  0  0  0  0  0  0  0  0  0
   15.2255  -13.7325  -16.3151 C   0  0  1  0  0  0  0  0  0  0  0  0
   14.6220  -13.5951  -17.5557 O   0  0  0  0  0  0  0  0  0  0  0  0
   15.0513  -12.4381  -15.5523 C   0  0  2  0  0  0  0  0  0  0  0  0
   13.6794  -12.1037  -15.3211 N   0  0  0  0  0  0  0  0  0  0  0  0
   15.7963  -11.3169  -16.2012 C   0  0  0  0  0  0  0  0  0  0  0  0
   15.5422  -11.0110  -17.3936 O   0  0  0  0  0  0  0  0  0  0  0  0
   16.3451   -6.8541  -18.4346 N   0  0  0  0  0  0  0  0  0  0  0  0
   16.6166   -7.1599  -17.0785 C   0  0  0  0  0  0  0  0  0  0  0  0
   17.1485   -6.2564  -16.3980 O   0  0  0  0  0  0  0  0  0  0  0  0
   16.2713   -8.4715  -16.5671 C   0  0  0  0  0  0  0  0  0  0  0  0
   17.3584   -9.3788  -16.1468 C   0  0  2  0  0  0  0  0  0  0  0  0
   16.7901  -10.5801  -15.5084 N   0  0  0  0  0  0  0  0  0  0  0  0
   18.4468   -8.8455  -15.3404 C   0  0  0  0  0  0  0  0  0  0  0  0
   18.2784   -8.7228  -14.0879 O   0  0  0  0  0  0  0  0  0  0  0  0
   22.7336  -11.3861  -14.6514 C   0  0  0  0  0  0  0  0  0  0  0  0
   21.6937  -10.3615  -14.6324 C   0  0  0  0  0  0  0  0  0  0  0  0
   21.9385   -8.9621  -15.0129 C   0  0  2  0  0  0  0  0  0  0  0  0
   23.1873   -8.4892  -14.2595 C   0  0  0  0  0  0  0  0  0  0  0  0
   20.8337   -8.0329  -14.9593 C   0  0  2  0  0  0  0  0  0  0  0  0
   19.6933   -8.4452  -15.7977 N   0  0  0  0  0  0  0  0  0  0  0  0
   20.9914   -6.6094  -15.1513 C   0  0  0  0  0  0  0  0  0  0  0  0
   20.7039   -6.1054  -16.3046 O   0  0  0  0  0  0  0  0  0  0  0  0
   21.4144   -5.6484  -14.2611 O   0  0  0  0  0  0  0  0  0  0  0  0
  2  3  1  0
  2  1  1  1
  4  2  1  0
  4  5  1  6
  6  7  2  0
  6  4  1  0
  9  8  1  0
  9 11  1  0
 10  9  2  0
 12 11  1  1
 12 13  1  0
 13  6  1  0
 14 12  1  0
 15 14  2  0
 17 16  1  0
 18 17  1  0
 18 20  1  0
 18 19  1  1
 20 22  1  0
 20 21  1  6
 21 14  1  0
 22 24  1  0
 23 22  2  0
M  END
$$$$
