TNI.pdb
     RDKit          3D

 24 23  0  0  1  0  0  0  0  0999 V2000
   28.0101  -21.6455  -16.3396 C   0  0  0  0  0  0  0  0  0  0  0  0
   28.5920  -20.4441  -17.0210 C   0  0  1  0  0  0  0  0  0  0  0  0
   29.5897  -20.8145  -17.9094 O   0  0  0  0  0  0  0  0  0  0  0  0
   27.5676  -19.6197  -17.7683 C   0  0  2  0  0  0  0  0  0  0  0  0
   28.1449  -18.5257  -18.4876 N   0  0  0  0  0  0  0  0  0  0  0  0
   26.4628  -19.1726  -16.8669 C   0  0  0  0  0  0  0  0  0  0  0  0
   26.6562  -18.2152  -16.0758 O   0  0  0  0  0  0  0  0  0  0  0  0
   21.1274  -17.3439  -16.1939 N   0  0  0  0  0  0  0  0  0  0  0  0
   21.7457  -18.5932  -15.9426 C   0  0  0  0  0  0  0  0  0  0  0  0
   21.2107  -19.3165  -15.0748 O   0  0  0  0  0  0  0  0  0  0  0  0
   22.9357  -18.9551  -16.6869 C   0  0  0  0  0  0  0  0  0  0  0  0
   24.1565  -19.3212  -15.9404 C   0  0  2  0  0  0  0  0  0  0  0  0
   25.1911  -19.8000  -16.8753 N   0  0  0  0  0  0  0  0  0  0  0  0
   24.0421  -20.2274  -14.8068 C   0  0  0  0  0  0  0  0  0  0  0  0
   23.9655  -21.4758  -15.0254 O   0  0  0  0  0  0  0  0  0  0  0  0
   27.5079  -20.5707  -10.9416 C   0  0  0  0  0  0  0  0  0  0  0  0
   26.3565  -20.7855  -11.8132 C   0  0  0  0  0  0  0  0  0  0  0  0
   24.9661  -20.6286  -11.3599 C   0  0  2  0  0  0  0  0  0  0  0  0
   24.7953  -21.4716  -10.0906 C   0  0  0  0  0  0  0  0  0  0  0  0
   23.9058  -20.8004  -12.3257 C   0  0  2  0  0  0  0  0  0  0  0  0
   24.0102  -19.8726  -13.4665 N   0  0  0  0  0  0  0  0  0  0  0  0
   22.5082  -20.8479  -11.9613 C   0  0  0  0  0  0  0  0  0  0  0  0
   21.8475  -19.7405  -11.8987 O   0  0  0  0  0  0  0  0  0  0  0  0
   21.7198  -21.9349  -11.6587 O   0  0  0  0  0  0  0  0  0  0  0  0
  2  3  1  0
  2  1  1  6
  4  2  1  0
  4  5  1  1
  6  7  2  0
  6  4  1  0
  9  8  1  0
  9 11  1  0
 10  9  2  0
 12 11  1  6
 12 13  1  0
 13  6  1  0
 14 12  1  0
 15 14  2  0
 17 16  1  0
 18 17  1  0
 18 20  1  0
 18 19  1  1
 20 22  1  0
 20 21  1  6
 21 14  1  0
 22 24  1  0
 23 22  2  0
M  END
$$$$
