TNI.pdb
     RDKit          3D

 24 23  0  0  1  0  0  0  0  0999 V2000
   15.4852   -7.7673  -15.1350 C   0  0  0  0  0  0  0  0  0  0  0  0
   15.7846   -9.0000  -15.9331 C   0  0  1  0  0  0  0  0  0  0  0  0
   14.6322   -9.7386  -16.1529 O   0  0  0  0  0  0  0  0  0  0  0  0
   16.4299   -8.7107  -17.2700 C   0  0  2  0  0  0  0  0  0  0  0  0
   16.6349   -9.8862  -18.0598 N   0  0  0  0  0  0  0  0  0  0  0  0
   17.6882   -7.9206  -17.1101 C   0  0  0  0  0  0  0  0  0  0  0  0
   18.7874   -8.5199  -16.9982 O   0  0  0  0  0  0  0  0  0  0  0  0
   18.9243   -5.3257  -19.7520 N   0  0  0  0  0  0  0  0  0  0  0  0
   18.8060   -4.2068  -18.8917 C   0  0  0  0  0  0  0  0  0  0  0  0
   18.6839   -3.0906  -19.4408 O   0  0  0  0  0  0  0  0  0  0  0  0
   18.8326   -4.4126  -17.4570 C   0  0  0  0  0  0  0  0  0  0  0  0
   18.9644   -5.7895  -16.9392 C   0  0  2  0  0  0  0  0  0  0  0  0
   17.6819   -6.5029  -17.0800 N   0  0  0  0  0  0  0  0  0  0  0  0
   19.5095   -5.9894  -15.6043 C   0  0  0  0  0  0  0  0  0  0  0  0
   18.7383   -5.8679  -14.6029 O   0  0  0  0  0  0  0  0  0  0  0  0
   22.7290   -9.8611  -12.3103 C   0  0  0  0  0  0  0  0  0  0  0  0
   22.3016   -8.4853  -12.5474 C   0  0  0  0  0  0  0  0  0  0  0  0
   21.7849   -8.0172  -13.8425 C   0  0  2  0  0  0  0  0  0  0  0  0
   22.7996   -8.4207  -14.9188 C   0  0  0  0  0  0  0  0  0  0  0  0
   21.3314   -6.6496  -13.9467 C   0  0  2  0  0  0  0  0  0  0  0  0
   20.8203   -6.3131  -15.2879 N   0  0  0  0  0  0  0  0  0  0  0  0
   22.1241   -5.5215  -13.5141 C   0  0  0  0  0  0  0  0  0  0  0  0
   22.4553   -5.4398  -12.2689 O   0  0  0  0  0  0  0  0  0  0  0  0
   22.6162   -4.4657  -14.2475 O   0  0  0  0  0  0  0  0  0  0  0  0
  2  3  1  0
  2  1  1  6
  4  2  1  0
  4  5  1  1
  6  7  2  0
  6  4  1  0
  9  8  1  0
  9 11  1  0
 10  9  2  0
 12 11  1  1
 12 13  1  0
 13  6  1  0
 14 12  1  0
 15 14  2  0
 17 16  1  0
 18 17  1  0
 18 20  1  0
 18 19  1  6
 20 22  1  0
 20 21  1  6
 21 14  1  0
 22 24  1  0
 23 22  2  0
M  END
$$$$
