TNI.pdb
     RDKit          3D

 24 23  0  0  1  0  0  0  0  0999 V2000
   16.0398  -16.0047  -16.9720 C   0  0  0  0  0  0  0  0  0  0  0  0
   16.3990  -14.5968  -17.3389 C   0  0  1  0  0  0  0  0  0  0  0  0
   15.2666  -13.8669  -17.6660 O   0  0  0  0  0  0  0  0  0  0  0  0
   17.1440  -13.8607  -16.2477 C   0  0  2  0  0  0  0  0  0  0  0  0
   16.4248  -13.8129  -15.0116 N   0  0  0  0  0  0  0  0  0  0  0  0
   17.5690  -12.5006  -16.6978 C   0  0  0  0  0  0  0  0  0  0  0  0
   18.3175  -12.3845  -17.7010 O   0  0  0  0  0  0  0  0  0  0  0  0
   17.8683   -7.3056  -17.3904 N   0  0  0  0  0  0  0  0  0  0  0  0
   16.5740   -7.8790  -17.4357 C   0  0  0  0  0  0  0  0  0  0  0  0
   15.6565   -7.1525  -17.8750 O   0  0  0  0  0  0  0  0  0  0  0  0
   16.3890   -9.2429  -16.9812 C   0  0  0  0  0  0  0  0  0  0  0  0
   17.5723  -10.0150  -16.5512 C   0  0  2  0  0  0  0  0  0  0  0  0
   17.1511  -11.3255  -16.0231 N   0  0  0  0  0  0  0  0  0  0  0  0
   18.5291   -9.3909  -15.6488 C   0  0  0  0  0  0  0  0  0  0  0  0
   18.2404   -9.3021  -14.4155 O   0  0  0  0  0  0  0  0  0  0  0  0
   22.9820  -11.6667  -14.8843 C   0  0  0  0  0  0  0  0  0  0  0  0
   21.8590  -10.7340  -14.8583 C   0  0  0  0  0  0  0  0  0  0  0  0
   22.0029   -9.2964  -15.1334 C   0  0  2  0  0  0  0  0  0  0  0  0
   23.1897   -8.7839  -14.3088 C   0  0  0  0  0  0  0  0  0  0  0  0
   20.8273   -8.4609  -15.0519 C   0  0  2  0  0  0  0  0  0  0  0  0
   19.7663   -8.8667  -15.9916 N   0  0  0  0  0  0  0  0  0  0  0  0
   20.8821   -7.0175  -15.0924 C   0  0  0  0  0  0  0  0  0  0  0  0
   20.6605   -6.4216  -16.2161 O   0  0  0  0  0  0  0  0  0  0  0  0
   21.1394   -6.1232  -14.0780 O   0  0  0  0  0  0  0  0  0  0  0  0
  2  3  1  0
  2  1  1  1
  4  2  1  0
  4  5  1  1
  6  7  2  0
  6  4  1  0
  9  8  1  0
  9 11  1  0
 10  9  2  0
 12 11  1  1
 12 13  1  0
 13  6  1  0
 14 12  1  0
 15 14  2  0
 17 16  1  0
 18 17  1  0
 18 20  1  0
 18 19  1  1
 20 22  1  0
 20 21  1  6
 21 14  1  0
 22 24  1  0
 23 22  2  0
M  END
$$$$
