GSK.pdb
     RDKit          3D

 20 19  0  0  1  0  0  0  0  0999 V2000
   16.5769  -12.2469  -12.7397 N   0  0  0  0  0  0  0  0  0  0  0  0
   16.1342  -10.8940  -13.0076 C   0  0  0  0  0  0  0  0  0  0  0  0
   16.5830  -10.0132  -11.9217 C   0  0  0  0  0  0  0  0  0  0  0  0
   17.4556  -10.4070  -11.1271 O   0  0  0  0  0  0  0  0  0  0  0  0
   18.0802   -6.6822  -12.1913 O   0  0  0  0  0  0  0  0  0  0  0  0
   18.1010   -7.5091  -11.0777 C   0  0  0  0  0  0  0  0  0  0  0  0
   16.6545   -7.8505  -10.6916 C   0  0  2  0  0  0  0  0  0  0  0  0
   16.0727   -8.7008  -11.7097 N   0  0  0  0  0  0  0  0  0  0  0  0
   15.8649   -6.6097  -10.4935 C   0  0  0  0  0  0  0  0  0  0  0  0
   15.3873   -5.9534  -11.4471 O   0  0  0  0  0  0  0  0  0  0  0  0
   15.6228   -6.1194   -9.1851 N   0  0  0  0  0  0  0  0  0  0  0  0
   14.8189   -4.9171   -8.9561 C   0  0  1  0  0  0  0  0  0  0  0  0
   14.2080   -5.0471   -7.6018 C   0  0  0  0  0  0  0  0  0  0  0  0
   13.2707   -3.9210   -7.2466 C   0  0  0  0  0  0  0  0  0  0  0  0
   12.8494   -4.1699   -5.8028 C   0  0  0  0  0  0  0  0  0  0  0  0
   11.9576   -3.0602   -5.2950 C   0  0  0  0  0  0  0  0  0  0  0  0
   11.6760   -3.3202   -3.9051 N   0  0  0  0  0  0  0  0  0  0  0  0
   15.5889   -3.6996   -9.1936 C   0  0  0  0  0  0  0  0  0  0  0  0
   14.9491   -2.5234   -9.6164 O   0  0  0  0  0  0  0  0  0  0  0  0
   16.8272   -3.6294   -9.0403 O   0  0  0  0  0  0  0  0  0  0  0  0
  1  2  1  0
  3  4  2  0
  3  2  1  0
  5  6  1  0
  7  6  1  6
  7  8  1  0
  8  3  1  0
  9 11  1  0
  9  7  1  0
 10  9  2  0
 12 11  1  0
 12 13  1  1
 13 14  1  0
 14 15  1  0
 15 16  1  0
 16 17  1  0
 18 12  1  0
 19 18  1  0
 20 18  2  0
M  END
$$$$
