GSK.pdb
     RDKit          3D

 20 19  0  0  1  0  0  0  0  0999 V2000
   26.1317  -18.7610  -16.5943 N   0  0  0  0  0  0  0  0  0  0  0  0
   26.3206  -17.5026  -17.2862 C   0  0  0  0  0  0  0  0  0  0  0  0
   25.6865  -16.4257  -16.5152 C   0  0  0  0  0  0  0  0  0  0  0  0
   24.9314  -16.7064  -15.5670 O   0  0  0  0  0  0  0  0  0  0  0  0
   26.6670  -12.3786  -16.8109 O   0  0  0  0  0  0  0  0  0  0  0  0
   26.1231  -12.9020  -15.6471 C   0  0  0  0  0  0  0  0  0  0  0  0
   25.1653  -14.0424  -16.0213 C   0  0  2  0  0  0  0  0  0  0  0  0
   25.8825  -15.0415  -16.7864 N   0  0  0  0  0  0  0  0  0  0  0  0
   23.9962  -13.5130  -16.7664 C   0  0  0  0  0  0  0  0  0  0  0  0
   23.9869  -13.3941  -18.0130 O   0  0  0  0  0  0  0  0  0  0  0  0
   22.8262  -13.1165  -16.0700 N   0  0  0  0  0  0  0  0  0  0  0  0
   21.6348  -12.6491  -16.7815 C   0  0  1  0  0  0  0  0  0  0  0  0
   20.4489  -13.0915  -15.9926 C   0  0  0  0  0  0  0  0  0  0  0  0
   19.1300  -12.8032  -16.6636 C   0  0  0  0  0  0  0  0  0  0  0  0
   18.0653  -13.4468  -15.7826 C   0  0  0  0  0  0  0  0  0  0  0  0
   16.6923  -13.3155  -16.4007 C   0  0  0  0  0  0  0  0  0  0  0  0
   15.7903  -14.1602  -15.6581 N   0  0  0  0  0  0  0  0  0  0  0  0
   21.7075  -11.2210  -17.0758 C   0  0  0  0  0  0  0  0  0  0  0  0
   20.9488  -10.6696  -18.1208 O   0  0  0  0  0  0  0  0  0  0  0  0
   22.4270  -10.4237  -16.4364 O   0  0  0  0  0  0  0  0  0  0  0  0
  1  2  1  0
  3  4  2  0
  3  2  1  0
  5  6  1  0
  7  6  1  6
  7  8  1  0
  8  3  1  0
  9 11  1  0
  9  7  1  0
 10  9  2  0
 12 11  1  0
 12 13  1  1
 13 14  1  0
 14 15  1  0
 15 16  1  0
 16 17  1  0
 18 12  1  0
 19 18  1  0
 20 18  2  0
M  END
$$$$
