GSK.pdb
     RDKit          3D

 20 19  0  0  1  0  0  0  0  0999 V2000
   20.2537  -12.9040  -16.3886 N   0  0  0  0  0  0  0  0  0  0  0  0
   19.6878  -12.1832  -17.5103 C   0  0  0  0  0  0  0  0  0  0  0  0
   19.5640  -10.7624  -17.1606 C   0  0  0  0  0  0  0  0  0  0  0  0
   19.6815   -9.8956  -18.0454 O   0  0  0  0  0  0  0  0  0  0  0  0
   18.5056   -9.3598  -13.3386 O   0  0  0  0  0  0  0  0  0  0  0  0
   18.0156   -8.7431  -14.4805 C   0  0  0  0  0  0  0  0  0  0  0  0
   19.0537   -8.8895  -15.6025 C   0  0  2  0  0  0  0  0  0  0  0  0
   19.3111  -10.2951  -15.8394 N   0  0  0  0  0  0  0  0  0  0  0  0
   20.2952   -8.1529  -15.2584 C   0  0  0  0  0  0  0  0  0  0  0  0
   21.2227   -8.6663  -14.5918 O   0  0  0  0  0  0  0  0  0  0  0  0
   20.4710   -6.8123  -15.6857 N   0  0  0  0  0  0  0  0  0  0  0  0
   21.6852   -6.0602  -15.3630 C   0  0  1  0  0  0  0  0  0  0  0  0
   21.8561   -5.0241  -16.4221 C   0  0  0  0  0  0  0  0  0  0  0  0
   23.0724   -4.1540  -16.2312 C   0  0  0  0  0  0  0  0  0  0  0  0
   23.0283   -3.1247  -17.3548 C   0  0  0  0  0  0  0  0  0  0  0  0
   24.2260   -2.2043  -17.2999 C   0  0  0  0  0  0  0  0  0  0  0  0
   24.1934   -1.3656  -18.4720 N   0  0  0  0  0  0  0  0  0  0  0  0
   21.6666   -5.5691  -13.9883 C   0  0  0  0  0  0  0  0  0  0  0  0
   20.4513   -5.4244  -13.3000 O   0  0  0  0  0  0  0  0  0  0  0  0
   22.6988   -5.2561  -13.3568 O   0  0  0  0  0  0  0  0  0  0  0  0
  1  2  1  0
  3  4  2  0
  3  2  1  0
  5  6  1  0
  7  6  1  1
  7  8  1  0
  8  3  1  0
  9 11  1  0
  9  7  1  0
 10  9  2  0
 12 11  1  0
 12 13  1  6
 13 14  1  0
 14 15  1  0
 15 16  1  0
 16 17  1  0
 18 12  1  0
 19 18  1  0
 20 18  2  0
M  END
$$$$
