GSK.pdb
     RDKit          3D

 20 19  0  0  1  0  0  0  0  0999 V2000
   15.2361  -11.0459  -14.8546 N   0  0  0  0  0  0  0  0  0  0  0  0
   16.6764  -10.8923  -14.8591 C   0  0  0  0  0  0  0  0  0  0  0  0
   17.0921  -10.1854  -13.6410 C   0  0  0  0  0  0  0  0  0  0  0  0
   16.6493  -10.5459  -12.5356 O   0  0  0  0  0  0  0  0  0  0  0  0
   19.2012   -6.5922  -13.6204 O   0  0  0  0  0  0  0  0  0  0  0  0
   19.5405   -7.4972  -12.6253 C   0  0  0  0  0  0  0  0  0  0  0  0
   18.3507   -8.4393  -12.3909 C   0  0  2  0  0  0  0  0  0  0  0  0
   17.9939   -9.0833  -13.6383 N   0  0  0  0  0  0  0  0  0  0  0  0
   17.2068   -7.6939  -11.8094 C   0  0  0  0  0  0  0  0  0  0  0  0
   16.3395   -7.1296  -12.5147 O   0  0  0  0  0  0  0  0  0  0  0  0
   17.0598   -7.5969  -10.4023 N   0  0  0  0  0  0  0  0  0  0  0  0
   15.9588   -6.8432   -9.7991 C   0  0  1  0  0  0  0  0  0  0  0  0
   14.9821   -7.8382   -9.2694 C   0  0  0  0  0  0  0  0  0  0  0  0
   13.7663   -7.2165   -8.6306 C   0  0  0  0  0  0  0  0  0  0  0  0
   12.8737   -8.3801   -8.2146 C   0  0  0  0  0  0  0  0  0  0  0  0
   11.5392   -7.8890   -7.7022 C   0  0  0  0  0  0  0  0  0  0  0  0
   10.7015   -9.0403   -7.4759 N   0  0  0  0  0  0  0  0  0  0  0  0
   16.4431   -5.8536   -8.8412 C   0  0  0  0  0  0  0  0  0  0  0  0
   15.6996   -4.6913   -8.5805 O   0  0  0  0  0  0  0  0  0  0  0  0
   17.5164   -5.9745   -8.2124 O   0  0  0  0  0  0  0  0  0  0  0  0
  1  2  1  0
  3  4  2  0
  3  2  1  0
  5  6  1  0
  7  6  1  6
  7  8  1  0
  8  3  1  0
  9 11  1  0
  9  7  1  0
 10  9  2  0
 12 11  1  0
 12 13  1  1
 13 14  1  0
 14 15  1  0
 15 16  1  0
 16 17  1  0
 18 12  1  0
 19 18  1  0
 20 18  2  0
M  END
$$$$
