GSK.pdb
     RDKit          3D

 20 19  0  0  1  0  0  0  0  0999 V2000
   15.9783  -12.2088  -14.3865 N   0  0  0  0  0  0  0  0  0  0  0  0
   16.2715  -11.3183  -15.4907 C   0  0  0  0  0  0  0  0  0  0  0  0
   17.0892  -10.1989  -15.0065 C   0  0  0  0  0  0  0  0  0  0  0  0
   16.7274   -9.5577  -14.0035 O   0  0  0  0  0  0  0  0  0  0  0  0
   20.3495   -8.7384  -17.1251 O   0  0  0  0  0  0  0  0  0  0  0  0
   20.3768   -8.5128  -15.7567 C   0  0  0  0  0  0  0  0  0  0  0  0
   18.9368   -8.5451  -15.2242 C   0  0  2  0  0  0  0  0  0  0  0  0
   18.3035   -9.7848  -15.6245 N   0  0  0  0  0  0  0  0  0  0  0  0
   18.1810   -7.3612  -15.7031 C   0  0  0  0  0  0  0  0  0  0  0  0
   17.3782   -7.4150  -16.6626 O   0  0  0  0  0  0  0  0  0  0  0  0
   18.3510   -6.1030  -15.0715 N   0  0  0  0  0  0  0  0  0  0  0  0
   17.7018   -4.8956  -15.5862 C   0  0  1  0  0  0  0  0  0  0  0  0
   16.2933   -4.9098  -15.0960 C   0  0  0  0  0  0  0  0  0  0  0  0
   15.5121   -3.6711  -15.4543 C   0  0  0  0  0  0  0  0  0  0  0  0
   14.1290   -3.8596  -14.8415 C   0  0  0  0  0  0  0  0  0  0  0  0
   13.2314   -2.6824  -15.1466 C   0  0  0  0  0  0  0  0  0  0  0  0
   11.9335   -2.9581  -14.5824 N   0  0  0  0  0  0  0  0  0  0  0  0
   18.4722   -3.6947  -15.2764 C   0  0  0  0  0  0  0  0  0  0  0  0
   18.1540   -2.4685  -15.8820 O   0  0  0  0  0  0  0  0  0  0  0  0
   19.4335   -3.6825  -14.4778 O   0  0  0  0  0  0  0  0  0  0  0  0
  1  2  1  0
  3  4  2  0
  3  2  1  0
  5  6  1  0
  7  6  1  6
  7  8  1  0
  8  3  1  0
  9 11  1  0
  9  7  1  0
 10  9  2  0
 12 11  1  0
 12 13  1  1
 13 14  1  0
 14 15  1  0
 15 16  1  0
 16 17  1  0
 18 12  1  0
 19 18  1  0
 20 18  2  0
M  END
$$$$
