GSK.pdb
     RDKit          3D

 20 19  0  0  1  0  0  0  0  0999 V2000
   17.6928  -10.3227  -15.4319 N   0  0  0  0  0  0  0  0  0  0  0  0
   17.7013   -9.6601  -14.1439 C   0  0  0  0  0  0  0  0  0  0  0  0
   19.0422   -9.1204  -13.8853 C   0  0  0  0  0  0  0  0  0  0  0  0
   19.2732   -8.5238  -12.8182 O   0  0  0  0  0  0  0  0  0  0  0  0
   22.4199   -9.8410  -16.2805 O   0  0  0  0  0  0  0  0  0  0  0  0
   22.5272   -9.6434  -14.9116 C   0  0  0  0  0  0  0  0  0  0  0  0
   21.4214   -8.6755  -14.4663 C   0  0  2  0  0  0  0  0  0  0  0  0
   20.1281   -9.2365  -14.7993 N   0  0  0  0  0  0  0  0  0  0  0  0
   21.6194   -7.3422  -15.0872 C   0  0  0  0  0  0  0  0  0  0  0  0
   22.6313   -6.6381  -14.8675 O   0  0  0  0  0  0  0  0  0  0  0  0
   20.6430   -6.8143  -15.9698 N   0  0  0  0  0  0  0  0  0  0  0  0
   20.8142   -5.5058  -16.6044 C   0  0  1  0  0  0  0  0  0  0  0  0
   20.4396   -5.6600  -18.0397 C   0  0  0  0  0  0  0  0  0  0  0  0
   21.5133   -6.2993  -18.8832 C   0  0  0  0  0  0  0  0  0  0  0  0
   20.8408   -7.4648  -19.5997 C   0  0  0  0  0  0  0  0  0  0  0  0
   21.8311   -8.2292  -20.4480 C   0  0  0  0  0  0  0  0  0  0  0  0
   21.1385   -9.3489  -21.0355 N   0  0  0  0  0  0  0  0  0  0  0  0
   20.1132   -4.4550  -15.8723 C   0  0  0  0  0  0  0  0  0  0  0  0
   18.7544   -4.5976  -15.5483 O   0  0  0  0  0  0  0  0  0  0  0  0
   20.6609   -3.3953  -15.4994 O   0  0  0  0  0  0  0  0  0  0  0  0
  1  2  1  0
  3  4  2  0
  3  2  1  0
  5  6  1  0
  7  6  1  6
  7  8  1  0
  8  3  1  0
  9 11  1  0
  9  7  1  0
 10  9  2  0
 12 11  1  0
 12 13  1  6
 13 14  1  0
 14 15  1  0
 15 16  1  0
 16 17  1  0
 18 12  1  0
 19 18  1  0
 20 18  2  0
M  END
$$$$
