EWN.pdb
     RDKit          3D

 32 33  0  0  1  0  0  0  0  0999 V2000
    9.4084  -17.2868   20.4405 N   0  0  0  0  0  0  0  0  0  0  0  0
   10.7368  -17.2997   20.9567 C   0  0  1  0  0  0  0  0  0  0  0  0
   11.7019  -16.5849   20.0882 C   0  0  0  0  0  0  0  0  0  0  0  0
   11.8709  -17.0995   18.7001 C   0  0  0  0  0  0  0  0  0  0  0  0
   12.8630  -16.4375   17.8685 C   0  0  0  0  0  0  0  0  0  0  0  0
   13.9441  -15.9208   18.1907 O   0  0  0  0  0  0  0  0  0  0  0  0
   10.7471  -16.8360   22.3638 C   0  0  0  0  0  0  0  0  0  0  0  0
   11.7411  -16.1912   22.7592 O   0  0  0  0  0  0  0  0  0  0  0  0
   12.5546  -16.3697   16.4835 O   0  0  0  0  0  0  0  0  0  0  0  0
    9.6862  -17.1050   23.2365 N   0  0  0  0  0  0  0  0  0  0  0  0
    9.5983  -16.7699   24.6312 C   0  0  1  0  0  0  0  0  0  0  0  0
    8.2068  -16.3984   25.1102 C   0  0  0  0  0  0  0  0  0  0  0  0
    7.7368  -15.0911   24.6731 C   0  0  0  0  0  0  0  0  0  0  0  0
    7.3844  -14.6861   23.4214 C   0  0  0  0  0  0  0  0  0  0  0  0
    6.9930  -13.3858   23.4799 N   0  0  0  0  0  0  0  0  0  0  0  0
    7.0764  -12.9233   24.7287 C   0  0  0  0  0  0  0  0  0  0  0  0
    6.7973  -11.6960   25.2951 C   0  0  0  0  0  0  0  0  0  0  0  0
    6.9796  -11.5007   26.6486 C   0  0  0  0  0  0  0  0  0  0  0  0
    7.4432  -12.5581   27.4047 C   0  0  0  0  0  0  0  0  0  0  0  0
    7.7264  -13.7991   26.8373 C   0  0  0  0  0  0  0  0  0  0  0  0
    7.5416  -13.9831   25.4874 C   0  0  0  0  0  0  0  0  0  0  0  0
   10.1668  -17.7584   25.5455 C   0  0  0  0  0  0  0  0  0  0  0  0
    9.9461  -19.0050   25.4508 O   0  0  0  0  0  0  0  0  0  0  0  0
   12.9876  -19.7330   29.4564 N   0  0  0  0  0  0  0  0  0  0  0  0
   13.3867  -18.3811   29.2782 C   0  0  0  0  0  0  0  0  0  0  0  0
   14.2969  -17.9454   30.0180 O   0  0  0  0  0  0  0  0  0  0  0  0
   12.7314  -17.5574   28.2532 C   0  0  0  0  0  0  0  0  0  0  0  0
   11.6368  -18.2930   27.5153 C   0  0  2  0  0  0  0  0  0  0  0  0
   11.0122  -17.3402   26.6007 N   0  0  0  0  0  0  0  0  0  0  0  0
   10.5806  -18.6508   28.5059 C   0  0  0  0  0  0  0  0  0  0  0  0
   10.6661  -19.8558   29.1942 O   0  0  0  0  0  0  0  0  0  0  0  0
    9.5920  -17.9183   28.7684 O   0  0  0  0  0  0  0  0  0  0  0  0
  2  1  1  6
  2  3  1  0
  3  4  1  0
  4  5  1  0
  5  9  1  0
  6  5  2  0
  7  2  1  0
  8  7  2  0
 10  7  1  0
 11 10  1  0
 11 12  1  1
 12 13  1  0
 13 14  2  0
 14 15  1  0
 16 15  1  0
 17 16  2  0
 18 17  1  0
 19 20  1  0
 19 18  2  0
 20 21  2  0
 21 13  1  0
 21 16  1  0
 22 11  1  0
 23 22  2  0
 25 24  1  0
 26 25  2  0
 28 27  1  1
 27 25  1  0
 28 29  1  0
 29 22  1  0
 30 28  1  0
 30 31  1  0
 32 30  2  0
M  END
$$$$
