EWN.pdb
     RDKit          3D

 32 33  0  0  1  0  0  0  0  0999 V2000
    8.6890  -17.9816   22.5067 N   0  0  0  0  0  0  0  0  0  0  0  0
    9.9700  -17.3750   22.3563 C   0  0  1  0  0  0  0  0  0  0  0  0
   10.0510  -16.4785   21.1788 C   0  0  0  0  0  0  0  0  0  0  0  0
    9.7100  -17.0707   19.8546 C   0  0  0  0  0  0  0  0  0  0  0  0
    9.7135  -16.1729   18.7111 C   0  0  0  0  0  0  0  0  0  0  0  0
   10.0904  -14.9931   18.6358 O   0  0  0  0  0  0  0  0  0  0  0  0
   10.3864  -16.7303   23.6236 C   0  0  0  0  0  0  0  0  0  0  0  0
   11.4602  -16.0922   23.6292 O   0  0  0  0  0  0  0  0  0  0  0  0
    9.2134  -16.7215   17.4999 O   0  0  0  0  0  0  0  0  0  0  0  0
    9.6144  -16.8251   24.7875 N   0  0  0  0  0  0  0  0  0  0  0  0
    9.9832  -16.4135   26.1140 C   0  0  1  0  0  0  0  0  0  0  0  0
    8.8335  -15.9084   26.9666 C   0  0  0  0  0  0  0  0  0  0  0  0
    7.7397  -15.2998   26.2221 C   0  0  0  0  0  0  0  0  0  0  0  0
    6.7448  -15.9078   25.5183 C   0  0  0  0  0  0  0  0  0  0  0  0
    5.9344  -14.9498   24.9960 N   0  0  0  0  0  0  0  0  0  0  0  0
    6.3639  -13.7325   25.3337 C   0  0  0  0  0  0  0  0  0  0  0  0
    5.8959  -12.4632   25.0601 C   0  0  0  0  0  0  0  0  0  0  0  0
    6.5581  -11.3594   25.5564 C   0  0  0  0  0  0  0  0  0  0  0  0
    7.6865  -11.5648   26.3239 C   0  0  0  0  0  0  0  0  0  0  0  0
    8.1628  -12.8444   26.6029 C   0  0  0  0  0  0  0  0  0  0  0  0
    7.4958  -13.9378   26.1032 C   0  0  0  0  0  0  0  0  0  0  0  0
   10.7464  -17.3964   26.8807 C   0  0  0  0  0  0  0  0  0  0  0  0
   11.1261  -17.2063   28.0772 O   0  0  0  0  0  0  0  0  0  0  0  0
   12.9750  -21.9052   28.1866 N   0  0  0  0  0  0  0  0  0  0  0  0
   12.1909  -22.1225   27.0218 C   0  0  0  0  0  0  0  0  0  0  0  0
   12.1372  -23.2886   26.5712 O   0  0  0  0  0  0  0  0  0  0  0  0
   11.4845  -20.9951   26.3987 C   0  0  0  0  0  0  0  0  0  0  0  0
   11.8243  -19.6642   27.0289 C   0  0  2  0  0  0  0  0  0  0  0  0
   11.0961  -18.6348   26.2913 N   0  0  0  0  0  0  0  0  0  0  0  0
   13.2691  -19.3952   26.7741 C   0  0  0  0  0  0  0  0  0  0  0  0
   13.6327  -18.4320   25.8397 O   0  0  0  0  0  0  0  0  0  0  0  0
   14.2058  -19.9954   27.3616 O   0  0  0  0  0  0  0  0  0  0  0  0
  2  1  1  1
  2  3  1  0
  3  4  1  0
  4  5  1  0
  5  9  1  0
  6  5  2  0
  7  2  1  0
  8  7  2  0
 10  7  1  0
 11 10  1  0
 11 12  1  1
 12 13  1  0
 13 14  2  0
 14 15  1  0
 16 15  1  0
 17 16  2  0
 18 17  1  0
 19 20  1  0
 19 18  2  0
 20 21  2  0
 21 13  1  0
 21 16  1  0
 22 11  1  0
 23 22  2  0
 25 24  1  0
 26 25  2  0
 28 27  1  6
 27 25  1  0
 28 29  1  0
 29 22  1  0
 30 28  1  0
 30 31  1  0
 32 30  2  0
M  END
$$$$
