EWN.pdb
     RDKit          3D

 32 33  0  0  1  0  0  0  0  0999 V2000
    9.5472  -17.4947   19.0211 N   0  0  0  0  0  0  0  0  0  0  0  0
   10.7359  -17.4800   19.8072 C   0  0  1  0  0  0  0  0  0  0  0  0
   11.9296  -17.0468   19.0429 C   0  0  0  0  0  0  0  0  0  0  0  0
   11.8657  -17.1773   17.5599 C   0  0  0  0  0  0  0  0  0  0  0  0
   13.0303  -16.7368   16.8092 C   0  0  0  0  0  0  0  0  0  0  0  0
   13.7315  -17.3649   16.0009 O   0  0  0  0  0  0  0  0  0  0  0  0
   10.5186  -16.7116   21.0552 C   0  0  0  0  0  0  0  0  0  0  0  0
   11.5234  -16.2749   21.6550 O   0  0  0  0  0  0  0  0  0  0  0  0
   13.4280  -15.3909   17.0295 O   0  0  0  0  0  0  0  0  0  0  0  0
    9.2350  -16.4752   21.5614 N   0  0  0  0  0  0  0  0  0  0  0  0
    8.8781  -16.1491   22.9147 C   0  0  1  0  0  0  0  0  0  0  0  0
    7.4311  -15.7340   23.1091 C   0  0  0  0  0  0  0  0  0  0  0  0
    7.1152  -15.2138   24.4322 C   0  0  0  0  0  0  0  0  0  0  0  0
    6.5712  -15.8653   25.4973 C   0  0  0  0  0  0  0  0  0  0  0  0
    6.4659  -14.9917   26.5332 N   0  0  0  0  0  0  0  0  0  0  0  0
    6.9231  -13.7878   26.1838 C   0  0  0  0  0  0  0  0  0  0  0  0
    7.0315  -12.5918   26.8640 C   0  0  0  0  0  0  0  0  0  0  0  0
    7.5593  -11.4831   26.2352 C   0  0  0  0  0  0  0  0  0  0  0  0
    7.9688  -11.6091   24.9233 C   0  0  0  0  0  0  0  0  0  0  0  0
    7.8614  -12.8146   24.2323 C   0  0  0  0  0  0  0  0  0  0  0  0
    7.3337  -13.9135   24.8681 C   0  0  0  0  0  0  0  0  0  0  0  0
    9.2183  -17.1644   23.9095 C   0  0  0  0  0  0  0  0  0  0  0  0
    8.8688  -18.3811   23.8130 O   0  0  0  0  0  0  0  0  0  0  0  0
   13.2489  -19.5093   26.6490 N   0  0  0  0  0  0  0  0  0  0  0  0
   12.7048  -18.2836   27.1181 C   0  0  0  0  0  0  0  0  0  0  0  0
   12.8510  -18.0137   28.3311 O   0  0  0  0  0  0  0  0  0  0  0  0
   12.0036  -17.3930   26.1834 C   0  0  0  0  0  0  0  0  0  0  0  0
   10.5754  -17.8141   25.9254 C   0  0  2  0  0  0  0  0  0  0  0  0
    9.9766  -16.8088   25.0505 N   0  0  0  0  0  0  0  0  0  0  0  0
    9.8322  -17.7185   27.2150 C   0  0  0  0  0  0  0  0  0  0  0  0
    9.3660  -16.4822   27.6477 O   0  0  0  0  0  0  0  0  0  0  0  0
    9.5919  -18.7052   27.9577 O   0  0  0  0  0  0  0  0  0  0  0  0
  2  1  1  6
  2  3  1  0
  3  4  1  0
  4  5  1  0
  5  9  1  0
  6  5  2  0
  7  2  1  0
  8  7  2  0
 10  7  1  0
 11 10  1  0
 11 12  1  6
 12 13  1  0
 13 14  2  0
 14 15  1  0
 16 15  1  0
 17 16  2  0
 18 17  1  0
 19 20  1  0
 19 18  2  0
 20 21  2  0
 21 13  1  0
 21 16  1  0
 22 11  1  0
 23 22  2  0
 25 24  1  0
 26 25  2  0
 28 27  1  1
 27 25  1  0
 28 29  1  0
 29 22  1  0
 30 28  1  0
 30 31  1  0
 32 30  2  0
M  END
$$$$
