EWN.pdb
     RDKit          3D

 32 33  0  0  1  0  0  0  0  0999 V2000
    9.2821  -18.0022   19.1594 N   0  0  0  0  0  0  0  0  0  0  0  0
   10.5086  -17.5373   19.7171 C   0  0  1  0  0  0  0  0  0  0  0  0
   11.4230  -16.9601   18.7036 C   0  0  0  0  0  0  0  0  0  0  0  0
   10.9788  -17.0180   17.2824 C   0  0  0  0  0  0  0  0  0  0  0  0
   11.8295  -16.3669   16.2994 C   0  0  0  0  0  0  0  0  0  0  0  0
   13.0677  -16.3292   16.2294 O   0  0  0  0  0  0  0  0  0  0  0  0
   10.2443  -16.6345   20.8617 C   0  0  0  0  0  0  0  0  0  0  0  0
   11.1623  -15.8704   21.2272 O   0  0  0  0  0  0  0  0  0  0  0  0
   11.1485  -15.6703   15.2654 O   0  0  0  0  0  0  0  0  0  0  0  0
    9.0117  -16.6264   21.5252 N   0  0  0  0  0  0  0  0  0  0  0  0
    8.7425  -16.1631   22.8585 C   0  0  1  0  0  0  0  0  0  0  0  0
    7.2853  -15.8448   23.1399 C   0  0  0  0  0  0  0  0  0  0  0  0
    7.0205  -15.3081   24.4676 C   0  0  0  0  0  0  0  0  0  0  0  0
    6.5849  -15.9614   25.5804 C   0  0  0  0  0  0  0  0  0  0  0  0
    6.4902  -15.0672   26.5997 N   0  0  0  0  0  0  0  0  0  0  0  0
    6.8495  -13.8482   26.1933 C   0  0  0  0  0  0  0  0  0  0  0  0
    6.9257  -12.6294   26.8365 C   0  0  0  0  0  0  0  0  0  0  0  0
    7.3439  -11.5088   26.1490 C   0  0  0  0  0  0  0  0  0  0  0  0
    7.6783  -11.6463   24.8172 C   0  0  0  0  0  0  0  0  0  0  0  0
    7.6030  -12.8747   24.1634 C   0  0  0  0  0  0  0  0  0  0  0  0
    7.1847  -13.9853   24.8575 C   0  0  0  0  0  0  0  0  0  0  0  0
    9.2574  -17.0149   23.9289 C   0  0  0  0  0  0  0  0  0  0  0  0
    8.9837  -18.2505   24.0305 O   0  0  0  0  0  0  0  0  0  0  0  0
   12.3395  -18.5132   23.9133 N   0  0  0  0  0  0  0  0  0  0  0  0
   13.0182  -17.6156   24.7806 C   0  0  0  0  0  0  0  0  0  0  0  0
   14.2456  -17.4542   24.5990 O   0  0  0  0  0  0  0  0  0  0  0  0
   12.2722  -16.9216   25.8391 C   0  0  0  0  0  0  0  0  0  0  0  0
   10.8122  -17.3093   25.8841 C   0  0  2  0  0  0  0  0  0  0  0  0
   10.1087  -16.4682   24.9187 N   0  0  0  0  0  0  0  0  0  0  0  0
   10.2784  -16.9194   27.2211 C   0  0  0  0  0  0  0  0  0  0  0  0
    9.3568  -15.8826   27.3156 O   0  0  0  0  0  0  0  0  0  0  0  0
   10.6132  -17.4784   28.2973 O   0  0  0  0  0  0  0  0  0  0  0  0
  2  1  1  6
  2  3  1  0
  3  4  1  0
  4  5  1  0
  5  9  1  0
  6  5  2  0
  7  2  1  0
  8  7  2  0
 10  7  1  0
 11 10  1  0
 11 12  1  1
 12 13  1  0
 13 14  2  0
 14 15  1  0
 16 15  1  0
 17 16  2  0
 18 17  1  0
 19 20  1  0
 19 18  2  0
 20 21  2  0
 21 13  1  0
 21 16  1  0
 22 11  1  0
 23 22  2  0
 25 24  1  0
 26 25  2  0
 28 27  1  1
 27 25  1  0
 28 29  1  0
 29 22  1  0
 30 28  1  0
 30 31  1  0
 32 30  2  0
M  END
$$$$
