EWN.pdb
     RDKit          3D

 32 33  0  0  1  0  0  0  0  0999 V2000
    9.0358  -17.7379   20.8148 N   0  0  0  0  0  0  0  0  0  0  0  0
   10.3451  -17.7649   21.3772 C   0  0  1  0  0  0  0  0  0  0  0  0
   11.3756  -17.2045   20.4712 C   0  0  0  0  0  0  0  0  0  0  0  0
   11.2637  -17.5497   19.0260 C   0  0  0  0  0  0  0  0  0  0  0  0
   12.3265  -17.0793   18.1524 C   0  0  0  0  0  0  0  0  0  0  0  0
   12.4017  -17.1107   16.9143 O   0  0  0  0  0  0  0  0  0  0  0  0
   10.3398  -17.1484   22.7244 C   0  0  0  0  0  0  0  0  0  0  0  0
   11.3382  -16.4796   23.0648 O   0  0  0  0  0  0  0  0  0  0  0  0
   13.4452  -16.4976   18.8068 O   0  0  0  0  0  0  0  0  0  0  0  0
    9.2596  -17.3023   23.6014 N   0  0  0  0  0  0  0  0  0  0  0  0
    9.1851  -16.8845   24.9743 C   0  0  1  0  0  0  0  0  0  0  0  0
    7.8686  -16.2439   25.3744 C   0  0  0  0  0  0  0  0  0  0  0  0
    7.5507  -15.0075   24.6735 C   0  0  0  0  0  0  0  0  0  0  0  0
    7.3837  -14.8030   23.3374 C   0  0  0  0  0  0  0  0  0  0  0  0
    7.0827  -13.4935   23.1327 N   0  0  0  0  0  0  0  0  0  0  0  0
    7.0461  -12.8309   24.2903 C   0  0  0  0  0  0  0  0  0  0  0  0
    6.7889  -11.5129   24.6091 C   0  0  0  0  0  0  0  0  0  0  0  0
    6.8182  -11.1007   25.9253 C   0  0  0  0  0  0  0  0  0  0  0  0
    7.1088  -12.0367   26.8969 C   0  0  0  0  0  0  0  0  0  0  0  0
    7.3692  -13.3686   26.5799 C   0  0  0  0  0  0  0  0  0  0  0  0
    7.3377  -13.7691   25.2651 C   0  0  0  0  0  0  0  0  0  0  0  0
    9.5315  -17.9102   25.9563 C   0  0  0  0  0  0  0  0  0  0  0  0
    8.7683  -18.8813   26.2502 O   0  0  0  0  0  0  0  0  0  0  0  0
   12.4217  -19.9162   25.3609 N   0  0  0  0  0  0  0  0  0  0  0  0
   13.2731  -19.4452   26.3961 C   0  0  0  0  0  0  0  0  0  0  0  0
   14.5078  -19.5259   26.2098 O   0  0  0  0  0  0  0  0  0  0  0  0
   12.6882  -18.8909   27.6245 C   0  0  0  0  0  0  0  0  0  0  0  0
   11.1773  -18.8668   27.6005 C   0  0  2  0  0  0  0  0  0  0  0  0
   10.7737  -17.8502   26.6320 N   0  0  0  0  0  0  0  0  0  0  0  0
   10.7086  -18.3681   28.9257 C   0  0  0  0  0  0  0  0  0  0  0  0
   10.8181  -19.1866   30.0442 O   0  0  0  0  0  0  0  0  0  0  0  0
   10.2077  -17.2281   29.1059 O   0  0  0  0  0  0  0  0  0  0  0  0
  2  1  1  6
  2  3  1  0
  3  4  1  0
  4  5  1  0
  5  9  1  0
  6  5  2  0
  7  2  1  0
  8  7  2  0
 10  7  1  0
 11 10  1  0
 11 12  1  1
 12 13  1  0
 13 14  2  0
 14 15  1  0
 16 15  1  0
 17 16  2  0
 18 17  1  0
 19 20  1  0
 19 18  2  0
 20 21  2  0
 21 13  1  0
 21 16  1  0
 22 11  1  0
 23 22  2  0
 25 24  1  0
 26 25  2  0
 28 27  1  1
 27 25  1  0
 28 29  1  0
 29 22  1  0
 30 28  1  0
 30 31  1  0
 32 30  2  0
M  END
$$$$
