EWN.pdb
     RDKit          3D

 32 33  0  0  1  0  0  0  0  0999 V2000
   10.8683  -19.1734   21.6504 N   0  0  0  0  0  0  0  0  0  0  0  0
   11.8438  -18.2806   22.1821 C   0  0  1  0  0  0  0  0  0  0  0  0
   12.9824  -18.0526   21.2610 C   0  0  0  0  0  0  0  0  0  0  0  0
   12.7829  -18.4321   19.8340 C   0  0  0  0  0  0  0  0  0  0  0  0
   13.3323  -17.5344   18.8308 C   0  0  0  0  0  0  0  0  0  0  0  0
   14.5098  -17.3787   18.4719 O   0  0  0  0  0  0  0  0  0  0  0  0
   11.1984  -17.0316   22.6494 C   0  0  0  0  0  0  0  0  0  0  0  0
   11.9231  -16.0294   22.8242 O   0  0  0  0  0  0  0  0  0  0  0  0
   12.3870  -16.7131   18.1602 O   0  0  0  0  0  0  0  0  0  0  0  0
    9.8220  -16.9599   22.8943 N   0  0  0  0  0  0  0  0  0  0  0  0
    9.1595  -16.2299   23.9399 C   0  0  1  0  0  0  0  0  0  0  0  0
    7.6565  -16.4316   24.0035 C   0  0  0  0  0  0  0  0  0  0  0  0
    6.9342  -15.4221   24.7651 C   0  0  0  0  0  0  0  0  0  0  0  0
    5.6415  -15.4396   25.1934 C   0  0  0  0  0  0  0  0  0  0  0  0
    5.3962  -14.2930   25.8809 N   0  0  0  0  0  0  0  0  0  0  0  0
    6.4853  -13.5230   25.9187 C   0  0  0  0  0  0  0  0  0  0  0  0
    6.7437  -12.2906   26.4839 C   0  0  0  0  0  0  0  0  0  0  0  0
    7.9950  -11.7225   26.3633 C   0  0  0  0  0  0  0  0  0  0  0  0
    8.9643  -12.4179   25.6693 C   0  0  0  0  0  0  0  0  0  0  0  0
    8.7081  -13.6625   25.0969 C   0  0  0  0  0  0  0  0  0  0  0  0
    7.4576  -14.2198   25.2226 C   0  0  0  0  0  0  0  0  0  0  0  0
    9.7198  -16.4126   25.2774 C   0  0  0  0  0  0  0  0  0  0  0  0
    9.7043  -15.5099   26.1701 O   0  0  0  0  0  0  0  0  0  0  0  0
   10.3613  -21.0030   28.9490 N   0  0  0  0  0  0  0  0  0  0  0  0
   10.1717  -19.6034   28.7947 C   0  0  0  0  0  0  0  0  0  0  0  0
   10.3507  -18.8821   29.8013 O   0  0  0  0  0  0  0  0  0  0  0  0
    9.7802  -19.0613   27.4865 C   0  0  0  0  0  0  0  0  0  0  0  0
   10.6939  -17.9571   27.0074 C   0  0  2  0  0  0  0  0  0  0  0  0
   10.3163  -17.6465   25.6306 N   0  0  0  0  0  0  0  0  0  0  0  0
   12.0764  -18.5113   26.9298 C   0  0  0  0  0  0  0  0  0  0  0  0
   12.8082  -18.6946   28.0977 O   0  0  0  0  0  0  0  0  0  0  0  0
   12.6408  -18.8328   25.8523 O   0  0  0  0  0  0  0  0  0  0  0  0
  2  1  1  6
  2  3  1  0
  3  4  1  0
  4  5  1  0
  5  9  1  0
  6  5  2  0
  7  2  1  0
  8  7  2  0
 10  7  1  0
 11 10  1  0
 11 12  1  1
 12 13  1  0
 13 14  2  0
 14 15  1  0
 16 15  1  0
 17 16  2  0
 18 17  1  0
 19 20  1  0
 19 18  2  0
 20 21  2  0
 21 13  1  0
 21 16  1  0
 22 11  1  0
 23 22  2  0
 25 24  1  0
 26 25  2  0
 28 27  1  6
 27 25  1  0
 28 29  1  0
 29 22  1  0
 30 28  1  0
 30 31  1  0
 32 30  2  0
M  END
$$$$
