PEK.pdb
     RDKit          3D

 26 26  0  0  1  0  0  0  0  0999 V2000
   27.9335  -17.9484  -15.1329 N   0  0  0  0  0  0  0  0  0  0  0  0
   28.4318  -18.3462  -16.4215 C   0  0  0  0  0  0  0  0  0  0  0  0
   27.5966  -17.5714  -17.4094 C   0  0  0  0  0  0  0  0  0  0  0  0
   26.4069  -17.0653  -16.6749 C   0  0  0  0  0  0  0  0  0  0  0  0
   26.5453  -17.6938  -15.3117 C   0  0  1  0  0  0  0  0  0  0  0  0
   25.7663  -18.9616  -15.3014 C   0  0  0  0  0  0  0  0  0  0  0  0
   24.5182  -18.9601  -15.5859 O   0  0  0  0  0  0  0  0  0  0  0  0
   26.3181  -20.2424  -14.9869 N   0  0  0  0  0  0  0  0  0  0  0  0
   25.5353  -21.4181  -14.9268 C   0  0  1  0  0  0  0  0  0  0  0  0
   26.1406  -22.7255  -15.1791 C   0  0  0  0  0  0  0  0  0  0  0  0
   25.2710  -23.9203  -15.2717 C   0  0  0  0  0  0  0  0  0  0  0  0
   25.9818  -25.1811  -15.5831 C   0  0  0  0  0  0  0  0  0  0  0  0
   27.2232  -25.1753  -15.7544 O   0  0  0  0  0  0  0  0  0  0  0  0
   24.4378  -21.3976  -13.8875 C   0  0  0  0  0  0  0  0  0  0  0  0
   24.6541  -21.0808  -12.7146 O   0  0  0  0  0  0  0  0  0  0  0  0
   25.2898  -26.3796  -15.6888 O   0  0  0  0  0  0  0  0  0  0  0  0
   23.1399  -21.7662  -14.3123 N   0  0  0  0  0  0  0  0  0  0  0  0
   21.9583  -21.8569  -13.5682 C   0  0  1  0  0  0  0  0  0  0  0  0
   21.2587  -20.6460  -13.1014 C   0  0  0  0  0  0  0  0  0  0  0  0
   20.0914  -20.8082  -12.2136 C   0  0  0  0  0  0  0  0  0  0  0  0
   19.4742  -19.5494  -11.7333 C   0  0  0  0  0  0  0  0  0  0  0  0
   18.4208  -19.7236  -10.6649 C   0  0  0  0  0  0  0  0  0  0  0  0
   17.9810  -18.4953  -10.1047 N   0  0  0  0  0  0  0  0  0  0  0  0
   20.9210  -22.7621  -14.1754 C   0  0  0  0  0  0  0  0  0  0  0  0
   20.8309  -22.8651  -15.3940 O   0  0  0  0  0  0  0  0  0  0  0  0
   20.0642  -23.4806  -13.3651 O   0  0  0  0  0  0  0  0  0  0  0  0
  2  1  1  0
  3  2  1  0
  4  5  1  0
  4  3  1  0
  5  1  1  0
  5  6  1  6
  6  8  1  0
  7  6  2  0
  8  9  1  0
  9 14  1  0
  9 10  1  1
 11 10  1  0
 12 11  1  0
 13 12  2  0
 14 15  2  0
 14 17  1  0
 16 12  1  0
 17 18  1  0
 18 24  1  0
 18 19  1  6
 20 19  1  0
 21 20  1  0
 22 21  1  0
 23 22  1  0
 24 25  2  0
 24 26  1  0
M  END
$$$$
