PEK.pdb
     RDKit          3D

 26 26  0  0  1  0  0  0  0  0999 V2000
   18.3432  -12.1919  -15.4373 N   0  0  0  0  0  0  0  0  0  0  0  0
   17.5793  -12.8786  -14.4314 C   0  0  0  0  0  0  0  0  0  0  0  0
   16.1741  -12.3571  -14.5972 C   0  0  0  0  0  0  0  0  0  0  0  0
   16.2603  -11.1201  -15.4178 C   0  0  0  0  0  0  0  0  0  0  0  0
   17.7445  -10.9088  -15.5754 C   0  0  1  0  0  0  0  0  0  0  0  0
   18.2018   -9.9897  -14.4983 C   0  0  0  0  0  0  0  0  0  0  0  0
   18.2455  -10.3849  -13.2815 O   0  0  0  0  0  0  0  0  0  0  0  0
   18.6168   -8.6390  -14.7157 N   0  0  0  0  0  0  0  0  0  0  0  0
   18.9341   -7.7571  -13.6572 C   0  0  1  0  0  0  0  0  0  0  0  0
   20.0457   -6.8150  -13.7850 C   0  0  0  0  0  0  0  0  0  0  0  0
   20.4129   -5.9671  -12.6282 C   0  0  0  0  0  0  0  0  0  0  0  0
   21.5720   -5.0749  -12.8572 C   0  0  0  0  0  0  0  0  0  0  0  0
   22.4866   -5.4236  -13.6398 O   0  0  0  0  0  0  0  0  0  0  0  0
   17.7451   -7.2591  -12.8678 C   0  0  0  0  0  0  0  0  0  0  0  0
   16.8181   -6.6431  -13.4010 O   0  0  0  0  0  0  0  0  0  0  0  0
   21.6625   -3.8483  -12.2143 O   0  0  0  0  0  0  0  0  0  0  0  0
   17.7375   -7.5217  -11.4779 N   0  0  0  0  0  0  0  0  0  0  0  0
   16.7966   -7.1471  -10.5123 C   0  0  1  0  0  0  0  0  0  0  0  0
   15.6668   -8.0297  -10.1685 C   0  0  0  0  0  0  0  0  0  0  0  0
   14.5867   -7.4893   -9.3210 C   0  0  0  0  0  0  0  0  0  0  0  0
   13.4393   -8.3987   -9.0913 C   0  0  0  0  0  0  0  0  0  0  0  0
   12.2634   -7.7731   -8.3788 C   0  0  0  0  0  0  0  0  0  0  0  0
   11.0996   -8.5865   -8.3953 N   0  0  0  0  0  0  0  0  0  0  0  0
   17.4026   -6.6777   -9.2174 C   0  0  0  0  0  0  0  0  0  0  0  0
   16.6835   -6.2556   -8.3182 O   0  0  0  0  0  0  0  0  0  0  0  0
   18.7707   -6.7183   -9.0342 O   0  0  0  0  0  0  0  0  0  0  0  0
  2  1  1  0
  3  2  1  0
  4  5  1  0
  4  3  1  0
  5  1  1  0
  5  6  1  1
  6  8  1  0
  7  6  2  0
  8  9  1  0
  9 14  1  0
  9 10  1  6
 11 10  1  0
 12 11  1  0
 13 12  2  0
 14 15  2  0
 14 17  1  0
 16 12  1  0
 17 18  1  0
 18 24  1  0
 18 19  1  1
 20 19  1  0
 21 20  1  0
 22 21  1  0
 23 22  1  0
 24 25  2  0
 24 26  1  0
M  END
$$$$
