PEK.pdb
     RDKit          3D

 26 26  0  0  1  0  0  0  0  0999 V2000
   26.2871  -19.9433  -11.1417 N   0  0  0  0  0  0  0  0  0  0  0  0
   25.5116  -20.9782  -10.5136 C   0  0  0  0  0  0  0  0  0  0  0  0
   25.8181  -22.2214  -11.3101 C   0  0  0  0  0  0  0  0  0  0  0  0
   26.4414  -21.7811  -12.5862 C   0  0  0  0  0  0  0  0  0  0  0  0
   26.3407  -20.2783  -12.5233 C   0  0  1  0  0  0  0  0  0  0  0  0
   25.0923  -19.8650  -13.2196 C   0  0  0  0  0  0  0  0  0  0  0  0
   24.0058  -19.6999  -12.5631 O   0  0  0  0  0  0  0  0  0  0  0  0
   24.9973  -19.6244  -14.6257 N   0  0  0  0  0  0  0  0  0  0  0  0
   23.8111  -19.1676  -15.2445 C   0  0  1  0  0  0  0  0  0  0  0  0
   23.8503  -18.0526  -16.1904 C   0  0  0  0  0  0  0  0  0  0  0  0
   22.5828  -17.5400  -16.7585 C   0  0  0  0  0  0  0  0  0  0  0  0
   22.7438  -16.4572  -17.7553 C   0  0  0  0  0  0  0  0  0  0  0  0
   23.2943  -16.6948  -18.8558 O   0  0  0  0  0  0  0  0  0  0  0  0
   22.7988  -20.2474  -15.5515 C   0  0  0  0  0  0  0  0  0  0  0  0
   23.0723  -21.2159  -16.2657 O   0  0  0  0  0  0  0  0  0  0  0  0
   22.2907  -15.1727  -17.4886 O   0  0  0  0  0  0  0  0  0  0  0  0
   21.5090  -20.1013  -14.9893 N   0  0  0  0  0  0  0  0  0  0  0  0
   20.4348  -20.9980  -14.9958 C   0  0  1  0  0  0  0  0  0  0  0  0
   19.7332  -21.3534  -13.7488 C   0  0  0  0  0  0  0  0  0  0  0  0
   18.7993  -22.4956  -13.7700 C   0  0  0  0  0  0  0  0  0  0  0  0
   17.5096  -22.2793  -13.0728 C   0  0  0  0  0  0  0  0  0  0  0  0
   16.5536  -23.4476  -13.1251 C   0  0  0  0  0  0  0  0  0  0  0  0
   15.2914  -23.1667  -12.5382 N   0  0  0  0  0  0  0  0  0  0  0  0
   19.3813  -20.6830  -16.0230 C   0  0  0  0  0  0  0  0  0  0  0  0
   18.9058  -19.5547  -16.0915 O   0  0  0  0  0  0  0  0  0  0  0  0
   18.9430  -21.6617  -16.8932 O   0  0  0  0  0  0  0  0  0  0  0  0
  2  1  1  0
  3  2  1  0
  4  5  1  0
  4  3  1  0
  5  1  1  0
  5  6  1  6
  6  8  1  0
  7  6  2  0
  8  9  1  0
  9 14  1  0
  9 10  1  6
 11 10  1  0
 12 11  1  0
 13 12  2  0
 14 15  2  0
 14 17  1  0
 16 12  1  0
 17 18  1  0
 18 24  1  0
 18 19  1  1
 20 19  1  0
 21 20  1  0
 22 21  1  0
 23 22  1  0
 24 25  2  0
 24 26  1  0
M  END
$$$$
