PEK.pdb
     RDKit          3D

 26 26  0  0  1  0  0  0  0  0999 V2000
   25.9665  -22.0874  -13.5051 N   0  0  0  0  0  0  0  0  0  0  0  0
   26.3991  -20.7618  -13.8552 C   0  0  0  0  0  0  0  0  0  0  0  0
   26.6738  -20.0886  -12.5342 C   0  0  0  0  0  0  0  0  0  0  0  0
   26.0225  -20.9108  -11.4802 C   0  0  0  0  0  0  0  0  0  0  0  0
   25.2787  -21.9601  -12.2663 C   0  0  1  0  0  0  0  0  0  0  0  0
   23.8851  -21.4836  -12.4781 C   0  0  0  0  0  0  0  0  0  0  0  0
   23.1717  -21.0995  -11.4869 O   0  0  0  0  0  0  0  0  0  0  0  0
   23.2438  -21.4137  -13.7539 N   0  0  0  0  0  0  0  0  0  0  0  0
   21.9105  -20.9726  -13.9161 C   0  0  1  0  0  0  0  0  0  0  0  0
   21.6021  -19.8578  -14.8115 C   0  0  0  0  0  0  0  0  0  0  0  0
   20.2178  -19.3356  -14.8674 C   0  0  0  0  0  0  0  0  0  0  0  0
   20.0134  -18.2234  -15.8230 C   0  0  0  0  0  0  0  0  0  0  0  0
   20.9732  -17.8034  -16.5109 O   0  0  0  0  0  0  0  0  0  0  0  0
   20.8680  -22.0654  -13.8529 C   0  0  0  0  0  0  0  0  0  0  0  0
   20.8531  -23.0018  -14.6566 O   0  0  0  0  0  0  0  0  0  0  0  0
   18.7658  -17.6337  -15.9709 O   0  0  0  0  0  0  0  0  0  0  0  0
   19.8945  -21.9703  -12.8311 N   0  0  0  0  0  0  0  0  0  0  0  0
   18.8150  -22.8172  -12.5566 C   0  0  1  0  0  0  0  0  0  0  0  0
   17.8950  -22.5388  -11.4387 C   0  0  0  0  0  0  0  0  0  0  0  0
   17.5319  -23.6478  -10.5358 C   0  0  0  0  0  0  0  0  0  0  0  0
   18.2887  -23.7094   -9.2631 C   0  0  0  0  0  0  0  0  0  0  0  0
   17.8473  -24.7963   -8.3116 C   0  0  0  0  0  0  0  0  0  0  0  0
   18.6489  -24.8783   -7.1424 N   0  0  0  0  0  0  0  0  0  0  0  0
   17.9681  -23.1379  -13.7584 C   0  0  0  0  0  0  0  0  0  0  0  0
   17.4499  -22.2342  -14.4055 O   0  0  0  0  0  0  0  0  0  0  0  0
   17.7686  -24.4502  -14.1390 O   0  0  0  0  0  0  0  0  0  0  0  0
  2  1  1  0
  3  2  1  0
  4  5  1  0
  4  3  1  0
  5  1  1  0
  5  6  1  6
  6  8  1  0
  7  6  2  0
  8  9  1  0
  9 14  1  0
  9 10  1  6
 11 10  1  0
 12 11  1  0
 13 12  2  0
 14 15  2  0
 14 17  1  0
 16 12  1  0
 17 18  1  0
 18 24  1  0
 18 19  1  1
 20 19  1  0
 21 20  1  0
 22 21  1  0
 23 22  1  0
 24 25  2  0
 24 26  1  0
M  END
$$$$
