PEK.pdb
     RDKit          3D

 26 26  0  0  1  0  0  0  0  0999 V2000
   24.0405  -13.1635  -15.1868 N   0  0  0  0  0  0  0  0  0  0  0  0
   23.3009  -13.8499  -16.2108 C   0  0  0  0  0  0  0  0  0  0  0  0
   24.1632  -13.7400  -17.4430 C   0  0  0  0  0  0  0  0  0  0  0  0
   25.1651  -12.6727  -17.1823 C   0  0  0  0  0  0  0  0  0  0  0  0
   24.7429  -12.1168  -15.8462 C   0  0  1  0  0  0  0  0  0  0  0  0
   23.8532  -10.9486  -16.0873 C   0  0  0  0  0  0  0  0  0  0  0  0
   24.2607   -9.9535  -16.7819 O   0  0  0  0  0  0  0  0  0  0  0  0
   22.5188  -10.8368  -15.5866 N   0  0  0  0  0  0  0  0  0  0  0  0
   21.6649   -9.7606  -15.9203 C   0  0  1  0  0  0  0  0  0  0  0  0
   20.2474   -9.9960  -16.1938 C   0  0  0  0  0  0  0  0  0  0  0  0
   19.8621  -10.8088  -17.3698 C   0  0  0  0  0  0  0  0  0  0  0  0
   18.4029  -10.9235  -17.5924 C   0  0  0  0  0  0  0  0  0  0  0  0
   17.7892  -10.0190  -18.2056 O   0  0  0  0  0  0  0  0  0  0  0  0
   21.9871   -8.4562  -15.2277 C   0  0  0  0  0  0  0  0  0  0  0  0
   22.3089   -8.4103  -14.0372 O   0  0  0  0  0  0  0  0  0  0  0  0
   17.6980  -12.0257  -17.1296 O   0  0  0  0  0  0  0  0  0  0  0  0
   21.8983   -7.2754  -16.0016 N   0  0  0  0  0  0  0  0  0  0  0  0
   22.0873   -5.9453  -15.6104 C   0  0  1  0  0  0  0  0  0  0  0  0
   22.1343   -4.8590  -16.6061 C   0  0  0  0  0  0  0  0  0  0  0  0
   22.4461   -3.4939  -16.1412 C   0  0  0  0  0  0  0  0  0  0  0  0
   22.4943   -2.4549  -17.1968 C   0  0  0  0  0  0  0  0  0  0  0  0
   22.8226   -1.0642  -16.7072 C   0  0  0  0  0  0  0  0  0  0  0  0
   22.9404   -0.1134  -17.7552 N   0  0  0  0  0  0  0  0  0  0  0  0
   21.1685   -5.4958  -14.5068 C   0  0  0  0  0  0  0  0  0  0  0  0
   19.9539   -5.6087  -14.6323 O   0  0  0  0  0  0  0  0  0  0  0  0
   21.6867   -4.9530  -13.3476 O   0  0  0  0  0  0  0  0  0  0  0  0
  2  1  1  0
  3  2  1  0
  4  5  1  0
  4  3  1  0
  5  1  1  0
  5  6  1  6
  6  8  1  0
  7  6  2  0
  8  9  1  0
  9 14  1  0
  9 10  1  1
 11 10  1  0
 12 11  1  0
 13 12  2  0
 14 15  2  0
 14 17  1  0
 16 12  1  0
 17 18  1  0
 18 24  1  0
 18 19  1  6
 20 19  1  0
 21 20  1  0
 22 21  1  0
 23 22  1  0
 24 25  2  0
 24 26  1  0
M  END
$$$$
