PEK.pdb
     RDKit          3D

 26 26  0  0  1  0  0  0  0  0999 V2000
   28.5168  -21.7758  -13.0283 N   0  0  0  0  0  0  0  0  0  0  0  0
   29.1665  -20.5563  -13.4255 C   0  0  0  0  0  0  0  0  0  0  0  0
   29.4104  -19.8159  -12.1347 C   0  0  0  0  0  0  0  0  0  0  0  0
   28.5519  -20.4484  -11.0984 C   0  0  0  0  0  0  0  0  0  0  0  0
   27.7416  -21.4503  -11.8807 C   0  0  1  0  0  0  0  0  0  0  0  0
   26.4571  -20.8085  -12.2709 C   0  0  0  0  0  0  0  0  0  0  0  0
   25.6921  -20.2927  -11.3835 O   0  0  0  0  0  0  0  0  0  0  0  0
   25.9811  -20.7133  -13.6156 N   0  0  0  0  0  0  0  0  0  0  0  0
   24.7401  -20.1230  -13.9472 C   0  0  1  0  0  0  0  0  0  0  0  0
   24.6580  -19.1120  -15.0011 C   0  0  0  0  0  0  0  0  0  0  0  0
   23.3670  -18.4323  -15.2535 C   0  0  0  0  0  0  0  0  0  0  0  0
   23.3893  -17.4529  -16.3636 C   0  0  0  0  0  0  0  0  0  0  0  0
   24.3950  -17.3701  -17.1067 O   0  0  0  0  0  0  0  0  0  0  0  0
   23.5480  -21.0455  -13.8348 C   0  0  0  0  0  0  0  0  0  0  0  0
   23.4367  -22.0577  -14.5320 O   0  0  0  0  0  0  0  0  0  0  0  0
   22.3051  -16.6185  -16.5968 O   0  0  0  0  0  0  0  0  0  0  0  0
   22.5494  -20.6980  -12.8951 N   0  0  0  0  0  0  0  0  0  0  0  0
   21.4052  -21.4092  -12.5168 C   0  0  1  0  0  0  0  0  0  0  0  0
   21.0700  -21.6103  -11.0953 C   0  0  0  0  0  0  0  0  0  0  0  0
   19.9275  -22.4816  -10.7600 C   0  0  0  0  0  0  0  0  0  0  0  0
   19.7122  -22.7250   -9.3141 C   0  0  0  0  0  0  0  0  0  0  0  0
   18.5766  -23.6663   -8.9887 C   0  0  0  0  0  0  0  0  0  0  0  0
   18.2949  -23.7468   -7.5994 N   0  0  0  0  0  0  0  0  0  0  0  0
   20.1478  -20.9580  -13.2093 C   0  0  0  0  0  0  0  0  0  0  0  0
   19.2992  -21.7787  -13.5414 O   0  0  0  0  0  0  0  0  0  0  0  0
   19.9423  -19.6187  -13.4759 O   0  0  0  0  0  0  0  0  0  0  0  0
  2  1  1  0
  3  2  1  0
  4  5  1  0
  4  3  1  0
  5  1  1  0
  5  6  1  6
  6  8  1  0
  7  6  2  0
  8  9  1  0
  9 14  1  0
  9 10  1  6
 11 10  1  0
 12 11  1  0
 13 12  2  0
 14 15  2  0
 14 17  1  0
 16 12  1  0
 17 18  1  0
 18 24  1  0
 18 19  1  1
 20 19  1  0
 21 20  1  0
 22 21  1  0
 23 22  1  0
 24 25  2  0
 24 26  1  0
M  END
$$$$
