PEK.pdb
     RDKit          3D

 26 26  0  0  1  0  0  0  0  0999 V2000
   23.5226  -13.9679  -17.0932 N   0  0  0  0  0  0  0  0  0  0  0  0
   24.9470  -13.8697  -17.2621 C   0  0  0  0  0  0  0  0  0  0  0  0
   25.5165  -14.2161  -15.9095 C   0  0  0  0  0  0  0  0  0  0  0  0
   24.4040  -14.1173  -14.9279 C   0  0  0  0  0  0  0  0  0  0  0  0
   23.2602  -13.5802  -15.7498 C   0  0  1  0  0  0  0  0  0  0  0  0
   23.2460  -12.0982  -15.6170 C   0  0  0  0  0  0  0  0  0  0  0  0
   23.0945  -11.5497  -14.4703 O   0  0  0  0  0  0  0  0  0  0  0  0
   23.3948  -11.1908  -16.7117 N   0  0  0  0  0  0  0  0  0  0  0  0
   23.2893   -9.7890  -16.5624 C   0  0  1  0  0  0  0  0  0  0  0  0
   24.0813   -8.8920  -17.4036 C   0  0  0  0  0  0  0  0  0  0  0  0
   24.0072   -7.4311  -17.1747 C   0  0  0  0  0  0  0  0  0  0  0  0
   24.9098   -6.6241  -18.0267 C   0  0  0  0  0  0  0  0  0  0  0  0
   24.4337   -5.8771  -18.9133 O   0  0  0  0  0  0  0  0  0  0  0  0
   21.9092   -9.2914  -16.1979 C   0  0  0  0  0  0  0  0  0  0  0  0
   20.9356   -9.4654  -16.9361 O   0  0  0  0  0  0  0  0  0  0  0  0
   26.2862   -6.6814  -17.8577 O   0  0  0  0  0  0  0  0  0  0  0  0
   21.7746   -8.6046  -14.9686 N   0  0  0  0  0  0  0  0  0  0  0  0
   20.6222   -8.0888  -14.3655 C   0  0  1  0  0  0  0  0  0  0  0  0
   19.8718   -8.8709  -13.3660 C   0  0  0  0  0  0  0  0  0  0  0  0
   18.5677   -8.3557  -12.9067 C   0  0  0  0  0  0  0  0  0  0  0  0
   17.8437   -9.2178  -11.9430 C   0  0  0  0  0  0  0  0  0  0  0  0
   16.4559   -8.7436  -11.5818 C   0  0  0  0  0  0  0  0  0  0  0  0
   15.8023   -9.5839  -10.6421 N   0  0  0  0  0  0  0  0  0  0  0  0
   20.7926   -6.7022  -13.8065 C   0  0  0  0  0  0  0  0  0  0  0  0
   21.9057   -6.3004  -13.4849 O   0  0  0  0  0  0  0  0  0  0  0  0
   19.6979   -5.8749  -13.6514 O   0  0  0  0  0  0  0  0  0  0  0  0
  2  1  1  0
  3  2  1  0
  4  5  1  0
  4  3  1  0
  5  1  1  0
  5  6  1  6
  6  8  1  0
  7  6  2  0
  8  9  1  0
  9 14  1  0
  9 10  1  6
 11 10  1  0
 12 11  1  0
 13 12  2  0
 14 15  2  0
 14 17  1  0
 16 12  1  0
 17 18  1  0
 18 24  1  0
 18 19  1  1
 20 19  1  0
 21 20  1  0
 22 21  1  0
 23 22  1  0
 24 25  2  0
 24 26  1  0
M  END
$$$$
