PEK.pdb
     RDKit          3D

 26 26  0  0  1  0  0  0  0  0999 V2000
   24.2589  -12.1219  -16.0412 N   0  0  0  0  0  0  0  0  0  0  0  0
   25.2564  -11.5931  -16.9312 C   0  0  0  0  0  0  0  0  0  0  0  0
   26.1653  -10.7789  -16.0452 C   0  0  0  0  0  0  0  0  0  0  0  0
   25.4418  -10.5529  -14.7660 C   0  0  0  0  0  0  0  0  0  0  0  0
   24.0783  -11.1399  -15.0279 C   0  0  1  0  0  0  0  0  0  0  0  0
   23.1831  -10.0484  -15.4984 C   0  0  0  0  0  0  0  0  0  0  0  0
   22.8501   -9.9669  -16.7317 O   0  0  0  0  0  0  0  0  0  0  0  0
   22.6364   -9.0349  -14.6512 N   0  0  0  0  0  0  0  0  0  0  0  0
   21.6412   -8.1299  -15.0862 C   0  0  1  0  0  0  0  0  0  0  0  0
   20.2326   -8.5240  -15.0930 C   0  0  0  0  0  0  0  0  0  0  0  0
   19.2250   -7.6005  -15.6623 C   0  0  0  0  0  0  0  0  0  0  0  0
   17.8205   -8.0398  -15.5002 C   0  0  0  0  0  0  0  0  0  0  0  0
   17.5649   -9.1240  -14.9259 O   0  0  0  0  0  0  0  0  0  0  0  0
   21.9109   -6.6807  -14.7518 C   0  0  0  0  0  0  0  0  0  0  0  0
   22.2156   -6.3186  -13.6121 O   0  0  0  0  0  0  0  0  0  0  0  0
   16.7736   -7.2637  -15.9775 O   0  0  0  0  0  0  0  0  0  0  0  0
   21.7927   -5.7428  -15.8041 N   0  0  0  0  0  0  0  0  0  0  0  0
   22.1509   -4.3903  -15.8276 C   0  0  1  0  0  0  0  0  0  0  0  0
   22.3955   -3.6904  -17.1019 C   0  0  0  0  0  0  0  0  0  0  0  0
   22.9081   -2.3076  -17.0560 C   0  0  0  0  0  0  0  0  0  0  0  0
   23.1727   -1.6802  -18.3722 C   0  0  0  0  0  0  0  0  0  0  0  0
   23.7092   -0.2696  -18.3092 C   0  0  0  0  0  0  0  0  0  0  0  0
   23.9245    0.3067  -19.5889 N   0  0  0  0  0  0  0  0  0  0  0  0
   21.2571   -3.5063  -15.0007 C   0  0  0  0  0  0  0  0  0  0  0  0
   20.0450   -3.5089  -15.1873 O   0  0  0  0  0  0  0  0  0  0  0  0
   21.7955   -2.6869  -14.0283 O   0  0  0  0  0  0  0  0  0  0  0  0
  2  1  1  0
  3  2  1  0
  4  5  1  0
  4  3  1  0
  5  1  1  0
  5  6  1  6
  6  8  1  0
  7  6  2  0
  8  9  1  0
  9 14  1  0
  9 10  1  1
 11 10  1  0
 12 11  1  0
 13 12  2  0
 14 15  2  0
 14 17  1  0
 16 12  1  0
 17 18  1  0
 18 24  1  0
 18 19  1  6
 20 19  1  0
 21 20  1  0
 22 21  1  0
 23 22  1  0
 24 25  2  0
 24 26  1  0
M  END
$$$$
