PEK.pdb
     RDKit          3D

 26 26  0  0  1  0  0  0  0  0999 V2000
   25.0168  -22.1437  -14.8710 N   0  0  0  0  0  0  0  0  0  0  0  0
   24.9117  -21.1808  -15.9334 C   0  0  0  0  0  0  0  0  0  0  0  0
   25.5185  -19.9213  -15.3683 C   0  0  0  0  0  0  0  0  0  0  0  0
   25.5901  -20.0937  -13.8931 C   0  0  0  0  0  0  0  0  0  0  0  0
   24.8876  -21.4071  -13.6609 C   0  0  1  0  0  0  0  0  0  0  0  0
   23.4579  -21.1245  -13.3602 C   0  0  0  0  0  0  0  0  0  0  0  0
   23.1368  -20.3804  -12.3693 O   0  0  0  0  0  0  0  0  0  0  0  0
   22.3598  -21.6363  -14.1192 N   0  0  0  0  0  0  0  0  0  0  0  0
   21.0112  -21.4015  -13.7660 C   0  0  1  0  0  0  0  0  0  0  0  0
   20.2063  -20.4355  -14.5134 C   0  0  0  0  0  0  0  0  0  0  0  0
   18.7885  -20.2308  -14.1392 C   0  0  0  0  0  0  0  0  0  0  0  0
   18.0258  -19.3549  -15.0573 C   0  0  0  0  0  0  0  0  0  0  0  0
   17.5021  -19.8338  -16.0903 O   0  0  0  0  0  0  0  0  0  0  0  0
   20.2672  -22.6154  -13.2583 C   0  0  0  0  0  0  0  0  0  0  0  0
   20.1530  -23.6419  -13.9339 O   0  0  0  0  0  0  0  0  0  0  0  0
   17.8796  -18.0008  -14.7901 O   0  0  0  0  0  0  0  0  0  0  0  0
   19.6938  -22.5281  -11.9682 N   0  0  0  0  0  0  0  0  0  0  0  0
   18.9950  -23.4999  -11.2435 C   0  0  1  0  0  0  0  0  0  0  0  0
   19.0439  -23.5315   -9.7703 C   0  0  0  0  0  0  0  0  0  0  0  0
   18.3948  -24.6566   -9.0705 C   0  0  0  0  0  0  0  0  0  0  0  0
   18.4959  -24.6333   -7.5921 C   0  0  0  0  0  0  0  0  0  0  0  0
   17.7674  -25.7523   -6.8861 C   0  0  0  0  0  0  0  0  0  0  0  0
   17.9104  -25.7121   -5.4739 N   0  0  0  0  0  0  0  0  0  0  0  0
   17.5509  -23.6398  -11.6423 C   0  0  0  0  0  0  0  0  0  0  0  0
   16.8133  -22.6601  -11.6388 O   0  0  0  0  0  0  0  0  0  0  0  0
   17.0474  -24.8710  -12.0132 O   0  0  0  0  0  0  0  0  0  0  0  0
  2  1  1  0
  3  2  1  0
  4  5  1  0
  4  3  1  0
  5  1  1  0
  5  6  1  6
  6  8  1  0
  7  6  2  0
  8  9  1  0
  9 14  1  0
  9 10  1  6
 11 10  1  0
 12 11  1  0
 13 12  2  0
 14 15  2  0
 14 17  1  0
 16 12  1  0
 17 18  1  0
 18 24  1  0
 18 19  1  1
 20 19  1  0
 21 20  1  0
 22 21  1  0
 23 22  1  0
 24 25  2  0
 24 26  1  0
M  END
$$$$
