PEK.pdb
     RDKit          3D

 26 26  0  0  1  0  0  0  0  0999 V2000
   21.4001  -12.3009  -17.8852 N   0  0  0  0  0  0  0  0  0  0  0  0
   20.0351  -12.7507  -17.8451 C   0  0  0  0  0  0  0  0  0  0  0  0
   19.5023  -12.4771  -19.2290 C   0  0  0  0  0  0  0  0  0  0  0  0
   20.4476  -11.5342  -19.8835 C   0  0  0  0  0  0  0  0  0  0  0  0
   21.4224  -11.1982  -18.7838 C   0  0  1  0  0  0  0  0  0  0  0  0
   20.9570   -9.9548  -18.1118 C   0  0  0  0  0  0  0  0  0  0  0  0
   19.7175   -9.6348  -18.1230 O   0  0  0  0  0  0  0  0  0  0  0  0
   21.8155   -9.0437  -17.4214 N   0  0  0  0  0  0  0  0  0  0  0  0
   21.3482   -7.8397  -16.8464 C   0  0  1  0  0  0  0  0  0  0  0  0
   21.9917   -7.2888  -15.6540 C   0  0  0  0  0  0  0  0  0  0  0  0
   21.3515   -6.1594  -14.9421 C   0  0  0  0  0  0  0  0  0  0  0  0
   22.1091   -5.6536  -13.7749 C   0  0  0  0  0  0  0  0  0  0  0  0
   21.9285   -6.1602  -12.6429 O   0  0  0  0  0  0  0  0  0  0  0  0
   20.8312   -6.8218  -17.8372 C   0  0  0  0  0  0  0  0  0  0  0  0
   21.4407   -6.5525  -18.8759 O   0  0  0  0  0  0  0  0  0  0  0  0
   23.0239   -4.6194  -13.9154 O   0  0  0  0  0  0  0  0  0  0  0  0
   19.6123   -6.1765  -17.5227 N   0  0  0  0  0  0  0  0  0  0  0  0
   18.8897   -5.2392  -18.2692 C   0  0  1  0  0  0  0  0  0  0  0  0
   17.4371   -5.3865  -18.4736 C   0  0  0  0  0  0  0  0  0  0  0  0
   16.7687   -4.4873  -19.4337 C   0  0  0  0  0  0  0  0  0  0  0  0
   15.3166   -4.7173  -19.6200 C   0  0  0  0  0  0  0  0  0  0  0  0
   14.6522   -3.8098  -20.6283 C   0  0  0  0  0  0  0  0  0  0  0  0
   13.2458   -3.9899  -20.7045 N   0  0  0  0  0  0  0  0  0  0  0  0
   19.1379   -3.8116  -17.8636 C   0  0  0  0  0  0  0  0  0  0  0  0
   18.7540   -3.4059  -16.7719 O   0  0  0  0  0  0  0  0  0  0  0  0
   19.7977   -2.9500  -18.7176 O   0  0  0  0  0  0  0  0  0  0  0  0
  2  1  1  0
  3  2  1  0
  4  5  1  0
  4  3  1  0
  5  1  1  0
  5  6  1  1
  6  8  1  0
  7  6  2  0
  8  9  1  0
  9 14  1  0
  9 10  1  6
 11 10  1  0
 12 11  1  0
 13 12  2  0
 14 15  2  0
 14 17  1  0
 16 12  1  0
 17 18  1  0
 18 24  1  0
 18 19  1  1
 20 19  1  0
 21 20  1  0
 22 21  1  0
 23 22  1  0
 24 25  2  0
 24 26  1  0
M  END
$$$$
