PEK.pdb
     RDKit          3D

 26 26  0  0  1  0  0  0  0  0999 V2000
   24.8605  -13.0432  -15.4528 N   0  0  0  0  0  0  0  0  0  0  0  0
   23.8485  -14.0534  -15.6015 C   0  0  0  0  0  0  0  0  0  0  0  0
   23.8319  -14.3625  -17.0774 C   0  0  0  0  0  0  0  0  0  0  0  0
   24.5469  -13.2547  -17.7646 C   0  0  0  0  0  0  0  0  0  0  0  0
   24.8287  -12.2779  -16.6515 C   0  0  1  0  0  0  0  0  0  0  0  0
   23.7255  -11.2799  -16.6165 C   0  0  0  0  0  0  0  0  0  0  0  0
   23.4991  -10.5253  -17.6255 O   0  0  0  0  0  0  0  0  0  0  0  0
   22.8547  -11.0822  -15.5000 N   0  0  0  0  0  0  0  0  0  0  0  0
   21.7909  -10.1512  -15.5159 C   0  0  1  0  0  0  0  0  0  0  0  0
   20.4592  -10.5391  -15.0514 C   0  0  0  0  0  0  0  0  0  0  0  0
   19.6431  -11.4575  -15.8778 C   0  0  0  0  0  0  0  0  0  0  0  0
   18.3052  -11.7657  -15.3239 C   0  0  0  0  0  0  0  0  0  0  0  0
   17.3823  -10.9219  -15.4077 O   0  0  0  0  0  0  0  0  0  0  0  0
   22.1924   -8.7233  -15.2246 C   0  0  0  0  0  0  0  0  0  0  0  0
   23.0274   -8.4424  -14.3605 O   0  0  0  0  0  0  0  0  0  0  0  0
   18.0541  -12.9842  -14.7087 O   0  0  0  0  0  0  0  0  0  0  0  0
   21.5630   -7.7085  -15.9830 N   0  0  0  0  0  0  0  0  0  0  0  0
   21.7543   -6.3232  -15.9373 C   0  0  1  0  0  0  0  0  0  0  0  0
   21.3045   -5.4565  -17.0419 C   0  0  0  0  0  0  0  0  0  0  0  0
   21.6849   -4.0311  -17.0152 C   0  0  0  0  0  0  0  0  0  0  0  0
   21.2491   -3.2315  -18.1843 C   0  0  0  0  0  0  0  0  0  0  0  0
   21.6800   -1.7840  -18.1623 C   0  0  0  0  0  0  0  0  0  0  0  0
   21.1232   -1.0165  -19.2193 N   0  0  0  0  0  0  0  0  0  0  0  0
   21.2924   -5.6838  -14.6558 C   0  0  0  0  0  0  0  0  0  0  0  0
   20.1861   -5.9499  -14.1986 O   0  0  0  0  0  0  0  0  0  0  0  0
   22.1101   -4.7937  -13.9879 O   0  0  0  0  0  0  0  0  0  0  0  0
  2  1  1  0
  3  2  1  0
  4  5  1  0
  4  3  1  0
  5  1  1  0
  5  6  1  1
  6  8  1  0
  7  6  2  0
  8  9  1  0
  9 14  1  0
  9 10  1  1
 11 10  1  0
 12 11  1  0
 13 12  2  0
 14 15  2  0
 14 17  1  0
 16 12  1  0
 17 18  1  0
 18 24  1  0
 18 19  1  6
 20 19  1  0
 21 20  1  0
 22 21  1  0
 23 22  1  0
 24 25  2  0
 24 26  1  0
M  END
$$$$
