PSV.pdb
     RDKit          3D

 21 21  0  0  1  0  0  0  0  0999 V2000
   22.4392  -11.5013  -20.6626 N   0  0  0  0  0  0  0  0  0  0  0  0
   22.6683  -12.4478  -21.7483 C   0  0  0  0  0  0  0  0  0  0  0  0
   24.1372  -12.7645  -21.7491 C   0  0  0  0  0  0  0  0  0  0  0  0
   24.7020  -11.8436  -20.7069 C   0  0  0  0  0  0  0  0  0  0  0  0
   23.5170  -11.7362  -19.7461 C   0  0  1  0  0  0  0  0  0  0  0  0
   23.7792  -10.6405  -18.8105 C   0  0  0  0  0  0  0  0  0  0  0  0
   24.7073  -10.8457  -17.9564 O   0  0  0  0  0  0  0  0  0  0  0  0
   24.3525   -6.1014  -18.0770 O   0  0  0  0  0  0  0  0  0  0  0  0
   23.9697   -7.1929  -18.8201 C   0  0  0  0  0  0  0  0  0  0  0  0
   23.5354   -8.3585  -17.9215 C   0  0  2  0  0  0  0  0  0  0  0  0
   23.0801   -9.4053  -18.8033 N   0  0  0  0  0  0  0  0  0  0  0  0
   22.4796   -7.9101  -16.9838 C   0  0  0  0  0  0  0  0  0  0  0  0
   21.3095   -7.8082  -17.4327 O   0  0  0  0  0  0  0  0  0  0  0  0
   22.7646   -8.5267  -12.9501 C   0  0  0  0  0  0  0  0  0  0  0  0
   21.4561   -8.2224  -13.6037 C   0  0  1  0  0  0  0  0  0  0  0  0
   20.3823   -7.7952  -12.6324 C   0  0  0  0  0  0  0  0  0  0  0  0
   21.6773   -7.2125  -14.7001 C   0  0  2  0  0  0  0  0  0  0  0  0
   22.6987   -7.5909  -15.6253 N   0  0  0  0  0  0  0  0  0  0  0  0
   22.0143   -5.9141  -14.0921 C   0  0  0  0  0  0  0  0  0  0  0  0
   21.0251   -5.1476  -13.5219 O   0  0  0  0  0  0  0  0  0  0  0  0
   23.1904   -5.5018  -14.0890 O   0  0  0  0  0  0  0  0  0  0  0  0
  1  2  1  0
  3  2  1  0
  4  5  1  0
  4  3  1  0
  5  1  1  0
  5  6  1  1
  6 11  1  0
  7  6  2  0
  8  9  1  0
 10 11  1  0
 10 12  1  0
 10  9  1  6
 12 13  2  0
 12 18  1  0
 15 16  1  1
 15 14  1  0
 17 15  1  0
 17 18  1  6
 19 20  1  0
 19 17  1  0
 21 19  2  0
M  END
$$$$
