PSV.pdb
     RDKit          3D

 21 21  0  0  1  0  0  0  0  0999 V2000
   25.3747  -22.2529  -13.0207 N   0  0  0  0  0  0  0  0  0  0  0  0
   25.1058  -22.3546  -14.4506 C   0  0  0  0  0  0  0  0  0  0  0  0
   25.6893  -21.1279  -15.0931 C   0  0  0  0  0  0  0  0  0  0  0  0
   26.1595  -20.3042  -13.9296 C   0  0  0  0  0  0  0  0  0  0  0  0
   26.5257  -21.4022  -12.9299 C   0  0  1  0  0  0  0  0  0  0  0  0
   26.7313  -20.7828  -11.6189 C   0  0  0  0  0  0  0  0  0  0  0  0
   27.6874  -19.9382  -11.5442 O   0  0  0  0  0  0  0  0  0  0  0  0
   23.9076  -21.0881   -8.5933 O   0  0  0  0  0  0  0  0  0  0  0  0
   24.5004  -19.9058   -8.9686 C   0  0  0  0  0  0  0  0  0  0  0  0
   25.9644  -20.1176   -9.3769 C   0  0  2  0  0  0  0  0  0  0  0  0
   25.9510  -21.0623  -10.4667 N   0  0  0  0  0  0  0  0  0  0  0  0
   26.7493  -20.6026   -8.2177 C   0  0  0  0  0  0  0  0  0  0  0  0
   26.8034  -21.8451   -8.0322 O   0  0  0  0  0  0  0  0  0  0  0  0
   28.5558  -17.9636   -5.3089 C   0  0  0  0  0  0  0  0  0  0  0  0
   29.1952  -19.2644   -5.6711 C   0  0  1  0  0  0  0  0  0  0  0  0
   30.0433  -19.8472   -4.5665 C   0  0  0  0  0  0  0  0  0  0  0  0
   28.1311  -20.2197   -6.1465 C   0  0  2  0  0  0  0  0  0  0  0  0
   27.4379  -19.7663   -7.3112 N   0  0  0  0  0  0  0  0  0  0  0  0
   27.1703  -20.4462   -5.0536 C   0  0  0  0  0  0  0  0  0  0  0  0
   27.5812  -21.0697   -3.8988 O   0  0  0  0  0  0  0  0  0  0  0  0
   25.9850  -20.0775   -5.1650 O   0  0  0  0  0  0  0  0  0  0  0  0
  1  2  1  0
  3  2  1  0
  4  5  1  0
  4  3  1  0
  5  1  1  0
  5  6  1  1
  6 11  1  0
  7  6  2  0
  8  9  1  0
 10 11  1  0
 10 12  1  0
 10  9  1  1
 12 13  2  0
 12 18  1  0
 15 16  1  1
 15 14  1  0
 17 15  1  0
 17 18  1  6
 19 20  1  0
 19 17  1  0
 21 19  2  0
M  END
$$$$
