PSV.pdb
     RDKit          3D

 21 21  0  0  1  0  0  0  0  0999 V2000
   22.8517  -18.6871  -16.3451 N   0  0  0  0  0  0  0  0  0  0  0  0
   22.2780  -18.4555  -17.6659 C   0  0  0  0  0  0  0  0  0  0  0  0
   22.4340  -19.7340  -18.4401 C   0  0  0  0  0  0  0  0  0  0  0  0
   23.2362  -20.6113  -17.5235 C   0  0  0  0  0  0  0  0  0  0  0  0
   22.7661  -20.1065  -16.1586 C   0  0  1  0  0  0  0  0  0  0  0  0
   23.6607  -20.6475  -15.1331 C   0  0  0  0  0  0  0  0  0  0  0  0
   23.0936  -21.2467  -14.1572 O   0  0  0  0  0  0  0  0  0  0  0  0
   28.1132  -21.7573  -13.6265 O   0  0  0  0  0  0  0  0  0  0  0  0
   27.2806  -21.2537  -14.5977 C   0  0  0  0  0  0  0  0  0  0  0  0
   25.8369  -21.1343  -14.0917 C   0  0  2  0  0  0  0  0  0  0  0  0
   25.0760  -20.5446  -15.1658 N   0  0  0  0  0  0  0  0  0  0  0  0
   25.7981  -20.3174  -12.8563 C   0  0  0  0  0  0  0  0  0  0  0  0
   25.8512  -19.0676  -12.9849 O   0  0  0  0  0  0  0  0  0  0  0  0
   23.3084  -20.1536  -10.1210 C   0  0  0  0  0  0  0  0  0  0  0  0
   24.6030  -20.3710   -9.4078 C   0  0  1  0  0  0  0  0  0  0  0  0
   24.7214  -21.7375   -8.7771 C   0  0  0  0  0  0  0  0  0  0  0  0
   25.7400  -20.0701  -10.3501 C   0  0  2  0  0  0  0  0  0  0  0  0
   25.7060  -20.8462  -11.5497 N   0  0  0  0  0  0  0  0  0  0  0  0
   27.0145  -20.2968   -9.6479 C   0  0  0  0  0  0  0  0  0  0  0  0
   27.3106  -19.5743   -8.5159 O   0  0  0  0  0  0  0  0  0  0  0  0
   27.8298  -21.1393  -10.0705 O   0  0  0  0  0  0  0  0  0  0  0  0
  1  2  1  0
  3  2  1  0
  4  5  1  0
  4  3  1  0
  5  1  1  0
  5  6  1  1
  6 11  1  0
  7  6  2  0
  8  9  1  0
 10 11  1  0
 10 12  1  0
 10  9  1  6
 12 13  2  0
 12 18  1  0
 15 16  1  6
 15 14  1  0
 17 15  1  0
 17 18  1  6
 19 20  1  0
 19 17  1  0
 21 19  2  0
M  END
$$$$
