PSV.pdb
     RDKit          3D

 21 21  0  0  1  0  0  0  0  0999 V2000
   19.6545  -12.6439  -16.3906 N   0  0  0  0  0  0  0  0  0  0  0  0
   19.3184  -13.9677  -16.9020 C   0  0  0  0  0  0  0  0  0  0  0  0
   18.4597  -13.7613  -18.1179 C   0  0  0  0  0  0  0  0  0  0  0  0
   18.2404  -12.2767  -18.1527 C   0  0  0  0  0  0  0  0  0  0  0  0
   19.5453  -11.7790  -17.5294 C   0  0  1  0  0  0  0  0  0  0  0  0
   19.3921  -10.3579  -17.2106 C   0  0  0  0  0  0  0  0  0  0  0  0
   19.3904   -9.5590  -18.2079 O   0  0  0  0  0  0  0  0  0  0  0  0
   18.0423   -8.8893  -13.6089 O   0  0  0  0  0  0  0  0  0  0  0  0
   17.8634   -8.2363  -14.8054 C   0  0  0  0  0  0  0  0  0  0  0  0
   19.0748   -8.4179  -15.7297 C   0  0  2  0  0  0  0  0  0  0  0  0
   19.2504   -9.8398  -15.8968 N   0  0  0  0  0  0  0  0  0  0  0  0
   20.2667   -7.7667  -15.1378 C   0  0  0  0  0  0  0  0  0  0  0  0
   21.0039   -8.4673  -14.3983 O   0  0  0  0  0  0  0  0  0  0  0  0
   23.6274   -4.1923  -15.2063 C   0  0  0  0  0  0  0  0  0  0  0  0
   22.4847   -4.8949  -15.8641 C   0  0  1  0  0  0  0  0  0  0  0  0
   22.8701   -5.6132  -17.1348 C   0  0  0  0  0  0  0  0  0  0  0  0
   21.8266   -5.8080  -14.8621 C   0  0  2  0  0  0  0  0  0  0  0  0
   20.6287   -6.4175  -15.3479 N   0  0  0  0  0  0  0  0  0  0  0  0
   21.5331   -5.0419  -13.6390 C   0  0  0  0  0  0  0  0  0  0  0  0
   22.5247   -4.8282  -12.7104 O   0  0  0  0  0  0  0  0  0  0  0  0
   20.3919   -4.5840  -13.4364 O   0  0  0  0  0  0  0  0  0  0  0  0
  1  2  1  0
  3  2  1  0
  4  5  1  0
  4  3  1  0
  5  1  1  0
  5  6  1  1
  6 11  1  0
  7  6  2  0
  8  9  1  0
 10 11  1  0
 10 12  1  0
 10  9  1  1
 12 13  2  0
 12 18  1  0
 15 16  1  6
 15 14  1  0
 17 15  1  0
 17 18  1  6
 19 20  1  0
 19 17  1  0
 21 19  2  0
M  END
$$$$
