PSV.pdb
     RDKit          3D

 21 21  0  0  1  0  0  0  0  0999 V2000
   19.2152  -12.4501  -16.1202 N   0  0  0  0  0  0  0  0  0  0  0  0
   18.7534  -13.6145  -16.8672 C   0  0  0  0  0  0  0  0  0  0  0  0
   17.8001  -13.1118  -17.9144 C   0  0  0  0  0  0  0  0  0  0  0  0
   17.6691  -11.6486  -17.6056 C   0  0  0  0  0  0  0  0  0  0  0  0
   19.0538  -11.3519  -17.0283 C   0  0  1  0  0  0  0  0  0  0  0  0
   19.0173  -10.0312  -16.3966 C   0  0  0  0  0  0  0  0  0  0  0  0
   19.0342   -9.0312  -17.1921 O   0  0  0  0  0  0  0  0  0  0  0  0
   17.8333   -7.3288  -12.6366 O   0  0  0  0  0  0  0  0  0  0  0  0
   17.8638   -8.5214  -13.3201 C   0  0  0  0  0  0  0  0  0  0  0  0
   18.8284   -8.4597  -14.5120 C   0  0  2  0  0  0  0  0  0  0  0  0
   18.9660   -9.8117  -14.9953 N   0  0  0  0  0  0  0  0  0  0  0  0
   20.1225   -7.8763  -14.0878 C   0  0  0  0  0  0  0  0  0  0  0  0
   20.8895   -8.6009  -13.4038 O   0  0  0  0  0  0  0  0  0  0  0  0
   23.2204   -7.0898  -15.6080 C   0  0  0  0  0  0  0  0  0  0  0  0
   22.7663   -5.7645  -15.0890 C   0  0  1  0  0  0  0  0  0  0  0  0
   22.2239   -4.8510  -16.1616 C   0  0  0  0  0  0  0  0  0  0  0  0
   21.7832   -5.9860  -13.9685 C   0  0  2  0  0  0  0  0  0  0  0  0
   20.5503   -6.5666  -14.3990 N   0  0  0  0  0  0  0  0  0  0  0  0
   21.5203   -4.6988  -13.3028 C   0  0  0  0  0  0  0  0  0  0  0  0
   22.5095   -4.0968  -12.5612 O   0  0  0  0  0  0  0  0  0  0  0  0
   20.4070   -4.1481  -13.4052 O   0  0  0  0  0  0  0  0  0  0  0  0
  1  2  1  0
  3  2  1  0
  4  5  1  0
  4  3  1  0
  5  1  1  0
  5  6  1  1
  6 11  1  0
  7  6  2  0
  8  9  1  0
 10 11  1  0
 10 12  1  0
 10  9  1  1
 12 13  2  0
 12 18  1  0
 15 16  1  6
 15 14  1  0
 17 15  1  0
 17 18  1  6
 19 20  1  0
 19 17  1  0
 21 19  2  0
M  END
$$$$
