PSV.pdb
     RDKit          3D

 21 21  0  0  1  0  0  0  0  0999 V2000
   17.7890  -15.3842  -15.9095 N   0  0  0  0  0  0  0  0  0  0  0  0
   16.8977  -16.5338  -16.0154 C   0  0  0  0  0  0  0  0  0  0  0  0
   16.3022  -16.4993  -17.3947 C   0  0  0  0  0  0  0  0  0  0  0  0
   16.8084  -15.2087  -17.9704 C   0  0  0  0  0  0  0  0  0  0  0  0
   18.1592  -15.0891  -17.2632 C   0  0  1  0  0  0  0  0  0  0  0  0
   18.6751  -13.7356  -17.4792 C   0  0  0  0  0  0  0  0  0  0  0  0
   19.3526  -13.5604  -18.5484 O   0  0  0  0  0  0  0  0  0  0  0  0
   18.3509   -9.2617  -17.8555 O   0  0  0  0  0  0  0  0  0  0  0  0
   17.9299  -10.5394  -17.5719 C   0  0  0  0  0  0  0  0  0  0  0  0
   19.0478  -11.3671  -16.9238 C   0  0  2  0  0  0  0  0  0  0  0  0
   18.4687  -12.6461  -16.5933 N   0  0  0  0  0  0  0  0  0  0  0  0
   19.5768  -10.6613  -15.7335 C   0  0  0  0  0  0  0  0  0  0  0  0
   18.9114  -10.7387  -14.6693 O   0  0  0  0  0  0  0  0  0  0  0  0
   22.8289  -10.9515  -13.7293 C   0  0  0  0  0  0  0  0  0  0  0  0
   22.7426   -9.5685  -14.2879 C   0  0  1  0  0  0  0  0  0  0  0  0
   23.6281   -9.3481  -15.4906 C   0  0  0  0  0  0  0  0  0  0  0  0
   21.2985   -9.2401  -14.5666 C   0  0  2  0  0  0  0  0  0  0  0  0
   20.7733   -9.9107  -15.7142 N   0  0  0  0  0  0  0  0  0  0  0  0
   21.1649   -7.7835  -14.7382 C   0  0  0  0  0  0  0  0  0  0  0  0
   20.7982   -7.2686  -15.9595 O   0  0  0  0  0  0  0  0  0  0  0  0
   21.3814   -7.0105  -13.7848 O   0  0  0  0  0  0  0  0  0  0  0  0
  1  2  1  0
  3  2  1  0
  4  5  1  0
  4  3  1  0
  5  1  1  0
  5  6  1  1
  6 11  1  0
  7  6  2  0
  8  9  1  0
 10 11  1  0
 10 12  1  0
 10  9  1  1
 12 13  2  0
 12 18  1  0
 15 16  1  6
 15 14  1  0
 17 15  1  0
 17 18  1  6
 19 20  1  0
 19 17  1  0
 21 19  2  0
M  END
$$$$
