ACV.pdb
     RDKit          3D

 19 18  0  0  1  0  0  0  0  0999 V2000
   22.2916  -10.4516  -18.5901 C   0  0  0  0  0  0  0  0  0  0  0  0
   21.1297  -10.9496  -17.7718 C   0  0  2  0  0  0  0  0  0  0  0  0
   20.1372  -11.5994  -18.5706 N   0  0  0  0  0  0  0  0  0  0  0  0
   20.5187   -9.8356  -16.9688 C   0  0  0  0  0  0  0  0  0  0  0  0
   19.9335   -8.8842  -17.5426 O   0  0  0  0  0  0  0  0  0  0  0  0
   20.5738   -9.8074  -15.5488 N   0  0  0  0  0  0  0  0  0  0  0  0
   20.0144   -8.6897  -14.8208 C   0  0  1  0  0  0  0  0  0  0  0  0
   19.4395   -9.2380  -13.5302 C   0  0  0  0  0  0  0  0  0  0  0  0
   19.0789   -7.9516  -12.3372 S   0  0  0  0  0  0  0  0  0  0  0  0
   21.0905   -7.7069  -14.4452 C   0  0  0  0  0  0  0  0  0  0  0  0
   22.1542   -8.1449  -13.9463 O   0  0  0  0  0  0  0  0  0  0  0  0
   22.8379   -3.2926  -15.2614 C   0  0  0  0  0  0  0  0  0  0  0  0
   22.5746   -4.7441  -15.5190 C   0  0  2  0  0  0  0  0  0  0  0  0
   21.6772   -4.9258  -16.7269 C   0  0  0  0  0  0  0  0  0  0  0  0
   21.9636   -5.3632  -14.2838 C   0  0  2  0  0  0  0  0  0  0  0  0
   20.9384   -6.3248  -14.6360 N   0  0  0  0  0  0  0  0  0  0  0  0
   21.4039   -4.3725  -13.3540 C   0  0  0  0  0  0  0  0  0  0  0  0
   22.2230   -3.5790  -12.5660 O   0  0  0  0  0  0  0  0  0  0  0  0
   20.1629   -4.2129  -13.2434 O   0  0  0  0  0  0  0  0  0  0  0  0
  2  1  1  6
  2  3  1  0
  4  2  1  0
  5  4  2  0
  6  4  1  0
  7  6  1  0
  7  8  1  1
  8  9  1  0
 10 16  1  0
 10  7  1  0
 11 10  2  0
 13 12  1  1
 13 14  1  0
 15 13  1  0
 15 16  1  6
 17 15  1  0
 17 18  1  0
 19 17  2  0
M  END
$$$$
