ACV.pdb
     RDKit          3D

 19 18  0  0  1  0  0  0  0  0999 V2000
   18.9217  -21.6562   -9.8447 C   0  0  0  0  0  0  0  0  0  0  0  0
   18.7569  -22.9671  -10.5672 C   0  0  2  0  0  0  0  0  0  0  0  0
   18.0950  -22.8180  -11.8261 N   0  0  0  0  0  0  0  0  0  0  0  0
   18.0415  -23.9708   -9.7070 C   0  0  0  0  0  0  0  0  0  0  0  0
   16.7924  -23.9284   -9.5844 O   0  0  0  0  0  0  0  0  0  0  0  0
   18.7323  -24.9957   -9.0052 N   0  0  0  0  0  0  0  0  0  0  0  0
   17.9964  -25.9704   -8.2303 C   0  0  1  0  0  0  0  0  0  0  0  0
   18.5713  -27.3330   -8.5615 C   0  0  0  0  0  0  0  0  0  0  0  0
   18.7120  -27.6094  -10.3255 S   0  0  0  0  0  0  0  0  0  0  0  0
   18.2053  -25.7467   -6.7568 C   0  0  0  0  0  0  0  0  0  0  0  0
   19.2657  -25.1943   -6.3792 O   0  0  0  0  0  0  0  0  0  0  0  0
   16.1909  -25.0356   -2.3836 C   0  0  0  0  0  0  0  0  0  0  0  0
   16.0255  -25.3856   -3.8302 C   0  0  2  0  0  0  0  0  0  0  0  0
   14.9934  -26.4812   -4.0079 C   0  0  0  0  0  0  0  0  0  0  0  0
   17.3646  -25.7965   -4.3963 C   0  0  2  0  0  0  0  0  0  0  0  0
   17.2543  -26.1357   -5.8008 N   0  0  0  0  0  0  0  0  0  0  0  0
   17.9825  -26.9157   -3.6717 C   0  0  0  0  0  0  0  0  0  0  0  0
   18.7095  -26.7094   -2.5096 O   0  0  0  0  0  0  0  0  0  0  0  0
   17.8713  -28.0973   -4.0831 O   0  0  0  0  0  0  0  0  0  0  0  0
  2  1  1  1
  2  3  1  0
  4  2  1  0
  5  4  2  0
  6  4  1  0
  7  6  1  0
  7  8  1  6
  8  9  1  0
 10 16  1  0
 10  7  1  0
 11 10  2  0
 13 12  1  1
 13 14  1  0
 15 13  1  0
 15 16  1  6
 17 15  1  0
 17 18  1  0
 19 17  2  0
M  END
$$$$
