ACV.pdb
     RDKit          3D

 19 18  0  0  1  0  0  0  0  0999 V2000
   18.6378  -15.3472  -18.2494 C   0  0  0  0  0  0  0  0  0  0  0  0
   19.1258  -14.7409  -16.9603 C   0  0  2  0  0  0  0  0  0  0  0  0
   18.3242  -15.1219  -15.8390 N   0  0  0  0  0  0  0  0  0  0  0  0
   19.2120  -13.2440  -17.0670 C   0  0  0  0  0  0  0  0  0  0  0  0
   19.9900  -12.7088  -17.8948 O   0  0  0  0  0  0  0  0  0  0  0  0
   18.4317  -12.3806  -16.2511 N   0  0  0  0  0  0  0  0  0  0  0  0
   18.5114  -10.9468  -16.4244 C   0  0  1  0  0  0  0  0  0  0  0  0
   17.1021  -10.4020  -16.3060 C   0  0  0  0  0  0  0  0  0  0  0  0
   16.0573  -10.8949  -17.6747 S   0  0  0  0  0  0  0  0  0  0  0  0
   19.3231  -10.3216  -15.3220 C   0  0  0  0  0  0  0  0  0  0  0  0
   18.9813  -10.5309  -14.1339 O   0  0  0  0  0  0  0  0  0  0  0  0
   23.1912   -8.9465  -16.1173 C   0  0  0  0  0  0  0  0  0  0  0  0
   22.7452   -9.4455  -14.7777 C   0  0  2  0  0  0  0  0  0  0  0  0
   22.8916  -10.9511  -14.6843 C   0  0  0  0  0  0  0  0  0  0  0  0
   21.3158   -9.0178  -14.5408 C   0  0  2  0  0  0  0  0  0  0  0  0
   20.4430   -9.5173  -15.5841 N   0  0  0  0  0  0  0  0  0  0  0  0
   21.1567   -7.5612  -14.4281 C   0  0  0  0  0  0  0  0  0  0  0  0
   21.5712   -6.8754  -13.2971 O   0  0  0  0  0  0  0  0  0  0  0  0
   20.6390   -6.8901  -15.3551 O   0  0  0  0  0  0  0  0  0  0  0  0
  2  1  1  6
  2  3  1  0
  4  2  1  0
  5  4  2  0
  6  4  1  0
  7  6  1  0
  7  8  1  1
  8  9  1  0
 10 16  1  0
 10  7  1  0
 11 10  2  0
 13 12  1  6
 13 14  1  0
 15 13  1  0
 15 16  1  6
 17 15  1  0
 17 18  1  0
 19 17  2  0
M  END
$$$$
