ACV.pdb
     RDKit          3D

 19 18  0  0  1  0  0  0  0  0999 V2000
   13.7522  -12.3483  -12.4895 C   0  0  0  0  0  0  0  0  0  0  0  0
   15.1971  -12.2382  -12.8991 C   0  0  2  0  0  0  0  0  0  0  0  0
   15.8982  -13.4778  -12.7685 N   0  0  0  0  0  0  0  0  0  0  0  0
   15.8942  -11.1507  -12.1307 C   0  0  0  0  0  0  0  0  0  0  0  0
   16.2517  -11.3402  -10.9419 O   0  0  0  0  0  0  0  0  0  0  0  0
   16.1762   -9.8806  -12.7030 N   0  0  0  0  0  0  0  0  0  0  0  0
   16.8704   -8.8728  -11.9319 C   0  0  1  0  0  0  0  0  0  0  0  0
   17.8630   -8.2026  -12.8606 C   0  0  0  0  0  0  0  0  0  0  0  0
   18.6894   -6.8105  -12.0945 S   0  0  0  0  0  0  0  0  0  0  0  0
   15.9143   -7.8096  -11.4623 C   0  0  0  0  0  0  0  0  0  0  0  0
   15.0483   -7.3861  -12.2642 O   0  0  0  0  0  0  0  0  0  0  0  0
   15.3675   -6.8014   -7.3587 C   0  0  0  0  0  0  0  0  0  0  0  0
   14.3759   -6.5630   -8.4551 C   0  0  2  0  0  0  0  0  0  0  0  0
   13.4978   -7.7802   -8.6655 C   0  0  0  0  0  0  0  0  0  0  0  0
   15.1153   -6.1949   -9.7200 C   0  0  2  0  0  0  0  0  0  0  0  0
   15.9641   -7.2828  -10.1624 N   0  0  0  0  0  0  0  0  0  0  0  0
   15.9195   -4.9721   -9.5875 C   0  0  0  0  0  0  0  0  0  0  0  0
   15.3241   -3.7250   -9.4794 O   0  0  0  0  0  0  0  0  0  0  0  0
   17.1745   -5.0182   -9.5679 O   0  0  0  0  0  0  0  0  0  0  0  0
  2  1  1  1
  2  3  1  0
  4  2  1  0
  5  4  2  0
  6  4  1  0
  7  6  1  0
  7  8  1  6
  8  9  1  0
 10 16  1  0
 10  7  1  0
 11 10  2  0
 13 12  1  1
 13 14  1  0
 15 13  1  0
 15 16  1  1
 17 15  1  0
 17 18  1  0
 19 17  2  0
M  END
$$$$
