ACV.pdb
     RDKit          3D

 19 18  0  0  1  0  0  0  0  0999 V2000
   20.6945  -11.7759  -20.5794 C   0  0  0  0  0  0  0  0  0  0  0  0
   21.4062  -12.1682  -19.3116 C   0  0  2  0  0  0  0  0  0  0  0  0
   21.2379  -13.5529  -18.9964 N   0  0  0  0  0  0  0  0  0  0  0  0
   20.9721  -11.3052  -18.1601 C   0  0  0  0  0  0  0  0  0  0  0  0
   19.8558  -11.4866  -17.6143 O   0  0  0  0  0  0  0  0  0  0  0  0
   21.7895  -10.2629  -17.6448 N   0  0  0  0  0  0  0  0  0  0  0  0
   21.3257   -9.4531  -16.5397 C   0  0  1  0  0  0  0  0  0  0  0  0
   22.4922   -9.2845  -15.5869 C   0  0  0  0  0  0  0  0  0  0  0  0
   22.1359   -8.1347  -14.2608 S   0  0  0  0  0  0  0  0  0  0  0  0
   20.9372   -8.0784  -17.0133 C   0  0  0  0  0  0  0  0  0  0  0  0
   21.6934   -7.4868  -17.8199 O   0  0  0  0  0  0  0  0  0  0  0  0
   17.0166   -6.7647  -17.2411 C   0  0  0  0  0  0  0  0  0  0  0  0
   18.1933   -6.1897  -17.9670 C   0  0  2  0  0  0  0  0  0  0  0  0
   18.5220   -7.0078  -19.1998 C   0  0  0  0  0  0  0  0  0  0  0  0
   19.3717   -6.1214  -17.0240 C   0  0  2  0  0  0  0  0  0  0  0  0
   19.7618   -7.4448  -16.5813 N   0  0  0  0  0  0  0  0  0  0  0  0
   19.1293   -5.2674  -15.8530 C   0  0  0  0  0  0  0  0  0  0  0  0
   18.9910   -5.8060  -14.5833 O   0  0  0  0  0  0  0  0  0  0  0  0
   19.0395   -4.0196  -15.9656 O   0  0  0  0  0  0  0  0  0  0  0  0
  2  1  1  6
  2  3  1  0
  4  2  1  0
  5  4  2  0
  6  4  1  0
  7  6  1  0
  7  8  1  1
  8  9  1  0
 10 16  1  0
 10  7  1  0
 11 10  2  0
 13 12  1  1
 13 14  1  0
 15 13  1  0
 15 16  1  1
 17 15  1  0
 17 18  1  0
 19 17  2  0
M  END
$$$$
