GIP.pdb
     RDKit          3D

 20 20  0  0  1  0  0  0  0  0999 V2000
    6.8022  -20.0257   28.6251 N   0  0  0  0  0  0  0  0  0  0  0  0
    7.8528  -19.5290   27.7916 C   0  0  0  0  0  0  0  0  0  0  0  0
    7.5709  -18.1398   27.3171 C   0  0  0  0  0  0  0  0  0  0  0  0
    6.3926  -17.8851   26.9681 O   0  0  0  0  0  0  0  0  0  0  0  0
   10.1393  -14.1160   29.4251 C   0  0  0  0  0  0  0  0  0  0  0  0
    9.1933  -14.9696   28.6461 C   0  0  0  0  0  0  0  0  0  0  0  0
    9.5924  -15.0523   27.1712 C   0  0  2  0  0  0  0  0  0  0  0  0
    9.6733  -13.6920   26.5652 C   0  0  0  0  0  0  0  0  0  0  0  0
    8.5790  -15.9721   26.5204 C   0  0  2  0  0  0  0  0  0  0  0  0
    8.6419  -17.2327   27.2991 N   0  0  0  0  0  0  0  0  0  0  0  0
    8.7888  -16.2494   25.0975 C   0  0  0  0  0  0  0  0  0  0  0  0
    9.7285  -17.1192   24.8245 O   0  0  0  0  0  0  0  0  0  0  0  0
    8.1317  -15.7296   23.9798 N   0  0  0  0  0  0  0  0  0  0  0  0
    6.9886  -14.7907   24.1600 C   0  0  0  0  0  0  0  0  0  0  0  0
    7.2080  -13.8768   22.9738 C   0  0  0  0  0  0  0  0  0  0  0  0
    7.3322  -14.9486   21.8838 C   0  0  0  0  0  0  0  0  0  0  0  0
    8.3112  -15.9123   22.5825 C   0  0  1  0  0  0  0  0  0  0  0  0
    9.6457  -15.4778   22.0991 C   0  0  0  0  0  0  0  0  0  0  0  0
   10.0518  -15.7906   20.8323 O   0  0  0  0  0  0  0  0  0  0  0  0
   10.3833  -14.8314   22.8601 O   0  0  0  0  0  0  0  0  0  0  0  0
  2  1  1  0
  3  2  1  0
  4  3  2  0
  5  6  1  0
  6  7  1  0
  7  9  1  0
  7  8  1  6
  9 11  1  0
  9 10  1  1
 10  3  1  0
 11 13  1  0
 12 11  2  0
 13 17  1  0
 14 13  1  0
 14 15  1  0
 15 16  1  0
 17 18  1  6
 17 16  1  0
 18 19  1  0
 20 18  2  0
M  END
$$$$
