GIP.pdb
     RDKit          3D

 20 20  0  0  1  0  0  0  0  0999 V2000
    5.5118  -19.6434   25.5811 N   0  0  0  0  0  0  0  0  0  0  0  0
    6.2420  -18.5733   26.1868 C   0  0  0  0  0  0  0  0  0  0  0  0
    6.1263  -17.3096   25.3969 C   0  0  0  0  0  0  0  0  0  0  0  0
    5.5355  -17.3805   24.2919 O   0  0  0  0  0  0  0  0  0  0  0  0
    6.2127  -12.3732   27.6835 C   0  0  0  0  0  0  0  0  0  0  0  0
    6.0542  -13.4737   26.6865 C   0  0  0  0  0  0  0  0  0  0  0  0
    7.3972  -13.8774   26.0740 C   0  0  2  0  0  0  0  0  0  0  0  0
    8.0786  -12.6997   25.4636 C   0  0  0  0  0  0  0  0  0  0  0  0
    7.0874  -14.9988   25.1029 C   0  0  2  0  0  0  0  0  0  0  0  0
    6.6852  -16.1472   25.9507 N   0  0  0  0  0  0  0  0  0  0  0  0
    8.1805  -15.3914   24.2105 C   0  0  0  0  0  0  0  0  0  0  0  0
    9.2046  -15.9648   24.7907 O   0  0  0  0  0  0  0  0  0  0  0  0
    8.2963  -15.2530   22.8254 N   0  0  0  0  0  0  0  0  0  0  0  0
    7.2630  -14.4942   22.0656 C   0  0  0  0  0  0  0  0  0  0  0  0
    8.1326  -13.8519   21.0065 C   0  0  0  0  0  0  0  0  0  0  0  0
    8.8653  -15.1097   20.5236 C   0  0  0  0  0  0  0  0  0  0  0  0
    9.2542  -15.7182   21.8851 C   0  0  1  0  0  0  0  0  0  0  0  0
   10.6218  -15.1965   22.1316 C   0  0  0  0  0  0  0  0  0  0  0  0
   11.6836  -15.6968   21.4314 O   0  0  0  0  0  0  0  0  0  0  0  0
   10.7851  -14.3053   22.9802 O   0  0  0  0  0  0  0  0  0  0  0  0
  2  1  1  0
  3  2  1  0
  4  3  2  0
  5  6  1  0
  6  7  1  0
  7  9  1  0
  7  8  1  6
  9 11  1  0
  9 10  1  1
 10  3  1  0
 11 13  1  0
 12 11  2  0
 13 17  1  0
 14 13  1  0
 14 15  1  0
 15 16  1  0
 17 18  1  1
 17 16  1  0
 18 19  1  0
 20 18  2  0
M  END
$$$$
