GIP.pdb
     RDKit          3D

 20 20  0  0  1  0  0  0  0  0999 V2000
    5.9044  -19.7163   26.2444 N   0  0  0  0  0  0  0  0  0  0  0  0
    6.5601  -18.5177   26.6667 C   0  0  0  0  0  0  0  0  0  0  0  0
    6.3057  -17.3872   25.7223 C   0  0  0  0  0  0  0  0  0  0  0  0
    5.6217  -17.6410   24.7012 O   0  0  0  0  0  0  0  0  0  0  0  0
    8.7579  -12.8210   27.5048 C   0  0  0  0  0  0  0  0  0  0  0  0
    8.2866  -14.0663   26.8284 C   0  0  0  0  0  0  0  0  0  0  0  0
    7.1427  -13.7798   25.8532 C   0  0  2  0  0  0  0  0  0  0  0  0
    5.9226  -13.3287   26.5825 C   0  0  0  0  0  0  0  0  0  0  0  0
    6.9605  -15.0497   25.0464 C   0  0  2  0  0  0  0  0  0  0  0  0
    6.8495  -16.1355   26.0504 N   0  0  0  0  0  0  0  0  0  0  0  0
    8.0258  -15.3571   24.0894 C   0  0  0  0  0  0  0  0  0  0  0  0
    9.0822  -15.9461   24.5906 O   0  0  0  0  0  0  0  0  0  0  0  0
    8.0858  -15.1226   22.7137 N   0  0  0  0  0  0  0  0  0  0  0  0
    6.9952  -14.3613   22.0416 C   0  0  0  0  0  0  0  0  0  0  0  0
    7.7985  -13.6130   20.9999 C   0  0  0  0  0  0  0  0  0  0  0  0
    8.5649  -14.8029   20.4091 C   0  0  0  0  0  0  0  0  0  0  0  0
    9.0276  -15.4823   21.7128 C   0  0  1  0  0  0  0  0  0  0  0  0
   10.3804  -14.9186   21.9483 C   0  0  0  0  0  0  0  0  0  0  0  0
   11.4399  -15.3399   21.1950 O   0  0  0  0  0  0  0  0  0  0  0  0
   10.5334  -14.0651   22.8367 O   0  0  0  0  0  0  0  0  0  0  0  0
  2  1  1  0
  3  2  1  0
  4  3  2  0
  5  6  1  0
  6  7  1  0
  7  9  1  0
  7  8  1  1
  9 11  1  0
  9 10  1  1
 10  3  1  0
 11 13  1  0
 12 11  2  0
 13 17  1  0
 14 13  1  0
 14 15  1  0
 15 16  1  0
 17 18  1  1
 17 16  1  0
 18 19  1  0
 20 18  2  0
M  END
$$$$
