GIP.pdb
     RDKit          3D

 20 20  0  0  1  0  0  0  0  0999 V2000
    5.6663  -19.6436   25.7971 N   0  0  0  0  0  0  0  0  0  0  0  0
    6.4260  -18.5098   26.2244 C   0  0  0  0  0  0  0  0  0  0  0  0
    6.2136  -17.3332   25.3272 C   0  0  0  0  0  0  0  0  0  0  0  0
    5.5756  -17.5343   24.2653 O   0  0  0  0  0  0  0  0  0  0  0  0
    8.7745  -12.8661   27.3139 C   0  0  0  0  0  0  0  0  0  0  0  0
    8.3020  -14.0724   26.5709 C   0  0  0  0  0  0  0  0  0  0  0  0
    7.1085  -13.7479   25.6699 C   0  0  2  0  0  0  0  0  0  0  0  0
    5.9181  -13.3638   26.4820 C   0  0  0  0  0  0  0  0  0  0  0  0
    6.9070  -14.9695   24.7961 C   0  0  2  0  0  0  0  0  0  0  0  0
    6.7422  -16.1005   25.7411 N   0  0  0  0  0  0  0  0  0  0  0  0
    7.9837  -15.2607   23.8467 C   0  0  0  0  0  0  0  0  0  0  0  0
    9.0138  -15.9006   24.3403 O   0  0  0  0  0  0  0  0  0  0  0  0
    8.0784  -14.9641   22.4850 N   0  0  0  0  0  0  0  0  0  0  0  0
    7.0116  -14.1608   21.8236 C   0  0  0  0  0  0  0  0  0  0  0  0
    7.8467  -13.3746   20.8364 C   0  0  0  0  0  0  0  0  0  0  0  0
    8.6149  -14.5446   20.2093 C   0  0  0  0  0  0  0  0  0  0  0  0
    9.0399  -15.2881   21.4907 C   0  0  1  0  0  0  0  0  0  0  0  0
   10.3924  -14.7507   21.7830 C   0  0  0  0  0  0  0  0  0  0  0  0
   11.4625  -15.1369   21.0258 O   0  0  0  0  0  0  0  0  0  0  0  0
   10.5353  -13.9515   22.7221 O   0  0  0  0  0  0  0  0  0  0  0  0
  2  1  1  0
  3  2  1  0
  4  3  2  0
  5  6  1  0
  6  7  1  0
  7  9  1  0
  7  8  1  1
  9 11  1  0
  9 10  1  1
 10  3  1  0
 11 13  1  0
 12 11  2  0
 13 17  1  0
 14 13  1  0
 14 15  1  0
 15 16  1  0
 17 18  1  1
 17 16  1  0
 18 19  1  0
 20 18  2  0
M  END
$$$$
