GIP.pdb
     RDKit          3D

 20 20  0  0  1  0  0  0  0  0999 V2000
    5.2555  -19.5703   25.4147 N   0  0  0  0  0  0  0  0  0  0  0  0
    6.0634  -18.5531   26.0127 C   0  0  0  0  0  0  0  0  0  0  0  0
    5.9932  -17.2713   25.2469 C   0  0  0  0  0  0  0  0  0  0  0  0
    5.3529  -17.2867   24.1677 O   0  0  0  0  0  0  0  0  0  0  0  0
    6.2625  -12.4062   27.6144 C   0  0  0  0  0  0  0  0  0  0  0  0
    6.0666  -13.5153   26.6337 C   0  0  0  0  0  0  0  0  0  0  0  0
    7.3774  -13.8929   25.9402 C   0  0  2  0  0  0  0  0  0  0  0  0
    8.0189  -12.6943   25.3271 C   0  0  0  0  0  0  0  0  0  0  0  0
    7.0228  -14.9897   24.9565 C   0  0  2  0  0  0  0  0  0  0  0  0
    6.6464  -16.1551   25.7927 N   0  0  0  0  0  0  0  0  0  0  0  0
    8.0777  -15.3676   24.0132 C   0  0  0  0  0  0  0  0  0  0  0  0
    9.1115  -15.9767   24.5371 O   0  0  0  0  0  0  0  0  0  0  0  0
    8.1480  -15.1826   22.6305 N   0  0  0  0  0  0  0  0  0  0  0  0
    7.0875  -14.4043   21.9303 C   0  0  0  0  0  0  0  0  0  0  0  0
    7.9195  -13.7225   20.8657 C   0  0  0  0  0  0  0  0  0  0  0  0
    8.6413  -14.9598   20.3176 C   0  0  0  0  0  0  0  0  0  0  0  0
    9.0767  -15.6113   21.6448 C   0  0  1  0  0  0  0  0  0  0  0  0
   10.4495  -15.0910   21.8642 C   0  0  0  0  0  0  0  0  0  0  0  0
   10.6985  -14.2231   22.8901 O   0  0  0  0  0  0  0  0  0  0  0  0
   11.3618  -15.4530   21.1042 O   0  0  0  0  0  0  0  0  0  0  0  0
  2  1  1  0
  3  2  1  0
  4  3  2  0
  5  6  1  0
  6  7  1  0
  7  9  1  0
  7  8  1  6
  9 11  1  0
  9 10  1  1
 10  3  1  0
 11 13  1  0
 12 11  2  0
 13 17  1  0
 14 13  1  0
 14 15  1  0
 15 16  1  0
 17 18  1  1
 17 16  1  0
 18 19  1  0
 20 18  2  0
M  END
$$$$
