GIP.pdb
     RDKit          3D

 20 20  0  0  1  0  0  0  0  0999 V2000
    5.1222  -19.9075   24.1518 N   0  0  0  0  0  0  0  0  0  0  0  0
    5.9619  -19.0953   24.9765 C   0  0  0  0  0  0  0  0  0  0  0  0
    5.9638  -17.6695   24.5274 C   0  0  0  0  0  0  0  0  0  0  0  0
    5.3204  -17.4000   23.4842 O   0  0  0  0  0  0  0  0  0  0  0  0
    7.1199  -12.1518   26.8103 C   0  0  0  0  0  0  0  0  0  0  0  0
    6.9201  -13.0898   25.6654 C   0  0  0  0  0  0  0  0  0  0  0  0
    7.1474  -14.5445   26.0821 C   0  0  2  0  0  0  0  0  0  0  0  0
    8.4815  -14.7105   26.7275 C   0  0  0  0  0  0  0  0  0  0  0  0
    6.9484  -15.3693   24.8264 C   0  0  2  0  0  0  0  0  0  0  0  0
    6.6823  -16.7476   25.3047 N   0  0  0  0  0  0  0  0  0  0  0  0
    8.0666  -15.3728   23.8803 C   0  0  0  0  0  0  0  0  0  0  0  0
    9.1363  -16.0175   24.2731 O   0  0  0  0  0  0  0  0  0  0  0  0
    8.1657  -14.7955   22.6122 N   0  0  0  0  0  0  0  0  0  0  0  0
    7.1303  -13.8265   22.1542 C   0  0  0  0  0  0  0  0  0  0  0  0
    7.9924  -12.8815   21.3453 C   0  0  0  0  0  0  0  0  0  0  0  0
    8.7058  -13.9203   20.4710 C   0  0  0  0  0  0  0  0  0  0  0  0
    9.1063  -14.9376   21.5572 C   0  0  1  0  0  0  0  0  0  0  0  0
   10.4823  -14.5309   21.9372 C   0  0  0  0  0  0  0  0  0  0  0  0
   10.7226  -13.9908   23.1693 O   0  0  0  0  0  0  0  0  0  0  0  0
   11.4055  -14.6862   21.1218 O   0  0  0  0  0  0  0  0  0  0  0  0
  2  1  1  0
  3  2  1  0
  4  3  2  0
  5  6  1  0
  6  7  1  0
  7  9  1  0
  7  8  1  6
  9 11  1  0
  9 10  1  1
 10  3  1  0
 11 13  1  0
 12 11  2  0
 13 17  1  0
 14 13  1  0
 14 15  1  0
 15 16  1  0
 17 18  1  1
 17 16  1  0
 18 19  1  0
 20 18  2  0
M  END
$$$$
