GIP.pdb
     RDKit          3D

 20 20  0  0  1  0  0  0  0  0999 V2000
    5.3512  -19.5414   25.0881 N   0  0  0  0  0  0  0  0  0  0  0  0
    6.2438  -18.5744   25.6477 C   0  0  0  0  0  0  0  0  0  0  0  0
    6.0733  -17.2325   25.0116 C   0  0  0  0  0  0  0  0  0  0  0  0
    5.4126  -17.1873   23.9455 O   0  0  0  0  0  0  0  0  0  0  0  0
    6.4794  -12.4723   27.7069 C   0  0  0  0  0  0  0  0  0  0  0  0
    6.2163  -13.4733   26.6304 C   0  0  0  0  0  0  0  0  0  0  0  0
    7.5115  -13.9270   25.9534 C   0  0  2  0  0  0  0  0  0  0  0  0
    8.2749  -12.7582   25.4289 C   0  0  0  0  0  0  0  0  0  0  0  0
    7.0954  -14.9321   24.8983 C   0  0  2  0  0  0  0  0  0  0  0  0
    6.6630  -16.1326   25.6539 N   0  0  0  0  0  0  0  0  0  0  0  0
    8.1247  -15.2965   23.9219 C   0  0  0  0  0  0  0  0  0  0  0  0
    9.1372  -15.9773   24.3967 O   0  0  0  0  0  0  0  0  0  0  0  0
    8.1894  -15.0331   22.5517 N   0  0  0  0  0  0  0  0  0  0  0  0
    7.1011  -14.2578   21.8920 C   0  0  0  0  0  0  0  0  0  0  0  0
    7.9080  -13.4878   20.8691 C   0  0  0  0  0  0  0  0  0  0  0  0
    8.6764  -14.6651   20.2560 C   0  0  0  0  0  0  0  0  0  0  0  0
    9.1346  -15.3718   21.5467 C   0  0  1  0  0  0  0  0  0  0  0  0
   10.4866  -14.8133   21.7987 C   0  0  0  0  0  0  0  0  0  0  0  0
   11.5383  -15.1781   21.0060 O   0  0  0  0  0  0  0  0  0  0  0  0
   10.6461  -14.0159   22.7367 O   0  0  0  0  0  0  0  0  0  0  0  0
  2  1  1  0
  3  2  1  0
  4  3  2  0
  5  6  1  0
  6  7  1  0
  7  9  1  0
  7  8  1  6
  9 11  1  0
  9 10  1  1
 10  3  1  0
 11 13  1  0
 12 11  2  0
 13 17  1  0
 14 13  1  0
 14 15  1  0
 15 16  1  0
 17 18  1  1
 17 16  1  0
 18 19  1  0
 20 18  2  0
M  END
$$$$
