GIP.pdb
     RDKit          3D

 20 20  0  0  1  0  0  0  0  0999 V2000
    5.6259  -19.5606   25.4361 N   0  0  0  0  0  0  0  0  0  0  0  0
    6.4114  -18.5023   25.9911 C   0  0  0  0  0  0  0  0  0  0  0  0
    6.1700  -17.2070   25.2851 C   0  0  0  0  0  0  0  0  0  0  0  0
    5.5619  -17.2606   24.1885 O   0  0  0  0  0  0  0  0  0  0  0  0
    6.3073  -12.2697   27.6800 C   0  0  0  0  0  0  0  0  0  0  0  0
    6.1452  -13.3429   26.6542 C   0  0  0  0  0  0  0  0  0  0  0  0
    7.4973  -13.8256   26.1246 C   0  0  2  0  0  0  0  0  0  0  0  0
    8.2959  -12.6860   25.5884 C   0  0  0  0  0  0  0  0  0  0  0  0
    7.1812  -14.9056   25.1096 C   0  0  2  0  0  0  0  0  0  0  0  0
    6.6405  -16.0370   25.9014 N   0  0  0  0  0  0  0  0  0  0  0  0
    8.3058  -15.3593   24.2881 C   0  0  0  0  0  0  0  0  0  0  0  0
    9.2874  -15.9296   24.9404 O   0  0  0  0  0  0  0  0  0  0  0  0
    8.4905  -15.2822   22.9057 N   0  0  0  0  0  0  0  0  0  0  0  0
    7.4566  -14.6302   22.0532 C   0  0  0  0  0  0  0  0  0  0  0  0
    8.3428  -13.9860   21.0093 C   0  0  0  0  0  0  0  0  0  0  0  0
    9.1780  -15.2161   20.6329 C   0  0  0  0  0  0  0  0  0  0  0  0
    9.5267  -15.7303   22.0434 C   0  0  1  0  0  0  0  0  0  0  0  0
   10.8434  -15.1097   22.3340 C   0  0  0  0  0  0  0  0  0  0  0  0
   11.9618  -15.5312   21.6713 O   0  0  0  0  0  0  0  0  0  0  0  0
   10.9123  -14.2086   23.1851 O   0  0  0  0  0  0  0  0  0  0  0  0
  2  1  1  0
  3  2  1  0
  4  3  2  0
  5  6  1  0
  6  7  1  0
  7  9  1  0
  7  8  1  6
  9 11  1  0
  9 10  1  1
 10  3  1  0
 11 13  1  0
 12 11  2  0
 13 17  1  0
 14 13  1  0
 14 15  1  0
 15 16  1  0
 17 18  1  1
 17 16  1  0
 18 19  1  0
 20 18  2  0
M  END
$$$$
