WID.pdb
     RDKit          3D

 31 32  0  0  1  0  0  0  0  0999 V2000
   28.3744  -21.4478  -10.2404 N   0  0  0  0  0  0  0  0  0  0  0  0
   27.0287  -21.3664   -9.7028 C   0  0  1  0  0  0  0  0  0  0  0  0
   26.9907  -20.6079   -8.3932 C   0  0  0  0  0  0  0  0  0  0  0  0
   28.2921  -20.6236   -7.6997 C   0  0  0  0  0  0  0  0  0  0  0  0
   29.4909  -21.0308   -8.2357 C   0  0  0  0  0  0  0  0  0  0  0  0
   30.4069  -20.8821   -7.2706 N   0  0  0  0  0  0  0  0  0  0  0  0
   29.8341  -20.3959   -6.1423 C   0  0  0  0  0  0  0  0  0  0  0  0
   30.3417  -20.0826   -4.9162 C   0  0  0  0  0  0  0  0  0  0  0  0
   29.4636  -19.5940   -3.9525 C   0  0  0  0  0  0  0  0  0  0  0  0
   28.1300  -19.4263   -4.2092 C   0  0  0  0  0  0  0  0  0  0  0  0
   27.6177  -19.7414   -5.4442 C   0  0  0  0  0  0  0  0  0  0  0  0
   28.4984  -20.2319   -6.4112 C   0  0  0  0  0  0  0  0  0  0  0  0
   26.2173  -20.5828  -10.6802 C   0  0  0  0  0  0  0  0  0  0  0  0
   25.9035  -19.4057  -10.3067 O   0  0  0  0  0  0  0  0  0  0  0  0
   28.6772  -20.0396  -13.7147 C   0  0  0  0  0  0  0  0  0  0  0  0
   27.4817  -19.1432  -13.5772 C   0  0  0  0  0  0  0  0  0  0  0  0
   26.2587  -19.8738  -14.0183 C   0  0  2  0  0  0  0  0  0  0  0  0
   25.5954  -19.0432  -15.1136 C   0  0  0  0  0  0  0  0  0  0  0  0
   25.2840  -20.1283  -12.9093 C   0  0  2  0  0  0  0  0  0  0  0  0
   25.8033  -21.0569  -11.9280 N   0  0  0  0  0  0  0  0  0  0  0  0
   23.9637  -20.6035  -13.4372 C   0  0  0  0  0  0  0  0  0  0  0  0
   23.8488  -21.7988  -13.7597 O   0  0  0  0  0  0  0  0  0  0  0  0
   22.8717  -19.7358  -13.5726 N   0  0  0  0  0  0  0  0  0  0  0  0
   21.5861  -20.2923  -14.0248 C   0  0  1  0  0  0  0  0  0  0  0  0
   20.4729  -19.7256  -13.2109 C   0  0  0  0  0  0  0  0  0  0  0  0
   19.4745  -20.7188  -12.8185 C   0  0  0  0  0  0  0  0  0  0  0  0
   19.4804  -21.9279  -13.0843 O   0  0  0  0  0  0  0  0  0  0  0  0
   21.4476  -20.0216  -15.4771 C   0  0  0  0  0  0  0  0  0  0  0  0
   21.0019  -20.9513  -16.3731 O   0  0  0  0  0  0  0  0  0  0  0  0
   18.3672  -20.2688  -12.0462 O   0  0  0  0  0  0  0  0  0  0  0  0
   21.7487  -18.8897  -15.9323 O   0  0  0  0  0  0  0  0  0  0  0  0
  2 13  1  0
  2  3  1  0
  2  1  1  6
  4  3  1  0
  4  5  2  0
  6  5  1  0
  7  6  1  0
  8  7  2  0
  9  8  1  0
 10  9  2  0
 10 11  1  0
 11 12  2  0
 12  7  1  0
 12  4  1  0
 13 14  2  0
 16 15  1  0
 17 16  1  0
 17 19  1  0
 17 18  1  6
 19 21  1  0
 19 20  1  1
 20 13  1  0
 21 22  2  0
 23 21  1  0
 23 24  1  0
 24 28  1  0
 24 25  1  1
 26 25  1  0
 26 27  2  0
 28 31  2  0
 28 29  1  0
 30 26  1  0
M  END
$$$$
