WID.pdb
     RDKit          3D

 31 32  0  0  1  0  0  0  0  0999 V2000
   27.4503  -19.0718  -16.8085 N   0  0  0  0  0  0  0  0  0  0  0  0
   26.7475  -18.4361  -15.7091 C   0  0  1  0  0  0  0  0  0  0  0  0
   25.6389  -17.5291  -16.1991 C   0  0  0  0  0  0  0  0  0  0  0  0
   26.1584  -16.3225  -16.8693 C   0  0  0  0  0  0  0  0  0  0  0  0
   26.0299  -16.0182  -18.2038 C   0  0  0  0  0  0  0  0  0  0  0  0
   26.6417  -14.8409  -18.3842 N   0  0  0  0  0  0  0  0  0  0  0  0
   27.1536  -14.3870  -17.2139 C   0  0  0  0  0  0  0  0  0  0  0  0
   27.8499  -13.2599  -16.8919 C   0  0  0  0  0  0  0  0  0  0  0  0
   28.2394  -13.0907  -15.5659 C   0  0  0  0  0  0  0  0  0  0  0  0
   27.9418  -14.0153  -14.6021 C   0  0  0  0  0  0  0  0  0  0  0  0
   27.2401  -15.1510  -14.9256 C   0  0  0  0  0  0  0  0  0  0  0  0
   26.8494  -15.3213  -16.2558 C   0  0  0  0  0  0  0  0  0  0  0  0
   26.0990  -19.5248  -14.9207 C   0  0  0  0  0  0  0  0  0  0  0  0
   25.6564  -20.5033  -15.6063 O   0  0  0  0  0  0  0  0  0  0  0  0
   27.6098  -21.3839   -9.9927 C   0  0  0  0  0  0  0  0  0  0  0  0
   27.1751  -21.2865  -11.4257 C   0  0  0  0  0  0  0  0  0  0  0  0
   25.7519  -20.8453  -11.4850 C   0  0  2  0  0  0  0  0  0  0  0  0
   24.9068  -21.9222  -10.8098 C   0  0  0  0  0  0  0  0  0  0  0  0
   25.2588  -20.6090  -12.8799 C   0  0  2  0  0  0  0  0  0  0  0  0
   25.9594  -19.5221  -13.5301 N   0  0  0  0  0  0  0  0  0  0  0  0
   23.7786  -20.3720  -12.9061 C   0  0  0  0  0  0  0  0  0  0  0  0
   23.3452  -19.2786  -12.5029 O   0  0  0  0  0  0  0  0  0  0  0  0
   22.8867  -21.3483  -13.3698 N   0  0  0  0  0  0  0  0  0  0  0  0
   21.4477  -21.0383  -13.3730 C   0  0  1  0  0  0  0  0  0  0  0  0
   20.7528  -21.8623  -14.4031 C   0  0  0  0  0  0  0  0  0  0  0  0
   19.3085  -21.6407  -14.4485 C   0  0  0  0  0  0  0  0  0  0  0  0
   18.6563  -20.8311  -13.7764 O   0  0  0  0  0  0  0  0  0  0  0  0
   20.9237  -21.2502  -12.0010 C   0  0  0  0  0  0  0  0  0  0  0  0
   20.0512  -20.3936  -11.3920 O   0  0  0  0  0  0  0  0  0  0  0  0
   18.5502  -22.4304  -15.3577 O   0  0  0  0  0  0  0  0  0  0  0  0
   21.2842  -22.2591  -11.3444 O   0  0  0  0  0  0  0  0  0  0  0  0
  2 13  1  0
  2  3  1  0
  2  1  1  6
  4  3  1  0
  4  5  2  0
  6  5  1  0
  7  6  1  0
  8  7  2  0
  9  8  1  0
 10  9  2  0
 10 11  1  0
 11 12  2  0
 12  7  1  0
 12  4  1  0
 13 14  2  0
 16 15  1  0
 17 16  1  0
 17 19  1  0
 17 18  1  6
 19 21  1  0
 19 20  1  1
 20 13  1  0
 21 22  2  0
 23 21  1  0
 23 24  1  0
 24 28  1  0
 24 25  1  6
 26 25  1  0
 26 27  2  0
 28 31  2  0
 28 29  1  0
 30 26  1  0
M  END
$$$$
