WID.pdb
     RDKit          3D

 31 32  0  0  1  0  0  0  0  0999 V2000
   26.2378  -18.6207   -8.7634 N   0  0  0  0  0  0  0  0  0  0  0  0
   26.7342  -19.8894   -9.2641 C   0  0  1  0  0  0  0  0  0  0  0  0
   26.5092  -21.0121   -8.2738 C   0  0  0  0  0  0  0  0  0  0  0  0
   26.9432  -20.6516   -6.9113 C   0  0  0  0  0  0  0  0  0  0  0  0
   26.1249  -20.2686   -5.8750 C   0  0  0  0  0  0  0  0  0  0  0  0
   26.9251  -20.0359   -4.8270 N   0  0  0  0  0  0  0  0  0  0  0  0
   28.2205  -20.2569   -5.1597 C   0  0  0  0  0  0  0  0  0  0  0  0
   29.3806  -20.1577   -4.4502 C   0  0  0  0  0  0  0  0  0  0  0  0
   30.5721  -20.4625   -5.1030 C   0  0  0  0  0  0  0  0  0  0  0  0
   30.5980  -20.8513   -6.4147 C   0  0  0  0  0  0  0  0  0  0  0  0
   29.4297  -20.9518   -7.1302 C   0  0  0  0  0  0  0  0  0  0  0  0
   28.2342  -20.6459   -6.4757 C   0  0  0  0  0  0  0  0  0  0  0  0
   25.9349  -20.2189  -10.4806 C   0  0  0  0  0  0  0  0  0  0  0  0
   24.7095  -19.8722  -10.4368 O   0  0  0  0  0  0  0  0  0  0  0  0
   29.1437  -19.3306  -14.6794 C   0  0  0  0  0  0  0  0  0  0  0  0
   28.0366  -19.2860  -13.6674 C   0  0  0  0  0  0  0  0  0  0  0  0
   27.0792  -20.3993  -13.9280 C   0  0  2  0  0  0  0  0  0  0  0  0
   26.5045  -20.1952  -15.3272 C   0  0  0  0  0  0  0  0  0  0  0  0
   25.9683  -20.4769  -12.9258 C   0  0  2  0  0  0  0  0  0  0  0  0
   26.4424  -20.8612  -11.6133 N   0  0  0  0  0  0  0  0  0  0  0  0
   24.8794  -21.4002  -13.3836 C   0  0  0  0  0  0  0  0  0  0  0  0
   25.0277  -22.6230  -13.2141 O   0  0  0  0  0  0  0  0  0  0  0  0
   23.7136  -20.9160  -13.9921 N   0  0  0  0  0  0  0  0  0  0  0  0
   22.5857  -21.8425  -14.1825 C   0  0  1  0  0  0  0  0  0  0  0  0
   21.5885  -21.6604  -13.0891 C   0  0  0  0  0  0  0  0  0  0  0  0
   20.4451  -22.5660  -13.1873 C   0  0  0  0  0  0  0  0  0  0  0  0
   20.2600  -23.4442  -14.0399 O   0  0  0  0  0  0  0  0  0  0  0  0
   22.0207  -21.6149  -15.5355 C   0  0  0  0  0  0  0  0  0  0  0  0
   21.4953  -22.6135  -16.3054 O   0  0  0  0  0  0  0  0  0  0  0  0
   19.4219  -22.4422  -12.2060 O   0  0  0  0  0  0  0  0  0  0  0  0
   22.0129  -20.4562  -16.0216 O   0  0  0  0  0  0  0  0  0  0  0  0
  2 13  1  0
  2  3  1  0
  2  1  1  1
  4  3  1  0
  4  5  2  0
  6  5  1  0
  7  6  1  0
  8  7  2  0
  9  8  1  0
 10  9  2  0
 10 11  1  0
 11 12  2  0
 12  7  1  0
 12  4  1  0
 13 14  2  0
 16 15  1  0
 17 16  1  0
 17 19  1  0
 17 18  1  6
 19 21  1  0
 19 20  1  1
 20 13  1  0
 21 22  2  0
 23 21  1  0
 23 24  1  0
 24 28  1  0
 24 25  1  1
 26 25  1  0
 26 27  2  0
 28 31  2  0
 28 29  1  0
 30 26  1  0
M  END
$$$$
