WID.pdb
     RDKit          3D

 31 32  0  0  1  0  0  0  0  0999 V2000
   28.1378  -21.5254  -15.6498 N   0  0  0  0  0  0  0  0  0  0  0  0
   27.5491  -20.4638  -14.8543 C   0  0  1  0  0  0  0  0  0  0  0  0
   26.6091  -19.6032  -15.6714 C   0  0  0  0  0  0  0  0  0  0  0  0
   27.3309  -18.7022  -16.5891 C   0  0  0  0  0  0  0  0  0  0  0  0
   28.1934  -19.0853  -17.5890 C   0  0  0  0  0  0  0  0  0  0  0  0
   28.6209  -17.9586  -18.1724 N   0  0  0  0  0  0  0  0  0  0  0  0
   28.0619  -16.8749  -17.5800 C   0  0  0  0  0  0  0  0  0  0  0  0
   28.1828  -15.5368  -17.8123 C   0  0  0  0  0  0  0  0  0  0  0  0
   27.4554  -14.6667  -17.0047 C   0  0  0  0  0  0  0  0  0  0  0  0
   26.6396  -15.1212  -16.0045 C   0  0  0  0  0  0  0  0  0  0  0  0
   26.5171  -16.4691  -15.7699 C   0  0  0  0  0  0  0  0  0  0  0  0
   27.2468  -17.3424  -16.5798 C   0  0  0  0  0  0  0  0  0  0  0  0
   26.7255  -21.1195  -13.7964 C   0  0  0  0  0  0  0  0  0  0  0  0
   26.0821  -22.1536  -14.1707 O   0  0  0  0  0  0  0  0  0  0  0  0
   27.0311  -20.5440   -8.2563 C   0  0  0  0  0  0  0  0  0  0  0  0
   26.8454  -21.1763   -9.6045 C   0  0  0  0  0  0  0  0  0  0  0  0
   25.6202  -20.6222  -10.2494 C   0  0  2  0  0  0  0  0  0  0  0  0
   24.4168  -21.1052   -9.4444 C   0  0  0  0  0  0  0  0  0  0  0  0
   25.4688  -21.0235  -11.6849 C   0  0  2  0  0  0  0  0  0  0  0  0
   26.6298  -20.6735  -12.4753 N   0  0  0  0  0  0  0  0  0  0  0  0
   24.2257  -20.4428  -12.2891 C   0  0  0  0  0  0  0  0  0  0  0  0
   24.3414  -19.5127  -13.1061 O   0  0  0  0  0  0  0  0  0  0  0  0
   22.9527  -20.9225  -11.9530 N   0  0  0  0  0  0  0  0  0  0  0  0
   21.8201  -20.5774  -12.8278 C   0  0  1  0  0  0  0  0  0  0  0  0
   22.0893  -21.0477  -14.2167 C   0  0  0  0  0  0  0  0  0  0  0  0
   21.4754  -20.2087  -15.2446 C   0  0  0  0  0  0  0  0  0  0  0  0
   21.3458  -18.9777  -15.2236 O   0  0  0  0  0  0  0  0  0  0  0  0
   20.5864  -21.1566  -12.2410 C   0  0  0  0  0  0  0  0  0  0  0  0
   19.4508  -20.4309  -12.0183 O   0  0  0  0  0  0  0  0  0  0  0  0
   20.9651  -20.8568  -16.4043 O   0  0  0  0  0  0  0  0  0  0  0  0
   20.5577  -22.3722  -11.9239 O   0  0  0  0  0  0  0  0  0  0  0  0
  2 13  1  0
  2  3  1  0
  2  1  1  6
  4  3  1  0
  4  5  2  0
  6  5  1  0
  7  6  1  0
  8  7  2  0
  9  8  1  0
 10  9  2  0
 10 11  1  0
 11 12  2  0
 12  7  1  0
 12  4  1  0
 13 14  2  0
 16 15  1  0
 17 16  1  0
 17 19  1  0
 17 18  1  1
 19 21  1  0
 19 20  1  6
 20 13  1  0
 21 22  2  0
 23 21  1  0
 23 24  1  0
 24 28  1  0
 24 25  1  6
 26 25  1  0
 26 27  2  0
 28 31  2  0
 28 29  1  0
 30 26  1  0
M  END
$$$$
