WID.pdb
     RDKit          3D

 31 32  0  0  1  0  0  0  0  0999 V2000
   27.9853  -21.2557  -16.1269 N   0  0  0  0  0  0  0  0  0  0  0  0
   26.9568  -20.2850  -15.8006 C   0  0  1  0  0  0  0  0  0  0  0  0
   26.0879  -19.9617  -16.9974 C   0  0  0  0  0  0  0  0  0  0  0  0
   26.8101  -19.1800  -18.0182 C   0  0  0  0  0  0  0  0  0  0  0  0
   27.9093  -19.5975  -18.7307 C   0  0  0  0  0  0  0  0  0  0  0  0
   28.2413  -18.5855  -19.5420 N   0  0  0  0  0  0  0  0  0  0  0  0
   27.3937  -17.5415  -19.3710 C   0  0  0  0  0  0  0  0  0  0  0  0
   27.3224  -16.3113  -19.9546 C   0  0  0  0  0  0  0  0  0  0  0  0
   26.3067  -15.4525  -19.5432 C   0  0  0  0  0  0  0  0  0  0  0  0
   25.3990  -15.8138  -18.5851 C   0  0  0  0  0  0  0  0  0  0  0  0
   25.4699  -17.0531  -17.9968 C   0  0  0  0  0  0  0  0  0  0  0  0
   26.4890  -17.9150  -18.4090 C   0  0  0  0  0  0  0  0  0  0  0  0
   26.0700  -20.9180  -14.7806 C   0  0  0  0  0  0  0  0  0  0  0  0
   25.7689  -22.1361  -15.0023 O   0  0  0  0  0  0  0  0  0  0  0  0
   26.4627  -20.7636   -9.4817 C   0  0  0  0  0  0  0  0  0  0  0  0
   26.2334  -21.1653  -10.9093 C   0  0  0  0  0  0  0  0  0  0  0  0
   24.8820  -20.7083  -11.3438 C   0  0  2  0  0  0  0  0  0  0  0  0
   23.8504  -21.4516  -10.4994 C   0  0  0  0  0  0  0  0  0  0  0  0
   24.6137  -20.9406  -12.7994 C   0  0  2  0  0  0  0  0  0  0  0  0
   25.5757  -20.2681  -13.6463 N   0  0  0  0  0  0  0  0  0  0  0  0
   23.2166  -20.5429  -13.1704 C   0  0  0  0  0  0  0  0  0  0  0  0
   22.9566  -19.3333  -13.2934 O   0  0  0  0  0  0  0  0  0  0  0  0
   22.2118  -21.4975  -13.3771 N   0  0  0  0  0  0  0  0  0  0  0  0
   20.8719  -21.0310  -13.7696 C   0  0  1  0  0  0  0  0  0  0  0  0
   20.4385  -21.7225  -15.0174 C   0  0  0  0  0  0  0  0  0  0  0  0
   19.0696  -21.3997  -15.4164 C   0  0  0  0  0  0  0  0  0  0  0  0
   18.3120  -20.5771  -14.8854 O   0  0  0  0  0  0  0  0  0  0  0  0
   19.9505  -21.2501  -12.6273 C   0  0  0  0  0  0  0  0  0  0  0  0
   18.8645  -20.4597  -12.3788 O   0  0  0  0  0  0  0  0  0  0  0  0
   18.5293  -22.0944  -16.5347 O   0  0  0  0  0  0  0  0  0  0  0  0
   20.1563  -22.2023  -11.8336 O   0  0  0  0  0  0  0  0  0  0  0  0
  2 13  1  0
  2  3  1  0
  2  1  1  6
  4  3  1  0
  4  5  2  0
  6  5  1  0
  7  6  1  0
  8  7  2  0
  9  8  1  0
 10  9  2  0
 10 11  1  0
 11 12  2  0
 12  7  1  0
 12  4  1  0
 13 14  2  0
 16 15  1  0
 17 16  1  0
 17 19  1  0
 17 18  1  1
 19 21  1  0
 19 20  1  6
 20 13  1  0
 21 22  2  0
 23 21  1  0
 23 24  1  0
 24 28  1  0
 24 25  1  6
 26 25  1  0
 26 27  2  0
 28 31  2  0
 28 29  1  0
 30 26  1  0
M  END
$$$$
