GAA.pdb
     RDKit          3D

 15 14  0  0  1  0  0  0  0  0999 V2000
   18.4388   -9.7878  -18.2959 N   0  0  0  0  0  0  0  0  0  0  0  0
   18.6930  -10.5963  -17.1414 C   0  0  0  0  0  0  0  0  0  0  0  0
   19.1975   -9.8036  -16.0034 C   0  0  0  0  0  0  0  0  0  0  0  0
   18.4388   -9.1896  -15.1898 O   0  0  0  0  0  0  0  0  0  0  0  0
   22.6078   -9.2824  -14.4356 C   0  0  0  0  0  0  0  0  0  0  0  0
   21.1641   -8.9032  -14.7407 C   0  0  2  0  0  0  0  0  0  0  0  0
   20.5893   -9.6963  -15.7715 N   0  0  0  0  0  0  0  0  0  0  0  0
   21.1429   -7.4494  -15.0135 C   0  0  0  0  0  0  0  0  0  0  0  0
   21.3715   -7.0436  -16.1789 O   0  0  0  0  0  0  0  0  0  0  0  0
   19.6409   -4.4007  -13.5269 C   0  0  0  0  0  0  0  0  0  0  0  0
   20.7284   -5.0415  -14.3618 C   0  0  2  0  0  0  0  0  0  0  0  0
   20.8793   -6.4508  -14.0437 N   0  0  0  0  0  0  0  0  0  0  0  0
   22.0038   -4.3794  -14.0052 C   0  0  0  0  0  0  0  0  0  0  0  0
   22.7271   -4.9156  -13.1359 O   0  0  0  0  0  0  0  0  0  0  0  0
   22.4370   -3.2014  -14.5814 O   0  0  0  0  0  0  0  0  0  0  0  0
  2  3  1  0
  2  1  1  0
  3  7  1  0
  4  3  2  0
  6  5  1  6
  7  6  1  0
  8  6  1  0
  8 12  1  0
  9  8  2  0
 11 10  1  1
 11 12  1  0
 11 13  1  0
 13 15  1  0
 14 13  2  0
M  END
$$$$
