GAA.pdb
     RDKit          3D

 15 14  0  0  1  0  0  0  0  0999 V2000
   19.3987  -11.5818  -18.8509 N   0  0  0  0  0  0  0  0  0  0  0  0
   20.6678  -11.0560  -18.4459 C   0  0  0  0  0  0  0  0  0  0  0  0
   20.5836  -10.3061  -17.1776 C   0  0  0  0  0  0  0  0  0  0  0  0
   19.4924   -9.8647  -16.6990 O   0  0  0  0  0  0  0  0  0  0  0  0
   22.9674   -9.6162  -14.3348 C   0  0  0  0  0  0  0  0  0  0  0  0
   21.7714   -9.2905  -15.2205 C   0  0  2  0  0  0  0  0  0  0  0  0
   21.7537  -10.0441  -16.4262 N   0  0  0  0  0  0  0  0  0  0  0  0
   21.7643   -7.8252  -15.4231 C   0  0  0  0  0  0  0  0  0  0  0  0
   22.4940   -7.3289  -16.3155 O   0  0  0  0  0  0  0  0  0  0  0  0
   19.6668   -4.8609  -14.4120 C   0  0  0  0  0  0  0  0  0  0  0  0
   20.9415   -5.4836  -14.9388 C   0  0  2  0  0  0  0  0  0  0  0  0
   20.9823   -6.9114  -14.6745 N   0  0  0  0  0  0  0  0  0  0  0  0
   22.0679   -4.8746  -14.1955 C   0  0  0  0  0  0  0  0  0  0  0  0
   22.5266   -5.4891  -13.2064 O   0  0  0  0  0  0  0  0  0  0  0  0
   22.6389   -3.6642  -14.5365 O   0  0  0  0  0  0  0  0  0  0  0  0
  2  3  1  0
  2  1  1  0
  3  7  1  0
  4  3  2  0
  6  5  1  6
  7  6  1  0
  8  6  1  0
  8 12  1  0
  9  8  2  0
 11 10  1  1
 11 12  1  0
 11 13  1  0
 13 15  1  0
 14 13  2  0
M  END
$$$$
