GAA.pdb
     RDKit          3D

 15 14  0  0  1  0  0  0  0  0999 V2000
   15.7230  -10.9991  -15.7153 N   0  0  0  0  0  0  0  0  0  0  0  0
   15.8264   -9.6606  -15.2164 C   0  0  0  0  0  0  0  0  0  0  0  0
   17.1175   -9.0337  -15.5604 C   0  0  0  0  0  0  0  0  0  0  0  0
   18.2210   -9.6637  -15.5610 O   0  0  0  0  0  0  0  0  0  0  0  0
   18.0839   -5.6290  -16.9411 C   0  0  0  0  0  0  0  0  0  0  0  0
   18.3568   -7.0000  -16.3354 C   0  0  2  0  0  0  0  0  0  0  0  0
   17.1727   -7.6644  -15.9130 N   0  0  0  0  0  0  0  0  0  0  0  0
   19.3597   -6.8123  -15.2643 C   0  0  0  0  0  0  0  0  0  0  0  0
   18.9680   -6.5670  -14.0975 O   0  0  0  0  0  0  0  0  0  0  0  0
   23.0648   -7.3703  -14.7656 C   0  0  0  0  0  0  0  0  0  0  0  0
   21.7231   -6.7961  -14.3651 C   0  0  2  0  0  0  0  0  0  0  0  0
   20.7621   -6.8882  -15.4505 N   0  0  0  0  0  0  0  0  0  0  0  0
   21.9262   -5.3557  -14.0893 C   0  0  0  0  0  0  0  0  0  0  0  0
   21.5827   -4.5303  -14.9650 O   0  0  0  0  0  0  0  0  0  0  0  0
   22.4749   -4.8753  -12.9164 O   0  0  0  0  0  0  0  0  0  0  0  0
  2  3  1  0
  2  1  1  0
  3  7  1  0
  4  3  2  0
  6  5  1  1
  7  6  1  0
  8  6  1  0
  8 12  1  0
  9  8  2  0
 11 10  1  6
 11 12  1  0
 11 13  1  0
 13 15  1  0
 14 13  2  0
M  END
$$$$
