TKM.pdb
     RDKit          3D

 25 24  0  0  1  0  0  0  0  0999 V2000
   28.2485  -22.6180  -16.4785 C   0  0  0  0  0  0  0  0  0  0  0  0
   29.1602  -21.5251  -16.9477 C   0  0  1  0  0  0  0  0  0  0  0  0
   29.8926  -22.0236  -18.0432 O   0  0  0  0  0  0  0  0  0  0  0  0
   28.4041  -20.3234  -17.4678 C   0  0  2  0  0  0  0  0  0  0  0  0
   29.3790  -19.3297  -17.8691 N   0  0  0  0  0  0  0  0  0  0  0  0
   27.5433  -19.7033  -16.4268 C   0  0  0  0  0  0  0  0  0  0  0  0
   28.0707  -19.0350  -15.5180 O   0  0  0  0  0  0  0  0  0  0  0  0
   26.1396  -19.8337  -16.4132 N   0  0  0  0  0  0  0  0  0  0  0  0
   25.2685  -19.2509  -15.3968 C   0  0  1  0  0  0  0  0  0  0  0  0
   24.0206  -18.7531  -16.0366 C   0  0  0  0  0  0  0  0  0  0  0  0
   22.9503  -18.2408  -15.1487 C   0  0  0  0  0  0  0  0  0  0  0  0
   21.8151  -17.7919  -16.0990 C   0  0  0  0  0  0  0  0  0  0  0  0
   20.6809  -17.1935  -15.3007 C   0  0  0  0  0  0  0  0  0  0  0  0
   19.6819  -16.7381  -16.2473 N   0  0  0  0  0  0  0  0  0  0  0  0
   25.1011  -20.2583  -14.3369 C   0  0  0  0  0  0  0  0  0  0  0  0
   24.9031  -21.4476  -14.6596 O   0  0  0  0  0  0  0  0  0  0  0  0
   28.6080  -20.4861   -8.7786 C   0  0  0  0  0  0  0  0  0  0  0  0
   26.8788  -20.2746   -8.2230 S   0  0  0  0  0  0  0  0  0  0  0  0
   25.7686  -20.9391   -9.4054 C   0  0  0  0  0  0  0  0  0  0  0  0
   25.7609  -20.3841  -10.7602 C   0  0  0  0  0  0  0  0  0  0  0  0
   24.9264  -20.8553  -11.8540 C   0  0  2  0  0  0  0  0  0  0  0  0
   25.1674  -19.8864  -12.9920 N   0  0  0  0  0  0  0  0  0  0  0  0
   23.4256  -20.6893  -11.6361 C   0  0  0  0  0  0  0  0  0  0  0  0
   22.8263  -21.6007  -10.9407 O   0  0  0  0  0  0  0  0  0  0  0  0
   22.6327  -19.7003  -12.0871 O   0  0  0  0  0  0  0  0  0  0  0  0
  2  1  1  6
  3  2  1  0
  4  6  1  0
  4  2  1  0
  4  5  1  1
  6  7  2  0
  8  9  1  0
  8  6  1  0
 10 11  1  0
  9 10  1  6
 11 12  1  0
 12 13  1  0
 14 13  1  0
 15  9  1  0
 16 15  2  0
 17 18  1  0
 19 18  1  0
 20 19  1  0
 21 20  1  1
 21 22  1  0
 21 23  1  0
 22 15  1  0
 23 25  1  0
 24 23  2  0
M  END
$$$$
