TKM.pdb
     RDKit          3D

 25 24  0  0  1  0  0  0  0  0999 V2000
   24.3204  -25.1988  -18.2977 C   0  0  0  0  0  0  0  0  0  0  0  0
   25.3346  -25.5311  -17.2456 C   0  0  1  0  0  0  0  0  0  0  0  0
   26.4068  -26.1881  -17.8811 O   0  0  0  0  0  0  0  0  0  0  0  0
   25.9277  -24.2977  -16.6026 C   0  0  2  0  0  0  0  0  0  0  0  0
   26.8114  -24.7360  -15.5416 N   0  0  0  0  0  0  0  0  0  0  0  0
   24.8920  -23.4288  -15.9851 C   0  0  0  0  0  0  0  0  0  0  0  0
   24.4118  -23.7433  -14.8800 O   0  0  0  0  0  0  0  0  0  0  0  0
   24.4168  -22.2490  -16.5933 N   0  0  0  0  0  0  0  0  0  0  0  0
   23.4402  -21.3473  -15.9894 C   0  0  1  0  0  0  0  0  0  0  0  0
   23.4995  -20.0235  -16.6666 C   0  0  0  0  0  0  0  0  0  0  0  0
   22.5243  -18.9909  -16.2435 C   0  0  0  0  0  0  0  0  0  0  0  0
   22.8467  -17.7496  -17.1087 C   0  0  0  0  0  0  0  0  0  0  0  0
   21.9285  -16.6094  -16.7367 C   0  0  0  0  0  0  0  0  0  0  0  0
   22.3437  -15.4537  -17.5072 N   0  0  0  0  0  0  0  0  0  0  0  0
   22.1391  -22.0348  -16.0141 C   0  0  0  0  0  0  0  0  0  0  0  0
   21.8081  -22.6653  -17.0391 O   0  0  0  0  0  0  0  0  0  0  0  0
   18.6778  -27.6331  -12.6586 C   0  0  0  0  0  0  0  0  0  0  0  0
   19.8435  -26.2252  -12.6096 S   0  0  0  0  0  0  0  0  0  0  0  0
   19.3836  -25.0063  -13.7821 C   0  0  0  0  0  0  0  0  0  0  0  0
   20.1497  -23.7603  -13.8463 C   0  0  0  0  0  0  0  0  0  0  0  0
   19.9681  -22.7153  -14.8411 C   0  0  2  0  0  0  0  0  0  0  0  0
   21.2920  -21.9837  -14.9043 N   0  0  0  0  0  0  0  0  0  0  0  0
   19.0265  -21.5888  -14.4266 C   0  0  0  0  0  0  0  0  0  0  0  0
   19.5655  -20.5203  -13.9354 O   0  0  0  0  0  0  0  0  0  0  0  0
   17.6835  -21.5678  -14.5048 O   0  0  0  0  0  0  0  0  0  0  0  0
  2  1  1  6
  3  2  1  0
  4  6  1  0
  4  2  1  0
  4  5  1  1
  6  7  2  0
  8  9  1  0
  8  6  1  0
 10 11  1  0
  9 10  1  6
 11 12  1  0
 12 13  1  0
 14 13  1  0
 15  9  1  0
 16 15  2  0
 17 18  1  0
 19 18  1  0
 20 19  1  0
 21 20  1  1
 21 22  1  0
 21 23  1  0
 22 15  1  0
 23 25  1  0
 24 23  2  0
M  END
$$$$
