TKM.pdb
     RDKit          3D

 25 24  0  0  1  0  0  0  0  0999 V2000
   26.3636  -10.7966  -15.1190 C   0  0  0  0  0  0  0  0  0  0  0  0
   26.1750  -11.6397  -16.3434 C   0  0  1  0  0  0  0  0  0  0  0  0
   26.9829  -12.7850  -16.1995 O   0  0  0  0  0  0  0  0  0  0  0  0
   24.7579  -12.1481  -16.4841 C   0  0  2  0  0  0  0  0  0  0  0  0
   24.7127  -13.0097  -17.6480 N   0  0  0  0  0  0  0  0  0  0  0  0
   23.7831  -11.0490  -16.7094 C   0  0  0  0  0  0  0  0  0  0  0  0
   23.7803  -10.4505  -17.8015 O   0  0  0  0  0  0  0  0  0  0  0  0
   22.8468  -10.6414  -15.7374 N   0  0  0  0  0  0  0  0  0  0  0  0
   21.9069   -9.5379  -15.9114 C   0  0  1  0  0  0  0  0  0  0  0  0
   20.5646   -9.9441  -15.4134 C   0  0  0  0  0  0  0  0  0  0  0  0
   19.6689  -10.6564  -16.3550 C   0  0  0  0  0  0  0  0  0  0  0  0
   18.3774  -10.9386  -15.5516 C   0  0  0  0  0  0  0  0  0  0  0  0
   17.3556  -11.6111  -16.4377 C   0  0  0  0  0  0  0  0  0  0  0  0
   16.2285  -11.9696  -15.5993 N   0  0  0  0  0  0  0  0  0  0  0  0
   22.5058   -8.3517  -15.2786 C   0  0  0  0  0  0  0  0  0  0  0  0
   23.0144   -8.4638  -14.1444 O   0  0  0  0  0  0  0  0  0  0  0  0
   26.2839   -1.8619  -17.5468 C   0  0  0  0  0  0  0  0  0  0  0  0
   25.4355   -3.4479  -17.8758 S   0  0  0  0  0  0  0  0  0  0  0  0
   24.5887   -3.9996  -16.4438 C   0  0  0  0  0  0  0  0  0  0  0  0
   23.8876   -5.2843  -16.4863 C   0  0  0  0  0  0  0  0  0  0  0  0
   23.1603   -5.8791  -15.3763 C   0  0  2  0  0  0  0  0  0  0  0  0
   22.5068   -7.1221  -15.9417 N   0  0  0  0  0  0  0  0  0  0  0  0
   21.9413   -5.0897  -14.9089 C   0  0  0  0  0  0  0  0  0  0  0  0
   22.1200   -4.2440  -13.9464 O   0  0  0  0  0  0  0  0  0  0  0  0
   20.6820   -5.1666  -15.3763 O   0  0  0  0  0  0  0  0  0  0  0  0
  2  1  1  1
  3  2  1  0
  4  6  1  0
  4  2  1  0
  4  5  1  6
  6  7  2  0
  8  9  1  0
  8  6  1  0
 10 11  1  0
  9 10  1  1
 11 12  1  0
 12 13  1  0
 14 13  1  0
 15  9  1  0
 16 15  2  0
 17 18  1  0
 19 18  1  0
 20 19  1  0
 21 20  1  6
 21 22  1  0
 21 23  1  0
 22 15  1  0
 23 25  1  0
 24 23  2  0
M  END
$$$$
