TKM.pdb
     RDKit          3D

 25 24  0  0  1  0  0  0  0  0999 V2000
   22.4468  -13.6051  -16.0029 C   0  0  0  0  0  0  0  0  0  0  0  0
   22.4160  -13.8434  -17.4821 C   0  0  1  0  0  0  0  0  0  0  0  0
   22.7199  -15.2018  -17.7002 O   0  0  0  0  0  0  0  0  0  0  0  0
   21.0422  -13.6262  -18.0754 C   0  0  2  0  0  0  0  0  0  0  0  0
   21.1255  -13.9095  -19.4938 N   0  0  0  0  0  0  0  0  0  0  0  0
   20.5802  -12.2209  -17.9314 C   0  0  0  0  0  0  0  0  0  0  0  0
   21.0312  -11.3491  -18.6978 O   0  0  0  0  0  0  0  0  0  0  0  0
   19.6441  -11.8161  -16.9582 N   0  0  0  0  0  0  0  0  0  0  0  0
   19.2478  -10.4307  -16.7232 C   0  0  1  0  0  0  0  0  0  0  0  0
   17.7932  -10.3744  -16.4145 C   0  0  0  0  0  0  0  0  0  0  0  0
   16.8450  -10.6546  -17.5186 C   0  0  0  0  0  0  0  0  0  0  0  0
   15.4436  -10.6396  -16.8636 C   0  0  0  0  0  0  0  0  0  0  0  0
   14.3832  -10.8919  -17.9092 C   0  0  0  0  0  0  0  0  0  0  0  0
   13.1211  -11.0474  -17.2131 N   0  0  0  0  0  0  0  0  0  0  0  0
   20.1535   -9.8865  -15.6985 C   0  0  0  0  0  0  0  0  0  0  0  0
   20.2380  -10.4671  -14.5969 O   0  0  0  0  0  0  0  0  0  0  0  0
   26.3743  -11.4419  -15.1109 C   0  0  0  0  0  0  0  0  0  0  0  0
   25.6071   -9.9337  -15.8038 S   0  0  0  0  0  0  0  0  0  0  0  0
   24.1065   -9.5715  -14.9737 C   0  0  0  0  0  0  0  0  0  0  0  0
   23.2220   -8.5434  -15.5255 C   0  0  0  0  0  0  0  0  0  0  0  0
   21.9219   -8.1788  -14.9855 C   0  0  2  0  0  0  0  0  0  0  0  0
   20.9082   -8.7403  -15.9597 N   0  0  0  0  0  0  0  0  0  0  0  0
   21.5955   -6.6897  -15.0436 C   0  0  0  0  0  0  0  0  0  0  0  0
   22.1587   -5.9278  -14.1627 O   0  0  0  0  0  0  0  0  0  0  0  0
   20.7790   -6.0589  -15.9070 O   0  0  0  0  0  0  0  0  0  0  0  0
  2  1  1  1
  3  2  1  0
  4  6  1  0
  4  2  1  0
  4  5  1  6
  6  7  2  0
  8  9  1  0
  8  6  1  0
 10 11  1  0
  9 10  1  1
 11 12  1  0
 12 13  1  0
 14 13  1  0
 15  9  1  0
 16 15  2  0
 17 18  1  0
 19 18  1  0
 20 19  1  0
 21 20  1  6
 21 22  1  0
 21 23  1  0
 22 15  1  0
 23 25  1  0
 24 23  2  0
M  END
$$$$
