TKM.pdb
     RDKit          3D

 25 24  0  0  1  0  0  0  0  0999 V2000
   29.0539  -19.1665  -16.7880 C   0  0  0  0  0  0  0  0  0  0  0  0
   28.2552  -19.2768  -15.5247 C   0  0  1  0  0  0  0  0  0  0  0  0
   28.7297  -18.2931  -14.6346 O   0  0  0  0  0  0  0  0  0  0  0  0
   26.7898  -18.9705  -15.7372 C   0  0  2  0  0  0  0  0  0  0  0  0
   26.6972  -17.6518  -16.3300 N   0  0  0  0  0  0  0  0  0  0  0  0
   26.0288  -18.9363  -14.4610 C   0  0  0  0  0  0  0  0  0  0  0  0
   25.8735  -17.8498  -13.8724 O   0  0  0  0  0  0  0  0  0  0  0  0
   25.4647  -20.0862  -13.8720 N   0  0  0  0  0  0  0  0  0  0  0  0
   24.6548  -20.0760  -12.6573 C   0  0  1  0  0  0  0  0  0  0  0  0
   23.3355  -20.7067  -12.9334 C   0  0  0  0  0  0  0  0  0  0  0  0
   22.3790  -19.9564  -13.7811 C   0  0  0  0  0  0  0  0  0  0  0  0
   21.1027  -20.8297  -13.8233 C   0  0  0  0  0  0  0  0  0  0  0  0
   20.0442  -20.1552  -14.6637 C   0  0  0  0  0  0  0  0  0  0  0  0
   19.6240  -18.9643  -13.9518 N   0  0  0  0  0  0  0  0  0  0  0  0
   25.4613  -20.6910  -11.5908 C   0  0  0  0  0  0  0  0  0  0  0  0
   26.1577  -21.6911  -11.8603 O   0  0  0  0  0  0  0  0  0  0  0  0
   28.9543  -19.1371   -4.7162 C   0  0  0  0  0  0  0  0  0  0  0  0
   28.1624  -18.6302   -6.2844 S   0  0  0  0  0  0  0  0  0  0  0  0
   27.3626  -19.9959   -7.0377 C   0  0  0  0  0  0  0  0  0  0  0  0
   26.7341  -19.8145   -8.3475 C   0  0  0  0  0  0  0  0  0  0  0  0
   26.0706  -20.8598   -9.1105 C   0  0  2  0  0  0  0  0  0  0  0  0
   25.4484  -20.1587  -10.2993 N   0  0  0  0  0  0  0  0  0  0  0  0
   24.8378  -21.4605   -8.4421 C   0  0  0  0  0  0  0  0  0  0  0  0
   23.6904  -20.9515   -8.7550 O   0  0  0  0  0  0  0  0  0  0  0  0
   24.7930  -22.4668   -7.5501 O   0  0  0  0  0  0  0  0  0  0  0  0
  2  1  1  6
  3  2  1  0
  4  6  1  0
  4  2  1  0
  4  5  1  1
  6  7  2  0
  8  9  1  0
  8  6  1  0
 10 11  1  0
  9 10  1  6
 11 12  1  0
 12 13  1  0
 14 13  1  0
 15  9  1  0
 16 15  2  0
 17 18  1  0
 19 18  1  0
 20 19  1  0
 21 20  1  1
 21 22  1  0
 21 23  1  0
 22 15  1  0
 23 25  1  0
 24 23  2  0
M  END
$$$$
