TKM.pdb
     RDKit          3D

 25 24  0  0  1  0  0  0  0  0999 V2000
   22.8703   -8.8828  -19.8904 C   0  0  0  0  0  0  0  0  0  0  0  0
   22.2658  -10.1152  -19.2891 C   0  0  1  0  0  0  0  0  0  0  0  0
   23.2069  -11.1560  -19.4170 O   0  0  0  0  0  0  0  0  0  0  0  0
   22.0085   -9.9699  -17.8062 C   0  0  2  0  0  0  0  0  0  0  0  0
   21.8545  -11.3003  -17.2536 N   0  0  0  0  0  0  0  0  0  0  0  0
   20.7548   -9.2244  -17.5206 C   0  0  0  0  0  0  0  0  0  0  0  0
   20.6540   -8.0381  -17.8857 O   0  0  0  0  0  0  0  0  0  0  0  0
   19.6566   -9.7977  -16.8478 N   0  0  0  0  0  0  0  0  0  0  0  0
   18.4218   -9.0858  -16.5317 C   0  0  1  0  0  0  0  0  0  0  0  0
   17.3902  -10.0565  -16.0756 C   0  0  0  0  0  0  0  0  0  0  0  0
   16.0495   -9.5249  -15.7344 C   0  0  0  0  0  0  0  0  0  0  0  0
   15.1956  -10.7682  -15.3904 C   0  0  0  0  0  0  0  0  0  0  0  0
   13.7571  -10.3617  -15.1736 C   0  0  0  0  0  0  0  0  0  0  0  0
   13.0390  -11.5405  -14.7305 N   0  0  0  0  0  0  0  0  0  0  0  0
   18.7683   -8.0108  -15.5880 C   0  0  0  0  0  0  0  0  0  0  0  0
   19.6377   -8.2266  -14.7190 O   0  0  0  0  0  0  0  0  0  0  0  0
   22.9817   -5.8412  -14.3438 C   0  0  0  0  0  0  0  0  0  0  0  0
   22.1722   -4.2101  -14.1791 S   0  0  0  0  0  0  0  0  0  0  0  0
   20.7834   -4.1037  -15.2432 C   0  0  0  0  0  0  0  0  0  0  0  0
   19.9789   -5.3039  -15.4800 C   0  0  0  0  0  0  0  0  0  0  0  0
   18.6425   -5.5339  -14.9547 C   0  0  2  0  0  0  0  0  0  0  0  0
   18.1349   -6.7682  -15.6692 N   0  0  0  0  0  0  0  0  0  0  0  0
   17.6005   -4.5005  -15.3715 C   0  0  0  0  0  0  0  0  0  0  0  0
   17.1271   -4.5916  -16.5720 O   0  0  0  0  0  0  0  0  0  0  0  0
   17.1067   -3.4869  -14.6374 O   0  0  0  0  0  0  0  0  0  0  0  0
  2  1  1  1
  3  2  1  0
  4  6  1  0
  4  2  1  0
  4  5  1  6
  6  7  2  0
  8  9  1  0
  8  6  1  0
 10 11  1  0
  9 10  1  1
 11 12  1  0
 12 13  1  0
 14 13  1  0
 15  9  1  0
 16 15  2  0
 17 18  1  0
 19 18  1  0
 20 19  1  0
 21 20  1  6
 21 22  1  0
 21 23  1  0
 22 15  1  0
 23 25  1  0
 24 23  2  0
M  END
$$$$
