TKM.pdb
     RDKit          3D

 25 24  0  0  1  0  0  0  0  0999 V2000
   19.4566  -14.1036  -18.8755 C   0  0  0  0  0  0  0  0  0  0  0  0
   18.5511  -13.1071  -18.2175 C   0  0  1  0  0  0  0  0  0  0  0  0
   17.2821  -13.7058  -18.0890 O   0  0  0  0  0  0  0  0  0  0  0  0
   18.9910  -12.7642  -16.8120 C   0  0  2  0  0  0  0  0  0  0  0  0
   17.9510  -13.2056  -15.9052 N   0  0  0  0  0  0  0  0  0  0  0  0
   19.1591  -11.3009  -16.6137 C   0  0  0  0  0  0  0  0  0  0  0  0
   20.0947  -10.7113  -17.1865 O   0  0  0  0  0  0  0  0  0  0  0  0
   18.3026  -10.5327  -15.7991 N   0  0  0  0  0  0  0  0  0  0  0  0
   18.4126   -9.0878  -15.6212 C   0  0  1  0  0  0  0  0  0  0  0  0
   17.1339   -8.5542  -15.0784 C   0  0  0  0  0  0  0  0  0  0  0  0
   15.9119   -8.7323  -15.8979 C   0  0  0  0  0  0  0  0  0  0  0  0
   14.7734   -8.0848  -15.0746 C   0  0  0  0  0  0  0  0  0  0  0  0
   13.4757   -8.1564  -15.8443 C   0  0  0  0  0  0  0  0  0  0  0  0
   12.4485   -7.5615  -15.0121 N   0  0  0  0  0  0  0  0  0  0  0  0
   19.6181   -8.8388  -14.8144 C   0  0  0  0  0  0  0  0  0  0  0  0
   19.8686   -9.5946  -13.8533 O   0  0  0  0  0  0  0  0  0  0  0  0
   26.6535  -10.1716  -14.4112 C   0  0  0  0  0  0  0  0  0  0  0  0
   24.9551  -10.1570  -15.0883 S   0  0  0  0  0  0  0  0  0  0  0  0
   24.0744   -8.7576  -14.5068 C   0  0  0  0  0  0  0  0  0  0  0  0
   22.6810   -8.5763  -14.9182 C   0  0  0  0  0  0  0  0  0  0  0  0
   21.7889   -7.5404  -14.4222 C   0  0  2  0  0  0  0  0  0  0  0  0
   20.4684   -7.7747  -15.1246 N   0  0  0  0  0  0  0  0  0  0  0  0
   22.1243   -6.1262  -14.8857 C   0  0  0  0  0  0  0  0  0  0  0  0
   21.5829   -5.7233  -15.9893 O   0  0  0  0  0  0  0  0  0  0  0  0
   22.9291   -5.2317  -14.2836 O   0  0  0  0  0  0  0  0  0  0  0  0
  2  1  1  1
  3  2  1  0
  4  6  1  0
  4  2  1  0
  4  5  1  1
  6  7  2  0
  8  9  1  0
  8  6  1  0
 10 11  1  0
  9 10  1  1
 11 12  1  0
 12 13  1  0
 14 13  1  0
 15  9  1  0
 16 15  2  0
 17 18  1  0
 19 18  1  0
 20 19  1  0
 21 20  1  6
 21 22  1  0
 21 23  1  0
 22 15  1  0
 23 25  1  0
 24 23  2  0
M  END
$$$$
