TKM.pdb
     RDKit          3D

 25 24  0  0  1  0  0  0  0  0999 V2000
   26.0051  -15.4625  -14.8598 C   0  0  0  0  0  0  0  0  0  0  0  0
   25.8326  -15.0395  -16.2871 C   0  0  1  0  0  0  0  0  0  0  0  0
   26.3796  -13.7475  -16.4166 O   0  0  0  0  0  0  0  0  0  0  0  0
   26.6055  -15.9144  -17.2481 C   0  0  2  0  0  0  0  0  0  0  0  0
   26.4052  -15.3866  -18.5824 N   0  0  0  0  0  0  0  0  0  0  0  0
   26.1187  -17.3187  -17.2502 C   0  0  0  0  0  0  0  0  0  0  0  0
   25.0309  -17.5863  -17.7941 O   0  0  0  0  0  0  0  0  0  0  0  0
   26.8341  -18.3805  -16.6600 N   0  0  0  0  0  0  0  0  0  0  0  0
   26.3078  -19.7310  -16.4853 C   0  0  1  0  0  0  0  0  0  0  0  0
   27.4361  -20.6893  -16.3331 C   0  0  0  0  0  0  0  0  0  0  0  0
   27.1269  -22.1356  -16.4278 C   0  0  0  0  0  0  0  0  0  0  0  0
   28.4995  -22.8477  -16.3829 C   0  0  0  0  0  0  0  0  0  0  0  0
   28.3086  -24.3423  -16.4893 C   0  0  0  0  0  0  0  0  0  0  0  0
   29.6251  -24.9481  -16.4492 N   0  0  0  0  0  0  0  0  0  0  0  0
   25.3403  -19.6814  -15.3772 C   0  0  0  0  0  0  0  0  0  0  0  0
   25.6275  -19.0286  -14.3531 O   0  0  0  0  0  0  0  0  0  0  0  0
   19.2349  -16.3272  -13.3879 C   0  0  0  0  0  0  0  0  0  0  0  0
   20.7356  -16.7423  -14.3464 S   0  0  0  0  0  0  0  0  0  0  0  0
   21.2460  -18.3844  -14.0072 C   0  0  0  0  0  0  0  0  0  0  0  0
   22.4795  -18.8833  -14.6182 C   0  0  0  0  0  0  0  0  0  0  0  0
   23.0194  -20.2222  -14.4429 C   0  0  2  0  0  0  0  0  0  0  0  0
   24.1189  -20.3524  -15.4754 N   0  0  0  0  0  0  0  0  0  0  0  0
   22.0846  -21.3529  -14.8611 C   0  0  0  0  0  0  0  0  0  0  0  0
   21.2426  -21.7796  -13.9765 O   0  0  0  0  0  0  0  0  0  0  0  0
   22.0272  -21.9757  -16.0524 O   0  0  0  0  0  0  0  0  0  0  0  0
  2  1  1  1
  3  2  1  0
  4  6  1  0
  4  2  1  0
  4  5  1  6
  6  7  2  0
  8  9  1  0
  8  6  1  0
 10 11  1  0
  9 10  1  1
 11 12  1  0
 12 13  1  0
 14 13  1  0
 15  9  1  0
 16 15  2  0
 17 18  1  0
 19 18  1  0
 20 19  1  0
 21 20  1  6
 21 22  1  0
 21 23  1  0
 22 15  1  0
 23 25  1  0
 24 23  2  0
M  END
$$$$
