TKM.pdb
     RDKit          3D

 25 24  0  0  1  0  0  0  0  0999 V2000
   24.8775  -15.0211  -15.3255 C   0  0  0  0  0  0  0  0  0  0  0  0
   25.3758  -15.0606  -16.7383 C   0  0  1  0  0  0  0  0  0  0  0  0
   26.3617  -14.0626  -16.8693 O   0  0  0  0  0  0  0  0  0  0  0  0
   26.0611  -16.3659  -17.0745 C   0  0  2  0  0  0  0  0  0  0  0  0
   26.5714  -16.2597  -18.4263 N   0  0  0  0  0  0  0  0  0  0  0  0
   25.1249  -17.5198  -17.0444 C   0  0  0  0  0  0  0  0  0  0  0  0
   24.1180  -17.5075  -17.7772 O   0  0  0  0  0  0  0  0  0  0  0  0
   25.3189  -18.6450  -16.2176 N   0  0  0  0  0  0  0  0  0  0  0  0
   24.4010  -19.7777  -16.1400 C   0  0  1  0  0  0  0  0  0  0  0  0
   25.1272  -20.9731  -15.6321 C   0  0  0  0  0  0  0  0  0  0  0  0
   25.7703  -21.8615  -16.6290 C   0  0  0  0  0  0  0  0  0  0  0  0
   27.2030  -22.0993  -16.0960 C   0  0  0  0  0  0  0  0  0  0  0  0
   27.9933  -22.9177  -17.0896 C   0  0  0  0  0  0  0  0  0  0  0  0
   29.3308  -23.0724  -16.5522 N   0  0  0  0  0  0  0  0  0  0  0  0
   23.2352  -19.3406  -15.3551 C   0  0  0  0  0  0  0  0  0  0  0  0
   23.4217  -18.6774  -14.3143 O   0  0  0  0  0  0  0  0  0  0  0  0
   19.5932  -14.8085  -16.6655 C   0  0  0  0  0  0  0  0  0  0  0  0
   18.3506  -16.1402  -16.5045 S   0  0  0  0  0  0  0  0  0  0  0  0
   18.9289  -17.3919  -15.4224 C   0  0  0  0  0  0  0  0  0  0  0  0
   20.1249  -18.1511  -15.7923 C   0  0  0  0  0  0  0  0  0  0  0  0
   20.7000  -19.2388  -15.0171 C   0  0  2  0  0  0  0  0  0  0  0  0
   21.9415  -19.6612  -15.7735 N   0  0  0  0  0  0  0  0  0  0  0  0
   19.8924  -20.5330  -15.0266 C   0  0  0  0  0  0  0  0  0  0  0  0
   20.2108  -21.4203  -15.9125 O   0  0  0  0  0  0  0  0  0  0  0  0
   18.8708  -20.8719  -14.2193 O   0  0  0  0  0  0  0  0  0  0  0  0
  2  1  1  1
  3  2  1  0
  4  6  1  0
  4  2  1  0
  4  5  1  6
  6  7  2  0
  8  9  1  0
  8  6  1  0
 10 11  1  0
  9 10  1  1
 11 12  1  0
 12 13  1  0
 14 13  1  0
 15  9  1  0
 16 15  2  0
 17 18  1  0
 19 18  1  0
 20 19  1  0
 21 20  1  6
 21 22  1  0
 21 23  1  0
 22 15  1  0
 23 25  1  0
 24 23  2  0
M  END
$$$$
