DFG.pdb
     RDKit          3D

 24 24  0  0  1  0  0  0  0  0999 V2000
   20.8995   -9.4017  -21.2847 N   0  0  0  0  0  0  0  0  0  0  0  0
   20.9473   -8.1101  -20.6274 C   0  0  1  0  0  0  0  0  0  0  0  0
   19.8894   -7.1886  -21.1998 C   0  0  0  0  0  0  0  0  0  0  0  0
   20.1118   -6.9032  -22.6250 C   0  0  0  0  0  0  0  0  0  0  0  0
   21.2506   -6.8437  -23.1431 O   0  0  0  0  0  0  0  0  0  0  0  0
   20.7618   -8.2794  -19.1559 C   0  0  0  0  0  0  0  0  0  0  0  0
   20.1584   -9.2463  -18.6493 O   0  0  0  0  0  0  0  0  0  0  0  0
   18.9994   -6.6911  -23.4252 O   0  0  0  0  0  0  0  0  0  0  0  0
   21.2794   -7.3209  -18.2598 N   0  0  0  0  0  0  0  0  0  0  0  0
   21.0122   -7.4327  -16.8262 C   0  0  1  0  0  0  0  0  0  0  0  0
   22.3041   -7.5290  -16.0629 C   0  0  0  0  0  0  0  0  0  0  0  0
   22.2071   -7.5971  -14.6087 C   0  0  0  0  0  0  0  0  0  0  0  0
   22.2571   -8.8084  -13.9250 C   0  0  0  0  0  0  0  0  0  0  0  0
   22.1665   -8.8765  -12.5601 C   0  0  0  0  0  0  0  0  0  0  0  0
   22.0202   -7.7289  -11.8004 C   0  0  0  0  0  0  0  0  0  0  0  0
   21.9690   -6.5263  -12.4565 C   0  0  0  0  0  0  0  0  0  0  0  0
   22.0609   -6.4718  -13.8258 C   0  0  0  0  0  0  0  0  0  0  0  0
   20.2861   -6.1972  -16.4626 C   0  0  0  0  0  0  0  0  0  0  0  0
   20.7382   -5.0301  -16.7387 O   0  0  0  0  0  0  0  0  0  0  0  0
   19.0374   -6.1898  -15.7886 N   0  0  0  0  0  0  0  0  0  0  0  0
   18.4044   -4.9347  -15.3508 C   0  0  0  0  0  0  0  0  0  0  0  0
   17.1212   -5.2576  -14.6977 C   0  0  0  0  0  0  0  0  0  0  0  0
   16.0412   -4.9909  -15.2736 O   0  0  0  0  0  0  0  0  0  0  0  0
   17.0831   -5.8511  -13.4564 O   0  0  0  0  0  0  0  0  0  0  0  0
  2  1  1  6
  2  3  1  0
  3  4  1  0
  4  8  1  0
  5  4  2  0
  6  9  1  0
  6  2  1  0
  7  6  2  0
 10  9  1  0
 10 18  1  0
 10 11  1  1
 11 12  1  0
 12 17  2  0
 12 13  1  0
 13 14  2  0
 14 15  1  0
 16 15  2  0
 17 16  1  0
 18 20  1  0
 19 18  2  0
 20 21  1  0
 21 22  1  0
 22 23  2  0
 22 24  1  0
M  END
$$$$
