DFG.pdb
     RDKit          3D

 24 24  0  0  1  0  0  0  0  0999 V2000
   34.7287  -26.4102    6.4253 N   0  0  0  0  0  0  0  0  0  0  0  0
   34.5163  -25.9568    7.7861 C   0  0  1  0  0  0  0  0  0  0  0  0
   35.0090  -26.9977    8.7709 C   0  0  0  0  0  0  0  0  0  0  0  0
   34.1430  -28.1857    8.8050 C   0  0  0  0  0  0  0  0  0  0  0  0
   32.9402  -28.1680    8.4557 O   0  0  0  0  0  0  0  0  0  0  0  0
   35.2094  -24.6526    8.0034 C   0  0  0  0  0  0  0  0  0  0  0  0
   36.3876  -24.4378    7.6551 O   0  0  0  0  0  0  0  0  0  0  0  0
   34.6952  -29.3782    9.2473 O   0  0  0  0  0  0  0  0  0  0  0  0
   34.5336  -23.5848    8.6301 N   0  0  0  0  0  0  0  0  0  0  0  0
   35.2129  -22.3075    8.8446 C   0  0  1  0  0  0  0  0  0  0  0  0
   34.4204  -21.1877    8.2291 C   0  0  0  0  0  0  0  0  0  0  0  0
   33.6797  -21.4965    7.0106 C   0  0  0  0  0  0  0  0  0  0  0  0
   32.3072  -21.2870    6.9122 C   0  0  0  0  0  0  0  0  0  0  0  0
   31.6084  -21.5754    5.7701 C   0  0  0  0  0  0  0  0  0  0  0  0
   32.2490  -22.0923    4.6576 C   0  0  0  0  0  0  0  0  0  0  0  0
   33.6010  -22.3054    4.7358 C   0  0  0  0  0  0  0  0  0  0  0  0
   34.2901  -22.0120    5.8870 C   0  0  0  0  0  0  0  0  0  0  0  0
   35.2897  -22.1429   10.3118 C   0  0  0  0  0  0  0  0  0  0  0  0
   34.2483  -21.9617   11.0366 O   0  0  0  0  0  0  0  0  0  0  0  0
   36.5054  -22.1748   11.0430 N   0  0  0  0  0  0  0  0  0  0  0  0
   37.3213  -20.9646   11.2365 C   0  0  0  0  0  0  0  0  0  0  0  0
   36.7147  -20.1547   12.3106 C   0  0  0  0  0  0  0  0  0  0  0  0
   35.6328  -19.5567   12.1086 O   0  0  0  0  0  0  0  0  0  0  0  0
   37.3173  -20.0396   13.5428 O   0  0  0  0  0  0  0  0  0  0  0  0
  2  1  1  6
  2  3  1  0
  3  4  1  0
  4  8  1  0
  5  4  2  0
  6  9  1  0
  6  2  1  0
  7  6  2  0
 10  9  1  0
 10 18  1  0
 10 11  1  6
 11 12  1  0
 12 17  2  0
 12 13  1  0
 13 14  2  0
 14 15  1  0
 16 15  2  0
 17 16  1  0
 18 20  1  0
 19 18  2  0
 20 21  1  0
 21 22  1  0
 22 23  2  0
 22 24  1  0
M  END
$$$$
