DFG.pdb
     RDKit          3D

 24 24  0  0  1  0  0  0  0  0999 V2000
   22.5233  -22.0032  -12.5093 N   0  0  0  0  0  0  0  0  0  0  0  0
   22.6716  -20.5716  -12.6849 C   0  0  1  0  0  0  0  0  0  0  0  0
   21.7330  -19.8273  -11.7570 C   0  0  0  0  0  0  0  0  0  0  0  0
   20.3398  -20.2766  -11.8969 C   0  0  0  0  0  0  0  0  0  0  0  0
   19.3938  -19.7950  -11.2320 O   0  0  0  0  0  0  0  0  0  0  0  0
   24.0883  -20.1712  -12.4374 C   0  0  0  0  0  0  0  0  0  0  0  0
   24.4432  -18.9894  -12.2555 O   0  0  0  0  0  0  0  0  0  0  0  0
   20.0718  -21.2829  -12.8123 O   0  0  0  0  0  0  0  0  0  0  0  0
   25.1060  -21.1471  -12.3997 N   0  0  0  0  0  0  0  0  0  0  0  0
   26.4920  -20.7566  -12.1433 C   0  0  1  0  0  0  0  0  0  0  0  0
   27.0427  -21.5307  -10.9777 C   0  0  0  0  0  0  0  0  0  0  0  0
   26.8642  -20.9445   -9.6537 C   0  0  0  0  0  0  0  0  0  0  0  0
   27.9454  -20.6568   -8.8257 C   0  0  0  0  0  0  0  0  0  0  0  0
   27.7820  -20.1064   -7.5823 C   0  0  0  0  0  0  0  0  0  0  0  0
   26.5199  -19.8120   -7.0968 C   0  0  0  0  0  0  0  0  0  0  0  0
   25.4426  -20.0884   -7.8983 C   0  0  0  0  0  0  0  0  0  0  0  0
   25.6201  -20.6405   -9.1432 C   0  0  0  0  0  0  0  0  0  0  0  0
   27.2305  -21.0874  -13.3806 C   0  0  0  0  0  0  0  0  0  0  0  0
   28.3645  -21.6842  -13.3633 O   0  0  0  0  0  0  0  0  0  0  0  0
   26.7563  -20.7833  -14.6831 N   0  0  0  0  0  0  0  0  0  0  0  0
   27.5213  -21.1473  -15.8872 C   0  0  0  0  0  0  0  0  0  0  0  0
   26.7457  -20.7461  -17.0767 C   0  0  0  0  0  0  0  0  0  0  0  0
   27.2038  -20.9576  -18.2232 O   0  0  0  0  0  0  0  0  0  0  0  0
   25.5172  -20.1376  -16.9542 O   0  0  0  0  0  0  0  0  0  0  0  0
  2  1  1  1
  2  3  1  0
  3  4  1  0
  4  8  1  0
  5  4  2  0
  6  9  1  0
  6  2  1  0
  7  6  2  0
 10  9  1  0
 10 18  1  0
 10 11  1  1
 11 12  1  0
 12 17  2  0
 12 13  1  0
 13 14  2  0
 14 15  1  0
 16 15  2  0
 17 16  1  0
 18 20  1  0
 19 18  2  0
 20 21  1  0
 21 22  1  0
 22 23  2  0
 22 24  1  0
M  END
$$$$
