DFG.pdb
     RDKit          3D

 24 24  0  0  1  0  0  0  0  0999 V2000
   28.1560    3.5094   -7.5493 N   0  0  0  0  0  0  0  0  0  0  0  0
   27.3763    4.5811   -8.1373 C   0  0  1  0  0  0  0  0  0  0  0  0
   28.2822    5.7180   -8.5649 C   0  0  0  0  0  0  0  0  0  0  0  0
   28.8870    6.4098   -7.4168 C   0  0  0  0  0  0  0  0  0  0  0  0
   28.2187    6.8626   -6.4591 O   0  0  0  0  0  0  0  0  0  0  0  0
   26.5920    4.0642   -9.2976 C   0  0  0  0  0  0  0  0  0  0  0  0
   27.1011    3.4123  -10.2312 O   0  0  0  0  0  0  0  0  0  0  0  0
   30.2651    6.5627   -7.4043 O   0  0  0  0  0  0  0  0  0  0  0  0
   25.2044    4.3031   -9.3800 N   0  0  0  0  0  0  0  0  0  0  0  0
   24.4113    3.6808  -10.4396 C   0  0  1  0  0  0  0  0  0  0  0  0
   23.5865    2.5557   -9.8786 C   0  0  0  0  0  0  0  0  0  0  0  0
   24.1871    1.7687   -8.8070 C   0  0  0  0  0  0  0  0  0  0  0  0
   23.8068    1.9268   -7.4775 C   0  0  0  0  0  0  0  0  0  0  0  0
   24.3681    1.1899   -6.4687 C   0  0  0  0  0  0  0  0  0  0  0  0
   25.3466    0.2487   -6.7372 C   0  0  0  0  0  0  0  0  0  0  0  0
   25.7343    0.0790   -8.0412 C   0  0  0  0  0  0  0  0  0  0  0  0
   25.1635    0.8244   -9.0435 C   0  0  0  0  0  0  0  0  0  0  0  0
   23.5380    4.7539  -10.9609 C   0  0  0  0  0  0  0  0  0  0  0  0
   22.9793    5.6160  -10.1944 O   0  0  0  0  0  0  0  0  0  0  0  0
   23.2460    4.9289  -12.3385 N   0  0  0  0  0  0  0  0  0  0  0  0
   22.3382    5.9895  -12.8061 C   0  0  0  0  0  0  0  0  0  0  0  0
   20.9476    5.5214  -12.6501 C   0  0  0  0  0  0  0  0  0  0  0  0
   20.3333    5.0457  -13.6326 O   0  0  0  0  0  0  0  0  0  0  0  0
   20.3025    5.5967  -11.4365 O   0  0  0  0  0  0  0  0  0  0  0  0
  2  1  1  6
  2  3  1  0
  3  4  1  0
  4  8  1  0
  5  4  2  0
  6  9  1  0
  6  2  1  0
  7  6  2  0
 10  9  1  0
 10 18  1  0
 10 11  1  1
 11 12  1  0
 12 17  2  0
 12 13  1  0
 13 14  2  0
 14 15  1  0
 16 15  2  0
 17 16  1  0
 18 20  1  0
 19 18  2  0
 20 21  1  0
 21 22  1  0
 22 23  2  0
 22 24  1  0
M  END
$$$$
