DFG.pdb
     RDKit          3D

 24 24  0  0  1  0  0  0  0  0999 V2000
   21.5826  -11.0233  -17.5172 N   0  0  0  0  0  0  0  0  0  0  0  0
   21.2889   -9.6049  -17.5841 C   0  0  1  0  0  0  0  0  0  0  0  0
   19.7909   -9.3776  -17.6008 C   0  0  0  0  0  0  0  0  0  0  0  0
   19.2022   -9.6432  -18.9218 C   0  0  0  0  0  0  0  0  0  0  0  0
   19.8837   -9.9469  -19.9280 O   0  0  0  0  0  0  0  0  0  0  0  0
   21.9187   -8.8984  -16.4297 C   0  0  0  0  0  0  0  0  0  0  0  0
   21.8980   -9.3403  -15.2635 O   0  0  0  0  0  0  0  0  0  0  0  0
   17.8246   -9.5500  -19.0485 O   0  0  0  0  0  0  0  0  0  0  0  0
   22.5798   -7.6678  -16.6249 N   0  0  0  0  0  0  0  0  0  0  0  0
   23.1472   -6.9474  -15.4855 C   0  0  1  0  0  0  0  0  0  0  0  0
   24.6434   -6.8693  -15.6130 C   0  0  0  0  0  0  0  0  0  0  0  0
   25.3688   -8.1347  -15.6495 C   0  0  0  0  0  0  0  0  0  0  0  0
   26.0953   -8.5330  -16.7679 C   0  0  0  0  0  0  0  0  0  0  0  0
   26.7777   -9.7198  -16.8060 C   0  0  0  0  0  0  0  0  0  0  0  0
   26.7702  -10.5780  -15.7202 C   0  0  0  0  0  0  0  0  0  0  0  0
   26.0599  -10.2025  -14.6094 C   0  0  0  0  0  0  0  0  0  0  0  0
   25.3798   -9.0096  -14.5841 C   0  0  0  0  0  0  0  0  0  0  0  0
   22.5512   -5.5954  -15.5371 C   0  0  0  0  0  0  0  0  0  0  0  0
   22.6623   -4.8360  -16.5635 O   0  0  0  0  0  0  0  0  0  0  0  0
   21.8077   -5.0239  -14.4720 N   0  0  0  0  0  0  0  0  0  0  0  0
   21.2705   -3.6556  -14.5533 C   0  0  0  0  0  0  0  0  0  0  0  0
   19.8680   -3.7266  -15.0066 C   0  0  0  0  0  0  0  0  0  0  0  0
   19.5840   -3.4875  -16.2029 O   0  0  0  0  0  0  0  0  0  0  0  0
   18.8534   -4.0526  -14.1354 O   0  0  0  0  0  0  0  0  0  0  0  0
  2  1  1  1
  2  3  1  0
  3  4  1  0
  4  8  1  0
  5  4  2  0
  6  9  1  0
  6  2  1  0
  7  6  2  0
 10  9  1  0
 10 18  1  0
 10 11  1  6
 11 12  1  0
 12 17  2  0
 12 13  1  0
 13 14  2  0
 14 15  1  0
 16 15  2  0
 17 16  1  0
 18 20  1  0
 19 18  2  0
 20 21  1  0
 21 22  1  0
 22 23  2  0
 22 24  1  0
M  END
$$$$
