DFG.pdb
     RDKit          3D

 24 24  0  0  1  0  0  0  0  0999 V2000
   26.0021  -17.7375  -14.7029 N   0  0  0  0  0  0  0  0  0  0  0  0
   26.6769  -18.7773  -15.4551 C   0  0  1  0  0  0  0  0  0  0  0  0
   28.0755  -18.3317  -15.8313 C   0  0  0  0  0  0  0  0  0  0  0  0
   28.0659  -17.2434  -16.8202 C   0  0  0  0  0  0  0  0  0  0  0  0
   27.7411  -17.4084  -18.0186 O   0  0  0  0  0  0  0  0  0  0  0  0
   26.7197  -20.0382  -14.6572 C   0  0  0  0  0  0  0  0  0  0  0  0
   27.2148  -21.1008  -15.0833 O   0  0  0  0  0  0  0  0  0  0  0  0
   28.4364  -15.9769  -16.3942 O   0  0  0  0  0  0  0  0  0  0  0  0
   26.1846  -20.0718  -13.3526 N   0  0  0  0  0  0  0  0  0  0  0  0
   26.1923  -21.3167  -12.5850 C   0  0  1  0  0  0  0  0  0  0  0  0
   27.1471  -21.2081  -11.4285 C   0  0  0  0  0  0  0  0  0  0  0  0
   26.5908  -20.7690  -10.1533 C   0  0  0  0  0  0  0  0  0  0  0  0
   25.7641  -21.5893   -9.3909 C   0  0  0  0  0  0  0  0  0  0  0  0
   25.2401  -21.1808   -8.1933 C   0  0  0  0  0  0  0  0  0  0  0  0
   25.5166  -19.9215   -7.6902 C   0  0  0  0  0  0  0  0  0  0  0  0
   26.3291  -19.0994   -8.4273 C   0  0  0  0  0  0  0  0  0  0  0  0
   26.8482  -19.5211   -9.6268 C   0  0  0  0  0  0  0  0  0  0  0  0
   24.8067  -21.4890  -12.0988 C   0  0  0  0  0  0  0  0  0  0  0  0
   24.4475  -22.4986  -11.3957 O   0  0  0  0  0  0  0  0  0  0  0  0
   23.7629  -20.5633  -12.3580 N   0  0  0  0  0  0  0  0  0  0  0  0
   22.3945  -20.7846  -11.8617 C   0  0  0  0  0  0  0  0  0  0  0  0
   21.4794  -20.8497  -13.0175 C   0  0  0  0  0  0  0  0  0  0  0  0
   21.7003  -21.6611  -13.9459 O   0  0  0  0  0  0  0  0  0  0  0  0
   20.3768  -20.0300  -13.1002 O   0  0  0  0  0  0  0  0  0  0  0  0
  2  1  1  1
  2  3  1  0
  3  4  1  0
  4  8  1  0
  5  4  2  0
  6  9  1  0
  6  2  1  0
  7  6  2  0
 10  9  1  0
 10 18  1  0
 10 11  1  1
 11 12  1  0
 12 17  2  0
 12 13  1  0
 13 14  2  0
 14 15  1  0
 16 15  2  0
 17 16  1  0
 18 20  1  0
 19 18  2  0
 20 21  1  0
 21 22  1  0
 22 23  2  0
 22 24  1  0
M  END
$$$$
