DFG.pdb
     RDKit          3D

 24 24  0  0  1  0  0  0  0  0999 V2000
   26.2252  -19.4008  -13.0137 N   0  0  0  0  0  0  0  0  0  0  0  0
   26.8760  -20.6887  -12.8719 C   0  0  1  0  0  0  0  0  0  0  0  0
   28.1862  -20.7032  -13.6328 C   0  0  0  0  0  0  0  0  0  0  0  0
   28.0048  -20.3973  -15.0596 C   0  0  0  0  0  0  0  0  0  0  0  0
   26.8906  -20.1365  -15.5690 O   0  0  0  0  0  0  0  0  0  0  0  0
   27.0994  -20.9912  -11.4272 C   0  0  0  0  0  0  0  0  0  0  0  0
   27.6672  -22.0264  -11.0251 O   0  0  0  0  0  0  0  0  0  0  0  0
   29.1288  -20.4006  -15.8716 O   0  0  0  0  0  0  0  0  0  0  0  0
   26.6620  -20.0877  -10.4364 N   0  0  0  0  0  0  0  0  0  0  0  0
   26.7862  -20.4307   -9.0200 C   0  0  1  0  0  0  0  0  0  0  0  0
   27.3281  -19.2600   -8.2475 C   0  0  0  0  0  0  0  0  0  0  0  0
   27.8319  -19.5321   -6.9056 C   0  0  0  0  0  0  0  0  0  0  0  0
   27.5572  -18.6890   -5.8328 C   0  0  0  0  0  0  0  0  0  0  0  0
   28.0281  -18.9410   -4.5716 C   0  0  0  0  0  0  0  0  0  0  0  0
   28.8044  -20.0573   -4.3138 C   0  0  0  0  0  0  0  0  0  0  0  0
   29.0855  -20.8996   -5.3583 C   0  0  0  0  0  0  0  0  0  0  0  0
   28.6071  -20.6354   -6.6184 C   0  0  0  0  0  0  0  0  0  0  0  0
   25.4159  -20.7580   -8.5717 C   0  0  0  0  0  0  0  0  0  0  0  0
   25.1662  -21.1940   -7.3926 O   0  0  0  0  0  0  0  0  0  0  0  0
   24.2666  -20.6170   -9.3921 N   0  0  0  0  0  0  0  0  0  0  0  0
   22.9133  -20.8811   -8.8761 C   0  0  0  0  0  0  0  0  0  0  0  0
   21.9473  -20.7079   -9.9781 C   0  0  0  0  0  0  0  0  0  0  0  0
   22.3573  -20.4909  -11.1416 O   0  0  0  0  0  0  0  0  0  0  0  0
   20.5910  -20.7795   -9.7544 O   0  0  0  0  0  0  0  0  0  0  0  0
  2  1  1  1
  2  3  1  0
  3  4  1  0
  4  8  1  0
  5  4  2  0
  6  9  1  0
  6  2  1  0
  7  6  2  0
 10  9  1  0
 10 18  1  0
 10 11  1  1
 11 12  1  0
 12 17  2  0
 12 13  1  0
 13 14  2  0
 14 15  1  0
 16 15  2  0
 17 16  1  0
 18 20  1  0
 19 18  2  0
 20 21  1  0
 21 22  1  0
 22 23  2  0
 22 24  1  0
M  END
$$$$
