DFG.pdb
     RDKit          3D

 24 24  0  0  1  0  0  0  0  0999 V2000
   18.6983  -13.7043  -16.4852 N   0  0  0  0  0  0  0  0  0  0  0  0
   18.8291  -12.2614  -16.4265 C   0  0  1  0  0  0  0  0  0  0  0  0
   17.7233  -11.6666  -15.5782 C   0  0  0  0  0  0  0  0  0  0  0  0
   16.3867  -11.9973  -16.0943 C   0  0  0  0  0  0  0  0  0  0  0  0
   15.3571  -11.9994  -15.3810 O   0  0  0  0  0  0  0  0  0  0  0  0
   20.1697  -11.8923  -15.8834 C   0  0  0  0  0  0  0  0  0  0  0  0
   20.6706  -12.4290  -14.8751 O   0  0  0  0  0  0  0  0  0  0  0  0
   16.2721  -12.3211  -17.4377 O   0  0  0  0  0  0  0  0  0  0  0  0
   20.9400  -10.8919  -16.5123 N   0  0  0  0  0  0  0  0  0  0  0  0
   22.2612  -10.5429  -15.9912 C   0  0  1  0  0  0  0  0  0  0  0  0
   23.3354  -11.1653  -16.8396 C   0  0  0  0  0  0  0  0  0  0  0  0
   24.7160  -10.8369  -16.5010 C   0  0  0  0  0  0  0  0  0  0  0  0
   25.3128  -11.2911  -15.3284 C   0  0  0  0  0  0  0  0  0  0  0  0
   26.6085  -10.9852  -15.0070 C   0  0  0  0  0  0  0  0  0  0  0  0
   27.3823  -10.2033  -15.8467 C   0  0  0  0  0  0  0  0  0  0  0  0
   26.8115   -9.7466  -17.0065 C   0  0  0  0  0  0  0  0  0  0  0  0
   25.5110  -10.0606  -17.3171 C   0  0  0  0  0  0  0  0  0  0  0  0
   22.3356   -9.0679  -16.0602 C   0  0  0  0  0  0  0  0  0  0  0  0
   21.9454   -8.4093  -17.0881 O   0  0  0  0  0  0  0  0  0  0  0  0
   22.8341   -8.2569  -15.0079 N   0  0  0  0  0  0  0  0  0  0  0  0
   22.8488   -6.7880  -15.1067 C   0  0  0  0  0  0  0  0  0  0  0  0
   21.8216   -6.2448  -14.1972 C   0  0  0  0  0  0  0  0  0  0  0  0
   21.7450   -5.0092  -14.0061 O   0  0  0  0  0  0  0  0  0  0  0  0
   20.9361   -7.0736  -13.5464 O   0  0  0  0  0  0  0  0  0  0  0  0
  2  1  1  1
  2  3  1  0
  3  4  1  0
  4  8  1  0
  5  4  2  0
  6  9  1  0
  6  2  1  0
  7  6  2  0
 10  9  1  0
 10 18  1  0
 10 11  1  6
 11 12  1  0
 12 17  2  0
 12 13  1  0
 13 14  2  0
 14 15  1  0
 16 15  2  0
 17 16  1  0
 18 20  1  0
 19 18  2  0
 20 21  1  0
 21 22  1  0
 22 23  2  0
 22 24  1  0
M  END
$$$$
