DFG.pdb
     RDKit          3D

 24 24  0  0  1  0  0  0  0  0999 V2000
   22.1914  -10.6453  -18.3870 N   0  0  0  0  0  0  0  0  0  0  0  0
   21.7886   -9.2530  -18.3464 C   0  0  1  0  0  0  0  0  0  0  0  0
   20.3197   -9.1195  -18.6938 C   0  0  0  0  0  0  0  0  0  0  0  0
   20.0396   -9.5044  -20.0851 C   0  0  0  0  0  0  0  0  0  0  0  0
   20.7884   -9.2054  -21.0436 O   0  0  0  0  0  0  0  0  0  0  0  0
   22.0673   -8.6803  -16.9962 C   0  0  0  0  0  0  0  0  0  0  0  0
   21.7694   -9.2598  -15.9327 O   0  0  0  0  0  0  0  0  0  0  0  0
   18.8875  -10.2338  -20.3367 O   0  0  0  0  0  0  0  0  0  0  0  0
   22.6972   -7.4243  -16.8736 N   0  0  0  0  0  0  0  0  0  0  0  0
   23.0486   -6.9020  -15.5535 C   0  0  1  0  0  0  0  0  0  0  0  0
   24.5413   -6.7743  -15.4256 C   0  0  0  0  0  0  0  0  0  0  0  0
   25.3226   -7.9975  -15.5735 C   0  0  0  0  0  0  0  0  0  0  0  0
   26.1306   -8.2234  -16.6841 C   0  0  0  0  0  0  0  0  0  0  0  0
   26.8656   -9.3702  -16.8265 C   0  0  0  0  0  0  0  0  0  0  0  0
   26.8320  -10.3595  -15.8593 C   0  0  0  0  0  0  0  0  0  0  0  0
   26.0416  -10.1547  -14.7580 C   0  0  0  0  0  0  0  0  0  0  0  0
   25.3093   -9.0002  -14.6273 C   0  0  0  0  0  0  0  0  0  0  0  0
   22.4056   -5.5732  -15.4710 C   0  0  0  0  0  0  0  0  0  0  0  0
   23.0549   -4.5164  -15.1480 O   0  0  0  0  0  0  0  0  0  0  0  0
   21.0312   -5.3477  -15.7426 N   0  0  0  0  0  0  0  0  0  0  0  0
   20.4053   -4.0345  -15.5162 C   0  0  0  0  0  0  0  0  0  0  0  0
   20.0773   -3.4374  -16.8252 C   0  0  0  0  0  0  0  0  0  0  0  0
   20.4595   -2.2759  -17.0969 O   0  0  0  0  0  0  0  0  0  0  0  0
   19.3525   -4.1350  -17.7648 O   0  0  0  0  0  0  0  0  0  0  0  0
  2  1  1  1
  2  3  1  0
  3  4  1  0
  4  8  1  0
  5  4  2  0
  6  9  1  0
  6  2  1  0
  7  6  2  0
 10  9  1  0
 10 18  1  0
 10 11  1  6
 11 12  1  0
 12 17  2  0
 12 13  1  0
 13 14  2  0
 14 15  1  0
 16 15  2  0
 17 16  1  0
 18 20  1  0
 19 18  2  0
 20 21  1  0
 21 22  1  0
 22 23  2  0
 22 24  1  0
M  END
$$$$
