HTN.pdb
     RDKit          3D

 26 26  0  0  1  0  0  0  0  0999 V2000
   37.2431   -7.9965  -16.0275 N   0  0  0  0  0  0  0  0  0  0  0  0
   35.9655   -8.4041  -15.4891 C   0  0  1  0  0  0  0  0  0  0  0  0
   35.5501   -7.4200  -14.4527 C   0  0  0  0  0  0  0  0  0  0  0  0
   36.4587   -7.3585  -13.2884 C   0  0  0  0  0  0  0  0  0  0  0  0
   37.6188   -8.0624  -13.0818 C   0  0  0  0  0  0  0  0  0  0  0  0
   38.1227   -7.6776  -11.8870 N   0  0  0  0  0  0  0  0  0  0  0  0
   37.3149   -6.7592  -11.3460 C   0  0  0  0  0  0  0  0  0  0  0  0
   36.2982   -6.5599  -12.1956 N   0  0  0  0  0  0  0  0  0  0  0  0
   35.0067   -8.5704  -16.6143 C   0  0  0  0  0  0  0  0  0  0  0  0
   35.0103   -7.7680  -17.5954 O   0  0  0  0  0  0  0  0  0  0  0  0
   34.3674  -11.9489  -18.3679 C   0  0  0  0  0  0  0  0  0  0  0  0
   33.0352  -11.3348  -18.0197 C   0  0  1  0  0  0  0  0  0  0  0  0
   32.4700  -12.1245  -17.0400 O   0  0  0  0  0  0  0  0  0  0  0  0
   33.0981   -9.8974  -17.6735 C   0  0  2  0  0  0  0  0  0  0  0  0
   34.0653   -9.6238  -16.6206 N   0  0  0  0  0  0  0  0  0  0  0  0
   31.8108   -9.1965  -17.4897 C   0  0  0  0  0  0  0  0  0  0  0  0
   31.4175   -8.7551  -16.3497 O   0  0  0  0  0  0  0  0  0  0  0  0
   27.1465   -6.5166  -18.3359 N   0  0  0  0  0  0  0  0  0  0  0  0
   28.4135   -6.1513  -18.8012 C   0  0  0  0  0  0  0  0  0  0  0  0
   28.5176   -4.9613  -19.2754 O   0  0  0  0  0  0  0  0  0  0  0  0
   29.6373   -6.9414  -18.8197 C   0  0  0  0  0  0  0  0  0  0  0  0
   29.5765   -8.3134  -18.2619 C   0  0  2  0  0  0  0  0  0  0  0  0
   30.8804   -8.9334  -18.5287 N   0  0  0  0  0  0  0  0  0  0  0  0
   28.5546   -9.1130  -18.9607 C   0  0  0  0  0  0  0  0  0  0  0  0
   28.6972   -9.5950  -20.0937 O   0  0  0  0  0  0  0  0  0  0  0  0
   27.3097   -9.3792  -18.3443 O   0  0  0  0  0  0  0  0  0  0  0  0
  2  1  1  6
  2  9  1  0
  3  4  1  0
  3  2  1  0
  4  8  1  0
  5  4  2  0
  5  6  1  0
  6  7  1  0
  8  7  2  0
  9 10  2  0
 12 11  1  1
 12 14  1  0
 13 12  1  0
 14 16  1  0
 14 15  1  1
 15  9  1  0
 16 17  2  0
 16 23  1  0
 18 19  1  0
 19 21  1  0
 20 19  2  0
 22 21  1  6
 22 24  1  0
 23 22  1  0
 24 25  2  0
 24 26  1  0
M  END
$$$$
