HTN.pdb
     RDKit          3D

 26 26  0  0  1  0  0  0  0  0999 V2000
   23.0461  -14.7462  -19.8731 N   0  0  0  0  0  0  0  0  0  0  0  0
   22.3706  -13.4856  -20.0804 C   0  0  1  0  0  0  0  0  0  0  0  0
   20.9477  -13.6353  -19.6704 C   0  0  0  0  0  0  0  0  0  0  0  0
   20.1855  -14.5952  -20.4966 C   0  0  0  0  0  0  0  0  0  0  0  0
   19.9098  -15.9125  -20.2266 C   0  0  0  0  0  0  0  0  0  0  0  0
   19.1767  -16.3955  -21.2555 N   0  0  0  0  0  0  0  0  0  0  0  0
   18.9883  -15.4230  -22.1539 C   0  0  0  0  0  0  0  0  0  0  0  0
   19.6008  -14.3223  -21.6972 N   0  0  0  0  0  0  0  0  0  0  0  0
   23.1203  -12.4207  -19.3613 C   0  0  0  0  0  0  0  0  0  0  0  0
   23.7224  -12.6703  -18.2743 O   0  0  0  0  0  0  0  0  0  0  0  0
   24.6730   -8.9955  -21.4186 C   0  0  0  0  0  0  0  0  0  0  0  0
   25.0358   -9.5315  -20.0570 C   0  0  1  0  0  0  0  0  0  0  0  0
   25.8103   -8.5722  -19.4383 O   0  0  0  0  0  0  0  0  0  0  0  0
   23.8796   -9.9840  -19.2519 C   0  0  2  0  0  0  0  0  0  0  0  0
   23.1809  -11.1030  -19.8673 N   0  0  0  0  0  0  0  0  0  0  0  0
   22.9759   -8.9377  -18.7317 C   0  0  0  0  0  0  0  0  0  0  0  0
   21.8896   -8.5999  -19.3273 O   0  0  0  0  0  0  0  0  0  0  0  0
   20.7560   -5.1622  -15.3890 N   0  0  0  0  0  0  0  0  0  0  0  0
   21.3581   -6.3232  -14.8940 C   0  0  0  0  0  0  0  0  0  0  0  0
   21.1975   -6.5495  -13.6391 O   0  0  0  0  0  0  0  0  0  0  0  0
   22.1454   -7.3159  -15.6130 C   0  0  0  0  0  0  0  0  0  0  0  0
   22.2616   -7.1655  -17.0831 C   0  0  2  0  0  0  0  0  0  0  0  0
   23.1972   -8.2015  -17.5386 N   0  0  0  0  0  0  0  0  0  0  0  0
   22.8478   -5.8576  -17.4264 C   0  0  0  0  0  0  0  0  0  0  0  0
   22.2213   -4.7881  -17.4258 O   0  0  0  0  0  0  0  0  0  0  0  0
   24.2116   -5.7577  -17.7880 O   0  0  0  0  0  0  0  0  0  0  0  0
  2  1  1  1
  2  9  1  0
  3  4  1  0
  3  2  1  0
  4  8  1  0
  5  4  2  0
  5  6  1  0
  6  7  1  0
  8  7  2  0
  9 10  2  0
 12 11  1  6
 12 14  1  0
 13 12  1  0
 14 16  1  0
 14 15  1  6
 15  9  1  0
 16 17  2  0
 16 23  1  0
 18 19  1  0
 19 21  1  0
 20 19  2  0
 22 21  1  1
 22 24  1  0
 23 22  1  0
 24 25  2  0
 24 26  1  0
M  END
$$$$
