HTN.pdb
     RDKit          3D

 26 26  0  0  1  0  0  0  0  0999 V2000
   24.2093  -18.1159  -17.5207 N   0  0  0  0  0  0  0  0  0  0  0  0
   22.8572  -17.8223  -17.1034 C   0  0  1  0  0  0  0  0  0  0  0  0
   22.1168  -17.2471  -18.2592 C   0  0  0  0  0  0  0  0  0  0  0  0
   22.6722  -15.9673  -18.7478 C   0  0  0  0  0  0  0  0  0  0  0  0
   22.0479  -14.7472  -18.8230 C   0  0  0  0  0  0  0  0  0  0  0  0
   22.9406  -13.8617  -19.3213 N   0  0  0  0  0  0  0  0  0  0  0  0
   24.0969  -14.4908  -19.5573 C   0  0  0  0  0  0  0  0  0  0  0  0
   23.9401  -15.7752  -19.2096 N   0  0  0  0  0  0  0  0  0  0  0  0
   22.2586  -19.0569  -16.5285 C   0  0  0  0  0  0  0  0  0  0  0  0
   22.6334  -20.2034  -16.9180 O   0  0  0  0  0  0  0  0  0  0  0  0
   22.5270  -20.1939  -13.1661 C   0  0  0  0  0  0  0  0  0  0  0  0
   21.0400  -20.1690  -13.4137 C   0  0  1  0  0  0  0  0  0  0  0  0
   20.5221  -19.1365  -12.6596 O   0  0  0  0  0  0  0  0  0  0  0  0
   20.6605  -20.1207  -14.8432 C   0  0  2  0  0  0  0  0  0  0  0  0
   21.2560  -18.9871  -15.5356 N   0  0  0  0  0  0  0  0  0  0  0  0
   19.2331  -20.3252  -15.1638 C   0  0  0  0  0  0  0  0  0  0  0  0
   18.5046  -19.4134  -15.6994 O   0  0  0  0  0  0  0  0  0  0  0  0
   14.2432  -22.6004  -15.5857 N   0  0  0  0  0  0  0  0  0  0  0  0
   15.3270  -23.4279  -15.2761 C   0  0  0  0  0  0  0  0  0  0  0  0
   15.0704  -24.6846  -15.1940 O   0  0  0  0  0  0  0  0  0  0  0  0
   16.7145  -23.0557  -15.0343 C   0  0  0  0  0  0  0  0  0  0  0  0
   17.0669  -21.6194  -15.1348 C   0  0  2  0  0  0  0  0  0  0  0  0
   18.5171  -21.5270  -14.9244 N   0  0  0  0  0  0  0  0  0  0  0  0
   16.4137  -20.8483  -14.0620 C   0  0  0  0  0  0  0  0  0  0  0  0
   16.8441  -20.7584  -12.9031 O   0  0  0  0  0  0  0  0  0  0  0  0
   15.2133  -20.1445  -14.3160 O   0  0  0  0  0  0  0  0  0  0  0  0
  2  1  1  6
  2  9  1  0
  3  4  1  0
  3  2  1  0
  4  8  1  0
  5  4  2  0
  5  6  1  0
  6  7  1  0
  8  7  2  0
  9 10  2  0
 12 11  1  6
 12 14  1  0
 13 12  1  0
 14 16  1  0
 14 15  1  1
 15  9  1  0
 16 17  2  0
 16 23  1  0
 18 19  1  0
 19 21  1  0
 20 19  2  0
 22 21  1  1
 22 24  1  0
 23 22  1  0
 24 25  2  0
 24 26  1  0
M  END
$$$$
