HTN.pdb
     RDKit          3D

 26 26  0  0  1  0  0  0  0  0999 V2000
   19.6978  -12.8116  -17.9935 N   0  0  0  0  0  0  0  0  0  0  0  0
   19.9215  -11.4102  -18.2661 C   0  0  1  0  0  0  0  0  0  0  0  0
   18.6900  -10.8423  -18.8793 C   0  0  0  0  0  0  0  0  0  0  0  0
   18.3281  -11.4579  -20.1735 C   0  0  0  0  0  0  0  0  0  0  0  0
   17.3415  -12.3779  -20.4271 C   0  0  0  0  0  0  0  0  0  0  0  0
   17.3662  -12.6485  -21.7520 N   0  0  0  0  0  0  0  0  0  0  0  0
   18.3340  -11.9278  -22.3286 C   0  0  0  0  0  0  0  0  0  0  0  0
   18.9245  -11.1994  -21.3715 N   0  0  0  0  0  0  0  0  0  0  0  0
   20.3584  -10.7454  -17.0090 C   0  0  0  0  0  0  0  0  0  0  0  0
   19.7178  -10.9130  -15.9283 O   0  0  0  0  0  0  0  0  0  0  0  0
   23.3843  -11.2368  -15.1530 C   0  0  0  0  0  0  0  0  0  0  0  0
   23.3557   -9.7522  -15.4144 C   0  0  1  0  0  0  0  0  0  0  0  0
   24.3617   -9.4818  -16.3186 O   0  0  0  0  0  0  0  0  0  0  0  0
   22.0302   -9.2287  -15.8129 C   0  0  2  0  0  0  0  0  0  0  0  0
   21.4963   -9.9083  -16.9843 N   0  0  0  0  0  0  0  0  0  0  0  0
   21.8779   -7.7602  -15.8616 C   0  0  0  0  0  0  0  0  0  0  0  0
   21.9404   -7.0919  -16.9564 O   0  0  0  0  0  0  0  0  0  0  0  0
   20.9146   -2.5437  -14.7524 N   0  0  0  0  0  0  0  0  0  0  0  0
   19.9985   -3.5964  -14.8415 C   0  0  0  0  0  0  0  0  0  0  0  0
   18.7573   -3.2628  -14.8567 O   0  0  0  0  0  0  0  0  0  0  0  0
   20.2628   -5.0268  -14.9213 C   0  0  0  0  0  0  0  0  0  0  0  0
   21.6737   -5.4702  -14.8211 C   0  0  2  0  0  0  0  0  0  0  0  0
   21.6480   -6.9354  -14.7297 N   0  0  0  0  0  0  0  0  0  0  0  0
   22.2915   -4.9601  -13.5841 C   0  0  0  0  0  0  0  0  0  0  0  0
   22.3606   -5.5961  -12.5225 O   0  0  0  0  0  0  0  0  0  0  0  0
   22.8591   -3.6649  -13.5494 O   0  0  0  0  0  0  0  0  0  0  0  0
  2  1  1  1
  2  9  1  0
  3  4  1  0
  3  2  1  0
  4  8  1  0
  5  4  2  0
  5  6  1  0
  6  7  1  0
  8  7  2  0
  9 10  2  0
 12 11  1  6
 12 14  1  0
 13 12  1  0
 14 16  1  0
 14 15  1  6
 15  9  1  0
 16 17  2  0
 16 23  1  0
 18 19  1  0
 19 21  1  0
 20 19  2  0
 22 21  1  1
 22 24  1  0
 23 22  1  0
 24 25  2  0
 24 26  1  0
M  END
$$$$
