HTN.pdb
     RDKit          3D

 26 26  0  0  1  0  0  0  0  0999 V2000
   19.1041  -12.5462  -17.7784 N   0  0  0  0  0  0  0  0  0  0  0  0
   19.7506  -11.3194  -18.1848 C   0  0  1  0  0  0  0  0  0  0  0  0
   18.8157  -10.5544  -19.0542 C   0  0  0  0  0  0  0  0  0  0  0  0
   18.4754  -11.2427  -20.3173 C   0  0  0  0  0  0  0  0  0  0  0  0
   19.0720  -11.1021  -21.5454 C   0  0  0  0  0  0  0  0  0  0  0  0
   18.4403  -11.9346  -22.4040 N   0  0  0  0  0  0  0  0  0  0  0  0
   17.4728  -12.5867  -21.7504 C   0  0  0  0  0  0  0  0  0  0  0  0
   17.4889  -12.1695  -20.4772 N   0  0  0  0  0  0  0  0  0  0  0  0
   20.2062  -10.5963  -16.9672 C   0  0  0  0  0  0  0  0  0  0  0  0
   19.4417  -10.4648  -15.9648 O   0  0  0  0  0  0  0  0  0  0  0  0
   23.2088  -11.4885  -15.0135 C   0  0  0  0  0  0  0  0  0  0  0  0
   23.3305  -10.0100  -15.2826 C   0  0  1  0  0  0  0  0  0  0  0  0
   24.3922   -9.8428  -16.1472 O   0  0  0  0  0  0  0  0  0  0  0  0
   22.0770   -9.3674  -15.7359 C   0  0  2  0  0  0  0  0  0  0  0  0
   21.5006  -10.0348  -16.8941 N   0  0  0  0  0  0  0  0  0  0  0  0
   22.0816   -7.8943  -15.8448 C   0  0  0  0  0  0  0  0  0  0  0  0
   22.0580   -7.2817  -16.9732 O   0  0  0  0  0  0  0  0  0  0  0  0
   21.4775   -2.6293  -15.2451 N   0  0  0  0  0  0  0  0  0  0  0  0
   20.6466   -3.6913  -15.6155 C   0  0  0  0  0  0  0  0  0  0  0  0
   19.5122   -3.3672  -16.1253 O   0  0  0  0  0  0  0  0  0  0  0  0
   20.8955   -5.1221  -15.5020 C   0  0  0  0  0  0  0  0  0  0  0  0
   22.1899   -5.5490  -14.9193 C   0  0  2  0  0  0  0  0  0  0  0  0
   22.1101   -7.0041  -14.7397 N   0  0  0  0  0  0  0  0  0  0  0  0
   22.3828   -4.9484  -13.5873 C   0  0  0  0  0  0  0  0  0  0  0  0
   22.3384   -5.5799  -12.5217 O   0  0  0  0  0  0  0  0  0  0  0  0
   22.6389   -3.5634  -13.4575 O   0  0  0  0  0  0  0  0  0  0  0  0
  2  1  1  1
  2  9  1  0
  3  4  1  0
  3  2  1  0
  4  8  1  0
  5  4  2  0
  5  6  1  0
  6  7  1  0
  8  7  2  0
  9 10  2  0
 12 11  1  6
 12 14  1  0
 13 12  1  0
 14 16  1  0
 14 15  1  6
 15  9  1  0
 16 17  2  0
 16 23  1  0
 18 19  1  0
 19 21  1  0
 20 19  2  0
 22 21  1  1
 22 24  1  0
 23 22  1  0
 24 25  2  0
 24 26  1  0
M  END
$$$$
