HTN.pdb
     RDKit          3D

 26 26  0  0  1  0  0  0  0  0999 V2000
   21.5591  -12.2929  -18.9392 N   0  0  0  0  0  0  0  0  0  0  0  0
   22.4443  -11.3164  -18.3467 C   0  0  1  0  0  0  0  0  0  0  0  0
   23.5386  -11.0193  -19.3107 C   0  0  0  0  0  0  0  0  0  0  0  0
   24.3365  -12.2036  -19.6927 C   0  0  0  0  0  0  0  0  0  0  0  0
   24.4426  -12.7900  -20.9292 C   0  0  0  0  0  0  0  0  0  0  0  0
   25.2888  -13.8387  -20.8125 N   0  0  0  0  0  0  0  0  0  0  0  0
   25.7110  -13.9224  -19.5464 C   0  0  0  0  0  0  0  0  0  0  0  0
   25.1341  -12.9281  -18.8580 N   0  0  0  0  0  0  0  0  0  0  0  0
   21.6397  -10.1365  -17.9302 C   0  0  0  0  0  0  0  0  0  0  0  0
   20.9260   -9.5077  -18.7680 O   0  0  0  0  0  0  0  0  0  0  0  0
   18.8310  -10.0443  -15.7373 C   0  0  0  0  0  0  0  0  0  0  0  0
   19.8002   -9.0627  -15.1289 C   0  0  1  0  0  0  0  0  0  0  0  0
   20.2874   -9.6389  -13.9741 O   0  0  0  0  0  0  0  0  0  0  0  0
   20.8516   -8.5893  -16.0563 C   0  0  2  0  0  0  0  0  0  0  0  0
   21.6496   -9.6826  -16.5924 N   0  0  0  0  0  0  0  0  0  0  0  0
   21.6560   -7.4297  -15.6202 C   0  0  0  0  0  0  0  0  0  0  0  0
   22.9015   -7.3022  -15.9057 O   0  0  0  0  0  0  0  0  0  0  0  0
   23.3353   -2.4599  -14.8600 N   0  0  0  0  0  0  0  0  0  0  0  0
   22.8521   -3.2093  -15.9371 C   0  0  0  0  0  0  0  0  0  0  0  0
   22.9696   -2.6684  -17.0971 O   0  0  0  0  0  0  0  0  0  0  0  0
   22.2317   -4.5273  -15.9214 C   0  0  0  0  0  0  0  0  0  0  0  0
   21.9593   -5.1415  -14.6001 C   0  0  2  0  0  0  0  0  0  0  0  0
   21.1567   -6.3446  -14.8536 N   0  0  0  0  0  0  0  0  0  0  0  0
   21.1497   -4.2371  -13.7642 C   0  0  0  0  0  0  0  0  0  0  0  0
   21.5360   -3.1351  -13.3485 O   0  0  0  0  0  0  0  0  0  0  0  0
   19.8375   -4.6002  -13.3811 O   0  0  0  0  0  0  0  0  0  0  0  0
  2  1  1  6
  2  9  1  0
  3  4  1  0
  3  2  1  0
  4  8  1  0
  5  4  2  0
  5  6  1  0
  6  7  1  0
  8  7  2  0
  9 10  2  0
 12 11  1  6
 12 14  1  0
 13 12  1  0
 14 16  1  0
 14 15  1  1
 15  9  1  0
 16 17  2  0
 16 23  1  0
 18 19  1  0
 19 21  1  0
 20 19  2  0
 22 21  1  6
 22 24  1  0
 23 22  1  0
 24 25  2  0
 24 26  1  0
M  END
$$$$
