HTN.pdb
     RDKit          3D

 26 26  0  0  1  0  0  0  0  0999 V2000
   27.1924  -22.1398  -12.1961 N   0  0  0  0  0  0  0  0  0  0  0  0
   25.9507  -21.9063  -11.4947 C   0  0  1  0  0  0  0  0  0  0  0  0
   26.2316  -21.8553  -10.0341 C   0  0  0  0  0  0  0  0  0  0  0  0
   27.4512  -21.0960   -9.6861 C   0  0  0  0  0  0  0  0  0  0  0  0
   28.7595  -21.4486   -9.9055 C   0  0  0  0  0  0  0  0  0  0  0  0
   29.5369  -20.4476   -9.4333 N   0  0  0  0  0  0  0  0  0  0  0  0
   28.7556  -19.4865   -8.9290 C   0  0  0  0  0  0  0  0  0  0  0  0
   27.4824  -19.8756   -9.0800 N   0  0  0  0  0  0  0  0  0  0  0  0
   25.3125  -20.6837  -12.0524 C   0  0  0  0  0  0  0  0  0  0  0  0
   25.3785  -19.5775  -11.4371 O   0  0  0  0  0  0  0  0  0  0  0  0
   26.1495  -18.8541  -14.9964 C   0  0  0  0  0  0  0  0  0  0  0  0
   24.6951  -19.2029  -15.1868 C   0  0  1  0  0  0  0  0  0  0  0  0
   24.6355  -20.1576  -16.1806 O   0  0  0  0  0  0  0  0  0  0  0  0
   23.9914  -19.5838  -13.9420 C   0  0  2  0  0  0  0  0  0  0  0  0
   24.6143  -20.7208  -13.2800 N   0  0  0  0  0  0  0  0  0  0  0  0
   22.5183  -19.6723  -14.0065 C   0  0  0  0  0  0  0  0  0  0  0  0
   21.8629  -20.6786  -13.5518 O   0  0  0  0  0  0  0  0  0  0  0  0
   18.0498  -18.8039  -12.5262 N   0  0  0  0  0  0  0  0  0  0  0  0
   18.5875  -17.6627  -13.1295 C   0  0  0  0  0  0  0  0  0  0  0  0
   18.1117  -16.5375  -12.7301 O   0  0  0  0  0  0  0  0  0  0  0  0
   19.6200  -17.5771  -14.1535 C   0  0  0  0  0  0  0  0  0  0  0  0
   20.2175  -18.8462  -14.6329 C   0  0  2  0  0  0  0  0  0  0  0  0
   21.6744  -18.6768  -14.5644 N   0  0  0  0  0  0  0  0  0  0  0  0
   19.8653  -19.0853  -16.0439 C   0  0  0  0  0  0  0  0  0  0  0  0
   20.3780  -18.4915  -17.0035 O   0  0  0  0  0  0  0  0  0  0  0  0
   18.8833  -20.0451  -16.3834 O   0  0  0  0  0  0  0  0  0  0  0  0
  2  1  1  6
  2  9  1  0
  3  4  1  0
  3  2  1  0
  4  8  1  0
  5  4  2  0
  5  6  1  0
  6  7  1  0
  8  7  2  0
  9 10  2  0
 12 11  1  1
 12 14  1  0
 13 12  1  0
 14 16  1  0
 14 15  1  6
 15  9  1  0
 16 17  2  0
 16 23  1  0
 18 19  1  0
 19 21  1  0
 20 19  2  0
 22 21  1  6
 22 24  1  0
 23 22  1  0
 24 25  2  0
 24 26  1  0
M  END
$$$$
