HTN.pdb
     RDKit          3D

 26 26  0  0  1  0  0  0  0  0999 V2000
   19.5312  -14.9827  -16.9463 N   0  0  0  0  0  0  0  0  0  0  0  0
   19.0212  -13.6744  -16.6048 C   0  0  1  0  0  0  0  0  0  0  0  0
   18.3058  -13.7677  -15.3031 C   0  0  0  0  0  0  0  0  0  0  0  0
   17.1276  -14.6600  -15.3311 C   0  0  0  0  0  0  0  0  0  0  0  0
   15.8842  -14.4043  -15.8532 C   0  0  0  0  0  0  0  0  0  0  0  0
   15.1272  -15.5092  -15.6649 N   0  0  0  0  0  0  0  0  0  0  0  0
   15.8586  -16.4411  -15.0442 C   0  0  0  0  0  0  0  0  0  0  0  0
   17.0797  -15.9297  -14.8377 N   0  0  0  0  0  0  0  0  0  0  0  0
   20.1478  -12.7033  -16.6316 C   0  0  0  0  0  0  0  0  0  0  0  0
   21.2505  -12.9710  -16.0669 O   0  0  0  0  0  0  0  0  0  0  0  0
   22.0667  -11.5531  -19.4245 C   0  0  0  0  0  0  0  0  0  0  0  0
   21.5305  -10.2892  -18.8016 C   0  0  1  0  0  0  0  0  0  0  0  0
   20.5748   -9.7891  -19.6615 O   0  0  0  0  0  0  0  0  0  0  0  0
   21.0626  -10.4476  -17.4068 C   0  0  2  0  0  0  0  0  0  0  0  0
   20.0206  -11.4567  -17.2840 N   0  0  0  0  0  0  0  0  0  0  0  0
   20.7783   -9.2102  -16.6518 C   0  0  0  0  0  0  0  0  0  0  0  0
   19.5873   -8.7649  -16.4721 O   0  0  0  0  0  0  0  0  0  0  0  0
   21.4833   -4.6279  -13.6810 N   0  0  0  0  0  0  0  0  0  0  0  0
   22.2459   -5.7735  -13.4337 C   0  0  0  0  0  0  0  0  0  0  0  0
   22.9854   -5.7416  -12.3830 O   0  0  0  0  0  0  0  0  0  0  0  0
   22.3143   -7.0046  -14.2096 C   0  0  0  0  0  0  0  0  0  0  0  0
   21.4229   -7.1230  -15.3881 C   0  0  2  0  0  0  0  0  0  0  0  0
   21.7661   -8.3886  -16.0488 N   0  0  0  0  0  0  0  0  0  0  0  0
   21.6852   -6.0365  -16.3487 C   0  0  0  0  0  0  0  0  0  0  0  0
   22.5383   -6.0870  -17.2465 O   0  0  0  0  0  0  0  0  0  0  0  0
   20.9436   -4.8336  -16.2881 O   0  0  0  0  0  0  0  0  0  0  0  0
  2  1  1  1
  2  9  1  0
  3  4  1  0
  3  2  1  0
  4  8  1  0
  5  4  2  0
  5  6  1  0
  6  7  1  0
  8  7  2  0
  9 10  2  0
 12 11  1  6
 12 14  1  0
 13 12  1  0
 14 16  1  0
 14 15  1  6
 15  9  1  0
 16 17  2  0
 16 23  1  0
 18 19  1  0
 19 21  1  0
 20 19  2  0
 22 21  1  1
 22 24  1  0
 23 22  1  0
 24 25  2  0
 24 26  1  0
M  END
$$$$
