YEG.pdb
     RDKit          3D

 26 26  0  0  1  0  0  0  0  0999 V2000
   11.3206   -6.6539   -8.1575 O   0  0  0  0  0  0  0  0  0  0  0  0
   12.6303   -6.7788   -8.5930 C   0  0  0  0  0  0  0  0  0  0  0  0
   13.6353   -7.0777   -7.6869 C   0  0  0  0  0  0  0  0  0  0  0  0
   14.9365   -7.2096   -8.0712 C   0  0  0  0  0  0  0  0  0  0  0  0
   15.3168   -7.0494   -9.3982 C   0  0  0  0  0  0  0  0  0  0  0  0
   16.7205   -7.1904   -9.8246 C   0  0  0  0  0  0  0  0  0  0  0  0
   16.9483   -8.3899  -10.7159 C   0  0  2  0  0  0  0  0  0  0  0  0
   16.7312   -9.6118   -9.9751 N   0  0  0  0  0  0  0  0  0  0  0  0
   18.3182   -8.4064  -11.2779 C   0  0  0  0  0  0  0  0  0  0  0  0
   19.2887   -8.8172  -10.5617 O   0  0  0  0  0  0  0  0  0  0  0  0
   14.3099   -6.7511  -10.2990 C   0  0  0  0  0  0  0  0  0  0  0  0
   13.0005   -6.6179   -9.9147 C   0  0  0  0  0  0  0  0  0  0  0  0
   18.5604   -7.9686  -12.6076 N   0  0  0  0  0  0  0  0  0  0  0  0
   19.9351   -8.0109  -13.1466 C   0  0  1  0  0  0  0  0  0  0  0  0
   19.9512   -9.0811  -14.1997 C   0  0  0  0  0  0  0  0  0  0  0  0
   18.6652   -9.8400  -14.3305 C   0  0  0  0  0  0  0  0  0  0  0  0
   18.6411  -10.6799  -15.5324 C   0  0  0  0  0  0  0  0  0  0  0  0
   18.7395  -11.9268  -15.5303 O   0  0  0  0  0  0  0  0  0  0  0  0
   20.1799   -6.6999  -13.7866 C   0  0  0  0  0  0  0  0  0  0  0  0
   19.2566   -6.0307  -14.3516 O   0  0  0  0  0  0  0  0  0  0  0  0
   18.4964  -10.0276  -16.7754 O   0  0  0  0  0  0  0  0  0  0  0  0
   21.4809   -6.1393  -13.7889 N   0  0  0  0  0  0  0  0  0  0  0  0
   21.7577   -4.8444  -14.3731 C   0  0  0  0  0  0  0  0  0  0  0  0
   21.1492   -3.7623  -13.5676 C   0  0  0  0  0  0  0  0  0  0  0  0
   20.4372   -4.0266  -12.5555 O   0  0  0  0  0  0  0  0  0  0  0  0
   21.3154   -2.4172  -13.8621 O   0  0  0  0  0  0  0  0  0  0  0  0
  2  3  2  0
  2  1  1  0
  4  3  1  0
  5  4  2  0
  6  5  1  0
  7  6  1  0
  7  9  1  0
  7  8  1  1
  9 13  1  0
  9 10  2  0
 11  5  1  0
 11 12  2  0
 12  2  1  0
 13 14  1  0
 14 15  1  6
 15 16  1  0
 16 17  1  0
 17 21  1  0
 18 17  2  0
 19 22  1  0
 19 14  1  0
 20 19  2  0
 23 22  1  0
 24 26  1  0
 24 23  1  0
 25 24  2  0
M  END
$$$$
