YEG.pdb
     RDKit          3D

 26 26  0  0  1  0  0  0  0  0999 V2000
   17.7608  -16.3543  -18.3007 O   0  0  0  0  0  0  0  0  0  0  0  0
   18.7142  -16.9777  -17.5117 C   0  0  0  0  0  0  0  0  0  0  0  0
   20.0164  -16.5040  -17.4954 C   0  0  0  0  0  0  0  0  0  0  0  0
   20.9860  -17.0863  -16.7344 C   0  0  0  0  0  0  0  0  0  0  0  0
   20.7106  -18.1891  -15.9349 C   0  0  0  0  0  0  0  0  0  0  0  0
   21.7510  -18.8260  -15.1079 C   0  0  0  0  0  0  0  0  0  0  0  0
   22.7611  -19.6000  -15.9239 C   0  0  2  0  0  0  0  0  0  0  0  0
   22.1190  -20.7077  -16.5945 N   0  0  0  0  0  0  0  0  0  0  0  0
   23.8641  -20.1213  -15.0847 C   0  0  0  0  0  0  0  0  0  0  0  0
   23.7138  -21.2199  -14.4570 O   0  0  0  0  0  0  0  0  0  0  0  0
   19.4092  -18.6584  -15.9545 C   0  0  0  0  0  0  0  0  0  0  0  0
   18.4325  -18.0742  -16.7191 C   0  0  0  0  0  0  0  0  0  0  0  0
   25.0878  -19.4082  -14.9728 N   0  0  0  0  0  0  0  0  0  0  0  0
   26.1477  -19.9210  -14.0809 C   0  0  1  0  0  0  0  0  0  0  0  0
   27.4122  -19.2058  -14.4605 C   0  0  0  0  0  0  0  0  0  0  0  0
   28.4560  -20.0828  -15.0836 C   0  0  0  0  0  0  0  0  0  0  0  0
   27.9063  -20.9143  -16.1592 C   0  0  0  0  0  0  0  0  0  0  0  0
   27.1573  -20.4957  -17.0692 O   0  0  0  0  0  0  0  0  0  0  0  0
   25.7680  -19.5331  -12.7048 C   0  0  0  0  0  0  0  0  0  0  0  0
   25.4201  -18.3478  -12.3988 O   0  0  0  0  0  0  0  0  0  0  0  0
   28.2515  -22.2827  -16.1606 O   0  0  0  0  0  0  0  0  0  0  0  0
   25.7818  -20.4936  -11.6636 N   0  0  0  0  0  0  0  0  0  0  0  0
   25.4518  -20.1493  -10.2972 C   0  0  0  0  0  0  0  0  0  0  0  0
   25.6301  -21.3148   -9.4027 C   0  0  0  0  0  0  0  0  0  0  0  0
   26.0306  -22.4266   -9.8551 O   0  0  0  0  0  0  0  0  0  0  0  0
   25.3756  -21.2666   -8.0401 O   0  0  0  0  0  0  0  0  0  0  0  0
  2  3  2  0
  2  1  1  0
  4  3  1  0
  5  4  2  0
  6  5  1  0
  7  6  1  0
  7  9  1  0
  7  8  1  1
  9 13  1  0
  9 10  2  0
 11  5  1  0
 11 12  2  0
 12  2  1  0
 13 14  1  0
 14 15  1  6
 15 16  1  0
 16 17  1  0
 17 21  1  0
 18 17  2  0
 19 22  1  0
 19 14  1  0
 20 19  2  0
 23 22  1  0
 24 26  1  0
 24 23  1  0
 25 24  2  0
M  END
$$$$
