YEG.pdb
     RDKit          3D

 26 26  0  0  1  0  0  0  0  0999 V2000
   30.7514  -13.2419  -16.9549 O   0  0  0  0  0  0  0  0  0  0  0  0
   29.6605  -12.3938  -16.8499 C   0  0  0  0  0  0  0  0  0  0  0  0
   29.6910  -11.1485  -17.4571 C   0  0  0  0  0  0  0  0  0  0  0  0
   28.6409  -10.2828  -17.3796 C   0  0  0  0  0  0  0  0  0  0  0  0
   27.4841  -10.6120  -16.6833 C   0  0  0  0  0  0  0  0  0  0  0  0
   26.3429   -9.6838  -16.5937 C   0  0  0  0  0  0  0  0  0  0  0  0
   25.1035  -10.2047  -17.2850 C   0  0  2  0  0  0  0  0  0  0  0  0
   25.3844  -10.4783  -18.6760 N   0  0  0  0  0  0  0  0  0  0  0  0
   23.9811   -9.2424  -17.2022 C   0  0  0  0  0  0  0  0  0  0  0  0
   23.7693   -8.4363  -18.1660 O   0  0  0  0  0  0  0  0  0  0  0  0
   27.4585  -11.8562  -16.0788 C   0  0  0  0  0  0  0  0  0  0  0  0
   28.5134  -12.7286  -16.1555 C   0  0  0  0  0  0  0  0  0  0  0  0
   23.1385   -9.2096  -16.0588 N   0  0  0  0  0  0  0  0  0  0  0  0
   21.9533   -8.3280  -16.0557 C   0  0  1  0  0  0  0  0  0  0  0  0
   20.7680   -9.2022  -15.7636 C   0  0  0  0  0  0  0  0  0  0  0  0
   19.4586   -8.4742  -15.7173 C   0  0  0  0  0  0  0  0  0  0  0  0
   18.3306   -9.3833  -15.4896 C   0  0  0  0  0  0  0  0  0  0  0  0
   17.2875   -9.0805  -14.8694 O   0  0  0  0  0  0  0  0  0  0  0  0
   22.1371   -7.3748  -14.9394 C   0  0  0  0  0  0  0  0  0  0  0  0
   22.7006   -7.7012  -13.8460 O   0  0  0  0  0  0  0  0  0  0  0  0
   18.4373  -10.6906  -16.0104 O   0  0  0  0  0  0  0  0  0  0  0  0
   21.6794   -6.0395  -15.0592 N   0  0  0  0  0  0  0  0  0  0  0  0
   21.7769   -5.0938  -13.9679 C   0  0  0  0  0  0  0  0  0  0  0  0
   21.4604   -3.7235  -14.4287 C   0  0  0  0  0  0  0  0  0  0  0  0
   20.3879   -3.1509  -14.0780 O   0  0  0  0  0  0  0  0  0  0  0  0
   22.2996   -2.9928  -15.2566 O   0  0  0  0  0  0  0  0  0  0  0  0
  2  3  2  0
  2  1  1  0
  4  3  1  0
  5  4  2  0
  6  5  1  0
  7  6  1  0
  7  9  1  0
  7  8  1  6
  9 13  1  0
  9 10  2  0
 11  5  1  0
 11 12  2  0
 12  2  1  0
 13 14  1  0
 14 15  1  1
 15 16  1  0
 16 17  1  0
 17 21  1  0
 18 17  2  0
 19 22  1  0
 19 14  1  0
 20 19  2  0
 23 22  1  0
 24 26  1  0
 24 23  1  0
 25 24  2  0
M  END
$$$$
