YEG.pdb
     RDKit          3D

 26 26  0  0  1  0  0  0  0  0999 V2000
   28.5131  -19.6434   -5.5746 O   0  0  0  0  0  0  0  0  0  0  0  0
   28.1194  -19.7880   -6.8954 C   0  0  0  0  0  0  0  0  0  0  0  0
   26.8397  -19.4210   -7.2802 C   0  0  0  0  0  0  0  0  0  0  0  0
   26.4104  -19.5461   -8.5680 C   0  0  0  0  0  0  0  0  0  0  0  0
   27.2423  -20.0508   -9.5602 C   0  0  0  0  0  0  0  0  0  0  0  0
   26.7886  -20.1897  -10.9555 C   0  0  0  0  0  0  0  0  0  0  0  0
   26.0924  -21.5051  -11.2210 C   0  0  2  0  0  0  0  0  0  0  0  0
   27.0605  -22.5246  -11.5561 N   0  0  0  0  0  0  0  0  0  0  0  0
   25.1097  -21.3955  -12.3232 C   0  0  0  0  0  0  0  0  0  0  0  0
   25.4471  -21.7331  -13.5046 O   0  0  0  0  0  0  0  0  0  0  0  0
   28.5189  -20.4158   -9.1711 C   0  0  0  0  0  0  0  0  0  0  0  0
   28.9528  -20.2909   -7.8765 C   0  0  0  0  0  0  0  0  0  0  0  0
   23.7948  -20.9178  -12.0758 N   0  0  0  0  0  0  0  0  0  0  0  0
   22.7722  -21.0248  -13.1364 C   0  0  1  0  0  0  0  0  0  0  0  0
   21.4611  -21.2686  -12.4464 C   0  0  0  0  0  0  0  0  0  0  0  0
   20.2876  -21.3869  -13.3714 C   0  0  0  0  0  0  0  0  0  0  0  0
   19.4876  -22.5847  -13.0960 C   0  0  0  0  0  0  0  0  0  0  0  0
   18.9799  -22.8609  -11.9867 O   0  0  0  0  0  0  0  0  0  0  0  0
   22.7245  -19.7104  -13.8134 C   0  0  0  0  0  0  0  0  0  0  0  0
   22.6681  -18.6120  -13.1730 O   0  0  0  0  0  0  0  0  0  0  0  0
   19.2806  -23.4846  -14.1632 O   0  0  0  0  0  0  0  0  0  0  0  0
   22.7403  -19.6357  -15.2280 N   0  0  0  0  0  0  0  0  0  0  0  0
   22.6101  -18.3778  -15.9318 C   0  0  0  0  0  0  0  0  0  0  0  0
   21.1853  -18.0291  -16.1278 C   0  0  0  0  0  0  0  0  0  0  0  0
   20.6867  -17.0008  -15.5844 O   0  0  0  0  0  0  0  0  0  0  0  0
   20.3217  -18.7890  -16.9027 O   0  0  0  0  0  0  0  0  0  0  0  0
  2  3  2  0
  2  1  1  0
  4  3  1  0
  5  4  2  0
  6  5  1  0
  7  6  1  0
  7  9  1  0
  7  8  1  6
  9 13  1  0
  9 10  2  0
 11  5  1  0
 11 12  2  0
 12  2  1  0
 13 14  1  0
 14 15  1  1
 15 16  1  0
 16 17  1  0
 17 21  1  0
 18 17  2  0
 19 22  1  0
 19 14  1  0
 20 19  2  0
 23 22  1  0
 24 26  1  0
 24 23  1  0
 25 24  2  0
M  END
$$$$
