YEG.pdb
     RDKit          3D

 26 26  0  0  1  0  0  0  0  0999 V2000
   29.0512  -20.1460   -3.3965 O   0  0  0  0  0  0  0  0  0  0  0  0
   28.4637  -20.0086   -4.6441 C   0  0  0  0  0  0  0  0  0  0  0  0
   28.9003  -19.0182   -5.5094 C   0  0  0  0  0  0  0  0  0  0  0  0
   28.3512  -18.8472   -6.7453 C   0  0  0  0  0  0  0  0  0  0  0  0
   27.3215  -19.6641   -7.1967 C   0  0  0  0  0  0  0  0  0  0  0  0
   26.7211  -19.4884   -8.5311 C   0  0  0  0  0  0  0  0  0  0  0  0
   26.8385  -20.7215   -9.3975 C   0  0  2  0  0  0  0  0  0  0  0  0
   28.2292  -21.0515   -9.6119 N   0  0  0  0  0  0  0  0  0  0  0  0
   26.1812  -20.5363  -10.7114 C   0  0  0  0  0  0  0  0  0  0  0  0
   26.7252  -19.7895  -11.5889 O   0  0  0  0  0  0  0  0  0  0  0  0
   26.8890  -20.6514   -6.3292 C   0  0  0  0  0  0  0  0  0  0  0  0
   27.4399  -20.8251   -5.0858 C   0  0  0  0  0  0  0  0  0  0  0  0
   24.9502  -21.1830  -11.0026 N   0  0  0  0  0  0  0  0  0  0  0  0
   24.3135  -20.9729  -12.3188 C   0  0  1  0  0  0  0  0  0  0  0  0
   24.1909  -22.3261  -12.9579 C   0  0  0  0  0  0  0  0  0  0  0  0
   25.4673  -22.8530  -13.5411 C   0  0  0  0  0  0  0  0  0  0  0  0
   25.9981  -21.9747  -14.5886 C   0  0  0  0  0  0  0  0  0  0  0  0
   25.3305  -21.5276  -15.5472 O   0  0  0  0  0  0  0  0  0  0  0  0
   22.9594  -20.4394  -12.0543 C   0  0  0  0  0  0  0  0  0  0  0  0
   22.3400  -20.6536  -10.9634 O   0  0  0  0  0  0  0  0  0  0  0  0
   27.3594  -21.6129  -14.5020 O   0  0  0  0  0  0  0  0  0  0  0  0
   22.2979  -19.6561  -13.0320 N   0  0  0  0  0  0  0  0  0  0  0  0
   21.0033  -19.0569  -12.7884 C   0  0  0  0  0  0  0  0  0  0  0  0
   19.9182  -20.0379  -13.0131 C   0  0  0  0  0  0  0  0  0  0  0  0
   20.1780  -21.2270  -13.3592 O   0  0  0  0  0  0  0  0  0  0  0  0
   18.5752  -19.7259  -12.8625 O   0  0  0  0  0  0  0  0  0  0  0  0
  2  3  2  0
  2  1  1  0
  4  3  1  0
  5  4  2  0
  6  5  1  0
  7  6  1  0
  7  9  1  0
  7  8  1  6
  9 13  1  0
  9 10  2  0
 11  5  1  0
 11 12  2  0
 12  2  1  0
 13 14  1  0
 14 15  1  1
 15 16  1  0
 16 17  1  0
 17 21  1  0
 18 17  2  0
 19 22  1  0
 19 14  1  0
 20 19  2  0
 23 22  1  0
 24 26  1  0
 24 23  1  0
 25 24  2  0
M  END
$$$$
