YEG.pdb
     RDKit          3D

 26 26  0  0  1  0  0  0  0  0999 V2000
   28.2862  -19.9679   -6.2298 O   0  0  0  0  0  0  0  0  0  0  0  0
   27.9312  -20.0235   -7.5682 C   0  0  0  0  0  0  0  0  0  0  0  0
   28.8695  -20.3937   -8.5183 C   0  0  0  0  0  0  0  0  0  0  0  0
   28.5639  -20.4617   -9.8451 C   0  0  0  0  0  0  0  0  0  0  0  0
   27.2887  -20.1607  -10.3082 C   0  0  0  0  0  0  0  0  0  0  0  0
   26.9474  -20.2315  -11.7402 C   0  0  0  0  0  0  0  0  0  0  0  0
   25.7870  -21.1575  -12.0247 C   0  0  2  0  0  0  0  0  0  0  0  0
   26.2378  -22.5304  -12.0525 N   0  0  0  0  0  0  0  0  0  0  0  0
   25.1332  -20.8410  -13.3150 C   0  0  0  0  0  0  0  0  0  0  0  0
   25.5820  -21.3534  -14.3918 O   0  0  0  0  0  0  0  0  0  0  0  0
   26.3554  -19.7917   -9.3558 C   0  0  0  0  0  0  0  0  0  0  0  0
   26.6606  -19.7227   -8.0209 C   0  0  0  0  0  0  0  0  0  0  0  0
   24.0105  -19.9716  -13.3636 N   0  0  0  0  0  0  0  0  0  0  0  0
   23.2717  -19.8105  -14.6325 C   0  0  1  0  0  0  0  0  0  0  0  0
   21.8129  -19.9354  -14.2994 C   0  0  0  0  0  0  0  0  0  0  0  0
   21.3179  -21.3471  -14.2071 C   0  0  0  0  0  0  0  0  0  0  0  0
   20.2131  -21.4821  -13.2522 C   0  0  0  0  0  0  0  0  0  0  0  0
   19.7333  -20.5410  -12.5825 O   0  0  0  0  0  0  0  0  0  0  0  0
   23.5423  -18.4365  -15.1090 C   0  0  0  0  0  0  0  0  0  0  0  0
   23.4155  -17.4148  -14.3609 O   0  0  0  0  0  0  0  0  0  0  0  0
   19.6575  -22.7682  -13.0825 O   0  0  0  0  0  0  0  0  0  0  0  0
   23.9601  -18.2141  -16.4443 N   0  0  0  0  0  0  0  0  0  0  0  0
   24.3230  -16.8985  -16.9260 C   0  0  0  0  0  0  0  0  0  0  0  0
   23.6024  -16.5790  -18.1785 C   0  0  0  0  0  0  0  0  0  0  0  0
   23.6359  -17.3678  -19.1674 O   0  0  0  0  0  0  0  0  0  0  0  0
   22.8594  -15.4201  -18.3475 O   0  0  0  0  0  0  0  0  0  0  0  0
  2  3  2  0
  2  1  1  0
  4  3  1  0
  5  4  2  0
  6  5  1  0
  7  6  1  0
  7  9  1  0
  7  8  1  6
  9 13  1  0
  9 10  2  0
 11  5  1  0
 11 12  2  0
 12  2  1  0
 13 14  1  0
 14 15  1  1
 15 16  1  0
 16 17  1  0
 17 21  1  0
 18 17  2  0
 19 22  1  0
 19 14  1  0
 20 19  2  0
 23 22  1  0
 24 26  1  0
 24 23  1  0
 25 24  2  0
M  END
$$$$
