YEG.pdb
     RDKit          3D

 26 26  0  0  1  0  0  0  0  0999 V2000
   28.6423  -19.9913   -3.5567 O   0  0  0  0  0  0  0  0  0  0  0  0
   28.1639  -19.8416   -4.8487 C   0  0  0  0  0  0  0  0  0  0  0  0
   27.0169  -20.5113   -5.2439 C   0  0  0  0  0  0  0  0  0  0  0  0
   26.5112  -20.3932   -6.5043 C   0  0  0  0  0  0  0  0  0  0  0  0
   27.1274  -19.5903   -7.4567 C   0  0  0  0  0  0  0  0  0  0  0  0
   26.5889  -19.4550   -8.8219 C   0  0  0  0  0  0  0  0  0  0  0  0
   26.6811  -20.7346   -9.6216 C   0  0  2  0  0  0  0  0  0  0  0  0
   28.0632  -21.1260   -9.7813 N   0  0  0  0  0  0  0  0  0  0  0  0
   26.0646  -20.5930  -10.9604 C   0  0  0  0  0  0  0  0  0  0  0  0
   26.6763  -19.9447  -11.8710 O   0  0  0  0  0  0  0  0  0  0  0  0
   28.2722  -18.9238   -7.0574 C   0  0  0  0  0  0  0  0  0  0  0  0
   28.7825  -19.0411   -5.7902 C   0  0  0  0  0  0  0  0  0  0  0  0
   24.7980  -21.1731  -11.2391 N   0  0  0  0  0  0  0  0  0  0  0  0
   24.3137  -21.2232  -12.6337 C   0  0  1  0  0  0  0  0  0  0  0  0
   24.9111  -22.4542  -13.2522 C   0  0  0  0  0  0  0  0  0  0  0  0
   24.5333  -22.6718  -14.6863 C   0  0  0  0  0  0  0  0  0  0  0  0
   25.4432  -23.6038  -15.3602 C   0  0  0  0  0  0  0  0  0  0  0  0
   25.1110  -24.7242  -15.8062 O   0  0  0  0  0  0  0  0  0  0  0  0
   22.8444  -21.3809  -12.5668 C   0  0  0  0  0  0  0  0  0  0  0  0
   22.2685  -22.0491  -11.6494 O   0  0  0  0  0  0  0  0  0  0  0  0
   26.7870  -23.2006  -15.5124 O   0  0  0  0  0  0  0  0  0  0  0  0
   22.0171  -20.7781  -13.5461 N   0  0  0  0  0  0  0  0  0  0  0  0
   20.6022  -21.0676  -13.6394 C   0  0  0  0  0  0  0  0  0  0  0  0
   19.8027  -19.9990  -12.9998 C   0  0  0  0  0  0  0  0  0  0  0  0
   20.3566  -18.9563  -12.5446 O   0  0  0  0  0  0  0  0  0  0  0  0
   18.4245  -20.0682  -12.8601 O   0  0  0  0  0  0  0  0  0  0  0  0
  2  3  2  0
  2  1  1  0
  4  3  1  0
  5  4  2  0
  6  5  1  0
  7  6  1  0
  7  9  1  0
  7  8  1  6
  9 13  1  0
  9 10  2  0
 11  5  1  0
 11 12  2  0
 12  2  1  0
 13 14  1  0
 14 15  1  6
 15 16  1  0
 16 17  1  0
 17 21  1  0
 18 17  2  0
 19 22  1  0
 19 14  1  0
 20 19  2  0
 23 22  1  0
 24 26  1  0
 24 23  1  0
 25 24  2  0
M  END
$$$$
