YEG.pdb
     RDKit          3D

 26 26  0  0  1  0  0  0  0  0999 V2000
   14.9089  -15.7237  -17.5036 O   0  0  0  0  0  0  0  0  0  0  0  0
   15.5174  -14.5354  -17.1323 C   0  0  0  0  0  0  0  0  0  0  0  0
   16.6537  -14.1025  -17.7970 C   0  0  0  0  0  0  0  0  0  0  0  0
   17.2844  -12.9404  -17.4650 C   0  0  0  0  0  0  0  0  0  0  0  0
   16.8132  -12.1316  -16.4379 C   0  0  0  0  0  0  0  0  0  0  0  0
   17.4869  -10.8731  -16.0712 C   0  0  0  0  0  0  0  0  0  0  0  0
   18.8336  -11.0931  -15.4206 C   0  0  2  0  0  0  0  0  0  0  0  0
   18.6772  -11.8173  -14.1797 N   0  0  0  0  0  0  0  0  0  0  0  0
   19.5280   -9.8145  -15.1459 C   0  0  0  0  0  0  0  0  0  0  0  0
   19.3350   -9.2178  -14.0368 O   0  0  0  0  0  0  0  0  0  0  0  0
   15.6785  -12.5680  -15.7773 C   0  0  0  0  0  0  0  0  0  0  0  0
   15.0426  -13.7364  -16.1095 C   0  0  0  0  0  0  0  0  0  0  0  0
   20.4072   -9.2472  -16.1070 N   0  0  0  0  0  0  0  0  0  0  0  0
   21.0807   -7.9669  -15.8081 C   0  0  1  0  0  0  0  0  0  0  0  0
   22.4912   -8.0966  -16.3063 C   0  0  0  0  0  0  0  0  0  0  0  0
   23.3865   -6.9535  -15.9341 C   0  0  0  0  0  0  0  0  0  0  0  0
   24.7410   -7.1171  -16.4718 C   0  0  0  0  0  0  0  0  0  0  0  0
   25.1410   -8.1241  -17.0966 O   0  0  0  0  0  0  0  0  0  0  0  0
   20.3837   -6.9272  -16.5965 C   0  0  0  0  0  0  0  0  0  0  0  0
   20.0458   -7.1005  -17.8111 O   0  0  0  0  0  0  0  0  0  0  0  0
   25.6517   -6.0590  -16.2654 O   0  0  0  0  0  0  0  0  0  0  0  0
   20.0656   -5.6789  -16.0071 N   0  0  0  0  0  0  0  0  0  0  0  0
   19.5457   -4.5737  -16.7836 C   0  0  0  0  0  0  0  0  0  0  0  0
   19.2729   -3.4045  -15.9183 C   0  0  0  0  0  0  0  0  0  0  0  0
   18.0931   -2.9771  -15.7554 O   0  0  0  0  0  0  0  0  0  0  0  0
   20.2699   -2.7154  -15.2438 O   0  0  0  0  0  0  0  0  0  0  0  0
  2  3  2  0
  2  1  1  0
  4  3  1  0
  5  4  2  0
  6  5  1  0
  7  6  1  0
  7  9  1  0
  7  8  1  1
  9 13  1  0
  9 10  2  0
 11  5  1  0
 11 12  2  0
 12  2  1  0
 13 14  1  0
 14 15  1  6
 15 16  1  0
 16 17  1  0
 17 21  1  0
 18 17  2  0
 19 22  1  0
 19 14  1  0
 20 19  2  0
 23 22  1  0
 24 26  1  0
 24 23  1  0
 25 24  2  0
M  END
$$$$
