YEG.pdb
     RDKit          3D

 26 26  0  0  1  0  0  0  0  0999 V2000
   28.3246  -11.7802  -17.2205 O   0  0  0  0  0  0  0  0  0  0  0  0
   27.8243  -13.0317  -16.8986 C   0  0  0  0  0  0  0  0  0  0  0  0
   27.3608  -13.8703  -17.8998 C   0  0  0  0  0  0  0  0  0  0  0  0
   26.8606  -15.1090  -17.6286 C   0  0  0  0  0  0  0  0  0  0  0  0
   26.7922  -15.5905  -16.3268 C   0  0  0  0  0  0  0  0  0  0  0  0
   26.2539  -16.9283  -16.0225 C   0  0  0  0  0  0  0  0  0  0  0  0
   27.3289  -17.9292  -15.6651 C   0  0  2  0  0  0  0  0  0  0  0  0
   28.0373  -18.3479  -16.8533 N   0  0  0  0  0  0  0  0  0  0  0  0
   26.7678  -19.1244  -14.9947 C   0  0  0  0  0  0  0  0  0  0  0  0
   26.3477  -20.1017  -15.6960 O   0  0  0  0  0  0  0  0  0  0  0  0
   27.2561  -14.7497  -15.3307 C   0  0  0  0  0  0  0  0  0  0  0  0
   27.7596  -13.5035  -15.6012 C   0  0  0  0  0  0  0  0  0  0  0  0
   26.6936  -19.1914  -13.5775 N   0  0  0  0  0  0  0  0  0  0  0  0
   26.0724  -20.3693  -12.9382 C   0  0  1  0  0  0  0  0  0  0  0  0
   26.6524  -20.4643  -11.5565 C   0  0  0  0  0  0  0  0  0  0  0  0
   26.1820  -21.6491  -10.7680 C   0  0  0  0  0  0  0  0  0  0  0  0
   25.0805  -21.3062   -9.8626 C   0  0  0  0  0  0  0  0  0  0  0  0
   24.9634  -20.2120   -9.2681 O   0  0  0  0  0  0  0  0  0  0  0  0
   24.6250  -20.0819  -12.8358 C   0  0  0  0  0  0  0  0  0  0  0  0
   24.1741  -19.0190  -12.3006 O   0  0  0  0  0  0  0  0  0  0  0  0
   24.0863  -22.2855   -9.6524 O   0  0  0  0  0  0  0  0  0  0  0  0
   23.6770  -21.0047  -13.3426 N   0  0  0  0  0  0  0  0  0  0  0  0
   22.2529  -20.7546  -13.2799 C   0  0  0  0  0  0  0  0  0  0  0  0
   21.5556  -21.8540  -12.5763 C   0  0  0  0  0  0  0  0  0  0  0  0
   22.1669  -22.9169  -12.2633 O   0  0  0  0  0  0  0  0  0  0  0  0
   20.2162  -21.7936  -12.2214 O   0  0  0  0  0  0  0  0  0  0  0  0
  2  3  2  0
  2  1  1  0
  4  3  1  0
  5  4  2  0
  6  5  1  0
  7  6  1  0
  7  9  1  0
  7  8  1  6
  9 13  1  0
  9 10  2  0
 11  5  1  0
 11 12  2  0
 12  2  1  0
 13 14  1  0
 14 15  1  1
 15 16  1  0
 16 17  1  0
 17 21  1  0
 18 17  2  0
 19 22  1  0
 19 14  1  0
 20 19  2  0
 23 22  1  0
 24 26  1  0
 24 23  1  0
 25 24  2  0
M  END
$$$$
