RHT.pdb
     RDKit          3D

 29 29  0  0  1  0  0  0  0  0999 V2000
    7.3333  -14.8440   16.7248 N   0  0  0  0  0  0  0  0  0  0  0  0
    7.8296  -13.5710   17.1068 C   0  0  0  0  0  0  0  0  0  0  0  0
    8.5241  -12.8728   16.2707 N   0  0  0  0  0  0  0  0  0  0  0  0
    7.5901  -13.0210   18.3961 N   0  0  0  0  0  0  0  0  0  0  0  0
    6.8063  -13.6923   19.3891 C   0  0  0  0  0  0  0  0  0  0  0  0
    7.4420  -14.9832   19.8575 C   0  0  0  0  0  0  0  0  0  0  0  0
    8.5419  -14.7946   20.8374 C   0  0  0  0  0  0  0  0  0  0  0  0
    9.0811  -16.0562   21.4509 C   0  0  2  0  0  0  0  0  0  0  0  0
    8.1957  -17.1843   21.1392 N   0  0  0  0  0  0  0  0  0  0  0  0
    9.3228  -15.9791   22.9031 C   0  0  0  0  0  0  0  0  0  0  0  0
   10.1313  -15.1553   23.3578 O   0  0  0  0  0  0  0  0  0  0  0  0
    8.9119  -11.9426   16.4756 N   0  0  0  0  0  0  0  0  0  0  0  0
    8.6665  -16.8174   23.8495 C   0  0  1  0  0  0  0  0  0  0  0  0
    8.7859  -16.6442   25.2780 C   0  0  0  0  0  0  0  0  0  0  0  0
    7.4892  -16.2145   25.9140 C   0  0  0  0  0  0  0  0  0  0  0  0
    7.1969  -14.7920   25.6736 C   0  0  0  0  0  0  0  0  0  0  0  0
    8.0132  -13.9044   25.0223 N   0  0  0  0  0  0  0  0  0  0  0  0
    7.4365  -12.7045   24.9865 C   0  0  0  0  0  0  0  0  0  0  0  0
    6.2561  -12.8435   25.6174 N   0  0  0  0  0  0  0  0  0  0  0  0
    6.0991  -14.1291   26.0453 C   0  0  0  0  0  0  0  0  0  0  0  0
    9.3023  -17.9120   25.8679 O   0  0  0  0  0  0  0  0  0  0  0  0
    8.6736  -18.9708   25.6352 C   0  0  0  0  0  0  0  0  0  0  0  0
   12.7738  -20.9465   26.8833 C   0  0  2  0  0  0  0  0  0  0  0  0
   12.3622  -19.5335   26.5188 O   0  0  0  0  0  0  0  0  0  0  0  0
   12.1338  -19.5106   25.1423 C   0  0  1  0  0  0  0  0  0  0  0  0
   11.0997  -19.1237   27.1937 N   0  0  0  0  0  0  0  0  0  0  0  0
   10.4589  -17.9613   26.6682 C   0  0  0  0  0  0  0  0  0  0  0  0
   11.1989  -19.1735   28.6777 O   0  0  0  0  0  0  0  0  0  0  0  0
   11.4364  -20.3673   29.3090 O   0  0  0  0  0  0  0  0  0  0  0  0
  1  2  1  0
  2  4  1  0
  2  3  2  0
  4  5  1  0
  5  6  1  0
  7  6  1  0
  8  7  1  0
  8  9  1  1
 10  8  1  0
 10 11  2  0
 12 10  1  0
 13 12  1  0
 13 20  1  0
 13 14  1  1
 15 14  1  0
 15 19  1  0
 16 17  1  0
 16 15  2  0
 17 18  1  0
 18 19  2  0
 20 26  1  0
 21 20  2  0
 23 22  1  6
 23 24  1  0
 23 25  1  0
 25 27  1  0
 25 26  1  1
 27 29  2  0
 27 28  1  0
M  END
$$$$
