RHT.pdb
     RDKit          3D

 29 29  0  0  1  0  0  0  0  0999 V2000
    7.5141  -13.4782   15.9482 N   0  0  0  0  0  0  0  0  0  0  0  0
    8.6452  -14.2145   16.3854 C   0  0  0  0  0  0  0  0  0  0  0  0
    9.8233  -13.8994   15.9588 N   0  0  0  0  0  0  0  0  0  0  0  0
    8.5345  -15.3056   17.2906 N   0  0  0  0  0  0  0  0  0  0  0  0
    7.4112  -15.4752   18.1626 C   0  0  0  0  0  0  0  0  0  0  0  0
    7.2439  -14.3212   19.1271 C   0  0  0  0  0  0  0  0  0  0  0  0
    7.2531  -14.7223   20.5571 C   0  0  0  0  0  0  0  0  0  0  0  0
    8.5242  -14.4241   21.3013 C   0  0  2  0  0  0  0  0  0  0  0  0
    9.6792  -14.6010   20.4134 N   0  0  0  0  0  0  0  0  0  0  0  0
    8.7067  -15.1993   22.5419 C   0  0  0  0  0  0  0  0  0  0  0  0
    7.7724  -15.3113   23.3503 O   0  0  0  0  0  0  0  0  0  0  0  0
   10.6794  -14.4226   16.1845 N   0  0  0  0  0  0  0  0  0  0  0  0
    9.9271  -15.8494   22.8840 C   0  0  2  0  0  0  0  0  0  0  0  0
   10.0940  -16.6431   24.0787 C   0  0  0  0  0  0  0  0  0  0  0  0
   11.0944  -17.7546   23.8937 C   0  0  0  0  0  0  0  0  0  0  0  0
   10.6170  -18.7812   22.9531 C   0  0  0  0  0  0  0  0  0  0  0  0
    9.3062  -19.1021   22.7136 N   0  0  0  0  0  0  0  0  0  0  0  0
    9.2388  -20.0746   21.8062 C   0  0  0  0  0  0  0  0  0  0  0  0
   10.5119  -20.3617   21.4780 N   0  0  0  0  0  0  0  0  0  0  0  0
   11.3702  -19.5683   22.1811 C   0  0  0  0  0  0  0  0  0  0  0  0
   10.4693  -15.7371   25.2012 O   0  0  0  0  0  0  0  0  0  0  0  0
   11.5741  -15.1486   25.1413 C   0  0  0  0  0  0  0  0  0  0  0  0
    9.0772  -12.5719   26.4820 C   0  0  2  0  0  0  0  0  0  0  0  0
    9.0173  -13.5349   27.6516 O   0  0  0  0  0  0  0  0  0  0  0  0
    7.7062  -14.0056   27.7339 C   0  0  2  0  0  0  0  0  0  0  0  0
    9.9090  -14.7116   27.4575 N   0  0  0  0  0  0  0  0  0  0  0  0
    9.6353  -15.5214   26.3142 C   0  0  0  0  0  0  0  0  0  0  0  0
   10.1527  -15.4623   28.7192 O   0  0  0  0  0  0  0  0  0  0  0  0
   10.6775  -14.8178   29.8097 O   0  0  0  0  0  0  0  0  0  0  0  0
  1  2  1  0
  2  4  1  0
  2  3  2  0
  4  5  1  0
  5  6  1  0
  7  6  1  0
  8  7  1  0
  8  9  1  6
 10  8  1  0
 10 11  2  0
 12 10  1  0
 13 12  1  0
 13 20  1  0
 13 14  1  6
 15 14  1  0
 15 19  1  0
 16 17  1  0
 16 15  2  0
 17 18  1  0
 18 19  2  0
 20 26  1  0
 21 20  2  0
 23 22  1  1
 23 24  1  0
 23 25  1  0
 25 27  1  0
 25 26  1  1
 27 29  2  0
 27 28  1  0
M  END
$$$$
