RHT.pdb
     RDKit          3D

 29 29  0  0  1  0  0  0  0  0999 V2000
    6.5160  -18.8659   16.4167 N   0  0  0  0  0  0  0  0  0  0  0  0
    7.3334  -17.7903   15.9836 C   0  0  0  0  0  0  0  0  0  0  0  0
    7.8367  -17.8021   14.7938 N   0  0  0  0  0  0  0  0  0  0  0  0
    7.6276  -16.6787   16.8202 N   0  0  0  0  0  0  0  0  0  0  0  0
    8.9287  -16.4513   17.3739 C   0  0  0  0  0  0  0  0  0  0  0  0
    8.9988  -15.1803   18.1921 C   0  0  0  0  0  0  0  0  0  0  0  0
    7.6719  -14.6303   18.5696 C   0  0  0  0  0  0  0  0  0  0  0  0
    7.7063  -13.3684   19.3853 C   0  0  2  0  0  0  0  0  0  0  0  0
    8.5083  -12.3488   18.6991 N   0  0  0  0  0  0  0  0  0  0  0  0
    8.1766  -13.5449   20.7712 C   0  0  0  0  0  0  0  0  0  0  0  0
    9.3116  -13.1651   21.0977 O   0  0  0  0  0  0  0  0  0  0  0  0
    8.3516  -17.0163   14.3756 N   0  0  0  0  0  0  0  0  0  0  0  0
    7.3861  -14.1437   21.7937 C   0  0  2  0  0  0  0  0  0  0  0  0
    7.6796  -14.0120   23.2014 C   0  0  0  0  0  0  0  0  0  0  0  0
    6.5486  -13.3740   23.9658 C   0  0  0  0  0  0  0  0  0  0  0  0
    6.8557  -13.2336   25.3985 C   0  0  0  0  0  0  0  0  0  0  0  0
    7.9912  -13.6802   26.0228 N   0  0  0  0  0  0  0  0  0  0  0  0
    7.9373  -13.3860   27.3207 C   0  0  0  0  0  0  0  0  0  0  0  0
    6.7642  -12.7536   27.5071 N   0  0  0  0  0  0  0  0  0  0  0  0
    6.0892  -12.6547   26.3259 C   0  0  0  0  0  0  0  0  0  0  0  0
    8.0277  -15.3571   23.7411 O   0  0  0  0  0  0  0  0  0  0  0  0
    7.1347  -16.2361   23.7577 C   0  0  0  0  0  0  0  0  0  0  0  0
   10.7610  -17.5437   22.4659 C   0  0  2  0  0  0  0  0  0  0  0  0
   10.9667  -17.4897   23.9671 O   0  0  0  0  0  0  0  0  0  0  0  0
   12.0382  -16.6287   24.2077 C   0  0  2  0  0  0  0  0  0  0  0  0
    9.7783  -16.9425   24.6783 N   0  0  0  0  0  0  0  0  0  0  0  0
    9.3104  -15.6714   24.2274 C   0  0  0  0  0  0  0  0  0  0  0  0
    9.8733  -17.0924   26.1559 O   0  0  0  0  0  0  0  0  0  0  0  0
   10.0138  -18.3384   26.7107 O   0  0  0  0  0  0  0  0  0  0  0  0
  1  2  1  0
  2  4  1  0
  2  3  2  0
  4  5  1  0
  5  6  1  0
  7  6  1  0
  8  7  1  0
  8  9  1  6
 10  8  1  0
 10 11  2  0
 12 10  1  0
 13 12  1  0
 13 20  1  0
 13 14  1  6
 15 14  1  0
 15 19  1  0
 16 17  1  0
 16 15  2  0
 17 18  1  0
 18 19  2  0
 20 26  1  0
 21 20  2  0
 23 22  1  6
 23 24  1  0
 23 25  1  0
 25 27  1  0
 25 26  1  1
 27 29  2  0
 27 28  1  0
M  END
$$$$
