RHT.pdb
     RDKit          3D

 29 29  0  0  1  0  0  0  0  0999 V2000
   10.3238  -15.5763   13.1073 N   0  0  0  0  0  0  0  0  0  0  0  0
    9.0563  -15.6331   13.7421 C   0  0  0  0  0  0  0  0  0  0  0  0
    8.0251  -16.0506   13.0854 N   0  0  0  0  0  0  0  0  0  0  0  0
    8.8698  -15.2421   15.0965 N   0  0  0  0  0  0  0  0  0  0  0  0
    9.1747  -16.1044   16.1985 C   0  0  0  0  0  0  0  0  0  0  0  0
   10.5325  -16.7593   16.0666 C   0  0  0  0  0  0  0  0  0  0  0  0
   11.5090  -16.3408   17.1045 C   0  0  0  0  0  0  0  0  0  0  0  0
   11.5622  -17.2127   18.3274 C   0  0  2  0  0  0  0  0  0  0  0  0
   10.7122  -18.3941   18.1391 N   0  0  0  0  0  0  0  0  0  0  0  0
   11.2176  -16.5274   19.5864 C   0  0  0  0  0  0  0  0  0  0  0  0
   11.9009  -15.5710   19.9830 O   0  0  0  0  0  0  0  0  0  0  0  0
    7.0867  -16.1616   13.4913 N   0  0  0  0  0  0  0  0  0  0  0  0
   10.1144  -16.9054   20.4044 C   0  0  2  0  0  0  0  0  0  0  0  0
    9.7676  -16.2255   21.6302 C   0  0  0  0  0  0  0  0  0  0  0  0
    8.3788  -15.6423   21.5893 C   0  0  0  0  0  0  0  0  0  0  0  0
    8.2295  -14.6363   20.5252 C   0  0  0  0  0  0  0  0  0  0  0  0
    9.2279  -14.1867   19.7008 N   0  0  0  0  0  0  0  0  0  0  0  0
    8.7409  -13.2785   18.8571 C   0  0  0  0  0  0  0  0  0  0  0  0
    7.4341  -13.1608   19.1559 N   0  0  0  0  0  0  0  0  0  0  0  0
    7.1088  -13.9953   20.1846 C   0  0  0  0  0  0  0  0  0  0  0  0
    9.9390  -17.1767   22.7649 O   0  0  0  0  0  0  0  0  0  0  0  0
    9.0664  -18.0605   22.9319 C   0  0  0  0  0  0  0  0  0  0  0  0
   12.5240  -19.5637   23.0831 C   0  0  2  0  0  0  0  0  0  0  0  0
   12.5610  -18.8937   24.4428 O   0  0  0  0  0  0  0  0  0  0  0  0
   13.6823  -18.0634   24.4650 C   0  0  2  0  0  0  0  0  0  0  0  0
   11.3630  -18.0425   24.6830 N   0  0  0  0  0  0  0  0  0  0  0  0
   11.0349  -17.1180   23.6459 C   0  0  0  0  0  0  0  0  0  0  0  0
   11.3213  -17.4850   26.0623 O   0  0  0  0  0  0  0  0  0  0  0  0
   11.2408  -16.1294   26.2514 O   0  0  0  0  0  0  0  0  0  0  0  0
  1  2  1  0
  2  4  1  0
  2  3  2  0
  4  5  1  0
  5  6  1  0
  7  6  1  0
  8  7  1  0
  8  9  1  6
 10  8  1  0
 10 11  2  0
 12 10  1  0
 13 12  1  0
 13 20  1  0
 13 14  1  6
 15 14  1  0
 15 19  1  0
 16 17  1  0
 16 15  2  0
 17 18  1  0
 18 19  2  0
 20 26  1  0
 21 20  2  0
 23 22  1  1
 23 24  1  0
 23 25  1  0
 25 27  1  0
 25 26  1  1
 27 29  2  0
 27 28  1  0
M  END
$$$$
