RHT.pdb
     RDKit          3D

 29 29  0  0  1  0  0  0  0  0999 V2000
    9.2366  -15.0114   15.1453 N   0  0  0  0  0  0  0  0  0  0  0  0
    8.2564  -14.2657   15.8496 C   0  0  0  0  0  0  0  0  0  0  0  0
    7.2240  -13.8060   15.2237 N   0  0  0  0  0  0  0  0  0  0  0  0
    8.3649  -13.9979   17.2419 N   0  0  0  0  0  0  0  0  0  0  0  0
    7.3895  -13.2339   17.9600 C   0  0  0  0  0  0  0  0  0  0  0  0
    7.6987  -13.1379   19.4383 C   0  0  0  0  0  0  0  0  0  0  0  0
    7.6662  -14.4418   20.1486 C   0  0  0  0  0  0  0  0  0  0  0  0
    8.8362  -14.7120   21.0523 C   0  0  2  0  0  0  0  0  0  0  0  0
    9.7369  -15.6888   20.4290 N   0  0  0  0  0  0  0  0  0  0  0  0
    8.4740  -15.1436   22.4146 C   0  0  0  0  0  0  0  0  0  0  0  0
    7.6430  -14.4991   23.0726 O   0  0  0  0  0  0  0  0  0  0  0  0
    6.4827  -13.2454   15.6640 N   0  0  0  0  0  0  0  0  0  0  0  0
    9.0354  -16.2908   23.0453 C   0  0  1  0  0  0  0  0  0  0  0  0
    8.6504  -16.7383   24.3631 C   0  0  0  0  0  0  0  0  0  0  0  0
    8.5720  -18.2400   24.4586 C   0  0  0  0  0  0  0  0  0  0  0  0
    7.4612  -18.7902   23.6648 C   0  0  0  0  0  0  0  0  0  0  0  0
    6.2027  -18.2560   23.5684 N   0  0  0  0  0  0  0  0  0  0  0  0
    5.4527  -19.0110   22.7678 C   0  0  0  0  0  0  0  0  0  0  0  0
    6.2457  -20.0200   22.3628 N   0  0  0  0  0  0  0  0  0  0  0  0
    7.4879  -19.8923   22.9115 C   0  0  0  0  0  0  0  0  0  0  0  0
    9.6039  -16.1661   25.3557 O   0  0  0  0  0  0  0  0  0  0  0  0
   10.8189  -16.1243   25.0515 C   0  0  0  0  0  0  0  0  0  0  0  0
    9.5456  -12.7077   26.9310 C   0  0  2  0  0  0  0  0  0  0  0  0
    9.5728  -13.7136   28.0652 O   0  0  0  0  0  0  0  0  0  0  0  0
    8.2690  -13.8275   28.5492 C   0  0  2  0  0  0  0  0  0  0  0  0
   10.0057  -15.0635   27.6094 N   0  0  0  0  0  0  0  0  0  0  0  0
    9.1921  -15.6762   26.6091 C   0  0  0  0  0  0  0  0  0  0  0  0
   10.3970  -15.9527   28.7368 O   0  0  0  0  0  0  0  0  0  0  0  0
   11.2971  -15.5153   29.6741 O   0  0  0  0  0  0  0  0  0  0  0  0
  1  2  1  0
  2  4  1  0
  2  3  2  0
  4  5  1  0
  5  6  1  0
  7  6  1  0
  8  7  1  0
  8  9  1  6
 10  8  1  0
 10 11  2  0
 12 10  1  0
 13 12  1  0
 13 20  1  0
 13 14  1  1
 15 14  1  0
 15 19  1  0
 16 17  1  0
 16 15  2  0
 17 18  1  0
 18 19  2  0
 20 26  1  0
 21 20  2  0
 23 22  1  1
 23 24  1  0
 23 25  1  0
 25 27  1  0
 25 26  1  1
 27 29  2  0
 27 28  1  0
M  END
$$$$
