RHT.pdb
     RDKit          3D

 29 29  0  0  1  0  0  0  0  0999 V2000
   14.0857  -15.1037   18.0971 N   0  0  0  0  0  0  0  0  0  0  0  0
   14.0421  -14.6870   19.4526 C   0  0  0  0  0  0  0  0  0  0  0  0
   15.1415  -14.4979   20.1042 N   0  0  0  0  0  0  0  0  0  0  0  0
   12.8156  -14.4644   20.1369 N   0  0  0  0  0  0  0  0  0  0  0  0
   11.5402  -14.7350   19.5445 C   0  0  0  0  0  0  0  0  0  0  0  0
   10.8779  -13.4901   18.9951 C   0  0  0  0  0  0  0  0  0  0  0  0
    9.7218  -13.0159   19.7979 C   0  0  0  0  0  0  0  0  0  0  0  0
    8.4602  -13.8184   19.6462 C   0  0  2  0  0  0  0  0  0  0  0  0
    7.5114  -13.1040   18.7841 N   0  0  0  0  0  0  0  0  0  0  0  0
    7.8155  -14.1963   20.9170 C   0  0  0  0  0  0  0  0  0  0  0  0
    6.9828  -13.4416   21.4423 O   0  0  0  0  0  0  0  0  0  0  0  0
   15.1873  -14.2016   21.0879 N   0  0  0  0  0  0  0  0  0  0  0  0
    8.0965  -15.4122   21.6037 C   0  0  2  0  0  0  0  0  0  0  0  0
    7.3934  -15.8307   22.7935 C   0  0  0  0  0  0  0  0  0  0  0  0
    7.2337  -17.3272   22.8687 C   0  0  0  0  0  0  0  0  0  0  0  0
    6.2590  -17.8320   21.8880 C   0  0  0  0  0  0  0  0  0  0  0  0
    5.5374  -17.0680   21.0082 N   0  0  0  0  0  0  0  0  0  0  0  0
    4.7520  -17.8509   20.2705 C   0  0  0  0  0  0  0  0  0  0  0  0
    4.9842  -19.1078   20.6913 N   0  0  0  0  0  0  0  0  0  0  0  0
    5.9133  -19.1064   21.6899 C   0  0  0  0  0  0  0  0  0  0  0  0
    8.1082  -15.2865   23.9829 O   0  0  0  0  0  0  0  0  0  0  0  0
    9.3554  -15.1794   23.9247 C   0  0  0  0  0  0  0  0  0  0  0  0
    6.7814  -12.1611   26.1508 C   0  0  2  0  0  0  0  0  0  0  0  0
    7.1772  -13.3187   27.0464 O   0  0  0  0  0  0  0  0  0  0  0  0
    6.0009  -13.9548   27.4453 C   0  0  2  0  0  0  0  0  0  0  0  0
    8.0140  -14.3220   26.3318 N   0  0  0  0  0  0  0  0  0  0  0  0
    7.4387  -14.8925   25.1565 C   0  0  0  0  0  0  0  0  0  0  0  0
    8.6589  -15.2948   27.2552 O   0  0  0  0  0  0  0  0  0  0  0  0
    9.3783  -14.8443   28.3319 O   0  0  0  0  0  0  0  0  0  0  0  0
  1  2  1  0
  2  4  1  0
  2  3  2  0
  4  5  1  0
  5  6  1  0
  7  6  1  0
  8  7  1  0
  8  9  1  6
 10  8  1  0
 10 11  2  0
 12 10  1  0
 13 12  1  0
 13 20  1  0
 13 14  1  6
 15 14  1  0
 15 19  1  0
 16 17  1  0
 16 15  2  0
 17 18  1  0
 18 19  2  0
 20 26  1  0
 21 20  2  0
 23 22  1  1
 23 24  1  0
 23 25  1  0
 25 27  1  0
 25 26  1  1
 27 29  2  0
 27 28  1  0
M  END
$$$$
