RHT.pdb
     RDKit          3D

 29 29  0  0  1  0  0  0  0  0999 V2000
    8.7065  -17.3202   14.8674 N   0  0  0  0  0  0  0  0  0  0  0  0
    8.2229  -16.1333   14.2590 C   0  0  0  0  0  0  0  0  0  0  0  0
    7.6887  -16.1834   13.0838 N   0  0  0  0  0  0  0  0  0  0  0  0
    8.3031  -14.8669   14.9008 N   0  0  0  0  0  0  0  0  0  0  0  0
    8.6789  -14.7194   16.2748 C   0  0  0  0  0  0  0  0  0  0  0  0
    7.6710  -15.3323   17.2227 C   0  0  0  0  0  0  0  0  0  0  0  0
    8.0461  -15.2255   18.6558 C   0  0  0  0  0  0  0  0  0  0  0  0
    7.6156  -13.9594   19.3415 C   0  0  2  0  0  0  0  0  0  0  0  0
    8.0779  -12.7935   18.5794 N   0  0  0  0  0  0  0  0  0  0  0  0
    8.0343  -13.8506   20.7508 C   0  0  0  0  0  0  0  0  0  0  0  0
    9.1104  -13.3061   21.0413 O   0  0  0  0  0  0  0  0  0  0  0  0
    7.3793  -15.3585   12.5533 N   0  0  0  0  0  0  0  0  0  0  0  0
    7.2575  -14.3472   21.8366 C   0  0  1  0  0  0  0  0  0  0  0  0
    7.6776  -14.2616   23.2155 C   0  0  0  0  0  0  0  0  0  0  0  0
    6.6110  -13.6764   24.1047 C   0  0  0  0  0  0  0  0  0  0  0  0
    7.0144  -13.6612   25.5202 C   0  0  0  0  0  0  0  0  0  0  0  0
    6.7493  -14.6419   26.4402 N   0  0  0  0  0  0  0  0  0  0  0  0
    7.2596  -14.3008   27.6222 C   0  0  0  0  0  0  0  0  0  0  0  0
    7.8452  -13.1031   27.4394 N   0  0  0  0  0  0  0  0  0  0  0  0
    7.6990  -12.6998   26.1446 C   0  0  0  0  0  0  0  0  0  0  0  0
    8.0977  -15.6181   23.6683 O   0  0  0  0  0  0  0  0  0  0  0  0
    7.2961  -16.5683   23.5101 C   0  0  0  0  0  0  0  0  0  0  0  0
   10.6336  -17.8444   22.4889 C   0  0  2  0  0  0  0  0  0  0  0  0
   10.9669  -17.7143   23.9623 O   0  0  0  0  0  0  0  0  0  0  0  0
   12.0621  -16.8557   24.0650 C   0  0  2  0  0  0  0  0  0  0  0  0
    9.8479  -17.1154   24.7413 N   0  0  0  0  0  0  0  0  0  0  0  0
    9.3498  -15.8668   24.2608 C   0  0  0  0  0  0  0  0  0  0  0  0
   10.0703  -17.1828   26.2113 O   0  0  0  0  0  0  0  0  0  0  0  0
   10.3057  -18.3916   26.8140 O   0  0  0  0  0  0  0  0  0  0  0  0
  1  2  1  0
  2  4  1  0
  2  3  2  0
  4  5  1  0
  5  6  1  0
  7  6  1  0
  8  7  1  0
  8  9  1  6
 10  8  1  0
 10 11  2  0
 12 10  1  0
 13 12  1  0
 13 20  1  0
 13 14  1  1
 15 14  1  0
 15 19  1  0
 16 17  1  0
 16 15  2  0
 17 18  1  0
 18 19  2  0
 20 26  1  0
 21 20  2  0
 23 22  1  6
 23 24  1  0
 23 25  1  0
 25 27  1  0
 25 26  1  1
 27 29  2  0
 27 28  1  0
M  END
$$$$
