RHT.pdb
     RDKit          3D

 29 29  0  0  1  0  0  0  0  0999 V2000
    9.1275  -14.8576   14.7800 N   0  0  0  0  0  0  0  0  0  0  0  0
    8.0201  -14.6177   15.6338 C   0  0  0  0  0  0  0  0  0  0  0  0
    7.0801  -13.8145   15.2593 N   0  0  0  0  0  0  0  0  0  0  0  0
    7.8993  -15.2359   16.9086 N   0  0  0  0  0  0  0  0  0  0  0  0
    9.0074  -15.8469   17.5792 C   0  0  0  0  0  0  0  0  0  0  0  0
    9.5631  -14.9832   18.6906 C   0  0  0  0  0  0  0  0  0  0  0  0
   10.8162  -15.5054   19.2930 C   0  0  0  0  0  0  0  0  0  0  0  0
   10.6367  -16.3424   20.5283 C   0  0  2  0  0  0  0  0  0  0  0  0
    9.6308  -17.3835   20.2875 N   0  0  0  0  0  0  0  0  0  0  0  0
   10.3049  -15.5793   21.7451 C   0  0  0  0  0  0  0  0  0  0  0  0
   11.0503  -14.6657   22.1309 O   0  0  0  0  0  0  0  0  0  0  0  0
    6.2331  -13.6189   15.8089 N   0  0  0  0  0  0  0  0  0  0  0  0
    9.1454  -15.8317   22.5331 C   0  0  1  0  0  0  0  0  0  0  0  0
    8.8213  -15.0866   23.7267 C   0  0  0  0  0  0  0  0  0  0  0  0
    7.3347  -14.9401   23.9254 C   0  0  0  0  0  0  0  0  0  0  0  0
    7.0097  -14.1215   25.1047 C   0  0  0  0  0  0  0  0  0  0  0  0
    7.2639  -12.7821   25.2462 N   0  0  0  0  0  0  0  0  0  0  0  0
    6.8395  -12.3662   26.4380 C   0  0  0  0  0  0  0  0  0  0  0  0
    6.3184  -13.4496   27.0427 N   0  0  0  0  0  0  0  0  0  0  0  0
    6.4189  -14.5384   26.2273 C   0  0  0  0  0  0  0  0  0  0  0  0
    9.4762  -15.7478   24.8910 O   0  0  0  0  0  0  0  0  0  0  0  0
    9.6754  -16.9837   24.8334 C   0  0  0  0  0  0  0  0  0  0  0  0
    9.7758  -13.7907   28.8060 C   0  0  2  0  0  0  0  0  0  0  0  0
   10.9376  -14.5721   28.2242 O   0  0  0  0  0  0  0  0  0  0  0  0
   11.5350  -15.2698   29.2747 C   0  0  1  0  0  0  0  0  0  0  0  0
   10.4934  -15.5707   27.2128 N   0  0  0  0  0  0  0  0  0  0  0  0
    9.8749  -15.0404   26.0405 C   0  0  0  0  0  0  0  0  0  0  0  0
    9.7961  -16.7354   27.8227 O   0  0  0  0  0  0  0  0  0  0  0  0
   10.5171  -17.6974   28.4821 O   0  0  0  0  0  0  0  0  0  0  0  0
  1  2  1  0
  2  4  1  0
  2  3  2  0
  4  5  1  0
  5  6  1  0
  7  6  1  0
  8  7  1  0
  8  9  1  6
 10  8  1  0
 10 11  2  0
 12 10  1  0
 13 12  1  0
 13 20  1  0
 13 14  1  1
 15 14  1  0
 15 19  1  0
 16 17  1  0
 16 15  2  0
 17 18  1  0
 18 19  2  0
 20 26  1  0
 21 20  2  0
 23 22  1  1
 23 24  1  0
 23 25  1  0
 25 27  1  0
 25 26  1  6
 27 29  2  0
 27 28  1  0
M  END
$$$$
