RNF.pdb
     RDKit          3D

 31 31  0  0  1  0  0  0  0  0999 V2000
    8.2112  -15.4731   16.0921 N   0  0  0  0  0  0  0  0  0  0  0  0
    7.9066  -14.1909   15.5655 C   0  0  0  0  0  0  0  0  0  0  0  0
    8.0692  -14.0029   14.2856 N   0  0  0  0  0  0  0  0  0  0  0  0
    7.4394  -13.1167   16.3587 N   0  0  0  0  0  0  0  0  0  0  0  0
    7.1486  -13.2933   17.7456 C   0  0  0  0  0  0  0  0  0  0  0  0
    8.3575  -13.5767   18.6174 C   0  0  0  0  0  0  0  0  0  0  0  0
    8.0587  -13.7780   20.0590 C   0  0  0  0  0  0  0  0  0  0  0  0
    9.3445  -14.0292   20.8208 C   0  0  2  0  0  0  0  0  0  0  0  0
   10.3251  -14.6413   19.9006 N   0  0  0  0  0  0  0  0  0  0  0  0
    9.1597  -14.8979   22.0000 C   0  0  0  0  0  0  0  0  0  0  0  0
    8.2887  -14.5873   22.8888 O   0  0  0  0  0  0  0  0  0  0  0  0
    7.9506  -13.0698   13.8873 N   0  0  0  0  0  0  0  0  0  0  0  0
   11.8159  -17.2652   21.9363 C   0  0  0  0  0  0  0  0  0  0  0  0
   11.2823  -18.4887   22.4145 O   0  0  0  0  0  0  0  0  0  0  0  0
   11.8587  -19.5562   22.1877 C   0  0  0  0  0  0  0  0  0  0  0  0
   10.0015  -18.3794   23.1931 C   0  0  1  0  0  0  0  0  0  0  0  0
    9.5912  -16.9720   23.4016 N   0  0  0  0  0  0  0  0  0  0  0  0
    9.8668  -16.0955   22.2686 C   0  0  0  0  0  0  0  0  0  0  0  0
    9.8831  -16.3701   24.7062 O   0  0  0  0  0  0  0  0  0  0  0  0
   10.9149  -15.6644   24.8489 N   0  0  0  0  0  0  0  0  0  0  0  0
    9.0476  -16.5383   25.8513 C   0  0  1  0  0  0  0  0  0  0  0  0
    9.4393  -15.8524   27.0761 C   0  0  0  0  0  0  0  0  0  0  0  0
    8.2673  -15.1301   27.6923 C   0  0  0  0  0  0  0  0  0  0  0  0
    7.8756  -13.9513   26.8970 C   0  0  0  0  0  0  0  0  0  0  0  0
    6.6721  -14.0160   26.2311 C   0  0  0  0  0  0  0  0  0  0  0  0
    6.2622  -12.9408   25.4864 C   0  0  0  0  0  0  0  0  0  0  0  0
    7.0167  -11.7826   25.3763 C   0  0  0  0  0  0  0  0  0  0  0  0
    8.2098  -11.7613   26.0560 C   0  0  0  0  0  0  0  0  0  0  0  0
    8.6480  -12.8350   26.8161 C   0  0  0  0  0  0  0  0  0  0  0  0
    9.9207  -16.8675   28.0871 O   0  0  0  0  0  0  0  0  0  0  0  0
   10.5048  -16.4862   29.2816 O   0  0  0  0  0  0  0  0  0  0  0  0
  2  3  2  0
  2  1  1  0
  4  2  1  0
  5  4  1  0
  6  5  1  0
  7  6  1  0
  8  7  1  0
  8  9  1  6
 10 17  1  0
 10  8  1  0
 11 10  2  0
 13 12  1  0
 13 14  2  0
 15 13  1  0
 16 15  1  6
 16 17  1  0
 18 16  1  0
 19 18  2  0
 20 18  1  0
 21 20  1  0
 21 22  1  1
 23 22  1  0
 23 28  2  0
 24 23  1  0
 25 24  2  0
 25 26  1  0
 26 27  2  0
 27 28  1  0
 29 21  1  0
 30 29  1  0
 31 29  2  0
M  END
$$$$
