RNF.pdb
     RDKit          3D

 31 31  0  0  1  0  0  0  0  0999 V2000
   12.6035  -18.8851   13.8426 N   0  0  0  0  0  0  0  0  0  0  0  0
   11.6858  -17.8285   14.0785 C   0  0  0  0  0  0  0  0  0  0  0  0
   10.9893  -17.3885   13.0679 N   0  0  0  0  0  0  0  0  0  0  0  0
   11.4943  -17.2356   15.3486 N   0  0  0  0  0  0  0  0  0  0  0  0
   11.0712  -18.0110   16.4706 C   0  0  0  0  0  0  0  0  0  0  0  0
   12.0683  -18.0729   17.6125 C   0  0  0  0  0  0  0  0  0  0  0  0
   11.9026  -17.0206   18.6485 C   0  0  0  0  0  0  0  0  0  0  0  0
   10.9005  -17.4771   19.6898 C   0  0  2  0  0  0  0  0  0  0  0  0
    9.7613  -18.1157   18.9989 N   0  0  0  0  0  0  0  0  0  0  0  0
   10.4105  -16.3776   20.5444 C   0  0  0  0  0  0  0  0  0  0  0  0
   11.2472  -15.6635   21.2042 O   0  0  0  0  0  0  0  0  0  0  0  0
   10.2878  -16.6597   13.2098 N   0  0  0  0  0  0  0  0  0  0  0  0
    8.8721  -14.1230   19.0881 C   0  0  0  0  0  0  0  0  0  0  0  0
    7.6358  -13.7608   19.6802 O   0  0  0  0  0  0  0  0  0  0  0  0
    6.7806  -13.1557   19.0278 C   0  0  0  0  0  0  0  0  0  0  0  0
    7.4610  -14.1621   21.1179 C   0  0  2  0  0  0  0  0  0  0  0  0
    8.6098  -14.9476   21.6238 N   0  0  0  0  0  0  0  0  0  0  0  0
    9.0560  -16.0024   20.7203 C   0  0  0  0  0  0  0  0  0  0  0  0
    8.5887  -15.3412   23.0360 O   0  0  0  0  0  0  0  0  0  0  0  0
    7.7396  -16.1791   23.4357 N   0  0  0  0  0  0  0  0  0  0  0  0
    9.4954  -14.8207   24.0080 C   0  0  2  0  0  0  0  0  0  0  0  0
    9.2222  -15.1164   25.4087 C   0  0  0  0  0  0  0  0  0  0  0  0
    7.7616  -14.9203   25.7299 C   0  0  0  0  0  0  0  0  0  0  0  0
    7.4880  -13.5509   26.2044 C   0  0  0  0  0  0  0  0  0  0  0  0
    6.1683  -13.2018   26.3847 C   0  0  0  0  0  0  0  0  0  0  0  0
    5.8658  -11.9423   26.8329 C   0  0  0  0  0  0  0  0  0  0  0  0
    6.8429  -10.9993   27.1138 C   0  0  0  0  0  0  0  0  0  0  0  0
    8.1452  -11.3895   26.9195 C   0  0  0  0  0  0  0  0  0  0  0  0
    8.4786  -12.6570   26.4669 C   0  0  0  0  0  0  0  0  0  0  0  0
    9.5511  -16.5648   25.6886 O   0  0  0  0  0  0  0  0  0  0  0  0
    9.5682  -17.0730   26.9750 O   0  0  0  0  0  0  0  0  0  0  0  0
  2  3  2  0
  2  1  1  0
  4  2  1  0
  5  4  1  0
  6  5  1  0
  7  6  1  0
  8  7  1  0
  8  9  1  6
 10 17  1  0
 10  8  1  0
 11 10  2  0
 13 12  1  0
 13 14  2  0
 15 13  1  0
 16 15  1  6
 16 17  1  0
 18 16  1  0
 19 18  2  0
 20 18  1  0
 21 20  1  0
 21 22  1  6
 23 22  1  0
 23 28  2  0
 24 23  1  0
 25 24  2  0
 25 26  1  0
 26 27  2  0
 27 28  1  0
 29 21  1  0
 30 29  1  0
 31 29  2  0
M  END
$$$$
