RNF.pdb
     RDKit          3D

 31 31  0  0  1  0  0  0  0  0999 V2000
    9.8861  -13.4046   19.3272 N   0  0  0  0  0  0  0  0  0  0  0  0
    8.6237  -12.8497   18.9913 C   0  0  0  0  0  0  0  0  0  0  0  0
    8.5582  -11.5642   18.7838 N   0  0  0  0  0  0  0  0  0  0  0  0
    7.4436  -13.6207   18.8729 N   0  0  0  0  0  0  0  0  0  0  0  0
    6.6160  -13.8851   20.0062 C   0  0  0  0  0  0  0  0  0  0  0  0
    6.4875  -15.3522   20.3709 C   0  0  0  0  0  0  0  0  0  0  0  0
    7.7618  -16.1165   20.3571 C   0  0  0  0  0  0  0  0  0  0  0  0
    7.9444  -16.8362   21.6782 C   0  0  2  0  0  0  0  0  0  0  0  0
    7.8583  -15.8448   22.7704 N   0  0  0  0  0  0  0  0  0  0  0  0
    9.2244  -17.5659   21.7691 C   0  0  0  0  0  0  0  0  0  0  0  0
    9.6573  -18.2197   20.7540 O   0  0  0  0  0  0  0  0  0  0  0  0
    7.6507  -11.1128   18.6575 N   0  0  0  0  0  0  0  0  0  0  0  0
   11.9943  -14.6752   20.3331 C   0  0  0  0  0  0  0  0  0  0  0  0
   12.1292  -15.3581   21.5684 O   0  0  0  0  0  0  0  0  0  0  0  0
   13.1902  -15.9139   21.8659 C   0  0  0  0  0  0  0  0  0  0  0  0
   10.9144  -15.3478   22.4531 C   0  0  2  0  0  0  0  0  0  0  0  0
   10.8831  -16.5063   23.3749 N   0  0  0  0  0  0  0  0  0  0  0  0
   10.0700  -17.6222   22.9041 C   0  0  0  0  0  0  0  0  0  0  0  0
   10.7391  -16.2257   24.8067 O   0  0  0  0  0  0  0  0  0  0  0  0
   11.5603  -15.4619   25.3767 N   0  0  0  0  0  0  0  0  0  0  0  0
    9.6982  -16.7781   25.6125 C   0  0  1  0  0  0  0  0  0  0  0  0
    9.6430  -16.3716   27.0110 C   0  0  0  0  0  0  0  0  0  0  0  0
    8.2484  -15.9470   27.3982 C   0  0  0  0  0  0  0  0  0  0  0  0
    7.7803  -14.8096   26.5842 C   0  0  0  0  0  0  0  0  0  0  0  0
    8.4009  -13.5971   26.7856 C   0  0  0  0  0  0  0  0  0  0  0  0
    8.0054  -12.5133   26.0456 C   0  0  0  0  0  0  0  0  0  0  0  0
    6.9980  -12.5901   25.0957 C   0  0  0  0  0  0  0  0  0  0  0  0
    6.4061  -13.8179   24.9280 C   0  0  0  0  0  0  0  0  0  0  0  0
    6.7869  -14.9300   25.6633 C   0  0  0  0  0  0  0  0  0  0  0  0
   10.0133  -17.5447   27.8890 O   0  0  0  0  0  0  0  0  0  0  0  0
   10.1653  -17.4117   29.2575 O   0  0  0  0  0  0  0  0  0  0  0  0
  2  3  2  0
  2  1  1  0
  4  2  1  0
  5  4  1  0
  6  5  1  0
  7  6  1  0
  8  7  1  0
  8  9  1  1
 10 17  1  0
 10  8  1  0
 11 10  2  0
 13 12  1  0
 13 14  2  0
 15 13  1  0
 16 15  1  6
 16 17  1  0
 18 16  1  0
 19 18  2  0
 20 18  1  0
 21 20  1  0
 21 22  1  1
 23 22  1  0
 23 28  2  0
 24 23  1  0
 25 24  2  0
 25 26  1  0
 26 27  2  0
 27 28  1  0
 29 21  1  0
 30 29  1  0
 31 29  2  0
M  END
$$$$
