RNF.pdb
     RDKit          3D

 31 31  0  0  1  0  0  0  0  0999 V2000
    7.4761  -13.2911   14.6401 N   0  0  0  0  0  0  0  0  0  0  0  0
    7.8215  -13.7800   15.9269 C   0  0  0  0  0  0  0  0  0  0  0  0
    8.9929  -14.3330   16.0751 N   0  0  0  0  0  0  0  0  0  0  0  0
    6.9603  -13.6960   17.0461 N   0  0  0  0  0  0  0  0  0  0  0  0
    7.4672  -13.4051   18.3491 C   0  0  0  0  0  0  0  0  0  0  0  0
    7.5279  -14.5955   19.2878 C   0  0  0  0  0  0  0  0  0  0  0  0
    8.7365  -15.4478   19.1434 C   0  0  0  0  0  0  0  0  0  0  0  0
    9.7300  -15.1218   20.2404 C   0  0  2  0  0  0  0  0  0  0  0  0
   11.0431  -15.6894   19.8705 N   0  0  0  0  0  0  0  0  0  0  0  0
    9.3220  -15.6341   21.5634 C   0  0  0  0  0  0  0  0  0  0  0  0
    8.1572  -15.3546   22.0222 O   0  0  0  0  0  0  0  0  0  0  0  0
    9.2864  -14.6692   16.9940 N   0  0  0  0  0  0  0  0  0  0  0  0
   11.3674  -20.1837   24.2053 C   0  0  0  0  0  0  0  0  0  0  0  0
   10.9852  -19.1322   23.3344 O   0  0  0  0  0  0  0  0  0  0  0  0
   11.7605  -18.7239   22.4652 C   0  0  0  0  0  0  0  0  0  0  0  0
    9.6055  -18.5772   23.5512 C   0  0  1  0  0  0  0  0  0  0  0  0
    9.6014  -17.0980   23.6205 N   0  0  0  0  0  0  0  0  0  0  0  0
   10.1087  -16.4426   22.4200 C   0  0  0  0  0  0  0  0  0  0  0  0
   10.0492  -16.4798   24.8722 O   0  0  0  0  0  0  0  0  0  0  0  0
   11.2272  -16.0479   24.9660 N   0  0  0  0  0  0  0  0  0  0  0  0
    9.2101  -16.3328   26.0176 C   0  0  1  0  0  0  0  0  0  0  0  0
    9.7998  -15.7409   27.2117 C   0  0  0  0  0  0  0  0  0  0  0  0
    8.7802  -14.9368   27.9790 C   0  0  0  0  0  0  0  0  0  0  0  0
    8.2271  -13.8393   27.1636 C   0  0  0  0  0  0  0  0  0  0  0  0
    8.9454  -12.6652   27.1228 C   0  0  0  0  0  0  0  0  0  0  0  0
    8.4750  -11.6202   26.3709 C   0  0  0  0  0  0  0  0  0  0  0  0
    7.2963  -11.6991   25.6447 C   0  0  0  0  0  0  0  0  0  0  0  0
    6.6119  -12.8877   25.7143 C   0  0  0  0  0  0  0  0  0  0  0  0
    7.0653  -13.9600   26.4673 C   0  0  0  0  0  0  0  0  0  0  0  0
   10.2849  -16.8399   28.1288 O   0  0  0  0  0  0  0  0  0  0  0  0
   10.9729  -16.5641   29.2967 O   0  0  0  0  0  0  0  0  0  0  0  0
  2  3  2  0
  2  1  1  0
  4  2  1  0
  5  4  1  0
  6  5  1  0
  7  6  1  0
  8  7  1  0
  8  9  1  6
 10 17  1  0
 10  8  1  0
 11 10  2  0
 13 12  1  0
 13 14  2  0
 15 13  1  0
 16 15  1  6
 16 17  1  0
 18 16  1  0
 19 18  2  0
 20 18  1  0
 21 20  1  0
 21 22  1  1
 23 22  1  0
 23 28  2  0
 24 23  1  0
 25 24  2  0
 25 26  1  0
 26 27  2  0
 27 28  1  0
 29 21  1  0
 30 29  1  0
 31 29  2  0
M  END
$$$$
