RNF.pdb
     RDKit          3D

 31 31  0  0  1  0  0  0  0  0999 V2000
    9.0466  -13.6149   15.1772 N   0  0  0  0  0  0  0  0  0  0  0  0
    8.4133  -13.5158   16.4434 C   0  0  0  0  0  0  0  0  0  0  0  0
    9.0164  -12.8315   17.3750 N   0  0  0  0  0  0  0  0  0  0  0  0
    7.1690  -14.1206   16.7386 N   0  0  0  0  0  0  0  0  0  0  0  0
    6.9643  -14.8341   17.9585 C   0  0  0  0  0  0  0  0  0  0  0  0
    8.1617  -14.8569   18.8900 C   0  0  0  0  0  0  0  0  0  0  0  0
    7.8357  -14.7367   20.3347 C   0  0  0  0  0  0  0  0  0  0  0  0
    8.6598  -15.7275   21.1323 C   0  0  2  0  0  0  0  0  0  0  0  0
    8.6771  -17.0157   20.4089 N   0  0  0  0  0  0  0  0  0  0  0  0
    8.1518  -15.9338   22.5029 C   0  0  0  0  0  0  0  0  0  0  0  0
    7.6401  -14.9494   23.1465 O   0  0  0  0  0  0  0  0  0  0  0  0
    8.5399  -12.6408   18.2582 N   0  0  0  0  0  0  0  0  0  0  0  0
    6.3395  -18.5542   22.7523 C   0  0  0  0  0  0  0  0  0  0  0  0
    6.5870  -19.3362   23.9088 O   0  0  0  0  0  0  0  0  0  0  0  0
    6.1868  -20.5018   23.9760 C   0  0  0  0  0  0  0  0  0  0  0  0
    7.3508  -18.6503   25.0064 C   0  0  2  0  0  0  0  0  0  0  0  0
    7.7843  -17.2880   24.6203 N   0  0  0  0  0  0  0  0  0  0  0  0
    8.1622  -17.1567   23.2175 C   0  0  0  0  0  0  0  0  0  0  0  0
    8.6690  -16.5737   25.5458 O   0  0  0  0  0  0  0  0  0  0  0  0
    9.8875  -16.4393   25.2628 N   0  0  0  0  0  0  0  0  0  0  0  0
    8.2214  -16.0063   26.7769 C   0  0  1  0  0  0  0  0  0  0  0  0
    9.2266  -15.4078   27.6462 C   0  0  0  0  0  0  0  0  0  0  0  0
    8.7132  -14.1362   28.2742 C   0  0  0  0  0  0  0  0  0  0  0  0
    8.1313  -13.2287   27.2676 C   0  0  0  0  0  0  0  0  0  0  0  0
    6.7617  -13.0858   27.2695 C   0  0  0  0  0  0  0  0  0  0  0  0
    6.1765  -12.2462   26.3579 C   0  0  0  0  0  0  0  0  0  0  0  0
    6.9141  -11.5300   25.4273 C   0  0  0  0  0  0  0  0  0  0  0  0
    8.2761  -11.7029   25.4604 C   0  0  0  0  0  0  0  0  0  0  0  0
    8.8933  -12.5460   26.3719 C   0  0  0  0  0  0  0  0  0  0  0  0
    9.5493  -16.3637   28.7715 O   0  0  0  0  0  0  0  0  0  0  0  0
   10.5675  -16.1111   29.6731 O   0  0  0  0  0  0  0  0  0  0  0  0
  2  3  2  0
  2  1  1  0
  4  2  1  0
  5  4  1  0
  6  5  1  0
  7  6  1  0
  8  7  1  0
  8  9  1  6
 10 17  1  0
 10  8  1  0
 11 10  2  0
 13 12  1  0
 13 14  2  0
 15 13  1  0
 16 15  1  6
 16 17  1  0
 18 16  1  0
 19 18  2  0
 20 18  1  0
 21 20  1  0
 21 22  1  1
 23 22  1  0
 23 28  2  0
 24 23  1  0
 25 24  2  0
 25 26  1  0
 26 27  2  0
 27 28  1  0
 29 21  1  0
 30 29  1  0
 31 29  2  0
M  END
$$$$
