RNF.pdb
     RDKit          3D

 31 31  0  0  1  0  0  0  0  0999 V2000
    8.3910  -14.3185   17.0413 N   0  0  0  0  0  0  0  0  0  0  0  0
    8.2605  -13.6930   18.3086 C   0  0  0  0  0  0  0  0  0  0  0  0
    8.6368  -12.4494   18.4166 N   0  0  0  0  0  0  0  0  0  0  0  0
    7.7460  -14.3515   19.4500 N   0  0  0  0  0  0  0  0  0  0  0  0
    8.1437  -15.6834   19.7777 C   0  0  0  0  0  0  0  0  0  0  0  0
    7.1049  -16.7483   19.4798 C   0  0  0  0  0  0  0  0  0  0  0  0
    7.3536  -18.0650   20.1220 C   0  0  0  0  0  0  0  0  0  0  0  0
    7.3598  -17.9091   21.6295 C   0  0  2  0  0  0  0  0  0  0  0  0
    6.4185  -16.8307   21.9953 N   0  0  0  0  0  0  0  0  0  0  0  0
    8.6977  -17.6075   22.1758 C   0  0  0  0  0  0  0  0  0  0  0  0
    9.5541  -18.5517   22.3185 O   0  0  0  0  0  0  0  0  0  0  0  0
    8.5616  -11.9693   19.3151 N   0  0  0  0  0  0  0  0  0  0  0  0
   13.4783  -13.9679   22.5071 C   0  0  0  0  0  0  0  0  0  0  0  0
   12.7265  -15.1700   22.4928 O   0  0  0  0  0  0  0  0  0  0  0  0
   13.2916  -16.2648   22.5651 C   0  0  0  0  0  0  0  0  0  0  0  0
   11.2366  -15.0039   22.3861 C   0  0  2  0  0  0  0  0  0  0  0  0
   10.5014  -16.0747   23.0973 N   0  0  0  0  0  0  0  0  0  0  0  0
    9.1644  -16.3306   22.5731 C   0  0  0  0  0  0  0  0  0  0  0  0
   10.5813  -16.0905   24.5612 O   0  0  0  0  0  0  0  0  0  0  0  0
   11.6733  -15.8265   25.1276 N   0  0  0  0  0  0  0  0  0  0  0  0
    9.4690  -16.3927   25.4033 C   0  0  1  0  0  0  0  0  0  0  0  0
    9.7141  -16.4737   26.8377 C   0  0  0  0  0  0  0  0  0  0  0  0
    8.4615  -16.1677   27.6204 C   0  0  0  0  0  0  0  0  0  0  0  0
    7.9569  -14.8123   27.3313 C   0  0  0  0  0  0  0  0  0  0  0  0
    6.8076  -14.7184   26.5788 C   0  0  0  0  0  0  0  0  0  0  0  0
    6.2962  -13.4795   26.2923 C   0  0  0  0  0  0  0  0  0  0  0  0
    6.8946  -12.3088   26.7332 C   0  0  0  0  0  0  0  0  0  0  0  0
    8.0387  -12.4488   27.4798 C   0  0  0  0  0  0  0  0  0  0  0  0
    8.5771  -13.6898   27.7837 C   0  0  0  0  0  0  0  0  0  0  0  0
   10.1326  -17.8811   27.1961 O   0  0  0  0  0  0  0  0  0  0  0  0
   10.6160  -18.2003   28.4522 O   0  0  0  0  0  0  0  0  0  0  0  0
  2  3  2  0
  2  1  1  0
  4  2  1  0
  5  4  1  0
  6  5  1  0
  7  6  1  0
  8  7  1  0
  8  9  1  6
 10 17  1  0
 10  8  1  0
 11 10  2  0
 13 12  1  0
 13 14  2  0
 15 13  1  0
 16 15  1  6
 16 17  1  0
 18 16  1  0
 19 18  2  0
 20 18  1  0
 21 20  1  0
 21 22  1  1
 23 22  1  0
 23 28  2  0
 24 23  1  0
 25 24  2  0
 25 26  1  0
 26 27  2  0
 27 28  1  0
 29 21  1  0
 30 29  1  0
 31 29  2  0
M  END
$$$$
