QNG.pdb
     RDKit          3D

 22 21  0  0  1  0  0  0  0  0999 V2000
    7.2935  -14.1428   17.6190 N   0  0  0  0  0  0  0  0  0  0  0  0
    7.7115  -13.5366   18.8344 C   0  0  0  0  0  0  0  0  0  0  0  0
    8.6682  -12.7446   18.8072 O   0  0  0  0  0  0  0  0  0  0  0  0
    7.0259  -13.8375   20.1014 C   0  0  0  0  0  0  0  0  0  0  0  0
    7.9945  -13.9952   21.2242 C   0  0  0  0  0  0  0  0  0  0  0  0
    8.8672  -15.2195   21.1213 C   0  0  2  0  0  0  0  0  0  0  0  0
    8.0097  -16.3722   21.0558 N   0  0  0  0  0  0  0  0  0  0  0  0
    9.7471  -15.2291   22.3175 C   0  0  0  0  0  0  0  0  0  0  0  0
   10.4150  -14.2398   22.6986 O   0  0  0  0  0  0  0  0  0  0  0  0
   12.4876  -17.5028   26.1791 N   0  0  0  0  0  0  0  0  0  0  0  0
   11.1302  -18.0087   26.1629 C   0  0  0  0  0  0  0  0  0  0  0  0
   10.8484  -18.8153   27.0497 O   0  0  0  0  0  0  0  0  0  0  0  0
   10.2274  -17.5485   25.1416 C   0  0  0  0  0  0  0  0  0  0  0  0
   10.8323  -16.5712   24.1684 C   0  0  2  0  0  0  0  0  0  0  0  0
    9.8254  -16.4278   23.0572 N   0  0  0  0  0  0  0  0  0  0  0  0
   12.0179  -17.0710   23.4453 C   0  0  0  0  0  0  0  0  0  0  0  0
   11.8993  -18.0318   22.5876 O   0  0  0  0  0  0  0  0  0  0  0  0
   13.3330  -16.5965   23.5818 N   0  0  0  0  0  0  0  0  0  0  0  0
   14.4114  -17.1026   22.7249 C   0  0  0  0  0  0  0  0  0  0  0  0
   15.6687  -16.4068   23.0509 C   0  0  0  0  0  0  0  0  0  0  0  0
   16.8351  -16.7427   22.3853 O   0  0  0  0  0  0  0  0  0  0  0  0
   15.6508  -15.5073   23.9422 O   0  0  0  0  0  0  0  0  0  0  0  0
  2  1  1  0
  2  3  2  0
  4  2  1  0
  5  4  1  0
  6  7  1  1
  6  5  1  0
  8  6  1  0
  9  8  2  0
 10 11  1  0
 11 13  1  0
 11 12  2  0
 14 13  1  1
 14 15  1  0
 14 16  1  0
 15  8  1  0
 16 17  2  0
 16 18  1  0
 18 19  1  0
 19 20  1  0
 20 21  1  0
 22 20  2  0
M  END
$$$$
