QNG.pdb
     RDKit          3D

 22 21  0  0  1  0  0  0  0  0999 V2000
    9.1390  -14.8998   17.0415 N   0  0  0  0  0  0  0  0  0  0  0  0
    8.0412  -13.9976   17.0619 C   0  0  0  0  0  0  0  0  0  0  0  0
    7.7084  -13.4397   16.0031 O   0  0  0  0  0  0  0  0  0  0  0  0
    7.3100  -13.7286   18.3105 C   0  0  0  0  0  0  0  0  0  0  0  0
    8.0907  -12.8445   19.2228 C   0  0  0  0  0  0  0  0  0  0  0  0
    9.2052  -13.5435   19.9580 C   0  0  2  0  0  0  0  0  0  0  0  0
    9.6758  -14.6216   19.1306 N   0  0  0  0  0  0  0  0  0  0  0  0
    8.6456  -14.0166   21.2496 C   0  0  0  0  0  0  0  0  0  0  0  0
    7.4678  -13.8010   21.6190 O   0  0  0  0  0  0  0  0  0  0  0  0
    5.9079  -15.6523   21.5033 N   0  0  0  0  0  0  0  0  0  0  0  0
    6.6036  -16.2746   22.6114 C   0  0  0  0  0  0  0  0  0  0  0  0
    5.9248  -16.4933   23.6153 O   0  0  0  0  0  0  0  0  0  0  0  0
    8.0009  -16.5866   22.4695 C   0  0  0  0  0  0  0  0  0  0  0  0
    8.9281  -15.6332   23.1761 C   0  0  2  0  0  0  0  0  0  0  0  0
    9.5009  -14.7495   22.0989 N   0  0  0  0  0  0  0  0  0  0  0  0
   10.1419  -16.2544   23.7408 C   0  0  0  0  0  0  0  0  0  0  0  0
   10.1516  -16.6662   24.9669 O   0  0  0  0  0  0  0  0  0  0  0  0
   11.3546  -16.4689   23.0648 N   0  0  0  0  0  0  0  0  0  0  0  0
   12.4636  -15.5150   23.1820 C   0  0  0  0  0  0  0  0  0  0  0  0
   13.6619  -16.2106   23.6838 C   0  0  0  0  0  0  0  0  0  0  0  0
   13.5510  -17.4909   24.1983 O   0  0  0  0  0  0  0  0  0  0  0  0
   14.7771  -15.6128   23.6305 O   0  0  0  0  0  0  0  0  0  0  0  0
  2  1  1  0
  2  3  2  0
  4  2  1  0
  5  4  1  0
  6  7  1  6
  6  5  1  0
  8  6  1  0
  9  8  2  0
 10 11  1  0
 11 13  1  0
 11 12  2  0
 14 13  1  6
 14 15  1  0
 14 16  1  0
 15  8  1  0
 16 17  2  0
 16 18  1  0
 18 19  1  0
 19 20  1  0
 20 21  1  0
 22 20  2  0
M  END
$$$$
