QNG.pdb
     RDKit          3D

 22 21  0  0  1  0  0  0  0  0999 V2000
    7.7459  -12.1890   18.7583 N   0  0  0  0  0  0  0  0  0  0  0  0
    8.5188  -13.3760   18.6444 C   0  0  0  0  0  0  0  0  0  0  0  0
    8.7580  -13.8252   17.5111 O   0  0  0  0  0  0  0  0  0  0  0  0
    9.0287  -14.0612   19.8429 C   0  0  0  0  0  0  0  0  0  0  0  0
    7.9272  -14.4052   20.7874 C   0  0  0  0  0  0  0  0  0  0  0  0
    7.9797  -15.8172   21.3114 C   0  0  2  0  0  0  0  0  0  0  0  0
    7.9354  -16.7110   20.1856 N   0  0  0  0  0  0  0  0  0  0  0  0
    6.8191  -15.9873   22.2222 C   0  0  0  0  0  0  0  0  0  0  0  0
    5.8988  -15.1455   22.3421 O   0  0  0  0  0  0  0  0  0  0  0  0
    3.8114  -17.2132   21.8484 N   0  0  0  0  0  0  0  0  0  0  0  0
    4.0709  -18.5405   22.3678 C   0  0  0  0  0  0  0  0  0  0  0  0
    3.4836  -19.4622   21.8003 O   0  0  0  0  0  0  0  0  0  0  0  0
    4.9713  -18.6895   23.4800 C   0  0  0  0  0  0  0  0  0  0  0  0
    5.6162  -17.4076   23.9369 C   0  0  2  0  0  0  0  0  0  0  0  0
    6.7633  -17.1694   22.9900 N   0  0  0  0  0  0  0  0  0  0  0  0
    6.3057  -17.4914   25.2391 C   0  0  0  0  0  0  0  0  0  0  0  0
    5.6790  -17.1835   26.3279 O   0  0  0  0  0  0  0  0  0  0  0  0
    7.6352  -17.8940   25.4487 N   0  0  0  0  0  0  0  0  0  0  0  0
    8.1617  -18.0847   26.8050 C   0  0  0  0  0  0  0  0  0  0  0  0
    9.5683  -18.5179   26.7321 C   0  0  0  0  0  0  0  0  0  0  0  0
   10.2571  -18.8219   27.8937 O   0  0  0  0  0  0  0  0  0  0  0  0
   10.1186  -18.6029   25.5946 O   0  0  0  0  0  0  0  0  0  0  0  0
  2  1  1  0
  2  3  2  0
  4  2  1  0
  5  4  1  0
  6  7  1  6
  6  5  1  0
  8  6  1  0
  9  8  2  0
 10 11  1  0
 11 13  1  0
 11 12  2  0
 14 13  1  6
 14 15  1  0
 14 16  1  0
 15  8  1  0
 16 17  2  0
 16 18  1  0
 18 19  1  0
 19 20  1  0
 20 21  1  0
 22 20  2  0
M  END
$$$$
