QNG.pdb
     RDKit          3D

 22 21  0  0  1  0  0  0  0  0999 V2000
    7.1307  -12.8386   17.2849 N   0  0  0  0  0  0  0  0  0  0  0  0
    7.0981  -13.5355   18.5229 C   0  0  0  0  0  0  0  0  0  0  0  0
    6.1204  -14.2598   18.7736 O   0  0  0  0  0  0  0  0  0  0  0  0
    8.1996  -13.4054   19.4902 C   0  0  0  0  0  0  0  0  0  0  0  0
    7.8611  -14.0437   20.7947 C   0  0  0  0  0  0  0  0  0  0  0  0
    9.0115  -14.1155   21.7655 C   0  0  2  0  0  0  0  0  0  0  0  0
   10.0828  -14.8368   21.1327 N   0  0  0  0  0  0  0  0  0  0  0  0
    8.5090  -14.7941   22.9871 C   0  0  0  0  0  0  0  0  0  0  0  0
    7.5707  -14.3547   23.6918 O   0  0  0  0  0  0  0  0  0  0  0  0
    5.5371  -17.0774   22.7440 N   0  0  0  0  0  0  0  0  0  0  0  0
    6.2573  -17.0669   24.0011 C   0  0  0  0  0  0  0  0  0  0  0  0
    5.6811  -16.5236   24.9441 O   0  0  0  0  0  0  0  0  0  0  0  0
    7.5600  -17.6742   24.0625 C   0  0  0  0  0  0  0  0  0  0  0  0
    8.6491  -16.7652   24.5681 C   0  0  2  0  0  0  0  0  0  0  0  0
    9.1336  -16.0017   23.3633 N   0  0  0  0  0  0  0  0  0  0  0  0
    9.8772  -17.4557   25.0079 C   0  0  0  0  0  0  0  0  0  0  0  0
    9.9045  -18.0740   26.1436 O   0  0  0  0  0  0  0  0  0  0  0  0
   11.0863  -17.5300   24.2965 N   0  0  0  0  0  0  0  0  0  0  0  0
   12.2410  -16.7106   24.6821 C   0  0  0  0  0  0  0  0  0  0  0  0
   13.3621  -17.5868   25.0652 C   0  0  0  0  0  0  0  0  0  0  0  0
   14.6256  -17.3551   24.5493 O   0  0  0  0  0  0  0  0  0  0  0  0
   13.1394  -18.5413   25.8671 O   0  0  0  0  0  0  0  0  0  0  0  0
  2  1  1  0
  2  3  2  0
  4  2  1  0
  5  4  1  0
  6  7  1  6
  6  5  1  0
  8  6  1  0
  9  8  2  0
 10 11  1  0
 11 13  1  0
 11 12  2  0
 14 13  1  6
 14 15  1  0
 14 16  1  0
 15  8  1  0
 16 17  2  0
 16 18  1  0
 18 19  1  0
 19 20  1  0
 20 21  1  0
 22 20  2  0
M  END
$$$$
