QNG.pdb
     RDKit          3D

 22 21  0  0  1  0  0  0  0  0999 V2000
    8.2367  -14.1985   17.2688 N   0  0  0  0  0  0  0  0  0  0  0  0
    7.9861  -13.5046   18.4833 C   0  0  0  0  0  0  0  0  0  0  0  0
    8.7865  -12.6255   18.8436 O   0  0  0  0  0  0  0  0  0  0  0  0
    6.8021  -13.8174   19.2995 C   0  0  0  0  0  0  0  0  0  0  0  0
    7.1321  -13.8496   20.7533 C   0  0  0  0  0  0  0  0  0  0  0  0
    8.2237  -14.8223   21.1188 C   0  0  2  0  0  0  0  0  0  0  0  0
    7.8861  -16.1015   20.5549 N   0  0  0  0  0  0  0  0  0  0  0  0
    8.3008  -14.8536   22.6015 C   0  0  0  0  0  0  0  0  0  0  0  0
    8.3261  -13.8270   23.3193 O   0  0  0  0  0  0  0  0  0  0  0  0
    5.6922  -16.4129   24.5669 N   0  0  0  0  0  0  0  0  0  0  0  0
    6.4151  -17.6229   24.9020 C   0  0  0  0  0  0  0  0  0  0  0  0
    5.7322  -18.6417   25.0127 O   0  0  0  0  0  0  0  0  0  0  0  0
    7.8414  -17.5560   25.0782 C   0  0  0  0  0  0  0  0  0  0  0  0
    8.4524  -16.2264   24.7221 C   0  0  2  0  0  0  0  0  0  0  0  0
    8.3477  -16.1191   23.2232 N   0  0  0  0  0  0  0  0  0  0  0  0
    9.9103  -16.1383   24.9347 C   0  0  0  0  0  0  0  0  0  0  0  0
   10.3847  -15.9700   26.1261 O   0  0  0  0  0  0  0  0  0  0  0  0
   10.8996  -16.2262   23.9413 N   0  0  0  0  0  0  0  0  0  0  0  0
   12.3237  -16.1338   24.2832 C   0  0  0  0  0  0  0  0  0  0  0  0
   13.1331  -16.2264   23.0554 C   0  0  0  0  0  0  0  0  0  0  0  0
   12.5089  -16.3442   21.8254 O   0  0  0  0  0  0  0  0  0  0  0  0
   14.3951  -16.1948   23.1570 O   0  0  0  0  0  0  0  0  0  0  0  0
  2  1  1  0
  2  3  2  0
  4  2  1  0
  5  4  1  0
  6  7  1  1
  6  5  1  0
  8  6  1  0
  9  8  2  0
 10 11  1  0
 11 13  1  0
 11 12  2  0
 14 13  1  6
 14 15  1  0
 14 16  1  0
 15  8  1  0
 16 17  2  0
 16 18  1  0
 18 19  1  0
 19 20  1  0
 20 21  1  0
 22 20  2  0
M  END
$$$$
