HAI.pdb
     RDKit          3D

 24 24  0  0  1  0  0  0  0  0999 V2000
    6.7423  -16.9049   20.7697 N   0  0  0  0  0  0  0  0  0  0  0  0
    7.8023  -16.2169   21.4451 C   0  0  1  0  0  0  0  0  0  0  0  0
    7.5801  -14.7398   21.5942 C   0  0  0  0  0  0  0  0  0  0  0  0
    7.7855  -14.0107   20.3241 C   0  0  0  0  0  0  0  0  0  0  0  0
    8.1348  -14.5277   19.0956 C   0  0  0  0  0  0  0  0  0  0  0  0
    8.1988  -13.4742   18.2633 N   0  0  0  0  0  0  0  0  0  0  0  0
    7.9063  -12.3419   18.9220 C   0  0  0  0  0  0  0  0  0  0  0  0
    7.6546  -12.6808   20.1837 N   0  0  0  0  0  0  0  0  0  0  0  0
    8.1481  -16.8568   22.7486 C   0  0  0  0  0  0  0  0  0  0  0  0
    7.2887  -17.4471   23.4505 O   0  0  0  0  0  0  0  0  0  0  0  0
   11.1978  -18.1841   24.2447 C   0  0  0  0  0  0  0  0  0  0  0  0
    9.8399  -17.5485   24.4865 C   0  0  2  0  0  0  0  0  0  0  0  0
    9.4839  -16.8337   23.2744 N   0  0  0  0  0  0  0  0  0  0  0  0
    9.8901  -16.6618   25.6577 C   0  0  0  0  0  0  0  0  0  0  0  0
   10.2228  -17.1272   26.7721 O   0  0  0  0  0  0  0  0  0  0  0  0
    6.2986  -12.6159   25.7623 C   0  0  0  0  0  0  0  0  0  0  0  0
    7.6782  -13.1984   25.5766 C   0  0  0  0  0  0  0  0  0  0  0  0
    8.2744  -13.6867   26.8544 C   0  0  2  0  0  0  0  0  0  0  0  0
    8.3676  -12.5317   27.8267 C   0  0  0  0  0  0  0  0  0  0  0  0
    9.6078  -14.3758   26.6787 C   0  0  2  0  0  0  0  0  0  0  0  0
    9.5658  -15.2893   25.5342 N   0  0  0  0  0  0  0  0  0  0  0  0
    9.9726  -15.1081   27.8933 C   0  0  0  0  0  0  0  0  0  0  0  0
   10.4652  -14.5849   28.9142 O   0  0  0  0  0  0  0  0  0  0  0  0
    9.7671  -16.4837   27.9411 O   0  0  0  0  0  0  0  0  0  0  0  0
  2  1  1  1
  3  2  1  0
  4  3  1  0
  4  5  2  0
  6  5  1  0
  7  8  2  0
  7  6  1  0
  8  4  1  0
  9  2  1  0
 10  9  2  0
 12 11  1  6
 12 13  1  0
 12 14  1  0
 13  9  1  0
 14 21  1  0
 15 14  2  0
 17 16  1  0
 18 17  1  0
 18 19  1  1
 20 18  1  0
 20 22  1  0
 20 21  1  6
 22 23  2  0
 22 24  1  0
M  END
$$$$
