HAI.pdb
     RDKit          3D

 24 24  0  0  1  0  0  0  0  0999 V2000
   10.9772  -16.4600   18.6757 N   0  0  0  0  0  0  0  0  0  0  0  0
   11.3341  -15.8891   19.9405 C   0  0  1  0  0  0  0  0  0  0  0  0
   11.9118  -14.5065   19.8503 C   0  0  0  0  0  0  0  0  0  0  0  0
   13.2869  -14.5076   19.3062 C   0  0  0  0  0  0  0  0  0  0  0  0
   14.4320  -14.9989   19.8942 C   0  0  0  0  0  0  0  0  0  0  0  0
   15.4203  -14.7685   19.0128 N   0  0  0  0  0  0  0  0  0  0  0  0
   14.9358  -14.1619   17.9179 C   0  0  0  0  0  0  0  0  0  0  0  0
   13.6281  -14.0064   18.1071 N   0  0  0  0  0  0  0  0  0  0  0  0
   10.2137  -15.9555   20.9244 C   0  0  0  0  0  0  0  0  0  0  0  0
    9.1104  -15.3898   20.7181 O   0  0  0  0  0  0  0  0  0  0  0  0
    9.0272  -18.1369   23.5222 C   0  0  0  0  0  0  0  0  0  0  0  0
    9.2627  -16.6851   23.1435 C   0  0  2  0  0  0  0  0  0  0  0  0
   10.3336  -16.6704   22.1638 N   0  0  0  0  0  0  0  0  0  0  0  0
    9.5922  -15.8913   24.3360 C   0  0  0  0  0  0  0  0  0  0  0  0
   10.7897  -15.7570   24.6782 O   0  0  0  0  0  0  0  0  0  0  0  0
    5.5979  -12.4956   26.8922 C   0  0  0  0  0  0  0  0  0  0  0  0
    6.4963  -13.6821   26.6430 C   0  0  0  0  0  0  0  0  0  0  0  0
    7.9051  -13.2869   26.3501 C   0  0  2  0  0  0  0  0  0  0  0  0
    7.9308  -12.4603   25.0835 C   0  0  0  0  0  0  0  0  0  0  0  0
    8.8605  -14.4551   26.2724 C   0  0  2  0  0  0  0  0  0  0  0  0
    8.5675  -15.2796   25.0975 N   0  0  0  0  0  0  0  0  0  0  0  0
    8.7808  -15.2668   27.4886 C   0  0  0  0  0  0  0  0  0  0  0  0
    8.2622  -16.4008   27.5501 O   0  0  0  0  0  0  0  0  0  0  0  0
    9.3119  -14.7647   28.6729 O   0  0  0  0  0  0  0  0  0  0  0  0
  2  1  1  6
  3  2  1  0
  4  3  1  0
  4  5  2  0
  6  5  1  0
  7  8  2  0
  7  6  1  0
  8  4  1  0
  9  2  1  0
 10  9  2  0
 12 11  1  1
 12 13  1  0
 12 14  1  0
 13  9  1  0
 14 21  1  0
 15 14  2  0
 17 16  1  0
 18 17  1  0
 18 19  1  6
 20 18  1  0
 20 22  1  0
 20 21  1  6
 22 23  2  0
 22 24  1  0
M  END
$$$$
