HAI.pdb
     RDKit          3D

 24 24  0  0  1  0  0  0  0  0999 V2000
    8.9228  -16.6999   18.6081 N   0  0  0  0  0  0  0  0  0  0  0  0
    8.4562  -15.5799   19.3702 C   0  0  1  0  0  0  0  0  0  0  0  0
    7.3461  -14.8100   18.7157 C   0  0  0  0  0  0  0  0  0  0  0  0
    7.7092  -14.3462   17.3591 C   0  0  0  0  0  0  0  0  0  0  0  0
    8.2557  -13.1351   16.9942 C   0  0  0  0  0  0  0  0  0  0  0  0
    8.4014  -13.1903   15.6591 N   0  0  0  0  0  0  0  0  0  0  0  0
    7.9718  -14.3730   15.1922 C   0  0  0  0  0  0  0  0  0  0  0  0
    7.5496  -15.0742   16.2411 N   0  0  0  0  0  0  0  0  0  0  0  0
    8.1130  -15.9572   20.7730 C   0  0  0  0  0  0  0  0  0  0  0  0
    6.9233  -16.0321   21.1714 O   0  0  0  0  0  0  0  0  0  0  0  0
    9.6454  -17.7973   23.4954 C   0  0  0  0  0  0  0  0  0  0  0  0
    8.7872  -16.6032   23.1159 C   0  0  2  0  0  0  0  0  0  0  0  0
    9.1242  -16.2560   21.7474 N   0  0  0  0  0  0  0  0  0  0  0  0
    9.0218  -15.4877   24.0440 C   0  0  0  0  0  0  0  0  0  0  0  0
   10.0726  -14.8128   23.9468 O   0  0  0  0  0  0  0  0  0  0  0  0
    7.6737  -10.8132   26.3230 C   0  0  0  0  0  0  0  0  0  0  0  0
    7.1356  -12.0549   26.9906 C   0  0  0  0  0  0  0  0  0  0  0  0
    7.0185  -13.2092   26.0522 C   0  0  2  0  0  0  0  0  0  0  0  0
    5.8049  -14.0292   26.4302 C   0  0  0  0  0  0  0  0  0  0  0  0
    8.2647  -14.0606   25.9773 C   0  0  2  0  0  0  0  0  0  0  0  0
    8.0703  -15.1727   25.0437 N   0  0  0  0  0  0  0  0  0  0  0  0
    8.6183  -14.5730   27.3028 C   0  0  0  0  0  0  0  0  0  0  0  0
    9.0815  -13.8773   28.2302 O   0  0  0  0  0  0  0  0  0  0  0  0
    8.4359  -15.9254   27.5759 O   0  0  0  0  0  0  0  0  0  0  0  0
  2  1  1  6
  3  2  1  0
  4  3  1  0
  4  5  2  0
  6  5  1  0
  7  8  2  0
  7  6  1  0
  8  4  1  0
  9  2  1  0
 10  9  2  0
 12 11  1  1
 12 13  1  0
 12 14  1  0
 13  9  1  0
 14 21  1  0
 15 14  2  0
 17 16  1  0
 18 17  1  0
 18 19  1  1
 20 18  1  0
 20 22  1  0
 20 21  1  6
 22 23  2  0
 22 24  1  0
M  END
$$$$
