HAI.pdb
     RDKit          3D

 24 24  0  0  1  0  0  0  0  0999 V2000
    8.1959  -16.9651   19.1099 N   0  0  0  0  0  0  0  0  0  0  0  0
    8.2010  -15.7819   19.9179 C   0  0  1  0  0  0  0  0  0  0  0  0
    7.3212  -14.6806   19.4017 C   0  0  0  0  0  0  0  0  0  0  0  0
    7.7348  -14.2144   18.0605 C   0  0  0  0  0  0  0  0  0  0  0  0
    8.5785  -13.1711   17.7475 C   0  0  0  0  0  0  0  0  0  0  0  0
    8.6403  -13.1444   16.4051 N   0  0  0  0  0  0  0  0  0  0  0  0
    7.8774  -14.1182   15.8844 C   0  0  0  0  0  0  0  0  0  0  0  0
    7.3268  -14.7682   16.9063 N   0  0  0  0  0  0  0  0  0  0  0  0
    7.9259  -16.0799   21.3544 C   0  0  0  0  0  0  0  0  0  0  0  0
    6.7559  -16.1608   21.8066 O   0  0  0  0  0  0  0  0  0  0  0  0
    9.3976  -17.9588   23.9601 C   0  0  0  0  0  0  0  0  0  0  0  0
    8.7125  -16.6313   23.6864 C   0  0  2  0  0  0  0  0  0  0  0  0
    8.9839  -16.2911   22.3017 N   0  0  0  0  0  0  0  0  0  0  0  0
    9.2000  -15.6017   24.6154 C   0  0  0  0  0  0  0  0  0  0  0  0
   10.3170  -15.0701   24.4188 O   0  0  0  0  0  0  0  0  0  0  0  0
    5.4658  -12.3888   27.4173 C   0  0  0  0  0  0  0  0  0  0  0  0
    6.4302  -13.5167   27.1440 C   0  0  0  0  0  0  0  0  0  0  0  0
    7.7470  -13.0376   26.6309 C   0  0  2  0  0  0  0  0  0  0  0  0
    7.5468  -12.4177   25.2657 C   0  0  0  0  0  0  0  0  0  0  0  0
    8.8151  -14.1063   26.6062 C   0  0  2  0  0  0  0  0  0  0  0  0
    8.4170  -15.2087   25.7274 N   0  0  0  0  0  0  0  0  0  0  0  0
    9.0721  -14.6084   27.9576 C   0  0  0  0  0  0  0  0  0  0  0  0
    9.5147  -13.9162   28.8976 O   0  0  0  0  0  0  0  0  0  0  0  0
    8.8143  -15.9459   28.2426 O   0  0  0  0  0  0  0  0  0  0  0  0
  2  1  1  6
  3  2  1  0
  4  3  1  0
  4  5  2  0
  6  5  1  0
  7  8  2  0
  7  6  1  0
  8  4  1  0
  9  2  1  0
 10  9  2  0
 12 11  1  1
 12 13  1  0
 12 14  1  0
 13  9  1  0
 14 21  1  0
 15 14  2  0
 17 16  1  0
 18 17  1  0
 18 19  1  6
 20 18  1  0
 20 22  1  0
 20 21  1  6
 22 23  2  0
 22 24  1  0
M  END
$$$$
