HAI.pdb
     RDKit          3D

 24 24  0  0  1  0  0  0  0  0999 V2000
   11.4742  -13.7849   20.0079 N   0  0  0  0  0  0  0  0  0  0  0  0
   10.1128  -14.1676   20.2384 C   0  0  1  0  0  0  0  0  0  0  0  0
    9.6578  -15.3430   19.4230 C   0  0  0  0  0  0  0  0  0  0  0  0
    9.5056  -15.0070   17.9909 C   0  0  0  0  0  0  0  0  0  0  0  0
    8.6382  -14.1019   17.4190 C   0  0  0  0  0  0  0  0  0  0  0  0
    8.8776  -14.1551   16.0974 N   0  0  0  0  0  0  0  0  0  0  0  0
    9.8464  -15.0462   15.8350 C   0  0  0  0  0  0  0  0  0  0  0  0
   10.2247  -15.5628   17.0013 N   0  0  0  0  0  0  0  0  0  0  0  0
    9.8189  -14.3563   21.6896 C   0  0  0  0  0  0  0  0  0  0  0  0
   10.7131  -14.2668   22.5683 O   0  0  0  0  0  0  0  0  0  0  0  0
    6.7024  -15.0033   23.7003 C   0  0  0  0  0  0  0  0  0  0  0  0
    8.1756  -14.6547   23.5794 C   0  0  2  0  0  0  0  0  0  0  0  0
    8.4961  -14.6511   22.1638 N   0  0  0  0  0  0  0  0  0  0  0  0
    8.9936  -15.6181   24.3300 C   0  0  0  0  0  0  0  0  0  0  0  0
    9.5353  -16.5725   23.7260 O   0  0  0  0  0  0  0  0  0  0  0  0
   10.2172  -14.5807   29.8936 C   0  0  0  0  0  0  0  0  0  0  0  0
    9.6520  -14.9668   28.5488 C   0  0  0  0  0  0  0  0  0  0  0  0
   10.6665  -15.6026   27.6582 C   0  0  2  0  0  0  0  0  0  0  0  0
   11.6496  -14.5478   27.2008 C   0  0  0  0  0  0  0  0  0  0  0  0
   10.0666  -16.3491   26.4892 C   0  0  2  0  0  0  0  0  0  0  0  0
    9.1723  -15.4743   25.7269 N   0  0  0  0  0  0  0  0  0  0  0  0
    9.3379  -17.5316   26.9530 C   0  0  0  0  0  0  0  0  0  0  0  0
    9.8599  -18.4952   27.5510 O   0  0  0  0  0  0  0  0  0  0  0  0
    7.9676  -17.6142   26.7251 O   0  0  0  0  0  0  0  0  0  0  0  0
  2  1  1  1
  3  2  1  0
  4  3  1  0
  4  5  2  0
  6  5  1  0
  7  8  2  0
  7  6  1  0
  8  4  1  0
  9  2  1  0
 10  9  2  0
 12 11  1  6
 12 13  1  0
 12 14  1  0
 13  9  1  0
 14 21  1  0
 15 14  2  0
 17 16  1  0
 18 17  1  0
 18 19  1  6
 20 18  1  0
 20 22  1  0
 20 21  1  1
 22 23  2  0
 22 24  1  0
M  END
$$$$
