HAI.pdb
     RDKit          3D

 24 24  0  0  1  0  0  0  0  0999 V2000
    7.5600  -17.0652   19.3666 N   0  0  0  0  0  0  0  0  0  0  0  0
    7.7620  -15.9272   20.2136 C   0  0  1  0  0  0  0  0  0  0  0  0
    7.0032  -14.7030   19.7904 C   0  0  0  0  0  0  0  0  0  0  0  0
    7.5633  -14.0914   18.5659 C   0  0  0  0  0  0  0  0  0  0  0  0
    8.3457  -12.9620   18.4628 C   0  0  0  0  0  0  0  0  0  0  0  0
    8.5991  -12.8144   17.1511 N   0  0  0  0  0  0  0  0  0  0  0  0
    8.0111  -13.7962   16.4498 C   0  0  0  0  0  0  0  0  0  0  0  0
    7.3789  -14.5735   17.3253 N   0  0  0  0  0  0  0  0  0  0  0  0
    7.5316  -16.2486   21.6529 C   0  0  0  0  0  0  0  0  0  0  0  0
    6.3804  -16.4502   22.1153 O   0  0  0  0  0  0  0  0  0  0  0  0
    8.9380  -18.0614   24.2201 C   0  0  0  0  0  0  0  0  0  0  0  0
    8.3866  -16.6654   23.9888 C   0  0  2  0  0  0  0  0  0  0  0  0
    8.6139  -16.3454   22.5913 N   0  0  0  0  0  0  0  0  0  0  0  0
    9.0351  -15.7022   24.8900 C   0  0  0  0  0  0  0  0  0  0  0  0
   10.2250  -15.3682   24.6857 O   0  0  0  0  0  0  0  0  0  0  0  0
    5.9243  -11.9327   27.8650 C   0  0  0  0  0  0  0  0  0  0  0  0
    6.6550  -13.1869   27.4524 C   0  0  0  0  0  0  0  0  0  0  0  0
    8.0153  -12.9080   26.9060 C   0  0  2  0  0  0  0  0  0  0  0  0
    7.8758  -12.2566   25.5480 C   0  0  0  0  0  0  0  0  0  0  0  0
    8.9094  -14.1251   26.8508 C   0  0  2  0  0  0  0  0  0  0  0  0
    8.3252  -15.1514   25.9840 N   0  0  0  0  0  0  0  0  0  0  0  0
    9.1262  -14.6657   28.1944 C   0  0  0  0  0  0  0  0  0  0  0  0
    9.6705  -14.0421   29.1290 O   0  0  0  0  0  0  0  0  0  0  0  0
    8.7067  -15.9620   28.4776 O   0  0  0  0  0  0  0  0  0  0  0  0
  2  1  1  6
  3  2  1  0
  4  3  1  0
  4  5  2  0
  6  5  1  0
  7  8  2  0
  7  6  1  0
  8  4  1  0
  9  2  1  0
 10  9  2  0
 12 11  1  1
 12 13  1  0
 12 14  1  0
 13  9  1  0
 14 21  1  0
 15 14  2  0
 17 16  1  0
 18 17  1  0
 18 19  1  6
 20 18  1  0
 20 22  1  0
 20 21  1  6
 22 23  2  0
 22 24  1  0
M  END
$$$$
