HAI.pdb
     RDKit          3D

 24 24  0  0  1  0  0  0  0  0999 V2000
    8.1034  -16.9310   18.9646 N   0  0  0  0  0  0  0  0  0  0  0  0
    8.1578  -15.8666   19.9223 C   0  0  1  0  0  0  0  0  0  0  0  0
    7.2264  -14.7266   19.6286 C   0  0  0  0  0  0  0  0  0  0  0  0
    7.5288  -14.0738   18.3365 C   0  0  0  0  0  0  0  0  0  0  0  0
    8.3968  -13.0313   18.0950 C   0  0  0  0  0  0  0  0  0  0  0  0
    8.3238  -12.7970   16.7735 N   0  0  0  0  0  0  0  0  0  0  0  0
    7.4558  -13.6435   16.1976 C   0  0  0  0  0  0  0  0  0  0  0  0
    6.9740  -14.4217   17.1632 N   0  0  0  0  0  0  0  0  0  0  0  0
    8.0009  -16.3603   21.3222 C   0  0  0  0  0  0  0  0  0  0  0  0
    6.8955  -16.7576   21.7693 O   0  0  0  0  0  0  0  0  0  0  0  0
    9.6073  -18.2189   23.7126 C   0  0  0  0  0  0  0  0  0  0  0  0
    8.9422  -16.8575   23.6086 C   0  0  2  0  0  0  0  0  0  0  0  0
    9.1057  -16.4089   22.2379 N   0  0  0  0  0  0  0  0  0  0  0  0
    9.5375  -15.9211   24.5725 C   0  0  0  0  0  0  0  0  0  0  0  0
   10.6653  -15.4279   24.3402 O   0  0  0  0  0  0  0  0  0  0  0  0
    6.2937  -12.1845   26.3519 C   0  0  0  0  0  0  0  0  0  0  0  0
    7.4858  -13.0041   25.9231 C   0  0  0  0  0  0  0  0  0  0  0  0
    8.2099  -13.6153   27.0759 C   0  0  2  0  0  0  0  0  0  0  0  0
    8.6942  -12.5136   27.9924 C   0  0  0  0  0  0  0  0  0  0  0  0
    9.3368  -14.5355   26.6672 C   0  0  2  0  0  0  0  0  0  0  0  0
    8.8461  -15.5743   25.7582 N   0  0  0  0  0  0  0  0  0  0  0  0
    9.9534  -15.1488   27.8454 C   0  0  0  0  0  0  0  0  0  0  0  0
    9.6908  -16.2945   28.2661 O   0  0  0  0  0  0  0  0  0  0  0  0
   10.9011  -14.4277   28.5654 O   0  0  0  0  0  0  0  0  0  0  0  0
  2  1  1  6
  3  2  1  0
  4  3  1  0
  4  5  2  0
  6  5  1  0
  7  8  2  0
  7  6  1  0
  8  4  1  0
  9  2  1  0
 10  9  2  0
 12 11  1  6
 12 13  1  0
 12 14  1  0
 13  9  1  0
 14 21  1  0
 15 14  2  0
 17 16  1  0
 18 17  1  0
 18 19  1  1
 20 18  1  0
 20 22  1  0
 20 21  1  6
 22 23  2  0
 22 24  1  0
M  END
$$$$
