YPS.pdb
     RDKit          3D

 26 27  0  0  1  0  0  0  0  0999 V2000
   25.5883  -13.0289  -24.1962 O   0  0  0  0  0  0  0  0  0  0  0  0
   25.0118  -12.2778  -23.1913 C   0  0  0  0  0  0  0  0  0  0  0  0
   25.4296  -12.4560  -21.8754 C   0  0  0  0  0  0  0  0  0  0  0  0
   24.8224  -11.6821  -20.9126 C   0  0  0  0  0  0  0  0  0  0  0  0
   23.8298  -10.7466  -21.1782 C   0  0  0  0  0  0  0  0  0  0  0  0
   23.2126   -9.9270  -20.1214 C   0  0  0  0  0  0  0  0  0  0  0  0
   22.4591  -10.7777  -19.1127 C   0  0  2  0  0  0  0  0  0  0  0  0
   21.4583  -11.5272  -19.8015 N   0  0  0  0  0  0  0  0  0  0  0  0
   22.0194   -9.9918  -17.9577 C   0  0  0  0  0  0  0  0  0  0  0  0
   21.3638   -8.9291  -18.3045 O   0  0  0  0  0  0  0  0  0  0  0  0
   23.4641  -10.6253  -22.5247 C   0  0  0  0  0  0  0  0  0  0  0  0
   24.0354  -11.3672  -23.5067 C   0  0  0  0  0  0  0  0  0  0  0  0
   22.1976  -10.2142  -16.5952 N   0  0  0  0  0  0  0  0  0  0  0  0
   22.1760  -11.5529  -15.9329 C   0  0  0  0  0  0  0  0  0  0  0  0
   23.5555  -11.4910  -15.2793 C   0  0  0  0  0  0  0  0  0  0  0  0
   23.7970   -9.9967  -15.0044 C   0  0  0  0  0  0  0  0  0  0  0  0
   22.4598   -9.4029  -15.4395 C   0  0  1  0  0  0  0  0  0  0  0  0
   22.4442   -7.9754  -15.5034 C   0  0  0  0  0  0  0  0  0  0  0  0
   23.2744   -7.2554  -16.0969 O   0  0  0  0  0  0  0  0  0  0  0  0
   19.1057   -5.8475  -13.9978 O   0  0  0  0  0  0  0  0  0  0  0  0
   19.9042   -5.3810  -15.0225 C   0  0  0  0  0  0  0  0  0  0  0  0
   21.3615   -5.7946  -14.8043 C   0  0  2  0  0  0  0  0  0  0  0  0
   21.3959   -7.2259  -14.8398 N   0  0  0  0  0  0  0  0  0  0  0  0
   21.9190   -5.2138  -13.5905 C   0  0  0  0  0  0  0  0  0  0  0  0
   22.1134   -5.9235  -12.5819 O   0  0  0  0  0  0  0  0  0  0  0  0
   22.2401   -3.8732  -13.5373 O   0  0  0  0  0  0  0  0  0  0  0  0
  1  2  1  0
  2  3  2  0
  3  4  1  0
  5  4  2  0
  5  6  1  0
  7  6  1  0
  7  8  1  6
  9  7  1  0
  9 13  1  0
 10  9  2  0
 11  5  1  0
 12  2  1  0
 12 11  2  0
 13 14  1  0
 14 15  1  0
 16 15  1  0
 17 13  1  0
 17 16  1  0
 17 18  1  6
 19 18  2  0
 20 21  1  0
 22 21  1  1
 22 24  1  0
 22 23  1  0
 23 18  1  0
 24 26  1  0
 25 24  2  0
M  END
$$$$
