YPS.pdb
     RDKit          3D

 26 27  0  0  1  0  0  0  0  0999 V2000
   22.7742  -20.9999   -8.2185 O   0  0  0  0  0  0  0  0  0  0  0  0
   23.5000  -20.7492   -9.3660 C   0  0  0  0  0  0  0  0  0  0  0  0
   22.8768  -20.8456  -10.6070 C   0  0  0  0  0  0  0  0  0  0  0  0
   23.6457  -20.5856  -11.7187 C   0  0  0  0  0  0  0  0  0  0  0  0
   24.9900  -20.2374  -11.6707 C   0  0  0  0  0  0  0  0  0  0  0  0
   25.7770  -19.9535  -12.8831 C   0  0  0  0  0  0  0  0  0  0  0  0
   25.8852  -21.1710  -13.7857 C   0  0  2  0  0  0  0  0  0  0  0  0
   26.4935  -22.2336  -13.0517 N   0  0  0  0  0  0  0  0  0  0  0  0
   26.4798  -20.8371  -15.0819 C   0  0  0  0  0  0  0  0  0  0  0  0
   27.4169  -19.9477  -14.9806 O   0  0  0  0  0  0  0  0  0  0  0  0
   25.5449  -20.1609  -10.3871 C   0  0  0  0  0  0  0  0  0  0  0  0
   24.8250  -20.4088   -9.2639 C   0  0  0  0  0  0  0  0  0  0  0  0
   26.1939  -21.3192  -16.3560 N   0  0  0  0  0  0  0  0  0  0  0  0
   25.9127  -22.7473  -16.6914 C   0  0  0  0  0  0  0  0  0  0  0  0
   24.5437  -22.5497  -17.3401 C   0  0  0  0  0  0  0  0  0  0  0  0
   24.5953  -21.1392  -17.9523 C   0  0  0  0  0  0  0  0  0  0  0  0
   26.0444  -20.7532  -17.6675 C   0  0  1  0  0  0  0  0  0  0  0  0
   26.3506  -19.3833  -17.9349 C   0  0  0  0  0  0  0  0  0  0  0  0
   25.7790  -18.3901  -17.4381 O   0  0  0  0  0  0  0  0  0  0  0  0
   29.6355  -16.2978  -19.6010 O   0  0  0  0  0  0  0  0  0  0  0  0
   29.2471  -17.5748  -19.2494 C   0  0  0  0  0  0  0  0  0  0  0  0
   27.7211  -17.6899  -19.2276 C   0  0  2  0  0  0  0  0  0  0  0  0
   27.4123  -19.0390  -18.8598 N   0  0  0  0  0  0  0  0  0  0  0  0
   27.1223  -17.2617  -20.4845 C   0  0  0  0  0  0  0  0  0  0  0  0
   27.0723  -18.0410  -21.4585 O   0  0  0  0  0  0  0  0  0  0  0  0
   26.6023  -15.9907  -20.6170 O   0  0  0  0  0  0  0  0  0  0  0  0
  1  2  1  0
  2  3  2  0
  3  4  1  0
  5  4  2  0
  5  6  1  0
  7  6  1  0
  7  8  1  1
  9  7  1  0
  9 13  1  0
 10  9  2  0
 11  5  1  0
 12  2  1  0
 12 11  2  0
 13 14  1  0
 14 15  1  0
 16 15  1  0
 17 13  1  0
 17 16  1  0
 17 18  1  1
 19 18  2  0
 20 21  1  0
 22 21  1  6
 22 24  1  0
 22 23  1  0
 23 18  1  0
 24 26  1  0
 25 24  2  0
M  END
$$$$
