YPS.pdb
     RDKit          3D

 26 27  0  0  1  0  0  0  0  0999 V2000
   14.4962  -16.2843  -16.2413 O   0  0  0  0  0  0  0  0  0  0  0  0
   15.3231  -15.2000  -16.0245 C   0  0  0  0  0  0  0  0  0  0  0  0
   16.4697  -15.3553  -15.2506 C   0  0  0  0  0  0  0  0  0  0  0  0
   17.2590  -14.2428  -15.0656 C   0  0  0  0  0  0  0  0  0  0  0  0
   16.9779  -12.9918  -15.6013 C   0  0  0  0  0  0  0  0  0  0  0  0
   17.8548  -11.8270  -15.3918 C   0  0  0  0  0  0  0  0  0  0  0  0
   18.9493  -11.7461  -16.4428 C   0  0  2  0  0  0  0  0  0  0  0  0
   19.7203  -12.9466  -16.3955 N   0  0  0  0  0  0  0  0  0  0  0  0
   19.6865  -10.4828  -16.3655 C   0  0  0  0  0  0  0  0  0  0  0  0
   20.1437  -10.2502  -15.1754 O   0  0  0  0  0  0  0  0  0  0  0  0
   15.8081  -12.9159  -16.3676 C   0  0  0  0  0  0  0  0  0  0  0  0
   15.0005  -13.9862  -16.5761 C   0  0  0  0  0  0  0  0  0  0  0  0
   19.9556   -9.5345  -17.3482 N   0  0  0  0  0  0  0  0  0  0  0  0
   20.3008   -9.8427  -18.7684 C   0  0  0  0  0  0  0  0  0  0  0  0
   19.1886   -9.0379  -19.4388 C   0  0  0  0  0  0  0  0  0  0  0  0
   18.9085   -7.8710  -18.4762 C   0  0  0  0  0  0  0  0  0  0  0  0
   19.9880   -8.1006  -17.4217 C   0  0  1  0  0  0  0  0  0  0  0  0
   19.8537   -7.2844  -16.2564 C   0  0  0  0  0  0  0  0  0  0  0  0
   18.8302   -7.1723  -15.5495 O   0  0  0  0  0  0  0  0  0  0  0  0
   22.2497   -6.8793  -13.2329 O   0  0  0  0  0  0  0  0  0  0  0  0
   22.1833   -5.6788  -13.9110 C   0  0  0  0  0  0  0  0  0  0  0  0
   20.8724   -5.5709  -14.6935 C   0  0  2  0  0  0  0  0  0  0  0  0
   20.9694   -6.4837  -15.7927 N   0  0  0  0  0  0  0  0  0  0  0  0
   20.5785   -4.1980  -15.0815 C   0  0  0  0  0  0  0  0  0  0  0  0
   21.0615   -3.7202  -16.1289 O   0  0  0  0  0  0  0  0  0  0  0  0
   19.7635   -3.4067  -14.2987 O   0  0  0  0  0  0  0  0  0  0  0  0
  1  2  1  0
  2  3  2  0
  3  4  1  0
  5  4  2  0
  5  6  1  0
  7  6  1  0
  7  8  1  1
  9  7  1  0
  9 13  1  0
 10  9  2  0
 11  5  1  0
 12  2  1  0
 12 11  2  0
 13 14  1  0
 14 15  1  0
 16 15  1  0
 17 13  1  0
 17 16  1  0
 17 18  1  1
 19 18  2  0
 20 21  1  0
 22 21  1  6
 22 24  1  0
 22 23  1  0
 23 18  1  0
 24 26  1  0
 25 24  2  0
M  END
$$$$
