YPS.pdb
     RDKit          3D

 26 27  0  0  1  0  0  0  0  0999 V2000
   25.4269  -12.4410  -18.6773 O   0  0  0  0  0  0  0  0  0  0  0  0
   25.3010  -13.5382  -17.8486 C   0  0  0  0  0  0  0  0  0  0  0  0
   26.3025  -13.8177  -16.9230 C   0  0  0  0  0  0  0  0  0  0  0  0
   26.1274  -14.9230  -16.1217 C   0  0  0  0  0  0  0  0  0  0  0  0
   25.0221  -15.7628  -16.1851 C   0  0  0  0  0  0  0  0  0  0  0  0
   24.8642  -16.9299  -15.3006 C   0  0  0  0  0  0  0  0  0  0  0  0
   25.5034  -18.1766  -15.8888 C   0  0  2  0  0  0  0  0  0  0  0  0
   24.9403  -18.4160  -17.1785 N   0  0  0  0  0  0  0  0  0  0  0  0
   25.4889  -19.2945  -14.9425 C   0  0  0  0  0  0  0  0  0  0  0  0
   24.2869  -19.6955  -14.6707 O   0  0  0  0  0  0  0  0  0  0  0  0
   24.0586  -15.4157  -17.1405 C   0  0  0  0  0  0  0  0  0  0  0  0
   24.1896  -14.3357  -17.9514 C   0  0  0  0  0  0  0  0  0  0  0  0
   26.5394  -19.9613  -14.3186 N   0  0  0  0  0  0  0  0  0  0  0  0
   27.6460  -20.6733  -15.0254 C   0  0  0  0  0  0  0  0  0  0  0  0
   28.8193  -19.9219  -14.3985 C   0  0  0  0  0  0  0  0  0  0  0  0
   28.3270  -19.5156  -12.9988 C   0  0  0  0  0  0  0  0  0  0  0  0
   26.9597  -20.1934  -12.9650 C   0  0  1  0  0  0  0  0  0  0  0  0
   26.1467  -19.8206  -11.8506 C   0  0  0  0  0  0  0  0  0  0  0  0
   26.0230  -18.6698  -11.3812 O   0  0  0  0  0  0  0  0  0  0  0  0
   22.3580  -21.5359  -10.1781 O   0  0  0  0  0  0  0  0  0  0  0  0
   23.0884  -20.4337  -10.5742 C   0  0  0  0  0  0  0  0  0  0  0  0
   24.5192  -20.5107  -10.0362 C   0  0  2  0  0  0  0  0  0  0  0  0
   25.3647  -20.8199  -11.1500 N   0  0  0  0  0  0  0  0  0  0  0  0
   24.6353  -21.4415   -8.9219 C   0  0  0  0  0  0  0  0  0  0  0  0
   25.2499  -22.5193   -9.0603 O   0  0  0  0  0  0  0  0  0  0  0  0
   24.0687  -21.1465   -7.6992 O   0  0  0  0  0  0  0  0  0  0  0  0
  1  2  1  0
  2  3  2  0
  3  4  1  0
  5  4  2  0
  5  6  1  0
  7  6  1  0
  7  8  1  6
  9  7  1  0
  9 13  1  0
 10  9  2  0
 11  5  1  0
 12  2  1  0
 12 11  2  0
 13 14  1  0
 14 15  1  0
 16 15  1  0
 17 13  1  0
 17 16  1  0
 17 18  1  1
 19 18  2  0
 20 21  1  0
 22 21  1  6
 22 24  1  0
 22 23  1  0
 23 18  1  0
 24 26  1  0
 25 24  2  0
M  END
$$$$
