YPS.pdb
     RDKit          3D

 26 27  0  0  1  0  0  0  0  0999 V2000
   19.6662  -20.8846  -18.3333 O   0  0  0  0  0  0  0  0  0  0  0  0
   20.1900  -21.2259  -17.1021 C   0  0  0  0  0  0  0  0  0  0  0  0
   19.3561  -21.2635  -15.9881 C   0  0  0  0  0  0  0  0  0  0  0  0
   19.9289  -21.6096  -14.7853 C   0  0  0  0  0  0  0  0  0  0  0  0
   21.2741  -21.9187  -14.6246 C   0  0  0  0  0  0  0  0  0  0  0  0
   21.8480  -22.2977  -13.3220 C   0  0  0  0  0  0  0  0  0  0  0  0
   22.1449  -21.0828  -12.4592 C   0  0  2  0  0  0  0  0  0  0  0  0
   20.9418  -20.3324  -12.2940 N   0  0  0  0  0  0  0  0  0  0  0  0
   23.3211  -20.3510  -12.9350 C   0  0  0  0  0  0  0  0  0  0  0  0
   23.0113  -19.4041  -13.7637 O   0  0  0  0  0  0  0  0  0  0  0  0
   22.0473  -21.8588  -15.7908 C   0  0  0  0  0  0  0  0  0  0  0  0
   21.5252  -21.5225  -16.9972 C   0  0  0  0  0  0  0  0  0  0  0  0
   24.6700  -20.5202  -12.6361 N   0  0  0  0  0  0  0  0  0  0  0  0
   25.2453  -20.5706  -11.2586 C   0  0  0  0  0  0  0  0  0  0  0  0
   25.9295  -21.9327  -11.3616 C   0  0  0  0  0  0  0  0  0  0  0  0
   26.3038  -22.0766  -12.8469 C   0  0  0  0  0  0  0  0  0  0  0  0
   25.8800  -20.7126  -13.3854 C   0  0  1  0  0  0  0  0  0  0  0  0
   25.9067  -20.6097  -14.8104 C   0  0  0  0  0  0  0  0  0  0  0  0
   25.4357  -21.4380  -15.6178 O   0  0  0  0  0  0  0  0  0  0  0  0
   25.2575  -17.3561  -16.6258 O   0  0  0  0  0  0  0  0  0  0  0  0
   26.4334  -17.8270  -17.1741 C   0  0  0  0  0  0  0  0  0  0  0  0
   26.6142  -19.3161  -16.8703 C   0  0  2  0  0  0  0  0  0  0  0  0
   26.5225  -19.4632  -15.4487 N   0  0  0  0  0  0  0  0  0  0  0  0
   27.8416  -19.8470  -17.4476 C   0  0  0  0  0  0  0  0  0  0  0  0
   28.9062  -19.8281  -16.7959 O   0  0  0  0  0  0  0  0  0  0  0  0
   27.8458  -20.3778  -18.7209 O   0  0  0  0  0  0  0  0  0  0  0  0
  1  2  1  0
  2  3  2  0
  3  4  1  0
  5  4  2  0
  5  6  1  0
  7  6  1  0
  7  8  1  6
  9  7  1  0
  9 13  1  0
 10  9  2  0
 11  5  1  0
 12  2  1  0
 12 11  2  0
 13 14  1  0
 14 15  1  0
 16 15  1  0
 17 13  1  0
 17 16  1  0
 17 18  1  6
 19 18  2  0
 20 21  1  0
 22 21  1  1
 22 24  1  0
 22 23  1  0
 23 18  1  0
 24 26  1  0
 25 24  2  0
M  END
$$$$
