YPS.pdb
     RDKit          3D

 26 27  0  0  1  0  0  0  0  0999 V2000
   17.3239  -22.7416  -11.4577 O   0  0  0  0  0  0  0  0  0  0  0  0
   18.5552  -22.4469  -12.0085 C   0  0  0  0  0  0  0  0  0  0  0  0
   19.6499  -22.2438  -11.1730 C   0  0  0  0  0  0  0  0  0  0  0  0
   20.8538  -21.9528  -11.7734 C   0  0  0  0  0  0  0  0  0  0  0  0
   21.0336  -21.8523  -13.1476 C   0  0  0  0  0  0  0  0  0  0  0  0
   22.3420  -21.5519  -13.7539 C   0  0  0  0  0  0  0  0  0  0  0  0
   22.7116  -20.0856  -13.6050 C   0  0  2  0  0  0  0  0  0  0  0  0
   21.7001  -19.2922  -14.2258 N   0  0  0  0  0  0  0  0  0  0  0  0
   24.0955  -19.8287  -14.0102 C   0  0  0  0  0  0  0  0  0  0  0  0
   24.1694  -19.1404  -15.1057 O   0  0  0  0  0  0  0  0  0  0  0  0
   19.8862  -22.0700  -13.9207 C   0  0  0  0  0  0  0  0  0  0  0  0
   18.6794  -22.3591  -13.3719 C   0  0  0  0  0  0  0  0  0  0  0  0
   25.2946  -20.2031  -13.4107 N   0  0  0  0  0  0  0  0  0  0  0  0
   25.5619  -20.1893  -11.9412 C   0  0  0  0  0  0  0  0  0  0  0  0
   25.9608  -21.6554  -11.7820 C   0  0  0  0  0  0  0  0  0  0  0  0
   26.5856  -22.0449  -13.1329 C   0  0  0  0  0  0  0  0  0  0  0  0
   26.5644  -20.7024  -13.8590 C   0  0  1  0  0  0  0  0  0  0  0  0
   26.8943  -20.7804  -15.2472 C   0  0  0  0  0  0  0  0  0  0  0  0
   26.4448  -21.6096  -16.0659 O   0  0  0  0  0  0  0  0  0  0  0  0
   29.7135  -18.7438  -18.7022 O   0  0  0  0  0  0  0  0  0  0  0  0
   29.3059  -18.8063  -17.3850 C   0  0  0  0  0  0  0  0  0  0  0  0
   28.2659  -19.9125  -17.1921 C   0  0  2  0  0  0  0  0  0  0  0  0
   27.8326  -19.8411  -15.8290 N   0  0  0  0  0  0  0  0  0  0  0  0
   28.7758  -21.2180  -17.5889 C   0  0  0  0  0  0  0  0  0  0  0  0
   29.4586  -21.8976  -16.7949 O   0  0  0  0  0  0  0  0  0  0  0  0
   28.5123  -21.7219  -18.8459 O   0  0  0  0  0  0  0  0  0  0  0  0
  1  2  1  0
  2  3  2  0
  3  4  1  0
  5  4  2  0
  5  6  1  0
  7  6  1  0
  7  8  1  6
  9  7  1  0
  9 13  1  0
 10  9  2  0
 11  5  1  0
 12  2  1  0
 12 11  2  0
 13 14  1  0
 14 15  1  0
 16 15  1  0
 17 13  1  0
 17 16  1  0
 17 18  1  6
 19 18  2  0
 20 21  1  0
 22 21  1  1
 22 24  1  0
 22 23  1  0
 23 18  1  0
 24 26  1  0
 25 24  2  0
M  END
$$$$
