YPS.pdb
     RDKit          3D

 26 27  0  0  1  0  0  0  0  0999 V2000
   22.2182  -17.3673  -17.6541 O   0  0  0  0  0  0  0  0  0  0  0  0
   22.5884  -17.8736  -16.4241 C   0  0  0  0  0  0  0  0  0  0  0  0
   21.6527  -18.5590  -15.6543 C   0  0  0  0  0  0  0  0  0  0  0  0
   22.0737  -19.0431  -14.4365 C   0  0  0  0  0  0  0  0  0  0  0  0
   23.3624  -18.8872  -13.9407 C   0  0  0  0  0  0  0  0  0  0  0  0
   23.7792  -19.4316  -12.6370 C   0  0  0  0  0  0  0  0  0  0  0  0
   24.4783  -20.7730  -12.7811 C   0  0  2  0  0  0  0  0  0  0  0  0
   23.5456  -21.7236  -13.2952 N   0  0  0  0  0  0  0  0  0  0  0  0
   25.1986  -21.1457  -11.5615 C   0  0  0  0  0  0  0  0  0  0  0  0
   24.4014  -21.3503  -10.5605 O   0  0  0  0  0  0  0  0  0  0  0  0
   24.2451  -18.1872  -14.7727 C   0  0  0  0  0  0  0  0  0  0  0  0
   23.8738  -17.6925  -15.9804 C   0  0  0  0  0  0  0  0  0  0  0  0
   26.5624  -21.3055  -11.3330 N   0  0  0  0  0  0  0  0  0  0  0  0
   27.5083  -22.0192  -12.2424 C   0  0  0  0  0  0  0  0  0  0  0  0
   28.5012  -20.8782  -12.4573 C   0  0  0  0  0  0  0  0  0  0  0  0
   28.4431  -20.0529  -11.1602 C   0  0  0  0  0  0  0  0  0  0  0  0
   27.4959  -20.9038  -10.3183 C   0  0  1  0  0  0  0  0  0  0  0  0
   27.0672  -20.2805   -9.1060 C   0  0  0  0  0  0  0  0  0  0  0  0
   26.4035  -19.2265   -9.0142 O   0  0  0  0  0  0  0  0  0  0  0  0
   27.5479  -20.4741   -4.2429 O   0  0  0  0  0  0  0  0  0  0  0  0
   27.4685  -21.1221   -5.4590 C   0  0  0  0  0  0  0  0  0  0  0  0
   27.4707  -20.1141   -6.6107 C   0  0  2  0  0  0  0  0  0  0  0  0
   27.3979  -20.8711   -7.8242 N   0  0  0  0  0  0  0  0  0  0  0  0
   28.6074  -19.2061   -6.5406 C   0  0  0  0  0  0  0  0  0  0  0  0
   29.6744  -19.4828   -7.1268 O   0  0  0  0  0  0  0  0  0  0  0  0
   28.5220  -18.0286   -5.8267 O   0  0  0  0  0  0  0  0  0  0  0  0
  1  2  1  0
  2  3  2  0
  3  4  1  0
  5  4  2  0
  5  6  1  0
  7  6  1  0
  7  8  1  1
  9  7  1  0
  9 13  1  0
 10  9  2  0
 11  5  1  0
 12  2  1  0
 12 11  2  0
 13 14  1  0
 14 15  1  0
 16 15  1  0
 17 13  1  0
 17 16  1  0
 17 18  1  1
 19 18  2  0
 20 21  1  0
 22 21  1  1
 22 24  1  0
 22 23  1  0
 23 18  1  0
 24 26  1  0
 25 24  2  0
M  END
$$$$
