YPS.pdb
     RDKit          3D

 26 27  0  0  1  0  0  0  0  0999 V2000
   19.3789  -12.9504  -16.7933 O   0  0  0  0  0  0  0  0  0  0  0  0
   20.0888  -14.1253  -16.6445 C   0  0  0  0  0  0  0  0  0  0  0  0
   19.6751  -15.2678  -17.3239 C   0  0  0  0  0  0  0  0  0  0  0  0
   20.4179  -16.4120  -17.1405 C   0  0  0  0  0  0  0  0  0  0  0  0
   21.5415  -16.4880  -16.3265 C   0  0  0  0  0  0  0  0  0  0  0  0
   22.3189  -17.7287  -16.1658 C   0  0  0  0  0  0  0  0  0  0  0  0
   23.6611  -17.6515  -16.8740 C   0  0  2  0  0  0  0  0  0  0  0  0
   23.4333  -17.5655  -18.2806 N   0  0  0  0  0  0  0  0  0  0  0  0
   24.5800  -18.6956  -16.4152 C   0  0  0  0  0  0  0  0  0  0  0  0
   24.1310  -19.8878  -16.6534 O   0  0  0  0  0  0  0  0  0  0  0  0
   21.8942  -15.2981  -15.6775 C   0  0  0  0  0  0  0  0  0  0  0  0
   21.1914  -14.1473  -15.8287 C   0  0  0  0  0  0  0  0  0  0  0  0
   25.8172  -18.5947  -15.7854 N   0  0  0  0  0  0  0  0  0  0  0  0
   27.0283  -17.9443  -16.3694 C   0  0  0  0  0  0  0  0  0  0  0  0
   27.2859  -16.9312  -15.2552 C   0  0  0  0  0  0  0  0  0  0  0  0
   26.7590  -17.6057  -13.9768 C   0  0  0  0  0  0  0  0  0  0  0  0
   26.3665  -18.9791  -14.5153 C   0  0  1  0  0  0  0  0  0  0  0  0
   25.6324  -19.7844  -13.5909 C   0  0  0  0  0  0  0  0  0  0  0  0
   24.5677  -19.4665  -13.0205 O   0  0  0  0  0  0  0  0  0  0  0  0
   25.8496  -23.9989  -11.0966 O   0  0  0  0  0  0  0  0  0  0  0  0
   26.2998  -23.2071  -12.1336 C   0  0  0  0  0  0  0  0  0  0  0  0
   25.5929  -21.8497  -12.1246 C   0  0  2  0  0  0  0  0  0  0  0  0
   26.1091  -21.1060  -13.2343 N   0  0  0  0  0  0  0  0  0  0  0  0
   25.7227  -21.1739  -10.8408 C   0  0  0  0  0  0  0  0  0  0  0  0
   24.8480  -21.3147   -9.9612 O   0  0  0  0  0  0  0  0  0  0  0  0
   26.8125  -20.3697  -10.5781 O   0  0  0  0  0  0  0  0  0  0  0  0
  1  2  1  0
  2  3  2  0
  3  4  1  0
  5  4  2  0
  5  6  1  0
  7  6  1  0
  7  8  1  6
  9  7  1  0
  9 13  1  0
 10  9  2  0
 11  5  1  0
 12  2  1  0
 12 11  2  0
 13 14  1  0
 14 15  1  0
 16 15  1  0
 17 13  1  0
 17 16  1  0
 17 18  1  1
 19 18  2  0
 20 21  1  0
 22 21  1  1
 22 24  1  0
 22 23  1  0
 23 18  1  0
 24 26  1  0
 25 24  2  0
M  END
$$$$
