VVI.pdb
     RDKit          3D

 23 22  0  0  1  0  0  0  0  0999 V2000
   21.3309  -20.9671  -10.4272 C   0  0  0  0  0  0  0  0  0  0  0  0
   22.0293  -19.9477  -11.3457 C   0  0  2  0  0  0  0  0  0  0  0  0
   20.9337  -19.5146  -12.3245 C   0  0  0  0  0  0  0  0  0  0  0  0
   23.0812  -20.6866  -12.0823 C   0  0  2  0  0  0  0  0  0  0  0  0
   22.5677  -21.7340  -12.9405 N   0  0  0  0  0  0  0  0  0  0  0  0
   24.2078  -21.1789  -11.2552 C   0  0  0  0  0  0  0  0  0  0  0  0
   24.2234  -22.3036  -10.7135 O   0  0  0  0  0  0  0  0  0  0  0  0
   27.8412  -21.4239  -12.2886 C   0  0  0  0  0  0  0  0  0  0  0  0
   27.8018  -20.7259  -10.9683 C   0  0  2  0  0  0  0  0  0  0  0  0
   28.8915  -21.3881  -10.1099 C   0  0  0  0  0  0  0  0  0  0  0  0
   26.4971  -20.7475  -10.2640 C   0  0  2  0  0  0  0  0  0  0  0  0
   25.3465  -20.3589  -11.0448 N   0  0  0  0  0  0  0  0  0  0  0  0
   26.5229  -20.1176   -8.9255 C   0  0  0  0  0  0  0  0  0  0  0  0
   25.9207  -19.0504   -8.6303 O   0  0  0  0  0  0  0  0  0  0  0  0
   28.6998  -21.4487   -3.2480 C   0  0  0  0  0  0  0  0  0  0  0  0
   27.9250  -20.5266   -4.1565 C   0  0  0  0  0  0  0  0  0  0  0  0
   27.9242  -20.9936   -5.5670 C   0  0  2  0  0  0  0  0  0  0  0  0
   29.3573  -21.3704   -5.9113 C   0  0  0  0  0  0  0  0  0  0  0  0
   27.3294  -20.0421   -6.5390 C   0  0  2  0  0  0  0  0  0  0  0  0
   27.2518  -20.7023   -7.8608 N   0  0  0  0  0  0  0  0  0  0  0  0
   28.0583  -18.7569   -6.6591 C   0  0  0  0  0  0  0  0  0  0  0  0
   28.9515  -18.6187   -7.5505 O   0  0  0  0  0  0  0  0  0  0  0  0
   27.8100  -17.6813   -5.8358 O   0  0  0  0  0  0  0  0  0  0  0  0
  2  3  1  6
  2  1  1  0
  4  5  1  1
  4  2  1  0
  6  4  1  0
  7  6  2  0
  9  8  1  6
  9 11  1  0
 10  9  1  0
 11 12  1  6
 12  6  1  0
 13 11  1  0
 13 20  1  0
 14 13  2  0
 15 16  1  0
 16 17  1  0
 17 19  1  0
 17 18  1  6
 19 20  1  6
 19 21  1  0
 21 23  1  0
 22 21  2  0
M  END
$$$$
