VVI.pdb
     RDKit          3D

 23 22  0  0  1  0  0  0  0  0999 V2000
   21.8165  -20.9797  -10.8660 C   0  0  0  0  0  0  0  0  0  0  0  0
   22.5456  -19.9507  -11.7493 C   0  0  2  0  0  0  0  0  0  0  0  0
   21.4888  -19.5189  -12.7702 C   0  0  0  0  0  0  0  0  0  0  0  0
   23.6320  -20.6788  -12.4456 C   0  0  2  0  0  0  0  0  0  0  0  0
   23.1622  -21.7365  -13.3160 N   0  0  0  0  0  0  0  0  0  0  0  0
   24.7357  -21.1525  -11.5779 C   0  0  0  0  0  0  0  0  0  0  0  0
   24.7917  -22.3063  -11.1045 O   0  0  0  0  0  0  0  0  0  0  0  0
   28.4777  -21.2187  -12.2153 C   0  0  0  0  0  0  0  0  0  0  0  0
   28.2537  -20.5161  -10.9161 C   0  0  2  0  0  0  0  0  0  0  0  0
   29.2871  -21.0993   -9.9390 C   0  0  0  0  0  0  0  0  0  0  0  0
   26.8859  -20.6190  -10.3526 C   0  0  2  0  0  0  0  0  0  0  0  0
   25.8033  -20.2790  -11.2453 N   0  0  0  0  0  0  0  0  0  0  0  0
   26.7380  -20.0114   -9.0118 C   0  0  0  0  0  0  0  0  0  0  0  0
   26.0510  -18.9829   -8.7693 O   0  0  0  0  0  0  0  0  0  0  0  0
   28.4881  -21.2436   -3.1656 C   0  0  0  0  0  0  0  0  0  0  0  0
   27.8629  -20.2901   -4.1534 C   0  0  0  0  0  0  0  0  0  0  0  0
   27.9072  -20.8096   -5.5448 C   0  0  2  0  0  0  0  0  0  0  0  0
   29.3473  -21.2135   -5.8228 C   0  0  0  0  0  0  0  0  0  0  0  0
   27.3585  -19.8891   -6.5722 C   0  0  2  0  0  0  0  0  0  0  0  0
   27.3829  -20.5746   -7.8832 N   0  0  0  0  0  0  0  0  0  0  0  0
   28.0666  -18.5905   -6.6688 C   0  0  0  0  0  0  0  0  0  0  0  0
   27.7211  -17.6259   -5.9194 O   0  0  0  0  0  0  0  0  0  0  0  0
   29.1035  -18.3723   -7.5484 O   0  0  0  0  0  0  0  0  0  0  0  0
  2  3  1  6
  2  1  1  0
  4  5  1  1
  4  2  1  0
  6  4  1  0
  7  6  2  0
  9  8  1  6
  9 11  1  0
 10  9  1  0
 11 12  1  6
 12  6  1  0
 13 11  1  0
 13 20  1  0
 14 13  2  0
 15 16  1  0
 16 17  1  0
 17 19  1  0
 17 18  1  6
 19 20  1  6
 19 21  1  0
 21 23  1  0
 22 21  2  0
M  END
$$$$
