VVI.pdb
     RDKit          3D

 23 22  0  0  1  0  0  0  0  0999 V2000
   19.3666  -21.0214  -14.0193 C   0  0  0  0  0  0  0  0  0  0  0  0
   20.0484  -19.6887  -13.6591 C   0  0  2  0  0  0  0  0  0  0  0  0
   19.9572  -18.8625  -14.9455 C   0  0  0  0  0  0  0  0  0  0  0  0
   21.4689  -19.9985  -13.3745 C   0  0  2  0  0  0  0  0  0  0  0  0
   22.2042  -20.4794  -14.5258 N   0  0  0  0  0  0  0  0  0  0  0  0
   21.7058  -20.8599  -12.1924 C   0  0  0  0  0  0  0  0  0  0  0  0
   21.6983  -22.1075  -12.2378 O   0  0  0  0  0  0  0  0  0  0  0  0
   24.4851  -20.4725   -9.2276 C   0  0  0  0  0  0  0  0  0  0  0  0
   23.0799  -20.5313   -8.7239 C   0  0  2  0  0  0  0  0  0  0  0  0
   23.1164  -21.4336   -7.4800 C   0  0  0  0  0  0  0  0  0  0  0  0
   22.0659  -21.0161   -9.6913 C   0  0  2  0  0  0  0  0  0  0  0  0
   21.9582  -20.2739  -10.9250 N   0  0  0  0  0  0  0  0  0  0  0  0
   20.7503  -21.3194   -9.0860 C   0  0  0  0  0  0  0  0  0  0  0  0
   19.8517  -20.4619   -8.8719 O   0  0  0  0  0  0  0  0  0  0  0  0
   17.3184  -24.1209  -11.2316 C   0  0  0  0  0  0  0  0  0  0  0  0
   17.9732  -23.1541  -10.2764 C   0  0  0  0  0  0  0  0  0  0  0  0
   18.3160  -23.7889   -8.9775 C   0  0  2  0  0  0  0  0  0  0  0  0
   17.0108  -24.2636   -8.3566 C   0  0  0  0  0  0  0  0  0  0  0  0
   19.1152  -22.9390   -8.0593 C   0  0  2  0  0  0  0  0  0  0  0  0
   20.4144  -22.6407   -8.7011 N   0  0  0  0  0  0  0  0  0  0  0  0
   19.3388  -23.5313   -6.7190 C   0  0  0  0  0  0  0  0  0  0  0  0
   20.3501  -24.2714   -6.5166 O   0  0  0  0  0  0  0  0  0  0  0  0
   18.4876  -23.3141   -5.6584 O   0  0  0  0  0  0  0  0  0  0  0  0
  2  3  1  6
  2  1  1  0
  4  5  1  6
  4  2  1  0
  6  4  1  0
  7  6  2  0
  9  8  1  6
  9 11  1  0
 10  9  1  0
 11 12  1  6
 12  6  1  0
 13 11  1  0
 13 20  1  0
 14 13  2  0
 15 16  1  0
 16 17  1  0
 17 19  1  0
 17 18  1  1
 19 20  1  6
 19 21  1  0
 21 23  1  0
 22 21  2  0
M  END
$$$$
