VVI.pdb
     RDKit          3D

 23 22  0  0  1  0  0  0  0  0999 V2000
   30.0505  -21.8299  -16.7599 C   0  0  0  0  0  0  0  0  0  0  0  0
   29.1719  -23.0735  -16.5319 C   0  0  2  0  0  0  0  0  0  0  0  0
   29.8943  -24.1868  -17.2965 C   0  0  0  0  0  0  0  0  0  0  0  0
   27.8678  -22.7999  -17.1794 C   0  0  2  0  0  0  0  0  0  0  0  0
   27.9627  -22.5520  -18.6030 N   0  0  0  0  0  0  0  0  0  0  0  0
   27.0320  -21.7735  -16.5136 C   0  0  0  0  0  0  0  0  0  0  0  0
   27.4123  -20.6016  -16.3122 O   0  0  0  0  0  0  0  0  0  0  0  0
   23.9504  -19.9059  -17.3227 C   0  0  0  0  0  0  0  0  0  0  0  0
   23.6690  -20.7078  -16.0941 C   0  0  2  0  0  0  0  0  0  0  0  0
   22.8010  -19.8113  -15.1965 C   0  0  0  0  0  0  0  0  0  0  0  0
   24.8577  -21.1944  -15.3531 C   0  0  2  0  0  0  0  0  0  0  0  0
   25.7253  -22.1007  -16.0676 N   0  0  0  0  0  0  0  0  0  0  0  0
   24.5671  -21.6441  -13.9738 C   0  0  0  0  0  0  0  0  0  0  0  0
   24.0556  -22.7586  -13.6825 O   0  0  0  0  0  0  0  0  0  0  0  0
   26.4035  -20.5132   -8.2311 C   0  0  0  0  0  0  0  0  0  0  0  0
   25.3581  -21.1180   -9.1350 C   0  0  0  0  0  0  0  0  0  0  0  0
   25.5641  -20.7520  -10.5602 C   0  0  2  0  0  0  0  0  0  0  0  0
   25.7450  -19.2422  -10.6096 C   0  0  0  0  0  0  0  0  0  0  0  0
   24.5109  -21.2366  -11.4875 C   0  0  2  0  0  0  0  0  0  0  0  0
   24.8609  -20.8165  -12.8623 N   0  0  0  0  0  0  0  0  0  0  0  0
   23.1428  -20.7751  -11.1519 C   0  0  0  0  0  0  0  0  0  0  0  0
   22.7403  -19.6430  -11.5613 O   0  0  0  0  0  0  0  0  0  0  0  0
   22.2665  -21.5285  -10.4029 O   0  0  0  0  0  0  0  0  0  0  0  0
  2  3  1  6
  2  1  1  0
  4  5  1  6
  4  2  1  0
  6  4  1  0
  7  6  2  0
  9  8  1  6
  9 11  1  0
 10  9  1  0
 11 12  1  6
 12  6  1  0
 13 11  1  0
 13 20  1  0
 14 13  2  0
 15 16  1  0
 16 17  1  0
 17 19  1  0
 17 18  1  1
 19 20  1  6
 19 21  1  0
 21 23  1  0
 22 21  2  0
M  END
$$$$
