VVI.pdb
     RDKit          3D

 23 22  0  0  1  0  0  0  0  0999 V2000
   11.3990  -11.5567   -9.9311 C   0  0  0  0  0  0  0  0  0  0  0  0
   11.4346  -11.8736  -11.4373 C   0  0  2  0  0  0  0  0  0  0  0  0
   10.3648  -12.9548  -11.6171 C   0  0  0  0  0  0  0  0  0  0  0  0
   12.7689  -12.4516  -11.7211 C   0  0  2  0  0  0  0  0  0  0  0  0
   12.9825  -13.7516  -11.1200 N   0  0  0  0  0  0  0  0  0  0  0  0
   13.9175  -11.5508  -11.4664 C   0  0  0  0  0  0  0  0  0  0  0  0
   14.6659  -11.6545  -10.4725 O   0  0  0  0  0  0  0  0  0  0  0  0
   17.0253  -10.6758  -13.6301 C   0  0  0  0  0  0  0  0  0  0  0  0
   16.2533   -9.4367  -13.3128 C   0  0  2  0  0  0  0  0  0  0  0  0
   17.3017   -8.3536  -13.0120 C   0  0  0  0  0  0  0  0  0  0  0  0
   15.2821   -9.5476  -12.1977 C   0  0  2  0  0  0  0  0  0  0  0  0
   14.2151  -10.5037  -12.3766 N   0  0  0  0  0  0  0  0  0  0  0  0
   14.8069   -8.2460  -11.6792 C   0  0  0  0  0  0  0  0  0  0  0  0
   13.8041   -7.6264  -12.1253 O   0  0  0  0  0  0  0  0  0  0  0  0
   13.5991   -5.4911   -6.6169 C   0  0  0  0  0  0  0  0  0  0  0  0
   14.1161   -5.2319   -8.0102 C   0  0  0  0  0  0  0  0  0  0  0  0
   14.5505   -6.4785   -8.6921 C   0  0  2  0  0  0  0  0  0  0  0  0
   15.6069   -7.1238   -7.8076 C   0  0  0  0  0  0  0  0  0  0  0  0
   15.0052   -6.2972  -10.0936 C   0  0  2  0  0  0  0  0  0  0  0  0
   15.4767   -7.6007  -10.6106 N   0  0  0  0  0  0  0  0  0  0  0  0
   16.0642   -5.2740  -10.2642 C   0  0  0  0  0  0  0  0  0  0  0  0
   17.2843   -5.6240  -10.2746 O   0  0  0  0  0  0  0  0  0  0  0  0
   15.7859   -3.9338  -10.4162 O   0  0  0  0  0  0  0  0  0  0  0  0
  2  3  1  1
  2  1  1  0
  4  5  1  1
  4  2  1  0
  6  4  1  0
  7  6  2  0
  9  8  1  1
  9 11  1  0
 10  9  1  0
 11 12  1  6
 12  6  1  0
 13 11  1  0
 13 20  1  0
 14 13  2  0
 15 16  1  0
 16 17  1  0
 17 19  1  0
 17 18  1  1
 19 20  1  1
 19 21  1  0
 21 23  1  0
 22 21  2  0
M  END
$$$$
