SYM.pdb
     RDKit          3D

 27 27  0  0  1  0  0  0  0  0999 V2000
   23.7020  -10.3041  -19.6185 O   0  0  0  0  0  0  0  0  0  0  0  0
   22.7222   -9.6225  -18.8988 C   0  0  0  0  0  0  0  0  0  0  0  0
   22.3149  -10.4273  -17.6571 C   0  0  2  0  0  0  0  0  0  0  0  0
   21.6522  -11.6027  -18.1117 N   0  0  0  0  0  0  0  0  0  0  0  0
   21.4217   -9.5664  -16.8081 C   0  0  0  0  0  0  0  0  0  0  0  0
   20.1852   -9.5374  -17.0343 O   0  0  0  0  0  0  0  0  0  0  0  0
   18.1999   -5.9002   -9.4689 O   0  0  0  0  0  0  0  0  0  0  0  0
   18.9747   -6.4770  -10.4650 C   0  0  0  0  0  0  0  0  0  0  0  0
   18.4603   -7.3887  -11.3579 C   0  0  0  0  0  0  0  0  0  0  0  0
   19.2357   -7.9579  -12.3450 C   0  0  0  0  0  0  0  0  0  0  0  0
   20.5897   -7.6340  -12.4868 C   0  0  0  0  0  0  0  0  0  0  0  0
   21.3745   -8.2930  -13.5330 C   0  0  0  0  0  0  0  0  0  0  0  0
   21.1124   -7.8967  -14.9391 C   0  0  2  0  0  0  0  0  0  0  0  0
   21.9546   -8.7937  -15.7641 N   0  0  0  0  0  0  0  0  0  0  0  0
   21.5051   -6.5114  -15.2494 C   0  0  0  0  0  0  0  0  0  0  0  0
   22.7705   -6.2738  -15.2688 O   0  0  0  0  0  0  0  0  0  0  0  0
   21.0784   -6.7202  -11.5815 C   0  0  0  0  0  0  0  0  0  0  0  0
   20.3046   -6.1493  -10.5930 C   0  0  0  0  0  0  0  0  0  0  0  0
   20.0414    0.3893  -18.8083 C   0  0  0  0  0  0  0  0  0  0  0  0
   19.4564   -1.1996  -18.2168 S   0  0  0  0  0  0  0  0  0  0  0  0
   20.5946   -1.9914  -17.0884 C   0  0  0  0  0  0  0  0  0  0  0  0
   20.2976   -3.3850  -16.7128 C   0  0  0  0  0  0  0  0  0  0  0  0
   21.2324   -4.1114  -15.7796 C   0  0  2  0  0  0  0  0  0  0  0  0
   20.6342   -5.4424  -15.5284 N   0  0  0  0  0  0  0  0  0  0  0  0
   21.4195   -3.3976  -14.5222 C   0  0  0  0  0  0  0  0  0  0  0  0
   22.4363   -2.6889  -14.3356 O   0  0  0  0  0  0  0  0  0  0  0  0
   20.5244   -3.4254  -13.4401 O   0  0  0  0  0  0  0  0  0  0  0  0
  2  1  1  0
  3  2  1  0
  3  5  1  0
  3  4  1  6
  5  6  2  0
  8  7  1  0
  8 18  2  0
  9  8  1  0
 10  9  2  0
 10 11  1  0
 11 17  2  0
 13 12  1  1
 12 11  1  0
 14  5  1  0
 14 13  1  0
 15 24  1  0
 15 13  1  0
 16 15  2  0
 17 18  1  0
 20 21  1  0
 20 19  1  0
 21 22  1  0
 23 24  1  0
 23 22  1  6
 25 23  1  0
 26 25  2  0
 27 25  1  0
M  END
$$$$
