SYM.pdb
     RDKit          3D

 27 27  0  0  1  0  0  0  0  0999 V2000
   30.4102  -21.6211  -19.2021 O   0  0  0  0  0  0  0  0  0  0  0  0
   29.6598  -22.2108  -18.1864 C   0  0  0  0  0  0  0  0  0  0  0  0
   28.3154  -21.4877  -18.0271 C   0  0  2  0  0  0  0  0  0  0  0  0
   28.5814  -20.0890  -18.0426 N   0  0  0  0  0  0  0  0  0  0  0  0
   27.6908  -21.9309  -16.7337 C   0  0  0  0  0  0  0  0  0  0  0  0
   27.5337  -23.1573  -16.5051 O   0  0  0  0  0  0  0  0  0  0  0  0
   24.4528  -20.6937   -8.4187 O   0  0  0  0  0  0  0  0  0  0  0  0
   25.0563  -20.6259   -9.6663 C   0  0  0  0  0  0  0  0  0  0  0  0
   26.0711  -21.4778  -10.0367 C   0  0  0  0  0  0  0  0  0  0  0  0
   26.6663  -21.4048  -11.2777 C   0  0  0  0  0  0  0  0  0  0  0  0
   26.2646  -20.4559  -12.2247 C   0  0  0  0  0  0  0  0  0  0  0  0
   26.9534  -20.4019  -13.5160 C   0  0  0  0  0  0  0  0  0  0  0  0
   26.5403  -21.3783  -14.5548 C   0  0  2  0  0  0  0  0  0  0  0  0
   27.2805  -20.9885  -15.7773 N   0  0  0  0  0  0  0  0  0  0  0  0
   25.1031  -21.3339  -14.8744 C   0  0  0  0  0  0  0  0  0  0  0  0
   24.7116  -20.3293  -15.5783 O   0  0  0  0  0  0  0  0  0  0  0  0
   25.2484  -19.6169  -11.8288 C   0  0  0  0  0  0  0  0  0  0  0  0
   24.6514  -19.6880  -10.5876 C   0  0  0  0  0  0  0  0  0  0  0  0
   18.1473  -24.8586  -16.1239 C   0  0  0  0  0  0  0  0  0  0  0  0
   19.8718  -24.9464  -15.6389 S   0  0  0  0  0  0  0  0  0  0  0  0
   20.6033  -23.3406  -15.3519 C   0  0  0  0  0  0  0  0  0  0  0  0
   22.0500  -23.3087  -15.0739 C   0  0  0  0  0  0  0  0  0  0  0  0
   22.7187  -21.9854  -14.8017 C   0  0  2  0  0  0  0  0  0  0  0  0
   24.1359  -22.2804  -14.4901 N   0  0  0  0  0  0  0  0  0  0  0  0
   22.0967  -21.2723  -13.6925 C   0  0  0  0  0  0  0  0  0  0  0  0
   21.3281  -20.3056  -13.9059 O   0  0  0  0  0  0  0  0  0  0  0  0
   22.2821  -21.5780  -12.3342 O   0  0  0  0  0  0  0  0  0  0  0  0
  2  1  1  0
  3  2  1  0
  3  5  1  0
  3  4  1  1
  5  6  2  0
  8  7  1  0
  8 18  2  0
  9  8  1  0
 10  9  2  0
 10 11  1  0
 11 17  2  0
 13 12  1  1
 12 11  1  0
 14  5  1  0
 14 13  1  0
 15 24  1  0
 15 13  1  0
 16 15  2  0
 17 18  1  0
 20 21  1  0
 20 19  1  0
 21 22  1  0
 23 24  1  0
 23 22  1  1
 25 23  1  0
 26 25  2  0
 27 25  1  0
M  END
$$$$
