SYM.pdb
     RDKit          3D

 27 27  0  0  1  0  0  0  0  0999 V2000
   22.9783  -14.0496  -18.3576 O   0  0  0  0  0  0  0  0  0  0  0  0
   22.3481  -13.9274  -19.5946 C   0  0  0  0  0  0  0  0  0  0  0  0
   23.2887  -13.2642  -20.6099 C   0  0  2  0  0  0  0  0  0  0  0  0
   24.5263  -13.9666  -20.5637 N   0  0  0  0  0  0  0  0  0  0  0  0
   23.4448  -11.8170  -20.2344 C   0  0  0  0  0  0  0  0  0  0  0  0
   24.5824  -11.3678  -19.9428 O   0  0  0  0  0  0  0  0  0  0  0  0
   20.6079   -3.2897  -19.7289 O   0  0  0  0  0  0  0  0  0  0  0  0
   20.7838   -4.6481  -19.9504 C   0  0  0  0  0  0  0  0  0  0  0  0
   19.9017   -5.5889  -19.4711 C   0  0  0  0  0  0  0  0  0  0  0  0
   20.0825   -6.9368  -19.6947 C   0  0  0  0  0  0  0  0  0  0  0  0
   21.1773   -7.4149  -20.4236 C   0  0  0  0  0  0  0  0  0  0  0  0
   21.3377   -8.8595  -20.6037 C   0  0  0  0  0  0  0  0  0  0  0  0
   22.4555   -9.5202  -19.8848 C   0  0  2  0  0  0  0  0  0  0  0  0
   22.3324  -10.9611  -20.2057 N   0  0  0  0  0  0  0  0  0  0  0  0
   22.3826   -9.3850  -18.4198 C   0  0  0  0  0  0  0  0  0  0  0  0
   21.5126  -10.1263  -17.8267 O   0  0  0  0  0  0  0  0  0  0  0  0
   22.0434   -6.4534  -20.8913 C   0  0  0  0  0  0  0  0  0  0  0  0
   21.8646   -5.1042  -20.6688 C   0  0  0  0  0  0  0  0  0  0  0  0
   26.7574  -12.4177  -15.1496 C   0  0  0  0  0  0  0  0  0  0  0  0
   26.2588  -10.7146  -14.8898 S   0  0  0  0  0  0  0  0  0  0  0  0
   24.6874  -10.3198  -15.6452 C   0  0  0  0  0  0  0  0  0  0  0  0
   24.2077   -8.9343  -15.4975 C   0  0  0  0  0  0  0  0  0  0  0  0
   22.9184   -8.5264  -16.1636 C   0  0  2  0  0  0  0  0  0  0  0  0
   23.1712   -8.5357  -17.6225 N   0  0  0  0  0  0  0  0  0  0  0  0
   22.4728   -7.2052  -15.7377 C   0  0  0  0  0  0  0  0  0  0  0  0
   22.6260   -6.2089  -16.4826 O   0  0  0  0  0  0  0  0  0  0  0  0
   21.8541   -6.9220  -14.5089 O   0  0  0  0  0  0  0  0  0  0  0  0
  2  1  1  0
  3  2  1  0
  3  5  1  0
  3  4  1  1
  5  6  2  0
  8  7  1  0
  8 18  2  0
  9  8  1  0
 10  9  2  0
 10 11  1  0
 11 17  2  0
 13 12  1  6
 12 11  1  0
 14  5  1  0
 14 13  1  0
 15 24  1  0
 15 13  1  0
 16 15  2  0
 17 18  1  0
 20 21  1  0
 20 19  1  0
 21 22  1  0
 23 24  1  0
 23 22  1  1
 25 23  1  0
 26 25  2  0
 27 25  1  0
M  END
$$$$
