SYM.pdb
     RDKit          3D

 27 27  0  0  1  0  0  0  0  0999 V2000
   35.5952  -28.4900  -19.4043 O   0  0  0  0  0  0  0  0  0  0  0  0
   34.6486  -28.9558  -18.4934 C   0  0  0  0  0  0  0  0  0  0  0  0
   33.4815  -27.9653  -18.3826 C   0  0  2  0  0  0  0  0  0  0  0  0
   33.9599  -26.8227  -17.6806 N   0  0  0  0  0  0  0  0  0  0  0  0
   32.3531  -28.6438  -17.6573 C   0  0  0  0  0  0  0  0  0  0  0  0
   32.2888  -28.5779  -16.4033 O   0  0  0  0  0  0  0  0  0  0  0  0
   27.2847  -24.0279  -16.7694 O   0  0  0  0  0  0  0  0  0  0  0  0
   27.7048  -25.2760  -17.2065 C   0  0  0  0  0  0  0  0  0  0  0  0
   27.2642  -26.4426  -16.6252 C   0  0  0  0  0  0  0  0  0  0  0  0
   27.6857  -27.6791  -17.0645 C   0  0  0  0  0  0  0  0  0  0  0  0
   28.5862  -27.8075  -18.1279 C   0  0  0  0  0  0  0  0  0  0  0  0
   29.0253  -29.1448  -18.5326 C   0  0  0  0  0  0  0  0  0  0  0  0
   30.1013  -29.7839  -17.7346 C   0  0  2  0  0  0  0  0  0  0  0  0
   31.3693  -29.3511  -18.3665 N   0  0  0  0  0  0  0  0  0  0  0  0
   30.0706  -31.2562  -17.7666 C   0  0  0  0  0  0  0  0  0  0  0  0
   30.4305  -31.8048  -18.8746 O   0  0  0  0  0  0  0  0  0  0  0  0
   29.0106  -26.6259  -18.6910 C   0  0  0  0  0  0  0  0  0  0  0  0
   28.5904  -25.3875  -18.2532 C   0  0  0  0  0  0  0  0  0  0  0  0
   31.4469  -38.2313  -15.8509 C   0  0  0  0  0  0  0  0  0  0  0  0
   31.5284  -36.4420  -15.7596 S   0  0  0  0  0  0  0  0  0  0  0  0
   29.9354  -35.6796  -15.4820 C   0  0  0  0  0  0  0  0  0  0  0  0
   29.8753  -34.2104  -15.5781 C   0  0  0  0  0  0  0  0  0  0  0  0
   29.7642  -33.5651  -16.9359 C   0  0  2  0  0  0  0  0  0  0  0  0
   29.6948  -32.1036  -16.7085 N   0  0  0  0  0  0  0  0  0  0  0  0
   28.5863  -34.0180  -17.6659 C   0  0  0  0  0  0  0  0  0  0  0  0
   28.5656  -35.1488  -18.2060 O   0  0  0  0  0  0  0  0  0  0  0  0
   27.4071  -33.2732  -17.8324 O   0  0  0  0  0  0  0  0  0  0  0  0
  2  1  1  0
  3  2  1  0
  3  5  1  0
  3  4  1  1
  5  6  2  0
  8  7  1  0
  8 18  2  0
  9  8  1  0
 10  9  2  0
 10 11  1  0
 11 17  2  0
 13 12  1  6
 12 11  1  0
 14  5  1  0
 14 13  1  0
 15 24  1  0
 15 13  1  0
 16 15  2  0
 17 18  1  0
 20 21  1  0
 20 19  1  0
 21 22  1  0
 23 24  1  0
 23 22  1  1
 25 23  1  0
 26 25  2  0
 27 25  1  0
M  END
$$$$
