SYM.pdb
     RDKit          3D

 27 27  0  0  1  0  0  0  0  0999 V2000
   29.3855  -22.2405  -15.6018 O   0  0  0  0  0  0  0  0  0  0  0  0
   28.7878  -21.2887  -14.7775 C   0  0  0  0  0  0  0  0  0  0  0  0
   27.3469  -21.0182  -15.2317 C   0  0  2  0  0  0  0  0  0  0  0  0
   27.4123  -20.1352  -16.3468 N   0  0  0  0  0  0  0  0  0  0  0  0
   26.5925  -20.4184  -14.0781 C   0  0  0  0  0  0  0  0  0  0  0  0
   26.5390  -19.1687  -13.9503 O   0  0  0  0  0  0  0  0  0  0  0  0
   19.0270  -18.7629  -10.4364 O   0  0  0  0  0  0  0  0  0  0  0  0
   20.1756  -19.3835  -10.9061 C   0  0  0  0  0  0  0  0  0  0  0  0
   20.6874  -19.1275  -12.1574 C   0  0  0  0  0  0  0  0  0  0  0  0
   21.8289  -19.7475  -12.6177 C   0  0  0  0  0  0  0  0  0  0  0  0
   22.5252  -20.6716  -11.8305 C   0  0  0  0  0  0  0  0  0  0  0  0
   23.7144  -21.3248  -12.3820 C   0  0  0  0  0  0  0  0  0  0  0  0
   25.0304  -20.6932  -12.1132 C   0  0  2  0  0  0  0  0  0  0  0  0
   25.9463  -21.2402  -13.1410 N   0  0  0  0  0  0  0  0  0  0  0  0
   25.5932  -21.0301  -10.7943 C   0  0  0  0  0  0  0  0  0  0  0  0
   25.9196  -22.2630  -10.6175 O   0  0  0  0  0  0  0  0  0  0  0  0
   21.9923  -20.9090  -10.5843 C   0  0  0  0  0  0  0  0  0  0  0  0
   20.8503  -20.2898  -10.1215 C   0  0  0  0  0  0  0  0  0  0  0  0
   29.2811  -19.0862   -4.0687 C   0  0  0  0  0  0  0  0  0  0  0  0
   28.6677  -18.6547   -5.6979 S   0  0  0  0  0  0  0  0  0  0  0  0
   27.5926  -19.9005   -6.3963 C   0  0  0  0  0  0  0  0  0  0  0  0
   27.0744  -19.6476   -7.7524 C   0  0  0  0  0  0  0  0  0  0  0  0
   26.2365  -20.7023   -8.4292 C   0  0  2  0  0  0  0  0  0  0  0  0
   25.8083  -20.1369   -9.7289 N   0  0  0  0  0  0  0  0  0  0  0  0
   25.0729  -21.0751   -7.6338 C   0  0  0  0  0  0  0  0  0  0  0  0
   23.9298  -20.6650   -7.9437 O   0  0  0  0  0  0  0  0  0  0  0  0
   25.1067  -21.8938   -6.4930 O   0  0  0  0  0  0  0  0  0  0  0  0
  2  1  1  0
  3  2  1  0
  3  5  1  0
  3  4  1  6
  5  6  2  0
  8  7  1  0
  8 18  2  0
  9  8  1  0
 10  9  2  0
 10 11  1  0
 11 17  2  0
 13 12  1  6
 12 11  1  0
 14  5  1  0
 14 13  1  0
 15 24  1  0
 15 13  1  0
 16 15  2  0
 17 18  1  0
 20 21  1  0
 20 19  1  0
 21 22  1  0
 23 24  1  0
 23 22  1  1
 25 23  1  0
 26 25  2  0
 27 25  1  0
M  END
$$$$
