SYM.pdb
     RDKit          3D

 27 27  0  0  1  0  0  0  0  0999 V2000
   29.1564  -22.4753  -18.9167 O   0  0  0  0  0  0  0  0  0  0  0  0
   28.0086  -22.6043  -18.1368 C   0  0  0  0  0  0  0  0  0  0  0  0
   28.3830  -22.9428  -16.6875 C   0  0  2  0  0  0  0  0  0  0  0  0
   28.7403  -24.3207  -16.6523 N   0  0  0  0  0  0  0  0  0  0  0  0
   27.1993  -22.6424  -15.8110 C   0  0  0  0  0  0  0  0  0  0  0  0
   26.3668  -23.5493  -15.5552 O   0  0  0  0  0  0  0  0  0  0  0  0
   25.0359  -20.8731   -7.9023 O   0  0  0  0  0  0  0  0  0  0  0  0
   25.3713  -20.6938   -9.2368 C   0  0  0  0  0  0  0  0  0  0  0  0
   26.6528  -20.8794   -9.7017 C   0  0  0  0  0  0  0  0  0  0  0  0
   26.9790  -20.6995  -11.0286 C   0  0  0  0  0  0  0  0  0  0  0  0
   26.0174  -20.3175  -11.9709 C   0  0  0  0  0  0  0  0  0  0  0  0
   26.4258  -20.1093  -13.3618 C   0  0  0  0  0  0  0  0  0  0  0  0
   25.8753  -21.0341  -14.3839 C   0  0  2  0  0  0  0  0  0  0  0  0
   27.0136  -21.3583  -15.2746 N   0  0  0  0  0  0  0  0  0  0  0  0
   24.8171  -20.4375  -15.2170 C   0  0  0  0  0  0  0  0  0  0  0  0
   25.1974  -19.5340  -16.0518 O   0  0  0  0  0  0  0  0  0  0  0  0
   24.7446  -20.1388  -11.4796 C   0  0  0  0  0  0  0  0  0  0  0  0
   24.4158  -20.3182  -10.1524 C   0  0  0  0  0  0  0  0  0  0  0  0
   22.2425  -19.0815  -20.9682 C   0  0  0  0  0  0  0  0  0  0  0  0
   22.8416  -19.7160  -19.4012 S   0  0  0  0  0  0  0  0  0  0  0  0
   21.5380  -20.3526  -18.3567 C   0  0  0  0  0  0  0  0  0  0  0  0
   21.9395  -20.8904  -17.0448 C   0  0  0  0  0  0  0  0  0  0  0  0
   22.5262  -19.9586  -16.0152 C   0  0  2  0  0  0  0  0  0  0  0  0
   23.4497  -20.7666  -15.1866 N   0  0  0  0  0  0  0  0  0  0  0  0
   21.5009  -19.3481  -15.1776 C   0  0  0  0  0  0  0  0  0  0  0  0
   21.0524  -18.2088  -15.4457 O   0  0  0  0  0  0  0  0  0  0  0  0
   20.9335  -19.9423  -14.0384 O   0  0  0  0  0  0  0  0  0  0  0  0
  2  1  1  0
  3  2  1  0
  3  5  1  0
  3  4  1  6
  5  6  2  0
  8  7  1  0
  8 18  2  0
  9  8  1  0
 10  9  2  0
 10 11  1  0
 11 17  2  0
 13 12  1  1
 12 11  1  0
 14  5  1  0
 14 13  1  0
 15 24  1  0
 15 13  1  0
 16 15  2  0
 17 18  1  0
 20 21  1  0
 20 19  1  0
 21 22  1  0
 23 24  1  0
 23 22  1  6
 25 23  1  0
 26 25  2  0
 27 25  1  0
M  END
$$$$
