SYM.pdb
     RDKit          3D

 27 27  0  0  1  0  0  0  0  0999 V2000
   17.9745   -8.0292  -21.0025 O   0  0  0  0  0  0  0  0  0  0  0  0
   17.8594   -8.0018  -19.6138 C   0  0  0  0  0  0  0  0  0  0  0  0
   19.2361   -8.1829  -18.9602 C   0  0  2  0  0  0  0  0  0  0  0  0
   19.4997   -9.5811  -18.9065 N   0  0  0  0  0  0  0  0  0  0  0  0
   19.1951   -7.5617  -17.5920 C   0  0  0  0  0  0  0  0  0  0  0  0
   18.6514   -8.1807  -16.6422 O   0  0  0  0  0  0  0  0  0  0  0  0
   23.6157  -10.5511  -14.0628 O   0  0  0  0  0  0  0  0  0  0  0  0
   23.0112   -9.3593  -14.4362 C   0  0  0  0  0  0  0  0  0  0  0  0
   23.3400   -8.7041  -15.6005 C   0  0  0  0  0  0  0  0  0  0  0  0
   22.7356   -7.5205  -15.9654 C   0  0  0  0  0  0  0  0  0  0  0  0
   21.7536   -6.9258  -15.1650 C   0  0  0  0  0  0  0  0  0  0  0  0
   21.1674   -5.6512  -15.5851 C   0  0  0  0  0  0  0  0  0  0  0  0
   19.7500   -5.6604  -16.0255 C   0  0  2  0  0  0  0  0  0  0  0  0
   19.7582   -6.2961  -17.3636 N   0  0  0  0  0  0  0  0  0  0  0  0
   19.1658   -4.3168  -16.1773 C   0  0  0  0  0  0  0  0  0  0  0  0
   19.6035   -3.6189  -17.1669 O   0  0  0  0  0  0  0  0  0  0  0  0
   21.4438   -7.6014  -14.0070 C   0  0  0  0  0  0  0  0  0  0  0  0
   22.0473   -8.7858  -13.6398 C   0  0  0  0  0  0  0  0  0  0  0  0
   12.2999   -3.6574  -16.2450 C   0  0  0  0  0  0  0  0  0  0  0  0
   13.5519   -2.8886  -15.2164 S   0  0  0  0  0  0  0  0  0  0  0  0
   15.2019   -3.0389  -15.8878 C   0  0  0  0  0  0  0  0  0  0  0  0
   16.2719   -2.2994  -15.1952 C   0  0  0  0  0  0  0  0  0  0  0  0
   17.6848   -2.3918  -15.7124 C   0  0  2  0  0  0  0  0  0  0  0  0
   18.1827   -3.7392  -15.3533 N   0  0  0  0  0  0  0  0  0  0  0  0
   18.5486   -1.3662  -15.1399 C   0  0  0  0  0  0  0  0  0  0  0  0
   19.3526   -1.6489  -14.2209 O   0  0  0  0  0  0  0  0  0  0  0  0
   18.5719   -0.0195  -15.5382 O   0  0  0  0  0  0  0  0  0  0  0  0
  2  1  1  0
  3  2  1  0
  3  5  1  0
  3  4  1  1
  5  6  2  0
  8  7  1  0
  8 18  2  0
  9  8  1  0
 10  9  2  0
 10 11  1  0
 11 17  2  0
 13 12  1  6
 12 11  1  0
 14  5  1  0
 14 13  1  0
 15 24  1  0
 15 13  1  0
 16 15  2  0
 17 18  1  0
 20 21  1  0
 20 19  1  0
 21 22  1  0
 23 24  1  0
 23 22  1  1
 25 23  1  0
 26 25  2  0
 27 25  1  0
M  END
$$$$
