HWH.pdb
     RDKit          3D

 35 38  0  0  1  0  0  0  0  0999 V2000
    9.6327  -17.7014   20.9058 N   0  0  0  0  0  0  0  0  0  0  0  0
   10.8341  -17.5516   21.7098 C   0  0  1  0  0  0  0  0  0  0  0  0
   11.7088  -16.5528   20.9633 C   0  0  0  0  0  0  0  0  0  0  0  0
   12.1014  -17.1600   19.6760 C   0  0  0  0  0  0  0  0  0  0  0  0
   13.1038  -18.1145   19.5508 C   0  0  0  0  0  0  0  0  0  0  0  0
   13.1523  -18.4085   18.2273 N   0  0  0  0  0  0  0  0  0  0  0  0
   12.2578  -17.7061   17.5464 C   0  0  0  0  0  0  0  0  0  0  0  0
   11.6139  -16.9388   18.4465 N   0  0  0  0  0  0  0  0  0  0  0  0
   10.5150  -16.9296   23.0194 C   0  0  0  0  0  0  0  0  0  0  0  0
   11.2385  -15.9803   23.4046 O   0  0  0  0  0  0  0  0  0  0  0  0
    9.4579  -17.3423   23.8426 N   0  0  0  0  0  0  0  0  0  0  0  0
    9.2365  -16.8377   25.2143 C   0  0  1  0  0  0  0  0  0  0  0  0
    7.7932  -16.5136   25.3948 C   0  0  0  0  0  0  0  0  0  0  0  0
    7.4158  -15.1973   24.8799 C   0  0  0  0  0  0  0  0  0  0  0  0
    7.1123  -14.8505   23.5819 C   0  0  0  0  0  0  0  0  0  0  0  0
    6.8425  -13.5417   23.4947 N   0  0  0  0  0  0  0  0  0  0  0  0
    6.9533  -12.9787   24.7050 C   0  0  0  0  0  0  0  0  0  0  0  0
    6.7740  -11.6837   25.0982 C   0  0  0  0  0  0  0  0  0  0  0  0
    6.9521  -11.3604   26.4193 C   0  0  0  0  0  0  0  0  0  0  0  0
    7.3090  -12.3663   27.3080 C   0  0  0  0  0  0  0  0  0  0  0  0
    7.4831  -13.6601   26.8883 C   0  0  0  0  0  0  0  0  0  0  0  0
    7.3132  -14.0087   25.5850 C   0  0  0  0  0  0  0  0  0  0  0  0
    9.8140  -17.7986   26.1788 C   0  0  0  0  0  0  0  0  0  0  0  0
    9.1735  -18.9088   26.3715 O   0  0  0  0  0  0  0  0  0  0  0  0
   11.0030  -17.6327   26.9113 N   0  0  0  0  0  0  0  0  0  0  0  0
   11.4793  -18.6081   27.8825 C   0  0  1  0  0  0  0  0  0  0  0  0
   12.9866  -18.5843   27.9763 C   0  0  0  0  0  0  0  0  0  0  0  0
   13.5614  -18.9034   26.6566 C   0  0  0  0  0  0  0  0  0  0  0  0
   14.7083  -18.3193   26.1056 C   0  0  0  0  0  0  0  0  0  0  0  0
   14.9211  -18.8581   24.8937 N   0  0  0  0  0  0  0  0  0  0  0  0
   13.9669  -19.7477   24.6600 C   0  0  0  0  0  0  0  0  0  0  0  0
   13.1518  -19.7740   25.7185 N   0  0  0  0  0  0  0  0  0  0  0  0
   10.9028  -18.3458   29.2017 C   0  0  0  0  0  0  0  0  0  0  0  0
   11.1354  -19.1692   30.1414 O   0  0  0  0  0  0  0  0  0  0  0  0
   10.1091  -17.2364   29.4930 O   0  0  0  0  0  0  0  0  0  0  0  0
  2  1  1  6
  3  2  1  0
  3  4  1  0
  4  5  2  0
  5  6  1  0
  7  6  1  0
  8  4  1  0
  8  7  2  0
  9 10  2  0
  9  2  1  0
 11  9  1  0
 12 23  1  0
 12 11  1  0
 12 13  1  1
 14 13  1  0
 15 14  2  0
 16 15  1  0
 17 16  1  0
 17 22  2  0
 18 19  2  0
 18 17  1  0
 19 20  1  0
 20 21  2  0
 22 21  1  0
 22 14  1  0
 23 25  1  0
 24 23  2  0
 25 26  1  0
 26 27  1  1
 27 28  1  0
 28 29  2  0
 28 32  1  0
 29 30  1  0
 30 31  1  0
 32 31  2  0
 33 35  1  0
 33 26  1  0
 34 33  2  0
M  END
$$$$
