HWH.pdb
     RDKit          3D

 35 38  0  0  1  0  0  0  0  0999 V2000
    8.2031  -16.6866   20.8682 N   0  0  0  0  0  0  0  0  0  0  0  0
    8.9680  -15.4951   21.1957 C   0  0  1  0  0  0  0  0  0  0  0  0
    8.0489  -14.3185   20.8943 C   0  0  0  0  0  0  0  0  0  0  0  0
    7.8154  -14.2810   19.4370 C   0  0  0  0  0  0  0  0  0  0  0  0
    8.8371  -14.2895   18.4948 C   0  0  0  0  0  0  0  0  0  0  0  0
    8.2121  -14.2462   17.2914 N   0  0  0  0  0  0  0  0  0  0  0  0
    6.8948  -14.2123   17.4356 C   0  0  0  0  0  0  0  0  0  0  0  0
    6.6582  -14.2341   18.7611 N   0  0  0  0  0  0  0  0  0  0  0  0
    9.2545  -15.4388   22.6512 C   0  0  0  0  0  0  0  0  0  0  0  0
    9.7849  -14.3947   23.1001 O   0  0  0  0  0  0  0  0  0  0  0  0
    8.9670  -16.4805   23.5441 N   0  0  0  0  0  0  0  0  0  0  0  0
    9.3863  -16.4899   24.9616 C   0  0  1  0  0  0  0  0  0  0  0  0
    8.1929  -16.7015   25.8288 C   0  0  0  0  0  0  0  0  0  0  0  0
    7.2408  -15.5911   25.8023 C   0  0  0  0  0  0  0  0  0  0  0  0
    5.9421  -15.5995   25.3434 C   0  0  0  0  0  0  0  0  0  0  0  0
    5.3947  -14.3825   25.4563 N   0  0  0  0  0  0  0  0  0  0  0  0
    6.2883  -13.5353   25.9833 C   0  0  0  0  0  0  0  0  0  0  0  0
    6.1808  -12.2067   26.2784 C   0  0  0  0  0  0  0  0  0  0  0  0
    7.2607  -11.5576   26.8206 C   0  0  0  0  0  0  0  0  0  0  0  0
    8.4250  -12.2798   27.0488 C   0  0  0  0  0  0  0  0  0  0  0  0
    8.5080  -13.6141   26.7438 C   0  0  0  0  0  0  0  0  0  0  0  0
    7.4533  -14.2824   26.2056 C   0  0  0  0  0  0  0  0  0  0  0  0
   10.4928  -17.4567   25.1290 C   0  0  0  0  0  0  0  0  0  0  0  0
   10.2221  -18.7112   24.9471 O   0  0  0  0  0  0  0  0  0  0  0  0
   11.8244  -17.1511   25.4622 N   0  0  0  0  0  0  0  0  0  0  0  0
   12.8443  -18.1700   25.6701 C   0  0  1  0  0  0  0  0  0  0  0  0
   14.2270  -17.6008   25.4567 C   0  0  0  0  0  0  0  0  0  0  0  0
   14.2922  -16.9660   24.1275 C   0  0  0  0  0  0  0  0  0  0  0  0
   13.6539  -17.4307   22.9713 C   0  0  0  0  0  0  0  0  0  0  0  0
   13.9455  -16.5975   21.9590 N   0  0  0  0  0  0  0  0  0  0  0  0
   14.7324  -15.6373   22.4232 C   0  0  0  0  0  0  0  0  0  0  0  0
   14.9395  -15.8595   23.7244 N   0  0  0  0  0  0  0  0  0  0  0  0
   12.7479  -18.7281   27.0194 C   0  0  0  0  0  0  0  0  0  0  0  0
   13.5924  -19.6088   27.3747 O   0  0  0  0  0  0  0  0  0  0  0  0
   11.7787  -18.3470   27.9474 O   0  0  0  0  0  0  0  0  0  0  0  0
  2  1  1  1
  3  2  1  0
  3  4  1  0
  4  5  2  0
  5  6  1  0
  7  6  1  0
  8  4  1  0
  8  7  2  0
  9 10  2  0
  9  2  1  0
 11  9  1  0
 12 23  1  0
 12 11  1  0
 12 13  1  1
 14 13  1  0
 15 14  2  0
 16 15  1  0
 17 16  1  0
 17 22  2  0
 18 19  2  0
 18 17  1  0
 19 20  1  0
 20 21  2  0
 22 21  1  0
 22 14  1  0
 23 25  1  0
 24 23  2  0
 25 26  1  0
 26 27  1  1
 27 28  1  0
 28 29  2  0
 28 32  1  0
 29 30  1  0
 30 31  1  0
 32 31  2  0
 33 35  1  0
 33 26  1  0
 34 33  2  0
M  END
$$$$
