HWH.pdb
     RDKit          3D

 35 38  0  0  1  0  0  0  0  0999 V2000
   10.7901  -16.2896   20.5406 N   0  0  0  0  0  0  0  0  0  0  0  0
   10.2125  -17.3067   21.4031 C   0  0  1  0  0  0  0  0  0  0  0  0
   11.1795  -18.4827   21.3600 C   0  0  0  0  0  0  0  0  0  0  0  0
   10.8469  -19.3064   20.1807 C   0  0  0  0  0  0  0  0  0  0  0  0
   10.2784  -18.7934   19.0209 C   0  0  0  0  0  0  0  0  0  0  0  0
   10.1337  -19.8590   18.1937 N   0  0  0  0  0  0  0  0  0  0  0  0
   10.5706  -20.9727   18.7646 C   0  0  0  0  0  0  0  0  0  0  0  0
   11.0087  -20.6238   19.9893 N   0  0  0  0  0  0  0  0  0  0  0  0
   10.1816  -16.8434   22.8131 C   0  0  0  0  0  0  0  0  0  0  0  0
   11.0822  -16.0543   23.1864 O   0  0  0  0  0  0  0  0  0  0  0  0
    9.2088  -17.2366   23.7428 N   0  0  0  0  0  0  0  0  0  0  0  0
    9.1685  -16.7641   25.1429 C   0  0  1  0  0  0  0  0  0  0  0  0
    7.7691  -16.3978   25.5011 C   0  0  0  0  0  0  0  0  0  0  0  0
    7.3496  -15.0958   24.9826 C   0  0  0  0  0  0  0  0  0  0  0  0
    6.9793  -14.7759   23.6951 C   0  0  0  0  0  0  0  0  0  0  0  0
    6.6878  -13.4724   23.5986 N   0  0  0  0  0  0  0  0  0  0  0  0
    6.8493  -12.8867   24.7924 C   0  0  0  0  0  0  0  0  0  0  0  0
    6.6715  -11.5873   25.1716 C   0  0  0  0  0  0  0  0  0  0  0  0
    6.9087  -11.2383   26.4768 C   0  0  0  0  0  0  0  0  0  0  0  0
    7.3217  -12.2238   27.3642 C   0  0  0  0  0  0  0  0  0  0  0  0
    7.4928  -13.5224   26.9587 C   0  0  0  0  0  0  0  0  0  0  0  0
    7.2651  -13.8962   25.6714 C   0  0  0  0  0  0  0  0  0  0  0  0
    9.8204  -17.7705   26.0086 C   0  0  0  0  0  0  0  0  0  0  0  0
    9.3367  -18.9729   25.9947 O   0  0  0  0  0  0  0  0  0  0  0  0
   10.9272  -17.5563   26.8492 N   0  0  0  0  0  0  0  0  0  0  0  0
   11.4455  -18.5738   27.7535 C   0  0  1  0  0  0  0  0  0  0  0  0
   12.9080  -18.3389   28.0487 C   0  0  0  0  0  0  0  0  0  0  0  0
   13.7003  -18.6207   26.8376 C   0  0  0  0  0  0  0  0  0  0  0  0
   15.0965  -18.5684   26.7479 C   0  0  0  0  0  0  0  0  0  0  0  0
   15.4553  -18.8833   25.4924 N   0  0  0  0  0  0  0  0  0  0  0  0
   14.3559  -19.1294   24.7942 C   0  0  0  0  0  0  0  0  0  0  0  0
   13.3037  -18.9716   25.6025 N   0  0  0  0  0  0  0  0  0  0  0  0
   10.6891  -18.5838   29.0061 C   0  0  0  0  0  0  0  0  0  0  0  0
    9.7751  -17.7162   29.1712 O   0  0  0  0  0  0  0  0  0  0  0  0
   10.9107  -19.4968   30.0371 O   0  0  0  0  0  0  0  0  0  0  0  0
  2  1  1  6
  3  2  1  0
  3  4  1  0
  4  5  2  0
  5  6  1  0
  7  6  1  0
  8  4  1  0
  8  7  2  0
  9 10  2  0
  9  2  1  0
 11  9  1  0
 12 23  1  0
 12 11  1  0
 12 13  1  1
 14 13  1  0
 15 14  2  0
 16 15  1  0
 17 16  1  0
 17 22  2  0
 18 19  2  0
 18 17  1  0
 19 20  1  0
 20 21  2  0
 22 21  1  0
 22 14  1  0
 23 25  1  0
 24 23  2  0
 25 26  1  0
 26 27  1  1
 27 28  1  0
 28 29  2  0
 28 32  1  0
 29 30  1  0
 30 31  1  0
 32 31  2  0
 33 35  1  0
 33 26  1  0
 34 33  2  0
M  END
$$$$
