HWH.pdb
     RDKit          3D

 35 38  0  0  1  0  0  0  0  0999 V2000
    9.0302  -17.2716   19.9935 N   0  0  0  0  0  0  0  0  0  0  0  0
    9.4220  -15.8854   20.1856 C   0  0  1  0  0  0  0  0  0  0  0  0
    8.3233  -15.0521   19.5388 C   0  0  0  0  0  0  0  0  0  0  0  0
    8.2322  -15.4385   18.1167 C   0  0  0  0  0  0  0  0  0  0  0  0
    8.8506  -14.7366   17.0888 C   0  0  0  0  0  0  0  0  0  0  0  0
    8.5256  -15.4062   15.9545 N   0  0  0  0  0  0  0  0  0  0  0  0
    7.7603  -16.4557   16.2192 C   0  0  0  0  0  0  0  0  0  0  0  0
    7.5840  -16.4689   17.5542 N   0  0  0  0  0  0  0  0  0  0  0  0
    9.4181  -15.5339   21.6279 C   0  0  0  0  0  0  0  0  0  0  0  0
    9.6939  -14.3507   21.9393 O   0  0  0  0  0  0  0  0  0  0  0  0
    9.1254  -16.4448   22.6524 N   0  0  0  0  0  0  0  0  0  0  0  0
    9.2551  -16.1351   24.0921 C   0  0  1  0  0  0  0  0  0  0  0  0
    8.0499  -16.6309   24.8149 C   0  0  0  0  0  0  0  0  0  0  0  0
    7.1263  -15.5702   25.2177 C   0  0  0  0  0  0  0  0  0  0  0  0
    5.7734  -15.6701   25.4556 C   0  0  0  0  0  0  0  0  0  0  0  0
    5.2620  -14.4749   25.7771 N   0  0  0  0  0  0  0  0  0  0  0  0
    6.2337  -13.5530   25.7660 C   0  0  0  0  0  0  0  0  0  0  0  0
    6.1856  -12.2137   26.0262 C   0  0  0  0  0  0  0  0  0  0  0  0
    7.3415  -11.4796   25.9443 C   0  0  0  0  0  0  0  0  0  0  0  0
    8.5191  -12.1298   25.5986 C   0  0  0  0  0  0  0  0  0  0  0  0
    8.5415  -13.4766   25.3421 C   0  0  0  0  0  0  0  0  0  0  0  0
    7.4109  -14.2284   25.4158 C   0  0  0  0  0  0  0  0  0  0  0  0
   10.5584  -16.6390   24.5764 C   0  0  0  0  0  0  0  0  0  0  0  0
   11.0214  -17.7192   24.0297 O   0  0  0  0  0  0  0  0  0  0  0  0
   11.3590  -16.0567   25.5753 N   0  0  0  0  0  0  0  0  0  0  0  0
   11.6862  -16.7318   26.8238 C   0  0  1  0  0  0  0  0  0  0  0  0
   10.9198  -16.1318   27.9786 C   0  0  0  0  0  0  0  0  0  0  0  0
   11.3312  -16.7919   29.2312 C   0  0  0  0  0  0  0  0  0  0  0  0
   12.5113  -16.5326   29.9384 C   0  0  0  0  0  0  0  0  0  0  0  0
   12.5416  -17.3248   31.0227 N   0  0  0  0  0  0  0  0  0  0  0  0
   11.4420  -18.0647   31.0288 C   0  0  0  0  0  0  0  0  0  0  0  0
   10.7166  -17.7440   29.9535 N   0  0  0  0  0  0  0  0  0  0  0  0
   11.3895  -18.1616   26.7298 C   0  0  0  0  0  0  0  0  0  0  0  0
   10.2552  -18.5189   26.2815 O   0  0  0  0  0  0  0  0  0  0  0  0
   12.2845  -19.1642   27.1032 O   0  0  0  0  0  0  0  0  0  0  0  0
  2  1  1  1
  3  2  1  0
  3  4  1  0
  4  5  2  0
  5  6  1  0
  7  6  1  0
  8  4  1  0
  8  7  2  0
  9 10  2  0
  9  2  1  0
 11  9  1  0
 12 23  1  0
 12 11  1  0
 12 13  1  1
 14 13  1  0
 15 14  2  0
 16 15  1  0
 17 16  1  0
 17 22  2  0
 18 19  2  0
 18 17  1  0
 19 20  1  0
 20 21  2  0
 22 21  1  0
 22 14  1  0
 23 25  1  0
 24 23  2  0
 25 26  1  0
 26 27  1  1
 27 28  1  0
 28 29  2  0
 28 32  1  0
 29 30  1  0
 30 31  1  0
 32 31  2  0
 33 35  1  0
 33 26  1  0
 34 33  2  0
M  END
$$$$
