HWH.pdb
     RDKit          3D

 35 38  0  0  1  0  0  0  0  0999 V2000
    8.0305  -16.1033   20.8832 N   0  0  0  0  0  0  0  0  0  0  0  0
    9.3043  -15.4816   21.2040 C   0  0  1  0  0  0  0  0  0  0  0  0
    9.1373  -14.0039   20.8745 C   0  0  0  0  0  0  0  0  0  0  0  0
    8.6568  -13.8963   19.4826 C   0  0  0  0  0  0  0  0  0  0  0  0
    7.3152  -13.7761   19.1401 C   0  0  0  0  0  0  0  0  0  0  0  0
    7.2984  -13.7062   17.7853 N   0  0  0  0  0  0  0  0  0  0  0  0
    8.5243  -13.7749   17.2858 C   0  0  0  0  0  0  0  0  0  0  0  0
    9.3562  -13.8919   18.3384 N   0  0  0  0  0  0  0  0  0  0  0  0
    9.5723  -15.5562   22.6622 C   0  0  0  0  0  0  0  0  0  0  0  0
   10.4982  -14.8454   23.1210 O   0  0  0  0  0  0  0  0  0  0  0  0
    8.8530  -16.3715   23.5472 N   0  0  0  0  0  0  0  0  0  0  0  0
    9.1401  -16.4710   24.9939 C   0  0  1  0  0  0  0  0  0  0  0  0
    7.8572  -16.5372   25.7491 C   0  0  0  0  0  0  0  0  0  0  0  0
    7.0643  -15.3102   25.6727 C   0  0  0  0  0  0  0  0  0  0  0  0
    5.8171  -15.1408   25.1133 C   0  0  0  0  0  0  0  0  0  0  0  0
    5.4268  -13.8634   25.2099 N   0  0  0  0  0  0  0  0  0  0  0  0
    6.3784  -13.1484   25.8241 C   0  0  0  0  0  0  0  0  0  0  0  0
    6.4227  -11.8208   26.1394 C   0  0  0  0  0  0  0  0  0  0  0  0
    7.5312  -11.3270   26.7789 C   0  0  0  0  0  0  0  0  0  0  0  0
    8.5683  -12.1998   27.0817 C   0  0  0  0  0  0  0  0  0  0  0  0
    8.4998  -13.5297   26.7545 C   0  0  0  0  0  0  0  0  0  0  0  0
    7.4134  -14.0459   26.1205 C   0  0  0  0  0  0  0  0  0  0  0  0
   10.0875  -17.5838   25.2203 C   0  0  0  0  0  0  0  0  0  0  0  0
    9.7048  -18.7732   24.8754 O   0  0  0  0  0  0  0  0  0  0  0  0
   11.3775  -17.4822   25.7711 N   0  0  0  0  0  0  0  0  0  0  0  0
   12.1274  -18.6340   26.2534 C   0  0  1  0  0  0  0  0  0  0  0  0
   13.6144  -18.3977   26.1351 C   0  0  0  0  0  0  0  0  0  0  0  0
   13.9291  -17.9530   24.7650 C   0  0  0  0  0  0  0  0  0  0  0  0
   13.0618  -18.0204   23.6680 C   0  0  0  0  0  0  0  0  0  0  0  0
   13.6964  -17.5272   22.5917 N   0  0  0  0  0  0  0  0  0  0  0  0
   14.9141  -17.1557   22.9601 C   0  0  0  0  0  0  0  0  0  0  0  0
   15.0524  -17.4116   24.2642 N   0  0  0  0  0  0  0  0  0  0  0  0
   11.7874  -18.9238   27.6469 C   0  0  0  0  0  0  0  0  0  0  0  0
   12.3163  -19.9364   28.2038 O   0  0  0  0  0  0  0  0  0  0  0  0
   10.9127  -18.1481   28.4077 O   0  0  0  0  0  0  0  0  0  0  0  0
  2  1  1  1
  3  2  1  0
  3  4  1  0
  4  5  2  0
  5  6  1  0
  7  6  1  0
  8  4  1  0
  8  7  2  0
  9 10  2  0
  9  2  1  0
 11  9  1  0
 12 23  1  0
 12 11  1  0
 12 13  1  1
 14 13  1  0
 15 14  2  0
 16 15  1  0
 17 16  1  0
 17 22  2  0
 18 19  2  0
 18 17  1  0
 19 20  1  0
 20 21  2  0
 22 21  1  0
 22 14  1  0
 23 25  1  0
 24 23  2  0
 25 26  1  0
 26 27  1  1
 27 28  1  0
 28 29  2  0
 28 32  1  0
 29 30  1  0
 30 31  1  0
 32 31  2  0
 33 35  1  0
 33 26  1  0
 34 33  2  0
M  END
$$$$
