MGI.pdb
     RDKit          3D

 21 20  0  0  1  0  0  0  0  0999 V2000
   27.8654  -18.0375   -4.7301 C   0  0  0  0  0  0  0  0  0  0  0  0
   29.0936  -19.2903   -5.1794 S   0  0  0  0  0  0  0  0  0  0  0  0
   28.4063  -20.4636   -6.3942 C   0  0  0  0  0  0  0  0  0  0  0  0
   27.7487  -19.7088   -7.5502 C   0  0  0  0  0  0  0  0  0  0  0  0
   27.2523  -20.7727   -8.5131 C   0  0  2  0  0  0  0  0  0  0  0  0
   28.4151  -21.4671   -9.0264 N   0  0  0  0  0  0  0  0  0  0  0  0
   26.4898  -20.2264   -9.6355 C   0  0  0  0  0  0  0  0  0  0  0  0
   25.3678  -19.6876   -9.4339 O   0  0  0  0  0  0  0  0  0  0  0  0
   27.0357  -20.3133  -10.9591 N   0  0  0  0  0  0  0  0  0  0  0  0
   26.3476  -19.6589  -12.0504 C   0  0  0  0  0  0  0  0  0  0  0  0
   26.1098  -20.6266  -13.1376 C   0  0  0  0  0  0  0  0  0  0  0  0
   27.0560  -21.3261  -13.5803 O   0  0  0  0  0  0  0  0  0  0  0  0
   21.4020  -23.2830  -13.3795 C   0  0  0  0  0  0  0  0  0  0  0  0
   22.3959  -22.1969  -13.7555 C   0  0  0  0  0  0  0  0  0  0  0  0
   23.6688  -22.8188  -14.2534 C   0  0  2  0  0  0  0  0  0  0  0  0
   24.3128  -23.7002  -13.2113 C   0  0  0  0  0  0  0  0  0  0  0  0
   24.6143  -21.7939  -14.7928 C   0  0  2  0  0  0  0  0  0  0  0  0
   24.8347  -20.8083  -13.7193 N   0  0  0  0  0  0  0  0  0  0  0  0
   24.0067  -21.0414  -15.9137 C   0  0  0  0  0  0  0  0  0  0  0  0
   23.8417  -21.5489  -17.0535 O   0  0  0  0  0  0  0  0  0  0  0  0
   23.5776  -19.7068  -15.7627 O   0  0  0  0  0  0  0  0  0  0  0  0
  2  1  1  0
  3  4  1  0
  3  2  1  0
  4  5  1  0
  5  7  1  0
  5  6  1  6
  7  9  1  0
  8  7  2  0
  9 10  1  0
 10 11  1  0
 11 12  2  0
 11 18  1  0
 14 13  1  0
 15 16  1  1
 15 14  1  0
 17 15  1  0
 17 18  1  1
 19 21  1  0
 19 17  1  0
 20 19  2  0
M  END
$$$$
