MGI.pdb
     RDKit          3D

 21 20  0  0  1  0  0  0  0  0999 V2000
   30.6159  -14.1426  -18.7280 C   0  0  0  0  0  0  0  0  0  0  0  0
   31.6992  -15.5595  -19.0426 S   0  0  0  0  0  0  0  0  0  0  0  0
   30.9507  -17.0985  -18.4133 C   0  0  0  0  0  0  0  0  0  0  0  0
   29.6050  -16.8033  -17.7496 C   0  0  0  0  0  0  0  0  0  0  0  0
   29.0704  -18.1441  -17.2784 C   0  0  2  0  0  0  0  0  0  0  0  0
   28.8338  -18.9528  -18.4563 N   0  0  0  0  0  0  0  0  0  0  0  0
   27.8258  -18.0353  -16.5175 C   0  0  0  0  0  0  0  0  0  0  0  0
   26.7184  -18.0031  -17.1197 O   0  0  0  0  0  0  0  0  0  0  0  0
   27.8857  -17.9664  -15.0861 N   0  0  0  0  0  0  0  0  0  0  0  0
   26.6688  -17.7336  -14.3395 C   0  0  0  0  0  0  0  0  0  0  0  0
   26.0500  -19.0246  -13.9854 C   0  0  0  0  0  0  0  0  0  0  0  0
   26.2024  -20.0251  -14.7313 O   0  0  0  0  0  0  0  0  0  0  0  0
   26.8116  -20.7005   -9.2198 C   0  0  0  0  0  0  0  0  0  0  0  0
   26.5465  -20.6248  -10.7141 C   0  0  0  0  0  0  0  0  0  0  0  0
   25.0693  -20.6948  -10.9754 C   0  0  2  0  0  0  0  0  0  0  0  0
   24.4532  -21.9491  -10.4056 C   0  0  0  0  0  0  0  0  0  0  0  0
   24.7522  -20.5148  -12.4253 C   0  0  2  0  0  0  0  0  0  0  0  0
   25.2738  -19.1929  -12.8164 N   0  0  0  0  0  0  0  0  0  0  0  0
   23.2901  -20.4551  -12.6508 C   0  0  0  0  0  0  0  0  0  0  0  0
   22.6085  -19.4330  -12.3777 O   0  0  0  0  0  0  0  0  0  0  0  0
   22.5787  -21.5479  -13.1873 O   0  0  0  0  0  0  0  0  0  0  0  0
  2  1  1  0
  3  4  1  0
  3  2  1  0
  4  5  1  0
  5  7  1  0
  5  6  1  6
  7  9  1  0
  8  7  2  0
  9 10  1  0
 10 11  1  0
 11 12  2  0
 11 18  1  0
 14 13  1  0
 15 16  1  6
 15 14  1  0
 17 15  1  0
 17 18  1  1
 19 21  1  0
 19 17  1  0
 20 19  2  0
M  END
$$$$
