MGI.pdb
     RDKit          3D

 21 20  0  0  1  0  0  0  0  0999 V2000
   21.4362  -20.5901  -19.6491 C   0  0  0  0  0  0  0  0  0  0  0  0
   22.8961  -20.1990  -18.6512 S   0  0  0  0  0  0  0  0  0  0  0  0
   22.4087  -19.5733  -17.0093 C   0  0  0  0  0  0  0  0  0  0  0  0
   23.6475  -19.2324  -16.1801 C   0  0  0  0  0  0  0  0  0  0  0  0
   23.8823  -20.4266  -15.2723 C   0  0  2  0  0  0  0  0  0  0  0  0
   22.5856  -20.8871  -14.8203 N   0  0  0  0  0  0  0  0  0  0  0  0
   24.7093  -20.1135  -14.1071 C   0  0  0  0  0  0  0  0  0  0  0  0
   24.3065  -19.2776  -13.2532 O   0  0  0  0  0  0  0  0  0  0  0  0
   25.9761  -20.7682  -13.9532 N   0  0  0  0  0  0  0  0  0  0  0  0
   26.8005  -20.4496  -12.8080 C   0  0  0  0  0  0  0  0  0  0  0  0
   26.2034  -21.0298  -11.5907 C   0  0  0  0  0  0  0  0  0  0  0  0
   25.7295  -22.1942  -11.6116 O   0  0  0  0  0  0  0  0  0  0  0  0
   28.2926  -19.2972   -7.0586 C   0  0  0  0  0  0  0  0  0  0  0  0
   27.6965  -20.3251   -8.0057 C   0  0  0  0  0  0  0  0  0  0  0  0
   26.1981  -20.2275   -7.9888 C   0  0  2  0  0  0  0  0  0  0  0  0
   25.6169  -20.6786   -6.6711 C   0  0  0  0  0  0  0  0  0  0  0  0
   25.5818  -20.9350   -9.1528 C   0  0  2  0  0  0  0  0  0  0  0  0
   26.1377  -20.3191  -10.3710 N   0  0  0  0  0  0  0  0  0  0  0  0
   24.1213  -20.6993   -9.2113 C   0  0  0  0  0  0  0  0  0  0  0  0
   23.6213  -19.7254   -9.8320 O   0  0  0  0  0  0  0  0  0  0  0  0
   23.2065  -21.5597   -8.5700 O   0  0  0  0  0  0  0  0  0  0  0  0
  2  1  1  0
  3  4  1  0
  3  2  1  0
  4  5  1  0
  5  7  1  0
  5  6  1  1
  7  9  1  0
  8  7  2  0
  9 10  1  0
 10 11  1  0
 11 12  2  0
 11 18  1  0
 14 13  1  0
 15 16  1  1
 15 14  1  0
 17 15  1  0
 17 18  1  6
 19 21  1  0
 19 17  1  0
 20 19  2  0
M  END
$$$$
