MGI.pdb
     RDKit          3D

 21 20  0  0  1  0  0  0  0  0999 V2000
   25.6695  -20.9232  -16.8893 C   0  0  0  0  0  0  0  0  0  0  0  0
   25.1052  -22.6269  -16.6467 S   0  0  0  0  0  0  0  0  0  0  0  0
   24.0381  -22.7514  -15.1735 C   0  0  0  0  0  0  0  0  0  0  0  0
   24.1279  -21.4716  -14.3413 C   0  0  0  0  0  0  0  0  0  0  0  0
   25.3595  -21.6289  -13.4674 C   0  0  2  0  0  0  0  0  0  0  0  0
   25.3116  -22.9555  -12.8882 N   0  0  0  0  0  0  0  0  0  0  0  0
   25.4346  -20.6416  -12.3907 C   0  0  0  0  0  0  0  0  0  0  0  0
   25.1112  -19.4426  -12.6097 O   0  0  0  0  0  0  0  0  0  0  0  0
   25.8787  -21.0569  -11.0916 N   0  0  0  0  0  0  0  0  0  0  0  0
   26.0461  -20.0644  -10.0526 C   0  0  0  0  0  0  0  0  0  0  0  0
   26.4049  -20.7288   -8.7858 C   0  0  0  0  0  0  0  0  0  0  0  0
   26.6828  -21.9548   -8.7709 O   0  0  0  0  0  0  0  0  0  0  0  0
   29.7362  -18.3785   -5.4946 C   0  0  0  0  0  0  0  0  0  0  0  0
   28.9239  -19.3836   -6.2940 C   0  0  0  0  0  0  0  0  0  0  0  0
   27.6847  -19.7598   -5.5337 C   0  0  2  0  0  0  0  0  0  0  0  0
   28.0036  -20.2674   -4.1487 C   0  0  0  0  0  0  0  0  0  0  0  0
   26.8277  -20.7124   -6.3039 C   0  0  2  0  0  0  0  0  0  0  0  0
   26.4520  -20.0328   -7.5567 N   0  0  0  0  0  0  0  0  0  0  0  0
   25.5568  -20.9837   -5.5946 C   0  0  0  0  0  0  0  0  0  0  0  0
   24.5445  -20.2469   -5.7225 O   0  0  0  0  0  0  0  0  0  0  0  0
   25.4120  -22.0898   -4.7322 O   0  0  0  0  0  0  0  0  0  0  0  0
  2  1  1  0
  3  4  1  0
  3  2  1  0
  4  5  1  0
  5  7  1  0
  5  6  1  1
  7  9  1  0
  8  7  2  0
  9 10  1  0
 10 11  1  0
 11 12  2  0
 11 18  1  0
 14 13  1  0
 15 16  1  1
 15 14  1  0
 17 15  1  0
 17 18  1  6
 19 21  1  0
 19 17  1  0
 20 19  2  0
M  END
$$$$
