MGI.pdb
     RDKit          3D

 21 20  0  0  1  0  0  0  0  0999 V2000
   20.9371  -21.3593  -11.0014 C   0  0  0  0  0  0  0  0  0  0  0  0
   20.9263  -21.4460  -12.8104 S   0  0  0  0  0  0  0  0  0  0  0  0
   22.6067  -21.2135  -13.4791 C   0  0  0  0  0  0  0  0  0  0  0  0
   23.4915  -20.4969  -12.4583 C   0  0  0  0  0  0  0  0  0  0  0  0
   24.8626  -20.3858  -13.1012 C   0  0  2  0  0  0  0  0  0  0  0  0
   25.1680  -21.6723  -13.6923 N   0  0  0  0  0  0  0  0  0  0  0  0
   25.9193  -20.0345  -12.1527 C   0  0  0  0  0  0  0  0  0  0  0  0
   25.8434  -18.9639  -11.4909 O   0  0  0  0  0  0  0  0  0  0  0  0
   27.0346  -20.9215  -11.9893 N   0  0  0  0  0  0  0  0  0  0  0  0
   28.1184  -20.5379  -11.1114 C   0  0  0  0  0  0  0  0  0  0  0  0
   27.8592  -21.0478   -9.7521 C   0  0  0  0  0  0  0  0  0  0  0  0
   28.1717  -22.2271   -9.4484 O   0  0  0  0  0  0  0  0  0  0  0  0
   29.4267  -18.5757   -5.5638 C   0  0  0  0  0  0  0  0  0  0  0  0
   28.9565  -19.6507   -6.5294 C   0  0  0  0  0  0  0  0  0  0  0  0
   27.4700  -19.8284   -6.4123 C   0  0  2  0  0  0  0  0  0  0  0  0
   27.0517  -20.1787   -5.0051 C   0  0  0  0  0  0  0  0  0  0  0  0
   26.9454  -20.8013   -7.4190 C   0  0  2  0  0  0  0  0  0  0  0  0
   27.2606  -20.2514   -8.7498 N   0  0  0  0  0  0  0  0  0  0  0  0
   25.4689  -20.8915   -7.3585 C   0  0  0  0  0  0  0  0  0  0  0  0
   24.7203  -20.1144   -8.0063 O   0  0  0  0  0  0  0  0  0  0  0  0
   24.8184  -21.8598   -6.5663 O   0  0  0  0  0  0  0  0  0  0  0  0
  2  1  1  0
  3  4  1  0
  3  2  1  0
  4  5  1  0
  5  7  1  0
  5  6  1  1
  7  9  1  0
  8  7  2  0
  9 10  1  0
 10 11  1  0
 11 12  2  0
 11 18  1  0
 14 13  1  0
 15 16  1  1
 15 14  1  0
 17 15  1  0
 17 18  1  6
 19 21  1  0
 19 17  1  0
 20 19  2  0
M  END
$$$$
