MGI.pdb
     RDKit          3D

 21 20  0  0  1  0  0  0  0  0999 V2000
   20.1723  -19.8648  -14.5250 C   0  0  0  0  0  0  0  0  0  0  0  0
   21.2079  -21.2790  -14.0695 S   0  0  0  0  0  0  0  0  0  0  0  0
   22.9649  -20.9308  -14.4113 C   0  0  0  0  0  0  0  0  0  0  0  0
   23.0945  -19.8164  -15.4504 C   0  0  0  0  0  0  0  0  0  0  0  0
   24.5672  -19.7564  -15.8150 C   0  0  2  0  0  0  0  0  0  0  0  0
   24.9501  -21.0723  -16.2834 N   0  0  0  0  0  0  0  0  0  0  0  0
   25.4262  -19.3820  -14.6917 C   0  0  0  0  0  0  0  0  0  0  0  0
   25.3295  -18.2346  -14.1779 O   0  0  0  0  0  0  0  0  0  0  0  0
   26.3729  -20.3347  -14.1884 N   0  0  0  0  0  0  0  0  0  0  0  0
   27.2129  -19.9705  -13.0684 C   0  0  0  0  0  0  0  0  0  0  0  0
   26.8553  -20.7881  -11.8943 C   0  0  0  0  0  0  0  0  0  0  0  0
   26.5999  -22.0117  -12.0293 O   0  0  0  0  0  0  0  0  0  0  0  0
   28.0672  -19.0461   -6.6527 C   0  0  0  0  0  0  0  0  0  0  0  0
   27.2851  -19.2901   -7.9324 C   0  0  0  0  0  0  0  0  0  0  0  0
   27.4103  -20.7296   -8.3415 C   0  0  2  0  0  0  0  0  0  0  0  0
   28.8313  -21.0954   -8.6945 C   0  0  0  0  0  0  0  0  0  0  0  0
   26.4464  -21.0847   -9.4277 C   0  0  2  0  0  0  0  0  0  0  0  0
   26.7848  -20.2455  -10.5912 N   0  0  0  0  0  0  0  0  0  0  0  0
   25.0608  -20.7191   -9.0553 C   0  0  0  0  0  0  0  0  0  0  0  0
   24.4945  -19.6872   -9.5006 O   0  0  0  0  0  0  0  0  0  0  0  0
   24.2967  -21.5135   -8.1759 O   0  0  0  0  0  0  0  0  0  0  0  0
  2  1  1  0
  3  4  1  0
  3  2  1  0
  4  5  1  0
  5  7  1  0
  5  6  1  1
  7  9  1  0
  8  7  2  0
  9 10  1  0
 10 11  1  0
 11 12  2  0
 11 18  1  0
 14 13  1  0
 15 16  1  6
 15 14  1  0
 17 15  1  0
 17 18  1  6
 19 21  1  0
 19 17  1  0
 20 19  2  0
M  END
$$$$
