MGI.pdb
     RDKit          3D

 21 20  0  0  1  0  0  0  0  0999 V2000
   24.3425  -14.6940  -18.2859 C   0  0  0  0  0  0  0  0  0  0  0  0
   25.3042  -16.0669  -17.6000 S   0  0  0  0  0  0  0  0  0  0  0  0
   26.7456  -15.4466  -16.6713 C   0  0  0  0  0  0  0  0  0  0  0  0
   27.6245  -16.6108  -16.2124 C   0  0  0  0  0  0  0  0  0  0  0  0
   26.7764  -17.4161  -15.2441 C   0  0  2  0  0  0  0  0  0  0  0  0
   26.7141  -16.6724  -14.0029 N   0  0  0  0  0  0  0  0  0  0  0  0
   27.3150  -18.7491  -14.9741 C   0  0  0  0  0  0  0  0  0  0  0  0
   27.5318  -19.5471  -15.9260 O   0  0  0  0  0  0  0  0  0  0  0  0
   27.5903  -19.1301  -13.6191 N   0  0  0  0  0  0  0  0  0  0  0  0
   27.9158  -20.5088  -13.3261 C   0  0  0  0  0  0  0  0  0  0  0  0
   26.8942  -21.0793  -12.4285 C   0  0  0  0  0  0  0  0  0  0  0  0
   26.2315  -22.0869  -12.7836 O   0  0  0  0  0  0  0  0  0  0  0  0
   27.4274  -19.8834   -7.2355 C   0  0  0  0  0  0  0  0  0  0  0  0
   27.1162  -20.7972   -8.4090 C   0  0  0  0  0  0  0  0  0  0  0  0
   25.7423  -20.5005   -8.9377 C   0  0  2  0  0  0  0  0  0  0  0  0
   24.6616  -20.9279   -7.9749 C   0  0  0  0  0  0  0  0  0  0  0  0
   25.5393  -21.0665  -10.3065 C   0  0  2  0  0  0  0  0  0  0  0  0
   26.6189  -20.5313  -11.1552 N   0  0  0  0  0  0  0  0  0  0  0  0
   24.2757  -20.5802  -10.9056 C   0  0  0  0  0  0  0  0  0  0  0  0
   24.2073  -19.4992  -11.5465 O   0  0  0  0  0  0  0  0  0  0  0  0
   23.0733  -21.3076  -10.7891 O   0  0  0  0  0  0  0  0  0  0  0  0
  2  1  1  0
  3  4  1  0
  3  2  1  0
  4  5  1  0
  5  7  1  0
  5  6  1  1
  7  9  1  0
  8  7  2  0
  9 10  1  0
 10 11  1  0
 11 12  2  0
 11 18  1  0
 14 13  1  0
 15 16  1  1
 15 14  1  0
 17 15  1  0
 17 18  1  6
 19 21  1  0
 19 17  1  0
 20 19  2  0
M  END
$$$$
