TNN.pdb
     RDKit          3D

 24 23  0  0  1  0  0  0  0  0999 V2000
   15.1095   -7.4879  -14.9920 C   0  0  0  0  0  0  0  0  0  0  0  0
   14.6335   -8.6539  -14.1172 C   0  0  1  0  0  0  0  0  0  0  0  0
   13.4297   -9.1269  -14.6598 O   0  0  0  0  0  0  0  0  0  0  0  0
   15.6822   -9.7356  -14.2686 C   0  0  2  0  0  0  0  0  0  0  0  0
   15.1784  -10.9175  -13.5986 N   0  0  0  0  0  0  0  0  0  0  0  0
   17.0061   -9.3250  -13.7459 C   0  0  0  0  0  0  0  0  0  0  0  0
   17.2101   -9.2218  -12.5135 O   0  0  0  0  0  0  0  0  0  0  0  0
   21.8712   -8.0733  -13.4600 N   0  0  0  0  0  0  0  0  0  0  0  0
   21.7339   -9.2224  -14.2965 C   0  0  0  0  0  0  0  0  0  0  0  0
   22.7532   -9.8726  -14.6015 O   0  0  0  0  0  0  0  0  0  0  0  0
   20.3858   -9.6076  -14.7766 C   0  0  0  0  0  0  0  0  0  0  0  0
   19.3787   -8.6151  -14.2401 C   0  0  2  0  0  0  0  0  0  0  0  0
   18.0625   -9.0432  -14.6536 N   0  0  0  0  0  0  0  0  0  0  0  0
   19.6171   -7.2499  -14.7835 C   0  0  0  0  0  0  0  0  0  0  0  0
   19.3965   -7.0473  -16.0015 O   0  0  0  0  0  0  0  0  0  0  0  0
   20.3673   -1.5157  -13.1989 N   0  0  0  0  0  0  0  0  0  0  0  0
   19.8679   -2.4606  -14.1339 C   0  0  0  0  0  0  0  0  0  0  0  0
   19.7027   -2.1214  -15.3175 O   0  0  0  0  0  0  0  0  0  0  0  0
   19.5485   -3.8346  -13.6980 C   0  0  0  0  0  0  0  0  0  0  0  0
   20.3311   -4.8583  -14.4651 C   0  0  2  0  0  0  0  0  0  0  0  0
   20.0808   -6.2033  -13.9534 N   0  0  0  0  0  0  0  0  0  0  0  0
   21.7779   -4.6005  -14.3696 C   0  0  0  0  0  0  0  0  0  0  0  0
   22.4087   -3.8523  -15.1830 O   0  0  0  0  0  0  0  0  0  0  0  0
   22.5179   -5.1968  -13.3413 O   0  0  0  0  0  0  0  0  0  0  0  0
  2  1  1  6
  3  2  1  0
  4  2  1  0
  4  5  1  1
  6  4  1  0
  6  7  2  0
  9 11  1  0
  9  8  1  0
 10  9  2  0
 12 11  1  6
 12 13  1  0
 13  6  1  0
 14 12  1  0
 15 14  2  0
 16 17  1  0
 17 18  2  0
 17 19  1  0
 20 19  1  1
 20 22  1  0
 20 21  1  0
 21 14  1  0
 22 24  1  0
 23 22  2  0
M  END
$$$$
