TNN.pdb
     RDKit          3D

 24 23  0  0  1  0  0  0  0  0999 V2000
   21.2862  -12.9311  -18.8491 C   0  0  0  0  0  0  0  0  0  0  0  0
   19.9567  -13.0881  -18.1016 C   0  0  1  0  0  0  0  0  0  0  0  0
   19.7957  -14.4494  -17.8044 O   0  0  0  0  0  0  0  0  0  0  0  0
   20.1256  -12.3327  -16.8002 C   0  0  2  0  0  0  0  0  0  0  0  0
   19.2210  -12.9291  -15.8380 N   0  0  0  0  0  0  0  0  0  0  0  0
   19.8934  -10.8773  -16.9500 C   0  0  0  0  0  0  0  0  0  0  0  0
   20.7286  -10.1469  -17.5330 O   0  0  0  0  0  0  0  0  0  0  0  0
   16.9608   -9.0352  -18.8629 N   0  0  0  0  0  0  0  0  0  0  0  0
   16.1785   -8.8742  -17.6793 C   0  0  0  0  0  0  0  0  0  0  0  0
   14.9364   -8.8261  -17.7781 O   0  0  0  0  0  0  0  0  0  0  0  0
   16.8651   -8.7692  -16.3702 C   0  0  0  0  0  0  0  0  0  0  0  0
   18.3547   -8.9072  -16.5921 C   0  0  2  0  0  0  0  0  0  0  0  0
   18.7065  -10.2982  -16.4255 N   0  0  0  0  0  0  0  0  0  0  0  0
   19.1288   -8.1087  -15.6025 C   0  0  0  0  0  0  0  0  0  0  0  0
   19.1566   -8.5019  -14.4118 O   0  0  0  0  0  0  0  0  0  0  0  0
   22.0695   -4.4547  -13.4459 N   0  0  0  0  0  0  0  0  0  0  0  0
   22.6820   -4.9210  -14.6392 C   0  0  0  0  0  0  0  0  0  0  0  0
   23.8361   -4.5552  -14.9176 O   0  0  0  0  0  0  0  0  0  0  0  0
   21.9489   -5.8333  -15.5392 C   0  0  0  0  0  0  0  0  0  0  0  0
   20.5682   -6.1253  -15.0322 C   0  0  2  0  0  0  0  0  0  0  0  0
   19.8175   -6.9356  -15.9880 N   0  0  0  0  0  0  0  0  0  0  0  0
   19.8135   -4.8817  -14.8030 C   0  0  0  0  0  0  0  0  0  0  0  0
   19.7916   -4.2744  -13.6850 O   0  0  0  0  0  0  0  0  0  0  0  0
   19.0755   -4.3200  -15.8521 O   0  0  0  0  0  0  0  0  0  0  0  0
  2  1  1  6
  3  2  1  0
  4  2  1  0
  4  5  1  1
  6  4  1  0
  6  7  2  0
  9 11  1  0
  9  8  1  0
 10  9  2  0
 12 11  1  1
 12 13  1  0
 13  6  1  0
 14 12  1  0
 15 14  2  0
 16 17  1  0
 17 18  2  0
 17 19  1  0
 20 19  1  6
 20 22  1  0
 20 21  1  0
 21 14  1  0
 22 24  1  0
 23 22  2  0
M  END
$$$$
