TNN.pdb
     RDKit          3D

 24 23  0  0  1  0  0  0  0  0999 V2000
   25.7987  -22.4312  -18.6543 C   0  0  0  0  0  0  0  0  0  0  0  0
   26.9545  -23.0884  -17.8904 C   0  0  1  0  0  0  0  0  0  0  0  0
   27.7451  -23.7732  -18.8249 O   0  0  0  0  0  0  0  0  0  0  0  0
   27.7708  -21.9479  -17.3199 C   0  0  2  0  0  0  0  0  0  0  0  0
   28.9218  -22.5322  -16.6615 N   0  0  0  0  0  0  0  0  0  0  0  0
   26.9873  -21.0866  -16.4041 C   0  0  0  0  0  0  0  0  0  0  0  0
   26.7509  -21.4436  -15.2262 O   0  0  0  0  0  0  0  0  0  0  0  0
   27.9753  -18.0034  -14.7968 N   0  0  0  0  0  0  0  0  0  0  0  0
   27.4309  -17.1293  -15.7860 C   0  0  0  0  0  0  0  0  0  0  0  0
   28.0375  -16.0749  -16.0599 O   0  0  0  0  0  0  0  0  0  0  0  0
   26.1627  -17.5007  -16.4568 C   0  0  0  0  0  0  0  0  0  0  0  0
   25.7805  -18.9001  -16.0294 C   0  0  2  0  0  0  0  0  0  0  0  0
   26.4951  -19.8361  -16.8659 N   0  0  0  0  0  0  0  0  0  0  0  0
   24.3216  -19.1420  -16.1998 C   0  0  0  0  0  0  0  0  0  0  0  0
   23.8890  -19.3829  -17.3522 O   0  0  0  0  0  0  0  0  0  0  0  0
   19.3202  -19.9350  -15.3284 N   0  0  0  0  0  0  0  0  0  0  0  0
   20.0143  -20.3123  -14.1484 C   0  0  0  0  0  0  0  0  0  0  0  0
   19.3882  -20.8346  -13.2110 O   0  0  0  0  0  0  0  0  0  0  0  0
   21.4688  -20.0835  -14.0406 C   0  0  0  0  0  0  0  0  0  0  0  0
   22.0077  -19.3531  -15.2344 C   0  0  2  0  0  0  0  0  0  0  0  0
   23.4400  -19.1026  -15.0951 N   0  0  0  0  0  0  0  0  0  0  0  0
   21.3365  -18.0539  -15.4085 C   0  0  0  0  0  0  0  0  0  0  0  0
   20.1477  -17.9356  -15.8466 O   0  0  0  0  0  0  0  0  0  0  0  0
   22.0198  -16.8760  -15.0825 O   0  0  0  0  0  0  0  0  0  0  0  0
  2  1  1  6
  3  2  1  0
  4  2  1  0
  4  5  1  1
  6  4  1  0
  6  7  2  0
  9 11  1  0
  9  8  1  0
 10  9  2  0
 12 11  1  6
 12 13  1  0
 13  6  1  0
 14 12  1  0
 15 14  2  0
 16 17  1  0
 17 18  2  0
 17 19  1  0
 20 19  1  1
 20 22  1  0
 20 21  1  0
 21 14  1  0
 22 24  1  0
 23 22  2  0
M  END
$$$$
