TNN.pdb
     RDKit          3D

 24 23  0  0  1  0  0  0  0  0999 V2000
   13.2056  -11.8591  -11.8910 C   0  0  0  0  0  0  0  0  0  0  0  0
   13.6812  -10.8923  -10.8000 C   0  0  1  0  0  0  0  0  0  0  0  0
   13.2022  -11.3707   -9.5715 O   0  0  0  0  0  0  0  0  0  0  0  0
   15.1920  -10.9912  -10.7938 C   0  0  2  0  0  0  0  0  0  0  0  0
   15.6764  -10.0884   -9.7691 N   0  0  0  0  0  0  0  0  0  0  0  0
   15.7892  -10.6978  -12.1174 C   0  0  0  0  0  0  0  0  0  0  0  0
   15.6023  -11.4613  -13.0936 O   0  0  0  0  0  0  0  0  0  0  0  0
   17.2597  -10.7049  -15.6844 N   0  0  0  0  0  0  0  0  0  0  0  0
   16.1189   -9.8468  -15.6532 C   0  0  0  0  0  0  0  0  0  0  0  0
   15.2987   -9.8980  -16.5911 O   0  0  0  0  0  0  0  0  0  0  0  0
   15.9437   -8.9220  -14.5086 C   0  0  0  0  0  0  0  0  0  0  0  0
   17.1082   -9.0991  -13.5601 C   0  0  2  0  0  0  0  0  0  0  0  0
   16.5868   -9.5337  -12.2851 N   0  0  0  0  0  0  0  0  0  0  0  0
   17.8408   -7.8199  -13.3527 C   0  0  0  0  0  0  0  0  0  0  0  0
   17.2689   -6.9031  -12.7158 O   0  0  0  0  0  0  0  0  0  0  0  0
   21.4645   -4.1685  -13.2967 N   0  0  0  0  0  0  0  0  0  0  0  0
   22.0877   -5.3005  -13.8855 C   0  0  0  0  0  0  0  0  0  0  0  0
   23.2881   -5.2434  -14.2000 O   0  0  0  0  0  0  0  0  0  0  0  0
   21.3108   -6.5338  -14.1205 C   0  0  0  0  0  0  0  0  0  0  0  0
   19.8900   -6.3930  -13.6617 C   0  0  2  0  0  0  0  0  0  0  0  0
   19.1484   -7.6360  -13.8582 N   0  0  0  0  0  0  0  0  0  0  0  0
   19.1952   -5.3296  -14.4067 C   0  0  0  0  0  0  0  0  0  0  0  0
   19.1342   -4.1230  -14.0072 O   0  0  0  0  0  0  0  0  0  0  0  0
   18.5628   -5.6366  -15.6177 O   0  0  0  0  0  0  0  0  0  0  0  0
  2  1  1  6
  3  2  1  0
  4  2  1  0
  4  5  1  1
  6  4  1  0
  6  7  2  0
  9 11  1  0
  9  8  1  0
 10  9  2  0
 12 11  1  6
 12 13  1  0
 13  6  1  0
 14 12  1  0
 15 14  2  0
 16 17  1  0
 17 18  2  0
 17 19  1  0
 20 19  1  6
 20 22  1  0
 20 21  1  0
 21 14  1  0
 22 24  1  0
 23 22  2  0
M  END
$$$$
