TNN.pdb
     RDKit          3D

 24 23  0  0  1  0  0  0  0  0999 V2000
   14.2088   -8.2510   -7.9102 C   0  0  0  0  0  0  0  0  0  0  0  0
   14.1176   -6.7455   -8.1863 C   0  0  1  0  0  0  0  0  0  0  0  0
   13.8936   -6.1024   -6.9601 O   0  0  0  0  0  0  0  0  0  0  0  0
   15.4839   -6.3379   -8.6959 C   0  0  2  0  0  0  0  0  0  0  0  0
   15.5129   -4.8896   -8.7329 N   0  0  0  0  0  0  0  0  0  0  0  0
   15.8023   -6.9318  -10.0151 C   0  0  0  0  0  0  0  0  0  0  0  0
   15.9989   -8.1635  -10.1381 O   0  0  0  0  0  0  0  0  0  0  0  0
   13.7802   -7.7492  -12.6518 N   0  0  0  0  0  0  0  0  0  0  0  0
   13.9503   -6.5958  -13.4763 C   0  0  0  0  0  0  0  0  0  0  0  0
   13.0008   -6.2192  -14.1915 O   0  0  0  0  0  0  0  0  0  0  0  0
   15.2486   -5.8816  -13.4576 C   0  0  0  0  0  0  0  0  0  0  0  0
   16.1736   -6.5834  -12.4885 C   0  0  2  0  0  0  0  0  0  0  0  0
   15.8869   -6.0943  -11.1600 N   0  0  0  0  0  0  0  0  0  0  0  0
   17.6018   -6.2950  -12.7934 C   0  0  0  0  0  0  0  0  0  0  0  0
   18.0728   -5.1862  -12.4442 O   0  0  0  0  0  0  0  0  0  0  0  0
   22.4883   -6.7244  -14.3676 N   0  0  0  0  0  0  0  0  0  0  0  0
   22.0527   -8.0134  -13.9611 C   0  0  0  0  0  0  0  0  0  0  0  0
   22.8730   -8.9441  -13.8967 O   0  0  0  0  0  0  0  0  0  0  0  0
   20.6348   -8.2411  -13.6188 C   0  0  0  0  0  0  0  0  0  0  0  0
   19.8208   -6.9891  -13.7555 C   0  0  2  0  0  0  0  0  0  0  0  0
   18.4129   -7.2423  -13.4597 N   0  0  0  0  0  0  0  0  0  0  0  0
   19.9052   -6.4485  -15.1227 C   0  0  0  0  0  0  0  0  0  0  0  0
   20.9771   -5.9792  -15.6228 O   0  0  0  0  0  0  0  0  0  0  0  0
   18.7626   -6.4396  -15.9322 O   0  0  0  0  0  0  0  0  0  0  0  0
  2  1  1  1
  3  2  1  0
  4  2  1  0
  4  5  1  6
  6  4  1  0
  6  7  2  0
  9 11  1  0
  9  8  1  0
 10  9  2  0
 12 11  1  6
 12 13  1  0
 13  6  1  0
 14 12  1  0
 15 14  2  0
 16 17  1  0
 17 18  2  0
 17 19  1  0
 20 19  1  6
 20 22  1  0
 20 21  1  0
 21 14  1  0
 22 24  1  0
 23 22  2  0
M  END
$$$$
