WNL.pdb
     RDKit          3D

 31 32  0  0  1  0  0  0  0  0999 V2000
   24.4979  -21.3898  -12.5220 N   0  0  0  0  0  0  0  0  0  0  0  0
   24.0844  -20.3898  -11.5162 C   0  0  1  0  0  0  0  0  0  0  0  0
   25.1348  -19.3963  -11.3532 C   0  0  0  0  0  0  0  0  0  0  0  0
   26.4964  -19.7574  -11.7475 C   0  0  0  0  0  0  0  0  0  0  0  0
   27.2536  -20.6941  -11.0261 C   0  0  0  0  0  0  0  0  0  0  0  0
   28.4272  -20.8935  -11.6511 N   0  0  0  0  0  0  0  0  0  0  0  0
   28.4237  -20.0969  -12.7554 C   0  0  0  0  0  0  0  0  0  0  0  0
   29.3868  -19.9022  -13.7249 C   0  0  0  0  0  0  0  0  0  0  0  0
   29.1960  -19.0081  -14.7744 C   0  0  0  0  0  0  0  0  0  0  0  0
   28.0097  -18.3127  -14.8228 C   0  0  0  0  0  0  0  0  0  0  0  0
   27.0490  -18.5078  -13.8576 C   0  0  0  0  0  0  0  0  0  0  0  0
   27.2370  -19.3939  -12.8201 C   0  0  0  0  0  0  0  0  0  0  0  0
   22.6873  -20.0087  -11.6577 C   0  0  0  0  0  0  0  0  0  0  0  0
   22.2406  -18.8497  -11.4743 O   0  0  0  0  0  0  0  0  0  0  0  0
   21.0965  -18.8771  -14.6018 N   0  0  0  0  0  0  0  0  0  0  0  0
   22.1446  -19.8036  -14.9330 C   0  0  0  0  0  0  0  0  0  0  0  0
   23.1508  -19.4003  -15.5381 O   0  0  0  0  0  0  0  0  0  0  0  0
   21.8991  -21.1914  -14.4989 C   0  0  0  0  0  0  0  0  0  0  0  0
   21.0834  -21.2236  -13.2723 C   0  0  2  0  0  0  0  0  0  0  0  0
   21.6818  -20.9848  -12.0198 N   0  0  0  0  0  0  0  0  0  0  0  0
   20.1239  -22.3717  -13.2406 C   0  0  0  0  0  0  0  0  0  0  0  0
   19.6168  -22.7050  -14.3370 O   0  0  0  0  0  0  0  0  0  0  0  0
   18.6452  -25.2143   -8.4048 C   0  0  0  0  0  0  0  0  0  0  0  0
   18.3588  -24.5306   -9.6871 C   0  0  2  0  0  0  0  0  0  0  0  0
   16.8324  -24.3710   -9.8327 C   0  0  0  0  0  0  0  0  0  0  0  0
   18.9672  -25.0442  -10.9291 C   0  0  0  0  0  0  0  0  0  0  0  0
   18.8185  -24.2522  -12.1521 C   0  0  2  0  0  0  0  0  0  0  0  0
   19.7649  -23.0849  -12.0808 N   0  0  0  0  0  0  0  0  0  0  0  0
   17.5474  -23.7415  -12.5528 C   0  0  0  0  0  0  0  0  0  0  0  0
   16.7117  -24.5029  -13.1536 O   0  0  0  0  0  0  0  0  0  0  0  0
   17.0643  -22.4371  -12.3528 O   0  0  0  0  0  0  0  0  0  0  0  0
  2  1  1  6
  2  3  1  0
  2 13  1  0
  3  4  1  0
  4  5  2  0
  5  6  1  0
  7  8  2  0
  7  6  1  0
  9  8  1  0
 10  9  2  0
 11 10  1  0
 11 12  2  0
 12  4  1  0
 12  7  1  0
 13 20  1  0
 13 14  2  0
 16 15  1  0
 17 16  2  0
 18 16  1  0
 19 18  1  6
 20 19  1  0
 21 19  1  0
 21 22  2  0
 24 26  1  0
 24 23  1  1
 25 24  1  0
 27 26  1  1
 27 28  1  0
 28 21  1  0
 29 27  1  0
 30 29  2  0
 31 29  1  0
M  END
$$$$
