WNL.pdb
     RDKit          3D

 31 32  0  0  1  0  0  0  0  0999 V2000
   21.9785  -11.8006  -21.2246 N   0  0  0  0  0  0  0  0  0  0  0  0
   21.2764  -11.8493  -19.9256 C   0  0  1  0  0  0  0  0  0  0  0  0
   21.9552  -12.7800  -19.0368 C   0  0  0  0  0  0  0  0  0  0  0  0
   22.2550  -14.1214  -19.5374 C   0  0  0  0  0  0  0  0  0  0  0  0
   23.5649  -14.6256  -19.5689 C   0  0  0  0  0  0  0  0  0  0  0  0
   23.5409  -15.9002  -19.9962 N   0  0  0  0  0  0  0  0  0  0  0  0
   22.2365  -16.2088  -20.2360 C   0  0  0  0  0  0  0  0  0  0  0  0
   21.6612  -17.3716  -20.7074 C   0  0  0  0  0  0  0  0  0  0  0  0
   20.2884  -17.4761  -20.9124 C   0  0  0  0  0  0  0  0  0  0  0  0
   19.5083  -16.3780  -20.6317 C   0  0  0  0  0  0  0  0  0  0  0  0
   20.0812  -15.2195  -20.1604 C   0  0  0  0  0  0  0  0  0  0  0  0
   21.4393  -15.1168  -19.9557 C   0  0  0  0  0  0  0  0  0  0  0  0
   20.8557  -10.5312  -19.4750 C   0  0  0  0  0  0  0  0  0  0  0  0
   21.5035   -9.4720  -19.6610 O   0  0  0  0  0  0  0  0  0  0  0  0
   16.1646   -7.4940  -17.0958 N   0  0  0  0  0  0  0  0  0  0  0  0
   17.2401   -7.5434  -18.0485 C   0  0  0  0  0  0  0  0  0  0  0  0
   17.7760   -6.4883  -18.4233 O   0  0  0  0  0  0  0  0  0  0  0  0
   17.6045   -8.9008  -18.4953 C   0  0  0  0  0  0  0  0  0  0  0  0
   19.0342   -9.1673  -18.2594 C   0  0  2  0  0  0  0  0  0  0  0  0
   19.6204  -10.3537  -18.7417 N   0  0  0  0  0  0  0  0  0  0  0  0
   19.4656   -8.8399  -16.8643 C   0  0  0  0  0  0  0  0  0  0  0  0
   19.1073   -9.6389  -15.9679 O   0  0  0  0  0  0  0  0  0  0  0  0
   22.9515   -6.8096  -12.9881 C   0  0  0  0  0  0  0  0  0  0  0  0
   22.7104   -8.1076  -13.6593 C   0  0  2  0  0  0  0  0  0  0  0  0
   24.0287   -8.9065  -13.6798 C   0  0  0  0  0  0  0  0  0  0  0  0
   22.0497   -8.1251  -14.9782 C   0  0  0  0  0  0  0  0  0  0  0  0
   20.7175   -7.5276  -15.0934 C   0  0  2  0  0  0  0  0  0  0  0  0
   20.2328   -7.7150  -16.5053 N   0  0  0  0  0  0  0  0  0  0  0  0
   20.4859   -6.1630  -14.7451 C   0  0  0  0  0  0  0  0  0  0  0  0
   20.4719   -5.2631  -15.6556 O   0  0  0  0  0  0  0  0  0  0  0  0
   20.2486   -5.6524  -13.4575 O   0  0  0  0  0  0  0  0  0  0  0  0
  2  1  1  6
  2  3  1  0
  2 13  1  0
  3  4  1  0
  4  5  2  0
  5  6  1  0
  7  8  2  0
  7  6  1  0
  9  8  1  0
 10  9  2  0
 11 10  1  0
 11 12  2  0
 12  4  1  0
 12  7  1  0
 13 20  1  0
 13 14  2  0
 16 15  1  0
 17 16  2  0
 18 16  1  0
 19 18  1  1
 20 19  1  0
 21 19  1  0
 21 22  2  0
 24 26  1  0
 24 23  1  6
 25 24  1  0
 27 26  1  6
 27 28  1  0
 28 21  1  0
 29 27  1  0
 30 29  2  0
 31 29  1  0
M  END
$$$$
