WNL.pdb
     RDKit          3D

 31 32  0  0  1  0  0  0  0  0999 V2000
   27.7528  -21.8276   -9.9739 N   0  0  0  0  0  0  0  0  0  0  0  0
   26.6711  -20.8283   -9.8558 C   0  0  1  0  0  0  0  0  0  0  0  0
   27.0976  -19.7463   -8.9816 C   0  0  0  0  0  0  0  0  0  0  0  0
   28.0914  -20.0412   -7.9494 C   0  0  0  0  0  0  0  0  0  0  0  0
   29.4117  -20.3946   -8.2704 C   0  0  0  0  0  0  0  0  0  0  0  0
   30.1238  -20.5301   -7.1382 N   0  0  0  0  0  0  0  0  0  0  0  0
   29.2740  -20.2687   -6.1068 C   0  0  0  0  0  0  0  0  0  0  0  0
   29.4849  -20.2886   -4.7428 C   0  0  0  0  0  0  0  0  0  0  0  0
   28.4605  -20.0133   -3.8415 C   0  0  0  0  0  0  0  0  0  0  0  0
   27.2160  -19.7183   -4.3488 C   0  0  0  0  0  0  0  0  0  0  0  0
   27.0060  -19.6968   -5.7082 C   0  0  0  0  0  0  0  0  0  0  0  0
   28.0200  -19.9673   -6.6001 C   0  0  0  0  0  0  0  0  0  0  0  0
   26.0168  -20.5690  -11.1293 C   0  0  0  0  0  0  0  0  0  0  0  0
   26.4612  -19.8013  -12.0178 O   0  0  0  0  0  0  0  0  0  0  0  0
   26.0228  -21.3918  -15.1435 N   0  0  0  0  0  0  0  0  0  0  0  0
   25.5610  -22.2305  -14.0711 C   0  0  0  0  0  0  0  0  0  0  0  0
   26.3502  -23.0185  -13.5258 O   0  0  0  0  0  0  0  0  0  0  0  0
   24.1392  -22.0552  -13.7212 C   0  0  0  0  0  0  0  0  0  0  0  0
   23.9814  -21.0768  -12.6309 C   0  0  2  0  0  0  0  0  0  0  0  0
   24.7539  -21.1945  -11.4590 N   0  0  0  0  0  0  0  0  0  0  0  0
   22.5494  -20.7501  -12.3440 C   0  0  0  0  0  0  0  0  0  0  0  0
   22.0324  -21.3268  -11.3589 O   0  0  0  0  0  0  0  0  0  0  0  0
   17.5501  -18.2856  -13.0779 C   0  0  0  0  0  0  0  0  0  0  0  0
   18.7433  -17.6446  -12.4785 C   0  0  2  0  0  0  0  0  0  0  0  0
   18.6436  -16.1205  -12.6869 C   0  0  0  0  0  0  0  0  0  0  0  0
   20.0846  -18.1493  -12.8284 C   0  0  0  0  0  0  0  0  0  0  0  0
   20.3292  -19.5902  -12.7326 C   0  0  2  0  0  0  0  0  0  0  0  0
   21.7653  -19.8539  -13.0956 N   0  0  0  0  0  0  0  0  0  0  0  0
   19.5318  -20.5259  -13.4577 C   0  0  0  0  0  0  0  0  0  0  0  0
   18.7147  -21.2894  -12.8344 O   0  0  0  0  0  0  0  0  0  0  0  0
   19.5213  -20.7213  -14.8493 O   0  0  0  0  0  0  0  0  0  0  0  0
  2  1  1  6
  2  3  1  0
  2 13  1  0
  3  4  1  0
  4  5  2  0
  5  6  1  0
  7  8  2  0
  7  6  1  0
  9  8  1  0
 10  9  2  0
 11 10  1  0
 11 12  2  0
 12  4  1  0
 12  7  1  0
 13 20  1  0
 13 14  2  0
 16 15  1  0
 17 16  2  0
 18 16  1  0
 19 18  1  1
 20 19  1  0
 21 19  1  0
 21 22  2  0
 24 26  1  0
 24 23  1  6
 25 24  1  0
 27 26  1  6
 27 28  1  0
 28 21  1  0
 29 27  1  0
 30 29  2  0
 31 29  1  0
M  END
$$$$
