WNL.pdb
     RDKit          3D

 31 32  0  0  1  0  0  0  0  0999 V2000
   26.9200  -22.4952  -11.1827 N   0  0  0  0  0  0  0  0  0  0  0  0
   26.7370  -21.1520  -11.7700 C   0  0  1  0  0  0  0  0  0  0  0  0
   27.8477  -20.2943  -11.3857 C   0  0  0  0  0  0  0  0  0  0  0  0
   28.5247  -20.5650  -10.1174 C   0  0  0  0  0  0  0  0  0  0  0  0
   29.7978  -21.1545  -10.0675 C   0  0  0  0  0  0  0  0  0  0  0  0
   30.2115  -21.2125   -8.7895 N   0  0  0  0  0  0  0  0  0  0  0  0
   29.2192  -20.6697   -8.0312 C   0  0  0  0  0  0  0  0  0  0  0  0
   29.1222  -20.5046   -6.6642 C   0  0  0  0  0  0  0  0  0  0  0  0
   27.9931  -19.9431   -6.0748 C   0  0  0  0  0  0  0  0  0  0  0  0
   26.9618  -19.5526   -6.8977 C   0  0  0  0  0  0  0  0  0  0  0  0
   27.0589  -19.7155   -8.2602 C   0  0  0  0  0  0  0  0  0  0  0  0
   28.1768  -20.2693   -8.8436 C   0  0  0  0  0  0  0  0  0  0  0  0
   26.2551  -21.2095  -13.1418 C   0  0  0  0  0  0  0  0  0  0  0  0
   26.9911  -21.3066  -14.1543 O   0  0  0  0  0  0  0  0  0  0  0  0
   24.1906  -25.2841  -14.9395 N   0  0  0  0  0  0  0  0  0  0  0  0
   24.0643  -23.9830  -14.3411 C   0  0  0  0  0  0  0  0  0  0  0  0
   23.6346  -23.8809  -13.1809 O   0  0  0  0  0  0  0  0  0  0  0  0
   24.4771  -22.8641  -15.2085 C   0  0  0  0  0  0  0  0  0  0  0  0
   24.1496  -21.5681  -14.5888 C   0  0  2  0  0  0  0  0  0  0  0  0
   24.8398  -21.1412  -13.4377 N   0  0  0  0  0  0  0  0  0  0  0  0
   22.6763  -21.3207  -14.4995 C   0  0  0  0  0  0  0  0  0  0  0  0
   21.9810  -21.7449  -15.4518 O   0  0  0  0  0  0  0  0  0  0  0  0
   19.2459  -22.3079  -11.8498 C   0  0  0  0  0  0  0  0  0  0  0  0
   19.9666  -21.1060  -11.3706 C   0  0  2  0  0  0  0  0  0  0  0  0
   19.4199  -20.7223   -9.9813 C   0  0  0  0  0  0  0  0  0  0  0  0
   20.0695  -19.9281  -12.2529 C   0  0  0  0  0  0  0  0  0  0  0  0
   20.6442  -20.1106  -13.5876 C   0  0  2  0  0  0  0  0  0  0  0  0
   22.0379  -20.6564  -13.4347 N   0  0  0  0  0  0  0  0  0  0  0  0
   20.7135  -19.0300  -14.5174 C   0  0  0  0  0  0  0  0  0  0  0  0
   21.7771  -18.3219  -14.5982 O   0  0  0  0  0  0  0  0  0  0  0  0
   19.7093  -18.6261  -15.4136 O   0  0  0  0  0  0  0  0  0  0  0  0
  2  1  1  6
  2  3  1  0
  2 13  1  0
  3  4  1  0
  4  5  2  0
  5  6  1  0
  7  8  2  0
  7  6  1  0
  9  8  1  0
 10  9  2  0
 11 10  1  0
 11 12  2  0
 12  4  1  0
 12  7  1  0
 13 20  1  0
 13 14  2  0
 16 15  1  0
 17 16  2  0
 18 16  1  0
 19 18  1  1
 20 19  1  0
 21 19  1  0
 21 22  2  0
 24 26  1  0
 24 23  1  6
 25 24  1  0
 27 26  1  1
 27 28  1  0
 28 21  1  0
 29 27  1  0
 30 29  2  0
 31 29  1  0
M  END
$$$$
