WNL.pdb
     RDKit          3D

 31 32  0  0  1  0  0  0  0  0999 V2000
   28.3605  -21.4839   -9.4579 N   0  0  0  0  0  0  0  0  0  0  0  0
   26.9030  -21.2975   -9.6111 C   0  0  1  0  0  0  0  0  0  0  0  0
   26.3348  -20.8288   -8.3563 C   0  0  0  0  0  0  0  0  0  0  0  0
   27.1310  -19.9185   -7.5332 C   0  0  0  0  0  0  0  0  0  0  0  0
   27.1852  -18.5398   -7.7925 C   0  0  0  0  0  0  0  0  0  0  0  0
   27.9193  -17.9367   -6.8411 N   0  0  0  0  0  0  0  0  0  0  0  0
   28.3304  -18.9130   -5.9854 C   0  0  0  0  0  0  0  0  0  0  0  0
   29.1221  -18.8425   -4.8569 C   0  0  0  0  0  0  0  0  0  0  0  0
   29.4539  -19.9794   -4.1255 C   0  0  0  0  0  0  0  0  0  0  0  0
   28.9686  -21.1913   -4.5604 C   0  0  0  0  0  0  0  0  0  0  0  0
   28.1782  -21.2615   -5.6841 C   0  0  0  0  0  0  0  0  0  0  0  0
   27.8484  -20.1364   -6.4067 C   0  0  0  0  0  0  0  0  0  0  0  0
   26.5550  -20.6842  -10.8838 C   0  0  0  0  0  0  0  0  0  0  0  0
   27.3853  -20.3197  -11.7522 O   0  0  0  0  0  0  0  0  0  0  0  0
   26.1684  -21.0311  -14.2770 N   0  0  0  0  0  0  0  0  0  0  0  0
   25.6955  -22.3226  -13.8587 C   0  0  0  0  0  0  0  0  0  0  0  0
   26.1758  -23.3466  -14.3704 O   0  0  0  0  0  0  0  0  0  0  0  0
   24.6465  -22.2879  -12.8227 C   0  0  0  0  0  0  0  0  0  0  0  0
   24.4336  -20.9144  -12.3338 C   0  0  2  0  0  0  0  0  0  0  0  0
   25.1739  -20.4326  -11.2367 N   0  0  0  0  0  0  0  0  0  0  0  0
   22.9865  -20.5405  -12.2585 C   0  0  0  0  0  0  0  0  0  0  0  0
   22.3401  -21.0055  -11.2908 O   0  0  0  0  0  0  0  0  0  0  0  0
   19.0269  -16.3610  -14.6341 C   0  0  0  0  0  0  0  0  0  0  0  0
   19.4703  -17.2365  -13.5248 C   0  0  2  0  0  0  0  0  0  0  0  0
   19.3531  -16.4555  -12.2008 C   0  0  0  0  0  0  0  0  0  0  0  0
   20.7689  -17.9289  -13.6283 C   0  0  0  0  0  0  0  0  0  0  0  0
   20.9407  -19.1906  -12.9047 C   0  0  2  0  0  0  0  0  0  0  0  0
   22.3219  -19.7162  -13.1866 N   0  0  0  0  0  0  0  0  0  0  0  0
   20.0312  -20.2759  -13.0836 C   0  0  0  0  0  0  0  0  0  0  0  0
   20.2382  -21.1396  -14.0057 O   0  0  0  0  0  0  0  0  0  0  0  0
   18.8758  -20.5382  -12.3279 O   0  0  0  0  0  0  0  0  0  0  0  0
  2  1  1  1
  2  3  1  0
  2 13  1  0
  3  4  1  0
  4  5  2  0
  5  6  1  0
  7  8  2  0
  7  6  1  0
  9  8  1  0
 10  9  2  0
 11 10  1  0
 11 12  2  0
 12  4  1  0
 12  7  1  0
 13 20  1  0
 13 14  2  0
 16 15  1  0
 17 16  2  0
 18 16  1  0
 19 18  1  1
 20 19  1  0
 21 19  1  0
 21 22  2  0
 24 26  1  0
 24 23  1  6
 25 24  1  0
 27 26  1  6
 27 28  1  0
 28 21  1  0
 29 27  1  0
 30 29  2  0
 31 29  1  0
M  END
$$$$
