WNL.pdb
     RDKit          3D

 31 32  0  0  1  0  0  0  0  0999 V2000
   28.3111  -21.7877   -9.4567 N   0  0  0  0  0  0  0  0  0  0  0  0
   27.1487  -20.8828   -9.5702 C   0  0  1  0  0  0  0  0  0  0  0  0
   27.3761  -19.6908   -8.7675 C   0  0  0  0  0  0  0  0  0  0  0  0
   28.2136  -19.8093   -7.5740 C   0  0  0  0  0  0  0  0  0  0  0  0
   29.6150  -19.7612   -7.6436 C   0  0  0  0  0  0  0  0  0  0  0  0
   30.1242  -19.8127   -6.4003 N   0  0  0  0  0  0  0  0  0  0  0  0
   29.0666  -19.8935   -5.5465 C   0  0  0  0  0  0  0  0  0  0  0  0
   29.0295  -19.9920   -4.1701 C   0  0  0  0  0  0  0  0  0  0  0  0
   27.8264  -20.0935   -3.4775 C   0  0  0  0  0  0  0  0  0  0  0  0
   26.6596  -20.0945   -4.2067 C   0  0  0  0  0  0  0  0  0  0  0  0
   26.6962  -19.9947   -5.5783 C   0  0  0  0  0  0  0  0  0  0  0  0
   27.8866  -19.8924   -6.2635 C   0  0  0  0  0  0  0  0  0  0  0  0
   26.6421  -20.8020  -10.9318 C   0  0  0  0  0  0  0  0  0  0  0  0
   27.3429  -20.5434  -11.9409 O   0  0  0  0  0  0  0  0  0  0  0  0
   27.4453  -21.9649  -14.3237 N   0  0  0  0  0  0  0  0  0  0  0  0
   26.2025  -21.2443  -14.2679 C   0  0  0  0  0  0  0  0  0  0  0  0
   26.1127  -20.1338  -14.8154 O   0  0  0  0  0  0  0  0  0  0  0  0
   25.1241  -21.9333  -13.5351 C   0  0  0  0  0  0  0  0  0  0  0  0
   24.5847  -21.0778  -12.4637 C   0  0  2  0  0  0  0  0  0  0  0  0
   25.2385  -21.0094  -11.2180 N   0  0  0  0  0  0  0  0  0  0  0  0
   23.0981  -21.1832  -12.3267 C   0  0  0  0  0  0  0  0  0  0  0  0
   22.6722  -22.0340  -11.5112 O   0  0  0  0  0  0  0  0  0  0  0  0
   18.1817  -17.5997  -12.8102 C   0  0  0  0  0  0  0  0  0  0  0  0
   18.8930  -18.7138  -12.1419 C   0  0  2  0  0  0  0  0  0  0  0  0
   18.7135  -18.5719  -10.6174 C   0  0  0  0  0  0  0  0  0  0  0  0
   20.2992  -18.9859  -12.4954 C   0  0  0  0  0  0  0  0  0  0  0  0
   20.7160  -20.3810  -12.6541 C   0  0  2  0  0  0  0  0  0  0  0  0
   22.1697  -20.4019  -13.0411 N   0  0  0  0  0  0  0  0  0  0  0  0
   20.0296  -21.2617  -13.5431 C   0  0  0  0  0  0  0  0  0  0  0  0
   18.9923  -21.8959  -13.1421 O   0  0  0  0  0  0  0  0  0  0  0  0
   20.3603  -21.5304  -14.8822 O   0  0  0  0  0  0  0  0  0  0  0  0
  2  1  1  6
  2  3  1  0
  2 13  1  0
  3  4  1  0
  4  5  2  0
  5  6  1  0
  7  8  2  0
  7  6  1  0
  9  8  1  0
 10  9  2  0
 11 10  1  0
 11 12  2  0
 12  4  1  0
 12  7  1  0
 13 20  1  0
 13 14  2  0
 16 15  1  0
 17 16  2  0
 18 16  1  0
 19 18  1  1
 20 19  1  0
 21 19  1  0
 21 22  2  0
 24 26  1  0
 24 23  1  6
 25 24  1  0
 27 26  1  6
 27 28  1  0
 28 21  1  0
 29 27  1  0
 30 29  2  0
 31 29  1  0
M  END
$$$$
