YVL.pdb
     RDKit          3D

 28 28  0  0  1  0  0  0  0  0999 V2000
   19.4952  -14.9206  -18.6143 O   0  0  0  0  0  0  0  0  0  0  0  0
   20.2063  -15.7973  -17.7901 C   0  0  0  0  0  0  0  0  0  0  0  0
   19.5706  -16.7613  -17.0377 C   0  0  0  0  0  0  0  0  0  0  0  0
   20.2744  -17.6253  -16.2252 C   0  0  0  0  0  0  0  0  0  0  0  0
   21.6545  -17.5672  -16.1251 C   0  0  0  0  0  0  0  0  0  0  0  0
   22.3994  -18.5077  -15.2371 C   0  0  0  0  0  0  0  0  0  0  0  0
   23.4145  -19.3093  -16.0249 C   0  0  2  0  0  0  0  0  0  0  0  0
   22.7965  -20.1902  -16.9691 N   0  0  0  0  0  0  0  0  0  0  0  0
   24.3319  -20.0597  -15.1638 C   0  0  0  0  0  0  0  0  0  0  0  0
   23.9735  -21.1730  -14.7065 O   0  0  0  0  0  0  0  0  0  0  0  0
   22.2824  -16.5992  -16.8817 C   0  0  0  0  0  0  0  0  0  0  0  0
   21.5803  -15.7319  -17.6968 C   0  0  0  0  0  0  0  0  0  0  0  0
   28.6909  -20.7437  -12.9183 C   0  0  0  0  0  0  0  0  0  0  0  0
   27.9129  -20.0082  -13.9859 C   0  0  1  0  0  0  0  0  0  0  0  0
   28.3883  -20.4721  -15.3232 C   0  0  0  0  0  0  0  0  0  0  0  0
   26.4219  -20.2652  -13.7823 C   0  0  2  0  0  0  0  0  0  0  0  0
   25.6488  -19.5923  -14.8030 N   0  0  0  0  0  0  0  0  0  0  0  0
   26.0052  -19.9668  -12.4049 C   0  0  0  0  0  0  0  0  0  0  0  0
   25.9364  -18.7610  -12.0118 O   0  0  0  0  0  0  0  0  0  0  0  0
   21.5615  -21.5037  -10.2111 C   0  0  0  0  0  0  0  0  0  0  0  0
   22.8327  -20.7387  -10.5318 C   0  0  1  0  0  0  0  0  0  0  0  0
   22.5500  -19.2820  -10.1737 C   0  0  0  0  0  0  0  0  0  0  0  0
   23.9854  -21.1713   -9.6853 C   0  0  0  0  0  0  0  0  0  0  0  0
   25.2834  -20.5551  -10.0824 C   0  0  2  0  0  0  0  0  0  0  0  0
   25.6605  -20.9589  -11.4492 N   0  0  0  0  0  0  0  0  0  0  0  0
   26.4038  -20.7891   -9.1479 C   0  0  0  0  0  0  0  0  0  0  0  0
   26.5422  -20.2034   -7.9032 O   0  0  0  0  0  0  0  0  0  0  0  0
   27.3133  -21.5795   -9.4924 O   0  0  0  0  0  0  0  0  0  0  0  0
  2  1  1  0
  3  2  2  0
  4  3  1  0
  5 11  1  0
  5  4  2  0
  6  7  1  0
  6  5  1  0
  7  8  1  6
  7  9  1  0
  9 10  2  0
 11 12  2  0
 12  2  1  0
 14 16  1  0
 14 13  1  1
 15 14  1  0
 17  9  1  0
 16 17  1  6
 18 16  1  0
 18 19  2  0
 21 20  1  1
 21 23  1  0
 21 22  1  0
 24 23  1  1
 24 26  1  0
 24 25  1  0
 25 18  1  0
 26 27  1  0
 28 26  2  0
M  END
$$$$
