YVL.pdb
     RDKit          3D

 28 28  0  0  1  0  0  0  0  0999 V2000
   30.7051  -16.6502  -19.4328 O   0  0  0  0  0  0  0  0  0  0  0  0
   29.7494  -17.3076  -18.6532 C   0  0  0  0  0  0  0  0  0  0  0  0
   29.6225  -17.0630  -17.3028 C   0  0  0  0  0  0  0  0  0  0  0  0
   28.6787  -17.7129  -16.5356 C   0  0  0  0  0  0  0  0  0  0  0  0
   27.8116  -18.6435  -17.0839 C   0  0  0  0  0  0  0  0  0  0  0  0
   26.7991  -19.3405  -16.2372 C   0  0  0  0  0  0  0  0  0  0  0  0
   27.4492  -20.4059  -15.3794 C   0  0  2  0  0  0  0  0  0  0  0  0
   27.9749  -21.4851  -16.1595 N   0  0  0  0  0  0  0  0  0  0  0  0
   26.5499  -20.9247  -14.3461 C   0  0  0  0  0  0  0  0  0  0  0  0
   25.8678  -21.9519  -14.5840 O   0  0  0  0  0  0  0  0  0  0  0  0
   27.9459  -18.8820  -18.4362 C   0  0  0  0  0  0  0  0  0  0  0  0
   28.8904  -18.2326  -19.2079 C   0  0  0  0  0  0  0  0  0  0  0  0
   24.7805  -21.0793   -9.7382 C   0  0  0  0  0  0  0  0  0  0  0  0
   25.8065  -20.4922  -10.6809 C   0  0  1  0  0  0  0  0  0  0  0  0
   27.1424  -21.0694  -10.3466 C   0  0  0  0  0  0  0  0  0  0  0  0
   25.3915  -20.7925  -12.1190 C   0  0  2  0  0  0  0  0  0  0  0  0
   26.3972  -20.3194  -13.0448 N   0  0  0  0  0  0  0  0  0  0  0  0
   24.0304  -20.3146  -12.3997 C   0  0  0  0  0  0  0  0  0  0  0  0
   23.8345  -19.0914  -12.6804 O   0  0  0  0  0  0  0  0  0  0  0  0
   20.9911  -19.7098  -16.7162 C   0  0  0  0  0  0  0  0  0  0  0  0
   20.6949  -19.9758  -15.2513 C   0  0  1  0  0  0  0  0  0  0  0  0
   19.6467  -21.0851  -15.2278 C   0  0  0  0  0  0  0  0  0  0  0  0
   21.8864  -20.4975  -14.5161 C   0  0  0  0  0  0  0  0  0  0  0  0
   21.6477  -20.7016  -13.0589 C   0  0  2  0  0  0  0  0  0  0  0  0
   22.8795  -21.1463  -12.3818 N   0  0  0  0  0  0  0  0  0  0  0  0
   20.5227  -21.5992  -12.7245 C   0  0  0  0  0  0  0  0  0  0  0  0
   19.2345  -21.1915  -12.4317 O   0  0  0  0  0  0  0  0  0  0  0  0
   20.7320  -22.8347  -12.6989 O   0  0  0  0  0  0  0  0  0  0  0  0
  2  1  1  0
  3  2  2  0
  4  3  1  0
  5 11  1  0
  5  4  2  0
  6  7  1  0
  6  5  1  0
  7  8  1  6
  7  9  1  0
  9 10  2  0
 11 12  2  0
 12  2  1  0
 14 16  1  0
 14 13  1  1
 15 14  1  0
 17  9  1  0
 16 17  1  6
 18 16  1  0
 18 19  2  0
 21 20  1  6
 21 23  1  0
 21 22  1  0
 24 23  1  6
 24 26  1  0
 24 25  1  0
 25 18  1  0
 26 27  1  0
 28 26  2  0
M  END
$$$$
