YVL.pdb
     RDKit          3D

 28 28  0  0  1  0  0  0  0  0999 V2000
   18.8288  -14.7804  -18.3747 O   0  0  0  0  0  0  0  0  0  0  0  0
   19.6432  -15.6744  -17.6740 C   0  0  0  0  0  0  0  0  0  0  0  0
   19.1359  -16.8205  -17.1008 C   0  0  0  0  0  0  0  0  0  0  0  0
   19.9415  -17.7012  -16.4099 C   0  0  0  0  0  0  0  0  0  0  0  0
   21.2998  -17.4777  -16.2578 C   0  0  0  0  0  0  0  0  0  0  0  0
   22.1557  -18.4398  -15.5029 C   0  0  0  0  0  0  0  0  0  0  0  0
   23.0639  -19.2092  -16.4393 C   0  0  2  0  0  0  0  0  0  0  0  0
   22.3367  -20.1043  -17.2875 N   0  0  0  0  0  0  0  0  0  0  0  0
   24.1201  -19.9357  -15.7304 C   0  0  0  0  0  0  0  0  0  0  0  0
   23.9136  -21.1196  -15.3660 O   0  0  0  0  0  0  0  0  0  0  0  0
   21.7988  -16.3280  -16.8348 C   0  0  0  0  0  0  0  0  0  0  0  0
   20.9946  -15.4435  -17.5278 C   0  0  0  0  0  0  0  0  0  0  0  0
   27.6643  -20.6087  -16.6287 C   0  0  0  0  0  0  0  0  0  0  0  0
   27.7470  -20.0489  -15.2266 C   0  0  1  0  0  0  0  0  0  0  0  0
   28.3016  -18.6645  -15.3010 C   0  0  0  0  0  0  0  0  0  0  0  0
   26.3578  -20.0809  -14.5944 C   0  0  2  0  0  0  0  0  0  0  0  0
   25.4096  -19.3664  -15.4207 N   0  0  0  0  0  0  0  0  0  0  0  0
   26.3927  -19.6470  -13.1907 C   0  0  0  0  0  0  0  0  0  0  0  0
   25.8600  -18.5437  -12.8560 O   0  0  0  0  0  0  0  0  0  0  0  0
   24.4260  -21.9459   -8.7229 C   0  0  0  0  0  0  0  0  0  0  0  0
   24.2306  -20.7026   -9.5715 C   0  0  1  0  0  0  0  0  0  0  0  0
   24.8771  -19.5573   -8.7966 C   0  0  0  0  0  0  0  0  0  0  0  0
   24.9450  -20.7900  -10.8808 C   0  0  0  0  0  0  0  0  0  0  0  0
   26.3822  -20.4018  -10.8050 C   0  0  2  0  0  0  0  0  0  0  0  0
   26.9962  -20.3950  -12.1453 N   0  0  0  0  0  0  0  0  0  0  0  0
   27.2010  -21.1971   -9.8667 C   0  0  0  0  0  0  0  0  0  0  0  0
   27.6987  -20.7448   -8.6587 O   0  0  0  0  0  0  0  0  0  0  0  0
   27.4782  -22.3806  -10.1718 O   0  0  0  0  0  0  0  0  0  0  0  0
  2  1  1  0
  3  2  2  0
  4  3  1  0
  5 11  1  0
  5  4  2  0
  6  7  1  0
  6  5  1  0
  7  8  1  1
  7  9  1  0
  9 10  2  0
 11 12  2  0
 12  2  1  0
 14 16  1  0
 14 13  1  6
 15 14  1  0
 17  9  1  0
 16 17  1  6
 18 16  1  0
 18 19  2  0
 21 20  1  1
 21 23  1  0
 21 22  1  0
 24 23  1  6
 24 26  1  0
 24 25  1  0
 25 18  1  0
 26 27  1  0
 28 26  2  0
M  END
$$$$
