YVL.pdb
     RDKit          3D

 28 28  0  0  1  0  0  0  0  0999 V2000
   15.9737  -15.7876  -13.9462 O   0  0  0  0  0  0  0  0  0  0  0  0
   16.9328  -16.7137  -13.5269 C   0  0  0  0  0  0  0  0  0  0  0  0
   18.2715  -16.5500  -13.8109 C   0  0  0  0  0  0  0  0  0  0  0  0
   19.2160  -17.4653  -13.3961 C   0  0  0  0  0  0  0  0  0  0  0  0
   18.8663  -18.5940  -12.6737 C   0  0  0  0  0  0  0  0  0  0  0  0
   19.9018  -19.5763  -12.2367 C   0  0  0  0  0  0  0  0  0  0  0  0
   20.2639  -20.5211  -13.3636 C   0  0  2  0  0  0  0  0  0  0  0  0
   19.2012  -21.4289  -13.6738 N   0  0  0  0  0  0  0  0  0  0  0  0
   21.4988  -21.2643  -13.1019 C   0  0  0  0  0  0  0  0  0  0  0  0
   21.4479  -22.3242  -12.4303 O   0  0  0  0  0  0  0  0  0  0  0  0
   17.5242  -18.7498  -12.3941 C   0  0  0  0  0  0  0  0  0  0  0  0
   16.5752  -17.8347  -12.8082 C   0  0  0  0  0  0  0  0  0  0  0  0
   25.9494  -22.8066  -14.1683 C   0  0  0  0  0  0  0  0  0  0  0  0
   24.6708  -22.0880  -14.5355 C   0  0  1  0  0  0  0  0  0  0  0  0
   23.8117  -23.0217  -15.3227 C   0  0  0  0  0  0  0  0  0  0  0  0
   23.9839  -21.6091  -13.2590 C   0  0  2  0  0  0  0  0  0  0  0  0
   22.7960  -20.8484  -13.5790 N   0  0  0  0  0  0  0  0  0  0  0  0
   24.9255  -20.9226  -12.3635 C   0  0  0  0  0  0  0  0  0  0  0  0
   25.2360  -19.7103  -12.5808 O   0  0  0  0  0  0  0  0  0  0  0  0
   27.1591  -19.0127   -7.9482 C   0  0  0  0  0  0  0  0  0  0  0  0
   27.5583  -20.4525   -8.2160 C   0  0  1  0  0  0  0  0  0  0  0  0
   27.5879  -21.1422   -6.8546 C   0  0  0  0  0  0  0  0  0  0  0  0
   26.5465  -21.1787   -9.0415 C   0  0  0  0  0  0  0  0  0  0  0  0
   26.5744  -20.8071  -10.4849 C   0  0  2  0  0  0  0  0  0  0  0  0
   25.5331  -21.5332  -11.2346 N   0  0  0  0  0  0  0  0  0  0  0  0
   27.8861  -20.9558  -11.1485 C   0  0  0  0  0  0  0  0  0  0  0  0
   28.7654  -19.9244  -11.4214 O   0  0  0  0  0  0  0  0  0  0  0  0
   28.2504  -22.1021  -11.5007 O   0  0  0  0  0  0  0  0  0  0  0  0
  2  1  1  0
  3  2  2  0
  4  3  1  0
  5 11  1  0
  5  4  2  0
  6  7  1  0
  6  5  1  0
  7  8  1  1
  7  9  1  0
  9 10  2  0
 11 12  2  0
 12  2  1  0
 14 16  1  0
 14 13  1  1
 15 14  1  0
 17  9  1  0
 16 17  1  6
 18 16  1  0
 18 19  2  0
 21 20  1  1
 21 23  1  0
 21 22  1  0
 24 23  1  1
 24 26  1  0
 24 25  1  0
 25 18  1  0
 26 27  1  0
 28 26  2  0
M  END
$$$$
