YVL.pdb
     RDKit          3D

 28 28  0  0  1  0  0  0  0  0999 V2000
   19.4132  -18.1353  -14.0866 O   0  0  0  0  0  0  0  0  0  0  0  0
   20.4129  -18.6740  -13.2719 C   0  0  0  0  0  0  0  0  0  0  0  0
   21.7348  -18.3087  -13.4087 C   0  0  0  0  0  0  0  0  0  0  0  0
   22.7194  -18.8416  -12.6035 C   0  0  0  0  0  0  0  0  0  0  0  0
   22.4289  -19.7702  -11.6178 C   0  0  0  0  0  0  0  0  0  0  0  0
   23.5084  -20.3398  -10.7585 C   0  0  0  0  0  0  0  0  0  0  0  0
   24.6761  -20.8154  -11.5974 C   0  0  2  0  0  0  0  0  0  0  0  0
   24.3011  -21.8494  -12.5137 N   0  0  0  0  0  0  0  0  0  0  0  0
   25.8135  -21.2529  -10.7845 C   0  0  0  0  0  0  0  0  0  0  0  0
   25.8015  -22.4022  -10.2786 O   0  0  0  0  0  0  0  0  0  0  0  0
   21.1033  -20.1301  -11.4882 C   0  0  0  0  0  0  0  0  0  0  0  0
   20.1141  -19.5980  -12.2932 C   0  0  0  0  0  0  0  0  0  0  0  0
   30.4632  -21.4206   -9.5479 C   0  0  0  0  0  0  0  0  0  0  0  0
   29.3764  -20.8475  -10.4291 C   0  0  1  0  0  0  0  0  0  0  0  0
   29.3428  -21.6227  -11.7049 C   0  0  0  0  0  0  0  0  0  0  0  0
   28.0462  -20.9070   -9.6824 C   0  0  2  0  0  0  0  0  0  0  0  0
   26.9714  -20.4312  -10.5254 N   0  0  0  0  0  0  0  0  0  0  0  0
   28.1320  -20.2471   -8.3721 C   0  0  0  0  0  0  0  0  0  0  0  0
   27.5738  -19.1203   -8.1933 O   0  0  0  0  0  0  0  0  0  0  0  0
   27.8007  -17.4079   -4.4441 C   0  0  0  0  0  0  0  0  0  0  0  0
   27.5678  -18.8908   -4.2186 C   0  0  1  0  0  0  0  0  0  0  0  0
   26.1716  -19.0111   -3.6135 C   0  0  0  0  0  0  0  0  0  0  0  0
   27.5480  -19.6639   -5.4971 C   0  0  0  0  0  0  0  0  0  0  0  0
   28.9048  -20.0173   -6.0032 C   0  0  2  0  0  0  0  0  0  0  0  0
   28.8137  -20.7942   -7.2529 N   0  0  0  0  0  0  0  0  0  0  0  0
   29.7804  -20.7045   -5.0315 C   0  0  0  0  0  0  0  0  0  0  0  0
   30.0532  -22.0599   -5.0202 O   0  0  0  0  0  0  0  0  0  0  0  0
   30.3306  -20.0213   -4.1363 O   0  0  0  0  0  0  0  0  0  0  0  0
  2  1  1  0
  3  2  2  0
  4  3  1  0
  5 11  1  0
  5  4  2  0
  6  7  1  0
  6  5  1  0
  7  8  1  1
  7  9  1  0
  9 10  2  0
 11 12  2  0
 12  2  1  0
 14 16  1  0
 14 13  1  1
 15 14  1  0
 17  9  1  0
 16 17  1  6
 18 16  1  0
 18 19  2  0
 21 20  1  6
 21 23  1  0
 21 22  1  0
 24 23  1  1
 24 26  1  0
 24 25  1  0
 25 18  1  0
 26 27  1  0
 28 26  2  0
M  END
$$$$
