YVL.pdb
     RDKit          3D

 28 28  0  0  1  0  0  0  0  0999 V2000
   18.7816  -15.9129  -16.4782 O   0  0  0  0  0  0  0  0  0  0  0  0
   19.7003  -16.7761  -15.8748 C   0  0  0  0  0  0  0  0  0  0  0  0
   20.8826  -16.3155  -15.3367 C   0  0  0  0  0  0  0  0  0  0  0  0
   21.7876  -17.1693  -14.7419 C   0  0  0  0  0  0  0  0  0  0  0  0
   21.5534  -18.5316  -14.6556 C   0  0  0  0  0  0  0  0  0  0  0  0
   22.5465  -19.4414  -14.0120 C   0  0  0  0  0  0  0  0  0  0  0  0
   23.7766  -19.6039  -14.8804 C   0  0  2  0  0  0  0  0  0  0  0  0
   23.4484  -19.9789  -16.2224 N   0  0  0  0  0  0  0  0  0  0  0  0
   24.7438  -20.5489  -14.3172 C   0  0  0  0  0  0  0  0  0  0  0  0
   24.4765  -21.7760  -14.3183 O   0  0  0  0  0  0  0  0  0  0  0  0
   20.3676  -18.9838  -15.1969 C   0  0  0  0  0  0  0  0  0  0  0  0
   19.4585  -18.1311  -15.7937 C   0  0  0  0  0  0  0  0  0  0  0  0
   28.6033  -20.7077  -14.8265 C   0  0  0  0  0  0  0  0  0  0  0  0
   28.3391  -20.7645  -13.3389 C   0  0  1  0  0  0  0  0  0  0  0  0
   28.7038  -19.4452  -12.7421 C   0  0  0  0  0  0  0  0  0  0  0  0
   26.8721  -21.1174  -13.1063 C   0  0  2  0  0  0  0  0  0  0  0  0
   26.0111  -20.1513  -13.7523 N   0  0  0  0  0  0  0  0  0  0  0  0
   26.5874  -21.3318  -11.6806 C   0  0  0  0  0  0  0  0  0  0  0  0
   27.0199  -22.3746  -11.0987 O   0  0  0  0  0  0  0  0  0  0  0  0
   27.8699  -18.5077   -7.4671 C   0  0  0  0  0  0  0  0  0  0  0  0
   27.4451  -19.6565   -8.3637 C   0  0  1  0  0  0  0  0  0  0  0  0
   27.8497  -20.9339   -7.6326 C   0  0  0  0  0  0  0  0  0  0  0  0
   25.9632  -19.7183   -8.5446 C   0  0  0  0  0  0  0  0  0  0  0  0
   25.5195  -20.7872   -9.4841 C   0  0  2  0  0  0  0  0  0  0  0  0
   25.8415  -20.4289  -10.8775 N   0  0  0  0  0  0  0  0  0  0  0  0
   24.0997  -21.1791   -9.3672 C   0  0  0  0  0  0  0  0  0  0  0  0
   23.5004  -21.6821   -8.2273 O   0  0  0  0  0  0  0  0  0  0  0  0
   23.3610  -21.0532  -10.3719 O   0  0  0  0  0  0  0  0  0  0  0  0
  2  1  1  0
  3  2  2  0
  4  3  1  0
  5 11  1  0
  5  4  2  0
  6  7  1  0
  6  5  1  0
  7  8  1  6
  7  9  1  0
  9 10  2  0
 11 12  2  0
 12  2  1  0
 14 16  1  0
 14 13  1  6
 15 14  1  0
 17  9  1  0
 16 17  1  1
 18 16  1  0
 18 19  2  0
 21 20  1  1
 21 23  1  0
 21 22  1  0
 24 23  1  1
 24 26  1  0
 24 25  1  0
 25 18  1  0
 26 27  1  0
 28 26  2  0
M  END
$$$$
