YVL.pdb
     RDKit          3D

 28 28  0  0  1  0  0  0  0  0999 V2000
   21.0829  -12.7841  -17.2212 O   0  0  0  0  0  0  0  0  0  0  0  0
   21.6165  -13.9065  -16.5818 C   0  0  0  0  0  0  0  0  0  0  0  0
   22.8670  -13.8849  -16.0026 C   0  0  0  0  0  0  0  0  0  0  0  0
   23.3913  -14.9937  -15.3721 C   0  0  0  0  0  0  0  0  0  0  0  0
   22.6876  -16.1837  -15.2897 C   0  0  0  0  0  0  0  0  0  0  0  0
   23.2728  -17.3752  -14.6071 C   0  0  0  0  0  0  0  0  0  0  0  0
   24.3922  -17.9773  -15.4305 C   0  0  2  0  0  0  0  0  0  0  0  0
   23.9427  -18.4237  -16.7143 N   0  0  0  0  0  0  0  0  0  0  0  0
   25.0826  -19.0655  -14.7338 C   0  0  0  0  0  0  0  0  0  0  0  0
   24.4686  -20.1371  -14.5068 O   0  0  0  0  0  0  0  0  0  0  0  0
   21.4369  -16.1962  -15.8722 C   0  0  0  0  0  0  0  0  0  0  0  0
   20.9084  -15.0871  -16.5047 C   0  0  0  0  0  0  0  0  0  0  0  0
   28.9760  -21.4466  -12.9852 C   0  0  0  0  0  0  0  0  0  0  0  0
   28.4358  -20.3465  -13.8705 C   0  0  1  0  0  0  0  0  0  0  0  0
   28.4890  -20.8104  -15.2888 C   0  0  0  0  0  0  0  0  0  0  0  0
   27.0155  -20.0031  -13.4285 C   0  0  2  0  0  0  0  0  0  0  0  0
   26.4519  -18.9831  -14.2854 N   0  0  0  0  0  0  0  0  0  0  0  0
   26.9558  -19.6955  -11.9927 C   0  0  0  0  0  0  0  0  0  0  0  0
   27.9582  -19.1707  -11.4158 O   0  0  0  0  0  0  0  0  0  0  0  0
   27.9266  -20.9280   -7.2965 C   0  0  0  0  0  0  0  0  0  0  0  0
   26.7967  -19.9375   -7.5122 C   0  0  1  0  0  0  0  0  0  0  0  0
   27.1621  -18.6976   -6.7002 C   0  0  0  0  0  0  0  0  0  0  0  0
   26.6890  -19.4996   -8.9366 C   0  0  0  0  0  0  0  0  0  0  0  0
   26.0092  -20.4917   -9.8174 C   0  0  2  0  0  0  0  0  0  0  0  0
   25.8225  -19.9480  -11.1750 N   0  0  0  0  0  0  0  0  0  0  0  0
   24.7344  -21.0272   -9.2966 C   0  0  0  0  0  0  0  0  0  0  0  0
   24.5929  -21.7706   -8.1395 O   0  0  0  0  0  0  0  0  0  0  0  0
   23.6838  -20.8003   -9.9412 O   0  0  0  0  0  0  0  0  0  0  0  0
  2  1  1  0
  3  2  2  0
  4  3  1  0
  5 11  1  0
  5  4  2  0
  6  7  1  0
  6  5  1  0
  7  8  1  6
  7  9  1  0
  9 10  2  0
 11 12  2  0
 12  2  1  0
 14 16  1  0
 14 13  1  1
 15 14  1  0
 17  9  1  0
 16 17  1  6
 18 16  1  0
 18 19  2  0
 21 20  1  6
 21 23  1  0
 21 22  1  0
 24 23  1  1
 24 26  1  0
 24 25  1  0
 25 18  1  0
 26 27  1  0
 28 26  2  0
M  END
$$$$
