YVL.pdb
     RDKit          3D

 28 28  0  0  1  0  0  0  0  0999 V2000
   19.3903  -14.8911  -17.1614 O   0  0  0  0  0  0  0  0  0  0  0  0
   19.8721  -15.6933  -16.1233 C   0  0  0  0  0  0  0  0  0  0  0  0
   21.1462  -16.2183  -16.1444 C   0  0  0  0  0  0  0  0  0  0  0  0
   21.6194  -17.0097  -15.1188 C   0  0  0  0  0  0  0  0  0  0  0  0
   20.8379  -17.3159  -14.0171 C   0  0  0  0  0  0  0  0  0  0  0  0
   21.3653  -18.1778  -12.9183 C   0  0  0  0  0  0  0  0  0  0  0  0
   21.7182  -19.5579  -13.4325 C   0  0  2  0  0  0  0  0  0  0  0  0
   20.5569  -20.3504  -13.7022 N   0  0  0  0  0  0  0  0  0  0  0  0
   22.6218  -20.2806  -12.5342 C   0  0  0  0  0  0  0  0  0  0  0  0
   22.1392  -21.0211  -11.6421 O   0  0  0  0  0  0  0  0  0  0  0  0
   19.5640  -16.7862  -14.0045 C   0  0  0  0  0  0  0  0  0  0  0  0
   19.0867  -15.9929  -15.0304 C   0  0  0  0  0  0  0  0  0  0  0  0
   26.5904  -22.9212  -12.0658 C   0  0  0  0  0  0  0  0  0  0  0  0
   25.6726  -22.0149  -12.8546 C   0  0  1  0  0  0  0  0  0  0  0  0
   24.7673  -22.8638  -13.6849 C   0  0  0  0  0  0  0  0  0  0  0  0
   24.8999  -21.1229  -11.8861 C   0  0  2  0  0  0  0  0  0  0  0  0
   24.0605  -20.1958  -12.6128 N   0  0  0  0  0  0  0  0  0  0  0  0
   25.7915  -20.4955  -10.9007 C   0  0  0  0  0  0  0  0  0  0  0  0
   26.4679  -19.4696  -11.2221 O   0  0  0  0  0  0  0  0  0  0  0  0
   27.8233  -18.4870   -6.3150 C   0  0  0  0  0  0  0  0  0  0  0  0
   27.7909  -20.0025   -6.3938 C   0  0  1  0  0  0  0  0  0  0  0  0
   27.4507  -20.4906   -4.9881 C   0  0  0  0  0  0  0  0  0  0  0  0
   26.7079  -20.5019   -7.2938 C   0  0  0  0  0  0  0  0  0  0  0  0
   27.0555  -20.4350   -8.7419 C   0  0  2  0  0  0  0  0  0  0  0  0
   25.9577  -20.9652   -9.5709 N   0  0  0  0  0  0  0  0  0  0  0  0
   28.3358  -21.0726   -9.1125 C   0  0  0  0  0  0  0  0  0  0  0  0
   29.5600  -20.4327   -9.1712 O   0  0  0  0  0  0  0  0  0  0  0  0
   28.3340  -22.2923   -9.4007 O   0  0  0  0  0  0  0  0  0  0  0  0
  2  1  1  0
  3  2  2  0
  4  3  1  0
  5 11  1  0
  5  4  2  0
  6  7  1  0
  6  5  1  0
  7  8  1  1
  7  9  1  0
  9 10  2  0
 11 12  2  0
 12  2  1  0
 14 16  1  0
 14 13  1  1
 15 14  1  0
 17  9  1  0
 16 17  1  6
 18 16  1  0
 18 19  2  0
 21 20  1  1
 21 23  1  0
 21 22  1  0
 24 23  1  1
 24 26  1  0
 24 25  1  0
 25 18  1  0
 26 27  1  0
 28 26  2  0
M  END
$$$$
