YVL.pdb
     RDKit          3D

 28 28  0  0  1  0  0  0  0  0999 V2000
   19.2302  -18.1768  -15.1837 O   0  0  0  0  0  0  0  0  0  0  0  0
   19.2223  -16.8049  -15.4504 C   0  0  0  0  0  0  0  0  0  0  0  0
   20.1158  -16.2321  -16.3297 C   0  0  0  0  0  0  0  0  0  0  0  0
   20.1060  -14.8781  -16.5912 C   0  0  0  0  0  0  0  0  0  0  0  0
   19.1981  -14.0269  -15.9835 C   0  0  0  0  0  0  0  0  0  0  0  0
   19.2050  -12.5630  -16.2754 C   0  0  0  0  0  0  0  0  0  0  0  0
   18.1289  -12.2043  -17.2789 C   0  0  2  0  0  0  0  0  0  0  0  0
   18.3425  -12.8270  -18.5501 N   0  0  0  0  0  0  0  0  0  0  0  0
   17.9749  -10.7574  -17.4480 C   0  0  0  0  0  0  0  0  0  0  0  0
   18.6551  -10.1648  -18.3216 O   0  0  0  0  0  0  0  0  0  0  0  0
   18.3076  -14.6089  -15.1048 C   0  0  0  0  0  0  0  0  0  0  0  0
   18.3146  -15.9652  -14.8405 C   0  0  0  0  0  0  0  0  0  0  0  0
   15.6150   -6.5086  -17.0042 C   0  0  0  0  0  0  0  0  0  0  0  0
   15.6225   -8.0204  -17.0191 C   0  0  1  0  0  0  0  0  0  0  0  0
   15.0654   -8.4842  -18.3246 C   0  0  0  0  0  0  0  0  0  0  0  0
   17.0492   -8.5141  -16.7925 C   0  0  2  0  0  0  0  0  0  0  0  0
   17.0708   -9.9543  -16.6601 N   0  0  0  0  0  0  0  0  0  0  0  0
   17.7034   -7.7902  -15.6934 C   0  0  0  0  0  0  0  0  0  0  0  0
   17.3547   -8.0135  -14.4927 O   0  0  0  0  0  0  0  0  0  0  0  0
   22.0110   -6.1572  -12.6107 C   0  0  0  0  0  0  0  0  0  0  0  0
   21.3989   -5.2719  -13.6810 C   0  0  1  0  0  0  0  0  0  0  0  0
   22.5584   -4.4960  -14.3003 C   0  0  0  0  0  0  0  0  0  0  0  0
   20.7754   -6.0628  -14.7847 C   0  0  0  0  0  0  0  0  0  0  0  0
   19.2875   -6.1199  -14.7126 C   0  0  2  0  0  0  0  0  0  0  0  0
   18.7318   -6.8289  -15.8797 N   0  0  0  0  0  0  0  0  0  0  0  0
   18.6150   -4.8167  -14.5327 C   0  0  0  0  0  0  0  0  0  0  0  0
   18.2565   -4.2632  -13.3175 O   0  0  0  0  0  0  0  0  0  0  0  0
   18.3381   -4.1420  -15.5519 O   0  0  0  0  0  0  0  0  0  0  0  0
  2  1  1  0
  3  2  2  0
  4  3  1  0
  5 11  1  0
  5  4  2  0
  6  7  1  0
  6  5  1  0
  7  8  1  6
  7  9  1  0
  9 10  2  0
 11 12  2  0
 12  2  1  0
 14 16  1  0
 14 13  1  6
 15 14  1  0
 17  9  1  0
 16 17  1  1
 18 16  1  0
 18 19  2  0
 21 20  1  1
 21 23  1  0
 21 22  1  0
 24 23  1  6
 24 26  1  0
 24 25  1  0
 25 18  1  0
 26 27  1  0
 28 26  2  0
M  END
$$$$
