NYQ.pdb
     RDKit          3D

 30 30  0  0  1  0  0  0  0  0999 V2000
   43.7948   -8.4509   -8.7609 N   0  0  0  0  0  0  0  0  0  0  0  0
   42.8966   -9.4079   -9.2796 C   0  0  0  0  0  0  0  0  0  0  0  0
   43.3846  -10.4724   -9.7388 O   0  0  0  0  0  0  0  0  0  0  0  0
   41.4285   -9.2506   -9.3223 C   0  0  0  0  0  0  0  0  0  0  0  0
   41.0635   -7.9901   -8.5735 C   0  0  2  0  0  0  0  0  0  0  0  0
   41.0103   -8.3055   -7.1793 N   0  0  0  0  0  0  0  0  0  0  0  0
   39.7698   -7.4242   -9.0355 C   0  0  0  0  0  0  0  0  0  0  0  0
   38.7561   -8.1748   -8.9585 O   0  0  0  0  0  0  0  0  0  0  0  0
   37.6358   -4.3608   -3.6895 O   0  0  0  0  0  0  0  0  0  0  0  0
   37.6749   -4.3761   -5.0719 C   0  0  0  0  0  0  0  0  0  0  0  0
   38.7612   -3.8172   -5.7112 C   0  0  0  0  0  0  0  0  0  0  0  0
   38.8585   -3.8019   -7.1041 C   0  0  0  0  0  0  0  0  0  0  0  0
   37.8480   -4.3568   -7.8530 C   0  0  0  0  0  0  0  0  0  0  0  0
   37.9562   -4.3389   -9.3146 C   0  0  0  0  0  0  0  0  0  0  0  0
   38.3171   -5.6447   -9.9210 C   0  0  2  0  0  0  0  0  0  0  0  0
   39.6209   -6.1281   -9.5414 N   0  0  0  0  0  0  0  0  0  0  0  0
   38.2420   -5.5072  -11.4205 C   0  0  0  0  0  0  0  0  0  0  0  0
   39.3062   -5.3736  -12.0685 O   0  0  0  0  0  0  0  0  0  0  0  0
   36.7573   -4.9182   -7.2201 C   0  0  0  0  0  0  0  0  0  0  0  0
   36.6646   -4.9314   -5.8424 C   0  0  0  0  0  0  0  0  0  0  0  0
   34.5974   -8.3901  -15.1461 N   0  0  0  0  0  0  0  0  0  0  0  0
   35.9901   -8.6740  -15.1960 C   0  0  0  0  0  0  0  0  0  0  0  0
   36.4257   -9.7562  -15.6471 O   0  0  0  0  0  0  0  0  0  0  0  0
   36.9056   -7.5943  -14.6735 C   0  0  0  0  0  0  0  0  0  0  0  0
   36.1014   -6.4414  -14.1762 C   0  0  0  0  0  0  0  0  0  0  0  0
   36.8867   -5.3362  -13.5584 C   0  0  2  0  0  0  0  0  0  0  0  0
   37.0016   -5.5262  -12.1007 N   0  0  0  0  0  0  0  0  0  0  0  0
   36.4364   -3.9773  -13.8759 C   0  0  0  0  0  0  0  0  0  0  0  0
   35.8774   -3.2665  -13.0101 O   0  0  0  0  0  0  0  0  0  0  0  0
   36.6093   -3.4266  -15.1389 O   0  0  0  0  0  0  0  0  0  0  0  0
  1  2  1  0
  2  3  2  0
  4  5  1  0
  4  2  1  0
  5  7  1  0
  5  6  1  1
  7  8  2  0
  9 10  1  0
 10 11  2  0
 10 20  1  0
 11 12  1  0
 12 13  2  0
 13 14  1  0
 15 14  1  1
 16 15  1  0
 16  7  1  0
 17 15  1  0
 17 27  1  0
 18 17  2  0
 19 13  1  0
 20 19  2  0
 21 22  1  0
 22 24  1  0
 22 23  2  0
 24 25  1  0
 26 25  1  1
 26 27  1  0
 26 28  1  0
 28 30  1  0
 29 28  2  0
M  END
$$$$
