NYQ.pdb
     RDKit          3D

 30 30  0  0  1  0  0  0  0  0999 V2000
   28.0577  -26.3911  -17.5933 N   0  0  0  0  0  0  0  0  0  0  0  0
   27.1821  -25.2845  -17.6041 C   0  0  0  0  0  0  0  0  0  0  0  0
   26.9911  -24.7064  -18.7048 O   0  0  0  0  0  0  0  0  0  0  0  0
   26.4752  -24.7567  -16.4192 C   0  0  0  0  0  0  0  0  0  0  0  0
   26.6438  -23.2555  -16.3947 C   0  0  2  0  0  0  0  0  0  0  0  0
   28.0150  -22.9708  -16.1035 N   0  0  0  0  0  0  0  0  0  0  0  0
   25.7488  -22.6121  -15.3985 C   0  0  0  0  0  0  0  0  0  0  0  0
   25.3404  -23.3338  -14.4450 O   0  0  0  0  0  0  0  0  0  0  0  0
   29.6856  -20.9797  -10.6461 O   0  0  0  0  0  0  0  0  0  0  0  0
   28.6032  -20.6148  -11.4257 C   0  0  0  0  0  0  0  0  0  0  0  0
   27.3375  -20.9748  -11.0142 C   0  0  0  0  0  0  0  0  0  0  0  0
   26.2054  -20.6358  -11.7578 C   0  0  0  0  0  0  0  0  0  0  0  0
   26.3579  -19.9272  -12.9260 C   0  0  0  0  0  0  0  0  0  0  0  0
   25.1658  -19.5732  -13.7019 C   0  0  0  0  0  0  0  0  0  0  0  0
   24.5325  -20.7128  -14.4113 C   0  0  2  0  0  0  0  0  0  0  0  0
   25.3439  -21.2742  -15.4622 N   0  0  0  0  0  0  0  0  0  0  0  0
   23.2168  -20.2446  -14.9791 C   0  0  0  0  0  0  0  0  0  0  0  0
   23.2134  -19.6439  -16.0789 O   0  0  0  0  0  0  0  0  0  0  0  0
   27.6219  -19.5632  -13.3446 C   0  0  0  0  0  0  0  0  0  0  0  0
   28.7391  -19.9004  -12.6064 C   0  0  0  0  0  0  0  0  0  0  0  0
   18.5917  -23.4924  -14.8424 N   0  0  0  0  0  0  0  0  0  0  0  0
   18.0780  -22.5587  -13.9005 C   0  0  0  0  0  0  0  0  0  0  0  0
   17.2273  -22.8873  -13.0446 O   0  0  0  0  0  0  0  0  0  0  0  0
   18.6202  -21.1539  -13.9970 C   0  0  0  0  0  0  0  0  0  0  0  0
   19.7426  -21.1073  -14.9773 C   0  0  0  0  0  0  0  0  0  0  0  0
   20.7001  -19.9803  -14.7964 C   0  0  2  0  0  0  0  0  0  0  0  0
   21.9980  -20.4702  -14.2969 N   0  0  0  0  0  0  0  0  0  0  0  0
   20.2181  -18.8558  -13.9880 C   0  0  0  0  0  0  0  0  0  0  0  0
   20.4240  -18.8164  -12.7538 O   0  0  0  0  0  0  0  0  0  0  0  0
   19.5191  -17.7969  -14.5523 O   0  0  0  0  0  0  0  0  0  0  0  0
  1  2  1  0
  2  3  2  0
  4  5  1  0
  4  2  1  0
  5  7  1  0
  5  6  1  1
  7  8  2  0
  9 10  1  0
 10 11  2  0
 10 20  1  0
 11 12  1  0
 12 13  2  0
 13 14  1  0
 15 14  1  6
 16 15  1  0
 16  7  1  0
 17 15  1  0
 17 27  1  0
 18 17  2  0
 19 13  1  0
 20 19  2  0
 21 22  1  0
 22 24  1  0
 22 23  2  0
 24 25  1  0
 26 25  1  1
 26 27  1  0
 26 28  1  0
 28 30  1  0
 29 28  2  0
M  END
$$$$
