NYQ.pdb
     RDKit          3D

 30 30  0  0  1  0  0  0  0  0999 V2000
   29.2177  -22.3132  -19.5229 N   0  0  0  0  0  0  0  0  0  0  0  0
   29.1362  -23.4706  -18.7197 C   0  0  0  0  0  0  0  0  0  0  0  0
   29.7668  -24.4890  -19.1039 O   0  0  0  0  0  0  0  0  0  0  0  0
   28.3660  -23.5729  -17.4634 C   0  0  0  0  0  0  0  0  0  0  0  0
   27.6235  -22.2738  -17.2540 C   0  0  2  0  0  0  0  0  0  0  0  0
   28.5629  -21.2032  -17.3860 N   0  0  0  0  0  0  0  0  0  0  0  0
   26.9516  -22.2251  -15.9298 C   0  0  0  0  0  0  0  0  0  0  0  0
   26.1317  -23.1507  -15.6690 O   0  0  0  0  0  0  0  0  0  0  0  0
   24.2048  -20.2769   -7.8136 O   0  0  0  0  0  0  0  0  0  0  0  0
   24.9055  -20.3226   -9.0051 C   0  0  0  0  0  0  0  0  0  0  0  0
   24.7887  -19.2672   -9.8846 C   0  0  0  0  0  0  0  0  0  0  0  0
   25.4708  -19.2548  -11.1029 C   0  0  0  0  0  0  0  0  0  0  0  0
   26.2763  -20.3194  -11.4312 C   0  0  0  0  0  0  0  0  0  0  0  0
   26.9907  -20.3004  -12.7109 C   0  0  0  0  0  0  0  0  0  0  0  0
   26.4589  -21.2431  -13.7266 C   0  0  2  0  0  0  0  0  0  0  0  0
   27.1767  -21.2258  -14.9765 N   0  0  0  0  0  0  0  0  0  0  0  0
   25.0085  -20.9099  -13.9680 C   0  0  0  0  0  0  0  0  0  0  0  0
   24.7264  -19.9756  -14.7540 O   0  0  0  0  0  0  0  0  0  0  0  0
   26.3983  -21.3797  -10.5559 C   0  0  0  0  0  0  0  0  0  0  0  0
   25.7221  -21.3883   -9.3519 C   0  0  0  0  0  0  0  0  0  0  0  0
   20.6645  -24.7508  -14.9351 N   0  0  0  0  0  0  0  0  0  0  0  0
   19.7655  -23.6589  -14.7864 C   0  0  0  0  0  0  0  0  0  0  0  0
   18.5546  -23.7578  -15.0835 O   0  0  0  0  0  0  0  0  0  0  0  0
   20.3597  -22.3796  -14.2505 C   0  0  0  0  0  0  0  0  0  0  0  0
   21.8257  -22.5491  -14.0375 C   0  0  0  0  0  0  0  0  0  0  0  0
   22.5429  -21.3376  -13.5501 C   0  0  2  0  0  0  0  0  0  0  0  0
   23.9712  -21.6280  -13.3277 N   0  0  0  0  0  0  0  0  0  0  0  0
   21.9550  -20.6737  -12.3822 C   0  0  0  0  0  0  0  0  0  0  0  0
   22.1950  -21.0806  -11.2228 O   0  0  0  0  0  0  0  0  0  0  0  0
   21.1150  -19.5755  -12.5117 O   0  0  0  0  0  0  0  0  0  0  0  0
  1  2  1  0
  2  3  2  0
  4  5  1  0
  4  2  1  0
  5  7  1  0
  5  6  1  1
  7  8  2  0
  9 10  1  0
 10 11  2  0
 10 20  1  0
 11 12  1  0
 12 13  2  0
 13 14  1  0
 15 14  1  1
 16 15  1  0
 16  7  1  0
 17 15  1  0
 17 27  1  0
 18 17  2  0
 19 13  1  0
 20 19  2  0
 21 22  1  0
 22 24  1  0
 22 23  2  0
 24 25  1  0
 26 25  1  1
 26 27  1  0
 26 28  1  0
 28 30  1  0
 29 28  2  0
M  END
$$$$
