SVL.pdb
     RDKit          3D

 22 21  0  0  1  0  0  0  0  0999 V2000
    7.9949  -18.7343   22.8429 O   0  0  0  0  0  0  0  0  0  0  0  0
    6.8527  -18.8540   22.0565 C   0  0  0  0  0  0  0  0  0  0  0  0
    7.2178  -18.3561   20.6709 C   0  0  2  0  0  0  0  0  0  0  0  0
    8.1173  -19.3111   20.0554 N   0  0  0  0  0  0  0  0  0  0  0  0
    7.9684  -17.0853   20.8300 C   0  0  0  0  0  0  0  0  0  0  0  0
    9.2403  -17.1158   20.7868 O   0  0  0  0  0  0  0  0  0  0  0  0
    6.9289  -13.4499   19.2946 C   0  0  0  0  0  0  0  0  0  0  0  0
    7.3025  -13.4011   20.7681 C   0  0  2  0  0  0  0  0  0  0  0  0
    7.9586  -12.0721   20.9980 C   0  0  0  0  0  0  0  0  0  0  0  0
    8.1715  -14.5916   21.1321 C   0  0  2  0  0  0  0  0  0  0  0  0
    7.3781  -15.8195   21.0295 N   0  0  0  0  0  0  0  0  0  0  0  0
    8.6873  -14.5454   22.5118 C   0  0  0  0  0  0  0  0  0  0  0  0
    9.6558  -13.7572   22.7954 O   0  0  0  0  0  0  0  0  0  0  0  0
    5.8069  -12.4770   26.8603 C   0  0  0  0  0  0  0  0  0  0  0  0
    7.0838  -13.1617   26.5291 C   0  0  2  0  0  0  0  0  0  0  0  0
    8.2590  -12.2206   26.8184 C   0  0  0  0  0  0  0  0  0  0  0  0
    7.1886  -13.7972   25.1990 C   0  0  0  0  0  0  0  0  0  0  0  0
    8.2602  -14.7930   24.9807 C   0  0  2  0  0  0  0  0  0  0  0  0
    8.2066  -15.3093   23.6067 N   0  0  0  0  0  0  0  0  0  0  0  0
    7.9668  -15.9544   25.8988 C   0  0  0  0  0  0  0  0  0  0  0  0
    7.0596  -16.7778   25.6511 O   0  0  0  0  0  0  0  0  0  0  0  0
    8.7020  -16.1482   27.0598 O   0  0  0  0  0  0  0  0  0  0  0  0
  2  1  1  0
  3  2  1  0
  3  4  1  1
  5  3  1  0
  5  6  2  0
  8  7  1  6
  8 10  1  0
  9  8  1  0
 10 11  1  1
 10 12  1  0
 11  5  1  0
 12 19  1  0
 13 12  2  0
 15 14  1  6
 16 15  1  0
 17 15  1  0
 18 17  1  6
 19 18  1  0
 20 22  1  0
 20 18  1  0
 21 20  2  0
M  END
$$$$
