SVL.pdb
     RDKit          3D

 22 21  0  0  1  0  0  0  0  0999 V2000
    6.2320  -20.4743   23.2969 O   0  0  0  0  0  0  0  0  0  0  0  0
    6.8225  -19.2139   23.2922 C   0  0  0  0  0  0  0  0  0  0  0  0
    6.7602  -18.7038   21.8650 C   0  0  2  0  0  0  0  0  0  0  0  0
    7.3808  -19.6816   20.9939 N   0  0  0  0  0  0  0  0  0  0  0  0
    7.5781  -17.4673   21.7904 C   0  0  0  0  0  0  0  0  0  0  0  0
    8.8216  -17.5699   21.5379 O   0  0  0  0  0  0  0  0  0  0  0  0
    6.7432  -13.9568   20.0695 C   0  0  0  0  0  0  0  0  0  0  0  0
    7.1754  -13.7727   21.5160 C   0  0  2  0  0  0  0  0  0  0  0  0
    7.9462  -12.4872   21.5706 C   0  0  0  0  0  0  0  0  0  0  0  0
    7.9572  -14.9839   21.9918 C   0  0  2  0  0  0  0  0  0  0  0  0
    7.0827  -16.1599   21.9799 N   0  0  0  0  0  0  0  0  0  0  0  0
    8.4615  -14.8562   23.3706 C   0  0  0  0  0  0  0  0  0  0  0  0
    9.2669  -13.9039   23.6603 O   0  0  0  0  0  0  0  0  0  0  0  0
    8.5941  -12.2779   26.7549 C   0  0  0  0  0  0  0  0  0  0  0  0
    7.4448  -12.9749   26.1206 C   0  0  2  0  0  0  0  0  0  0  0  0
    6.1479  -12.2257   26.4484 C   0  0  0  0  0  0  0  0  0  0  0  0
    7.3242  -14.4303   26.3470 C   0  0  0  0  0  0  0  0  0  0  0  0
    8.4037  -15.3091   25.8467 C   0  0  2  0  0  0  0  0  0  0  0  0
    8.1367  -15.7075   24.4584 N   0  0  0  0  0  0  0  0  0  0  0  0
    8.3616  -16.5660   26.6809 C   0  0  0  0  0  0  0  0  0  0  0  0
    7.7077  -17.5707   26.3270 O   0  0  0  0  0  0  0  0  0  0  0  0
    9.0546  -16.6484   27.8804 O   0  0  0  0  0  0  0  0  0  0  0  0
  2  1  1  0
  3  2  1  0
  3  4  1  6
  5  3  1  0
  5  6  2  0
  8  7  1  6
  8 10  1  0
  9  8  1  0
 10 11  1  1
 10 12  1  0
 11  5  1  0
 12 19  1  0
 13 12  2  0
 15 14  1  1
 16 15  1  0
 17 15  1  0
 18 17  1  1
 19 18  1  0
 20 22  1  0
 20 18  1  0
 21 20  2  0
M  END
$$$$
