SVL.pdb
     RDKit          3D

 22 21  0  0  1  0  0  0  0  0999 V2000
   10.7603  -19.0082   21.7766 O   0  0  0  0  0  0  0  0  0  0  0  0
   11.8279  -18.5582   21.0051 C   0  0  0  0  0  0  0  0  0  0  0  0
   11.2520  -17.6217   19.9599 C   0  0  2  0  0  0  0  0  0  0  0  0
   12.3365  -17.1072   19.1481 N   0  0  0  0  0  0  0  0  0  0  0  0
   10.6490  -16.4664   20.6706 C   0  0  0  0  0  0  0  0  0  0  0  0
   11.4069  -15.5148   21.0456 O   0  0  0  0  0  0  0  0  0  0  0  0
    7.6731  -14.1556   19.6668 C   0  0  0  0  0  0  0  0  0  0  0  0
    7.4276  -14.7516   21.0443 C   0  0  2  0  0  0  0  0  0  0  0  0
    6.6674  -13.7214   21.8255 C   0  0  0  0  0  0  0  0  0  0  0  0
    8.7413  -15.1667   21.6819 C   0  0  2  0  0  0  0  0  0  0  0  0
    9.2773  -16.3313   20.9719 N   0  0  0  0  0  0  0  0  0  0  0  0
    8.6113  -15.5660   23.0944 C   0  0  0  0  0  0  0  0  0  0  0  0
    8.6731  -16.8065   23.4059 O   0  0  0  0  0  0  0  0  0  0  0  0
    6.5501  -12.8949   25.4567 C   0  0  0  0  0  0  0  0  0  0  0  0
    7.3245  -13.2203   26.6828 C   0  0  2  0  0  0  0  0  0  0  0  0
    7.5707  -11.9388   27.4876 C   0  0  0  0  0  0  0  0  0  0  0  0
    8.5542  -14.0229   26.5165 C   0  0  0  0  0  0  0  0  0  0  0  0
    8.5231  -15.1664   25.5788 C   0  0  2  0  0  0  0  0  0  0  0  0
    8.4194  -14.6893   24.1935 N   0  0  0  0  0  0  0  0  0  0  0  0
    7.2589  -15.9359   25.8747 C   0  0  0  0  0  0  0  0  0  0  0  0
    6.2257  -15.7967   25.1854 O   0  0  0  0  0  0  0  0  0  0  0  0
    7.2017  -16.8324   26.9325 O   0  0  0  0  0  0  0  0  0  0  0  0
  2  1  1  0
  3  2  1  0
  3  4  1  6
  5  3  1  0
  5  6  2  0
  8  7  1  6
  8 10  1  0
  9  8  1  0
 10 11  1  6
 10 12  1  0
 11  5  1  0
 12 19  1  0
 13 12  2  0
 15 14  1  6
 16 15  1  0
 17 15  1  0
 18 17  1  1
 19 18  1  0
 20 22  1  0
 20 18  1  0
 21 20  2  0
M  END
$$$$
