SVL.pdb
     RDKit          3D

 22 21  0  0  1  0  0  0  0  0999 V2000
    7.0296  -14.5884   18.8796 O   0  0  0  0  0  0  0  0  0  0  0  0
    8.4115  -14.6878   19.0131 C   0  0  0  0  0  0  0  0  0  0  0  0
    8.7258  -16.1509   19.2612 C   0  0  2  0  0  0  0  0  0  0  0  0
    7.9191  -16.9580   18.3681 N   0  0  0  0  0  0  0  0  0  0  0  0
    8.3050  -16.4754   20.6473 C   0  0  0  0  0  0  0  0  0  0  0  0
    7.1534  -16.9845   20.8342 O   0  0  0  0  0  0  0  0  0  0  0  0
   10.9504  -17.9923   23.1405 C   0  0  0  0  0  0  0  0  0  0  0  0
    9.4454  -18.1676   23.2714 C   0  0  2  0  0  0  0  0  0  0  0  0
    9.0466  -19.2008   22.2599 C   0  0  0  0  0  0  0  0  0  0  0  0
    8.7416  -16.8330   23.1034 C   0  0  2  0  0  0  0  0  0  0  0  0
    9.0908  -16.2623   21.7995 N   0  0  0  0  0  0  0  0  0  0  0  0
    9.1291  -15.8307   24.1118 C   0  0  0  0  0  0  0  0  0  0  0  0
   10.2169  -15.1725   23.9592 O   0  0  0  0  0  0  0  0  0  0  0  0
    7.7255  -11.7976   25.1866 C   0  0  0  0  0  0  0  0  0  0  0  0
    7.0025  -12.8767   25.9090 C   0  0  2  0  0  0  0  0  0  0  0  0
    5.7599  -12.2923   26.5909 C   0  0  0  0  0  0  0  0  0  0  0  0
    7.7922  -13.7316   26.8197 C   0  0  0  0  0  0  0  0  0  0  0  0
    8.9063  -14.5204   26.2502 C   0  0  2  0  0  0  0  0  0  0  0  0
    8.3968  -15.4996   25.2813 N   0  0  0  0  0  0  0  0  0  0  0  0
    9.5109  -15.3031   27.3902 C   0  0  0  0  0  0  0  0  0  0  0  0
    9.2893  -16.5237   27.5425 O   0  0  0  0  0  0  0  0  0  0  0  0
   10.3411  -14.6871   28.3161 O   0  0  0  0  0  0  0  0  0  0  0  0
  2  1  1  0
  3  2  1  0
  3  4  1  6
  5  3  1  0
  5  6  2  0
  8  7  1  6
  8 10  1  0
  9  8  1  0
 10 11  1  6
 10 12  1  0
 11  5  1  0
 12 19  1  0
 13 12  2  0
 15 14  1  1
 16 15  1  0
 17 15  1  0
 18 17  1  1
 19 18  1  0
 20 22  1  0
 20 18  1  0
 21 20  2  0
M  END
$$$$
