SVL.pdb
     RDKit          3D

 22 21  0  0  1  0  0  0  0  0999 V2000
    8.6387  -19.6572   21.2182 O   0  0  0  0  0  0  0  0  0  0  0  0
    7.3693  -19.2470   20.8213 C   0  0  0  0  0  0  0  0  0  0  0  0
    7.5581  -18.3025   19.6494 C   0  0  2  0  0  0  0  0  0  0  0  0
    8.5159  -18.8857   18.7316 N   0  0  0  0  0  0  0  0  0  0  0  0
    8.1570  -17.0484   20.1710 C   0  0  0  0  0  0  0  0  0  0  0  0
    9.4193  -16.8983   20.1034 O   0  0  0  0  0  0  0  0  0  0  0  0
    7.5072  -13.4776   19.3024 C   0  0  0  0  0  0  0  0  0  0  0  0
    7.4066  -13.5536   20.8180 C   0  0  2  0  0  0  0  0  0  0  0  0
    7.9972  -12.2813   21.3491 C   0  0  0  0  0  0  0  0  0  0  0  0
    8.0849  -14.8116   21.3298 C   0  0  2  0  0  0  0  0  0  0  0  0
    7.4295  -15.9860   20.7477 N   0  0  0  0  0  0  0  0  0  0  0  0
    8.0023  -14.9731   22.7923 C   0  0  0  0  0  0  0  0  0  0  0  0
    6.9003  -15.3532   23.3221 O   0  0  0  0  0  0  0  0  0  0  0  0
    5.6257  -12.5338   26.4951 C   0  0  0  0  0  0  0  0  0  0  0  0
    7.0357  -12.9964   26.4125 C   0  0  2  0  0  0  0  0  0  0  0  0
    7.9640  -11.9103   26.9687 C   0  0  0  0  0  0  0  0  0  0  0  0
    7.5031  -13.5218   25.1127 C   0  0  0  0  0  0  0  0  0  0  0  0
    8.7875  -14.2542   25.0739 C   0  0  2  0  0  0  0  0  0  0  0  0
    9.0552  -14.7461   23.7161 N   0  0  0  0  0  0  0  0  0  0  0  0
    8.6221  -15.4672   25.9566 C   0  0  0  0  0  0  0  0  0  0  0  0
    9.0870  -15.5072   27.1161 O   0  0  0  0  0  0  0  0  0  0  0  0
    7.9415  -16.5892   25.5053 O   0  0  0  0  0  0  0  0  0  0  0  0
  2  1  1  0
  3  2  1  0
  3  4  1  6
  5  3  1  0
  5  6  2  0
  8  7  1  6
  8 10  1  0
  9  8  1  0
 10 11  1  6
 10 12  1  0
 11  5  1  0
 12 19  1  0
 13 12  2  0
 15 14  1  6
 16 15  1  0
 17 15  1  0
 18 17  1  6
 19 18  1  0
 20 22  1  0
 20 18  1  0
 21 20  2  0
M  END
$$$$
