SVL.pdb
     RDKit          3D

 22 21  0  0  1  0  0  0  0  0999 V2000
   10.4496  -11.6893   19.3347 O   0  0  0  0  0  0  0  0  0  0  0  0
    9.3665  -12.3554   19.9011 C   0  0  0  0  0  0  0  0  0  0  0  0
    9.2664  -13.7015   19.2089 C   0  0  2  0  0  0  0  0  0  0  0  0
    8.2576  -13.6174   18.1720 N   0  0  0  0  0  0  0  0  0  0  0  0
    8.7880  -14.6895   20.2081 C   0  0  0  0  0  0  0  0  0  0  0  0
    7.5407  -14.9339   20.2790 O   0  0  0  0  0  0  0  0  0  0  0  0
    9.3786  -18.2858   20.5409 C   0  0  0  0  0  0  0  0  0  0  0  0
    9.7552  -17.6948   21.8907 C   0  0  2  0  0  0  0  0  0  0  0  0
    9.3825  -18.7171   22.9229 C   0  0  0  0  0  0  0  0  0  0  0  0
    9.0830  -16.3473   22.0832 C   0  0  2  0  0  0  0  0  0  0  0  0
    9.6171  -15.3957   21.1050 N   0  0  0  0  0  0  0  0  0  0  0  0
    9.3203  -15.7540   23.4111 C   0  0  0  0  0  0  0  0  0  0  0  0
   10.5105  -15.4245   23.7495 O   0  0  0  0  0  0  0  0  0  0  0  0
    8.0572  -11.8526   25.6439 C   0  0  0  0  0  0  0  0  0  0  0  0
    7.0678  -12.9600   25.7041 C   0  0  2  0  0  0  0  0  0  0  0  0
    5.7667  -12.4500   26.3346 C   0  0  0  0  0  0  0  0  0  0  0  0
    7.5144  -14.2383   26.2962 C   0  0  0  0  0  0  0  0  0  0  0  0
    8.6857  -14.9158   25.6989 C   0  0  2  0  0  0  0  0  0  0  0  0
    8.3324  -15.4949   24.3962 N   0  0  0  0  0  0  0  0  0  0  0  0
    9.0339  -16.0661   26.6118 C   0  0  0  0  0  0  0  0  0  0  0  0
    8.5366  -17.2026   26.4594 O   0  0  0  0  0  0  0  0  0  0  0  0
    9.9265  -15.8979   27.6610 O   0  0  0  0  0  0  0  0  0  0  0  0
  2  1  1  0
  3  2  1  0
  3  4  1  6
  5  3  1  0
  5  6  2  0
  8  7  1  6
  8 10  1  0
  9  8  1  0
 10 11  1  6
 10 12  1  0
 11  5  1  0
 12 19  1  0
 13 12  2  0
 15 14  1  1
 16 15  1  0
 17 15  1  0
 18 17  1  1
 19 18  1  0
 20 22  1  0
 20 18  1  0
 21 20  2  0
M  END
$$$$
