SVL.pdb
     RDKit          3D

 22 21  0  0  1  0  0  0  0  0999 V2000
   10.2728  -15.3512   19.4904 O   0  0  0  0  0  0  0  0  0  0  0  0
   10.3314  -16.7186   19.7441 C   0  0  0  0  0  0  0  0  0  0  0  0
    8.9465  -17.2761   19.4751 C   0  0  2  0  0  0  0  0  0  0  0  0
    8.3198  -16.4839   18.4361 N   0  0  0  0  0  0  0  0  0  0  0  0
    8.1402  -17.0993   20.7088 C   0  0  0  0  0  0  0  0  0  0  0  0
    7.1151  -16.3457   20.6676 O   0  0  0  0  0  0  0  0  0  0  0  0
    6.2859  -19.7578   22.3864 C   0  0  0  0  0  0  0  0  0  0  0  0
    7.1222  -19.0963   23.4708 C   0  0  2  0  0  0  0  0  0  0  0  0
    6.3294  -19.1944   24.7403 C   0  0  0  0  0  0  0  0  0  0  0  0
    7.4771  -17.6755   23.0709 C   0  0  2  0  0  0  0  0  0  0  0  0
    8.4203  -17.7094   21.9498 N   0  0  0  0  0  0  0  0  0  0  0  0
    8.1351  -16.9078   24.1430 C   0  0  0  0  0  0  0  0  0  0  0  0
    9.4041  -16.9938   24.2908 O   0  0  0  0  0  0  0  0  0  0  0  0
    7.7776  -12.1628   25.7263 C   0  0  0  0  0  0  0  0  0  0  0  0
    6.8228  -13.2377   26.1032 C   0  0  2  0  0  0  0  0  0  0  0  0
    5.6082  -12.6199   26.8059 C   0  0  0  0  0  0  0  0  0  0  0  0
    7.3642  -14.4003   26.8375 C   0  0  0  0  0  0  0  0  0  0  0  0
    8.2448  -15.3402   26.1102 C   0  0  2  0  0  0  0  0  0  0  0  0
    7.4893  -16.0458   25.0668 N   0  0  0  0  0  0  0  0  0  0  0  0
    8.6900  -16.3794   27.1100 C   0  0  0  0  0  0  0  0  0  0  0  0
    8.0495  -17.4374   27.2908 O   0  0  0  0  0  0  0  0  0  0  0  0
    9.8368  -16.1927   27.8689 O   0  0  0  0  0  0  0  0  0  0  0  0
  2  1  1  0
  3  2  1  0
  3  4  1  6
  5  3  1  0
  5  6  2  0
  8  7  1  6
  8 10  1  0
  9  8  1  0
 10 11  1  6
 10 12  1  0
 11  5  1  0
 12 19  1  0
 13 12  2  0
 15 14  1  1
 16 15  1  0
 17 15  1  0
 18 17  1  1
 19 18  1  0
 20 22  1  0
 20 18  1  0
 21 20  2  0
M  END
$$$$
