HND.pdb
     RDKit          3D

 27 27  0  0  1  0  0  0  0  0999 V2000
    8.3775  -15.8177   16.3674 N   0  0  0  0  0  0  0  0  0  0  0  0
    9.1292  -14.6019   16.3739 C   0  0  1  0  0  0  0  0  0  0  0  0
    8.4691  -13.4302   15.7287 C   0  0  0  0  0  0  0  0  0  0  0  0
    8.0841  -13.6888   14.3164 C   0  0  0  0  0  0  0  0  0  0  0  0
    8.8995  -14.3904   13.4514 C   0  0  0  0  0  0  0  0  0  0  0  0
    8.2837  -14.4619   12.2486 N   0  0  0  0  0  0  0  0  0  0  0  0
    7.1166  -13.8164   12.3783 C   0  0  0  0  0  0  0  0  0  0  0  0
    7.0004  -13.3518   13.6265 N   0  0  0  0  0  0  0  0  0  0  0  0
    9.3705  -14.2373   17.8144 C   0  0  0  0  0  0  0  0  0  0  0  0
   10.0820  -13.2380   18.1042 O   0  0  0  0  0  0  0  0  0  0  0  0
    6.4950  -12.9655   20.5781 N   0  0  0  0  0  0  0  0  0  0  0  0
    7.4369  -13.5938   21.4677 C   0  0  0  0  0  0  0  0  0  0  0  0
    7.6739  -12.9183   22.5167 O   0  0  0  0  0  0  0  0  0  0  0  0
    8.0536  -14.8946   21.1693 C   0  0  0  0  0  0  0  0  0  0  0  0
    9.2096  -14.7086   20.2405 C   0  0  2  0  0  0  0  0  0  0  0  0
    8.8172  -14.9898   18.8789 N   0  0  0  0  0  0  0  0  0  0  0  0
   10.3731  -15.5877   20.6344 C   0  0  0  0  0  0  0  0  0  0  0  0
   10.2668  -16.8359   20.5307 O   0  0  0  0  0  0  0  0  0  0  0  0
   11.5904  -15.0405   21.1215 N   0  0  0  0  0  0  0  0  0  0  0  0
   12.6586  -15.8767   21.5631 C   0  0  1  0  0  0  0  0  0  0  0  0
   14.0282  -15.3255   21.2551 C   0  0  0  0  0  0  0  0  0  0  0  0
   14.2196  -15.0271   19.8144 C   0  0  0  0  0  0  0  0  0  0  0  0
   13.9182  -15.8657   18.9437 O   0  0  0  0  0  0  0  0  0  0  0  0
   12.5397  -16.2759   22.9849 C   0  0  0  0  0  0  0  0  0  0  0  0
   13.4508  -17.1652   23.5372 O   0  0  0  0  0  0  0  0  0  0  0  0
   14.7364  -13.8152   19.3827 O   0  0  0  0  0  0  0  0  0  0  0  0
   11.6395  -15.8529   23.7624 O   0  0  0  0  0  0  0  0  0  0  0  0
  2  1  1  1
  2  9  1  0
  3  4  1  0
  3  2  1  0
  4  5  2  0
  4  8  1  0
  5  6  1  0
  6  7  1  0
  8  7  2  0
  9 10  2  0
 11 12  1  0
 12 14  1  0
 13 12  2  0
 15 14  1  1
 15 17  1  0
 16  9  1  0
 16 15  1  0
 17 19  1  0
 17 18  2  0
 19 20  1  0
 20 24  1  0
 20 21  1  1
 22 21  1  0
 23 22  2  0
 24 25  1  0
 26 22  1  0
 27 24  2  0
M  END
$$$$
