HND.pdb
     RDKit          3D

 27 27  0  0  1  0  0  0  0  0999 V2000
   10.4926  -21.4036   16.4060 N   0  0  0  0  0  0  0  0  0  0  0  0
   10.7743  -20.0215   16.1741 C   0  0  1  0  0  0  0  0  0  0  0  0
    9.9380  -19.3570   15.1330 C   0  0  0  0  0  0  0  0  0  0  0  0
   10.2205  -19.8537   13.7607 C   0  0  0  0  0  0  0  0  0  0  0  0
   11.3935  -20.5098   13.4460 C   0  0  0  0  0  0  0  0  0  0  0  0
   11.3603  -20.8365   12.1333 N   0  0  0  0  0  0  0  0  0  0  0  0
   10.1905  -20.3881   11.6578 C   0  0  0  0  0  0  0  0  0  0  0  0
    9.5065  -19.7962   12.6423 N   0  0  0  0  0  0  0  0  0  0  0  0
   10.5292  -19.2953   17.4698 C   0  0  0  0  0  0  0  0  0  0  0  0
   10.6861  -18.0463   17.5354 O   0  0  0  0  0  0  0  0  0  0  0  0
    7.2625  -21.6233   19.9622 N   0  0  0  0  0  0  0  0  0  0  0  0
    8.0575  -20.6699   20.6919 C   0  0  0  0  0  0  0  0  0  0  0  0
    8.4622  -21.1002   21.8162 O   0  0  0  0  0  0  0  0  0  0  0  0
    8.3595  -19.3308   20.1656 C   0  0  0  0  0  0  0  0  0  0  0  0
    9.8145  -19.2281   19.8402 C   0  0  2  0  0  0  0  0  0  0  0  0
   10.1208  -19.9759   18.6426 N   0  0  0  0  0  0  0  0  0  0  0  0
   10.6663  -19.7188   20.9871 C   0  0  0  0  0  0  0  0  0  0  0  0
   10.5094  -19.2202   22.1302 O   0  0  0  0  0  0  0  0  0  0  0  0
   11.6449  -20.7332   20.8090 N   0  0  0  0  0  0  0  0  0  0  0  0
   13.0371  -20.4587   20.9563 C   0  0  1  0  0  0  0  0  0  0  0  0
   13.5466  -19.3881   20.0241 C   0  0  0  0  0  0  0  0  0  0  0  0
   15.0202  -19.2258   20.0822 C   0  0  0  0  0  0  0  0  0  0  0  0
   15.7107  -19.9338   20.8398 O   0  0  0  0  0  0  0  0  0  0  0  0
   13.4363  -20.1945   22.3583 C   0  0  0  0  0  0  0  0  0  0  0  0
   12.9896  -19.0514   23.0061 O   0  0  0  0  0  0  0  0  0  0  0  0
   15.6824  -18.2891   19.3034 O   0  0  0  0  0  0  0  0  0  0  0  0
   14.1794  -20.9585   23.0350 O   0  0  0  0  0  0  0  0  0  0  0  0
  2  1  1  1
  2  9  1  0
  3  4  1  0
  3  2  1  0
  4  5  2  0
  4  8  1  0
  5  6  1  0
  6  7  1  0
  8  7  2  0
  9 10  2  0
 11 12  1  0
 12 14  1  0
 13 12  2  0
 15 14  1  1
 15 17  1  0
 16  9  1  0
 16 15  1  0
 17 19  1  0
 17 18  2  0
 19 20  1  0
 20 24  1  0
 20 21  1  6
 22 21  1  0
 23 22  2  0
 24 25  1  0
 26 22  1  0
 27 24  2  0
M  END
$$$$
