HND.pdb
     RDKit          3D

 27 27  0  0  1  0  0  0  0  0999 V2000
    7.7755  -15.7754   18.4428 N   0  0  0  0  0  0  0  0  0  0  0  0
    8.7179  -14.7030   18.5147 C   0  0  1  0  0  0  0  0  0  0  0  0
    8.3469  -13.4653   17.7694 C   0  0  0  0  0  0  0  0  0  0  0  0
    8.0593  -13.7195   16.3333 C   0  0  0  0  0  0  0  0  0  0  0  0
    9.0130  -14.2263   15.4736 C   0  0  0  0  0  0  0  0  0  0  0  0
    8.4587  -14.3467   14.2451 N   0  0  0  0  0  0  0  0  0  0  0  0
    7.1926  -13.9213   14.3542 C   0  0  0  0  0  0  0  0  0  0  0  0
    6.9562  -13.5440   15.6148 N   0  0  0  0  0  0  0  0  0  0  0  0
    8.8491  -14.3244   19.9658 C   0  0  0  0  0  0  0  0  0  0  0  0
    9.6994  -13.4645   20.3215 O   0  0  0  0  0  0  0  0  0  0  0  0
    9.2532  -14.9978   24.9815 N   0  0  0  0  0  0  0  0  0  0  0  0
    7.8938  -15.3319   24.6440 C   0  0  0  0  0  0  0  0  0  0  0  0
    7.1612  -15.5637   25.6552 O   0  0  0  0  0  0  0  0  0  0  0  0
    7.4209  -15.3929   23.2533 C   0  0  0  0  0  0  0  0  0  0  0  0
    8.5271  -15.0141   22.3226 C   0  0  2  0  0  0  0  0  0  0  0  0
    8.0371  -14.9095   20.9675 N   0  0  0  0  0  0  0  0  0  0  0  0
    9.6597  -16.0115   22.3863 C   0  0  0  0  0  0  0  0  0  0  0  0
   10.0293  -16.5941   21.3356 O   0  0  0  0  0  0  0  0  0  0  0  0
   10.3223  -16.3112   23.6069 N   0  0  0  0  0  0  0  0  0  0  0  0
   11.6262  -16.8897   23.6237 C   0  0  1  0  0  0  0  0  0  0  0  0
   12.6250  -16.1603   22.7605 C   0  0  0  0  0  0  0  0  0  0  0  0
   13.9822  -16.7569   22.8183 C   0  0  0  0  0  0  0  0  0  0  0  0
   14.1400  -17.9550   23.1215 O   0  0  0  0  0  0  0  0  0  0  0  0
   12.1497  -17.1132   24.9915 C   0  0  0  0  0  0  0  0  0  0  0  0
   11.9924  -16.1373   25.9655 O   0  0  0  0  0  0  0  0  0  0  0  0
   15.1187  -16.0132   22.5399 O   0  0  0  0  0  0  0  0  0  0  0  0
   12.7502  -18.1632   25.3530 O   0  0  0  0  0  0  0  0  0  0  0  0
  2  1  1  1
  2  9  1  0
  3  4  1  0
  3  2  1  0
  4  5  2  0
  4  8  1  0
  5  6  1  0
  6  7  1  0
  8  7  2  0
  9 10  2  0
 11 12  1  0
 12 14  1  0
 13 12  2  0
 15 14  1  1
 15 17  1  0
 16  9  1  0
 16 15  1  0
 17 19  1  0
 17 18  2  0
 19 20  1  0
 20 24  1  0
 20 21  1  6
 22 21  1  0
 23 22  2  0
 24 25  1  0
 26 22  1  0
 27 24  2  0
M  END
$$$$
