HND.pdb
     RDKit          3D

 27 27  0  0  1  0  0  0  0  0999 V2000
   11.4416  -14.9803   18.2672 N   0  0  0  0  0  0  0  0  0  0  0  0
   10.4434  -14.1216   18.8235 C   0  0  1  0  0  0  0  0  0  0  0  0
    9.0467  -14.3703   18.3626 C   0  0  0  0  0  0  0  0  0  0  0  0
    8.9859  -15.1193   17.0800 C   0  0  0  0  0  0  0  0  0  0  0  0
   10.1242  -15.5441   16.4249 C   0  0  0  0  0  0  0  0  0  0  0  0
    9.7505  -16.1913   15.2969 N   0  0  0  0  0  0  0  0  0  0  0  0
    8.4112  -16.1611   15.2653 C   0  0  0  0  0  0  0  0  0  0  0  0
    7.9544  -15.5137   16.3423 N   0  0  0  0  0  0  0  0  0  0  0  0
   10.4617  -14.3281   20.3146 C   0  0  0  0  0  0  0  0  0  0  0  0
    9.6574  -13.6963   21.0514 O   0  0  0  0  0  0  0  0  0  0  0  0
    9.4100  -16.0149   25.1329 N   0  0  0  0  0  0  0  0  0  0  0  0
   10.2963  -16.6401   24.1857 C   0  0  0  0  0  0  0  0  0  0  0  0
   11.1200  -17.4479   24.7168 O   0  0  0  0  0  0  0  0  0  0  0  0
   10.2355  -16.3550   22.7448 C   0  0  0  0  0  0  0  0  0  0  0  0
   11.3297  -15.4099   22.3665 C   0  0  2  0  0  0  0  0  0  0  0  0
   11.3669  -15.2235   20.9343 N   0  0  0  0  0  0  0  0  0  0  0  0
   12.6705  -15.9022   22.8580 C   0  0  0  0  0  0  0  0  0  0  0  0
   12.9026  -15.9317   24.0930 O   0  0  0  0  0  0  0  0  0  0  0  0
   13.6818  -16.3350   21.9588 N   0  0  0  0  0  0  0  0  0  0  0  0
   15.0241  -15.8637   22.0653 C   0  0  1  0  0  0  0  0  0  0  0  0
   15.2306  -14.4847   21.4904 C   0  0  0  0  0  0  0  0  0  0  0  0
   15.3795  -14.4912   20.0143 C   0  0  0  0  0  0  0  0  0  0  0  0
   15.7710  -15.5121   19.4170 O   0  0  0  0  0  0  0  0  0  0  0  0
   15.5744  -15.9695   23.4368 C   0  0  0  0  0  0  0  0  0  0  0  0
   16.9234  -15.7380   23.6658 O   0  0  0  0  0  0  0  0  0  0  0  0
   15.0917  -13.3729   19.2470 O   0  0  0  0  0  0  0  0  0  0  0  0
   14.8842  -16.2648   24.4518 O   0  0  0  0  0  0  0  0  0  0  0  0
  2  1  1  6
  2  9  1  0
  3  4  1  0
  3  2  1  0
  4  5  2  0
  4  8  1  0
  5  6  1  0
  6  7  1  0
  8  7  2  0
  9 10  2  0
 11 12  1  0
 12 14  1  0
 13 12  2  0
 15 14  1  6
 15 17  1  0
 16  9  1  0
 16 15  1  0
 17 19  1  0
 17 18  2  0
 19 20  1  0
 20 24  1  0
 20 21  1  1
 22 21  1  0
 23 22  2  0
 24 25  1  0
 26 22  1  0
 27 24  2  0
M  END
$$$$
