HND.pdb
     RDKit          3D

 27 27  0  0  1  0  0  0  0  0999 V2000
    9.6224  -16.0221   17.3237 N   0  0  0  0  0  0  0  0  0  0  0  0
   10.3349  -14.8540   17.7374 C   0  0  1  0  0  0  0  0  0  0  0  0
    9.6308  -13.9817   18.7213 C   0  0  0  0  0  0  0  0  0  0  0  0
    8.3304  -13.4705   18.2139 C   0  0  0  0  0  0  0  0  0  0  0  0
    8.0643  -13.3563   16.8642 C   0  0  0  0  0  0  0  0  0  0  0  0
    6.8116  -12.8665   16.7166 N   0  0  0  0  0  0  0  0  0  0  0  0
    6.3245  -12.6855   17.9518 C   0  0  0  0  0  0  0  0  0  0  0  0
    7.2435  -13.0508   18.8514 N   0  0  0  0  0  0  0  0  0  0  0  0
   11.6092  -15.3196   18.3898 C   0  0  0  0  0  0  0  0  0  0  0  0
   11.7932  -16.5458   18.6166 O   0  0  0  0  0  0  0  0  0  0  0  0
   17.2364  -13.8495   20.2126 N   0  0  0  0  0  0  0  0  0  0  0  0
   16.2497  -14.6438   19.5277 C   0  0  0  0  0  0  0  0  0  0  0  0
   16.5569  -15.8732   19.4421 O   0  0  0  0  0  0  0  0  0  0  0  0
   15.0113  -14.0651   18.9867 C   0  0  0  0  0  0  0  0  0  0  0  0
   13.8415  -14.9078   19.3804 C   0  0  2  0  0  0  0  0  0  0  0  0
   12.6305  -14.4140   18.7665 N   0  0  0  0  0  0  0  0  0  0  0  0
   13.6793  -14.9495   20.8816 C   0  0  0  0  0  0  0  0  0  0  0  0
   12.9934  -14.0649   21.4533 O   0  0  0  0  0  0  0  0  0  0  0  0
   14.2836  -15.9656   21.6695 N   0  0  0  0  0  0  0  0  0  0  0  0
   13.8192  -16.2625   22.9854 C   0  0  1  0  0  0  0  0  0  0  0  0
   12.3258  -16.4547   23.0730 C   0  0  0  0  0  0  0  0  0  0  0  0
   11.8589  -16.7251   24.4551 C   0  0  0  0  0  0  0  0  0  0  0  0
   12.6737  -16.8929   25.3824 O   0  0  0  0  0  0  0  0  0  0  0  0
   14.5503  -17.3806   23.6256 C   0  0  0  0  0  0  0  0  0  0  0  0
   14.8972  -18.5013   22.8841 O   0  0  0  0  0  0  0  0  0  0  0  0
   10.5103  -16.8011   24.7678 O   0  0  0  0  0  0  0  0  0  0  0  0
   14.8957  -17.3928   24.8398 O   0  0  0  0  0  0  0  0  0  0  0  0
  2  1  1  1
  2  9  1  0
  3  4  1  0
  3  2  1  0
  4  5  2  0
  4  8  1  0
  5  6  1  0
  6  7  1  0
  8  7  2  0
  9 10  2  0
 11 12  1  0
 12 14  1  0
 13 12  2  0
 15 14  1  1
 15 17  1  0
 16  9  1  0
 16 15  1  0
 17 19  1  0
 17 18  2  0
 19 20  1  0
 20 24  1  0
 20 21  1  6
 22 21  1  0
 23 22  2  0
 24 25  1  0
 26 22  1  0
 27 24  2  0
M  END
$$$$
