HND.pdb
     RDKit          3D

 27 27  0  0  1  0  0  0  0  0999 V2000
    8.8209  -12.3906   18.5159 N   0  0  0  0  0  0  0  0  0  0  0  0
    8.3863  -13.7378   18.7151 C   0  0  1  0  0  0  0  0  0  0  0  0
    9.0618  -14.7664   17.8723 C   0  0  0  0  0  0  0  0  0  0  0  0
    8.7188  -14.6487   16.4306 C   0  0  0  0  0  0  0  0  0  0  0  0
    7.7296  -13.7979   15.9799 C   0  0  0  0  0  0  0  0  0  0  0  0
    7.6509  -13.9109   14.6337 N   0  0  0  0  0  0  0  0  0  0  0  0
    8.5735  -14.8128   14.2718 C   0  0  0  0  0  0  0  0  0  0  0  0
    9.2149  -15.2550   15.3583 N   0  0  0  0  0  0  0  0  0  0  0  0
    8.6683  -14.0869   20.1521 C   0  0  0  0  0  0  0  0  0  0  0  0
    9.7676  -13.7647   20.6781 O   0  0  0  0  0  0  0  0  0  0  0  0
    6.5739  -18.1575   22.8133 N   0  0  0  0  0  0  0  0  0  0  0  0
    6.2817  -16.8135   22.3870 C   0  0  0  0  0  0  0  0  0  0  0  0
    5.4792  -16.7550   21.4044 O   0  0  0  0  0  0  0  0  0  0  0  0
    6.8685  -15.6354   23.0421 C   0  0  0  0  0  0  0  0  0  0  0  0
    8.0808  -15.1870   22.2918 C   0  0  2  0  0  0  0  0  0  0  0  0
    7.7263  -14.7779   20.9523 N   0  0  0  0  0  0  0  0  0  0  0  0
    9.1245  -16.2776   22.2393 C   0  0  0  0  0  0  0  0  0  0  0  0
    9.4416  -16.7760   21.1297 O   0  0  0  0  0  0  0  0  0  0  0  0
    9.7611  -16.7586   23.4149 N   0  0  0  0  0  0  0  0  0  0  0  0
   11.1081  -17.2281   23.3932 C   0  0  1  0  0  0  0  0  0  0  0  0
   12.0804  -16.2543   22.7760 C   0  0  0  0  0  0  0  0  0  0  0  0
   13.4726  -16.7667   22.7505 C   0  0  0  0  0  0  0  0  0  0  0  0
   13.8383  -17.5768   21.8775 O   0  0  0  0  0  0  0  0  0  0  0  0
   11.5818  -17.7078   24.7124 C   0  0  0  0  0  0  0  0  0  0  0  0
   12.4664  -18.7744   24.7891 O   0  0  0  0  0  0  0  0  0  0  0  0
   14.4137  -16.3688   23.6876 O   0  0  0  0  0  0  0  0  0  0  0  0
   11.2298  -17.2015   25.8140 O   0  0  0  0  0  0  0  0  0  0  0  0
  2  1  1  6
  2  9  1  0
  3  4  1  0
  3  2  1  0
  4  5  2  0
  4  8  1  0
  5  6  1  0
  6  7  1  0
  8  7  2  0
  9 10  2  0
 11 12  1  0
 12 14  1  0
 13 12  2  0
 15 14  1  6
 15 17  1  0
 16  9  1  0
 16 15  1  0
 17 19  1  0
 17 18  2  0
 19 20  1  0
 20 24  1  0
 20 21  1  1
 22 21  1  0
 23 22  2  0
 24 25  1  0
 26 22  1  0
 27 24  2  0
M  END
$$$$
