HND.pdb
     RDKit          3D

 27 27  0  0  1  0  0  0  0  0999 V2000
   14.9896  -12.9150   17.3212 N   0  0  0  0  0  0  0  0  0  0  0  0
   15.5177  -14.1848   17.7112 C   0  0  1  0  0  0  0  0  0  0  0  0
   16.9905  -14.3515   17.5441 C   0  0  0  0  0  0  0  0  0  0  0  0
   17.3977  -14.5023   16.1224 C   0  0  0  0  0  0  0  0  0  0  0  0
   16.9262  -15.5299   15.3303 C   0  0  0  0  0  0  0  0  0  0  0  0
   17.4704  -15.4022   14.0979 N   0  0  0  0  0  0  0  0  0  0  0  0
   18.2578  -14.3187   14.1387 C   0  0  0  0  0  0  0  0  0  0  0  0
   18.2110  -13.7794   15.3611 N   0  0  0  0  0  0  0  0  0  0  0  0
   15.2147  -14.3604   19.1753 C   0  0  0  0  0  0  0  0  0  0  0  0
   15.3586  -13.3943   19.9721 O   0  0  0  0  0  0  0  0  0  0  0  0
   11.8328  -15.6407   23.4687 N   0  0  0  0  0  0  0  0  0  0  0  0
   12.8109  -16.4103   22.7444 C   0  0  0  0  0  0  0  0  0  0  0  0
   13.4154  -17.2673   23.4607 O   0  0  0  0  0  0  0  0  0  0  0  0
   13.0687  -16.2059   21.3115 C   0  0  0  0  0  0  0  0  0  0  0  0
   14.4645  -15.7106   21.1113 C   0  0  2  0  0  0  0  0  0  0  0  0
   14.7650  -15.5952   19.7029 N   0  0  0  0  0  0  0  0  0  0  0  0
   15.4678  -16.6203   21.7802 C   0  0  0  0  0  0  0  0  0  0  0  0
   16.0040  -17.5428   21.1159 O   0  0  0  0  0  0  0  0  0  0  0  0
   15.8240  -16.4618   23.1465 N   0  0  0  0  0  0  0  0  0  0  0  0
   17.1825  -16.5384   23.5754 C   0  0  1  0  0  0  0  0  0  0  0  0
   18.1289  -15.7080   22.7451 C   0  0  0  0  0  0  0  0  0  0  0  0
   19.5363  -15.8045   23.2046 C   0  0  0  0  0  0  0  0  0  0  0  0
   19.9729  -16.8581   23.7060 O   0  0  0  0  0  0  0  0  0  0  0  0
   17.3547  -16.2756   25.0232 C   0  0  0  0  0  0  0  0  0  0  0  0
   18.5604  -16.5672   25.6454 O   0  0  0  0  0  0  0  0  0  0  0  0
   20.4142  -14.7370   23.0955 O   0  0  0  0  0  0  0  0  0  0  0  0
   16.4550  -15.7878   25.7624 O   0  0  0  0  0  0  0  0  0  0  0  0
  2  1  1  1
  2  9  1  0
  3  4  1  0
  3  2  1  0
  4  5  2  0
  4  8  1  0
  5  6  1  0
  6  7  1  0
  8  7  2  0
  9 10  2  0
 11 12  1  0
 12 14  1  0
 13 12  2  0
 15 14  1  6
 15 17  1  0
 16  9  1  0
 16 15  1  0
 17 19  1  0
 17 18  2  0
 19 20  1  0
 20 24  1  0
 20 21  1  6
 22 21  1  0
 23 22  2  0
 24 25  1  0
 26 22  1  0
 27 24  2  0
M  END
$$$$
