ELM.pdb
     RDKit          3D

 26 25  0  0  1  0  0  0  0  0999 V2000
   27.4338  -21.5541  -15.3013 N   0  0  0  0  0  0  0  0  0  0  0  0
   26.8912  -20.4504  -14.5753 C   0  0  1  0  0  0  0  0  0  0  0  0
   26.0199  -19.5596  -15.3969 C   0  0  0  0  0  0  0  0  0  0  0  0
   26.6742  -18.9739  -16.5942 C   0  0  0  0  0  0  0  0  0  0  0  0
   26.7118  -19.7671  -17.8126 C   0  0  0  0  0  0  0  0  0  0  0  0
   25.6886  -20.2557  -18.3418 O   0  0  0  0  0  0  0  0  0  0  0  0
   26.2267  -20.8233  -13.2939 C   0  0  0  0  0  0  0  0  0  0  0  0
   25.4177  -21.8144  -13.2923 O   0  0  0  0  0  0  0  0  0  0  0  0
   27.9602  -20.0080  -18.4441 O   0  0  0  0  0  0  0  0  0  0  0  0
   25.7777  -22.0310   -8.1799 C   0  0  0  0  0  0  0  0  0  0  0  0
   25.5672  -20.5273   -8.3921 C   0  0  1  0  0  0  0  0  0  0  0  0
   26.1002  -19.7950   -7.1419 C   0  0  0  0  0  0  0  0  0  0  0  0
   26.2766  -20.0469   -9.6195 C   0  0  0  0  0  0  0  0  0  0  0  0
   25.6838  -20.6462  -10.8460 C   0  0  2  0  0  0  0  0  0  0  0  0
   26.3992  -20.1860  -12.0518 N   0  0  0  0  0  0  0  0  0  0  0  0
   24.2489  -20.2718  -11.0192 C   0  0  0  0  0  0  0  0  0  0  0  0
   23.8348  -19.0879  -11.0683 O   0  0  0  0  0  0  0  0  0  0  0  0
   20.6832  -21.8804  -15.6781 C   0  0  0  0  0  0  0  0  0  0  0  0
   19.3610  -22.1160  -14.4562 S   0  0  0  0  0  0  0  0  0  0  0  0
   19.8967  -21.3420  -12.8776 C   0  0  0  0  0  0  0  0  0  0  0  0
   21.3610  -21.5709  -12.6592 C   0  0  0  0  0  0  0  0  0  0  0  0
   21.8216  -20.9472  -11.3730 C   0  0  2  0  0  0  0  0  0  0  0  0
   23.2350  -21.2711  -11.1430 N   0  0  0  0  0  0  0  0  0  0  0  0
   20.9912  -21.3310  -10.2530 C   0  0  0  0  0  0  0  0  0  0  0  0
   19.7014  -20.9287  -10.0728 O   0  0  0  0  0  0  0  0  0  0  0  0
   21.4820  -22.0982   -9.3542 O   0  0  0  0  0  0  0  0  0  0  0  0
  2  1  1  6
  3  2  1  0
  4  3  1  0
  5  6  2  0
  5  4  1  0
  7  2  1  0
  7  8  2  0
  9  5  1  0
 11 10  1  1
 12 11  1  0
 14 13  1  1
 13 11  1  0
 14 15  1  0
 15  7  1  0
 16 14  1  0
 17 16  2  0
 19 18  1  0
 19 20  1  0
 20 21  1  0
 22 21  1  6
 22 24  1  0
 22 23  1  0
 23 16  1  0
 24 25  1  0
 26 24  2  0
M  END
$$$$
