ELM.pdb
     RDKit          3D

 26 25  0  0  1  0  0  0  0  0999 V2000
   24.5265  -17.4662  -18.5916 N   0  0  0  0  0  0  0  0  0  0  0  0
   23.4760  -16.7637  -17.9263 C   0  0  1  0  0  0  0  0  0  0  0  0
   22.9527  -17.4670  -16.7183 C   0  0  0  0  0  0  0  0  0  0  0  0
   22.3449  -18.7959  -16.9809 C   0  0  0  0  0  0  0  0  0  0  0  0
   21.8377  -19.5543  -15.8483 C   0  0  0  0  0  0  0  0  0  0  0  0
   20.6871  -19.3987  -15.3818 O   0  0  0  0  0  0  0  0  0  0  0  0
   23.7823  -15.3353  -17.6293 C   0  0  0  0  0  0  0  0  0  0  0  0
   22.9077  -14.6410  -17.0052 O   0  0  0  0  0  0  0  0  0  0  0  0
   22.6746  -20.5208  -15.2311 O   0  0  0  0  0  0  0  0  0  0  0  0
   28.8041  -13.8483  -16.5122 C   0  0  0  0  0  0  0  0  0  0  0  0
   27.2786  -14.0009  -16.5206 C   0  0  1  0  0  0  0  0  0  0  0  0
   26.7823  -13.8611  -15.0655 C   0  0  0  0  0  0  0  0  0  0  0  0
   26.6339  -12.9693  -17.3926 C   0  0  0  0  0  0  0  0  0  0  0  0
   25.1821  -13.2485  -17.5635 C   0  0  2  0  0  0  0  0  0  0  0  0
   24.9628  -14.6500  -17.9696 N   0  0  0  0  0  0  0  0  0  0  0  0
   24.5624  -12.3868  -18.6136 C   0  0  0  0  0  0  0  0  0  0  0  0
   24.8893  -12.4142  -19.8251 O   0  0  0  0  0  0  0  0  0  0  0  0
   18.3388  -10.0201  -18.2938 C   0  0  0  0  0  0  0  0  0  0  0  0
   19.2565   -8.6544  -19.0615 S   0  0  0  0  0  0  0  0  0  0  0  0
   20.8003   -9.3393  -19.7865 C   0  0  0  0  0  0  0  0  0  0  0  0
   21.5294  -10.1628  -18.7693 C   0  0  0  0  0  0  0  0  0  0  0  0
   22.8558  -10.6282  -19.2980 C   0  0  2  0  0  0  0  0  0  0  0  0
   23.5300  -11.4538  -18.2884 N   0  0  0  0  0  0  0  0  0  0  0  0
   23.6851   -9.5273  -19.7356 C   0  0  0  0  0  0  0  0  0  0  0  0
   23.7195   -9.0438  -21.0096 O   0  0  0  0  0  0  0  0  0  0  0  0
   24.4508   -8.9544  -18.8855 O   0  0  0  0  0  0  0  0  0  0  0  0
  2  1  1  1
  3  2  1  0
  4  3  1  0
  5  6  2  0
  5  4  1  0
  7  2  1  0
  7  8  2  0
  9  5  1  0
 11 10  1  1
 12 11  1  0
 14 13  1  6
 13 11  1  0
 14 15  1  0
 15  7  1  0
 16 14  1  0
 17 16  2  0
 19 18  1  0
 19 20  1  0
 20 21  1  0
 22 21  1  1
 22 24  1  0
 22 23  1  0
 23 16  1  0
 24 25  1  0
 26 24  2  0
M  END
$$$$
