ELM.pdb
     RDKit          3D

 26 25  0  0  1  0  0  0  0  0999 V2000
   22.6226  -20.0064  -15.3784 N   0  0  0  0  0  0  0  0  0  0  0  0
   22.5756  -21.1722  -14.5548 C   0  0  1  0  0  0  0  0  0  0  0  0
   22.1676  -22.4085  -15.2847 C   0  0  0  0  0  0  0  0  0  0  0  0
   20.7042  -22.5673  -15.4794 C   0  0  0  0  0  0  0  0  0  0  0  0
   19.9676  -21.4637  -16.0748 C   0  0  0  0  0  0  0  0  0  0  0  0
   20.0659  -21.1488  -17.2819 O   0  0  0  0  0  0  0  0  0  0  0  0
   23.8058  -21.4041  -13.7452 C   0  0  0  0  0  0  0  0  0  0  0  0
   24.0943  -22.6028  -13.4041 O   0  0  0  0  0  0  0  0  0  0  0  0
   19.0913  -20.6973  -15.2623 O   0  0  0  0  0  0  0  0  0  0  0  0
   28.3196  -18.4692  -14.3453 C   0  0  0  0  0  0  0  0  0  0  0  0
   27.3651  -19.6474  -14.1189 C   0  0  1  0  0  0  0  0  0  0  0  0
   28.0836  -20.9328  -14.5825 C   0  0  0  0  0  0  0  0  0  0  0  0
   26.9727  -19.7602  -12.6789 C   0  0  0  0  0  0  0  0  0  0  0  0
   25.8941  -20.7697  -12.4984 C   0  0  2  0  0  0  0  0  0  0  0  0
   24.7092  -20.4197  -13.3051 N   0  0  0  0  0  0  0  0  0  0  0  0
   25.4436  -20.8651  -11.0781 C   0  0  0  0  0  0  0  0  0  0  0  0
   24.3262  -20.4657  -10.6692 O   0  0  0  0  0  0  0  0  0  0  0  0
   28.8271  -18.7568   -6.4781 C   0  0  0  0  0  0  0  0  0  0  0  0
   28.0806  -20.0412   -5.4343 S   0  0  0  0  0  0  0  0  0  0  0  0
   26.7190  -20.8300   -6.3839 C   0  0  0  0  0  0  0  0  0  0  0  0
   27.0659  -20.8822   -7.8405 C   0  0  0  0  0  0  0  0  0  0  0  0
   25.9309  -21.4426   -8.6486 C   0  0  2  0  0  0  0  0  0  0  0  0
   26.2852  -21.4345  -10.0734 N   0  0  0  0  0  0  0  0  0  0  0  0
   24.6879  -20.7474   -8.3981 C   0  0  0  0  0  0  0  0  0  0  0  0
   23.6507  -21.2544   -7.6733 O   0  0  0  0  0  0  0  0  0  0  0  0
   24.5267  -19.5748   -8.8842 O   0  0  0  0  0  0  0  0  0  0  0  0
  2  1  1  6
  3  2  1  0
  4  3  1  0
  5  6  2  0
  5  4  1  0
  7  2  1  0
  7  8  2  0
  9  5  1  0
 11 10  1  1
 12 11  1  0
 14 13  1  1
 13 11  1  0
 14 15  1  0
 15  7  1  0
 16 14  1  0
 17 16  2  0
 19 18  1  0
 19 20  1  0
 20 21  1  0
 22 21  1  1
 22 24  1  0
 22 23  1  0
 23 16  1  0
 24 25  1  0
 26 24  2  0
M  END
$$$$
