ELM.pdb
     RDKit          3D

 26 25  0  0  1  0  0  0  0  0999 V2000
   26.3914  -18.5748  -15.7912 N   0  0  0  0  0  0  0  0  0  0  0  0
   26.4347  -19.9926  -15.9575 C   0  0  1  0  0  0  0  0  0  0  0  0
   27.8181  -20.5508  -16.0056 C   0  0  0  0  0  0  0  0  0  0  0  0
   28.6561  -20.0533  -17.1259 C   0  0  0  0  0  0  0  0  0  0  0  0
   28.3717  -20.5431  -18.4655 C   0  0  0  0  0  0  0  0  0  0  0  0
   27.9366  -19.8114  -19.3826 O   0  0  0  0  0  0  0  0  0  0  0  0
   25.5792  -20.7512  -15.0009 C   0  0  0  0  0  0  0  0  0  0  0  0
   25.5738  -22.0287  -15.0684 O   0  0  0  0  0  0  0  0  0  0  0  0
   28.5927  -21.9134  -18.7634 O   0  0  0  0  0  0  0  0  0  0  0  0
   25.7249  -20.2238   -9.8162 C   0  0  0  0  0  0  0  0  0  0  0  0
   25.5377  -20.7512  -11.2435 C   0  0  1  0  0  0  0  0  0  0  0  0
   25.9743  -22.2319  -11.2606 C   0  0  0  0  0  0  0  0  0  0  0  0
   24.1144  -20.6223  -11.6884 C   0  0  0  0  0  0  0  0  0  0  0  0
   23.9578  -21.0539  -13.1040 C   0  0  2  0  0  0  0  0  0  0  0  0
   24.7556  -20.1983  -14.0035 N   0  0  0  0  0  0  0  0  0  0  0  0
   22.5401  -20.9707  -13.5649 C   0  0  0  0  0  0  0  0  0  0  0  0
   21.9151  -19.8930  -13.7174 O   0  0  0  0  0  0  0  0  0  0  0  0
   20.7841  -24.3397  -17.4679 C   0  0  0  0  0  0  0  0  0  0  0  0
   19.1603  -23.5310  -17.3907 S   0  0  0  0  0  0  0  0  0  0  0  0
   18.7228  -23.2946  -15.6212 C   0  0  0  0  0  0  0  0  0  0  0  0
   19.9410  -23.4441  -14.7620 C   0  0  0  0  0  0  0  0  0  0  0  0
   20.3568  -22.1253  -14.1763 C   0  0  2  0  0  0  0  0  0  0  0  0
   21.7921  -22.1500  -13.8682 N   0  0  0  0  0  0  0  0  0  0  0  0
   19.5635  -21.7670  -13.0216 C   0  0  0  0  0  0  0  0  0  0  0  0
   18.4201  -21.0265  -13.0684 O   0  0  0  0  0  0  0  0  0  0  0  0
   19.9443  -22.1586  -11.8645 O   0  0  0  0  0  0  0  0  0  0  0  0
  2  1  1  1
  3  2  1  0
  4  3  1  0
  5  6  2  0
  5  4  1  0
  7  2  1  0
  7  8  2  0
  9  5  1  0
 11 10  1  1
 12 11  1  0
 14 13  1  1
 13 11  1  0
 14 15  1  0
 15  7  1  0
 16 14  1  0
 17 16  2  0
 19 18  1  0
 19 20  1  0
 20 21  1  0
 22 21  1  1
 22 24  1  0
 22 23  1  0
 23 16  1  0
 24 25  1  0
 26 24  2  0
M  END
$$$$
