ELM.pdb
     RDKit          3D

 26 25  0  0  1  0  0  0  0  0999 V2000
   26.7743  -20.6857  -12.8730 N   0  0  0  0  0  0  0  0  0  0  0  0
   25.5436  -20.6426  -12.1498 C   0  0  1  0  0  0  0  0  0  0  0  0
   24.3986  -21.2702  -12.8727 C   0  0  0  0  0  0  0  0  0  0  0  0
   24.1972  -20.7913  -14.2636 C   0  0  0  0  0  0  0  0  0  0  0  0
   23.9004  -19.3823  -14.4679 C   0  0  0  0  0  0  0  0  0  0  0  0
   23.0062  -18.7740  -13.8385 O   0  0  0  0  0  0  0  0  0  0  0  0
   25.6355  -21.1408  -10.7477 C   0  0  0  0  0  0  0  0  0  0  0  0
   25.7120  -22.4028  -10.5528 O   0  0  0  0  0  0  0  0  0  0  0  0
   24.6512  -18.6476  -15.4228 O   0  0  0  0  0  0  0  0  0  0  0  0
   28.2332  -18.3610   -6.8604 C   0  0  0  0  0  0  0  0  0  0  0  0
   27.6991  -19.4777   -7.7650 C   0  0  1  0  0  0  0  0  0  0  0  0
   28.7375  -20.6201   -7.7676 C   0  0  0  0  0  0  0  0  0  0  0  0
   26.3734  -19.9793   -7.2844 C   0  0  0  0  0  0  0  0  0  0  0  0
   25.7932  -20.9559   -8.2459 C   0  0  2  0  0  0  0  0  0  0  0  0
   25.6490  -20.3508   -9.5839 N   0  0  0  0  0  0  0  0  0  0  0  0
   24.4374  -21.4208   -7.8277 C   0  0  0  0  0  0  0  0  0  0  0  0
   24.2281  -22.1845   -6.8538 O   0  0  0  0  0  0  0  0  0  0  0  0
   20.7979  -19.1939   -4.1481 C   0  0  0  0  0  0  0  0  0  0  0  0
   19.4996  -19.3506   -5.4077 S   0  0  0  0  0  0  0  0  0  0  0  0
   20.0414  -20.6079   -6.6340 C   0  0  0  0  0  0  0  0  0  0  0  0
   21.4372  -20.3158   -7.0932 C   0  0  0  0  0  0  0  0  0  0  0  0
   21.9074  -21.3406   -8.0852 C   0  0  2  0  0  0  0  0  0  0  0  0
   23.2654  -21.0095   -8.5343 N   0  0  0  0  0  0  0  0  0  0  0  0
   20.9924  -21.4847   -9.1957 C   0  0  0  0  0  0  0  0  0  0  0  0
   19.8209  -22.1799   -9.1473 O   0  0  0  0  0  0  0  0  0  0  0  0
   21.2840  -20.9325  -10.3125 O   0  0  0  0  0  0  0  0  0  0  0  0
  2  1  1  6
  3  2  1  0
  4  3  1  0
  5  6  2  0
  5  4  1  0
  7  2  1  0
  7  8  2  0
  9  5  1  0
 11 10  1  1
 12 11  1  0
 14 13  1  1
 13 11  1  0
 14 15  1  0
 15  7  1  0
 16 14  1  0
 17 16  2  0
 19 18  1  0
 19 20  1  0
 20 21  1  0
 22 21  1  1
 22 24  1  0
 22 23  1  0
 23 16  1  0
 24 25  1  0
 26 24  2  0
M  END
$$$$
