ELM.pdb
     RDKit          3D

 26 25  0  0  1  0  0  0  0  0999 V2000
   20.5485  -12.7638  -17.3525 N   0  0  0  0  0  0  0  0  0  0  0  0
   21.2719  -11.7274  -18.0174 C   0  0  1  0  0  0  0  0  0  0  0  0
   20.4708  -10.9977  -19.0438 C   0  0  0  0  0  0  0  0  0  0  0  0
   19.8335  -11.8600  -20.0709 C   0  0  0  0  0  0  0  0  0  0  0  0
   19.0634  -11.2176  -21.1242 C   0  0  0  0  0  0  0  0  0  0  0  0
   19.5256  -10.9839  -22.2632 O   0  0  0  0  0  0  0  0  0  0  0  0
   21.9699  -10.7794  -17.1029 C   0  0  0  0  0  0  0  0  0  0  0  0
   21.3858  -10.4376  -16.0173 O   0  0  0  0  0  0  0  0  0  0  0  0
   17.7223  -10.8310  -20.8643 O   0  0  0  0  0  0  0  0  0  0  0  0
   27.3151  -10.8312  -16.2789 C   0  0  0  0  0  0  0  0  0  0  0  0
   25.7902  -10.7372  -16.1518 C   0  0  1  0  0  0  0  0  0  0  0  0
   25.4032  -11.2261  -14.7396 C   0  0  0  0  0  0  0  0  0  0  0  0
   25.3121   -9.3353  -16.3673 C   0  0  0  0  0  0  0  0  0  0  0  0
   23.8257   -9.2685  -16.3337 C   0  0  2  0  0  0  0  0  0  0  0  0
   23.2374  -10.2054  -17.3101 N   0  0  0  0  0  0  0  0  0  0  0  0
   23.3151   -7.9068  -16.6718 C   0  0  0  0  0  0  0  0  0  0  0  0
   23.2271   -7.4622  -17.8423 O   0  0  0  0  0  0  0  0  0  0  0  0
   17.7060   -3.2200  -17.5128 C   0  0  0  0  0  0  0  0  0  0  0  0
   18.4736   -4.8458  -17.2589 S   0  0  0  0  0  0  0  0  0  0  0  0
   20.2045   -4.5801  -16.7010 C   0  0  0  0  0  0  0  0  0  0  0  0
   20.8669   -5.8949  -16.4235 C   0  0  0  0  0  0  0  0  0  0  0  0
   22.2766   -5.7013  -15.9433 C   0  0  2  0  0  0  0  0  0  0  0  0
   22.8841   -7.0053  -15.6502 N   0  0  0  0  0  0  0  0  0  0  0  0
   22.3486   -4.8059  -14.8100 C   0  0  0  0  0  0  0  0  0  0  0  0
   22.1873   -3.4543  -14.8807 O   0  0  0  0  0  0  0  0  0  0  0  0
   22.5826   -5.2942  -13.6506 O   0  0  0  0  0  0  0  0  0  0  0  0
  2  1  1  1
  3  2  1  0
  4  3  1  0
  5  6  2  0
  5  4  1  0
  7  2  1  0
  7  8  2  0
  9  5  1  0
 11 10  1  1
 12 11  1  0
 14 13  1  6
 13 11  1  0
 14 15  1  0
 15  7  1  0
 16 14  1  0
 17 16  2  0
 19 18  1  0
 19 20  1  0
 20 21  1  0
 22 21  1  1
 22 24  1  0
 22 23  1  0
 23 16  1  0
 24 25  1  0
 26 24  2  0
M  END
$$$$
