ELM.pdb
     RDKit          3D

 26 25  0  0  1  0  0  0  0  0999 V2000
   25.2194  -18.7543  -12.1315 N   0  0  0  0  0  0  0  0  0  0  0  0
   24.5205  -19.9767  -12.3697 C   0  0  1  0  0  0  0  0  0  0  0  0
   25.0320  -20.7434  -13.5437 C   0  0  0  0  0  0  0  0  0  0  0  0
   25.2582  -19.9361  -14.7692 C   0  0  0  0  0  0  0  0  0  0  0  0
   24.1548  -19.7845  -15.7044 C   0  0  0  0  0  0  0  0  0  0  0  0
   23.3932  -20.7255  -16.0210 O   0  0  0  0  0  0  0  0  0  0  0  0
   24.3848  -20.8521  -11.1706 C   0  0  0  0  0  0  0  0  0  0  0  0
   23.9957  -22.0592  -11.3377 O   0  0  0  0  0  0  0  0  0  0  0  0
   23.9167  -18.5158  -16.2951 O   0  0  0  0  0  0  0  0  0  0  0  0
   26.1256  -19.5533   -5.9895 C   0  0  0  0  0  0  0  0  0  0  0  0
   25.8331  -19.8231   -7.4701 C   0  0  1  0  0  0  0  0  0  0  0  0
   27.0662  -19.3753   -8.2840 C   0  0  0  0  0  0  0  0  0  0  0  0
   25.5467  -21.2720   -7.7125 C   0  0  0  0  0  0  0  0  0  0  0  0
   24.4719  -21.4398   -8.7282 C   0  0  2  0  0  0  0  0  0  0  0  0
   24.6471  -20.4838   -9.8385 N   0  0  0  0  0  0  0  0  0  0  0  0
   23.1137  -21.2013   -8.1559 C   0  0  0  0  0  0  0  0  0  0  0  0
   22.5380  -20.0859   -8.1593 O   0  0  0  0  0  0  0  0  0  0  0  0
   18.6842  -22.7561  -11.3335 C   0  0  0  0  0  0  0  0  0  0  0  0
   17.9172  -23.5007   -9.8658 S   0  0  0  0  0  0  0  0  0  0  0  0
   18.7363  -22.8022   -8.3761 C   0  0  0  0  0  0  0  0  0  0  0  0
   20.2253  -22.8418   -8.5371 C   0  0  0  0  0  0  0  0  0  0  0  0
   20.9148  -22.2067   -7.3638 C   0  0  2  0  0  0  0  0  0  0  0  0
   22.3695  -22.2623   -7.5539 N   0  0  0  0  0  0  0  0  0  0  0  0
   20.5119  -22.7998   -6.1080 C   0  0  0  0  0  0  0  0  0  0  0  0
   19.3293  -22.5491   -5.4784 O   0  0  0  0  0  0  0  0  0  0  0  0
   21.3070  -23.6172   -5.5274 O   0  0  0  0  0  0  0  0  0  0  0  0
  2  1  1  1
  3  2  1  0
  4  3  1  0
  5  6  2  0
  5  4  1  0
  7  2  1  0
  7  8  2  0
  9  5  1  0
 11 10  1  1
 12 11  1  0
 14 13  1  1
 13 11  1  0
 14 15  1  0
 15  7  1  0
 16 14  1  0
 17 16  2  0
 19 18  1  0
 19 20  1  0
 20 21  1  0
 22 21  1  6
 22 24  1  0
 22 23  1  0
 23 16  1  0
 24 25  1  0
 26 24  2  0
M  END
$$$$
