ELM.pdb
     RDKit          3D

 26 25  0  0  1  0  0  0  0  0999 V2000
   18.7605  -12.5634  -15.7113 N   0  0  0  0  0  0  0  0  0  0  0  0
   19.0745  -11.2700  -16.2290 C   0  0  1  0  0  0  0  0  0  0  0  0
   17.8744  -10.4394  -16.5417 C   0  0  0  0  0  0  0  0  0  0  0  0
   16.9249  -11.0485  -17.5072 C   0  0  0  0  0  0  0  0  0  0  0  0
   15.8258  -10.2316  -17.9967 C   0  0  0  0  0  0  0  0  0  0  0  0
   15.6012   -9.0711  -17.5861 O   0  0  0  0  0  0  0  0  0  0  0  0
   20.0638  -10.5054  -15.4171 C   0  0  0  0  0  0  0  0  0  0  0  0
   19.9247  -10.4865  -14.1456 O   0  0  0  0  0  0  0  0  0  0  0  0
   14.9572  -10.7606  -18.9871 O   0  0  0  0  0  0  0  0  0  0  0  0
   25.3922   -9.9517  -16.6339 C   0  0  0  0  0  0  0  0  0  0  0  0
   24.0558  -10.1428  -15.9074 C   0  0  1  0  0  0  0  0  0  0  0  0
   24.3397  -10.8867  -14.5848 C   0  0  0  0  0  0  0  0  0  0  0  0
   23.3926   -8.8290  -15.6346 C   0  0  0  0  0  0  0  0  0  0  0  0
   22.0556   -9.0266  -15.0116 C   0  0  2  0  0  0  0  0  0  0  0  0
   21.1651   -9.7837  -15.9123 N   0  0  0  0  0  0  0  0  0  0  0  0
   21.3763   -7.7311  -14.7125 C   0  0  0  0  0  0  0  0  0  0  0  0
   20.7690   -7.0442  -15.5696 O   0  0  0  0  0  0  0  0  0  0  0  0
   18.3416   -3.2490   -8.9492 C   0  0  0  0  0  0  0  0  0  0  0  0
   18.8427   -4.8981   -9.5202 S   0  0  0  0  0  0  0  0  0  0  0  0
   19.6257   -4.7173  -11.1732 C   0  0  0  0  0  0  0  0  0  0  0  0
   20.0821   -6.0517  -11.6789 C   0  0  0  0  0  0  0  0  0  0  0  0
   20.6898   -5.9342  -13.0472 C   0  0  2  0  0  0  0  0  0  0  0  0
   21.3792   -7.1836  -13.3925 N   0  0  0  0  0  0  0  0  0  0  0  0
   21.5637   -4.7874  -13.1591 C   0  0  0  0  0  0  0  0  0  0  0  0
   22.9240   -4.8543  -13.2153 O   0  0  0  0  0  0  0  0  0  0  0  0
   21.0460   -3.6182  -13.2066 O   0  0  0  0  0  0  0  0  0  0  0  0
  2  1  1  1
  3  2  1  0
  4  3  1  0
  5  6  2  0
  5  4  1  0
  7  2  1  0
  7  8  2  0
  9  5  1  0
 11 10  1  1
 12 11  1  0
 14 13  1  6
 13 11  1  0
 14 15  1  0
 15  7  1  0
 16 14  1  0
 17 16  2  0
 19 18  1  0
 19 20  1  0
 20 21  1  0
 22 21  1  1
 22 24  1  0
 22 23  1  0
 23 16  1  0
 24 25  1  0
 26 24  2  0
M  END
$$$$
