WDG.pdb
     RDKit          3D

 27 28  0  0  1  0  0  0  0  0999 V2000
   24.8028  -19.7868   -9.1736 N   0  0  0  0  0  0  0  0  0  0  0  0
   25.9833  -20.0067   -9.9250 C   0  0  1  0  0  0  0  0  0  0  0  0
   27.0030  -20.7852   -9.1709 C   0  0  0  0  0  0  0  0  0  0  0  0
   27.2507  -20.1823   -7.8453 C   0  0  0  0  0  0  0  0  0  0  0  0
   26.4734  -19.2185   -7.2371 C   0  0  0  0  0  0  0  0  0  0  0  0
   26.9940  -18.9405   -6.0315 N   0  0  0  0  0  0  0  0  0  0  0  0
   28.0776  -19.6922   -5.8469 C   0  0  0  0  0  0  0  0  0  0  0  0
   28.9549  -19.7610   -4.7702 C   0  0  0  0  0  0  0  0  0  0  0  0
   30.0395  -20.6152   -4.7824 C   0  0  0  0  0  0  0  0  0  0  0  0
   30.2010  -21.3834   -5.9047 C   0  0  0  0  0  0  0  0  0  0  0  0
   29.3513  -21.3388   -6.9855 C   0  0  0  0  0  0  0  0  0  0  0  0
   28.2655  -20.4820   -6.9678 C   0  0  0  0  0  0  0  0  0  0  0  0
   25.7029  -20.5847  -11.2725 C   0  0  0  0  0  0  0  0  0  0  0  0
   24.5481  -21.0330  -11.4879 O   0  0  0  0  0  0  0  0  0  0  0  0
   26.6422  -20.6622  -12.3183 N   0  0  0  0  0  0  0  0  0  0  0  0
   26.3002  -21.0627  -13.6720 C   0  0  1  0  0  0  0  0  0  0  0  0
   27.3016  -20.5811  -14.6739 C   0  0  0  0  0  0  0  0  0  0  0  0
   27.3865  -19.1167  -14.8142 C   0  0  0  0  0  0  0  0  0  0  0  0
   26.4089  -18.3783  -14.5767 O   0  0  0  0  0  0  0  0  0  0  0  0
   26.0652  -22.5252  -13.6902 C   0  0  0  0  0  0  0  0  0  0  0  0
   26.8482  -23.3163  -13.0690 O   0  0  0  0  0  0  0  0  0  0  0  0
   28.5734  -18.5374  -15.2180 O   0  0  0  0  0  0  0  0  0  0  0  0
   24.9848  -23.1438  -14.3761 N   0  0  0  0  0  0  0  0  0  0  0  0
   24.6563  -24.5482  -14.2456 C   0  0  0  0  0  0  0  0  0  0  0  0
   23.5255  -24.9766  -15.0968 C   0  0  0  0  0  0  0  0  0  0  0  0
   22.9067  -24.1307  -15.7690 O   0  0  0  0  0  0  0  0  0  0  0  0
   23.1750  -26.3040  -15.1320 O   0  0  0  0  0  0  0  0  0  0  0  0
  2  3  1  0
  2  1  1  1
  4  5  2  0
  4  3  1  0
  6  5  1  0
  7 12  2  0
  7  6  1  0
  8  7  1  0
  9 10  1  0
  9  8  2  0
 10 11  2  0
 11 12  1  0
 12  4  1  0
 13  2  1  0
 14 13  2  0
 15 13  1  0
 16 15  1  0
 16 17  1  6
 17 18  1  0
 18 22  1  0
 19 18  2  0
 20 16  1  0
 20 21  2  0
 23 20  1  0
 24 23  1  0
 24 25  1  0
 25 27  1  0
 26 25  2  0
M  END
$$$$
