WDG.pdb
     RDKit          3D

 27 28  0  0  1  0  0  0  0  0999 V2000
   26.2754  -22.3252  -11.8110 N   0  0  0  0  0  0  0  0  0  0  0  0
   25.7029  -21.1485  -11.2685 C   0  0  1  0  0  0  0  0  0  0  0  0
   26.6894  -20.0420  -11.1374 C   0  0  0  0  0  0  0  0  0  0  0  0
   27.8164  -20.4421  -10.2702 C   0  0  0  0  0  0  0  0  0  0  0  0
   29.0053  -20.9986  -10.6943 C   0  0  0  0  0  0  0  0  0  0  0  0
   29.7940  -21.1989   -9.6268 N   0  0  0  0  0  0  0  0  0  0  0  0
   29.1514  -20.7907   -8.5342 C   0  0  0  0  0  0  0  0  0  0  0  0
   29.5452  -20.7978   -7.2006 C   0  0  0  0  0  0  0  0  0  0  0  0
   28.7119  -20.3294   -6.2044 C   0  0  0  0  0  0  0  0  0  0  0  0
   27.4870  -19.8620   -6.6004 C   0  0  0  0  0  0  0  0  0  0  0  0
   27.0682  -19.8413   -7.9105 C   0  0  0  0  0  0  0  0  0  0  0  0
   27.9073  -20.3108   -8.9049 C   0  0  0  0  0  0  0  0  0  0  0  0
   24.4658  -20.7299  -11.9914 C   0  0  0  0  0  0  0  0  0  0  0  0
   23.8054  -19.7720  -11.5145 O   0  0  0  0  0  0  0  0  0  0  0  0
   23.9878  -21.3335  -13.1700 N   0  0  0  0  0  0  0  0  0  0  0  0
   22.7609  -20.9295  -13.8345 C   0  0  1  0  0  0  0  0  0  0  0  0
   22.9402  -20.7842  -15.3127 C   0  0  0  0  0  0  0  0  0  0  0  0
   21.7279  -20.3875  -16.0505 C   0  0  0  0  0  0  0  0  0  0  0  0
   20.7115  -19.9659  -15.4617 O   0  0  0  0  0  0  0  0  0  0  0  0
   21.6760  -21.8551  -13.4336 C   0  0  0  0  0  0  0  0  0  0  0  0
   21.9257  -23.0812  -13.1902 O   0  0  0  0  0  0  0  0  0  0  0  0
   21.7061  -20.4809  -17.4282 O   0  0  0  0  0  0  0  0  0  0  0  0
   20.3166  -21.4652  -13.2912 N   0  0  0  0  0  0  0  0  0  0  0  0
   19.2512  -22.3902  -12.9646 C   0  0  0  0  0  0  0  0  0  0  0  0
   18.7690  -22.2749  -11.5715 C   0  0  0  0  0  0  0  0  0  0  0  0
   19.1838  -21.3474  -10.8519 O   0  0  0  0  0  0  0  0  0  0  0  0
   17.8692  -23.1954  -11.0926 O   0  0  0  0  0  0  0  0  0  0  0  0
  2  3  1  0
  2  1  1  6
  4  5  2  0
  4  3  1  0
  6  5  1  0
  7 12  2  0
  7  6  1  0
  8  7  1  0
  9 10  1  0
  9  8  2  0
 10 11  2  0
 11 12  1  0
 12  4  1  0
 13  2  1  0
 14 13  2  0
 15 13  1  0
 16 15  1  0
 16 17  1  6
 17 18  1  0
 18 22  1  0
 19 18  2  0
 20 16  1  0
 20 21  2  0
 23 20  1  0
 24 23  1  0
 24 25  1  0
 25 27  1  0
 26 25  2  0
M  END
$$$$
