WDG.pdb
     RDKit          3D

 27 28  0  0  1  0  0  0  0  0999 V2000
   24.6874  -19.1057  -17.2067 N   0  0  0  0  0  0  0  0  0  0  0  0
   24.6129  -18.5888  -15.8899 C   0  0  1  0  0  0  0  0  0  0  0  0
   23.6916  -17.4249  -15.7851 C   0  0  0  0  0  0  0  0  0  0  0  0
   24.1980  -16.2807  -16.5702 C   0  0  0  0  0  0  0  0  0  0  0  0
   23.6720  -15.8196  -17.7592 C   0  0  0  0  0  0  0  0  0  0  0  0
   24.3769  -14.7490  -18.1575 N   0  0  0  0  0  0  0  0  0  0  0  0
   25.3361  -14.5091  -17.2655 C   0  0  0  0  0  0  0  0  0  0  0  0
   26.3168  -13.5236  -17.2386 C   0  0  0  0  0  0  0  0  0  0  0  0
   27.2355  -13.4542  -16.2104 C   0  0  0  0  0  0  0  0  0  0  0  0
   27.1274  -14.4021  -15.2279 C   0  0  0  0  0  0  0  0  0  0  0  0
   26.1692  -15.3891  -15.2255 C   0  0  0  0  0  0  0  0  0  0  0  0
   25.2504  -15.4536  -16.2575 C   0  0  0  0  0  0  0  0  0  0  0  0
   24.3179  -19.6456  -14.8777 C   0  0  0  0  0  0  0  0  0  0  0  0
   23.6798  -20.6595  -15.2595 O   0  0  0  0  0  0  0  0  0  0  0  0
   24.7050  -19.5851  -13.5255 N   0  0  0  0  0  0  0  0  0  0  0  0
   24.3902  -20.6205  -12.5566 C   0  0  1  0  0  0  0  0  0  0  0  0
   25.3377  -20.6179  -11.3987 C   0  0  0  0  0  0  0  0  0  0  0  0
   25.0799  -21.6525  -10.3815 C   0  0  0  0  0  0  0  0  0  0  0  0
   23.9773  -21.7426   -9.8039 O   0  0  0  0  0  0  0  0  0  0  0  0
   22.9613  -20.5039  -12.1835 C   0  0  0  0  0  0  0  0  0  0  0  0
   22.4626  -19.3737  -11.8691 O   0  0  0  0  0  0  0  0  0  0  0  0
   26.0771  -22.5494  -10.0523 O   0  0  0  0  0  0  0  0  0  0  0  0
   22.0612  -21.6034  -12.1484 N   0  0  0  0  0  0  0  0  0  0  0  0
   20.6996  -21.5049  -11.6648 C   0  0  0  0  0  0  0  0  0  0  0  0
   19.6865  -21.4722  -12.7414 C   0  0  0  0  0  0  0  0  0  0  0  0
   20.0521  -21.5045  -13.9312 O   0  0  0  0  0  0  0  0  0  0  0  0
   18.3552  -21.4064  -12.4107 O   0  0  0  0  0  0  0  0  0  0  0  0
  2  3  1  0
  2  1  1  6
  4  5  2  0
  4  3  1  0
  6  5  1  0
  7 12  2  0
  7  6  1  0
  8  7  1  0
  9 10  1  0
  9  8  2  0
 10 11  2  0
 11 12  1  0
 12  4  1  0
 13  2  1  0
 14 13  2  0
 15 13  1  0
 16 15  1  0
 16 17  1  1
 17 18  1  0
 18 22  1  0
 19 18  2  0
 20 16  1  0
 20 21  2  0
 23 20  1  0
 24 23  1  0
 24 25  1  0
 25 27  1  0
 26 25  2  0
M  END
$$$$
