WDG.pdb
     RDKit          3D

 27 28  0  0  1  0  0  0  0  0999 V2000
   21.1734   -8.6803  -15.5204 N   0  0  0  0  0  0  0  0  0  0  0  0
   21.9975   -9.8294  -15.4388 C   0  0  1  0  0  0  0  0  0  0  0  0
   23.0894   -9.6789  -14.4389 C   0  0  0  0  0  0  0  0  0  0  0  0
   24.3604   -9.3161  -15.0985 C   0  0  0  0  0  0  0  0  0  0  0  0
   24.6625   -8.0897  -15.6531 C   0  0  0  0  0  0  0  0  0  0  0  0
   25.9164   -8.1283  -16.1307 N   0  0  0  0  0  0  0  0  0  0  0  0
   26.4272   -9.3365  -15.9018 C   0  0  0  0  0  0  0  0  0  0  0  0
   27.6770   -9.8612  -16.2125 C   0  0  0  0  0  0  0  0  0  0  0  0
   28.0091  -11.1617  -15.8896 C   0  0  0  0  0  0  0  0  0  0  0  0
   27.0470  -11.8990  -15.2521 C   0  0  0  0  0  0  0  0  0  0  0  0
   25.8022  -11.4094  -14.9309 C   0  0  0  0  0  0  0  0  0  0  0  0
   25.4748  -10.1053  -15.2557 C   0  0  0  0  0  0  0  0  0  0  0  0
   21.2112  -11.0832  -15.2436 C   0  0  0  0  0  0  0  0  0  0  0  0
   20.0612  -10.9808  -14.7457 O   0  0  0  0  0  0  0  0  0  0  0  0
   21.6685  -12.3719  -15.5785 N   0  0  0  0  0  0  0  0  0  0  0  0
   20.8359  -13.5598  -15.5053 C   0  0  1  0  0  0  0  0  0  0  0  0
   19.5827  -13.4221  -16.3110 C   0  0  0  0  0  0  0  0  0  0  0  0
   18.6915  -14.5953  -16.2807 C   0  0  0  0  0  0  0  0  0  0  0  0
   18.2474  -15.0528  -15.2079 O   0  0  0  0  0  0  0  0  0  0  0  0
   21.6616  -14.7411  -15.8478 C   0  0  0  0  0  0  0  0  0  0  0  0
   22.3726  -14.7514  -16.9058 O   0  0  0  0  0  0  0  0  0  0  0  0
   18.3330  -15.2108  -17.4639 O   0  0  0  0  0  0  0  0  0  0  0  0
   21.7275  -15.9171  -15.0522 N   0  0  0  0  0  0  0  0  0  0  0  0
   22.5113  -17.0807  -15.4114 C   0  0  0  0  0  0  0  0  0  0  0  0
   21.8839  -17.9229  -16.4523 C   0  0  0  0  0  0  0  0  0  0  0  0
   20.7636  -17.6150  -16.8999 O   0  0  0  0  0  0  0  0  0  0  0  0
   22.5486  -19.0344  -16.9095 O   0  0  0  0  0  0  0  0  0  0  0  0
  2  3  1  0
  2  1  1  1
  4  5  2  0
  4  3  1  0
  6  5  1  0
  7 12  2  0
  7  6  1  0
  8  7  1  0
  9 10  1  0
  9  8  2  0
 10 11  2  0
 11 12  1  0
 12  4  1  0
 13  2  1  0
 14 13  2  0
 15 13  1  0
 16 15  1  0
 16 17  1  6
 17 18  1  0
 18 22  1  0
 19 18  2  0
 20 16  1  0
 20 21  2  0
 23 20  1  0
 24 23  1  0
 24 25  1  0
 25 27  1  0
 26 25  2  0
M  END
$$$$
