WDG.pdb
     RDKit          3D

 27 28  0  0  1  0  0  0  0  0999 V2000
   26.3515  -22.4437  -12.8914 N   0  0  0  0  0  0  0  0  0  0  0  0
   25.5757  -21.4612  -12.2286 C   0  0  1  0  0  0  0  0  0  0  0  0
   26.3285  -20.1978  -12.0007 C   0  0  0  0  0  0  0  0  0  0  0  0
   27.4210  -20.4045  -11.0282 C   0  0  0  0  0  0  0  0  0  0  0  0
   28.7222  -20.7453  -11.3340 C   0  0  0  0  0  0  0  0  0  0  0  0
   29.4299  -20.8149  -10.1955 N   0  0  0  0  0  0  0  0  0  0  0  0
   28.6270  -20.5312   -9.1717 C   0  0  0  0  0  0  0  0  0  0  0  0
   28.8892  -20.4803   -7.8070 C   0  0  0  0  0  0  0  0  0  0  0  0
   27.8982  -20.1693   -6.8976 C   0  0  0  0  0  0  0  0  0  0  0  0
   26.6538  -19.9165   -7.4108 C   0  0  0  0  0  0  0  0  0  0  0  0
   26.3625  -19.9585   -8.7545 C   0  0  0  0  0  0  0  0  0  0  0  0
   27.3594  -20.2696   -9.6616 C   0  0  0  0  0  0  0  0  0  0  0  0
   24.2583  -21.2310  -12.8918 C   0  0  0  0  0  0  0  0  0  0  0  0
   24.2147  -21.3016  -14.1464 O   0  0  0  0  0  0  0  0  0  0  0  0
   23.0617  -20.9407  -12.2092 N   0  0  0  0  0  0  0  0  0  0  0  0
   21.7801  -20.7823  -12.8743 C   0  0  1  0  0  0  0  0  0  0  0  0
   20.6297  -20.9655  -11.9355 C   0  0  0  0  0  0  0  0  0  0  0  0
   20.2689  -22.3674  -11.6597 C   0  0  0  0  0  0  0  0  0  0  0  0
   20.5209  -23.2804  -12.4722 O   0  0  0  0  0  0  0  0  0  0  0  0
   21.7796  -19.4936  -13.6050 C   0  0  0  0  0  0  0  0  0  0  0  0
   22.0317  -18.4023  -12.9964 O   0  0  0  0  0  0  0  0  0  0  0  0
   19.6357  -22.6888  -10.4751 O   0  0  0  0  0  0  0  0  0  0  0  0
   21.5091  -19.3732  -14.9952 N   0  0  0  0  0  0  0  0  0  0  0  0
   21.5189  -18.1100  -15.7035 C   0  0  0  0  0  0  0  0  0  0  0  0
   20.2433  -17.3676  -15.6140 C   0  0  0  0  0  0  0  0  0  0  0  0
   19.1668  -17.9730  -15.7723 O   0  0  0  0  0  0  0  0  0  0  0  0
   20.2665  -16.0185  -15.3573 O   0  0  0  0  0  0  0  0  0  0  0  0
  2  3  1  0
  2  1  1  6
  4  5  2  0
  4  3  1  0
  6  5  1  0
  7 12  2  0
  7  6  1  0
  8  7  1  0
  9 10  1  0
  9  8  2  0
 10 11  2  0
 11 12  1  0
 12  4  1  0
 13  2  1  0
 14 13  2  0
 15 13  1  0
 16 15  1  0
 16 17  1  1
 17 18  1  0
 18 22  1  0
 19 18  2  0
 20 16  1  0
 20 21  2  0
 23 20  1  0
 24 23  1  0
 24 25  1  0
 25 27  1  0
 26 25  2  0
M  END
$$$$
