WDG.pdb
     RDKit          3D

 27 28  0  0  1  0  0  0  0  0999 V2000
   25.6674  -19.2385  -12.5747 N   0  0  0  0  0  0  0  0  0  0  0  0
   26.1556  -20.5598  -12.7248 C   0  0  1  0  0  0  0  0  0  0  0  0
   25.6961  -21.4649  -11.6365 C   0  0  0  0  0  0  0  0  0  0  0  0
   26.1176  -20.9555  -10.3156 C   0  0  0  0  0  0  0  0  0  0  0  0
   25.2862  -20.4287   -9.3490 C   0  0  0  0  0  0  0  0  0  0  0  0
   26.0234  -20.1018   -8.2760 N   0  0  0  0  0  0  0  0  0  0  0  0
   27.2976  -20.4003   -8.5221 C   0  0  0  0  0  0  0  0  0  0  0  0
   28.4300  -20.2431   -7.7304 C   0  0  0  0  0  0  0  0  0  0  0  0
   29.6796  -20.6149   -8.1845 C   0  0  0  0  0  0  0  0  0  0  0  0
   29.7402  -21.1421   -9.4471 C   0  0  0  0  0  0  0  0  0  0  0  0
   28.6393  -21.3106  -10.2544 C   0  0  0  0  0  0  0  0  0  0  0  0
   27.3894  -20.9374   -9.7943 C   0  0  0  0  0  0  0  0  0  0  0  0
   25.8877  -21.1164  -14.0838 C   0  0  0  0  0  0  0  0  0  0  0  0
   25.0228  -20.5405  -14.7917 O   0  0  0  0  0  0  0  0  0  0  0  0
   26.5368  -22.2414  -14.6270 N   0  0  0  0  0  0  0  0  0  0  0  0
   26.3290  -22.7046  -15.9880 C   0  0  1  0  0  0  0  0  0  0  0  0
   27.5200  -23.4339  -16.5249 C   0  0  0  0  0  0  0  0  0  0  0  0
   28.7660  -22.6480  -16.5623 C   0  0  0  0  0  0  0  0  0  0  0  0
   28.7809  -21.4623  -16.9514 O   0  0  0  0  0  0  0  0  0  0  0  0
   25.0621  -23.4706  -16.0414 C   0  0  0  0  0  0  0  0  0  0  0  0
   24.6218  -23.9202  -17.1499 O   0  0  0  0  0  0  0  0  0  0  0  0
   29.9520  -23.2293  -16.1588 O   0  0  0  0  0  0  0  0  0  0  0  0
   24.2634  -23.7579  -14.9014 N   0  0  0  0  0  0  0  0  0  0  0  0
   23.0142  -24.4877  -14.9657 C   0  0  0  0  0  0  0  0  0  0  0  0
   21.8450  -23.6396  -15.2820 C   0  0  0  0  0  0  0  0  0  0  0  0
   21.9251  -22.7976  -16.1958 O   0  0  0  0  0  0  0  0  0  0  0  0
   20.6865  -23.7945  -14.5608 O   0  0  0  0  0  0  0  0  0  0  0  0
  2  3  1  0
  2  1  1  6
  4  5  2  0
  4  3  1  0
  6  5  1  0
  7 12  2  0
  7  6  1  0
  8  7  1  0
  9 10  1  0
  9  8  2  0
 10 11  2  0
 11 12  1  0
 12  4  1  0
 13  2  1  0
 14 13  2  0
 15 13  1  0
 16 15  1  0
 16 17  1  1
 17 18  1  0
 18 22  1  0
 19 18  2  0
 20 16  1  0
 20 21  2  0
 23 20  1  0
 24 23  1  0
 24 25  1  0
 25 27  1  0
 26 25  2  0
M  END
$$$$
