WDG.pdb
     RDKit          3D

 27 28  0  0  1  0  0  0  0  0999 V2000
   24.4193  -20.7197  -11.2283 N   0  0  0  0  0  0  0  0  0  0  0  0
   25.7165  -20.6885  -11.7963 C   0  0  1  0  0  0  0  0  0  0  0  0
   26.7413  -21.3088  -10.9132 C   0  0  0  0  0  0  0  0  0  0  0  0
   26.6357  -20.7847   -9.5362 C   0  0  0  0  0  0  0  0  0  0  0  0
   25.4634  -20.5122   -8.8621 C   0  0  0  0  0  0  0  0  0  0  0  0
   25.7648  -20.0805   -7.6274 N   0  0  0  0  0  0  0  0  0  0  0  0
   27.0890  -20.0666   -7.4877 C   0  0  0  0  0  0  0  0  0  0  0  0
   27.8779  -19.6952   -6.4044 C   0  0  0  0  0  0  0  0  0  0  0  0
   29.2559  -19.7475   -6.4696 C   0  0  0  0  0  0  0  0  0  0  0  0
   29.7969  -20.1816   -7.6505 C   0  0  0  0  0  0  0  0  0  0  0  0
   29.0444  -20.5560   -8.7395 C   0  0  0  0  0  0  0  0  0  0  0  0
   27.6641  -20.5027   -8.6686 C   0  0  0  0  0  0  0  0  0  0  0  0
   25.7460  -21.2404  -13.1830 C   0  0  0  0  0  0  0  0  0  0  0  0
   26.8467  -21.2370  -13.7907 O   0  0  0  0  0  0  0  0  0  0  0  0
   24.6264  -21.7644  -13.8568 N   0  0  0  0  0  0  0  0  0  0  0  0
   24.6526  -22.1784  -15.2489 C   0  0  1  0  0  0  0  0  0  0  0  0
   24.4218  -23.6483  -15.4059 C   0  0  0  0  0  0  0  0  0  0  0  0
   25.4544  -24.5084  -14.8015 C   0  0  0  0  0  0  0  0  0  0  0  0
   26.6507  -24.4389  -15.1499 O   0  0  0  0  0  0  0  0  0  0  0  0
   23.7188  -21.3227  -16.0171 C   0  0  0  0  0  0  0  0  0  0  0  0
   22.7242  -20.7692  -15.4433 O   0  0  0  0  0  0  0  0  0  0  0  0
   25.0993  -25.4173  -13.8241 O   0  0  0  0  0  0  0  0  0  0  0  0
   23.8516  -21.0571  -17.4071 N   0  0  0  0  0  0  0  0  0  0  0  0
   22.9913  -20.1442  -18.1309 C   0  0  0  0  0  0  0  0  0  0  0  0
   21.5625  -20.5239  -18.1025 C   0  0  0  0  0  0  0  0  0  0  0  0
   20.7478  -19.8080  -17.4910 O   0  0  0  0  0  0  0  0  0  0  0  0
   21.1560  -21.6634  -18.7527 O   0  0  0  0  0  0  0  0  0  0  0  0
  2  3  1  0
  2  1  1  1
  4  5  2  0
  4  3  1  0
  6  5  1  0
  7 12  2  0
  7  6  1  0
  8  7  1  0
  9 10  1  0
  9  8  2  0
 10 11  2  0
 11 12  1  0
 12  4  1  0
 13  2  1  0
 14 13  2  0
 15 13  1  0
 16 15  1  0
 16 17  1  1
 17 18  1  0
 18 22  1  0
 19 18  2  0
 20 16  1  0
 20 21  2  0
 23 20  1  0
 24 23  1  0
 24 25  1  0
 25 27  1  0
 26 25  2  0
M  END
$$$$
