WDG.pdb
     RDKit          3D

 27 28  0  0  1  0  0  0  0  0999 V2000
   17.5899  -28.3579   -1.4993 N   0  0  0  0  0  0  0  0  0  0  0  0
   18.0270  -29.1283   -0.3939 C   0  0  1  0  0  0  0  0  0  0  0  0
   19.5068  -29.2816   -0.3546 C   0  0  0  0  0  0  0  0  0  0  0  0
   20.1715  -27.9629   -0.3217 C   0  0  0  0  0  0  0  0  0  0  0  0
   20.5682  -27.2294   -1.4206 C   0  0  0  0  0  0  0  0  0  0  0  0
   21.1066  -26.0747   -0.9983 N   0  0  0  0  0  0  0  0  0  0  0  0
   21.0690  -26.0435    0.3325 C   0  0  0  0  0  0  0  0  0  0  0  0
   21.5083  -25.0716    1.2247 C   0  0  0  0  0  0  0  0  0  0  0  0
   21.3816  -25.2409    2.5890 C   0  0  0  0  0  0  0  0  0  0  0  0
   20.8045  -26.4095    3.0098 C   0  0  0  0  0  0  0  0  0  0  0  0
   20.3599  -27.3897    2.1531 C   0  0  0  0  0  0  0  0  0  0  0  0
   20.4882  -27.2146    0.7871 C   0  0  0  0  0  0  0  0  0  0  0  0
   17.4675  -28.6383    0.9004 C   0  0  0  0  0  0  0  0  0  0  0  0
   17.0126  -27.4667    0.9348 O   0  0  0  0  0  0  0  0  0  0  0  0
   17.4142  -29.3976    2.0847 N   0  0  0  0  0  0  0  0  0  0  0  0
   16.7703  -28.9359    3.3021 C   0  0  1  0  0  0  0  0  0  0  0  0
   15.8087  -29.9429    3.8498 C   0  0  0  0  0  0  0  0  0  0  0  0
   15.0028  -29.4766    4.9919 C   0  0  0  0  0  0  0  0  0  0  0  0
   15.0838  -28.3057    5.4159 O   0  0  0  0  0  0  0  0  0  0  0  0
   17.8156  -28.4996    4.2569 C   0  0  0  0  0  0  0  0  0  0  0  0
   18.7394  -29.3001    4.6184 O   0  0  0  0  0  0  0  0  0  0  0  0
   14.1331  -30.3498    5.6153 O   0  0  0  0  0  0  0  0  0  0  0  0
   17.8728  -27.1986    4.8264 N   0  0  0  0  0  0  0  0  0  0  0  0
   18.8546  -26.8025    5.8145 C   0  0  0  0  0  0  0  0  0  0  0  0
   18.5791  -27.3248    7.1701 C   0  0  0  0  0  0  0  0  0  0  0  0
   18.5753  -28.5543    7.3665 O   0  0  0  0  0  0  0  0  0  0  0  0
   18.3308  -26.4430    8.1933 O   0  0  0  0  0  0  0  0  0  0  0  0
  2  3  1  0
  2  1  1  6
  4  5  2  0
  4  3  1  0
  6  5  1  0
  7 12  2  0
  7  6  1  0
  8  7  1  0
  9 10  1  0
  9  8  2  0
 10 11  2  0
 11 12  1  0
 12  4  1  0
 13  2  1  0
 14 13  2  0
 15 13  1  0
 16 15  1  0
 16 17  1  1
 17 18  1  0
 18 22  1  0
 19 18  2  0
 20 16  1  0
 20 21  2  0
 23 20  1  0
 24 23  1  0
 24 25  1  0
 25 27  1  0
 26 25  2  0
M  END
$$$$
