WIM.pdb
     RDKit          3D

 31 32  0  0  1  0  0  0  0  0999 V2000
    5.4689  -18.4030   24.3949 N   0  0  0  0  0  0  0  0  0  0  0  0
    6.1800  -17.1712   24.3070 C   0  0  1  0  0  0  0  0  0  0  0  0
    6.8159  -16.8337   25.6254 C   0  0  0  0  0  0  0  0  0  0  0  0
    6.4094  -15.4661   26.0269 C   0  0  0  0  0  0  0  0  0  0  0  0
    5.1177  -15.1011   26.4301 C   0  0  0  0  0  0  0  0  0  0  0  0
    5.0902  -13.8007   26.7574 N   0  0  0  0  0  0  0  0  0  0  0  0
    6.3216  -13.3086   26.5793 C   0  0  0  0  0  0  0  0  0  0  0  0
    6.7939  -12.0283   26.7715 C   0  0  0  0  0  0  0  0  0  0  0  0
    8.1113  -11.7347   26.5137 C   0  0  0  0  0  0  0  0  0  0  0  0
    8.9325  -12.7358   26.0658 C   0  0  0  0  0  0  0  0  0  0  0  0
    8.4688  -14.0297   25.8684 C   0  0  0  0  0  0  0  0  0  0  0  0
    7.1495  -14.3125   26.1304 C   0  0  0  0  0  0  0  0  0  0  0  0
    7.1925  -17.1854   23.2054 C   0  0  0  0  0  0  0  0  0  0  0  0
    7.6686  -18.2788   22.8766 O   0  0  0  0  0  0  0  0  0  0  0  0
    8.4125  -12.4115   20.1822 C   0  0  0  0  0  0  0  0  0  0  0  0
    8.7044  -13.5476   21.1442 C   0  0  0  0  0  0  0  0  0  0  0  0
    8.3978  -14.8820   20.5987 C   0  0  2  0  0  0  0  0  0  0  0  0
    7.0387  -14.9929   19.9532 C   0  0  0  0  0  0  0  0  0  0  0  0
    8.7019  -15.9912   21.5498 C   0  0  2  0  0  0  0  0  0  0  0  0
    7.6173  -16.0195   22.5400 N   0  0  0  0  0  0  0  0  0  0  0  0
    9.9839  -15.9328   22.2422 C   0  0  0  0  0  0  0  0  0  0  0  0
   11.0464  -15.9106   21.5287 O   0  0  0  0  0  0  0  0  0  0  0  0
   10.8869  -14.9722   28.6851 C   0  0  0  0  0  0  0  0  0  0  0  0
   10.0223  -13.8989   27.5038 S   0  0  0  0  0  0  0  0  0  0  0  0
   10.8259  -13.9513   25.8642 C   0  0  0  0  0  0  0  0  0  0  0  0
   11.3383  -15.3412   25.6672 C   0  0  0  0  0  0  0  0  0  0  0  0
   11.5278  -15.7134   24.2161 C   0  0  2  0  0  0  0  0  0  0  0  0
   10.2146  -15.8932   23.6299 N   0  0  0  0  0  0  0  0  0  0  0  0
   12.2882  -17.0046   24.1655 C   0  0  0  0  0  0  0  0  0  0  0  0
   13.6057  -17.1359   24.5200 O   0  0  0  0  0  0  0  0  0  0  0  0
   11.6770  -18.0388   23.7710 O   0  0  0  0  0  0  0  0  0  0  0  0
  2  1  1  1
  2 13  1  0
  2  3  1  0
  3  4  1  0
  4  5  2  0
  5  6  1  0
  7  6  1  0
  8  7  2  0
  9  8  1  0
 10 11  1  0
 10  9  2  0
 11 12  2  0
 12  4  1  0
 12  7  1  0
 13 14  2  0
 15 16  1  0
 16 17  1  0
 17 18  1  1
 19 17  1  0
 20 13  1  0
 19 20  1  1
 21 22  2  0
 21 19  1  0
 23 24  1  0
 24 25  1  0
 26 25  1  0
 27 26  1  1
 27 28  1  0
 28 21  1  0
 29 30  1  0
 29 27  1  0
 31 29  2  0
M  END
$$$$
