WIM.pdb
     RDKit          3D

 31 32  0  0  1  0  0  0  0  0999 V2000
    6.7946  -18.4578   25.4293 N   0  0  0  0  0  0  0  0  0  0  0  0
    6.3328  -17.7256   24.2974 C   0  0  1  0  0  0  0  0  0  0  0  0
    5.5627  -16.5114   24.7327 C   0  0  0  0  0  0  0  0  0  0  0  0
    6.3791  -15.7357   25.6962 C   0  0  0  0  0  0  0  0  0  0  0  0
    7.3157  -16.2897   26.5796 C   0  0  0  0  0  0  0  0  0  0  0  0
    7.9057  -15.3175   27.2906 N   0  0  0  0  0  0  0  0  0  0  0  0
    7.3827  -14.1500   26.8987 C   0  0  0  0  0  0  0  0  0  0  0  0
    7.6557  -12.8721   27.3366 C   0  0  0  0  0  0  0  0  0  0  0  0
    6.9846  -11.8014   26.7968 C   0  0  0  0  0  0  0  0  0  0  0  0
    6.0484  -12.0349   25.8241 C   0  0  0  0  0  0  0  0  0  0  0  0
    5.7644  -13.3175   25.3742 C   0  0  0  0  0  0  0  0  0  0  0  0
    6.4423  -14.3811   25.9204 C   0  0  0  0  0  0  0  0  0  0  0  0
    7.4508  -17.3555   23.3744 C   0  0  0  0  0  0  0  0  0  0  0  0
    8.1374  -18.2722   22.9071 O   0  0  0  0  0  0  0  0  0  0  0  0
    6.6418  -12.9085   20.3500 C   0  0  0  0  0  0  0  0  0  0  0  0
    7.0454  -14.2742   20.8731 C   0  0  0  0  0  0  0  0  0  0  0  0
    8.3751  -14.2983   21.5081 C   0  0  2  0  0  0  0  0  0  0  0  0
    9.4615  -13.6300   20.7022 C   0  0  0  0  0  0  0  0  0  0  0  0
    8.7558  -15.6450   22.0266 C   0  0  2  0  0  0  0  0  0  0  0  0
    7.7462  -16.0242   23.0240 N   0  0  0  0  0  0  0  0  0  0  0  0
   10.0842  -15.7738   22.6139 C   0  0  0  0  0  0  0  0  0  0  0  0
   11.0945  -15.6143   21.8442 O   0  0  0  0  0  0  0  0  0  0  0  0
   11.4198  -14.7018   29.1767 C   0  0  0  0  0  0  0  0  0  0  0  0
   10.2112  -14.6715   27.8226 S   0  0  0  0  0  0  0  0  0  0  0  0
   11.0436  -14.4754   26.2083 C   0  0  0  0  0  0  0  0  0  0  0  0
   11.7477  -15.7605   25.9150 C   0  0  0  0  0  0  0  0  0  0  0  0
   11.7740  -16.1113   24.4466 C   0  0  2  0  0  0  0  0  0  0  0  0
   10.4125  -16.0548   23.9532 N   0  0  0  0  0  0  0  0  0  0  0  0
   12.3052  -17.5072   24.3143 C   0  0  0  0  0  0  0  0  0  0  0  0
   11.5877  -18.5584   23.8055 O   0  0  0  0  0  0  0  0  0  0  0  0
   13.4899  -17.7305   24.6959 O   0  0  0  0  0  0  0  0  0  0  0  0
  2  1  1  1
  2 13  1  0
  2  3  1  0
  3  4  1  0
  4  5  2  0
  5  6  1  0
  7  6  1  0
  8  7  2  0
  9  8  1  0
 10 11  1  0
 10  9  2  0
 11 12  2  0
 12  4  1  0
 12  7  1  0
 13 14  2  0
 15 16  1  0
 16 17  1  0
 17 18  1  6
 19 17  1  0
 20 13  1  0
 19 20  1  1
 21 22  2  0
 21 19  1  0
 23 24  1  0
 24 25  1  0
 26 25  1  0
 27 26  1  1
 27 28  1  0
 28 21  1  0
 29 30  1  0
 29 27  1  0
 31 29  2  0
M  END
$$$$
