WIM.pdb
     RDKit          3D

 31 32  0  0  1  0  0  0  0  0999 V2000
    6.3161  -18.7954   24.9263 N   0  0  0  0  0  0  0  0  0  0  0  0
    6.6055  -17.4007   24.8823 C   0  0  1  0  0  0  0  0  0  0  0  0
    6.9593  -16.8917   26.2506 C   0  0  0  0  0  0  0  0  0  0  0  0
    6.3235  -15.5691   26.4582 C   0  0  0  0  0  0  0  0  0  0  0  0
    4.9490  -15.3610   26.6363 C   0  0  0  0  0  0  0  0  0  0  0  0
    4.7045  -14.0568   26.8315 N   0  0  0  0  0  0  0  0  0  0  0  0
    5.8751  -13.4105   26.7852 C   0  0  0  0  0  0  0  0  0  0  0  0
    6.1438  -12.0656   26.9205 C   0  0  0  0  0  0  0  0  0  0  0  0
    7.4364  -11.6090   26.8270 C   0  0  0  0  0  0  0  0  0  0  0  0
    8.4386  -12.5147   26.5981 C   0  0  0  0  0  0  0  0  0  0  0  0
    8.1810  -13.8723   26.4602 C   0  0  0  0  0  0  0  0  0  0  0  0
    6.8844  -14.3181   26.5566 C   0  0  0  0  0  0  0  0  0  0  0  0
    7.6803  -17.0819   23.8913 C   0  0  0  0  0  0  0  0  0  0  0  0
    8.5152  -17.9612   23.6464 O   0  0  0  0  0  0  0  0  0  0  0  0
    6.5881  -13.0503   20.3941 C   0  0  0  0  0  0  0  0  0  0  0  0
    7.1000  -14.3513   20.9831 C   0  0  0  0  0  0  0  0  0  0  0  0
    8.4341  -14.2403   21.5994 C   0  0  2  0  0  0  0  0  0  0  0  0
    9.4945  -13.6715   20.6893 C   0  0  0  0  0  0  0  0  0  0  0  0
    8.8587  -15.4811   22.3120 C   0  0  2  0  0  0  0  0  0  0  0  0
    7.7758  -15.8382   23.2381 N   0  0  0  0  0  0  0  0  0  0  0  0
   10.1181  -15.4223   23.0444 C   0  0  0  0  0  0  0  0  0  0  0  0
   10.3615  -14.3678   23.7282 O   0  0  0  0  0  0  0  0  0  0  0  0
   11.0406  -15.7042   28.4922 C   0  0  0  0  0  0  0  0  0  0  0  0
   12.4746  -14.9308   27.6918 S   0  0  0  0  0  0  0  0  0  0  0  0
   13.0597  -15.9386   26.2850 C   0  0  0  0  0  0  0  0  0  0  0  0
   11.9100  -16.0919   25.3427 C   0  0  0  0  0  0  0  0  0  0  0  0
   12.3302  -16.2585   23.9019 C   0  0  2  0  0  0  0  0  0  0  0  0
   11.1289  -16.3997   23.1037 N   0  0  0  0  0  0  0  0  0  0  0  0
   13.1562  -17.5059   23.8026 C   0  0  0  0  0  0  0  0  0  0  0  0
   14.4470  -17.6117   24.2512 O   0  0  0  0  0  0  0  0  0  0  0  0
   12.6301  -18.5258   23.2714 O   0  0  0  0  0  0  0  0  0  0  0  0
  2  1  1  1
  2 13  1  0
  2  3  1  0
  3  4  1  0
  4  5  2  0
  5  6  1  0
  7  6  1  0
  8  7  2  0
  9  8  1  0
 10 11  1  0
 10  9  2  0
 11 12  2  0
 12  4  1  0
 12  7  1  0
 13 14  2  0
 15 16  1  0
 16 17  1  0
 17 18  1  6
 19 17  1  0
 20 13  1  0
 19 20  1  1
 21 22  2  0
 21 19  1  0
 23 24  1  0
 24 25  1  0
 26 25  1  0
 27 26  1  1
 27 28  1  0
 28 21  1  0
 29 30  1  0
 29 27  1  0
 31 29  2  0
M  END
$$$$
