WIM.pdb
     RDKit          3D

 31 32  0  0  1  0  0  0  0  0999 V2000
    5.8627  -17.8729   24.4775 N   0  0  0  0  0  0  0  0  0  0  0  0
    6.5941  -16.6590   24.3287 C   0  0  1  0  0  0  0  0  0  0  0  0
    7.2377  -16.2679   25.6284 C   0  0  0  0  0  0  0  0  0  0  0  0
    6.4582  -15.1698   26.2475 C   0  0  0  0  0  0  0  0  0  0  0  0
    5.2957  -15.3450   27.0105 C   0  0  0  0  0  0  0  0  0  0  0  0
    4.8540  -14.1579   27.4518 N   0  0  0  0  0  0  0  0  0  0  0  0
    5.6911  -13.2170   26.9998 C   0  0  0  0  0  0  0  0  0  0  0  0
    5.6576  -11.8507   27.1770 C   0  0  0  0  0  0  0  0  0  0  0  0
    6.6255  -11.0589   26.6074 C   0  0  0  0  0  0  0  0  0  0  0  0
    7.6121  -11.6560   25.8677 C   0  0  0  0  0  0  0  0  0  0  0  0
    7.6570  -13.0314   25.6819 C   0  0  0  0  0  0  0  0  0  0  0  0
    6.6844  -13.8141   26.2570 C   0  0  0  0  0  0  0  0  0  0  0  0
    7.6044  -16.7441   23.2283 C   0  0  0  0  0  0  0  0  0  0  0  0
    7.9126  -17.8693   22.8170 O   0  0  0  0  0  0  0  0  0  0  0  0
    8.1934  -12.0347   20.3411 C   0  0  0  0  0  0  0  0  0  0  0  0
    8.7208  -13.1885   21.1731 C   0  0  0  0  0  0  0  0  0  0  0  0
    8.5031  -14.5112   20.5606 C   0  0  2  0  0  0  0  0  0  0  0  0
    7.1144  -14.7206   20.0094 C   0  0  0  0  0  0  0  0  0  0  0  0
    8.9879  -15.6398   21.4085 C   0  0  2  0  0  0  0  0  0  0  0  0
    8.2083  -15.6096   22.6531 N   0  0  0  0  0  0  0  0  0  0  0  0
   10.4096  -15.6577   21.7318 C   0  0  0  0  0  0  0  0  0  0  0  0
   11.0688  -14.5706   21.5825 O   0  0  0  0  0  0  0  0  0  0  0  0
   11.2212  -15.8804   27.6766 C   0  0  0  0  0  0  0  0  0  0  0  0
   11.5703  -14.4367   26.6331 S   0  0  0  0  0  0  0  0  0  0  0  0
   12.4036  -14.9352   25.0858 C   0  0  0  0  0  0  0  0  0  0  0  0
   11.5458  -15.9719   24.4359 C   0  0  0  0  0  0  0  0  0  0  0  0
   12.1881  -16.6161   23.2306 C   0  0  2  0  0  0  0  0  0  0  0  0
   11.1744  -16.7412   22.2025 N   0  0  0  0  0  0  0  0  0  0  0  0
   12.6716  -17.9762   23.6361 C   0  0  0  0  0  0  0  0  0  0  0  0
   13.9260  -18.2325   24.1254 O   0  0  0  0  0  0  0  0  0  0  0  0
   11.8728  -18.9496   23.5198 O   0  0  0  0  0  0  0  0  0  0  0  0
  2  1  1  1
  2 13  1  0
  2  3  1  0
  3  4  1  0
  4  5  2  0
  5  6  1  0
  7  6  1  0
  8  7  2  0
  9  8  1  0
 10 11  1  0
 10  9  2  0
 11 12  2  0
 12  4  1  0
 12  7  1  0
 13 14  2  0
 15 16  1  0
 16 17  1  0
 17 18  1  1
 19 17  1  0
 20 13  1  0
 19 20  1  1
 21 22  2  0
 21 19  1  0
 23 24  1  0
 24 25  1  0
 26 25  1  0
 27 26  1  1
 27 28  1  0
 28 21  1  0
 29 30  1  0
 29 27  1  0
 31 29  2  0
M  END
$$$$
