WIM.pdb
     RDKit          3D

 31 32  0  0  1  0  0  0  0  0999 V2000
    6.1688  -18.5084   24.7149 N   0  0  0  0  0  0  0  0  0  0  0  0
    6.6300  -17.1700   24.5508 C   0  0  1  0  0  0  0  0  0  0  0  0
    7.1836  -16.6404   25.8429 C   0  0  0  0  0  0  0  0  0  0  0  0
    6.4640  -15.3974   26.2085 C   0  0  0  0  0  0  0  0  0  0  0  0
    5.1449  -15.3452   26.6791 C   0  0  0  0  0  0  0  0  0  0  0  0
    4.8044  -14.0763   26.9489 N   0  0  0  0  0  0  0  0  0  0  0  0
    5.8589  -13.3021   26.6683 C   0  0  0  0  0  0  0  0  0  0  0  0
    5.9992  -11.9350   26.7715 C   0  0  0  0  0  0  0  0  0  0  0  0
    7.1832  -11.3357   26.4148 C   0  0  0  0  0  0  0  0  0  0  0  0
    8.2076  -12.1232   25.9592 C   0  0  0  0  0  0  0  0  0  0  0  0
    8.0789  -13.5016   25.8509 C   0  0  0  0  0  0  0  0  0  0  0  0
    6.8905  -14.0907   26.2114 C   0  0  0  0  0  0  0  0  0  0  0  0
    7.6309  -17.0533   23.4447 C   0  0  0  0  0  0  0  0  0  0  0  0
    8.2435  -18.0758   23.1138 O   0  0  0  0  0  0  0  0  0  0  0  0
    7.2182  -12.7076   20.1271 C   0  0  0  0  0  0  0  0  0  0  0  0
    7.4504  -14.1032   20.6750 C   0  0  0  0  0  0  0  0  0  0  0  0
    8.8136  -14.3195   21.1919 C   0  0  2  0  0  0  0  0  0  0  0  0
    9.9114  -13.9473   20.2262 C   0  0  0  0  0  0  0  0  0  0  0  0
    8.9986  -15.6597   21.8221 C   0  0  2  0  0  0  0  0  0  0  0  0
    7.8978  -15.8425   22.7774 N   0  0  0  0  0  0  0  0  0  0  0  0
   10.2676  -15.9002   22.4988 C   0  0  0  0  0  0  0  0  0  0  0  0
   11.3246  -15.9622   21.7794 O   0  0  0  0  0  0  0  0  0  0  0  0
   10.2292  -15.4729   28.9131 C   0  0  0  0  0  0  0  0  0  0  0  0
   11.5185  -14.4687   28.1228 S   0  0  0  0  0  0  0  0  0  0  0  0
   11.4208  -14.5947   26.3030 C   0  0  0  0  0  0  0  0  0  0  0  0
   11.6941  -16.0191   25.9432 C   0  0  0  0  0  0  0  0  0  0  0  0
   11.8082  -16.2534   24.4558 C   0  0  2  0  0  0  0  0  0  0  0  0
   10.4915  -16.0750   23.8772 N   0  0  0  0  0  0  0  0  0  0  0  0
   12.2696  -17.6642   24.2442 C   0  0  0  0  0  0  0  0  0  0  0  0
   13.5376  -18.1079   24.5159 O   0  0  0  0  0  0  0  0  0  0  0  0
   11.4375  -18.4988   23.7859 O   0  0  0  0  0  0  0  0  0  0  0  0
  2  1  1  1
  2 13  1  0
  2  3  1  0
  3  4  1  0
  4  5  2  0
  5  6  1  0
  7  6  1  0
  8  7  2  0
  9  8  1  0
 10 11  1  0
 10  9  2  0
 11 12  2  0
 12  4  1  0
 12  7  1  0
 13 14  2  0
 15 16  1  0
 16 17  1  0
 17 18  1  6
 19 17  1  0
 20 13  1  0
 19 20  1  1
 21 22  2  0
 21 19  1  0
 23 24  1  0
 24 25  1  0
 26 25  1  0
 27 26  1  1
 27 28  1  0
 28 21  1  0
 29 30  1  0
 29 27  1  0
 31 29  2  0
M  END
$$$$
