WIM.pdb
     RDKit          3D

 31 32  0  0  1  0  0  0  0  0999 V2000
   11.0338  -18.9786   19.0902 N   0  0  0  0  0  0  0  0  0  0  0  0
   10.0239  -18.7607   20.0717 C   0  0  1  0  0  0  0  0  0  0  0  0
   10.0820  -19.8219   21.1333 C   0  0  0  0  0  0  0  0  0  0  0  0
    9.6088  -21.1064   20.5651 C   0  0  0  0  0  0  0  0  0  0  0  0
   10.4250  -22.2159   20.3059 C   0  0  0  0  0  0  0  0  0  0  0  0
    9.6856  -23.2266   19.8258 N   0  0  0  0  0  0  0  0  0  0  0  0
    8.4156  -22.8099   19.7637 C   0  0  0  0  0  0  0  0  0  0  0  0
    7.2902  -23.4782   19.3324 C   0  0  0  0  0  0  0  0  0  0  0  0
    6.0689  -22.8486   19.3440 C   0  0  0  0  0  0  0  0  0  0  0  0
    6.0005  -21.5548   19.7897 C   0  0  0  0  0  0  0  0  0  0  0  0
    7.1269  -20.8706   20.2270 C   0  0  0  0  0  0  0  0  0  0  0  0
    8.3433  -21.5105   20.2121 C   0  0  0  0  0  0  0  0  0  0  0  0
   10.1089  -17.3917   20.6695 C   0  0  0  0  0  0  0  0  0  0  0  0
   11.2347  -16.9091   20.8426 O   0  0  0  0  0  0  0  0  0  0  0  0
    7.1771  -12.1612   20.3908 C   0  0  0  0  0  0  0  0  0  0  0  0
    8.1598  -13.0218   21.1623 C   0  0  0  0  0  0  0  0  0  0  0  0
    8.0247  -14.4647   20.8937 C   0  0  2  0  0  0  0  0  0  0  0  0
    6.6148  -14.9893   21.0083 C   0  0  0  0  0  0  0  0  0  0  0  0
    9.0337  -15.2950   21.6147 C   0  0  2  0  0  0  0  0  0  0  0  0
    8.9736  -16.6443   21.0372 N   0  0  0  0  0  0  0  0  0  0  0  0
    8.8985  -15.3856   23.0637 C   0  0  0  0  0  0  0  0  0  0  0  0
    8.0998  -16.2685   23.5340 O   0  0  0  0  0  0  0  0  0  0  0  0
    6.2359  -12.0953   27.6748 C   0  0  0  0  0  0  0  0  0  0  0  0
    6.0311  -12.6382   25.9547 S   0  0  0  0  0  0  0  0  0  0  0  0
    7.6358  -13.1186   25.2259 C   0  0  0  0  0  0  0  0  0  0  0  0
    8.0715  -14.3758   25.9061 C   0  0  0  0  0  0  0  0  0  0  0  0
    9.4324  -14.8589   25.4648 C   0  0  2  0  0  0  0  0  0  0  0  0
    9.5502  -14.6115   24.0417 N   0  0  0  0  0  0  0  0  0  0  0  0
    9.5093  -16.3321   25.7329 C   0  0  0  0  0  0  0  0  0  0  0  0
    9.8444  -16.8771   26.9451 O   0  0  0  0  0  0  0  0  0  0  0  0
    9.2490  -17.1232   24.7814 O   0  0  0  0  0  0  0  0  0  0  0  0
  2  1  1  6
  2 13  1  0
  2  3  1  0
  3  4  1  0
  4  5  2  0
  5  6  1  0
  7  6  1  0
  8  7  2  0
  9  8  1  0
 10 11  1  0
 10  9  2  0
 11 12  2  0
 12  4  1  0
 12  7  1  0
 13 14  2  0
 15 16  1  0
 16 17  1  0
 17 18  1  1
 19 17  1  0
 20 13  1  0
 19 20  1  6
 21 22  2  0
 21 19  1  0
 23 24  1  0
 24 25  1  0
 26 25  1  0
 27 26  1  6
 27 28  1  0
 28 21  1  0
 29 30  1  0
 29 27  1  0
 31 29  2  0
M  END
$$$$
