SFT.pdb
     RDKit          3D

 25 25  0  0  1  0  0  0  0  0999 V2000
   26.3860  -21.3403  -18.3196 O   0  0  0  0  0  0  0  0  0  0  0  0
   27.5254  -20.7442  -17.7501 C   0  0  0  0  0  0  0  0  0  0  0  0
   28.0978  -21.7496  -16.7832 C   0  0  2  0  0  0  0  0  0  0  0  0
   28.3468  -22.9881  -17.4966 N   0  0  0  0  0  0  0  0  0  0  0  0
   27.1802  -21.9806  -15.6389 C   0  0  0  0  0  0  0  0  0  0  0  0
   26.5190  -23.0327  -15.4547 O   0  0  0  0  0  0  0  0  0  0  0  0
   27.0424  -20.9356  -14.6865 N   0  0  0  0  0  0  0  0  0  0  0  0
   26.1995  -21.0425  -13.5221 C   0  0  1  0  0  0  0  0  0  0  0  0
   26.6517  -20.1672  -12.3945 C   0  0  0  0  0  0  0  0  0  0  0  0
   25.8909  -20.3380  -11.1364 C   0  0  0  0  0  0  0  0  0  0  0  0
   24.6452  -19.7194  -10.9752 C   0  0  0  0  0  0  0  0  0  0  0  0
   23.8851  -19.8532   -9.8342 C   0  0  0  0  0  0  0  0  0  0  0  0
   24.3501  -20.6241   -8.7931 C   0  0  0  0  0  0  0  0  0  0  0  0
   25.5720  -21.2536   -8.9054 C   0  0  0  0  0  0  0  0  0  0  0  0
   26.3238  -21.1018  -10.0741 C   0  0  0  0  0  0  0  0  0  0  0  0
   24.8262  -20.6695  -13.9146 C   0  0  0  0  0  0  0  0  0  0  0  0
   24.5342  -19.5859  -14.4803 O   0  0  0  0  0  0  0  0  0  0  0  0
   22.6441  -22.1740  -16.2059 C   0  0  0  0  0  0  0  0  0  0  0  0
   21.7795  -22.1906  -14.9624 C   0  0  1  0  0  0  0  0  0  0  0  0
   21.9014  -23.4674  -14.4025 O   0  0  0  0  0  0  0  0  0  0  0  0
   22.3845  -21.2202  -13.9715 C   0  0  2  0  0  0  0  0  0  0  0  0
   23.7554  -21.5670  -13.6498 N   0  0  0  0  0  0  0  0  0  0  0  0
   21.5502  -21.1153  -12.7477 C   0  0  0  0  0  0  0  0  0  0  0  0
   20.2731  -20.5958  -12.7987 O   0  0  0  0  0  0  0  0  0  0  0  0
   22.0044  -21.5023  -11.6458 O   0  0  0  0  0  0  0  0  0  0  0  0
  2  1  1  0
  3  5  1  0
  3  2  1  0
  3  4  1  6
  5  6  2  0
  7  5  1  0
  8  7  1  0
  8  9  1  1
  9 10  1  0
 10 15  2  0
 11 10  1  0
 11 12  2  0
 12 13  1  0
 13 14  2  0
 15 14  1  0
 16  8  1  0
 17 16  2  0
 19 18  1  6
 19 21  1  0
 20 19  1  0
 21 23  1  0
 21 22  1  1
 22 16  1  0
 23 24  1  0
 25 23  2  0
M  END
$$$$
