SFT.pdb
     RDKit          3D

 25 25  0  0  1  0  0  0  0  0999 V2000
   20.8458   -7.1670  -20.6760 O   0  0  0  0  0  0  0  0  0  0  0  0
   20.1193   -6.9425  -19.4929 C   0  0  0  0  0  0  0  0  0  0  0  0
   20.8776   -7.6311  -18.3865 C   0  0  2  0  0  0  0  0  0  0  0  0
   20.7297   -9.0654  -18.5470 N   0  0  0  0  0  0  0  0  0  0  0  0
   20.3916   -7.2015  -17.0509 C   0  0  0  0  0  0  0  0  0  0  0  0
   19.4378   -7.7357  -16.4321 O   0  0  0  0  0  0  0  0  0  0  0  0
   21.0543   -6.1083  -16.4315 N   0  0  0  0  0  0  0  0  0  0  0  0
   20.7046   -5.6202  -15.1211 C   0  0  1  0  0  0  0  0  0  0  0  0
   21.8229   -5.7513  -14.1340 C   0  0  0  0  0  0  0  0  0  0  0  0
   22.0082   -7.1143  -13.5878 C   0  0  0  0  0  0  0  0  0  0  0  0
   22.9290   -7.9908  -14.1746 C   0  0  0  0  0  0  0  0  0  0  0  0
   23.1553   -9.2649  -13.7024 C   0  0  0  0  0  0  0  0  0  0  0  0
   22.4572   -9.7186  -12.6063 C   0  0  0  0  0  0  0  0  0  0  0  0
   21.5394   -8.8913  -11.9940 C   0  0  0  0  0  0  0  0  0  0  0  0
   21.3285   -7.6025  -12.4928 C   0  0  0  0  0  0  0  0  0  0  0  0
   20.3237   -4.1995  -15.2477 C   0  0  0  0  0  0  0  0  0  0  0  0
   21.1515   -3.2700  -15.4212 O   0  0  0  0  0  0  0  0  0  0  0  0
   18.2986   -2.6754  -17.7913 C   0  0  0  0  0  0  0  0  0  0  0  0
   17.5504   -2.3371  -16.5186 C   0  0  1  0  0  0  0  0  0  0  0  0
   16.5852   -3.3347  -16.3399 O   0  0  0  0  0  0  0  0  0  0  0  0
   18.5250   -2.4622  -15.3679 C   0  0  2  0  0  0  0  0  0  0  0  0
   18.9514   -3.8345  -15.1729 N   0  0  0  0  0  0  0  0  0  0  0  0
   17.9579   -1.8881  -14.1215 C   0  0  0  0  0  0  0  0  0  0  0  0
   17.8031   -0.5254  -13.9711 O   0  0  0  0  0  0  0  0  0  0  0  0
   17.6112   -2.6454  -13.1853 O   0  0  0  0  0  0  0  0  0  0  0  0
  2  1  1  0
  3  5  1  0
  3  2  1  0
  3  4  1  6
  5  6  2  0
  7  5  1  0
  8  7  1  0
  8  9  1  1
  9 10  1  0
 10 15  2  0
 11 10  1  0
 11 12  2  0
 12 13  1  0
 13 14  2  0
 15 14  1  0
 16  8  1  0
 17 16  2  0
 19 18  1  6
 19 21  1  0
 20 19  1  0
 21 23  1  0
 21 22  1  1
 22 16  1  0
 23 24  1  0
 25 23  2  0
M  END
$$$$
