SFT.pdb
     RDKit          3D

 25 25  0  0  1  0  0  0  0  0999 V2000
   24.0276  -20.7624  -12.6244 O   0  0  0  0  0  0  0  0  0  0  0  0
   25.2355  -20.0421  -12.6327 C   0  0  0  0  0  0  0  0  0  0  0  0
   26.3254  -21.0280  -12.2960 C   0  0  2  0  0  0  0  0  0  0  0  0
   26.0874  -22.2521  -13.0374 N   0  0  0  0  0  0  0  0  0  0  0  0
   26.3741  -21.3010  -10.8373 C   0  0  0  0  0  0  0  0  0  0  0  0
   25.9159  -22.3338  -10.2884 O   0  0  0  0  0  0  0  0  0  0  0  0
   26.9828  -20.3229  -10.0062 N   0  0  0  0  0  0  0  0  0  0  0  0
   27.1030  -20.4732   -8.5777 C   0  0  1  0  0  0  0  0  0  0  0  0
   28.1377  -19.5690   -7.9828 C   0  0  0  0  0  0  0  0  0  0  0  0
   28.3191  -19.7152   -6.5211 C   0  0  0  0  0  0  0  0  0  0  0  0
   27.8469  -18.7270   -5.6488 C   0  0  0  0  0  0  0  0  0  0  0  0
   27.9735  -18.8142   -4.2800 C   0  0  0  0  0  0  0  0  0  0  0  0
   28.5878  -19.9122   -3.7218 C   0  0  0  0  0  0  0  0  0  0  0  0
   29.0692  -20.9120   -4.5406 C   0  0  0  0  0  0  0  0  0  0  0  0
   28.9279  -20.7994   -5.9268 C   0  0  0  0  0  0  0  0  0  0  0  0
   25.7880  -20.1809   -7.9738 C   0  0  0  0  0  0  0  0  0  0  0  0
   25.0736  -19.2007   -8.3030 O   0  0  0  0  0  0  0  0  0  0  0  0
   23.3807  -23.2090   -6.5161 C   0  0  0  0  0  0  0  0  0  0  0  0
   22.9536  -21.8240   -6.9558 C   0  0  1  0  0  0  0  0  0  0  0  0
   21.7329  -21.5583   -6.3249 O   0  0  0  0  0  0  0  0  0  0  0  0
   23.9564  -20.8375   -6.3983 C   0  0  2  0  0  0  0  0  0  0  0  0
   25.2774  -21.0392   -6.9615 N   0  0  0  0  0  0  0  0  0  0  0  0
   23.9862  -20.8855   -4.9146 C   0  0  0  0  0  0  0  0  0  0  0  0
   25.1461  -21.1961   -4.2351 O   0  0  0  0  0  0  0  0  0  0  0  0
   22.9460  -20.6416   -4.2598 O   0  0  0  0  0  0  0  0  0  0  0  0
  2  1  1  0
  3  5  1  0
  3  2  1  0
  3  4  1  6
  5  6  2  0
  7  5  1  0
  8  7  1  0
  8  9  1  1
  9 10  1  0
 10 15  2  0
 11 10  1  0
 11 12  2  0
 12 13  1  0
 13 14  2  0
 15 14  1  0
 16  8  1  0
 17 16  2  0
 19 18  1  1
 19 21  1  0
 20 19  1  0
 21 23  1  0
 21 22  1  6
 22 16  1  0
 23 24  1  0
 25 23  2  0
M  END
$$$$
