SFT.pdb
     RDKit          3D

 25 25  0  0  1  0  0  0  0  0999 V2000
   28.1125  -20.3764  -18.6049 O   0  0  0  0  0  0  0  0  0  0  0  0
   27.4339  -20.3138  -17.3747 C   0  0  0  0  0  0  0  0  0  0  0  0
   28.0283  -21.3896  -16.5014 C   0  0  2  0  0  0  0  0  0  0  0  0
   28.3064  -22.5521  -17.3236 N   0  0  0  0  0  0  0  0  0  0  0  0
   27.1151  -21.7444  -15.3856 C   0  0  0  0  0  0  0  0  0  0  0  0
   26.5297  -22.8493  -15.2657 O   0  0  0  0  0  0  0  0  0  0  0  0
   26.8895  -20.7624  -14.3842 N   0  0  0  0  0  0  0  0  0  0  0  0
   25.9826  -20.9613  -13.2816 C   0  0  1  0  0  0  0  0  0  0  0  0
   26.3373  -20.1394  -12.0812 C   0  0  0  0  0  0  0  0  0  0  0  0
   25.4651  -20.3551  -10.9051 C   0  0  0  0  0  0  0  0  0  0  0  0
   25.9164  -21.1195   -9.8222 C   0  0  0  0  0  0  0  0  0  0  0  0
   25.1565  -21.3428   -8.6953 C   0  0  0  0  0  0  0  0  0  0  0  0
   23.8944  -20.8007   -8.6069 C   0  0  0  0  0  0  0  0  0  0  0  0
   23.4062  -20.0401   -9.6486 C   0  0  0  0  0  0  0  0  0  0  0  0
   24.1977  -19.8283  -10.7812 C   0  0  0  0  0  0  0  0  0  0  0  0
   24.6235  -20.6073  -13.7365 C   0  0  0  0  0  0  0  0  0  0  0  0
   24.3209  -19.4867  -14.2182 O   0  0  0  0  0  0  0  0  0  0  0  0
   22.7987  -22.0158  -16.3395 C   0  0  0  0  0  0  0  0  0  0  0  0
   21.8028  -22.1811  -15.2104 C   0  0  1  0  0  0  0  0  0  0  0  0
   21.9375  -23.4929  -14.7416 O   0  0  0  0  0  0  0  0  0  0  0  0
   22.2338  -21.2686  -14.0830 C   0  0  2  0  0  0  0  0  0  0  0  0
   23.5802  -21.5683  -13.6352 N   0  0  0  0  0  0  0  0  0  0  0  0
   21.2656  -21.3137  -12.9582 C   0  0  0  0  0  0  0  0  0  0  0  0
   21.5650  -21.9781  -11.7867 O   0  0  0  0  0  0  0  0  0  0  0  0
   20.1556  -20.7420  -13.0651 O   0  0  0  0  0  0  0  0  0  0  0  0
  2  1  1  0
  3  5  1  0
  3  2  1  0
  3  4  1  6
  5  6  2  0
  7  5  1  0
  8  7  1  0
  8  9  1  1
  9 10  1  0
 10 15  2  0
 11 10  1  0
 11 12  2  0
 12 13  1  0
 13 14  2  0
 15 14  1  0
 16  8  1  0
 17 16  2  0
 19 18  1  6
 19 21  1  0
 20 19  1  0
 21 23  1  0
 21 22  1  1
 22 16  1  0
 23 24  1  0
 25 23  2  0
M  END
$$$$
