SFT.pdb
     RDKit          3D

 25 25  0  0  1  0  0  0  0  0999 V2000
   28.0779  -20.8614  -19.0373 O   0  0  0  0  0  0  0  0  0  0  0  0
   27.2244  -21.1989  -17.9716 C   0  0  0  0  0  0  0  0  0  0  0  0
   28.0926  -21.8187  -16.9061 C   0  0  2  0  0  0  0  0  0  0  0  0
   28.6362  -23.0627  -17.4177 N   0  0  0  0  0  0  0  0  0  0  0  0
   27.3261  -22.0573  -15.6570 C   0  0  0  0  0  0  0  0  0  0  0  0
   26.6897  -23.1093  -15.3996 O   0  0  0  0  0  0  0  0  0  0  0  0
   27.3136  -21.0204  -14.6861 N   0  0  0  0  0  0  0  0  0  0  0  0
   26.5681  -21.1079  -13.4556 C   0  0  1  0  0  0  0  0  0  0  0  0
   27.2112  -20.3565  -12.3313 C   0  0  0  0  0  0  0  0  0  0  0  0
   26.4651  -20.3984  -11.0537 C   0  0  0  0  0  0  0  0  0  0  0  0
   26.6037  -21.4924  -10.1908 C   0  0  0  0  0  0  0  0  0  0  0  0
   25.9471  -21.5810   -8.9832 C   0  0  0  0  0  0  0  0  0  0  0  0
   25.1125  -20.5613   -8.5857 C   0  0  0  0  0  0  0  0  0  0  0  0
   24.9441  -19.4626   -9.4020 C   0  0  0  0  0  0  0  0  0  0  0  0
   25.6222  -19.3969  -10.6227 C   0  0  0  0  0  0  0  0  0  0  0  0
   25.2163  -20.5671  -13.6993 C   0  0  0  0  0  0  0  0  0  0  0  0
   24.9990  -19.4165  -14.1559 O   0  0  0  0  0  0  0  0  0  0  0  0
   22.8479  -21.4466  -15.9522 C   0  0  0  0  0  0  0  0  0  0  0  0
   22.0037  -21.5738  -14.7012 C   0  0  1  0  0  0  0  0  0  0  0  0
   21.9802  -22.9324  -14.3659 O   0  0  0  0  0  0  0  0  0  0  0  0
   22.7327  -20.8612  -13.5829 C   0  0  2  0  0  0  0  0  0  0  0  0
   24.0794  -21.3709  -13.4102 N   0  0  0  0  0  0  0  0  0  0  0  0
   21.9618  -20.9253  -12.3155 C   0  0  0  0  0  0  0  0  0  0  0  0
   20.7364  -20.3031  -12.1949 O   0  0  0  0  0  0  0  0  0  0  0  0
   22.4234  -21.5524  -11.3337 O   0  0  0  0  0  0  0  0  0  0  0  0
  2  1  1  0
  3  5  1  0
  3  2  1  0
  3  4  1  6
  5  6  2  0
  7  5  1  0
  8  7  1  0
  8  9  1  1
  9 10  1  0
 10 15  2  0
 11 10  1  0
 11 12  2  0
 12 13  1  0
 13 14  2  0
 15 14  1  0
 16  8  1  0
 17 16  2  0
 19 18  1  6
 19 21  1  0
 20 19  1  0
 21 23  1  0
 21 22  1  1
 22 16  1  0
 23 24  1  0
 25 23  2  0
M  END
$$$$
