ANY.pdb
     RDKit          3D

 26 26  0  0  1  0  0  0  0  0999 V2000
   18.1742  -12.0576  -17.1852 C   0  0  0  0  0  0  0  0  0  0  0  0
   19.5033  -12.7859  -17.2791 C   0  0  2  0  0  0  0  0  0  0  0  0
   19.3595  -14.1007  -16.7034 N   0  0  0  0  0  0  0  0  0  0  0  0
   20.4984  -11.9494  -16.5558 C   0  0  0  0  0  0  0  0  0  0  0  0
   20.1035  -11.3432  -15.5482 O   0  0  0  0  0  0  0  0  0  0  0  0
   24.7918   -9.9277  -14.8626 N   0  0  0  0  0  0  0  0  0  0  0  0
   25.2331  -10.6908  -15.9986 C   0  0  0  0  0  0  0  0  0  0  0  0
   26.4685  -10.7116  -16.2077 O   0  0  0  0  0  0  0  0  0  0  0  0
   24.2074  -11.3762  -16.8117 C   0  0  0  0  0  0  0  0  0  0  0  0
   22.8409  -11.0318  -16.2755 C   0  0  2  0  0  0  0  0  0  0  0  0
   21.8537  -11.8224  -16.9675 N   0  0  0  0  0  0  0  0  0  0  0  0
   22.5581   -9.5740  -16.3786 C   0  0  0  0  0  0  0  0  0  0  0  0
   22.2749   -9.1143  -17.5101 O   0  0  0  0  0  0  0  0  0  0  0  0
   20.1618   -1.2929  -14.7850 O   0  0  0  0  0  0  0  0  0  0  0  0
   20.5889   -2.6079  -14.6072 C   0  0  0  0  0  0  0  0  0  0  0  0
   21.9202   -2.9097  -14.4113 C   0  0  0  0  0  0  0  0  0  0  0  0
   22.4013   -4.1834  -14.2304 C   0  0  0  0  0  0  0  0  0  0  0  0
   21.5220   -5.2492  -14.2403 C   0  0  0  0  0  0  0  0  0  0  0  0
   21.9616   -6.6491  -14.0837 C   0  0  0  0  0  0  0  0  0  0  0  0
   22.2495   -7.2583  -15.4077 C   0  0  2  0  0  0  0  0  0  0  0  0
   22.5860   -8.6732  -15.2946 N   0  0  0  0  0  0  0  0  0  0  0  0
   23.3681   -6.5800  -16.0710 C   0  0  0  0  0  0  0  0  0  0  0  0
   23.2136   -5.6129  -17.0231 O   0  0  0  0  0  0  0  0  0  0  0  0
   20.1867   -4.9624  -14.4355 C   0  0  0  0  0  0  0  0  0  0  0  0
   19.7084   -3.6685  -14.6178 C   0  0  0  0  0  0  0  0  0  0  0  0
   24.5506   -6.9001  -15.7562 O   0  0  0  0  0  0  0  0  0  0  0  0
  2  3  1  0
  2  1  1  1
  4  2  1  0
  5  4  2  0
  6  7  1  0
  7  8  2  0
  9  7  1  0
 10  9  1  6
 10 11  1  0
 11  4  1  0
 12 10  1  0
 12 21  1  0
 13 12  2  0
 15 14  1  0
 16 15  2  0
 17 16  1  0
 18 17  2  0
 18 24  1  0
 19 18  1  0
 20 19  1  1
 20 21  1  0
 20 22  1  0
 22 26  2  0
 22 23  1  0
 24 25  2  0
 25 15  1  0
M  END
$$$$
