ANY.pdb
     RDKit          3D

 26 26  0  0  1  0  0  0  0  0999 V2000
   23.1801  -21.7316  -21.1814 C   0  0  0  0  0  0  0  0  0  0  0  0
   24.0939  -20.5257  -21.3089 C   0  0  2  0  0  0  0  0  0  0  0  0
   25.0777  -20.7883  -22.3307 N   0  0  0  0  0  0  0  0  0  0  0  0
   24.7030  -20.3103  -19.9689 C   0  0  0  0  0  0  0  0  0  0  0  0
   25.4262  -21.2142  -19.5233 O   0  0  0  0  0  0  0  0  0  0  0  0
   27.1460  -17.2590  -16.1451 N   0  0  0  0  0  0  0  0  0  0  0  0
   25.7271  -17.1378  -16.3442 C   0  0  0  0  0  0  0  0  0  0  0  0
   25.0505  -16.8182  -15.3390 O   0  0  0  0  0  0  0  0  0  0  0  0
   25.1943  -17.3967  -17.6977 C   0  0  0  0  0  0  0  0  0  0  0  0
   25.0973  -18.8858  -17.9138 C   0  0  2  0  0  0  0  0  0  0  0  0
   24.4915  -19.1339  -19.1983 N   0  0  0  0  0  0  0  0  0  0  0  0
   24.3571  -19.5572  -16.8106 C   0  0  0  0  0  0  0  0  0  0  0  0
   23.1053  -19.4896  -16.8237 O   0  0  0  0  0  0  0  0  0  0  0  0
   23.8681  -21.0825   -8.2645 O   0  0  0  0  0  0  0  0  0  0  0  0
   24.1755  -21.2228   -9.6169 C   0  0  0  0  0  0  0  0  0  0  0  0
   23.3248  -21.8784  -10.4820 C   0  0  0  0  0  0  0  0  0  0  0  0
   23.5722  -22.0483  -11.8223 C   0  0  0  0  0  0  0  0  0  0  0  0
   24.7368  -21.5424  -12.3674 C   0  0  0  0  0  0  0  0  0  0  0  0
   25.0910  -21.7087  -13.7902 C   0  0  0  0  0  0  0  0  0  0  0  0
   24.2216  -20.8631  -14.6481 C   0  0  2  0  0  0  0  0  0  0  0  0
   24.9632  -20.2637  -15.7520 N   0  0  0  0  0  0  0  0  0  0  0  0
   23.6082  -19.7783  -13.8747 C   0  0  0  0  0  0  0  0  0  0  0  0
   22.3592  -19.8479  -13.3263 O   0  0  0  0  0  0  0  0  0  0  0  0
   25.5977  -20.8842  -11.5136 C   0  0  0  0  0  0  0  0  0  0  0  0
   25.3386  -20.7168  -10.1568 C   0  0  0  0  0  0  0  0  0  0  0  0
   24.2598  -18.7085  -13.6988 O   0  0  0  0  0  0  0  0  0  0  0  0
  2  3  1  0
  2  1  1  1
  4  2  1  0
  5  4  2  0
  6  7  1  0
  7  8  2  0
  9  7  1  0
 10  9  1  1
 10 11  1  0
 11  4  1  0
 12 10  1  0
 12 21  1  0
 13 12  2  0
 15 14  1  0
 16 15  2  0
 17 16  1  0
 18 17  2  0
 18 24  1  0
 19 18  1  0
 20 19  1  1
 20 21  1  0
 20 22  1  0
 22 26  2  0
 22 23  1  0
 24 25  2  0
 25 15  1  0
M  END
$$$$
