ANY.pdb
     RDKit          3D

 26 26  0  0  1  0  0  0  0  0999 V2000
   21.1284  -13.7146  -16.6979 C   0  0  0  0  0  0  0  0  0  0  0  0
   21.8604  -12.7268  -17.5890 C   0  0  2  0  0  0  0  0  0  0  0  0
   22.8597  -13.4342  -18.3518 N   0  0  0  0  0  0  0  0  0  0  0  0
   22.4482  -11.6978  -16.6898 C   0  0  0  0  0  0  0  0  0  0  0  0
   21.8987  -11.5248  -15.5912 O   0  0  0  0  0  0  0  0  0  0  0  0
   25.7181  -11.7255  -15.0253 N   0  0  0  0  0  0  0  0  0  0  0  0
   26.4212  -10.7768  -15.8458 C   0  0  0  0  0  0  0  0  0  0  0  0
   27.6670  -10.9021  -15.8965 O   0  0  0  0  0  0  0  0  0  0  0  0
   25.6267   -9.7491  -16.5498 C   0  0  0  0  0  0  0  0  0  0  0  0
   24.1727   -9.9143  -16.1865 C   0  0  2  0  0  0  0  0  0  0  0  0
   23.5899  -10.9235  -17.0353 N   0  0  0  0  0  0  0  0  0  0  0  0
   23.4331   -8.6250  -16.2668 C   0  0  0  0  0  0  0  0  0  0  0  0
   22.9836   -8.2801  -17.3852 O   0  0  0  0  0  0  0  0  0  0  0  0
   18.8670   -1.3161  -14.6163 O   0  0  0  0  0  0  0  0  0  0  0  0
   19.5852   -2.5000  -14.4555 C   0  0  0  0  0  0  0  0  0  0  0  0
   20.9174   -2.4884  -14.0996 C   0  0  0  0  0  0  0  0  0  0  0  0
   21.6769   -3.6197  -13.9264 C   0  0  0  0  0  0  0  0  0  0  0  0
   21.0988   -4.8608  -14.1129 C   0  0  0  0  0  0  0  0  0  0  0  0
   21.8527   -6.1219  -13.9762 C   0  0  0  0  0  0  0  0  0  0  0  0
   22.4633   -6.5098  -15.2738 C   0  0  2  0  0  0  0  0  0  0  0  0
   23.2020   -7.7638  -15.1749 N   0  0  0  0  0  0  0  0  0  0  0  0
   23.3884   -5.4777  -15.7537 C   0  0  0  0  0  0  0  0  0  0  0  0
   23.0581   -4.5346  -16.6847 O   0  0  0  0  0  0  0  0  0  0  0  0
   19.7664   -4.8878  -14.4695 C   0  0  0  0  0  0  0  0  0  0  0  0
   19.0048   -3.7363  -14.6427 C   0  0  0  0  0  0  0  0  0  0  0  0
   24.5649   -5.4478  -15.2901 O   0  0  0  0  0  0  0  0  0  0  0  0
  2  3  1  0
  2  1  1  1
  4  2  1  0
  5  4  2  0
  6  7  1  0
  7  8  2  0
  9  7  1  0
 10  9  1  6
 10 11  1  0
 11  4  1  0
 12 10  1  0
 12 21  1  0
 13 12  2  0
 15 14  1  0
 16 15  2  0
 17 16  1  0
 18 17  2  0
 18 24  1  0
 19 18  1  0
 20 19  1  1
 20 21  1  0
 20 22  1  0
 22 26  2  0
 22 23  1  0
 24 25  2  0
 25 15  1  0
M  END
$$$$
