ANY.pdb
     RDKit          3D

 26 26  0  0  1  0  0  0  0  0999 V2000
   28.2101  -22.5958  -16.2659 C   0  0  0  0  0  0  0  0  0  0  0  0
   27.1852  -21.4850  -16.1198 C   0  0  2  0  0  0  0  0  0  0  0  0
   27.8733  -20.2204  -16.0305 N   0  0  0  0  0  0  0  0  0  0  0  0
   26.3943  -21.7944  -14.8985 C   0  0  0  0  0  0  0  0  0  0  0  0
   25.7263  -22.8396  -14.9057 O   0  0  0  0  0  0  0  0  0  0  0  0
   25.4169  -22.0225   -9.4035 N   0  0  0  0  0  0  0  0  0  0  0  0
   25.5034  -20.8097  -10.1711 C   0  0  0  0  0  0  0  0  0  0  0  0
   24.8115  -19.8462   -9.7673 O   0  0  0  0  0  0  0  0  0  0  0  0
   26.3882  -20.8021  -11.3544 C   0  0  0  0  0  0  0  0  0  0  0  0
   25.5942  -21.2163  -12.5674 C   0  0  2  0  0  0  0  0  0  0  0  0
   26.3763  -20.9556  -13.7502 N   0  0  0  0  0  0  0  0  0  0  0  0
   24.2685  -20.5412  -12.6171 C   0  0  0  0  0  0  0  0  0  0  0  0
   24.1827  -19.3898  -12.1286 O   0  0  0  0  0  0  0  0  0  0  0  0
   18.7707  -16.4602  -17.7569 O   0  0  0  0  0  0  0  0  0  0  0  0
   19.7297  -17.2186  -17.0872 C   0  0  0  0  0  0  0  0  0  0  0  0
   19.8907  -17.1274  -15.7207 C   0  0  0  0  0  0  0  0  0  0  0  0
   20.8162  -17.8476  -15.0057 C   0  0  0  0  0  0  0  0  0  0  0  0
   21.6521  -18.7261  -15.6681 C   0  0  0  0  0  0  0  0  0  0  0  0
   22.6921  -19.5134  -14.9782 C   0  0  0  0  0  0  0  0  0  0  0  0
   22.0941  -20.3334  -13.8933 C   0  0  2  0  0  0  0  0  0  0  0  0
   23.1023  -21.1041  -13.1742 N   0  0  0  0  0  0  0  0  0  0  0  0
   21.1019  -21.2735  -14.4253 C   0  0  0  0  0  0  0  0  0  0  0  0
   19.7523  -21.1098  -14.2928 O   0  0  0  0  0  0  0  0  0  0  0  0
   21.5026  -18.8277  -17.0358 C   0  0  0  0  0  0  0  0  0  0  0  0
   20.5618  -18.0939  -17.7519 C   0  0  0  0  0  0  0  0  0  0  0  0
   21.5034  -22.3018  -15.0427 O   0  0  0  0  0  0  0  0  0  0  0  0
  2  3  1  0
  2  1  1  1
  4  2  1  0
  5  4  2  0
  6  7  1  0
  7  8  2  0
  9  7  1  0
 10  9  1  1
 10 11  1  0
 11  4  1  0
 12 10  1  0
 12 21  1  0
 13 12  2  0
 15 14  1  0
 16 15  2  0
 17 16  1  0
 18 17  2  0
 18 24  1  0
 19 18  1  0
 20 19  1  6
 20 21  1  0
 20 22  1  0
 22 26  2  0
 22 23  1  0
 24 25  2  0
 25 15  1  0
M  END
$$$$
