ANY.pdb
     RDKit          3D

 26 26  0  0  1  0  0  0  0  0999 V2000
   21.4438  -12.8553  -19.6617 C   0  0  0  0  0  0  0  0  0  0  0  0
   20.5491  -12.1736  -18.6417 C   0  0  2  0  0  0  0  0  0  0  0  0
   19.2260  -12.0317  -19.1985 N   0  0  0  0  0  0  0  0  0  0  0  0
   21.1823  -10.8644  -18.3285 C   0  0  0  0  0  0  0  0  0  0  0  0
   22.2170  -10.8846  -17.6446 O   0  0  0  0  0  0  0  0  0  0  0  0
   22.9346   -5.8183  -19.9479 N   0  0  0  0  0  0  0  0  0  0  0  0
   21.6247   -6.1144  -19.4340 C   0  0  0  0  0  0  0  0  0  0  0  0
   21.0659   -5.2036  -18.7794 O   0  0  0  0  0  0  0  0  0  0  0  0
   21.0565   -7.4486  -19.7169 C   0  0  0  0  0  0  0  0  0  0  0  0
   21.2754   -8.3421  -18.5223 C   0  0  2  0  0  0  0  0  0  0  0  0
   20.6573   -9.6200  -18.7740 N   0  0  0  0  0  0  0  0  0  0  0  0
   20.7737   -7.7191  -17.2669 C   0  0  0  0  0  0  0  0  0  0  0  0
   19.5472   -7.8073  -17.0228 O   0  0  0  0  0  0  0  0  0  0  0  0
   19.0404   -5.7442   -9.0593 O   0  0  0  0  0  0  0  0  0  0  0  0
   19.6521   -6.1299  -10.2511 C   0  0  0  0  0  0  0  0  0  0  0  0
   19.1712   -7.1866  -10.9953 C   0  0  0  0  0  0  0  0  0  0  0  0
   19.7296   -7.6131  -12.1755 C   0  0  0  0  0  0  0  0  0  0  0  0
   20.8428   -6.9636  -12.6738 C   0  0  0  0  0  0  0  0  0  0  0  0
   21.5197   -7.3784  -13.9176 C   0  0  0  0  0  0  0  0  0  0  0  0
   21.0878   -6.5285  -15.0569 C   0  0  2  0  0  0  0  0  0  0  0  0
   21.5793   -7.0368  -16.3327 N   0  0  0  0  0  0  0  0  0  0  0  0
   21.5699   -5.1518  -14.9036 C   0  0  0  0  0  0  0  0  0  0  0  0
   20.8938   -4.1814  -14.2204 O   0  0  0  0  0  0  0  0  0  0  0  0
   21.3353   -5.9045  -11.9396 C   0  0  0  0  0  0  0  0  0  0  0  0
   20.7627   -5.4794  -10.7447 C   0  0  0  0  0  0  0  0  0  0  0  0
   22.6729   -4.8279  -15.4313 O   0  0  0  0  0  0  0  0  0  0  0  0
  2  3  1  0
  2  1  1  6
  4  2  1  0
  5  4  2  0
  6  7  1  0
  7  8  2  0
  9  7  1  0
 10  9  1  6
 10 11  1  0
 11  4  1  0
 12 10  1  0
 12 21  1  0
 13 12  2  0
 15 14  1  0
 16 15  2  0
 17 16  1  0
 18 17  2  0
 18 24  1  0
 19 18  1  0
 20 19  1  1
 20 21  1  0
 20 22  1  0
 22 26  2  0
 22 23  1  0
 24 25  2  0
 25 15  1  0
M  END
$$$$
