ANY.pdb
     RDKit          3D

 26 26  0  0  1  0  0  0  0  0999 V2000
   19.6174  -14.4498  -16.1563 C   0  0  0  0  0  0  0  0  0  0  0  0
   18.5489  -13.4557  -16.5753 C   0  0  2  0  0  0  0  0  0  0  0  0
   18.3373  -13.5660  -17.9979 N   0  0  0  0  0  0  0  0  0  0  0  0
   19.0383  -12.1102  -16.1714 C   0  0  0  0  0  0  0  0  0  0  0  0
   19.2172  -11.9124  -14.9600 O   0  0  0  0  0  0  0  0  0  0  0  0
   22.0748   -7.2906  -18.5107 N   0  0  0  0  0  0  0  0  0  0  0  0
   21.2924   -7.9805  -17.5211 C   0  0  0  0  0  0  0  0  0  0  0  0
   21.1932   -7.4225  -16.4035 O   0  0  0  0  0  0  0  0  0  0  0  0
   20.6802   -9.2707  -17.9001 C   0  0  0  0  0  0  0  0  0  0  0  0
   19.8574   -9.7849  -16.7459 C   0  0  2  0  0  0  0  0  0  0  0  0
   19.3024  -11.0671  -17.1013 N   0  0  0  0  0  0  0  0  0  0  0  0
   18.8029   -8.8145  -16.3435 C   0  0  0  0  0  0  0  0  0  0  0  0
   17.8189   -8.6736  -17.1075 O   0  0  0  0  0  0  0  0  0  0  0  0
   16.3886   -6.3693   -8.6190 O   0  0  0  0  0  0  0  0  0  0  0  0
   16.4364   -6.7208   -9.9671 C   0  0  0  0  0  0  0  0  0  0  0  0
   17.0801   -7.8656  -10.3878 C   0  0  0  0  0  0  0  0  0  0  0  0
   17.1610   -8.2643  -11.6998 C   0  0  0  0  0  0  0  0  0  0  0  0
   16.5709   -7.4919  -12.6818 C   0  0  0  0  0  0  0  0  0  0  0  0
   16.6384   -7.8341  -14.1156 C   0  0  0  0  0  0  0  0  0  0  0  0
   17.7680   -7.1251  -14.7701 C   0  0  2  0  0  0  0  0  0  0  0  0
   18.8315   -8.0423  -15.1644 N   0  0  0  0  0  0  0  0  0  0  0  0
   18.3493   -6.1170  -13.8774 C   0  0  0  0  0  0  0  0  0  0  0  0
   17.6790   -5.0087  -13.4438 O   0  0  0  0  0  0  0  0  0  0  0  0
   15.9234   -6.3433  -12.2756 C   0  0  0  0  0  0  0  0  0  0  0  0
   15.8466   -5.9474  -10.9439 C   0  0  0  0  0  0  0  0  0  0  0  0
   19.5406   -6.2667  -13.4795 O   0  0  0  0  0  0  0  0  0  0  0  0
  2  3  1  0
  2  1  1  6
  4  2  1  0
  5  4  2  0
  6  7  1  0
  7  8  2  0
  9  7  1  0
 10  9  1  6
 10 11  1  0
 11  4  1  0
 12 10  1  0
 12 21  1  0
 13 12  2  0
 15 14  1  0
 16 15  2  0
 17 16  1  0
 18 17  2  0
 18 24  1  0
 19 18  1  0
 20 19  1  1
 20 21  1  0
 20 22  1  0
 22 26  2  0
 22 23  1  0
 24 25  2  0
 25 15  1  0
M  END
$$$$
