ANY.pdb
     RDKit          3D

 26 26  0  0  1  0  0  0  0  0999 V2000
   18.9137  -13.2307  -18.1735 C   0  0  0  0  0  0  0  0  0  0  0  0
   19.9941  -12.4332  -17.4646 C   0  0  2  0  0  0  0  0  0  0  0  0
   20.2040  -12.9915  -16.1512 N   0  0  0  0  0  0  0  0  0  0  0  0
   19.5210  -11.0236  -17.4190 C   0  0  0  0  0  0  0  0  0  0  0  0
   19.4146  -10.4263  -18.5010 O   0  0  0  0  0  0  0  0  0  0  0  0
   15.2632   -8.9728  -15.1403 N   0  0  0  0  0  0  0  0  0  0  0  0
   16.4721   -8.7300  -15.8800 C   0  0  0  0  0  0  0  0  0  0  0  0
   16.3385   -8.5127  -17.1068 O   0  0  0  0  0  0  0  0  0  0  0  0
   17.7516   -8.7569  -15.1415 C   0  0  0  0  0  0  0  0  0  0  0  0
   18.8828   -8.9467  -16.1202 C   0  0  2  0  0  0  0  0  0  0  0  0
   19.1942  -10.3515  -16.2091 N   0  0  0  0  0  0  0  0  0  0  0  0
   20.0747   -8.1349  -15.7512 C   0  0  0  0  0  0  0  0  0  0  0  0
   20.9387   -8.6695  -15.0167 O   0  0  0  0  0  0  0  0  0  0  0  0
   27.1423   -3.3230  -17.1540 O   0  0  0  0  0  0  0  0  0  0  0  0
   26.0595   -4.1876  -17.0019 C   0  0  0  0  0  0  0  0  0  0  0  0
   25.5688   -4.9169  -18.0645 C   0  0  0  0  0  0  0  0  0  0  0  0
   24.5068   -5.7836  -17.9772 C   0  0  0  0  0  0  0  0  0  0  0  0
   23.8699   -5.9571  -16.7632 C   0  0  0  0  0  0  0  0  0  0  0  0
   22.7040   -6.8453  -16.5925 C   0  0  0  0  0  0  0  0  0  0  0  0
   21.5671   -6.1057  -15.9864 C   0  0  2  0  0  0  0  0  0  0  0  0
   20.3015   -6.8077  -16.1687 N   0  0  0  0  0  0  0  0  0  0  0  0
   21.4307   -4.7691  -16.5748 C   0  0  0  0  0  0  0  0  0  0  0  0
   21.7394   -3.6134  -15.9156 O   0  0  0  0  0  0  0  0  0  0  0  0
   24.3500   -5.2336  -15.6911 C   0  0  0  0  0  0  0  0  0  0  0  0
   25.4268   -4.3578  -15.7891 C   0  0  0  0  0  0  0  0  0  0  0  0
   21.0007   -4.6636  -17.7597 O   0  0  0  0  0  0  0  0  0  0  0  0
  2  3  1  0
  2  1  1  1
  4  2  1  0
  5  4  2  0
  6  7  1  0
  7  8  2  0
  9  7  1  0
 10  9  1  1
 10 11  1  0
 11  4  1  0
 12 10  1  0
 12 21  1  0
 13 12  2  0
 15 14  1  0
 16 15  2  0
 17 16  1  0
 18 17  2  0
 18 24  1  0
 19 18  1  0
 20 19  1  6
 20 21  1  0
 20 22  1  0
 22 26  2  0
 22 23  1  0
 24 25  2  0
 25 15  1  0
M  END
$$$$
