ANY.pdb
     RDKit          3D

 26 26  0  0  1  0  0  0  0  0999 V2000
   11.5227  -17.1026    7.7249 C   0  0  0  0  0  0  0  0  0  0  0  0
   12.4391  -16.2283    6.8873 C   0  0  2  0  0  0  0  0  0  0  0  0
   12.1477  -16.4454    5.4913 N   0  0  0  0  0  0  0  0  0  0  0  0
   13.8323  -16.6055    7.2472 C   0  0  0  0  0  0  0  0  0  0  0  0
   14.1199  -16.6265    8.4536 O   0  0  0  0  0  0  0  0  0  0  0  0
   16.2763  -20.6185    5.2086 N   0  0  0  0  0  0  0  0  0  0  0  0
   16.7446  -19.5668    6.0701 C   0  0  0  0  0  0  0  0  0  0  0  0
   17.1280  -19.9133    7.2117 O   0  0  0  0  0  0  0  0  0  0  0  0
   16.7345  -18.1862    5.5439 C   0  0  0  0  0  0  0  0  0  0  0  0
   16.1911  -17.2588    6.6012 C   0  0  2  0  0  0  0  0  0  0  0  0
   14.8231  -16.9351    6.2816 N   0  0  0  0  0  0  0  0  0  0  0  0
   17.0311  -16.0390    6.7510 C   0  0  0  0  0  0  0  0  0  0  0  0
   16.5481  -14.9484    6.3648 O   0  0  0  0  0  0  0  0  0  0  0  0
   21.8968   -9.0584    7.4723 O   0  0  0  0  0  0  0  0  0  0  0  0
   21.1247  -10.2001    7.2635 C   0  0  0  0  0  0  0  0  0  0  0  0
   21.6582  -11.3304    6.6807 C   0  0  0  0  0  0  0  0  0  0  0  0
   20.9493  -12.4839    6.4493 C   0  0  0  0  0  0  0  0  0  0  0  0
   19.6173  -12.5466    6.8117 C   0  0  0  0  0  0  0  0  0  0  0  0
   18.7789  -13.7366    6.5701 C   0  0  0  0  0  0  0  0  0  0  0  0
   19.0836  -14.8012    7.5604 C   0  0  2  0  0  0  0  0  0  0  0  0
   18.3310  -16.0225    7.2961 N   0  0  0  0  0  0  0  0  0  0  0  0
   18.7680  -14.3626    8.9239 C   0  0  0  0  0  0  0  0  0  0  0  0
   19.7019  -13.9107    9.8123 O   0  0  0  0  0  0  0  0  0  0  0  0
   19.0699  -11.4230    7.3957 C   0  0  0  0  0  0  0  0  0  0  0  0
   19.7961  -10.2586    7.6264 C   0  0  0  0  0  0  0  0  0  0  0  0
   17.5660  -14.4017    9.3159 O   0  0  0  0  0  0  0  0  0  0  0  0
  2  3  1  0
  2  1  1  1
  4  2  1  0
  5  4  2  0
  6  7  1  0
  7  8  2  0
  9  7  1  0
 10  9  1  6
 10 11  1  0
 11  4  1  0
 12 10  1  0
 12 21  1  0
 13 12  2  0
 15 14  1  0
 16 15  2  0
 17 16  1  0
 18 17  2  0
 18 24  1  0
 19 18  1  0
 20 19  1  6
 20 21  1  0
 20 22  1  0
 22 26  2  0
 22 23  1  0
 24 25  2  0
 25 15  1  0
M  END
$$$$
