ANY.pdb
     RDKit          3D

 26 26  0  0  1  0  0  0  0  0999 V2000
   28.5712  -21.8565  -19.9835 C   0  0  0  0  0  0  0  0  0  0  0  0
   27.4606  -21.0371  -19.3505 C   0  0  2  0  0  0  0  0  0  0  0  0
   27.4423  -19.7267  -19.9533 N   0  0  0  0  0  0  0  0  0  0  0  0
   27.7444  -20.9924  -17.8909 C   0  0  0  0  0  0  0  0  0  0  0  0
   28.9350  -20.9399  -17.5465 O   0  0  0  0  0  0  0  0  0  0  0  0
   28.2910  -18.0313  -13.8087 N   0  0  0  0  0  0  0  0  0  0  0  0
   27.0318  -18.2407  -14.4705 C   0  0  0  0  0  0  0  0  0  0  0  0
   26.0117  -17.8395  -13.8633 O   0  0  0  0  0  0  0  0  0  0  0  0
   27.0468  -18.9017  -15.7918 C   0  0  0  0  0  0  0  0  0  0  0  0
   26.8435  -20.3840  -15.6048 C   0  0  2  0  0  0  0  0  0  0  0  0
   26.7250  -21.0072  -16.8994 N   0  0  0  0  0  0  0  0  0  0  0  0
   25.6695  -20.6756  -14.7374 C   0  0  0  0  0  0  0  0  0  0  0  0
   24.5312  -20.6192  -15.2597 O   0  0  0  0  0  0  0  0  0  0  0  0
   27.7477  -18.6667   -7.8254 O   0  0  0  0  0  0  0  0  0  0  0  0
   27.1045  -19.5375   -8.7036 C   0  0  0  0  0  0  0  0  0  0  0  0
   25.7455  -19.7594   -8.6273 C   0  0  0  0  0  0  0  0  0  0  0  0
   25.0562  -20.6040   -9.4629 C   0  0  0  0  0  0  0  0  0  0  0  0
   25.7386  -21.2877  -10.4509 C   0  0  0  0  0  0  0  0  0  0  0  0
   25.0777  -22.2355  -11.3687 C   0  0  0  0  0  0  0  0  0  0  0  0
   24.6255  -21.5410  -12.6016 C   0  0  2  0  0  0  0  0  0  0  0  0
   25.7462  -21.0108  -13.3703 N   0  0  0  0  0  0  0  0  0  0  0  0
   23.7289  -20.4249  -12.2825 C   0  0  0  0  0  0  0  0  0  0  0  0
   24.0634  -19.1108  -12.4456 O   0  0  0  0  0  0  0  0  0  0  0  0
   27.0989  -21.0757  -10.5390 C   0  0  0  0  0  0  0  0  0  0  0  0
   27.7889  -20.2179   -9.6879 C   0  0  0  0  0  0  0  0  0  0  0  0
   22.5766  -20.6776  -11.8262 O   0  0  0  0  0  0  0  0  0  0  0  0
  2  3  1  0
  2  1  1  6
  4  2  1  0
  5  4  2  0
  6  7  1  0
  7  8  2  0
  9  7  1  0
 10  9  1  6
 10 11  1  0
 11  4  1  0
 12 10  1  0
 12 21  1  0
 13 12  2  0
 15 14  1  0
 16 15  2  0
 17 16  1  0
 18 17  2  0
 18 24  1  0
 19 18  1  0
 20 19  1  1
 20 21  1  0
 20 22  1  0
 22 26  2  0
 22 23  1  0
 24 25  2  0
 25 15  1  0
M  END
$$$$
