ANY.pdb
     RDKit          3D

 26 26  0  0  1  0  0  0  0  0999 V2000
   20.0842  -14.8301  -17.8703 C   0  0  0  0  0  0  0  0  0  0  0  0
   19.5168  -13.8152  -16.8938 C   0  0  2  0  0  0  0  0  0  0  0  0
   18.0961  -13.6962  -17.1134 N   0  0  0  0  0  0  0  0  0  0  0  0
   20.2429  -12.5397  -17.1366 C   0  0  0  0  0  0  0  0  0  0  0  0
   21.4322  -12.4895  -16.7877 O   0  0  0  0  0  0  0  0  0  0  0  0
   21.6169   -7.9099  -18.4743 N   0  0  0  0  0  0  0  0  0  0  0  0
   20.5490   -8.2240  -19.3844 C   0  0  0  0  0  0  0  0  0  0  0  0
   20.3613   -7.4135  -20.3215 O   0  0  0  0  0  0  0  0  0  0  0  0
   19.7742   -9.4583  -19.1413 C   0  0  0  0  0  0  0  0  0  0  0  0
   20.2839  -10.1225  -17.8873 C   0  0  2  0  0  0  0  0  0  0  0  0
   19.6378  -11.4028  -17.7399 N   0  0  0  0  0  0  0  0  0  0  0  0
   20.0919   -9.2612  -16.6885 C   0  0  0  0  0  0  0  0  0  0  0  0
   18.9486   -9.2236  -16.1755 O   0  0  0  0  0  0  0  0  0  0  0  0
   26.2326   -5.0612  -17.1243 O   0  0  0  0  0  0  0  0  0  0  0  0
   25.2566   -5.7288  -16.3861 C   0  0  0  0  0  0  0  0  0  0  0  0
   24.3908   -5.0458  -15.5580 C   0  0  0  0  0  0  0  0  0  0  0  0
   23.4102   -5.6467  -14.8070 C   0  0  0  0  0  0  0  0  0  0  0  0
   23.2567   -7.0188  -14.8634 C   0  0  0  0  0  0  0  0  0  0  0  0
   22.2487   -7.7433  -14.0656 C   0  0  0  0  0  0  0  0  0  0  0  0
   20.9586   -7.8206  -14.7981 C   0  0  2  0  0  0  0  0  0  0  0  0
   21.1040   -8.4845  -16.0888 N   0  0  0  0  0  0  0  0  0  0  0  0
   20.4046   -6.4838  -15.0380 C   0  0  0  0  0  0  0  0  0  0  0  0
   19.9861   -5.6451  -14.0445 O   0  0  0  0  0  0  0  0  0  0  0  0
   24.1162   -7.7154  -15.6876 C   0  0  0  0  0  0  0  0  0  0  0  0
   25.1068   -7.0979  -16.4450 C   0  0  0  0  0  0  0  0  0  0  0  0
   20.2991   -6.0703  -16.2287 O   0  0  0  0  0  0  0  0  0  0  0  0
  2  3  1  0
  2  1  1  6
  4  2  1  0
  5  4  2  0
  6  7  1  0
  7  8  2  0
  9  7  1  0
 10  9  1  6
 10 11  1  0
 11  4  1  0
 12 10  1  0
 12 21  1  0
 13 12  2  0
 15 14  1  0
 16 15  2  0
 17 16  1  0
 18 17  2  0
 18 24  1  0
 19 18  1  0
 20 19  1  6
 20 21  1  0
 20 22  1  0
 22 26  2  0
 22 23  1  0
 24 25  2  0
 25 15  1  0
M  END
$$$$
