PAI.pdb
     RDKit          3D

 21 21  0  0  1  0  0  0  0  0999 V2000
    8.4049  -15.2684   18.6433 N   0  0  0  0  0  0  0  0  0  0  0  0
    8.8013  -14.5809   17.4113 C   0  0  0  0  0  0  0  0  0  0  0  0
    7.9007  -13.3444   17.4935 C   0  0  0  0  0  0  0  0  0  0  0  0
    7.8123  -13.0621   18.9847 C   0  0  0  0  0  0  0  0  0  0  0  0
    8.5200  -14.2062   19.6171 C   0  0  1  0  0  0  0  0  0  0  0  0
    7.9890  -14.6141   20.9235 C   0  0  0  0  0  0  0  0  0  0  0  0
    7.9973  -13.7709   21.8578 O   0  0  0  0  0  0  0  0  0  0  0  0
    6.6189  -17.7226   22.5001 C   0  0  0  0  0  0  0  0  0  0  0  0
    6.8799  -16.2502   22.4996 C   0  0  2  0  0  0  0  0  0  0  0  0
    7.4629  -15.8905   21.2226 N   0  0  0  0  0  0  0  0  0  0  0  0
    7.7048  -15.8014   23.6400 C   0  0  0  0  0  0  0  0  0  0  0  0
    8.9397  -16.0047   23.5950 O   0  0  0  0  0  0  0  0  0  0  0  0
    5.6893  -11.5795   26.4181 C   0  0  0  0  0  0  0  0  0  0  0  0
    6.5573  -12.5551   25.6636 C   0  0  0  0  0  0  0  0  0  0  0  0
    7.2822  -13.5082   26.6247 C   0  0  2  0  0  0  0  0  0  0  0  0
    8.3413  -12.6532   27.2931 C   0  0  0  0  0  0  0  0  0  0  0  0
    7.9945  -14.5460   25.8146 C   0  0  2  0  0  0  0  0  0  0  0  0
    7.1890  -15.1529   24.7873 N   0  0  0  0  0  0  0  0  0  0  0  0
    8.5736  -15.5563   26.7378 C   0  0  0  0  0  0  0  0  0  0  0  0
    9.8419  -15.4686   27.2758 O   0  0  0  0  0  0  0  0  0  0  0  0
    7.8646  -16.5461   27.0435 O   0  0  0  0  0  0  0  0  0  0  0  0
  1  5  1  0
  2  1  1  0
  3  2  1  0
  3  4  1  0
  4  5  1  0
  5  6  1  1
  6 10  1  0
  7  6  2  0
  9  8  1  6
 10  9  1  0
 11 12  2  0
 11  9  1  0
 14 15  1  0
 14 13  1  0
 15 16  1  6
 17 18  1  6
 17 15  1  0
 18 11  1  0
 19 17  1  0
 20 19  1  0
 21 19  2  0
M  END
$$$$
