PAI.pdb
     RDKit          3D

 21 21  0  0  1  0  0  0  0  0999 V2000
    8.5649  -17.4568   18.9488 N   0  0  0  0  0  0  0  0  0  0  0  0
    9.5751  -17.8488   17.9621 C   0  0  0  0  0  0  0  0  0  0  0  0
   10.8095  -17.1637   18.5568 C   0  0  0  0  0  0  0  0  0  0  0  0
   10.5808  -17.2492   20.0573 C   0  0  0  0  0  0  0  0  0  0  0  0
    9.2145  -17.8204   20.1880 C   0  0  1  0  0  0  0  0  0  0  0  0
    8.4564  -17.3462   21.3523 C   0  0  0  0  0  0  0  0  0  0  0  0
    7.8863  -16.2269   21.2743 O   0  0  0  0  0  0  0  0  0  0  0  0
    7.0584  -18.7788   24.4653 C   0  0  0  0  0  0  0  0  0  0  0  0
    7.5158  -17.5870   23.6863 C   0  0  2  0  0  0  0  0  0  0  0  0
    8.3120  -18.0509   22.5679 N   0  0  0  0  0  0  0  0  0  0  0  0
    8.2300  -16.5890   24.5086 C   0  0  0  0  0  0  0  0  0  0  0  0
    9.4819  -16.6196   24.5240 O   0  0  0  0  0  0  0  0  0  0  0  0
    5.7339  -11.8250   26.0186 C   0  0  0  0  0  0  0  0  0  0  0  0
    6.7769  -12.7980   25.5286 C   0  0  0  0  0  0  0  0  0  0  0  0
    7.3965  -13.5790   26.6964 C   0  0  2  0  0  0  0  0  0  0  0  0
    8.2991  -12.5806   27.3949 C   0  0  0  0  0  0  0  0  0  0  0  0
    8.2733  -14.6542   26.1346 C   0  0  2  0  0  0  0  0  0  0  0  0
    7.5895  -15.5942   25.2852 N   0  0  0  0  0  0  0  0  0  0  0  0
    8.9791  -15.3277   27.2557 C   0  0  0  0  0  0  0  0  0  0  0  0
   10.2080  -14.9281   27.7413 O   0  0  0  0  0  0  0  0  0  0  0  0
    8.4215  -16.3177   27.7893 O   0  0  0  0  0  0  0  0  0  0  0  0
  1  5  1  0
  2  1  1  0
  3  2  1  0
  3  4  1  0
  4  5  1  0
  5  6  1  1
  6 10  1  0
  7  6  2  0
  9  8  1  1
 10  9  1  0
 11 12  2  0
 11  9  1  0
 14 15  1  0
 14 13  1  0
 15 16  1  1
 17 18  1  1
 17 15  1  0
 18 11  1  0
 19 17  1  0
 20 19  1  0
 21 19  2  0
M  END
$$$$
