PAI.pdb
     RDKit          3D

 21 21  0  0  1  0  0  0  0  0999 V2000
    6.7054  -18.8717   21.2738 N   0  0  0  0  0  0  0  0  0  0  0  0
    6.5117  -20.2099   20.7086 C   0  0  0  0  0  0  0  0  0  0  0  0
    7.1442  -20.0109   19.3275 C   0  0  0  0  0  0  0  0  0  0  0  0
    8.2768  -19.0309   19.5882 C   0  0  0  0  0  0  0  0  0  0  0  0
    8.1102  -18.6491   21.0153 C   0  0  1  0  0  0  0  0  0  0  0  0
    8.5045  -17.2718   21.3355 C   0  0  0  0  0  0  0  0  0  0  0  0
    9.7327  -17.0071   21.4083 O   0  0  0  0  0  0  0  0  0  0  0  0
    6.8532  -13.9454   21.4225 C   0  0  0  0  0  0  0  0  0  0  0  0
    8.0158  -14.8266   21.7515 C   0  0  2  0  0  0  0  0  0  0  0  0
    7.6084  -16.2057   21.5716 N   0  0  0  0  0  0  0  0  0  0  0  0
    8.5775  -14.5776   23.0949 C   0  0  0  0  0  0  0  0  0  0  0  0
    9.7907  -14.2807   23.1848 O   0  0  0  0  0  0  0  0  0  0  0  0
    5.6783  -12.1145   26.9256 C   0  0  0  0  0  0  0  0  0  0  0  0
    6.3057  -13.2422   26.1451 C   0  0  0  0  0  0  0  0  0  0  0  0
    7.8290  -13.2669   26.3368 C   0  0  2  0  0  0  0  0  0  0  0  0
    8.3303  -12.0295   25.6178 C   0  0  0  0  0  0  0  0  0  0  0  0
    8.3781  -14.4557   25.6118 C   0  0  2  0  0  0  0  0  0  0  0  0
    7.8308  -14.6527   24.2948 N   0  0  0  0  0  0  0  0  0  0  0  0
    8.2096  -15.6570   26.4703 C   0  0  0  0  0  0  0  0  0  0  0  0
    7.4879  -16.7733   26.0975 O   0  0  0  0  0  0  0  0  0  0  0  0
    8.7570  -15.6521   27.5999 O   0  0  0  0  0  0  0  0  0  0  0  0
  1  5  1  0
  2  1  1  0
  3  2  1  0
  3  4  1  0
  4  5  1  0
  5  6  1  6
  6 10  1  0
  7  6  2  0
  9  8  1  1
 10  9  1  0
 11 12  2  0
 11  9  1  0
 14 15  1  0
 14 13  1  0
 15 16  1  6
 17 18  1  6
 17 15  1  0
 18 11  1  0
 19 17  1  0
 20 19  1  0
 21 19  2  0
M  END
$$$$
