PAI.pdb
     RDKit          3D

 21 21  0  0  1  0  0  0  0  0999 V2000
    9.1177  -18.3391   19.1937 N   0  0  0  0  0  0  0  0  0  0  0  0
    9.6569  -18.5848   17.8533 C   0  0  0  0  0  0  0  0  0  0  0  0
    8.6834  -17.7488   17.0163 C   0  0  0  0  0  0  0  0  0  0  0  0
    8.3519  -16.5714   17.9191 C   0  0  0  0  0  0  0  0  0  0  0  0
    9.0205  -16.8968   19.2064 C   0  0  1  0  0  0  0  0  0  0  0  0
    8.3209  -16.4152   20.4038 C   0  0  0  0  0  0  0  0  0  0  0  0
    8.1728  -15.1736   20.5464 O   0  0  0  0  0  0  0  0  0  0  0  0
    6.2578  -17.9332   23.1138 C   0  0  0  0  0  0  0  0  0  0  0  0
    6.9594  -16.7610   22.5056 C   0  0  2  0  0  0  0  0  0  0  0  0
    7.7936  -17.2403   21.4219 N   0  0  0  0  0  0  0  0  0  0  0  0
    7.7190  -15.9595   23.4870 C   0  0  0  0  0  0  0  0  0  0  0  0
    8.9476  -16.1725   23.6027 O   0  0  0  0  0  0  0  0  0  0  0  0
    7.3399  -11.0807   27.4113 C   0  0  0  0  0  0  0  0  0  0  0  0
    8.0253  -12.3013   26.8500 C   0  0  0  0  0  0  0  0  0  0  0  0
    7.1111  -13.0454   25.8661 C   0  0  2  0  0  0  0  0  0  0  0  0
    5.9949  -13.6087   26.7241 C   0  0  0  0  0  0  0  0  0  0  0  0
    7.8683  -14.2071   25.3024 C   0  0  2  0  0  0  0  0  0  0  0  0
    7.1468  -14.9607   24.3103 N   0  0  0  0  0  0  0  0  0  0  0  0
    8.3310  -15.0641   26.4249 C   0  0  0  0  0  0  0  0  0  0  0  0
    7.7385  -16.2615   26.7728 O   0  0  0  0  0  0  0  0  0  0  0  0
    9.3186  -14.6723   27.0934 O   0  0  0  0  0  0  0  0  0  0  0  0
  1  5  1  0
  2  1  1  0
  3  2  1  0
  3  4  1  0
  4  5  1  0
  5  6  1  1
  6 10  1  0
  7  6  2  0
  9  8  1  1
 10  9  1  0
 11 12  2  0
 11  9  1  0
 14 15  1  0
 14 13  1  0
 15 16  1  1
 17 18  1  6
 17 15  1  0
 18 11  1  0
 19 17  1  0
 20 19  1  0
 21 19  2  0
M  END
$$$$
