PAI.pdb
     RDKit          3D

 21 21  0  0  1  0  0  0  0  0999 V2000
    8.4267  -15.1434   18.6549 N   0  0  0  0  0  0  0  0  0  0  0  0
    8.7297  -14.4768   17.3854 C   0  0  0  0  0  0  0  0  0  0  0  0
    7.6478  -13.3922   17.3883 C   0  0  0  0  0  0  0  0  0  0  0  0
    7.4958  -13.0393   18.8592 C   0  0  0  0  0  0  0  0  0  0  0  0
    8.3628  -14.0206   19.5631 C   0  0  1  0  0  0  0  0  0  0  0  0
    7.8827  -14.4280   20.8893 C   0  0  0  0  0  0  0  0  0  0  0  0
    7.7475  -13.5400   21.7708 O   0  0  0  0  0  0  0  0  0  0  0  0
    6.9275  -17.6166   22.6131 C   0  0  0  0  0  0  0  0  0  0  0  0
    7.0786  -16.1293   22.5774 C   0  0  2  0  0  0  0  0  0  0  0  0
    7.5557  -15.7505   21.2625 N   0  0  0  0  0  0  0  0  0  0  0  0
    7.9351  -15.6016   23.6592 C   0  0  0  0  0  0  0  0  0  0  0  0
    9.1776  -15.6652   23.5164 O   0  0  0  0  0  0  0  0  0  0  0  0
    5.8492  -11.9594   27.4813 C   0  0  0  0  0  0  0  0  0  0  0  0
    6.3755  -13.2647   26.9393 C   0  0  0  0  0  0  0  0  0  0  0  0
    7.7818  -13.0910   26.3481 C   0  0  2  0  0  0  0  0  0  0  0  0
    7.5824  -12.2213   25.1221 C   0  0  0  0  0  0  0  0  0  0  0  0
    8.2637  -14.4261   25.8726 C   0  0  2  0  0  0  0  0  0  0  0  0
    7.4416  -15.0254   24.8539 N   0  0  0  0  0  0  0  0  0  0  0  0
    8.4318  -15.3186   27.0490 C   0  0  0  0  0  0  0  0  0  0  0  0
    9.3182  -15.0745   28.0787 O   0  0  0  0  0  0  0  0  0  0  0  0
    7.7244  -16.3540   27.1054 O   0  0  0  0  0  0  0  0  0  0  0  0
  1  5  1  0
  2  1  1  0
  3  2  1  0
  3  4  1  0
  4  5  1  0
  5  6  1  1
  6 10  1  0
  7  6  2  0
  9  8  1  6
 10  9  1  0
 11 12  2  0
 11  9  1  0
 14 15  1  0
 14 13  1  0
 15 16  1  6
 17 18  1  6
 17 15  1  0
 18 11  1  0
 19 17  1  0
 20 19  1  0
 21 19  2  0
M  END
$$$$
