PWG.pdb
     RDKit          3D

 26 28  0  0  1  0  0  0  0  0999 V2000
    7.3750  -16.6925   20.9768 N   0  0  0  0  0  0  0  0  0  0  0  0
    6.6586  -16.5770   19.7180 C   0  0  0  0  0  0  0  0  0  0  0  0
    7.2426  -15.3519   19.0337 C   0  0  0  0  0  0  0  0  0  0  0  0
    8.4003  -14.9314   19.9091 C   0  0  0  0  0  0  0  0  0  0  0  0
    8.7146  -16.2118   20.6580 C   0  0  1  0  0  0  0  0  0  0  0  0
    9.5531  -15.9784   21.8382 C   0  0  0  0  0  0  0  0  0  0  0  0
   10.7774  -15.7046   21.6291 O   0  0  0  0  0  0  0  0  0  0  0  0
    9.1368  -16.0261   23.1871 N   0  0  0  0  0  0  0  0  0  0  0  0
   10.0272  -15.6022   24.2753 C   0  0  1  0  0  0  0  0  0  0  0  0
    9.5859  -14.3798   24.9488 C   0  0  0  0  0  0  0  0  0  0  0  0
    8.2148  -14.2500   25.4113 C   0  0  0  0  0  0  0  0  0  0  0  0
    7.2696  -15.2771   25.5412 C   0  0  0  0  0  0  0  0  0  0  0  0
    6.1191  -14.8121   26.0402 N   0  0  0  0  0  0  0  0  0  0  0  0
    6.2755  -13.5007   26.2449 C   0  0  0  0  0  0  0  0  0  0  0  0
    5.3745  -12.5757   26.7266 C   0  0  0  0  0  0  0  0  0  0  0  0
    5.7608  -11.2774   26.8242 C   0  0  0  0  0  0  0  0  0  0  0  0
    7.0104  -10.8509   26.4627 C   0  0  0  0  0  0  0  0  0  0  0  0
    7.8937  -11.8033   25.9832 C   0  0  0  0  0  0  0  0  0  0  0  0
    7.5652  -13.1411   25.8596 C   0  0  0  0  0  0  0  0  0  0  0  0
   10.4076  -16.7274   25.0987 C   0  0  0  0  0  0  0  0  0  0  0  0
   11.2156  -16.5916   26.0446 O   0  0  0  0  0  0  0  0  0  0  0  0
    9.8958  -18.0584   24.8834 N   0  0  0  0  0  0  0  0  0  0  0  0
   10.2442  -19.2274   25.6002 C   0  0  0  0  0  0  0  0  0  0  0  0
   11.5744  -19.7939   25.3640 C   0  0  0  0  0  0  0  0  0  0  0  0
   12.0171  -20.8979   26.0583 O   0  0  0  0  0  0  0  0  0  0  0  0
   12.3395  -19.2799   24.5157 O   0  0  0  0  0  0  0  0  0  0  0  0
  1  2  1  0
  2  3  1  0
  4  3  1  0
  5  6  1  1
  5  1  1  0
  5  4  1  0
  6  8  1  0
  7  6  2  0
  8  9  1  0
  9 10  1  1
 10 11  1  0
 11 19  1  0
 12 11  2  0
 12 13  1  0
 13 14  1  0
 14 15  1  0
 15 16  2  0
 17 16  1  0
 18 17  2  0
 19 14  2  0
 19 18  1  0
 20  9  1  0
 21 20  2  0
 22 20  1  0
 23 22  1  0
 24 23  1  0
 25 24  1  0
 26 24  2  0
M  END
$$$$
