PWG.pdb
     RDKit          3D

 26 28  0  0  1  0  0  0  0  0999 V2000
    7.5983  -15.9182   20.9743 N   0  0  0  0  0  0  0  0  0  0  0  0
    6.8259  -15.4396   19.8407 C   0  0  0  0  0  0  0  0  0  0  0  0
    6.9285  -13.9242   19.8948 C   0  0  0  0  0  0  0  0  0  0  0  0
    7.9165  -13.6399   21.0022 C   0  0  0  0  0  0  0  0  0  0  0  0
    8.6801  -14.9469   21.0908 C   0  0  1  0  0  0  0  0  0  0  0  0
    9.4458  -15.0644   22.3359 C   0  0  0  0  0  0  0  0  0  0  0  0
   10.4014  -14.2419   22.5036 O   0  0  0  0  0  0  0  0  0  0  0  0
    9.2279  -16.0007   23.3709 N   0  0  0  0  0  0  0  0  0  0  0  0
    9.9393  -15.9008   24.6517 C   0  0  1  0  0  0  0  0  0  0  0  0
    9.0572  -15.9740   25.8174 C   0  0  0  0  0  0  0  0  0  0  0  0
    7.8220  -15.2099   25.8531 C   0  0  0  0  0  0  0  0  0  0  0  0
    6.5181  -15.7124   25.7420 C   0  0  0  0  0  0  0  0  0  0  0  0
    5.6135  -14.7348   25.8636 N   0  0  0  0  0  0  0  0  0  0  0  0
    6.2838  -13.5940   26.0521 C   0  0  0  0  0  0  0  0  0  0  0  0
    5.8036  -12.3120   26.2117 C   0  0  0  0  0  0  0  0  0  0  0  0
    6.6920  -11.2965   26.3657 C   0  0  0  0  0  0  0  0  0  0  0  0
    8.0464  -11.4960   26.3687 C   0  0  0  0  0  0  0  0  0  0  0  0
    8.4985  -12.7947   26.2072 C   0  0  0  0  0  0  0  0  0  0  0  0
    7.6485  -13.8740   26.0468 C   0  0  0  0  0  0  0  0  0  0  0  0
   11.1253  -16.7268   24.6491 C   0  0  0  0  0  0  0  0  0  0  0  0
   11.8394  -16.8348   25.6710 O   0  0  0  0  0  0  0  0  0  0  0  0
   11.5600  -17.4617   23.4868 N   0  0  0  0  0  0  0  0  0  0  0  0
   12.6427  -18.3694   23.4132 C   0  0  0  0  0  0  0  0  0  0  0  0
   13.9863  -17.8074   23.2541 C   0  0  0  0  0  0  0  0  0  0  0  0
   15.0908  -18.6184   23.1153 O   0  0  0  0  0  0  0  0  0  0  0  0
   14.1553  -16.5663   23.2390 O   0  0  0  0  0  0  0  0  0  0  0  0
  1  2  1  0
  2  3  1  0
  4  3  1  0
  5  6  1  1
  5  1  1  0
  5  4  1  0
  6  8  1  0
  7  6  2  0
  8  9  1  0
  9 10  1  1
 10 11  1  0
 11 19  1  0
 12 11  2  0
 12 13  1  0
 13 14  1  0
 14 15  1  0
 15 16  2  0
 17 16  1  0
 18 17  2  0
 19 14  2  0
 19 18  1  0
 20  9  1  0
 21 20  2  0
 22 20  1  0
 23 22  1  0
 24 23  1  0
 25 24  1  0
 26 24  2  0
M  END
$$$$
