PWG.pdb
     RDKit          3D

 26 28  0  0  1  0  0  0  0  0999 V2000
    7.6397  -16.4538   21.0684 N   0  0  0  0  0  0  0  0  0  0  0  0
    6.7887  -16.1012   19.9448 C   0  0  0  0  0  0  0  0  0  0  0  0
    6.6525  -14.5886   20.0025 C   0  0  0  0  0  0  0  0  0  0  0  0
    7.5960  -14.1539   21.0997 C   0  0  0  0  0  0  0  0  0  0  0  0
    8.5565  -15.3247   21.1759 C   0  0  1  0  0  0  0  0  0  0  0  0
    9.3453  -15.3219   22.4121 C   0  0  0  0  0  0  0  0  0  0  0  0
   10.3092  -14.4946   22.4778 O   0  0  0  0  0  0  0  0  0  0  0  0
    9.1414  -16.1467   23.5406 N   0  0  0  0  0  0  0  0  0  0  0  0
    9.9996  -16.0407   24.7275 C   0  0  1  0  0  0  0  0  0  0  0  0
    9.2533  -15.8631   25.9741 C   0  0  0  0  0  0  0  0  0  0  0  0
    8.0055  -15.1190   25.9837 C   0  0  0  0  0  0  0  0  0  0  0  0
    6.7165  -15.6349   25.7902 C   0  0  0  0  0  0  0  0  0  0  0  0
    5.7915  -14.6763   25.9100 N   0  0  0  0  0  0  0  0  0  0  0  0
    6.4336  -13.5352   26.1778 C   0  0  0  0  0  0  0  0  0  0  0  0
    5.9258  -12.2682   26.3684 C   0  0  0  0  0  0  0  0  0  0  0  0
    6.7894  -11.2476   26.6068 C   0  0  0  0  0  0  0  0  0  0  0  0
    8.1452  -11.4277   26.6652 C   0  0  0  0  0  0  0  0  0  0  0  0
    8.6254  -12.7117   26.4706 C   0  0  0  0  0  0  0  0  0  0  0  0
    7.8015  -13.7951   26.2250 C   0  0  0  0  0  0  0  0  0  0  0  0
   11.0426  -17.0408   24.7012 C   0  0  0  0  0  0  0  0  0  0  0  0
   10.8156  -18.2201   25.0529 O   0  0  0  0  0  0  0  0  0  0  0  0
   12.3913  -16.7486   24.2825 N   0  0  0  0  0  0  0  0  0  0  0  0
   13.4672  -17.6627   24.1884 C   0  0  0  0  0  0  0  0  0  0  0  0
   14.7336  -17.1628   23.6476 C   0  0  0  0  0  0  0  0  0  0  0  0
   15.9095  -17.2747   24.3557 O   0  0  0  0  0  0  0  0  0  0  0  0
   14.7696  -16.6211   22.5187 O   0  0  0  0  0  0  0  0  0  0  0  0
  1  2  1  0
  2  3  1  0
  4  3  1  0
  5  6  1  1
  5  1  1  0
  5  4  1  0
  6  8  1  0
  7  6  2  0
  8  9  1  0
  9 10  1  1
 10 11  1  0
 11 19  1  0
 12 11  2  0
 12 13  1  0
 13 14  1  0
 14 15  1  0
 15 16  2  0
 17 16  1  0
 18 17  2  0
 19 14  2  0
 19 18  1  0
 20  9  1  0
 21 20  2  0
 22 20  1  0
 23 22  1  0
 24 23  1  0
 25 24  1  0
 26 24  2  0
M  END
$$$$
