PWG.pdb
     RDKit          3D

 26 28  0  0  1  0  0  0  0  0999 V2000
    7.6205  -15.5575   20.8424 N   0  0  0  0  0  0  0  0  0  0  0  0
    6.9151  -15.0184   19.6923 C   0  0  0  0  0  0  0  0  0  0  0  0
    7.0945  -13.5117   19.7802 C   0  0  0  0  0  0  0  0  0  0  0  0
    8.0557  -13.3001   20.9267 C   0  0  0  0  0  0  0  0  0  0  0  0
    8.7465  -14.6469   21.0158 C   0  0  1  0  0  0  0  0  0  0  0  0
    9.4600  -14.8271   22.2842 C   0  0  0  0  0  0  0  0  0  0  0  0
   10.4569  -14.0663   22.4968 O   0  0  0  0  0  0  0  0  0  0  0  0
    9.1504  -15.7621   23.2967 N   0  0  0  0  0  0  0  0  0  0  0  0
    9.8938  -15.7891   24.5629 C   0  0  1  0  0  0  0  0  0  0  0  0
    9.0335  -15.8784   25.7437 C   0  0  0  0  0  0  0  0  0  0  0  0
    7.7987  -15.1159   25.8124 C   0  0  0  0  0  0  0  0  0  0  0  0
    6.4985  -15.6000   25.6121 C   0  0  0  0  0  0  0  0  0  0  0  0
    5.5917  -14.6345   25.7973 N   0  0  0  0  0  0  0  0  0  0  0  0
    6.2568  -13.5197   26.1152 C   0  0  0  0  0  0  0  0  0  0  0  0
    5.7733  -12.2567   26.3807 C   0  0  0  0  0  0  0  0  0  0  0  0
    6.6575  -11.2643   26.6594 C   0  0  0  0  0  0  0  0  0  0  0  0
    8.0108  -11.4690   26.6868 C   0  0  0  0  0  0  0  0  0  0  0  0
    8.4663  -12.7483   26.4168 C   0  0  0  0  0  0  0  0  0  0  0  0
    7.6207  -13.8037   26.1269 C   0  0  0  0  0  0  0  0  0  0  0  0
   11.0224  -16.6881   24.4797 C   0  0  0  0  0  0  0  0  0  0  0  0
   11.5960  -17.1018   25.5120 O   0  0  0  0  0  0  0  0  0  0  0  0
   11.5566  -17.1532   23.2234 N   0  0  0  0  0  0  0  0  0  0  0  0
   12.6450  -18.0385   23.0402 C   0  0  0  0  0  0  0  0  0  0  0  0
   13.9736  -17.4480   22.8600 C   0  0  0  0  0  0  0  0  0  0  0  0
   14.6080  -17.4696   21.6378 O   0  0  0  0  0  0  0  0  0  0  0  0
   14.5609  -16.9054   23.8243 O   0  0  0  0  0  0  0  0  0  0  0  0
  1  2  1  0
  2  3  1  0
  4  3  1  0
  5  6  1  1
  5  1  1  0
  5  4  1  0
  6  8  1  0
  7  6  2  0
  8  9  1  0
  9 10  1  1
 10 11  1  0
 11 19  1  0
 12 11  2  0
 12 13  1  0
 13 14  1  0
 14 15  1  0
 15 16  2  0
 17 16  1  0
 18 17  2  0
 19 14  2  0
 19 18  1  0
 20  9  1  0
 21 20  2  0
 22 20  1  0
 23 22  1  0
 24 23  1  0
 25 24  1  0
 26 24  2  0
M  END
$$$$
