PWG.pdb
     RDKit          3D

 26 28  0  0  1  0  0  0  0  0999 V2000
    7.5650  -16.4091   21.0098 N   0  0  0  0  0  0  0  0  0  0  0  0
    6.6814  -16.0858   19.9026 C   0  0  0  0  0  0  0  0  0  0  0  0
    6.5191  -14.5752   19.9453 C   0  0  0  0  0  0  0  0  0  0  0  0
    7.4803  -14.1101   21.0144 C   0  0  0  0  0  0  0  0  0  0  0  0
    8.4634  -15.2625   21.0818 C   0  0  1  0  0  0  0  0  0  0  0  0
    9.2810  -15.2302   22.2987 C   0  0  0  0  0  0  0  0  0  0  0  0
   10.1853  -14.3379   22.3609 O   0  0  0  0  0  0  0  0  0  0  0  0
    9.1646  -16.0917   23.4120 N   0  0  0  0  0  0  0  0  0  0  0  0
   10.0702  -15.9776   24.5624 C   0  0  1  0  0  0  0  0  0  0  0  0
    9.3741  -15.8512   25.8438 C   0  0  0  0  0  0  0  0  0  0  0  0
    8.1041  -15.1502   25.9239 C   0  0  0  0  0  0  0  0  0  0  0  0
    6.8260  -15.7034   25.7647 C   0  0  0  0  0  0  0  0  0  0  0  0
    5.8757  -14.7805   25.9490 N   0  0  0  0  0  0  0  0  0  0  0  0
    6.4903  -13.6266   26.2261 C   0  0  0  0  0  0  0  0  0  0  0  0
    5.9494  -12.3834   26.4743 C   0  0  0  0  0  0  0  0  0  0  0  0
    6.7881  -11.3416   26.7098 C   0  0  0  0  0  0  0  0  0  0  0  0
    8.1503  -11.4775   26.7105 C   0  0  0  0  0  0  0  0  0  0  0  0
    8.6640  -12.7384   26.4589 C   0  0  0  0  0  0  0  0  0  0  0  0
    7.8668  -13.8415   26.2127 C   0  0  0  0  0  0  0  0  0  0  0  0
   11.1457  -16.9386   24.4698 C   0  0  0  0  0  0  0  0  0  0  0  0
   10.9411  -18.1577   24.6643 O   0  0  0  0  0  0  0  0  0  0  0  0
   12.5027  -16.5613   24.1599 N   0  0  0  0  0  0  0  0  0  0  0  0
   13.6231  -17.4208   24.0719 C   0  0  0  0  0  0  0  0  0  0  0  0
   14.9363  -16.8017   23.8761 C   0  0  0  0  0  0  0  0  0  0  0  0
   15.7503  -16.4943   24.9436 O   0  0  0  0  0  0  0  0  0  0  0  0
   15.3469  -16.5405   22.7218 O   0  0  0  0  0  0  0  0  0  0  0  0
  1  2  1  0
  2  3  1  0
  4  3  1  0
  5  6  1  1
  5  1  1  0
  5  4  1  0
  6  8  1  0
  7  6  2  0
  8  9  1  0
  9 10  1  1
 10 11  1  0
 11 19  1  0
 12 11  2  0
 12 13  1  0
 13 14  1  0
 14 15  1  0
 15 16  2  0
 17 16  1  0
 18 17  2  0
 19 14  2  0
 19 18  1  0
 20  9  1  0
 21 20  2  0
 22 20  1  0
 23 22  1  0
 24 23  1  0
 25 24  1  0
 26 24  2  0
M  END
$$$$
