AWS.pdb
     RDKit          3D

 26 27  0  0  1  0  0  0  0  0999 V2000
    7.4412  -18.5241   20.7266 C   0  0  0  0  0  0  0  0  0  0  0  0
    6.9098  -17.2555   21.3082 C   0  0  2  0  0  0  0  0  0  0  0  0
    6.5388  -16.3192   20.2713 N   0  0  0  0  0  0  0  0  0  0  0  0
    8.0144  -16.6068   22.1102 C   0  0  0  0  0  0  0  0  0  0  0  0
    8.7515  -15.7684   21.5462 O   0  0  0  0  0  0  0  0  0  0  0  0
    8.2230  -16.9259   23.4595 N   0  0  0  0  0  0  0  0  0  0  0  0
    9.2562  -16.2575   24.2231 C   0  0  1  0  0  0  0  0  0  0  0  0
    8.7634  -16.1548   25.6249 C   0  0  0  0  0  0  0  0  0  0  0  0
    7.5648  -15.3071   25.7987 C   0  0  0  0  0  0  0  0  0  0  0  0
    6.2208  -15.6912   25.8105 C   0  0  0  0  0  0  0  0  0  0  0  0
    5.4378  -14.6350   25.9726 N   0  0  0  0  0  0  0  0  0  0  0  0
    6.2123  -13.5332   26.0729 C   0  0  0  0  0  0  0  0  0  0  0  0
    5.9169  -12.1944   26.2482 C   0  0  0  0  0  0  0  0  0  0  0  0
    6.9235  -11.2480   26.3196 C   0  0  0  0  0  0  0  0  0  0  0  0
    8.2471  -11.6295   26.2157 C   0  0  0  0  0  0  0  0  0  0  0  0
    8.5230  -12.9625   26.0417 C   0  0  0  0  0  0  0  0  0  0  0  0
    7.5279  -13.9201   25.9687 C   0  0  0  0  0  0  0  0  0  0  0  0
   10.5322  -16.9465   24.0259 C   0  0  0  0  0  0  0  0  0  0  0  0
   10.6304  -18.1848   24.3551 O   0  0  0  0  0  0  0  0  0  0  0  0
   14.0801  -15.2415   22.6061 O   0  0  0  0  0  0  0  0  0  0  0  0
   13.8475  -16.6036   22.3215 C   0  0  0  0  0  0  0  0  0  0  0  0
   12.9083  -17.1856   23.3789 C   0  0  2  0  0  0  0  0  0  0  0  0
   11.7171  -16.3933   23.4935 N   0  0  0  0  0  0  0  0  0  0  0  0
   13.6522  -17.3173   24.6598 C   0  0  0  0  0  0  0  0  0  0  0  0
   14.7641  -17.9154   24.6058 O   0  0  0  0  0  0  0  0  0  0  0  0
   13.2397  -16.8522   25.8732 O   0  0  0  0  0  0  0  0  0  0  0  0
  2  1  1  6
  2  3  1  0
  4  2  1  0
  4  5  2  0
  6  4  1  0
  7  6  1  0
  7  8  1  1
  9  8  1  0
  9 17  1  0
 10 11  1  0
 10  9  2  0
 11 12  1  0
 12 13  1  0
 12 17  2  0
 13 14  2  0
 14 15  1  0
 16 15  2  0
 17 16  1  0
 18  7  1  0
 18 23  1  0
 19 18  2  0
 21 20  1  0
 22 21  1  6
 22 23  1  0
 22 24  1  0
 24 25  2  0
 24 26  1  0
M  END
$$$$
