AWS.pdb
     RDKit          3D

 26 27  0  0  1  0  0  0  0  0999 V2000
   10.5589  -18.7385   19.3204 C   0  0  0  0  0  0  0  0  0  0  0  0
    9.7630  -17.4824   19.1832 C   0  0  2  0  0  0  0  0  0  0  0  0
   10.3780  -16.5729   18.2430 N   0  0  0  0  0  0  0  0  0  0  0  0
    9.7503  -16.7849   20.5239 C   0  0  0  0  0  0  0  0  0  0  0  0
   10.7719  -16.1595   20.8839 O   0  0  0  0  0  0  0  0  0  0  0  0
    8.6253  -16.8271   21.3598 N   0  0  0  0  0  0  0  0  0  0  0  0
    8.6344  -16.1526   22.6414 C   0  0  1  0  0  0  0  0  0  0  0  0
    7.2139  -15.8955   23.0077 C   0  0  0  0  0  0  0  0  0  0  0  0
    7.0105  -15.3958   24.3841 C   0  0  0  0  0  0  0  0  0  0  0  0
    6.6266  -16.1108   25.5223 C   0  0  0  0  0  0  0  0  0  0  0  0
    6.5330  -15.3028   26.5680 N   0  0  0  0  0  0  0  0  0  0  0  0
    6.8438  -14.0487   26.1754 C   0  0  0  0  0  0  0  0  0  0  0  0
    6.9041  -12.8444   26.8510 C   0  0  0  0  0  0  0  0  0  0  0  0
    7.2588  -11.6788   26.1955 C   0  0  0  0  0  0  0  0  0  0  0  0
    7.5595  -11.7014   24.8475 C   0  0  0  0  0  0  0  0  0  0  0  0
    7.4947  -12.9052   24.1917 C   0  0  0  0  0  0  0  0  0  0  0  0
    7.1420  -14.0786   24.8331 C   0  0  0  0  0  0  0  0  0  0  0  0
    9.4271  -16.9287   23.5960 C   0  0  0  0  0  0  0  0  0  0  0  0
    9.2865  -18.2055   23.6318 O   0  0  0  0  0  0  0  0  0  0  0  0
   13.0800  -16.1017   24.9910 O   0  0  0  0  0  0  0  0  0  0  0  0
   12.5359  -17.4008   25.0711 C   0  0  0  0  0  0  0  0  0  0  0  0
   11.0511  -17.3038   25.4245 C   0  0  2  0  0  0  0  0  0  0  0  0
   10.3686  -16.4239   24.5192 N   0  0  0  0  0  0  0  0  0  0  0  0
   10.9235  -16.8961   26.8489 C   0  0  0  0  0  0  0  0  0  0  0  0
   10.2434  -15.8559   27.0778 O   0  0  0  0  0  0  0  0  0  0  0  0
   11.4728  -17.5432   27.9160 O   0  0  0  0  0  0  0  0  0  0  0  0
  2  1  1  1
  2  3  1  0
  4  2  1  0
  4  5  2  0
  6  4  1  0
  7  6  1  0
  7  8  1  1
  9  8  1  0
  9 17  1  0
 10 11  1  0
 10  9  2  0
 11 12  1  0
 12 13  1  0
 12 17  2  0
 13 14  2  0
 14 15  1  0
 16 15  2  0
 17 16  1  0
 18  7  1  0
 18 23  1  0
 19 18  2  0
 21 20  1  0
 22 21  1  6
 22 23  1  0
 22 24  1  0
 24 25  2  0
 24 26  1  0
M  END
$$$$
