AWS.pdb
     RDKit          3D

 26 27  0  0  1  0  0  0  0  0999 V2000
    7.5922  -17.2666   19.8310 C   0  0  0  0  0  0  0  0  0  0  0  0
    6.9510  -16.2706   20.7404 C   0  0  2  0  0  0  0  0  0  0  0  0
    6.5063  -15.1050   20.0102 N   0  0  0  0  0  0  0  0  0  0  0  0
    7.9919  -15.7980   21.7290 C   0  0  0  0  0  0  0  0  0  0  0  0
    8.6134  -14.7403   21.4853 O   0  0  0  0  0  0  0  0  0  0  0  0
    8.2681  -16.5175   22.9004 N   0  0  0  0  0  0  0  0  0  0  0  0
    9.2382  -16.0245   23.8560 C   0  0  1  0  0  0  0  0  0  0  0  0
    8.6492  -16.2139   25.2108 C   0  0  0  0  0  0  0  0  0  0  0  0
    7.5123  -15.3215   25.5215 C   0  0  0  0  0  0  0  0  0  0  0  0
    6.1500  -15.6312   25.5693 C   0  0  0  0  0  0  0  0  0  0  0  0
    5.4393  -14.5530   25.8650 N   0  0  0  0  0  0  0  0  0  0  0  0
    6.2813  -13.5090   26.0219 C   0  0  0  0  0  0  0  0  0  0  0  0
    6.0741  -12.1777   26.3304 C   0  0  0  0  0  0  0  0  0  0  0  0
    7.1372  -11.2981   26.4326 C   0  0  0  0  0  0  0  0  0  0  0  0
    8.4296  -11.7402   26.2264 C   0  0  0  0  0  0  0  0  0  0  0  0
    8.6178  -13.0648   25.9209 C   0  0  0  0  0  0  0  0  0  0  0  0
    7.5655  -13.9560   25.8153 C   0  0  0  0  0  0  0  0  0  0  0  0
   10.5331  -16.6605   23.6096 C   0  0  0  0  0  0  0  0  0  0  0  0
   10.5812  -17.9335   23.4404 O   0  0  0  0  0  0  0  0  0  0  0  0
   13.4805  -15.4361   21.5022 O   0  0  0  0  0  0  0  0  0  0  0  0
   14.0648  -16.0094   22.6512 C   0  0  0  0  0  0  0  0  0  0  0  0
   12.9973  -16.7835   23.4259 C   0  0  2  0  0  0  0  0  0  0  0  0
   11.7878  -16.0181   23.5295 N   0  0  0  0  0  0  0  0  0  0  0  0
   13.5568  -17.1804   24.7454 C   0  0  0  0  0  0  0  0  0  0  0  0
   12.9640  -16.7299   25.7664 O   0  0  0  0  0  0  0  0  0  0  0  0
   14.6431  -17.9803   24.9431 O   0  0  0  0  0  0  0  0  0  0  0  0
  2  1  1  6
  2  3  1  0
  4  2  1  0
  4  5  2  0
  6  4  1  0
  7  6  1  0
  7  8  1  1
  9  8  1  0
  9 17  1  0
 10 11  1  0
 10  9  2  0
 11 12  1  0
 12 13  1  0
 12 17  2  0
 13 14  2  0
 14 15  1  0
 16 15  2  0
 17 16  1  0
 18  7  1  0
 18 23  1  0
 19 18  2  0
 21 20  1  0
 22 21  1  1
 22 23  1  0
 22 24  1  0
 24 25  2  0
 24 26  1  0
M  END
$$$$
