AWS.pdb
     RDKit          3D

 26 27  0  0  1  0  0  0  0  0999 V2000
    6.6317  -14.3116   20.7157 C   0  0  0  0  0  0  0  0  0  0  0  0
    7.3974  -15.5856   20.8593 C   0  0  2  0  0  0  0  0  0  0  0  0
    6.5584  -16.6460   21.3702 N   0  0  0  0  0  0  0  0  0  0  0  0
    8.4927  -15.3640   21.8769 C   0  0  0  0  0  0  0  0  0  0  0  0
    9.3369  -14.4664   21.6629 O   0  0  0  0  0  0  0  0  0  0  0  0
    8.5759  -16.1390   23.0424 N   0  0  0  0  0  0  0  0  0  0  0  0
    9.5752  -15.8491   24.0498 C   0  0  1  0  0  0  0  0  0  0  0  0
    8.9454  -16.1078   25.3744 C   0  0  0  0  0  0  0  0  0  0  0  0
    7.7499  -15.2871   25.6619 C   0  0  0  0  0  0  0  0  0  0  0  0
    6.4054  -15.6691   25.6391 C   0  0  0  0  0  0  0  0  0  0  0  0
    5.6257  -14.6402   25.9365 N   0  0  0  0  0  0  0  0  0  0  0  0
    6.4029  -13.5594   26.1636 C   0  0  0  0  0  0  0  0  0  0  0  0
    6.1113  -12.2520   26.5042 C   0  0  0  0  0  0  0  0  0  0  0  0
    7.1202  -11.3219   26.6814 C   0  0  0  0  0  0  0  0  0  0  0  0
    8.4421  -11.6885   26.5192 C   0  0  0  0  0  0  0  0  0  0  0  0
    8.7142  -12.9904   26.1809 C   0  0  0  0  0  0  0  0  0  0  0  0
    7.7169  -13.9314   26.0006 C   0  0  0  0  0  0  0  0  0  0  0  0
   10.8002  -16.5918   23.7503 C   0  0  0  0  0  0  0  0  0  0  0  0
   10.7551  -17.8750   23.6976 O   0  0  0  0  0  0  0  0  0  0  0  0
   13.7422  -15.9811   21.1905 O   0  0  0  0  0  0  0  0  0  0  0  0
   14.2829  -16.2314   22.4692 C   0  0  0  0  0  0  0  0  0  0  0  0
   13.2209  -16.9007   23.3427 C   0  0  2  0  0  0  0  0  0  0  0  0
   12.0783  -16.0467   23.4995 N   0  0  0  0  0  0  0  0  0  0  0  0
   13.8425  -17.2944   24.6351 C   0  0  0  0  0  0  0  0  0  0  0  0
   13.2988  -16.8414   25.6820 O   0  0  0  0  0  0  0  0  0  0  0  0
   14.9371  -18.0937   24.7829 O   0  0  0  0  0  0  0  0  0  0  0  0
  2  1  1  1
  2  3  1  0
  4  2  1  0
  4  5  2  0
  6  4  1  0
  7  6  1  0
  7  8  1  1
  9  8  1  0
  9 17  1  0
 10 11  1  0
 10  9  2  0
 11 12  1  0
 12 13  1  0
 12 17  2  0
 13 14  2  0
 14 15  1  0
 16 15  2  0
 17 16  1  0
 18  7  1  0
 18 23  1  0
 19 18  2  0
 21 20  1  0
 22 21  1  6
 22 23  1  0
 22 24  1  0
 24 25  2  0
 24 26  1  0
M  END
$$$$
