AWS.pdb
     RDKit          3D

 26 27  0  0  1  0  0  0  0  0999 V2000
    8.0180  -17.1605   19.8190 C   0  0  0  0  0  0  0  0  0  0  0  0
    7.3649  -16.0560   20.5830 C   0  0  2  0  0  0  0  0  0  0  0  0
    7.1254  -14.9065   19.7399 N   0  0  0  0  0  0  0  0  0  0  0  0
    8.3146  -15.6114   21.6714 C   0  0  0  0  0  0  0  0  0  0  0  0
    9.1085  -14.6759   21.4288 O   0  0  0  0  0  0  0  0  0  0  0  0
    8.3193  -16.2234   22.9330 N   0  0  0  0  0  0  0  0  0  0  0  0
    9.2431  -15.7874   23.9596 C   0  0  1  0  0  0  0  0  0  0  0  0
    8.5955  -16.0615   25.2724 C   0  0  0  0  0  0  0  0  0  0  0  0
    7.4470  -15.1866   25.5904 C   0  0  0  0  0  0  0  0  0  0  0  0
    6.0979  -15.5311   25.7142 C   0  0  0  0  0  0  0  0  0  0  0  0
    5.3689  -14.4597   25.9892 N   0  0  0  0  0  0  0  0  0  0  0  0
    6.1854  -13.3863   26.0576 C   0  0  0  0  0  0  0  0  0  0  0  0
    5.9521  -12.0476   26.3104 C   0  0  0  0  0  0  0  0  0  0  0  0
    6.9919  -11.1349   26.3223 C   0  0  0  0  0  0  0  0  0  0  0  0
    8.2867  -11.5507   26.0797 C   0  0  0  0  0  0  0  0  0  0  0  0
    8.5009  -12.8831   25.8303 C   0  0  0  0  0  0  0  0  0  0  0  0
    7.4721  -13.8072   25.8153 C   0  0  0  0  0  0  0  0  0  0  0  0
   10.5513  -16.4032   23.7329 C   0  0  0  0  0  0  0  0  0  0  0  0
   10.6320  -17.6826   23.6442 O   0  0  0  0  0  0  0  0  0  0  0  0
   15.2626  -16.3431   22.6253 O   0  0  0  0  0  0  0  0  0  0  0  0
   14.1304  -15.5602   22.9343 C   0  0  0  0  0  0  0  0  0  0  0  0
   13.0048  -16.4733   23.4222 C   0  0  2  0  0  0  0  0  0  0  0  0
   11.7865  -15.7341   23.5915 N   0  0  0  0  0  0  0  0  0  0  0  0
   13.4511  -17.1631   24.6618 C   0  0  0  0  0  0  0  0  0  0  0  0
   12.7986  -16.9083   25.7135 O   0  0  0  0  0  0  0  0  0  0  0  0
   14.4933  -18.0370   24.7571 O   0  0  0  0  0  0  0  0  0  0  0  0
  2  1  1  6
  2  3  1  0
  4  2  1  0
  4  5  2  0
  6  4  1  0
  7  6  1  0
  7  8  1  1
  9  8  1  0
  9 17  1  0
 10 11  1  0
 10  9  2  0
 11 12  1  0
 12 13  1  0
 12 17  2  0
 13 14  2  0
 14 15  1  0
 16 15  2  0
 17 16  1  0
 18  7  1  0
 18 23  1  0
 19 18  2  0
 21 20  1  0
 22 21  1  1
 22 23  1  0
 22 24  1  0
 24 25  2  0
 24 26  1  0
M  END
$$$$
