AWS.pdb
     RDKit          3D

 26 27  0  0  1  0  0  0  0  0999 V2000
    7.6865  -16.0252   19.6054 C   0  0  0  0  0  0  0  0  0  0  0  0
    7.3242  -14.9544   20.5811 C   0  0  2  0  0  0  0  0  0  0  0  0
    7.3170  -13.6531   19.9517 N   0  0  0  0  0  0  0  0  0  0  0  0
    8.3877  -14.9166   21.6543 C   0  0  0  0  0  0  0  0  0  0  0  0
    9.3353  -14.1097   21.5309 O   0  0  0  0  0  0  0  0  0  0  0  0
    8.3292  -15.7611   22.7721 N   0  0  0  0  0  0  0  0  0  0  0  0
    9.3209  -15.6618   23.8229 C   0  0  1  0  0  0  0  0  0  0  0  0
    8.6307  -15.9796   25.1038 C   0  0  0  0  0  0  0  0  0  0  0  0
    7.5266  -15.0617   25.4560 C   0  0  0  0  0  0  0  0  0  0  0  0
    6.1501  -15.3035   25.4265 C   0  0  0  0  0  0  0  0  0  0  0  0
    5.4810  -14.2216   25.7963 N   0  0  0  0  0  0  0  0  0  0  0  0
    6.3655  -13.2413   26.0797 C   0  0  0  0  0  0  0  0  0  0  0  0
    6.2106  -11.9348   26.5035 C   0  0  0  0  0  0  0  0  0  0  0  0
    7.3099  -11.1245   26.7250 C   0  0  0  0  0  0  0  0  0  0  0  0
    8.5867  -11.6121   26.5241 C   0  0  0  0  0  0  0  0  0  0  0  0
    8.7228  -12.9111   26.1032 C   0  0  0  0  0  0  0  0  0  0  0  0
    7.6338  -13.7333   25.8778 C   0  0  0  0  0  0  0  0  0  0  0  0
   10.4796  -16.4875   23.4804 C   0  0  0  0  0  0  0  0  0  0  0  0
   10.2924  -17.7057   23.1166 O   0  0  0  0  0  0  0  0  0  0  0  0
   14.5986  -15.4062   23.6017 O   0  0  0  0  0  0  0  0  0  0  0  0
   14.1194  -16.3683   22.6880 C   0  0  0  0  0  0  0  0  0  0  0  0
   12.8809  -17.0470   23.2750 C   0  0  2  0  0  0  0  0  0  0  0  0
   11.8345  -16.0909   23.4997 N   0  0  0  0  0  0  0  0  0  0  0  0
   13.2766  -17.7852   24.5038 C   0  0  0  0  0  0  0  0  0  0  0  0
   12.7003  -17.4439   25.5754 O   0  0  0  0  0  0  0  0  0  0  0  0
   14.1984  -18.7876   24.5700 O   0  0  0  0  0  0  0  0  0  0  0  0
  2  1  1  6
  2  3  1  0
  4  2  1  0
  4  5  2  0
  6  4  1  0
  7  6  1  0
  7  8  1  1
  9  8  1  0
  9 17  1  0
 10 11  1  0
 10  9  2  0
 11 12  1  0
 12 13  1  0
 12 17  2  0
 13 14  2  0
 14 15  1  0
 16 15  2  0
 17 16  1  0
 18  7  1  0
 18 23  1  0
 19 18  2  0
 21 20  1  0
 22 21  1  1
 22 23  1  0
 22 24  1  0
 24 25  2  0
 24 26  1  0
M  END
$$$$
