PIQ.pdb
     RDKit          3D

 25 25  0  0  1  0  0  0  0  0999 V2000
   28.1299  -20.6994  -15.6421 N   0  0  0  0  0  0  0  0  0  0  0  0
   28.9585  -19.7693  -16.4322 C   0  0  0  0  0  0  0  0  0  0  0  0
   28.1432  -18.4964  -16.3153 C   0  0  0  0  0  0  0  0  0  0  0  0
   27.5472  -18.5445  -14.9232 C   0  0  0  0  0  0  0  0  0  0  0  0
   27.9815  -19.8931  -14.4241 C   0  0  1  0  0  0  0  0  0  0  0  0
   26.9326  -20.4920  -13.5956 C   0  0  0  0  0  0  0  0  0  0  0  0
   26.3301  -21.5267  -14.0491 O   0  0  0  0  0  0  0  0  0  0  0  0
   26.8303  -20.1814   -8.0648 C   0  0  0  0  0  0  0  0  0  0  0  0
   26.5492  -20.9035   -9.3393 C   0  0  0  0  0  0  0  0  0  0  0  0
   25.4249  -20.4080  -10.1598 C   0  0  2  0  0  0  0  0  0  0  0  0
   24.1590  -21.1206   -9.6413 C   0  0  0  0  0  0  0  0  0  0  0  0
   25.4493  -20.6116  -11.6198 C   0  0  2  0  0  0  0  0  0  0  0  0
   26.5429  -19.9897  -12.3134 N   0  0  0  0  0  0  0  0  0  0  0  0
   24.1945  -20.1835  -12.3077 C   0  0  0  0  0  0  0  0  0  0  0  0
   23.8895  -18.9732  -12.4589 O   0  0  0  0  0  0  0  0  0  0  0  0
   19.5944  -21.9861  -17.7583 N   0  0  0  0  0  0  0  0  0  0  0  0
   20.5905  -22.2778  -16.7484 C   0  0  0  0  0  0  0  0  0  0  0  0
   20.9617  -23.4524  -16.6924 O   0  0  0  0  0  0  0  0  0  0  0  0
   21.0712  -21.2259  -15.8983 C   0  0  0  0  0  0  0  0  0  0  0  0
   22.1277  -21.4410  -14.9092 C   0  0  0  0  0  0  0  0  0  0  0  0
   22.0755  -20.7190  -13.6073 C   0  0  2  0  0  0  0  0  0  0  0  0
   23.2805  -21.1307  -12.8268 N   0  0  0  0  0  0  0  0  0  0  0  0
   20.8766  -20.9647  -12.7834 C   0  0  0  0  0  0  0  0  0  0  0  0
   19.6836  -20.2884  -12.9249 O   0  0  0  0  0  0  0  0  0  0  0  0
   20.9569  -21.8577  -11.8890 O   0  0  0  0  0  0  0  0  0  0  0  0
  1  5  1  0
  2  1  1  0
  2  3  1  0
  3  4  1  0
  4  5  1  0
  5  6  1  1
  6  7  2  0
  9 10  1  0
  9  8  1  0
 10 12  1  0
 10 11  1  1
 12 13  1  6
 12 14  1  0
 13  6  1  0
 14 15  2  0
 14 22  1  0
 16 17  1  0
 17 19  1  0
 18 17  2  0
 19 20  1  0
 21 20  1  6
 21 23  1  0
 22 21  1  0
 23 25  2  0
 23 24  1  0
M  END
$$$$
