PIQ.pdb
     RDKit          3D

 25 25  0  0  1  0  0  0  0  0999 V2000
   27.4800  -19.1920  -15.0222 N   0  0  0  0  0  0  0  0  0  0  0  0
   28.6765  -19.0047  -15.8641 C   0  0  0  0  0  0  0  0  0  0  0  0
   29.5966  -20.0620  -15.2859 C   0  0  0  0  0  0  0  0  0  0  0  0
   28.6792  -21.2036  -14.8977 C   0  0  0  0  0  0  0  0  0  0  0  0
   27.3150  -20.6423  -15.1809 C   0  0  1  0  0  0  0  0  0  0  0  0
   26.3528  -21.1124  -14.1817 C   0  0  0  0  0  0  0  0  0  0  0  0
   25.9819  -22.3365  -14.2382 O   0  0  0  0  0  0  0  0  0  0  0  0
   26.8584  -20.5560   -8.8703 C   0  0  0  0  0  0  0  0  0  0  0  0
   26.4377  -21.1209  -10.1850 C   0  0  0  0  0  0  0  0  0  0  0  0
   25.1972  -20.5845  -10.7822 C   0  0  2  0  0  0  0  0  0  0  0  0
   24.0293  -21.1725   -9.9640 C   0  0  0  0  0  0  0  0  0  0  0  0
   24.8961  -20.8632  -12.1982 C   0  0  2  0  0  0  0  0  0  0  0  0
   25.8047  -20.2861  -13.1496 N   0  0  0  0  0  0  0  0  0  0  0  0
   23.5176  -20.4618  -12.6101 C   0  0  0  0  0  0  0  0  0  0  0  0
   23.1381  -19.2631  -12.6114 O   0  0  0  0  0  0  0  0  0  0  0  0
   20.0869  -23.3745  -17.0124 N   0  0  0  0  0  0  0  0  0  0  0  0
   19.0696  -22.6644  -16.2654 C   0  0  0  0  0  0  0  0  0  0  0  0
   17.9433  -22.6669  -16.7676 O   0  0  0  0  0  0  0  0  0  0  0  0
   19.4140  -22.0189  -15.0306 C   0  0  0  0  0  0  0  0  0  0  0  0
   20.7624  -22.0795  -14.4660 C   0  0  0  0  0  0  0  0  0  0  0  0
   21.2070  -21.0299  -13.5070 C   0  0  2  0  0  0  0  0  0  0  0  0
   22.5641  -21.4225  -13.0225 N   0  0  0  0  0  0  0  0  0  0  0  0
   20.3345  -20.8170  -12.3366 C   0  0  0  0  0  0  0  0  0  0  0  0
   19.3373  -19.8673  -12.2724 O   0  0  0  0  0  0  0  0  0  0  0  0
   20.5203  -21.5601  -11.3281 O   0  0  0  0  0  0  0  0  0  0  0  0
  1  5  1  0
  2  1  1  0
  2  3  1  0
  3  4  1  0
  4  5  1  0
  5  6  1  1
  6  7  2  0
  9 10  1  0
  9  8  1  0
 10 12  1  0
 10 11  1  1
 12 13  1  6
 12 14  1  0
 13  6  1  0
 14 15  2  0
 14 22  1  0
 16 17  1  0
 17 19  1  0
 18 17  2  0
 19 20  1  0
 21 20  1  6
 21 23  1  0
 22 21  1  0
 23 25  2  0
 23 24  1  0
M  END
$$$$
