PIQ.pdb
     RDKit          3D

 25 25  0  0  1  0  0  0  0  0999 V2000
   17.2389  -12.5439  -16.9032 N   0  0  0  0  0  0  0  0  0  0  0  0
   16.2062  -12.7984  -17.9252 C   0  0  0  0  0  0  0  0  0  0  0  0
   15.8638  -11.3807  -18.3392 C   0  0  0  0  0  0  0  0  0  0  0  0
   17.1728  -10.6233  -18.2473 C   0  0  0  0  0  0  0  0  0  0  0  0
   18.1093  -11.6500  -17.6770 C   0  0  1  0  0  0  0  0  0  0  0  0
   19.0602  -11.0186  -16.7592 C   0  0  0  0  0  0  0  0  0  0  0  0
   18.6871  -10.8282  -15.5493 O   0  0  0  0  0  0  0  0  0  0  0  0
   24.2878  -12.2132  -15.7286 C   0  0  0  0  0  0  0  0  0  0  0  0
   22.8631  -11.7721  -15.7088 C   0  0  0  0  0  0  0  0  0  0  0  0
   22.5881  -10.3677  -16.0765 C   0  0  2  0  0  0  0  0  0  0  0  0
   23.2585   -9.4945  -14.9961 C   0  0  0  0  0  0  0  0  0  0  0  0
   21.1916   -9.9061  -16.1782 C   0  0  2  0  0  0  0  0  0  0  0  0
   20.3773  -10.6031  -17.1346 N   0  0  0  0  0  0  0  0  0  0  0  0
   21.0604   -8.4475  -16.4717 C   0  0  0  0  0  0  0  0  0  0  0  0
   20.9201   -8.0064  -17.6407 O   0  0  0  0  0  0  0  0  0  0  0  0
   18.1009   -5.1761  -18.7330 N   0  0  0  0  0  0  0  0  0  0  0  0
   18.0136   -4.3330  -17.5588 C   0  0  0  0  0  0  0  0  0  0  0  0
   17.3749   -3.2879  -17.7018 O   0  0  0  0  0  0  0  0  0  0  0  0
   18.6524   -4.7418  -16.3402 C   0  0  0  0  0  0  0  0  0  0  0  0
   19.3510   -6.0212  -16.2145 C   0  0  0  0  0  0  0  0  0  0  0  0
   20.7418   -6.0515  -15.6818 C   0  0  2  0  0  0  0  0  0  0  0  0
   21.0881   -7.4834  -15.4363 N   0  0  0  0  0  0  0  0  0  0  0  0
   20.9702   -5.2936  -14.4369 C   0  0  0  0  0  0  0  0  0  0  0  0
   21.3765   -3.9770  -14.3914 O   0  0  0  0  0  0  0  0  0  0  0  0
   20.7782   -5.8998  -13.3418 O   0  0  0  0  0  0  0  0  0  0  0  0
  1  5  1  0
  2  1  1  0
  2  3  1  0
  3  4  1  0
  4  5  1  0
  5  6  1  1
  6  7  2  0
  9 10  1  0
  9  8  1  0
 10 12  1  0
 10 11  1  1
 12 13  1  6
 12 14  1  0
 13  6  1  0
 14 15  2  0
 14 22  1  0
 16 17  1  0
 17 19  1  0
 18 17  2  0
 19 20  1  0
 21 20  1  1
 21 23  1  0
 22 21  1  0
 23 25  2  0
 23 24  1  0
M  END
$$$$
