PIQ.pdb
     RDKit          3D

 25 25  0  0  1  0  0  0  0  0999 V2000
   27.5633  -19.0770  -15.3059 N   0  0  0  0  0  0  0  0  0  0  0  0
   28.6867  -18.8718  -16.2395 C   0  0  0  0  0  0  0  0  0  0  0  0
   29.6125  -19.9960  -15.8181 C   0  0  0  0  0  0  0  0  0  0  0  0
   28.6895  -21.1307  -15.4232 C   0  0  0  0  0  0  0  0  0  0  0  0
   27.3284  -20.5067  -15.5434 C   0  0  1  0  0  0  0  0  0  0  0  0
   26.4413  -21.0123  -14.4934 C   0  0  0  0  0  0  0  0  0  0  0  0
   26.0364  -22.2236  -14.5846 O   0  0  0  0  0  0  0  0  0  0  0  0
   27.2750  -20.7513   -9.1893 C   0  0  0  0  0  0  0  0  0  0  0  0
   26.7320  -21.2695  -10.4782 C   0  0  0  0  0  0  0  0  0  0  0  0
   25.5046  -20.6312  -10.9968 C   0  0  2  0  0  0  0  0  0  0  0  0
   24.3373  -21.1769  -10.1490 C   0  0  0  0  0  0  0  0  0  0  0  0
   25.1248  -20.8316  -12.4072 C   0  0  2  0  0  0  0  0  0  0  0  0
   26.0019  -20.2342  -13.3755 N   0  0  0  0  0  0  0  0  0  0  0  0
   23.7403  -20.3720  -12.7281 C   0  0  0  0  0  0  0  0  0  0  0  0
   23.4163  -19.1572  -12.7221 O   0  0  0  0  0  0  0  0  0  0  0  0
   20.3676  -22.7922  -17.3263 N   0  0  0  0  0  0  0  0  0  0  0  0
   19.4464  -21.8637  -16.7047 C   0  0  0  0  0  0  0  0  0  0  0  0
   18.3713  -21.7110  -17.2892 O   0  0  0  0  0  0  0  0  0  0  0  0
   19.8206  -21.1951  -15.4911 C   0  0  0  0  0  0  0  0  0  0  0  0
   21.0980  -21.4445  -14.8227 C   0  0  0  0  0  0  0  0  0  0  0  0
   21.3589  -20.8432  -13.4850 C   0  0  2  0  0  0  0  0  0  0  0  0
   22.7175  -21.2927  -13.0576 N   0  0  0  0  0  0  0  0  0  0  0  0
   20.3944  -21.1915  -12.4243 C   0  0  0  0  0  0  0  0  0  0  0  0
   19.3053  -20.4198  -12.0795 O   0  0  0  0  0  0  0  0  0  0  0  0
   20.5868  -22.2726  -11.7935 O   0  0  0  0  0  0  0  0  0  0  0  0
  1  5  1  0
  2  1  1  0
  2  3  1  0
  3  4  1  0
  4  5  1  0
  5  6  1  1
  6  7  2  0
  9 10  1  0
  9  8  1  0
 10 12  1  0
 10 11  1  1
 12 13  1  6
 12 14  1  0
 13  6  1  0
 14 15  2  0
 14 22  1  0
 16 17  1  0
 17 19  1  0
 18 17  2  0
 19 20  1  0
 21 20  1  6
 21 23  1  0
 22 21  1  0
 23 25  2  0
 23 24  1  0
M  END
$$$$
