PIQ.pdb
     RDKit          3D

 25 25  0  0  1  0  0  0  0  0999 V2000
   28.3311  -20.4998  -15.3312 N   0  0  0  0  0  0  0  0  0  0  0  0
   29.0253  -19.5022  -16.1670 C   0  0  0  0  0  0  0  0  0  0  0  0
   27.9749  -18.4110  -16.2348 C   0  0  0  0  0  0  0  0  0  0  0  0
   27.2926  -18.4455  -14.8825 C   0  0  0  0  0  0  0  0  0  0  0  0
   27.9367  -19.6284  -14.2174 C   0  0  1  0  0  0  0  0  0  0  0  0
   26.9606  -20.3430  -13.3917 C   0  0  0  0  0  0  0  0  0  0  0  0
   26.3828  -21.3664  -13.8997 O   0  0  0  0  0  0  0  0  0  0  0  0
   26.8051  -20.1221   -7.7715 C   0  0  0  0  0  0  0  0  0  0  0  0
   26.6534  -20.8373   -9.0716 C   0  0  0  0  0  0  0  0  0  0  0  0
   25.5010  -20.4612   -9.9163 C   0  0  2  0  0  0  0  0  0  0  0  0
   24.3008  -21.2873   -9.4101 C   0  0  0  0  0  0  0  0  0  0  0  0
   25.5704  -20.6766  -11.3732 C   0  0  2  0  0  0  0  0  0  0  0  0
   26.6158  -19.9652  -12.0550 N   0  0  0  0  0  0  0  0  0  0  0  0
   24.2948  -20.3710  -12.0876 C   0  0  0  0  0  0  0  0  0  0  0  0
   23.9259  -19.1942  -12.3321 O   0  0  0  0  0  0  0  0  0  0  0  0
   22.5094  -21.1098  -17.2524 N   0  0  0  0  0  0  0  0  0  0  0  0
   21.2276  -21.5880  -16.7775 C   0  0  0  0  0  0  0  0  0  0  0  0
   20.3058  -21.5368  -17.5951 O   0  0  0  0  0  0  0  0  0  0  0  0
   21.1032  -22.0742  -15.4328 C   0  0  0  0  0  0  0  0  0  0  0  0
   22.2236  -22.0669  -14.4918 C   0  0  0  0  0  0  0  0  0  0  0  0
   22.2136  -21.1196  -13.3423 C   0  0  2  0  0  0  0  0  0  0  0  0
   23.4326  -21.4033  -12.5273 N   0  0  0  0  0  0  0  0  0  0  0  0
   21.0329  -21.1909  -12.4605 C   0  0  0  0  0  0  0  0  0  0  0  0
   19.8497  -20.5215  -12.6895 O   0  0  0  0  0  0  0  0  0  0  0  0
   21.1203  -21.9173  -11.4269 O   0  0  0  0  0  0  0  0  0  0  0  0
  1  5  1  0
  2  1  1  0
  2  3  1  0
  3  4  1  0
  4  5  1  0
  5  6  1  1
  6  7  2  0
  9 10  1  0
  9  8  1  0
 10 12  1  0
 10 11  1  1
 12 13  1  6
 12 14  1  0
 13  6  1  0
 14 15  2  0
 14 22  1  0
 16 17  1  0
 17 19  1  0
 18 17  2  0
 19 20  1  0
 21 20  1  6
 21 23  1  0
 22 21  1  0
 23 25  2  0
 23 24  1  0
M  END
$$$$
