PIQ.pdb
     RDKit          3D

 25 25  0  0  1  0  0  0  0  0999 V2000
   26.3886  -18.4550  -15.2907 N   0  0  0  0  0  0  0  0  0  0  0  0
   27.4710  -17.8207  -16.0666 C   0  0  0  0  0  0  0  0  0  0  0  0
   28.6896  -18.3585  -15.3425 C   0  0  0  0  0  0  0  0  0  0  0  0
   28.3011  -19.7603  -14.9186 C   0  0  0  0  0  0  0  0  0  0  0  0
   26.8606  -19.8445  -15.3359 C   0  0  1  0  0  0  0  0  0  0  0  0
   26.0934  -20.6274  -14.3644 C   0  0  0  0  0  0  0  0  0  0  0  0
   26.3721  -21.8714  -14.2452 O   0  0  0  0  0  0  0  0  0  0  0  0
   26.6422  -20.3063   -9.3903 C   0  0  0  0  0  0  0  0  0  0  0  0
   26.2646  -20.7716  -10.7562 C   0  0  0  0  0  0  0  0  0  0  0  0
   24.8482  -20.6242  -11.1501 C   0  0  2  0  0  0  0  0  0  0  0  0
   24.0436  -21.5880  -10.2541 C   0  0  0  0  0  0  0  0  0  0  0  0
   24.4490  -20.9150  -12.5391 C   0  0  2  0  0  0  0  0  0  0  0  0
   25.0538  -20.0851  -13.5438 N   0  0  0  0  0  0  0  0  0  0  0  0
   22.9729  -20.8680  -12.7628 C   0  0  0  0  0  0  0  0  0  0  0  0
   22.2925  -19.8329  -12.5479 O   0  0  0  0  0  0  0  0  0  0  0  0
   20.0154  -23.2343   -8.7151 N   0  0  0  0  0  0  0  0  0  0  0  0
   19.0591  -23.0528   -9.7874 C   0  0  0  0  0  0  0  0  0  0  0  0
   17.9560  -22.6191   -9.4472 O   0  0  0  0  0  0  0  0  0  0  0  0
   19.4310  -23.3775  -11.1351 C   0  0  0  0  0  0  0  0  0  0  0  0
   20.7386  -23.0285  -11.6912 C   0  0  0  0  0  0  0  0  0  0  0  0
   20.8159  -22.2041  -12.9296 C   0  0  2  0  0  0  0  0  0  0  0  0
   22.2639  -21.9991  -13.2323 N   0  0  0  0  0  0  0  0  0  0  0  0
   20.1585  -20.8849  -12.8659 C   0  0  0  0  0  0  0  0  0  0  0  0
   20.4593  -19.9100  -11.9388 O   0  0  0  0  0  0  0  0  0  0  0  0
   19.2594  -20.6397  -13.7233 O   0  0  0  0  0  0  0  0  0  0  0  0
  1  5  1  0
  2  1  1  0
  2  3  1  0
  3  4  1  0
  4  5  1  0
  5  6  1  1
  6  7  2  0
  9 10  1  0
  9  8  1  0
 10 12  1  0
 10 11  1  1
 12 13  1  6
 12 14  1  0
 13  6  1  0
 14 15  2  0
 14 22  1  0
 16 17  1  0
 17 19  1  0
 18 17  2  0
 19 20  1  0
 21 20  1  1
 21 23  1  0
 22 21  1  0
 23 25  2  0
 23 24  1  0
M  END
$$$$
