PIQ.pdb
     RDKit          3D

 25 25  0  0  1  0  0  0  0  0999 V2000
   27.6382  -18.9286  -14.8404 N   0  0  0  0  0  0  0  0  0  0  0  0
   28.7959  -18.6697  -15.7169 C   0  0  0  0  0  0  0  0  0  0  0  0
   29.7806  -19.6974  -15.1945 C   0  0  0  0  0  0  0  0  0  0  0  0
   28.9279  -20.8870  -14.8029 C   0  0  0  0  0  0  0  0  0  0  0  0
   27.5315  -20.3809  -15.0275 C   0  0  1  0  0  0  0  0  0  0  0  0
   26.6256  -20.9152  -14.0081 C   0  0  0  0  0  0  0  0  0  0  0  0
   26.3370  -22.1616  -14.0587 O   0  0  0  0  0  0  0  0  0  0  0  0
   27.0660  -20.0272   -8.7234 C   0  0  0  0  0  0  0  0  0  0  0  0
   26.6726  -20.7834   -9.9474 C   0  0  0  0  0  0  0  0  0  0  0  0
   25.4053  -20.3950  -10.6003 C   0  0  2  0  0  0  0  0  0  0  0  0
   24.2746  -21.0592   -9.7882 C   0  0  0  0  0  0  0  0  0  0  0  0
   25.1757  -20.7600  -12.0101 C   0  0  2  0  0  0  0  0  0  0  0  0
   26.0459  -20.1282  -12.9628 N   0  0  0  0  0  0  0  0  0  0  0  0
   23.7752  -20.5231  -12.4721 C   0  0  0  0  0  0  0  0  0  0  0  0
   23.2886  -19.3689  -12.5805 O   0  0  0  0  0  0  0  0  0  0  0  0
   21.0556  -24.3409  -16.6918 N   0  0  0  0  0  0  0  0  0  0  0  0
   19.9780  -23.4498  -16.3154 C   0  0  0  0  0  0  0  0  0  0  0  0
   18.9361  -23.5731  -16.9635 O   0  0  0  0  0  0  0  0  0  0  0  0
   20.1736  -22.5061  -15.2519 C   0  0  0  0  0  0  0  0  0  0  0  0
   21.4197  -22.4357  -14.4882 C   0  0  0  0  0  0  0  0  0  0  0  0
   21.5906  -21.3774  -13.4538 C   0  0  2  0  0  0  0  0  0  0  0  0
   22.9214  -21.5988  -12.8131 N   0  0  0  0  0  0  0  0  0  0  0  0
   20.5618  -21.3389  -12.3972 C   0  0  0  0  0  0  0  0  0  0  0  0
   19.4207  -20.5673  -12.4503 O   0  0  0  0  0  0  0  0  0  0  0  0
   20.7468  -22.0659  -11.3768 O   0  0  0  0  0  0  0  0  0  0  0  0
  1  5  1  0
  2  1  1  0
  2  3  1  0
  3  4  1  0
  4  5  1  0
  5  6  1  1
  6  7  2  0
  9 10  1  0
  9  8  1  0
 10 12  1  0
 10 11  1  1
 12 13  1  6
 12 14  1  0
 13  6  1  0
 14 15  2  0
 14 22  1  0
 16 17  1  0
 17 19  1  0
 18 17  2  0
 19 20  1  0
 21 20  1  6
 21 23  1  0
 22 21  1  0
 23 25  2  0
 23 24  1  0
M  END
$$$$
