YGL.pdb
     RDKit          3D

 25 25  0  0  1  0  0  0  0  0999 V2000
   25.3026  -18.7843  -16.1415 O   0  0  0  0  0  0  0  0  0  0  0  0
   25.0357  -17.5125  -15.6616 C   0  0  0  0  0  0  0  0  0  0  0  0
   23.7289  -17.0912  -15.5018 C   0  0  0  0  0  0  0  0  0  0  0  0
   23.4812  -15.8267  -15.0246 C   0  0  0  0  0  0  0  0  0  0  0  0
   24.4952  -14.9511  -14.6949 C   0  0  0  0  0  0  0  0  0  0  0  0
   24.2172  -13.5857  -14.1796 C   0  0  0  0  0  0  0  0  0  0  0  0
   23.4709  -12.7985  -15.2284 C   0  0  2  0  0  0  0  0  0  0  0  0
   24.3868  -12.5484  -16.3253 N   0  0  0  0  0  0  0  0  0  0  0  0
   23.0185  -11.4820  -14.7145 C   0  0  0  0  0  0  0  0  0  0  0  0
   22.1801  -11.4460  -13.7873 O   0  0  0  0  0  0  0  0  0  0  0  0
   25.7922  -15.3884  -14.8608 C   0  0  0  0  0  0  0  0  0  0  0  0
   26.0396  -16.6405  -15.3333 C   0  0  0  0  0  0  0  0  0  0  0  0
   23.4833  -10.2290  -15.2152 N   0  0  0  0  0  0  0  0  0  0  0  0
   23.0342   -8.9633  -14.7281 C   0  0  0  0  0  0  0  0  0  0  0  0
   22.1316   -8.2772  -15.7247 C   0  0  0  0  0  0  0  0  0  0  0  0
   22.0733   -8.7083  -16.9059 O   0  0  0  0  0  0  0  0  0  0  0  0
   19.1018   -6.7893  -19.2803 C   0  0  0  0  0  0  0  0  0  0  0  0
   18.6116   -7.2599  -17.9627 C   0  0  1  0  0  0  0  0  0  0  0  0
   17.6510   -8.4286  -18.2115 C   0  0  0  0  0  0  0  0  0  0  0  0
   19.5665   -7.5336  -16.8892 C   0  0  0  0  0  0  0  0  0  0  0  0
   20.4893   -6.5104  -16.3706 C   0  0  2  0  0  0  0  0  0  0  0  0
   21.3499   -7.1592  -15.3579 N   0  0  0  0  0  0  0  0  0  0  0  0
   19.9477   -5.2651  -15.8431 C   0  0  0  0  0  0  0  0  0  0  0  0
   19.7091   -4.2152  -16.7629 O   0  0  0  0  0  0  0  0  0  0  0  0
   19.6562   -4.9829  -14.6680 O   0  0  0  0  0  0  0  0  0  0  0  0
  2  3  2  0
  2  1  1  0
  4  3  1  0
  5  4  2  0
  6  7  1  0
  6  5  1  0
  7  8  1  6
  9 10  2  0
  9  7  1  0
 11  5  1  0
 11 12  2  0
 12  2  1  0
 13  9  1  0
 14 13  1  0
 15 22  1  0
 15 14  1  0
 16 15  2  0
 18 19  1  6
 18 17  1  0
 20 18  1  0
 21 20  1  1
 21 22  1  0
 23 21  1  0
 24 23  1  0
 25 23  2  0
M  END
$$$$
