YGL.pdb
     RDKit          3D

 25 25  0  0  1  0  0  0  0  0999 V2000
   24.9360  -17.5925  -21.9609 O   0  0  0  0  0  0  0  0  0  0  0  0
   24.5024  -17.7725  -20.6576 C   0  0  0  0  0  0  0  0  0  0  0  0
   24.9733  -16.9517  -19.6500 C   0  0  0  0  0  0  0  0  0  0  0  0
   24.5333  -17.1434  -18.3625 C   0  0  0  0  0  0  0  0  0  0  0  0
   23.6306  -18.1329  -18.0312 C   0  0  0  0  0  0  0  0  0  0  0  0
   23.1608  -18.3323  -16.6360 C   0  0  0  0  0  0  0  0  0  0  0  0
   24.2758  -18.9309  -15.8144 C   0  0  2  0  0  0  0  0  0  0  0  0
   24.5173  -20.2723  -16.3117 N   0  0  0  0  0  0  0  0  0  0  0  0
   23.9076  -19.0448  -14.3814 C   0  0  0  0  0  0  0  0  0  0  0  0
   23.5533  -18.0186  -13.7607 O   0  0  0  0  0  0  0  0  0  0  0  0
   23.1719  -18.9419  -19.0490 C   0  0  0  0  0  0  0  0  0  0  0  0
   23.6064  -18.7536  -20.3250 C   0  0  0  0  0  0  0  0  0  0  0  0
   23.9304  -20.2688  -13.6480 N   0  0  0  0  0  0  0  0  0  0  0  0
   23.5250  -20.3843  -12.2830 C   0  0  0  0  0  0  0  0  0  0  0  0
   24.7083  -20.6090  -11.3731 C   0  0  0  0  0  0  0  0  0  0  0  0
   25.4991  -21.5593  -11.6097 O   0  0  0  0  0  0  0  0  0  0  0  0
   27.2434  -19.3698   -6.3895 C   0  0  0  0  0  0  0  0  0  0  0  0
   27.7141  -19.1155   -7.7722 C   0  0  1  0  0  0  0  0  0  0  0  0
   28.8866  -20.0638   -8.0487 C   0  0  0  0  0  0  0  0  0  0  0  0
   26.7497  -19.0761   -8.8710 C   0  0  0  0  0  0  0  0  0  0  0  0
   25.8815  -20.2176   -9.2036 C   0  0  2  0  0  0  0  0  0  0  0  0
   24.9464  -19.7729  -10.2596 N   0  0  0  0  0  0  0  0  0  0  0  0
   25.1499  -20.8895   -8.1380 C   0  0  0  0  0  0  0  0  0  0  0  0
   25.7841  -21.9824   -7.4988 O   0  0  0  0  0  0  0  0  0  0  0  0
   24.0162  -20.6347   -7.6960 O   0  0  0  0  0  0  0  0  0  0  0  0
  2  3  2  0
  2  1  1  0
  4  3  1  0
  5  4  2  0
  6  7  1  0
  6  5  1  0
  7  8  1  6
  9 10  2  0
  9  7  1  0
 11  5  1  0
 11 12  2  0
 12  2  1  0
 13  9  1  0
 14 13  1  0
 15 22  1  0
 15 14  1  0
 16 15  2  0
 18 19  1  6
 18 17  1  0
 20 18  1  0
 21 20  1  1
 21 22  1  0
 23 21  1  0
 24 23  1  0
 25 23  2  0
M  END
$$$$
