YGL.pdb
     RDKit          3D

 25 25  0  0  1  0  0  0  0  0999 V2000
   17.4176  -18.2756  -16.3612 O   0  0  0  0  0  0  0  0  0  0  0  0
   17.6609  -16.9494  -16.0435 C   0  0  0  0  0  0  0  0  0  0  0  0
   18.7081  -16.2735  -16.6412 C   0  0  0  0  0  0  0  0  0  0  0  0
   18.9360  -14.9583  -16.3152 C   0  0  0  0  0  0  0  0  0  0  0  0
   18.1532  -14.2777  -15.4055 C   0  0  0  0  0  0  0  0  0  0  0  0
   18.4076  -12.8555  -15.0595 C   0  0  0  0  0  0  0  0  0  0  0  0
   17.4293  -11.9785  -15.8014 C   0  0  2  0  0  0  0  0  0  0  0  0
   17.7740  -12.0285  -17.2097 N   0  0  0  0  0  0  0  0  0  0  0  0
   17.5182  -10.5616  -15.3693 C   0  0  0  0  0  0  0  0  0  0  0  0
   17.2280  -10.2658  -14.1894 O   0  0  0  0  0  0  0  0  0  0  0  0
   17.1134  -14.9677  -14.8195 C   0  0  0  0  0  0  0  0  0  0  0  0
   16.8860  -16.2705  -15.1410 C   0  0  0  0  0  0  0  0  0  0  0  0
   17.9202   -9.4918  -16.2241 N   0  0  0  0  0  0  0  0  0  0  0  0
   17.9699   -8.1241  -15.8148 C   0  0  0  0  0  0  0  0  0  0  0  0
   19.3318   -7.7585  -15.2762 C   0  0  0  0  0  0  0  0  0  0  0  0
   20.0517   -8.6509  -14.7568 O   0  0  0  0  0  0  0  0  0  0  0  0
   24.3153   -7.0710  -15.3384 C   0  0  0  0  0  0  0  0  0  0  0  0
   23.4988   -6.1268  -16.1381 C   0  0  1  0  0  0  0  0  0  0  0  0
   24.1112   -6.0519  -17.5416 C   0  0  0  0  0  0  0  0  0  0  0  0
   22.0434   -6.2693  -16.1650 C   0  0  0  0  0  0  0  0  0  0  0  0
   21.2138   -6.1488  -14.9547 C   0  0  2  0  0  0  0  0  0  0  0  0
   19.8154   -6.4329  -15.3434 N   0  0  0  0  0  0  0  0  0  0  0  0
   21.2755   -4.9239  -14.1685 C   0  0  0  0  0  0  0  0  0  0  0  0
   22.3734   -4.7678  -13.2879 O   0  0  0  0  0  0  0  0  0  0  0  0
   20.4805   -3.9683  -14.1587 O   0  0  0  0  0  0  0  0  0  0  0  0
  2  3  2  0
  2  1  1  0
  4  3  1  0
  5  4  2  0
  6  7  1  0
  6  5  1  0
  7  8  1  6
  9 10  2  0
  9  7  1  0
 11  5  1  0
 11 12  2  0
 12  2  1  0
 13  9  1  0
 14 13  1  0
 15 22  1  0
 15 14  1  0
 16 15  2  0
 18 19  1  6
 18 17  1  0
 20 18  1  0
 21 20  1  6
 21 22  1  0
 23 21  1  0
 24 23  1  0
 25 23  2  0
M  END
$$$$
