YGL.pdb
     RDKit          3D

 25 25  0  0  1  0  0  0  0  0999 V2000
   25.0709  -21.3156   -7.5171 O   0  0  0  0  0  0  0  0  0  0  0  0
   25.3220  -20.8536   -8.7988 C   0  0  0  0  0  0  0  0  0  0  0  0
   26.3936  -20.0132   -9.0359 C   0  0  0  0  0  0  0  0  0  0  0  0
   26.6290  -19.5638  -10.3129 C   0  0  0  0  0  0  0  0  0  0  0  0
   25.8304  -19.9215  -11.3795 C   0  0  0  0  0  0  0  0  0  0  0  0
   26.0931  -19.4304  -12.7568 C   0  0  0  0  0  0  0  0  0  0  0  0
   25.2768  -20.2349  -13.7380 C   0  0  2  0  0  0  0  0  0  0  0  0
   26.0030  -21.4601  -14.0140 N   0  0  0  0  0  0  0  0  0  0  0  0
   25.0987  -19.5207  -15.0265 C   0  0  0  0  0  0  0  0  0  0  0  0
   24.5278  -18.4081  -15.0318 O   0  0  0  0  0  0  0  0  0  0  0  0
   24.7664  -20.7603  -11.1242 C   0  0  0  0  0  0  0  0  0  0  0  0
   24.5315  -21.2066   -9.8601 C   0  0  0  0  0  0  0  0  0  0  0  0
   25.5428  -20.0258  -16.2852 N   0  0  0  0  0  0  0  0  0  0  0  0
   25.3448  -19.3483  -17.5272 C   0  0  0  0  0  0  0  0  0  0  0  0
   23.8945  -19.3745  -17.9449 C   0  0  0  0  0  0  0  0  0  0  0  0
   23.4027  -20.4370  -18.4072 O   0  0  0  0  0  0  0  0  0  0  0  0
   19.9195  -19.3203  -14.8727 C   0  0  0  0  0  0  0  0  0  0  0  0
   20.7367  -19.4251  -16.1052 C   0  0  1  0  0  0  0  0  0  0  0  0
   20.3221  -20.7090  -16.8334 C   0  0  0  0  0  0  0  0  0  0  0  0
   20.8436  -18.2765  -17.0044 C   0  0  0  0  0  0  0  0  0  0  0  0
   21.6561  -18.3050  -18.2318 C   0  0  2  0  0  0  0  0  0  0  0  0
   23.0766  -18.2286  -17.8272 N   0  0  0  0  0  0  0  0  0  0  0  0
   21.3842  -17.3392  -19.2880 C   0  0  0  0  0  0  0  0  0  0  0  0
   20.1182  -17.4011  -19.9194 O   0  0  0  0  0  0  0  0  0  0  0  0
   22.1245  -16.4426  -19.7279 O   0  0  0  0  0  0  0  0  0  0  0  0
  2  3  2  0
  2  1  1  0
  4  3  1  0
  5  4  2  0
  6  7  1  0
  6  5  1  0
  7  8  1  6
  9 10  2  0
  9  7  1  0
 11  5  1  0
 11 12  2  0
 12  2  1  0
 13  9  1  0
 14 13  1  0
 15 22  1  0
 15 14  1  0
 16 15  2  0
 18 19  1  6
 18 17  1  0
 20 18  1  0
 21 20  1  1
 21 22  1  0
 23 21  1  0
 24 23  1  0
 25 23  2  0
M  END
$$$$
