YGL.pdb
     RDKit          3D

 25 25  0  0  1  0  0  0  0  0999 V2000
   17.4284  -19.4635  -17.7146 O   0  0  0  0  0  0  0  0  0  0  0  0
   18.7202  -19.8602  -17.4097 C   0  0  0  0  0  0  0  0  0  0  0  0
   19.0184  -20.3440  -16.1496 C   0  0  0  0  0  0  0  0  0  0  0  0
   20.3047  -20.7333  -15.8633 C   0  0  0  0  0  0  0  0  0  0  0  0
   21.3216  -20.6600  -16.7928 C   0  0  0  0  0  0  0  0  0  0  0  0
   22.7094  -21.0835  -16.4737 C   0  0  0  0  0  0  0  0  0  0  0  0
   23.2989  -20.1371  -15.4571 C   0  0  2  0  0  0  0  0  0  0  0  0
   23.4840  -18.8532  -16.1068 N   0  0  0  0  0  0  0  0  0  0  0  0
   24.6284  -20.5935  -14.9817 C   0  0  0  0  0  0  0  0  0  0  0  0
   24.7307  -21.7210  -14.4504 O   0  0  0  0  0  0  0  0  0  0  0  0
   21.0057  -20.1751  -18.0442 C   0  0  0  0  0  0  0  0  0  0  0  0
   19.7323  -19.7889  -18.3298 C   0  0  0  0  0  0  0  0  0  0  0  0
   25.8224  -19.8194  -15.0912 N   0  0  0  0  0  0  0  0  0  0  0  0
   27.1060  -20.2742  -14.6597 C   0  0  0  0  0  0  0  0  0  0  0  0
   27.1588  -20.4354  -13.1597 C   0  0  0  0  0  0  0  0  0  0  0  0
   27.7236  -19.5529  -12.4621 O   0  0  0  0  0  0  0  0  0  0  0  0
   25.6861  -17.9894   -9.7495 C   0  0  0  0  0  0  0  0  0  0  0  0
   26.4701  -19.1490  -10.2380 C   0  0  1  0  0  0  0  0  0  0  0  0
   27.6150  -19.3901   -9.2472 C   0  0  0  0  0  0  0  0  0  0  0  0
   25.7816  -20.3830  -10.6151 C   0  0  0  0  0  0  0  0  0  0  0  0
   26.5029  -21.5920  -11.0460 C   0  0  2  0  0  0  0  0  0  0  0  0
   26.5861  -21.5584  -12.5222 N   0  0  0  0  0  0  0  0  0  0  0  0
   26.0336  -22.8974  -10.6009 C   0  0  0  0  0  0  0  0  0  0  0  0
   26.1053  -23.1796   -9.2152 O   0  0  0  0  0  0  0  0  0  0  0  0
   25.5657  -23.8263  -11.2818 O   0  0  0  0  0  0  0  0  0  0  0  0
  2  3  2  0
  2  1  1  0
  4  3  1  0
  5  4  2  0
  6  7  1  0
  6  5  1  0
  7  8  1  6
  9 10  2  0
  9  7  1  0
 11  5  1  0
 11 12  2  0
 12  2  1  0
 13  9  1  0
 14 13  1  0
 15 22  1  0
 15 14  1  0
 16 15  2  0
 18 19  1  1
 18 17  1  0
 20 18  1  0
 21 20  1  6
 21 22  1  0
 23 21  1  0
 24 23  1  0
 25 23  2  0
M  END
$$$$
