YGL.pdb
     RDKit          3D

 25 25  0  0  1  0  0  0  0  0999 V2000
   19.8761  -18.4811  -17.8893 O   0  0  0  0  0  0  0  0  0  0  0  0
   20.2608  -19.0484  -16.6855 C   0  0  0  0  0  0  0  0  0  0  0  0
   20.8057  -20.3186  -16.6597 C   0  0  0  0  0  0  0  0  0  0  0  0
   21.1822  -20.8670  -15.4573 C   0  0  0  0  0  0  0  0  0  0  0  0
   21.0367  -20.1938  -14.2619 C   0  0  0  0  0  0  0  0  0  0  0  0
   21.4467  -20.7953  -12.9668 C   0  0  0  0  0  0  0  0  0  0  0  0
   22.7097  -20.1262  -12.4832 C   0  0  2  0  0  0  0  0  0  0  0  0
   23.7856  -20.5224  -13.3721 N   0  0  0  0  0  0  0  0  0  0  0  0
   23.0776  -20.5627  -11.1135 C   0  0  0  0  0  0  0  0  0  0  0  0
   22.2419  -20.4415  -10.1911 O   0  0  0  0  0  0  0  0  0  0  0  0
   20.4914  -18.9282  -14.3069 C   0  0  0  0  0  0  0  0  0  0  0  0
   20.1179  -18.3832  -15.4968 C   0  0  0  0  0  0  0  0  0  0  0  0
   24.3444  -21.1224  -10.7691 N   0  0  0  0  0  0  0  0  0  0  0  0
   24.7143  -21.4921   -9.4397 C   0  0  0  0  0  0  0  0  0  0  0  0
   25.8337  -20.6247   -8.9171 C   0  0  0  0  0  0  0  0  0  0  0  0
   26.4110  -19.8229   -9.6971 O   0  0  0  0  0  0  0  0  0  0  0  0
   29.0023  -18.0265   -5.0209 C   0  0  0  0  0  0  0  0  0  0  0  0
   28.6751  -19.4702   -4.9409 C   0  0  1  0  0  0  0  0  0  0  0  0
   28.6360  -19.8594   -3.4585 C   0  0  0  0  0  0  0  0  0  0  0  0
   27.5373  -19.9988   -5.6927 C   0  0  0  0  0  0  0  0  0  0  0  0
   27.5190  -20.0576   -7.1637 C   0  0  2  0  0  0  0  0  0  0  0  0
   26.2471  -20.6947   -7.5681 N   0  0  0  0  0  0  0  0  0  0  0  0
   28.6347  -20.6785   -7.8651 C   0  0  0  0  0  0  0  0  0  0  0  0
   29.7438  -19.8579   -8.1838 O   0  0  0  0  0  0  0  0  0  0  0  0
   28.7572  -21.8590   -8.2351 O   0  0  0  0  0  0  0  0  0  0  0  0
  2  3  2  0
  2  1  1  0
  4  3  1  0
  5  4  2  0
  6  7  1  0
  6  5  1  0
  7  8  1  6
  9 10  2  0
  9  7  1  0
 11  5  1  0
 11 12  2  0
 12  2  1  0
 13  9  1  0
 14 13  1  0
 15 22  1  0
 15 14  1  0
 16 15  2  0
 18 19  1  1
 18 17  1  0
 20 18  1  0
 21 20  1  1
 21 22  1  0
 23 21  1  0
 24 23  1  0
 25 23  2  0
M  END
$$$$
