YGL.pdb
     RDKit          3D

 25 25  0  0  1  0  0  0  0  0999 V2000
   21.2980  -14.2357  -20.7341 O   0  0  0  0  0  0  0  0  0  0  0  0
   22.0700  -14.8308  -19.7497 C   0  0  0  0  0  0  0  0  0  0  0  0
   21.7977  -14.5924  -18.4156 C   0  0  0  0  0  0  0  0  0  0  0  0
   22.5729  -15.1904  -17.4514 C   0  0  0  0  0  0  0  0  0  0  0  0
   23.6233  -16.0283  -17.7645 C   0  0  0  0  0  0  0  0  0  0  0  0
   24.4557  -16.6703  -16.7148 C   0  0  0  0  0  0  0  0  0  0  0  0
   24.2633  -18.1658  -16.7702 C   0  0  2  0  0  0  0  0  0  0  0  0
   22.9182  -18.4536  -16.3091 N   0  0  0  0  0  0  0  0  0  0  0  0
   25.2058  -18.8786  -15.8726 C   0  0  0  0  0  0  0  0  0  0  0  0
   25.3285  -18.4933  -14.6892 O   0  0  0  0  0  0  0  0  0  0  0  0
   23.8801  -16.2544  -19.1002 C   0  0  0  0  0  0  0  0  0  0  0  0
   23.1135  -15.6630  -20.0567 C   0  0  0  0  0  0  0  0  0  0  0  0
   25.9976  -19.9959  -16.2745 N   0  0  0  0  0  0  0  0  0  0  0  0
   26.8767  -20.7025  -15.3978 C   0  0  0  0  0  0  0  0  0  0  0  0
   26.1263  -21.3152  -14.2401 C   0  0  0  0  0  0  0  0  0  0  0  0
   26.5948  -22.3344  -13.6689 O   0  0  0  0  0  0  0  0  0  0  0  0
   25.7212  -20.2513   -9.3218 C   0  0  0  0  0  0  0  0  0  0  0  0
   25.5566  -20.9970  -10.5925 C   0  0  1  0  0  0  0  0  0  0  0  0
   25.7066  -22.4906  -10.2808 C   0  0  0  0  0  0  0  0  0  0  0  0
   24.4110  -20.7137  -11.4565 C   0  0  0  0  0  0  0  0  0  0  0  0
   24.1605  -21.4510  -12.7060 C   0  0  2  0  0  0  0  0  0  0  0  0
   24.9069  -20.7668  -13.7840 N   0  0  0  0  0  0  0  0  0  0  0  0
   22.7868  -21.6947  -13.1254 C   0  0  0  0  0  0  0  0  0  0  0  0
   21.9916  -22.5301  -12.3039 O   0  0  0  0  0  0  0  0  0  0  0  0
   22.1947  -21.2627  -14.1296 O   0  0  0  0  0  0  0  0  0  0  0  0
  2  3  2  0
  2  1  1  0
  4  3  1  0
  5  4  2  0
  6  7  1  0
  6  5  1  0
  7  8  1  1
  9 10  2  0
  9  7  1  0
 11  5  1  0
 11 12  2  0
 12  2  1  0
 13  9  1  0
 14 13  1  0
 15 22  1  0
 15 14  1  0
 16 15  2  0
 18 19  1  1
 18 17  1  0
 20 18  1  0
 21 20  1  1
 21 22  1  0
 23 21  1  0
 24 23  1  0
 25 23  2  0
M  END
$$$$
