YGL.pdb
     RDKit          3D

 25 25  0  0  1  0  0  0  0  0999 V2000
   11.5156  -15.3884  -11.3429 O   0  0  0  0  0  0  0  0  0  0  0  0
   12.4077  -14.3589  -11.0913 C   0  0  0  0  0  0  0  0  0  0  0  0
   13.7397  -14.4956  -11.4346 C   0  0  0  0  0  0  0  0  0  0  0  0
   14.6117  -13.4651  -11.1783 C   0  0  0  0  0  0  0  0  0  0  0  0
   14.2071  -12.2867  -10.5858 C   0  0  0  0  0  0  0  0  0  0  0  0
   15.1576  -11.1780  -10.3128 C   0  0  0  0  0  0  0  0  0  0  0  0
   14.9485  -10.0801  -11.3264 C   0  0  2  0  0  0  0  0  0  0  0  0
   15.4260  -10.5668  -12.6069 N   0  0  0  0  0  0  0  0  0  0  0  0
   15.7280   -8.8625  -10.9920 C   0  0  0  0  0  0  0  0  0  0  0  0
   16.9519   -8.8341  -11.2474 O   0  0  0  0  0  0  0  0  0  0  0  0
   12.8751  -12.1682  -10.2504 C   0  0  0  0  0  0  0  0  0  0  0  0
   12.0097  -13.1877  -10.5033 C   0  0  0  0  0  0  0  0  0  0  0  0
   15.1664   -7.6983  -10.3870 N   0  0  0  0  0  0  0  0  0  0  0  0
   15.9222   -6.5320  -10.0563 C   0  0  0  0  0  0  0  0  0  0  0  0
   15.0427   -5.4502   -9.4776 C   0  0  0  0  0  0  0  0  0  0  0  0
   13.7960   -5.6203   -9.4405 O   0  0  0  0  0  0  0  0  0  0  0  0
   11.7311   -2.6515   -7.2288 C   0  0  0  0  0  0  0  0  0  0  0  0
   12.9582   -3.0923   -6.5234 C   0  0  1  0  0  0  0  0  0  0  0  0
   12.5264   -3.8310   -5.2512 C   0  0  0  0  0  0  0  0  0  0  0  0
   14.0031   -3.8024   -7.2604 C   0  0  0  0  0  0  0  0  0  0  0  0
   14.6914   -3.2147   -8.4217 C   0  0  2  0  0  0  0  0  0  0  0  0
   15.5914   -4.2490   -8.9761 N   0  0  0  0  0  0  0  0  0  0  0  0
   15.4116   -1.9586   -8.2614 C   0  0  0  0  0  0  0  0  0  0  0  0
   14.6474   -0.7668   -8.2316 O   0  0  0  0  0  0  0  0  0  0  0  0
   16.6357   -1.7765   -8.1438 O   0  0  0  0  0  0  0  0  0  0  0  0
  2  3  2  0
  2  1  1  0
  4  3  1  0
  5  4  2  0
  6  7  1  0
  6  5  1  0
  7  8  1  6
  9 10  2  0
  9  7  1  0
 11  5  1  0
 11 12  2  0
 12  2  1  0
 13  9  1  0
 14 13  1  0
 15 22  1  0
 15 14  1  0
 16 15  2  0
 18 19  1  1
 18 17  1  0
 20 18  1  0
 21 20  1  1
 21 22  1  0
 23 21  1  0
 24 23  1  0
 25 23  2  0
M  END
$$$$
