YGL.pdb
     RDKit          3D

 25 25  0  0  1  0  0  0  0  0999 V2000
   18.7809  -19.2166  -14.4259 O   0  0  0  0  0  0  0  0  0  0  0  0
   20.1161  -19.5833  -14.3819 C   0  0  0  0  0  0  0  0  0  0  0  0
   21.0150  -18.8425  -13.6376 C   0  0  0  0  0  0  0  0  0  0  0  0
   22.3359  -19.2195  -13.6044 C   0  0  0  0  0  0  0  0  0  0  0  0
   22.8063  -20.3196  -14.2915 C   0  0  0  0  0  0  0  0  0  0  0  0
   24.2365  -20.7193  -14.2493 C   0  0  0  0  0  0  0  0  0  0  0  0
   25.0685  -19.6717  -14.9471 C   0  0  2  0  0  0  0  0  0  0  0  0
   24.6818  -19.6624  -16.3454 N   0  0  0  0  0  0  0  0  0  0  0  0
   26.5177  -19.9850  -14.8861 C   0  0  0  0  0  0  0  0  0  0  0  0
   26.9949  -20.8171  -15.6885 O   0  0  0  0  0  0  0  0  0  0  0  0
   21.8955  -21.0464  -15.0284 C   0  0  0  0  0  0  0  0  0  0  0  0
   20.5867  -20.6747  -15.0626 C   0  0  0  0  0  0  0  0  0  0  0  0
   27.4228  -19.3904  -13.9565 N   0  0  0  0  0  0  0  0  0  0  0  0
   28.4753  -20.1040  -13.3056 C   0  0  0  0  0  0  0  0  0  0  0  0
   27.9535  -20.9260  -12.1521 C   0  0  0  0  0  0  0  0  0  0  0  0
   28.2263  -22.1535  -12.0937 O   0  0  0  0  0  0  0  0  0  0  0  0
   26.1639  -19.3064   -7.4537 C   0  0  0  0  0  0  0  0  0  0  0  0
   27.4149  -19.7700   -8.1003 C   0  0  1  0  0  0  0  0  0  0  0  0
   28.5305  -19.7197   -7.0498 C   0  0  0  0  0  0  0  0  0  0  0  0
   27.4170  -21.0163   -8.8657 C   0  0  0  0  0  0  0  0  0  0  0  0
   26.5971  -21.2046  -10.0739 C   0  0  2  0  0  0  0  0  0  0  0  0
   27.1639  -20.3445  -11.1352 N   0  0  0  0  0  0  0  0  0  0  0  0
   25.1551  -21.0139   -9.9924 C   0  0  0  0  0  0  0  0  0  0  0  0
   24.4303  -21.8735   -9.1318 O   0  0  0  0  0  0  0  0  0  0  0  0
   24.4486  -20.1812  -10.5865 O   0  0  0  0  0  0  0  0  0  0  0  0
  2  3  2  0
  2  1  1  0
  4  3  1  0
  5  4  2  0
  6  7  1  0
  6  5  1  0
  7  8  1  6
  9 10  2  0
  9  7  1  0
 11  5  1  0
 11 12  2  0
 12  2  1  0
 13  9  1  0
 14 13  1  0
 15 22  1  0
 15 14  1  0
 16 15  2  0
 18 19  1  1
 18 17  1  0
 20 18  1  0
 21 20  1  1
 21 22  1  0
 23 21  1  0
 24 23  1  0
 25 23  2  0
M  END
$$$$
