YGL.pdb
     RDKit          3D

 25 25  0  0  1  0  0  0  0  0999 V2000
   16.7650  -24.6242  -10.0954 O   0  0  0  0  0  0  0  0  0  0  0  0
   17.7134  -24.0455  -10.9229 C   0  0  0  0  0  0  0  0  0  0  0  0
   18.8164  -24.7730  -11.3291 C   0  0  0  0  0  0  0  0  0  0  0  0
   19.7480  -24.1843  -12.1500 C   0  0  0  0  0  0  0  0  0  0  0  0
   19.6255  -22.8824  -12.5899 C   0  0  0  0  0  0  0  0  0  0  0  0
   20.6381  -22.2547  -13.4774 C   0  0  0  0  0  0  0  0  0  0  0  0
   22.0013  -22.3733  -12.8417 C   0  0  2  0  0  0  0  0  0  0  0  0
   22.0409  -21.4632  -11.7126 N   0  0  0  0  0  0  0  0  0  0  0  0
   23.0839  -21.9751  -13.7752 C   0  0  0  0  0  0  0  0  0  0  0  0
   23.2566  -22.6345  -14.8237 O   0  0  0  0  0  0  0  0  0  0  0  0
   18.5190  -22.1723  -12.1747 C   0  0  0  0  0  0  0  0  0  0  0  0
   17.5952  -22.7534  -11.3617 C   0  0  0  0  0  0  0  0  0  0  0  0
   23.9590  -20.8695  -13.5550 N   0  0  0  0  0  0  0  0  0  0  0  0
   25.0237  -20.5114  -14.4376 C   0  0  0  0  0  0  0  0  0  0  0  0
   24.6223  -19.3837  -15.3574 C   0  0  0  0  0  0  0  0  0  0  0  0
   23.5457  -18.7665  -15.1463 O   0  0  0  0  0  0  0  0  0  0  0  0
   28.1513  -17.8388  -18.2058 C   0  0  0  0  0  0  0  0  0  0  0  0
   27.4267  -17.1250  -17.1272 C   0  0  1  0  0  0  0  0  0  0  0  0
   28.2387  -15.8758  -16.7658 C   0  0  0  0  0  0  0  0  0  0  0  0
   25.9985  -16.8460  -17.2743 C   0  0  0  0  0  0  0  0  0  0  0  0
   24.9864  -17.9130  -17.3425 C   0  0  2  0  0  0  0  0  0  0  0  0
   25.4318  -19.0066  -16.4519 N   0  0  0  0  0  0  0  0  0  0  0  0
   24.6047  -18.4499  -18.6418 C   0  0  0  0  0  0  0  0  0  0  0  0
   25.0381  -19.7599  -18.9600 O   0  0  0  0  0  0  0  0  0  0  0  0
   23.9341  -17.9084  -19.5376 O   0  0  0  0  0  0  0  0  0  0  0  0
  2  3  2  0
  2  1  1  0
  4  3  1  0
  5  4  2  0
  6  7  1  0
  6  5  1  0
  7  8  1  1
  9 10  2  0
  9  7  1  0
 11  5  1  0
 11 12  2  0
 12  2  1  0
 13  9  1  0
 14 13  1  0
 15 22  1  0
 15 14  1  0
 16 15  2  0
 18 19  1  6
 18 17  1  0
 20 18  1  0
 21 20  1  6
 21 22  1  0
 23 21  1  0
 24 23  1  0
 25 23  2  0
M  END
$$$$
