SKI.pdb
     RDKit          3D

 24 23  0  0  1  0  0  0  0  0999 V2000
   25.4023  -13.2515  -14.4969 O   0  0  0  0  0  0  0  0  0  0  0  0
   25.1283  -14.5901  -14.3119 C   0  0  0  0  0  0  0  0  0  0  0  0
   25.1886  -15.3799  -15.6009 C   0  0  2  0  0  0  0  0  0  0  0  0
   24.0878  -15.0018  -16.4640 N   0  0  0  0  0  0  0  0  0  0  0  0
   25.2298  -16.8412  -15.3739 C   0  0  0  0  0  0  0  0  0  0  0  0
   24.2146  -17.3891  -14.8856 O   0  0  0  0  0  0  0  0  0  0  0  0
   26.3836  -17.5976  -15.6994 N   0  0  0  0  0  0  0  0  0  0  0  0
   26.4942  -19.0164  -15.4308 C   0  0  1  0  0  0  0  0  0  0  0  0
   27.6153  -19.5710  -16.2823 C   0  0  0  0  0  0  0  0  0  0  0  0
   27.7503  -21.0715  -16.0970 C   0  0  0  0  0  0  0  0  0  0  0  0
   28.8085  -21.6505  -16.9928 C   0  0  0  0  0  0  0  0  0  0  0  0
   28.7929  -23.1658  -16.7572 C   0  0  0  0  0  0  0  0  0  0  0  0
   29.6953  -23.8132  -17.6939 N   0  0  0  0  0  0  0  0  0  0  0  0
   26.7967  -19.2929  -13.9911 C   0  0  0  0  0  0  0  0  0  0  0  0
   27.7523  -18.7590  -13.3990 O   0  0  0  0  0  0  0  0  0  0  0  0
   25.8086  -20.1379   -8.3523 C   0  0  0  0  0  0  0  0  0  0  0  0
   26.2588  -20.8915   -9.5786 C   0  0  0  0  0  0  0  0  0  0  0  0
   25.8448  -20.1516  -10.8438 C   0  0  2  0  0  0  0  0  0  0  0  0
   24.3067  -20.1576  -10.8092 C   0  0  0  0  0  0  0  0  0  0  0  0
   26.2498  -20.8762  -12.1045 C   0  0  2  0  0  0  0  0  0  0  0  0
   25.9442  -20.1910  -13.3337 N   0  0  0  0  0  0  0  0  0  0  0  0
   25.9208  -22.2904  -12.0815 C   0  0  0  0  0  0  0  0  0  0  0  0
   26.2623  -23.1103  -11.2011 O   0  0  0  0  0  0  0  0  0  0  0  0
   25.1474  -22.8145  -13.1343 O   0  0  0  0  0  0  0  0  0  0  0  0
  2  1  1  0
  3  2  1  0
  3  4  1  6
  5  6  2  0
  5  3  1  0
  7  5  1  0
  8  7  1  0
  9 10  1  0
  8  9  1  6
 10 11  1  0
 12 11  1  0
 13 12  1  0
 14 21  1  0
 14  8  1  0
 15 14  2  0
 17 16  1  0
 18 17  1  0
 18 19  1  1
 20 18  1  0
 20 21  1  6
 22 20  1  0
 23 22  2  0
 24 22  1  0
M  END
$$$$
