SKI.pdb
     RDKit          3D

 24 23  0  0  1  0  0  0  0  0999 V2000
   23.3487  -15.9999  -19.5825 O   0  0  0  0  0  0  0  0  0  0  0  0
   23.2194  -14.6527  -19.3195 C   0  0  0  0  0  0  0  0  0  0  0  0
   23.9214  -13.7897  -20.3448 C   0  0  2  0  0  0  0  0  0  0  0  0
   25.2907  -14.2339  -20.5103 N   0  0  0  0  0  0  0  0  0  0  0  0
   23.8484  -12.3474  -20.0235 C   0  0  0  0  0  0  0  0  0  0  0  0
   24.7888  -11.8429  -19.3674 O   0  0  0  0  0  0  0  0  0  0  0  0
   22.7473  -11.5610  -20.4459 N   0  0  0  0  0  0  0  0  0  0  0  0
   22.6133  -10.1568  -20.1178 C   0  0  1  0  0  0  0  0  0  0  0  0
   21.3646   -9.6324  -20.7927 C   0  0  0  0  0  0  0  0  0  0  0  0
   21.2372   -8.1305  -20.6135 C   0  0  0  0  0  0  0  0  0  0  0  0
   20.0570   -7.5784  -21.3617 C   0  0  0  0  0  0  0  0  0  0  0  0
   20.0696   -6.0623  -21.1313 C   0  0  0  0  0  0  0  0  0  0  0  0
   19.6828   -5.7753  -19.7605 N   0  0  0  0  0  0  0  0  0  0  0  0
   22.4967   -9.9341  -18.6422 C   0  0  0  0  0  0  0  0  0  0  0  0
   21.8153  -10.6752  -17.9107 O   0  0  0  0  0  0  0  0  0  0  0  0
   25.7204  -10.4433  -14.1357 C   0  0  0  0  0  0  0  0  0  0  0  0
   24.7193   -9.4415  -14.6540 C   0  0  0  0  0  0  0  0  0  0  0  0
   24.5556   -9.5791  -16.1619 C   0  0  2  0  0  0  0  0  0  0  0  0
   25.9070   -9.1251  -16.7403 C   0  0  0  0  0  0  0  0  0  0  0  0
   23.5112   -8.6459  -16.7248 C   0  0  2  0  0  0  0  0  0  0  0  0
   23.1984   -8.8398  -18.1169 N   0  0  0  0  0  0  0  0  0  0  0  0
   23.6979   -7.2654  -16.3148 C   0  0  0  0  0  0  0  0  0  0  0  0
   24.0092   -6.3123  -17.0623 O   0  0  0  0  0  0  0  0  0  0  0  0
   23.5186   -6.9408  -14.9570 O   0  0  0  0  0  0  0  0  0  0  0  0
  2  1  1  0
  3  2  1  0
  3  4  1  1
  5  6  2  0
  5  3  1  0
  7  5  1  0
  8  7  1  0
  9 10  1  0
  8  9  1  6
 10 11  1  0
 12 11  1  0
 13 12  1  0
 14 21  1  0
 14  8  1  0
 15 14  2  0
 17 16  1  0
 18 17  1  0
 18 19  1  6
 20 18  1  0
 20 21  1  6
 22 20  1  0
 23 22  2  0
 24 22  1  0
M  END
$$$$
