SKI.pdb
     RDKit          3D

 24 23  0  0  1  0  0  0  0  0999 V2000
   23.5571  -11.1166  -18.2771 O   0  0  0  0  0  0  0  0  0  0  0  0
   22.8563  -11.7733  -19.2663 C   0  0  0  0  0  0  0  0  0  0  0  0
   21.3737  -11.8515  -18.9752 C   0  0  2  0  0  0  0  0  0  0  0  0
   20.6937  -12.5377  -20.0552 N   0  0  0  0  0  0  0  0  0  0  0  0
   20.7742  -10.5263  -18.7045 C   0  0  0  0  0  0  0  0  0  0  0  0
   20.6305   -9.7383  -19.6677 O   0  0  0  0  0  0  0  0  0  0  0  0
   20.3748  -10.1603  -17.3947 N   0  0  0  0  0  0  0  0  0  0  0  0
   19.8984   -8.8342  -17.0606 C   0  0  1  0  0  0  0  0  0  0  0  0
   18.5102   -8.9664  -16.4731 C   0  0  0  0  0  0  0  0  0  0  0  0
   17.9414   -7.6079  -16.1057 C   0  0  0  0  0  0  0  0  0  0  0  0
   16.6129   -7.7287  -15.4143 C   0  0  0  0  0  0  0  0  0  0  0  0
   16.1991   -6.3054  -15.0209 C   0  0  0  0  0  0  0  0  0  0  0  0
   14.8568   -6.3250  -14.4652 N   0  0  0  0  0  0  0  0  0  0  0  0
   20.7840   -8.1546  -16.0633 C   0  0  0  0  0  0  0  0  0  0  0  0
   21.0801   -8.6774  -14.9735 O   0  0  0  0  0  0  0  0  0  0  0  0
   24.4884   -4.6013  -18.1468 C   0  0  0  0  0  0  0  0  0  0  0  0
   23.8579   -5.6523  -17.2681 C   0  0  0  0  0  0  0  0  0  0  0  0
   22.9037   -5.0124  -16.2684 C   0  0  2  0  0  0  0  0  0  0  0  0
   23.8213   -4.3946  -15.1992 C   0  0  0  0  0  0  0  0  0  0  0  0
   22.0355   -6.0228  -15.5587 C   0  0  2  0  0  0  0  0  0  0  0  0
   21.2696   -6.8881  -16.4180 N   0  0  0  0  0  0  0  0  0  0  0  0
   21.3096   -5.4620  -14.4329 C   0  0  0  0  0  0  0  0  0  0  0  0
   20.1946   -4.8982  -14.4846 O   0  0  0  0  0  0  0  0  0  0  0  0
   21.8904   -5.5465  -13.1536 O   0  0  0  0  0  0  0  0  0  0  0  0
  2  1  1  0
  3  2  1  0
  3  4  1  6
  5  6  2  0
  5  3  1  0
  7  5  1  0
  8  7  1  0
  9 10  1  0
  8  9  1  1
 10 11  1  0
 12 11  1  0
 13 12  1  0
 14 21  1  0
 14  8  1  0
 15 14  2  0
 17 16  1  0
 18 17  1  0
 18 19  1  1
 20 18  1  0
 20 21  1  6
 22 20  1  0
 23 22  2  0
 24 22  1  0
M  END
$$$$
