SKI.pdb
     RDKit          3D

 24 23  0  0  1  0  0  0  0  0999 V2000
   25.7204  -16.6844  -18.3515 O   0  0  0  0  0  0  0  0  0  0  0  0
   25.6422  -15.4838  -17.6782 C   0  0  0  0  0  0  0  0  0  0  0  0
   25.5488  -14.2976  -18.6125 C   0  0  2  0  0  0  0  0  0  0  0  0
   26.5802  -14.3849  -19.6265 N   0  0  0  0  0  0  0  0  0  0  0  0
   25.5912  -13.0030  -17.8978 C   0  0  0  0  0  0  0  0  0  0  0  0
   24.8287  -12.8482  -16.9159 O   0  0  0  0  0  0  0  0  0  0  0  0
   26.4685  -11.9695  -18.3121 N   0  0  0  0  0  0  0  0  0  0  0  0
   26.5577  -10.6948  -17.6307 C   0  0  1  0  0  0  0  0  0  0  0  0
   27.7766   -9.9659  -18.1527 C   0  0  0  0  0  0  0  0  0  0  0  0
   29.0495  -10.7218  -17.8176 C   0  0  0  0  0  0  0  0  0  0  0  0
   30.2735   -9.9874  -18.2870 C   0  0  0  0  0  0  0  0  0  0  0  0
   31.4711  -10.8853  -17.9533 C   0  0  0  0  0  0  0  0  0  0  0  0
   32.7034  -10.2091  -18.3207 N   0  0  0  0  0  0  0  0  0  0  0  0
   25.3473   -9.8463  -17.8672 C   0  0  0  0  0  0  0  0  0  0  0  0
   24.9667   -9.5368  -19.0108 O   0  0  0  0  0  0  0  0  0  0  0  0
   19.6835   -9.6306  -16.9423 C   0  0  0  0  0  0  0  0  0  0  0  0
   20.8848   -8.7274  -16.8171 C   0  0  0  0  0  0  0  0  0  0  0  0
   22.1668   -9.5471  -16.7547 C   0  0  2  0  0  0  0  0  0  0  0  0
   22.1062  -10.2560  -15.3906 C   0  0  0  0  0  0  0  0  0  0  0  0
   23.4092   -8.6900  -16.7395 C   0  0  2  0  0  0  0  0  0  0  0  0
   24.6551   -9.4119  -16.7280 N   0  0  0  0  0  0  0  0  0  0  0  0
   23.3250   -7.5782  -15.8091 C   0  0  0  0  0  0  0  0  0  0  0  0
   22.4729   -6.6632  -15.8324 O   0  0  0  0  0  0  0  0  0  0  0  0
   24.2771   -7.4972  -14.7756 O   0  0  0  0  0  0  0  0  0  0  0  0
  2  1  1  0
  3  2  1  0
  3  4  1  6
  5  6  2  0
  5  3  1  0
  7  5  1  0
  8  7  1  0
  9 10  1  0
  8  9  1  6
 10 11  1  0
 12 11  1  0
 13 12  1  0
 14 21  1  0
 14  8  1  0
 15 14  2  0
 17 16  1  0
 18 17  1  0
 18 19  1  1
 20 18  1  0
 20 21  1  1
 22 20  1  0
 23 22  2  0
 24 22  1  0
M  END
$$$$
