SKI.pdb
     RDKit          3D

 24 23  0  0  1  0  0  0  0  0999 V2000
   13.6422   -9.0879   -9.2866 O   0  0  0  0  0  0  0  0  0  0  0  0
   14.6898   -9.2579  -10.1667 C   0  0  0  0  0  0  0  0  0  0  0  0
   14.2572   -9.8905  -11.4711 C   0  0  2  0  0  0  0  0  0  0  0  0
   13.7028  -11.2059  -11.2224 N   0  0  0  0  0  0  0  0  0  0  0  0
   15.3450   -9.9348  -12.4728 C   0  0  0  0  0  0  0  0  0  0  0  0
   15.9345  -11.0254  -12.6526 O   0  0  0  0  0  0  0  0  0  0  0  0
   15.7085   -8.7776  -13.2064 N   0  0  0  0  0  0  0  0  0  0  0  0
   16.6289   -8.8132  -14.3240 C   0  0  1  0  0  0  0  0  0  0  0  0
   16.0940   -7.8984  -15.4041 C   0  0  0  0  0  0  0  0  0  0  0  0
   14.9227   -8.5363  -16.1288 C   0  0  0  0  0  0  0  0  0  0  0  0
   14.3812   -7.6417  -17.2077 C   0  0  0  0  0  0  0  0  0  0  0  0
   13.1642   -8.3644  -17.7983 C   0  0  0  0  0  0  0  0  0  0  0  0
   12.4710   -7.4783  -18.7176 N   0  0  0  0  0  0  0  0  0  0  0  0
   18.0002   -8.3551  -13.9361 C   0  0  0  0  0  0  0  0  0  0  0  0
   18.1874   -7.4624  -13.0896 O   0  0  0  0  0  0  0  0  0  0  0  0
   23.1936  -10.1946  -12.9524 C   0  0  0  0  0  0  0  0  0  0  0  0
   22.8530   -9.5590  -14.2770 C   0  0  0  0  0  0  0  0  0  0  0  0
   21.4091   -9.8570  -14.6584 C   0  0  2  0  0  0  0  0  0  0  0  0
   21.4270   -9.9538  -16.1937 C   0  0  0  0  0  0  0  0  0  0  0  0
   20.4671   -8.7304  -14.3092 C   0  0  2  0  0  0  0  0  0  0  0  0
   19.0756   -8.9856  -14.5779 N   0  0  0  0  0  0  0  0  0  0  0  0
   20.9537   -7.4280  -14.7284 C   0  0  0  0  0  0  0  0  0  0  0  0
   20.5757   -6.7916  -15.7363 O   0  0  0  0  0  0  0  0  0  0  0  0
   21.9421   -6.8001  -13.9473 O   0  0  0  0  0  0  0  0  0  0  0  0
  2  1  1  0
  3  2  1  0
  3  4  1  1
  5  6  2  0
  5  3  1  0
  7  5  1  0
  8  7  1  0
  9 10  1  0
  8  9  1  6
 10 11  1  0
 12 11  1  0
 13 12  1  0
 14 21  1  0
 14  8  1  0
 15 14  2  0
 17 16  1  0
 18 17  1  0
 18 19  1  6
 20 18  1  0
 20 21  1  6
 22 20  1  0
 23 22  2  0
 24 22  1  0
M  END
$$$$
