SKI.pdb
     RDKit          3D

 24 23  0  0  1  0  0  0  0  0999 V2000
   19.4096  -15.2722  -19.2827 O   0  0  0  0  0  0  0  0  0  0  0  0
   19.8114  -14.5659  -18.1689 C   0  0  0  0  0  0  0  0  0  0  0  0
   21.1641  -15.0084  -17.6559 C   0  0  2  0  0  0  0  0  0  0  0  0
   21.0055  -16.1190  -16.7388 N   0  0  0  0  0  0  0  0  0  0  0  0
   21.9344  -13.9014  -17.0478 C   0  0  0  0  0  0  0  0  0  0  0  0
   21.6226  -13.5341  -15.8914 O   0  0  0  0  0  0  0  0  0  0  0  0
   22.9930  -13.2759  -17.7530 N   0  0  0  0  0  0  0  0  0  0  0  0
   23.7172  -12.1349  -17.2325 C   0  0  1  0  0  0  0  0  0  0  0  0
   25.0022  -11.9938  -18.0190 C   0  0  0  0  0  0  0  0  0  0  0  0
   25.8445  -10.8485  -17.4873 C   0  0  0  0  0  0  0  0  0  0  0  0
   27.1073  -10.6701  -18.2817 C   0  0  0  0  0  0  0  0  0  0  0  0
   27.9193   -9.5842  -17.5650 C   0  0  0  0  0  0  0  0  0  0  0  0
   29.0971   -9.2590  -18.3512 N   0  0  0  0  0  0  0  0  0  0  0  0
   22.9311  -10.8671  -17.3571 C   0  0  0  0  0  0  0  0  0  0  0  0
   22.6791  -10.3477  -18.4595 O   0  0  0  0  0  0  0  0  0  0  0  0
   18.1207  -10.0818  -16.7865 C   0  0  0  0  0  0  0  0  0  0  0  0
   19.5900   -9.8796  -17.0598 C   0  0  0  0  0  0  0  0  0  0  0  0
   20.2648   -9.1937  -15.8794 C   0  0  2  0  0  0  0  0  0  0  0  0
   19.6832   -7.7693  -15.8759 C   0  0  0  0  0  0  0  0  0  0  0  0
   21.7563   -9.0491  -16.0610 C   0  0  2  0  0  0  0  0  0  0  0  0
   22.4872  -10.2858  -16.1610 N   0  0  0  0  0  0  0  0  0  0  0  0
   22.3436   -8.0474  -15.1890 C   0  0  0  0  0  0  0  0  0  0  0  0
   22.0044   -6.8459  -15.1167 O   0  0  0  0  0  0  0  0  0  0  0  0
   23.3933   -8.4360  -14.3356 O   0  0  0  0  0  0  0  0  0  0  0  0
  2  1  1  0
  3  2  1  0
  3  4  1  1
  5  6  2  0
  5  3  1  0
  7  5  1  0
  8  7  1  0
  9 10  1  0
  8  9  1  6
 10 11  1  0
 12 11  1  0
 13 12  1  0
 14 21  1  0
 14  8  1  0
 15 14  2  0
 17 16  1  0
 18 17  1  0
 18 19  1  6
 20 18  1  0
 20 21  1  1
 22 20  1  0
 23 22  2  0
 24 22  1  0
M  END
$$$$
