SKI.pdb
     RDKit          3D

 24 23  0  0  1  0  0  0  0  0999 V2000
   25.8525  -15.3579  -14.3911 O   0  0  0  0  0  0  0  0  0  0  0  0
   25.7699  -14.9556  -15.7073 C   0  0  0  0  0  0  0  0  0  0  0  0
   26.0210  -16.0879  -16.6787 C   0  0  2  0  0  0  0  0  0  0  0  0
   26.1331  -15.5670  -18.0263 N   0  0  0  0  0  0  0  0  0  0  0  0
   25.0011  -17.1557  -16.5872 C   0  0  0  0  0  0  0  0  0  0  0  0
   23.9042  -16.9719  -17.1637 O   0  0  0  0  0  0  0  0  0  0  0  0
   25.2583  -18.3502  -15.8686 N   0  0  0  0  0  0  0  0  0  0  0  0
   24.2547  -19.3734  -15.6611 C   0  0  1  0  0  0  0  0  0  0  0  0
   24.9627  -20.6622  -15.3041 C   0  0  0  0  0  0  0  0  0  0  0  0
   23.9963  -21.8327  -15.3001 C   0  0  0  0  0  0  0  0  0  0  0  0
   24.6784  -23.1169  -14.9219 C   0  0  0  0  0  0  0  0  0  0  0  0
   23.6683  -24.2389  -15.1920 C   0  0  0  0  0  0  0  0  0  0  0  0
   24.2450  -25.5157  -14.8072 N   0  0  0  0  0  0  0  0  0  0  0  0
   23.3104  -19.0169  -14.5557 C   0  0  0  0  0  0  0  0  0  0  0  0
   23.7074  -18.6997  -13.4197 O   0  0  0  0  0  0  0  0  0  0  0  0
   20.2055  -15.1117  -14.5666 C   0  0  0  0  0  0  0  0  0  0  0  0
   20.9921  -16.3264  -14.1421 C   0  0  0  0  0  0  0  0  0  0  0  0
   20.0985  -17.5593  -14.1118 C   0  0  2  0  0  0  0  0  0  0  0  0
   19.2346  -17.3795  -12.8515 C   0  0  0  0  0  0  0  0  0  0  0  0
   20.8746  -18.8401  -13.9224 C   0  0  2  0  0  0  0  0  0  0  0  0
   21.9430  -19.0574  -14.8631 N   0  0  0  0  0  0  0  0  0  0  0  0
   20.0256  -19.9903  -13.6676 C   0  0  0  0  0  0  0  0  0  0  0  0
   19.5881  -20.7858  -14.5276 O   0  0  0  0  0  0  0  0  0  0  0  0
   19.6439  -20.2589  -12.3397 O   0  0  0  0  0  0  0  0  0  0  0  0
  2  1  1  0
  3  2  1  0
  3  4  1  6
  5  6  2  0
  5  3  1  0
  7  5  1  0
  8  7  1  0
  9 10  1  0
  8  9  1  1
 10 11  1  0
 12 11  1  0
 13 12  1  0
 14 21  1  0
 14  8  1  0
 15 14  2  0
 17 16  1  0
 18 17  1  0
 18 19  1  1
 20 18  1  0
 20 21  1  6
 22 20  1  0
 23 22  2  0
 24 22  1  0
M  END
$$$$
