SKI.pdb
     RDKit          3D

 24 23  0  0  1  0  0  0  0  0999 V2000
   19.5983  -15.4870  -14.9404 O   0  0  0  0  0  0  0  0  0  0  0  0
   18.3501  -15.3594  -15.5118 C   0  0  0  0  0  0  0  0  0  0  0  0
   18.4142  -14.9185  -16.9576 C   0  0  2  0  0  0  0  0  0  0  0  0
   19.1582  -15.8874  -17.7371 N   0  0  0  0  0  0  0  0  0  0  0  0
   18.9611  -13.5529  -17.1145 C   0  0  0  0  0  0  0  0  0  0  0  0
   20.1848  -13.4337  -17.3548 O   0  0  0  0  0  0  0  0  0  0  0  0
   18.1250  -12.4144  -16.9964 N   0  0  0  0  0  0  0  0  0  0  0  0
   18.6194  -11.0596  -17.1290 C   0  0  1  0  0  0  0  0  0  0  0  0
   17.4289  -10.1285  -17.1999 C   0  0  0  0  0  0  0  0  0  0  0  0
   17.8692   -8.6980  -17.4525 C   0  0  0  0  0  0  0  0  0  0  0  0
   16.6959   -7.7670  -17.5727 C   0  0  0  0  0  0  0  0  0  0  0  0
   17.2761   -6.3719  -17.8356 C   0  0  0  0  0  0  0  0  0  0  0  0
   16.2143   -5.3826  -17.7669 N   0  0  0  0  0  0  0  0  0  0  0  0
   19.4788  -10.6603  -15.9703 C   0  0  0  0  0  0  0  0  0  0  0  0
   19.2013  -10.9742  -14.7985 O   0  0  0  0  0  0  0  0  0  0  0  0
   24.2790  -12.0364  -15.0280 C   0  0  0  0  0  0  0  0  0  0  0  0
   22.8784  -11.4785  -15.0676 C   0  0  0  0  0  0  0  0  0  0  0  0
   22.9084   -9.9703  -15.2771 C   0  0  2  0  0  0  0  0  0  0  0  0
   23.6158   -9.4204  -14.0265 C   0  0  0  0  0  0  0  0  0  0  0  0
   21.5303   -9.3548  -15.2977 C   0  0  2  0  0  0  0  0  0  0  0  0
   20.6234   -9.9079  -16.2699 N   0  0  0  0  0  0  0  0  0  0  0  0
   21.5509   -7.9049  -15.2194 C   0  0  0  0  0  0  0  0  0  0  0  0
   22.0103   -7.2262  -14.2748 O   0  0  0  0  0  0  0  0  0  0  0  0
   21.0110   -7.1694  -16.2912 O   0  0  0  0  0  0  0  0  0  0  0  0
  2  1  1  0
  3  2  1  0
  3  4  1  6
  5  6  2  0
  5  3  1  0
  7  5  1  0
  8  7  1  0
  9 10  1  0
  8  9  1  1
 10 11  1  0
 12 11  1  0
 13 12  1  0
 14 21  1  0
 14  8  1  0
 15 14  2  0
 17 16  1  0
 18 17  1  0
 18 19  1  1
 20 18  1  0
 20 21  1  6
 22 20  1  0
 23 22  2  0
 24 22  1  0
M  END
$$$$
