PNG.pdb
     RDKit          3D

 20 20  0  0  1  0  0  0  0  0999 V2000
   28.0303  -20.5360  -16.0560 N   0  0  0  0  0  0  0  0  0  0  0  0
   28.2704  -19.3104  -16.7931 C   0  0  0  0  0  0  0  0  0  0  0  0
   27.3539  -18.3547  -16.0167 C   0  0  0  0  0  0  0  0  0  0  0  0
   27.8344  -18.6836  -14.5961 C   0  0  0  0  0  0  0  0  0  0  0  0
   27.8972  -20.1787  -14.6560 C   0  0  1  0  0  0  0  0  0  0  0  0
   26.7528  -20.8478  -14.0199 C   0  0  0  0  0  0  0  0  0  0  0  0
   25.9909  -21.6366  -14.6484 O   0  0  0  0  0  0  0  0  0  0  0  0
   24.8694  -20.3370   -8.5792 N   0  0  0  0  0  0  0  0  0  0  0  0
   25.7515  -20.5110   -9.6836 C   0  0  0  0  0  0  0  0  0  0  0  0
   26.6059  -19.6189   -9.8485 O   0  0  0  0  0  0  0  0  0  0  0  0
   25.6805  -21.6594  -10.5863 C   0  0  0  0  0  0  0  0  0  0  0  0
   25.3317  -21.3362  -11.9993 C   0  0  2  0  0  0  0  0  0  0  0  0
   26.4510  -20.6374  -12.6570 N   0  0  0  0  0  0  0  0  0  0  0  0
   24.1196  -20.4977  -12.1627 C   0  0  0  0  0  0  0  0  0  0  0  0
   23.9811  -19.3417  -11.7090 O   0  0  0  0  0  0  0  0  0  0  0  0
   22.9672  -20.9823  -12.8895 N   0  0  0  0  0  0  0  0  0  0  0  0
   21.8077  -20.1315  -13.1008 C   0  0  0  0  0  0  0  0  0  0  0  0
   20.8209  -20.8240  -13.9312 C   0  0  0  0  0  0  0  0  0  0  0  0
   20.4538  -22.0025  -13.6581 O   0  0  0  0  0  0  0  0  0  0  0  0
   20.2775  -20.1917  -15.0293 O   0  0  0  0  0  0  0  0  0  0  0  0
  2  1  1  0
  3  2  1  0
  4  3  1  0
  4  5  1  0
  5  1  1  0
  6 13  1  0
  5  6  1  6
  7  6  2  0
  8  9  1  0
  9 10  2  0
 11  9  1  0
 12 11  1  1
 12 13  1  0
 12 14  1  0
 14 16  1  0
 15 14  2  0
 16 17  1  0
 18 17  1  0
 18 20  1  0
 19 18  2  0
M  END
$$$$
