PNG.pdb
     RDKit          3D

 20 20  0  0  1  0  0  0  0  0999 V2000
   24.7309  -11.1536  -16.4202 N   0  0  0  0  0  0  0  0  0  0  0  0
   25.2831  -12.3968  -15.9177 C   0  0  0  0  0  0  0  0  0  0  0  0
   23.9851  -13.1775  -15.6687 C   0  0  0  0  0  0  0  0  0  0  0  0
   23.3190  -12.9513  -17.0333 C   0  0  0  0  0  0  0  0  0  0  0  0
   23.5824  -11.4917  -17.2401 C   0  0  1  0  0  0  0  0  0  0  0  0
   22.4245  -10.6321  -16.9530 C   0  0  0  0  0  0  0  0  0  0  0  0
   21.3020  -10.7945  -17.5109 O   0  0  0  0  0  0  0  0  0  0  0  0
   18.8708   -7.4551  -14.9840 N   0  0  0  0  0  0  0  0  0  0  0  0
   19.0242   -8.8581  -14.7940 C   0  0  0  0  0  0  0  0  0  0  0  0
   18.0429   -9.4567  -14.3127 O   0  0  0  0  0  0  0  0  0  0  0  0
   20.2503   -9.5786  -15.1352 C   0  0  0  0  0  0  0  0  0  0  0  0
   21.3477   -8.7369  -15.6923 C   0  0  2  0  0  0  0  0  0  0  0  0
   22.5161   -9.5720  -16.0252 N   0  0  0  0  0  0  0  0  0  0  0  0
   21.8118   -7.6504  -14.7961 C   0  0  0  0  0  0  0  0  0  0  0  0
   22.3340   -7.8208  -13.6737 O   0  0  0  0  0  0  0  0  0  0  0  0
   21.6863   -6.2612  -15.1776 N   0  0  0  0  0  0  0  0  0  0  0  0
   22.1967   -5.2041  -14.3202 C   0  0  0  0  0  0  0  0  0  0  0  0
   21.8615   -3.8949  -14.8830 C   0  0  0  0  0  0  0  0  0  0  0  0
   21.2659   -3.7980  -15.9939 O   0  0  0  0  0  0  0  0  0  0  0  0
   22.1954   -2.7444  -14.2005 O   0  0  0  0  0  0  0  0  0  0  0  0
  2  1  1  0
  3  2  1  0
  4  3  1  0
  4  5  1  0
  5  1  1  0
  6 13  1  0
  5  6  1  1
  7  6  2  0
  8  9  1  0
  9 10  2  0
 11  9  1  0
 12 11  1  1
 12 13  1  0
 12 14  1  0
 14 16  1  0
 15 14  2  0
 16 17  1  0
 18 17  1  0
 18 20  1  0
 19 18  2  0
M  END
$$$$
