PNG.pdb
     RDKit          3D

 20 20  0  0  1  0  0  0  0  0999 V2000
   26.8613  -20.2715  -15.5855 N   0  0  0  0  0  0  0  0  0  0  0  0
   27.5467  -19.1789  -16.2485 C   0  0  0  0  0  0  0  0  0  0  0  0
   28.2273  -18.5246  -15.0382 C   0  0  0  0  0  0  0  0  0  0  0  0
   28.8688  -19.7809  -14.4321 C   0  0  0  0  0  0  0  0  0  0  0  0
   27.7369  -20.7561  -14.5349 C   0  0  1  0  0  0  0  0  0  0  0  0
   27.0189  -20.9691  -13.2696 C   0  0  0  0  0  0  0  0  0  0  0  0
   27.5894  -21.4037  -12.2287 O   0  0  0  0  0  0  0  0  0  0  0  0
   24.9240  -21.6610   -9.1270 N   0  0  0  0  0  0  0  0  0  0  0  0
   25.5599  -20.4341   -9.4712 C   0  0  0  0  0  0  0  0  0  0  0  0
   26.0547  -19.7893   -8.5266 O   0  0  0  0  0  0  0  0  0  0  0  0
   25.6416  -19.9373  -10.8443 C   0  0  0  0  0  0  0  0  0  0  0  0
   24.9396  -20.7688  -11.8635 C   0  0  2  0  0  0  0  0  0  0  0  0
   25.6392  -20.6913  -13.1589 N   0  0  0  0  0  0  0  0  0  0  0  0
   23.5220  -20.4001  -12.0950 C   0  0  0  0  0  0  0  0  0  0  0  0
   23.1307  -19.5230  -12.8944 O   0  0  0  0  0  0  0  0  0  0  0  0
   22.4514  -21.0596  -11.3809 N   0  0  0  0  0  0  0  0  0  0  0  0
   21.5780  -22.0059  -12.0554 C   0  0  0  0  0  0  0  0  0  0  0  0
   20.7988  -21.3220  -13.0889 C   0  0  0  0  0  0  0  0  0  0  0  0
   19.8472  -20.5490  -12.7807 O   0  0  0  0  0  0  0  0  0  0  0  0
   21.0983  -21.5162  -14.4207 O   0  0  0  0  0  0  0  0  0  0  0  0
  2  1  1  0
  3  2  1  0
  4  3  1  0
  4  5  1  0
  5  1  1  0
  6 13  1  0
  5  6  1  1
  7  6  2  0
  8  9  1  0
  9 10  2  0
 11  9  1  0
 12 11  1  1
 12 13  1  0
 12 14  1  0
 14 16  1  0
 15 14  2  0
 16 17  1  0
 18 17  1  0
 18 20  1  0
 19 18  2  0
M  END
$$$$
