PNG.pdb
     RDKit          3D

 20 20  0  0  1  0  0  0  0  0999 V2000
   28.7899  -21.2362  -16.6104 N   0  0  0  0  0  0  0  0  0  0  0  0
   28.9602  -20.5678  -17.8861 C   0  0  0  0  0  0  0  0  0  0  0  0
   27.7752  -19.5937  -17.8309 C   0  0  0  0  0  0  0  0  0  0  0  0
   28.0342  -19.0000  -16.4390 C   0  0  0  0  0  0  0  0  0  0  0  0
   28.3470  -20.2373  -15.6555 C   0  0  1  0  0  0  0  0  0  0  0  0
   27.2287  -20.7173  -14.8304 C   0  0  0  0  0  0  0  0  0  0  0  0
   26.5498  -21.7396  -15.1334 O   0  0  0  0  0  0  0  0  0  0  0  0
   25.1964  -21.6963   -9.5152 N   0  0  0  0  0  0  0  0  0  0  0  0
   24.9804  -20.6221  -10.4248 C   0  0  0  0  0  0  0  0  0  0  0  0
   23.8591  -20.0804  -10.3770 O   0  0  0  0  0  0  0  0  0  0  0  0
   25.9974  -20.1619  -11.3696 C   0  0  0  0  0  0  0  0  0  0  0  0
   25.7607  -20.5405  -12.7922 C   0  0  2  0  0  0  0  0  0  0  0  0
   26.8591  -20.0482  -13.6435 N   0  0  0  0  0  0  0  0  0  0  0  0
   24.4882  -20.0379  -13.3642 C   0  0  0  0  0  0  0  0  0  0  0  0
   24.2912  -18.8680  -13.7565 O   0  0  0  0  0  0  0  0  0  0  0  0
   23.3409  -20.9054  -13.5131 N   0  0  0  0  0  0  0  0  0  0  0  0
   22.1179  -20.4233  -14.1337 C   0  0  0  0  0  0  0  0  0  0  0  0
   21.0010  -20.5316  -13.1936 C   0  0  0  0  0  0  0  0  0  0  0  0
   21.1634  -21.0376  -12.0466 O   0  0  0  0  0  0  0  0  0  0  0  0
   19.7496  -20.0785  -13.5537 O   0  0  0  0  0  0  0  0  0  0  0  0
  2  1  1  0
  3  2  1  0
  4  3  1  0
  4  5  1  0
  5  1  1  0
  6 13  1  0
  5  6  1  6
  7  6  2  0
  8  9  1  0
  9 10  2  0
 11  9  1  0
 12 11  1  1
 12 13  1  0
 12 14  1  0
 14 16  1  0
 15 14  2  0
 16 17  1  0
 18 17  1  0
 18 20  1  0
 19 18  2  0
M  END
$$$$
