PNG.pdb
     RDKit          3D

 20 20  0  0  1  0  0  0  0  0999 V2000
   26.4276  -19.2232  -15.5403 N   0  0  0  0  0  0  0  0  0  0  0  0
   27.5901  -18.3643  -15.6588 C   0  0  0  0  0  0  0  0  0  0  0  0
   28.4777  -18.9735  -14.5647 C   0  0  0  0  0  0  0  0  0  0  0  0
   28.3754  -20.4469  -14.9839 C   0  0  0  0  0  0  0  0  0  0  0  0
   26.9079  -20.5632  -15.2591 C   0  0  1  0  0  0  0  0  0  0  0  0
   26.1493  -21.2079  -14.1770 C   0  0  0  0  0  0  0  0  0  0  0  0
   26.4830  -22.3226  -13.6832 O   0  0  0  0  0  0  0  0  0  0  0  0
   26.4150  -21.7527  -10.7431 N   0  0  0  0  0  0  0  0  0  0  0  0
   25.5121  -20.6805  -10.4920 C   0  0  0  0  0  0  0  0  0  0  0  0
   25.7942  -19.9400   -9.5302 O   0  0  0  0  0  0  0  0  0  0  0  0
   24.3170  -20.4400  -11.3000 C   0  0  0  0  0  0  0  0  0  0  0  0
   24.2252  -21.2426  -12.5531 C   0  0  2  0  0  0  0  0  0  0  0  0
   24.9979  -20.5998  -13.6317 N   0  0  0  0  0  0  0  0  0  0  0  0
   22.8456  -21.4556  -13.0535 C   0  0  0  0  0  0  0  0  0  0  0  0
   21.9318  -22.0226  -12.4171 O   0  0  0  0  0  0  0  0  0  0  0  0
   22.4481  -21.0017  -14.3676 N   0  0  0  0  0  0  0  0  0  0  0  0
   21.1130  -21.2698  -14.8763 C   0  0  0  0  0  0  0  0  0  0  0  0
   20.2007  -20.1941  -14.4843 C   0  0  0  0  0  0  0  0  0  0  0  0
   20.6149  -19.1984  -13.8248 O   0  0  0  0  0  0  0  0  0  0  0  0
   18.8685  -20.2575  -14.8340 O   0  0  0  0  0  0  0  0  0  0  0  0
  2  1  1  0
  3  2  1  0
  4  3  1  0
  4  5  1  0
  5  1  1  0
  6 13  1  0
  5  6  1  1
  7  6  2  0
  8  9  1  0
  9 10  2  0
 11  9  1  0
 12 11  1  1
 12 13  1  0
 12 14  1  0
 14 16  1  0
 15 14  2  0
 16 17  1  0
 18 17  1  0
 18 20  1  0
 19 18  2  0
M  END
$$$$
