PNG.pdb
     RDKit          3D

 20 20  0  0  1  0  0  0  0  0999 V2000
   20.9108  -11.5657  -15.5439 N   0  0  0  0  0  0  0  0  0  0  0  0
   20.4669  -12.7827  -16.1956 C   0  0  0  0  0  0  0  0  0  0  0  0
   19.9550  -12.1985  -17.5195 C   0  0  0  0  0  0  0  0  0  0  0  0
   21.1841  -11.3544  -17.8853 C   0  0  0  0  0  0  0  0  0  0  0  0
   21.4943  -10.7169  -16.5661 C   0  0  1  0  0  0  0  0  0  0  0  0
   21.0369   -9.3238  -16.4567 C   0  0  0  0  0  0  0  0  0  0  0  0
   21.3472   -8.4378  -17.3032 O   0  0  0  0  0  0  0  0  0  0  0  0
   17.9175   -8.1996  -17.4295 N   0  0  0  0  0  0  0  0  0  0  0  0
   17.4047   -7.9096  -16.1330 C   0  0  0  0  0  0  0  0  0  0  0  0
   16.1699   -8.0089  -15.9970 O   0  0  0  0  0  0  0  0  0  0  0  0
   18.2549   -7.5162  -15.0100 C   0  0  0  0  0  0  0  0  0  0  0  0
   19.7195   -7.5234  -15.2890 C   0  0  2  0  0  0  0  0  0  0  0  0
   20.2164   -8.9080  -15.3858 N   0  0  0  0  0  0  0  0  0  0  0  0
   20.5465   -6.8181  -14.2802 C   0  0  0  0  0  0  0  0  0  0  0  0
   20.9411   -7.3140  -13.2032 O   0  0  0  0  0  0  0  0  0  0  0  0
   20.9703   -5.4507  -14.4840 N   0  0  0  0  0  0  0  0  0  0  0  0
   21.8439   -4.7909  -13.5276 C   0  0  0  0  0  0  0  0  0  0  0  0
   22.2642   -3.4883  -14.0466 C   0  0  0  0  0  0  0  0  0  0  0  0
   21.9324   -3.1130  -15.2072 O   0  0  0  0  0  0  0  0  0  0  0  0
   23.0333   -2.6504  -13.2670 O   0  0  0  0  0  0  0  0  0  0  0  0
  2  1  1  0
  3  2  1  0
  4  3  1  0
  4  5  1  0
  5  1  1  0
  6 13  1  0
  5  6  1  6
  7  6  2  0
  8  9  1  0
  9 10  2  0
 11  9  1  0
 12 11  1  1
 12 13  1  0
 12 14  1  0
 14 16  1  0
 15 14  2  0
 16 17  1  0
 18 17  1  0
 18 20  1  0
 19 18  2  0
M  END
$$$$
