PNG.pdb
     RDKit          3D

 20 20  0  0  1  0  0  0  0  0999 V2000
   26.3554  -18.7690  -15.0839 N   0  0  0  0  0  0  0  0  0  0  0  0
   27.5299  -17.9257  -14.9728 C   0  0  0  0  0  0  0  0  0  0  0  0
   28.3988  -18.8063  -14.0641 C   0  0  0  0  0  0  0  0  0  0  0  0
   28.2817  -20.1230  -14.8447 C   0  0  0  0  0  0  0  0  0  0  0  0
   26.8156  -20.1436  -15.1496 C   0  0  1  0  0  0  0  0  0  0  0  0
   26.0381  -21.0306  -14.2718 C   0  0  0  0  0  0  0  0  0  0  0  0
   26.2876  -22.2646  -14.1588 O   0  0  0  0  0  0  0  0  0  0  0  0
   26.0559  -19.8425   -9.8932 N   0  0  0  0  0  0  0  0  0  0  0  0
   25.6212  -20.9207  -10.7158 C   0  0  0  0  0  0  0  0  0  0  0  0
   26.4780  -21.7843  -10.9856 O   0  0  0  0  0  0  0  0  0  0  0  0
   24.2554  -21.0319  -11.2270 C   0  0  0  0  0  0  0  0  0  0  0  0
   24.1438  -21.4259  -12.6606 C   0  0  2  0  0  0  0  0  0  0  0  0
   24.9630  -20.5352  -13.5026 N   0  0  0  0  0  0  0  0  0  0  0  0
   22.7632  -21.4125  -13.2017 C   0  0  0  0  0  0  0  0  0  0  0  0
   21.7694  -21.9242  -12.6434 O   0  0  0  0  0  0  0  0  0  0  0  0
   22.4615  -20.7787  -14.4660 N   0  0  0  0  0  0  0  0  0  0  0  0
   21.1359  -20.8817  -15.0535 C   0  0  0  0  0  0  0  0  0  0  0  0
   20.2679  -19.8292  -14.5226 C   0  0  0  0  0  0  0  0  0  0  0  0
   20.6954  -19.0053  -13.6644 O   0  0  0  0  0  0  0  0  0  0  0  0
   18.9636  -19.7257  -14.9576 O   0  0  0  0  0  0  0  0  0  0  0  0
  2  1  1  0
  3  2  1  0
  4  3  1  0
  4  5  1  0
  5  1  1  0
  6 13  1  0
  5  6  1  1
  7  6  2  0
  8  9  1  0
  9 10  2  0
 11  9  1  0
 12 11  1  1
 12 13  1  0
 12 14  1  0
 14 16  1  0
 15 14  2  0
 16 17  1  0
 18 17  1  0
 18 20  1  0
 19 18  2  0
M  END
$$$$
