PNG.pdb
     RDKit          3D

 20 20  0  0  1  0  0  0  0  0999 V2000
   22.2617  -10.1226  -16.9770 N   0  0  0  0  0  0  0  0  0  0  0  0
   22.5860  -11.4645  -17.4209 C   0  0  0  0  0  0  0  0  0  0  0  0
   21.1715  -12.0467  -17.5482 C   0  0  0  0  0  0  0  0  0  0  0  0
   20.5400  -10.9270  -18.3876 C   0  0  0  0  0  0  0  0  0  0  0  0
   21.0607   -9.7135  -17.6810 C   0  0  1  0  0  0  0  0  0  0  0  0
   20.0813   -9.0814  -16.7848 C   0  0  0  0  0  0  0  0  0  0  0  0
   18.9587   -8.6648  -17.1897 O   0  0  0  0  0  0  0  0  0  0  0  0
   16.8746   -9.4550  -15.1176 N   0  0  0  0  0  0  0  0  0  0  0  0
   17.5677   -9.8008  -13.9225 C   0  0  0  0  0  0  0  0  0  0  0  0
   17.0328  -10.6735  -13.2116 O   0  0  0  0  0  0  0  0  0  0  0  0
   18.8339   -9.1837  -13.5293 C   0  0  0  0  0  0  0  0  0  0  0  0
   19.4060   -8.2233  -14.5159 C   0  0  2  0  0  0  0  0  0  0  0  0
   20.3548   -8.9111  -15.4104 N   0  0  0  0  0  0  0  0  0  0  0  0
   20.1117   -7.0650  -13.9163 C   0  0  0  0  0  0  0  0  0  0  0  0
   19.6252   -6.2924  -13.0632 O   0  0  0  0  0  0  0  0  0  0  0  0
   21.4686   -6.7383  -14.2946 N   0  0  0  0  0  0  0  0  0  0  0  0
   22.1756   -5.6394  -13.6577 C   0  0  0  0  0  0  0  0  0  0  0  0
   21.9057   -4.3888  -14.3692 C   0  0  0  0  0  0  0  0  0  0  0  0
   21.1282   -4.3624  -15.3656 O   0  0  0  0  0  0  0  0  0  0  0  0
   22.5028   -3.2169  -13.9555 O   0  0  0  0  0  0  0  0  0  0  0  0
  2  1  1  0
  3  2  1  0
  4  3  1  0
  4  5  1  0
  5  1  1  0
  6 13  1  0
  5  6  1  1
  7  6  2  0
  8  9  1  0
  9 10  2  0
 11  9  1  0
 12 11  1  1
 12 13  1  0
 12 14  1  0
 14 16  1  0
 15 14  2  0
 16 17  1  0
 18 17  1  0
 18 20  1  0
 19 18  2  0
M  END
$$$$
