VMV.pdb
     RDKit          3D

 23 22  0  0  1  0  0  0  0  0999 V2000
   10.7866  -18.6490   21.6884 C   0  0  0  0  0  0  0  0  0  0  0  0
    9.4670  -18.0970   21.2642 C   0  0  2  0  0  0  0  0  0  0  0  0
    9.0593  -18.6727   19.9053 C   0  0  0  0  0  0  0  0  0  0  0  0
    9.4680  -16.5919   21.1036 C   0  0  2  0  0  0  0  0  0  0  0  0
   10.5116  -16.1587   20.1999 N   0  0  0  0  0  0  0  0  0  0  0  0
    9.6174  -15.8710   22.3750 C   0  0  0  0  0  0  0  0  0  0  0  0
   10.7345  -15.4266   22.7578 O   0  0  0  0  0  0  0  0  0  0  0  0
    5.1282  -11.5783   25.1694 C   0  0  0  0  0  0  0  0  0  0  0  0
    5.4820  -12.9520   26.3047 S   0  0  0  0  0  0  0  0  0  0  0  0
    7.1448  -13.6091   26.0473 C   0  0  0  0  0  0  0  0  0  0  0  0
    7.1272  -14.4857   24.7986 C   0  0  0  0  0  0  0  0  0  0  0  0
    8.5626  -14.8747   24.4374 C   0  0  2  0  0  0  0  0  0  0  0  0
    8.5049  -15.6441   23.2288 N   0  0  0  0  0  0  0  0  0  0  0  0
    9.1861  -15.6728   25.5090 C   0  0  0  0  0  0  0  0  0  0  0  0
    9.1867  -16.9344   25.4443 O   0  0  0  0  0  0  0  0  0  0  0  0
   11.9686  -13.9729   28.2547 C   0  0  0  0  0  0  0  0  0  0  0  0
   11.1402  -15.1464   28.7123 C   0  0  1  0  0  0  0  0  0  0  0  0
    9.9973  -14.6452   29.5643 C   0  0  0  0  0  0  0  0  0  0  0  0
   10.5653  -15.9347   27.5792 C   0  0  2  0  0  0  0  0  0  0  0  0
    9.8092  -15.0974   26.6510 N   0  0  0  0  0  0  0  0  0  0  0  0
    9.6699  -16.9820   28.0934 C   0  0  0  0  0  0  0  0  0  0  0  0
    8.4210  -16.8851   27.9963 O   0  0  0  0  0  0  0  0  0  0  0  0
   10.1666  -18.1208   28.7074 O   0  0  0  0  0  0  0  0  0  0  0  0
  2  1  1  6
  2  3  1  0
  4  2  1  0
  4  6  1  0
  4  5  1  6
  6  7  2  0
  8  9  1  0
 10  9  1  0
 11 10  1  0
 12 11  1  1
 13  6  1  0
 13 12  1  0
 14 12  1  0
 14 20  1  0
 15 14  2  0
 17 16  1  6
 18 17  1  0
 19 21  1  0
 19 20  1  6
 19 17  1  0
 21 23  1  0
 22 21  2  0
M  END
$$$$
