VMV.pdb
     RDKit          3D

 23 22  0  0  1  0  0  0  0  0999 V2000
    8.0798  -18.1079   18.8598 C   0  0  0  0  0  0  0  0  0  0  0  0
    8.6196  -17.6525   20.1740 C   0  0  2  0  0  0  0  0  0  0  0  0
    7.9697  -18.4350   21.3183 C   0  0  0  0  0  0  0  0  0  0  0  0
    8.3562  -16.1893   20.4581 C   0  0  2  0  0  0  0  0  0  0  0  0
    8.8953  -15.3441   19.4149 N   0  0  0  0  0  0  0  0  0  0  0  0
    8.8926  -15.7416   21.7507 C   0  0  0  0  0  0  0  0  0  0  0  0
   10.1334  -15.7028   21.9757 O   0  0  0  0  0  0  0  0  0  0  0  0
    6.8343  -10.8944   26.3456 C   0  0  0  0  0  0  0  0  0  0  0  0
    6.5166  -12.6150   26.8350 S   0  0  0  0  0  0  0  0  0  0  0  0
    7.7681  -13.7330   26.1663 C   0  0  0  0  0  0  0  0  0  0  0  0
    7.3589  -14.1193   24.7482 C   0  0  0  0  0  0  0  0  0  0  0  0
    8.4860  -14.9287   24.1027 C   0  0  2  0  0  0  0  0  0  0  0  0
    8.0318  -15.3324   22.8041 N   0  0  0  0  0  0  0  0  0  0  0  0
    8.8193  -16.1179   24.9081 C   0  0  0  0  0  0  0  0  0  0  0  0
    7.9718  -17.0425   25.0581 O   0  0  0  0  0  0  0  0  0  0  0  0
   12.1504  -19.3478   26.4810 C   0  0  0  0  0  0  0  0  0  0  0  0
   11.7538  -18.0773   25.7731 C   0  0  1  0  0  0  0  0  0  0  0  0
   11.7360  -18.3243   24.2825 C   0  0  0  0  0  0  0  0  0  0  0  0
   10.4040  -17.5780   26.1784 C   0  0  2  0  0  0  0  0  0  0  0  0
   10.0756  -16.3007   25.5501 N   0  0  0  0  0  0  0  0  0  0  0  0
   10.3448  -17.4054   27.6378 C   0  0  0  0  0  0  0  0  0  0  0  0
   10.5530  -16.2898   28.1769 O   0  0  0  0  0  0  0  0  0  0  0  0
   10.0566  -18.4672   28.4805 O   0  0  0  0  0  0  0  0  0  0  0  0
  2  1  1  6
  2  3  1  0
  4  2  1  0
  4  6  1  0
  4  5  1  6
  6  7  2  0
  8  9  1  0
 10  9  1  0
 11 10  1  0
 12 11  1  1
 13  6  1  0
 13 12  1  0
 14 12  1  0
 14 20  1  0
 15 14  2  0
 17 16  1  1
 18 17  1  0
 19 21  1  0
 19 20  1  6
 19 17  1  0
 21 23  1  0
 22 21  2  0
M  END
$$$$
