VMV.pdb
     RDKit          3D

 23 22  0  0  1  0  0  0  0  0999 V2000
    7.2055  -15.3402   18.2811 C   0  0  0  0  0  0  0  0  0  0  0  0
    7.8810  -15.2412   19.6077 C   0  0  2  0  0  0  0  0  0  0  0  0
    7.5134  -16.4410   20.4850 C   0  0  0  0  0  0  0  0  0  0  0  0
    7.4889  -14.0073   20.3918 C   0  0  2  0  0  0  0  0  0  0  0  0
    7.7806  -12.7981   19.6528 N   0  0  0  0  0  0  0  0  0  0  0  0
    8.1380  -13.9229   21.7072 C   0  0  0  0  0  0  0  0  0  0  0  0
    9.3662  -13.6592   21.8247 O   0  0  0  0  0  0  0  0  0  0  0  0
    7.5665  -11.3423   27.7334 C   0  0  0  0  0  0  0  0  0  0  0  0
    6.1241  -11.7148   26.6932 S   0  0  0  0  0  0  0  0  0  0  0  0
    6.6224  -12.3561   25.0796 C   0  0  0  0  0  0  0  0  0  0  0  0
    6.9343  -13.8421   25.2285 C   0  0  0  0  0  0  0  0  0  0  0  0
    8.0021  -14.2365   24.2055 C   0  0  2  0  0  0  0  0  0  0  0  0
    7.4055  -14.1359   22.9056 N   0  0  0  0  0  0  0  0  0  0  0  0
    8.4772  -15.6137   24.4325 C   0  0  0  0  0  0  0  0  0  0  0  0
    7.7055  -16.5938   24.2336 O   0  0  0  0  0  0  0  0  0  0  0  0
   12.6285  -16.5616   24.6290 C   0  0  0  0  0  0  0  0  0  0  0  0
   11.5392  -17.4939   24.1630 C   0  0  1  0  0  0  0  0  0  0  0  0
   11.9928  -18.9224   24.3548 C   0  0  0  0  0  0  0  0  0  0  0  0
   10.2540  -17.3099   24.9046 C   0  0  2  0  0  0  0  0  0  0  0  0
    9.7929  -15.9240   24.8759 N   0  0  0  0  0  0  0  0  0  0  0  0
   10.4169  -17.7152   26.3090 C   0  0  0  0  0  0  0  0  0  0  0  0
   10.6888  -18.9007   26.6238 O   0  0  0  0  0  0  0  0  0  0  0  0
   10.2770  -16.8055   27.3451 O   0  0  0  0  0  0  0  0  0  0  0  0
  2  1  1  6
  2  3  1  0
  4  2  1  0
  4  6  1  0
  4  5  1  6
  6  7  2  0
  8  9  1  0
 10  9  1  0
 11 10  1  0
 12 11  1  1
 13  6  1  0
 13 12  1  0
 14 12  1  0
 14 20  1  0
 15 14  2  0
 17 16  1  1
 18 17  1  0
 19 21  1  0
 19 20  1  1
 19 17  1  0
 21 23  1  0
 22 21  2  0
M  END
$$$$
