VMV.pdb
     RDKit          3D

 23 22  0  0  1  0  0  0  0  0999 V2000
    7.4469  -12.9056   20.2702 C   0  0  0  0  0  0  0  0  0  0  0  0
    8.7016  -13.6348   19.9241 C   0  0  2  0  0  0  0  0  0  0  0  0
    8.5865  -14.2655   18.5337 C   0  0  0  0  0  0  0  0  0  0  0  0
    9.0224  -14.7661   20.8771 C   0  0  2  0  0  0  0  0  0  0  0  0
    8.0742  -15.8510   20.7460 N   0  0  0  0  0  0  0  0  0  0  0  0
    9.0660  -14.3468   22.2846 C   0  0  0  0  0  0  0  0  0  0  0  0
    9.8594  -13.4513   22.6852 O   0  0  0  0  0  0  0  0  0  0  0  0
    6.4068  -11.0182   26.2527 C   0  0  0  0  0  0  0  0  0  0  0  0
    5.5567  -12.6235   26.2913 S   0  0  0  0  0  0  0  0  0  0  0  0
    5.8345  -13.5540   24.7681 C   0  0  0  0  0  0  0  0  0  0  0  0
    6.7005  -14.7664   25.0968 C   0  0  0  0  0  0  0  0  0  0  0  0
    8.1316  -14.5055   24.6213 C   0  0  2  0  0  0  0  0  0  0  0  0
    8.2126  -14.9354   23.2559 N   0  0  0  0  0  0  0  0  0  0  0  0
    9.1099  -15.2471   25.4380 C   0  0  0  0  0  0  0  0  0  0  0  0
    9.7264  -16.2358   24.9501 O   0  0  0  0  0  0  0  0  0  0  0  0
   11.7353  -15.8509   29.6469 C   0  0  0  0  0  0  0  0  0  0  0  0
   10.6163  -15.1565   28.9132 C   0  0  1  0  0  0  0  0  0  0  0  0
   10.9373  -13.6846   28.7965 C   0  0  0  0  0  0  0  0  0  0  0  0
   10.3958  -15.6956   27.5360 C   0  0  2  0  0  0  0  0  0  0  0  0
    9.4172  -14.9121   26.7859 N   0  0  0  0  0  0  0  0  0  0  0  0
    9.9210  -17.0858   27.6061 C   0  0  0  0  0  0  0  0  0  0  0  0
    8.7079  -17.3578   27.7874 O   0  0  0  0  0  0  0  0  0  0  0  0
   10.7927  -18.1552   27.4750 O   0  0  0  0  0  0  0  0  0  0  0  0
  2  1  1  1
  2  3  1  0
  4  2  1  0
  4  6  1  0
  4  5  1  1
  6  7  2  0
  8  9  1  0
 10  9  1  0
 11 10  1  0
 12 11  1  1
 13  6  1  0
 13 12  1  0
 14 12  1  0
 14 20  1  0
 15 14  2  0
 17 16  1  6
 18 17  1  0
 19 21  1  0
 19 20  1  1
 19 17  1  0
 21 23  1  0
 22 21  2  0
M  END
$$$$
