VMV.pdb
     RDKit          3D

 23 22  0  0  1  0  0  0  0  0999 V2000
    7.8206  -18.0323   20.2185 C   0  0  0  0  0  0  0  0  0  0  0  0
    6.8144  -16.9397   20.0782 C   0  0  2  0  0  0  0  0  0  0  0  0
    6.0468  -17.0864   18.7616 C   0  0  0  0  0  0  0  0  0  0  0  0
    7.4276  -15.5560   20.0591 C   0  0  2  0  0  0  0  0  0  0  0  0
    8.3350  -15.3966   18.9435 N   0  0  0  0  0  0  0  0  0  0  0  0
    8.1415  -15.2185   21.2982 C   0  0  0  0  0  0  0  0  0  0  0  0
    9.3966  -15.3114   21.3864 O   0  0  0  0  0  0  0  0  0  0  0  0
    6.4965  -10.7589   26.6506 C   0  0  0  0  0  0  0  0  0  0  0  0
    6.4159  -12.5540   26.9196 S   0  0  0  0  0  0  0  0  0  0  0  0
    7.6493  -13.4257   25.9286 C   0  0  0  0  0  0  0  0  0  0  0  0
    7.0223  -13.7793   24.5833 C   0  0  0  0  0  0  0  0  0  0  0  0
    8.0750  -14.4524   23.6996 C   0  0  2  0  0  0  0  0  0  0  0  0
    7.4440  -14.7720   22.4524 N   0  0  0  0  0  0  0  0  0  0  0  0
    8.5933  -15.6817   24.3274 C   0  0  0  0  0  0  0  0  0  0  0  0
    7.8500  -16.6959   24.4491 O   0  0  0  0  0  0  0  0  0  0  0  0
   12.4309  -18.6283   25.2726 C   0  0  0  0  0  0  0  0  0  0  0  0
   11.8594  -17.3121   24.8103 C   0  0  1  0  0  0  0  0  0  0  0  0
   11.9217  -17.2462   23.3020 C   0  0  0  0  0  0  0  0  0  0  0  0
   10.4373  -17.1126   25.2267 C   0  0  2  0  0  0  0  0  0  0  0  0
    9.9210  -15.8071   24.8225 N   0  0  0  0  0  0  0  0  0  0  0  0
   10.3166  -17.2265   26.6880 C   0  0  0  0  0  0  0  0  0  0  0  0
   10.3737  -16.2165   27.4332 O   0  0  0  0  0  0  0  0  0  0  0  0
   10.1346  -18.4540   27.3053 O   0  0  0  0  0  0  0  0  0  0  0  0
  2  1  1  6
  2  3  1  0
  4  2  1  0
  4  6  1  0
  4  5  1  6
  6  7  2  0
  8  9  1  0
 10  9  1  0
 11 10  1  0
 12 11  1  1
 13  6  1  0
 13 12  1  0
 14 12  1  0
 14 20  1  0
 15 14  2  0
 17 16  1  6
 18 17  1  0
 19 21  1  0
 19 20  1  1
 19 17  1  0
 21 23  1  0
 22 21  2  0
M  END
$$$$
