VMV.pdb
     RDKit          3D

 23 22  0  0  1  0  0  0  0  0999 V2000
    6.5425  -17.4981   21.3170 C   0  0  0  0  0  0  0  0  0  0  0  0
    7.5062  -17.1222   20.2418 C   0  0  2  0  0  0  0  0  0  0  0  0
    8.7651  -17.9897   20.3258 C   0  0  0  0  0  0  0  0  0  0  0  0
    7.9751  -15.6857   20.3294 C   0  0  2  0  0  0  0  0  0  0  0  0
    8.8405  -15.3450   19.2212 N   0  0  0  0  0  0  0  0  0  0  0  0
    8.6740  -15.3771   21.5844 C   0  0  0  0  0  0  0  0  0  0  0  0
    9.9193  -15.5384   21.7066 O   0  0  0  0  0  0  0  0  0  0  0  0
    5.5078  -12.3142   26.6304 C   0  0  0  0  0  0  0  0  0  0  0  0
    7.2832  -12.0002   26.8553 S   0  0  0  0  0  0  0  0  0  0  0  0
    8.2845  -13.2866   26.0771 C   0  0  0  0  0  0  0  0  0  0  0  0
    7.6710  -13.6180   24.7200 C   0  0  0  0  0  0  0  0  0  0  0  0
    8.5854  -14.5976   23.9808 C   0  0  2  0  0  0  0  0  0  0  0  0
    7.9725  -14.8821   22.7162 N   0  0  0  0  0  0  0  0  0  0  0  0
    8.7594  -15.8468   24.7446 C   0  0  0  0  0  0  0  0  0  0  0  0
    7.7759  -16.6152   24.9399 O   0  0  0  0  0  0  0  0  0  0  0  0
   11.0693  -18.7061   23.9459 C   0  0  0  0  0  0  0  0  0  0  0  0
   11.2457  -18.3737   25.4058 C   0  0  1  0  0  0  0  0  0  0  0  0
   12.5287  -17.5963   25.5864 C   0  0  0  0  0  0  0  0  0  0  0  0
   10.1235  -17.5554   25.9597 C   0  0  2  0  0  0  0  0  0  0  0  0
   10.0042  -16.2596   25.2956 N   0  0  0  0  0  0  0  0  0  0  0  0
   10.3281  -17.3223   27.3973 C   0  0  0  0  0  0  0  0  0  0  0  0
   10.5292  -16.1693   27.8543 O   0  0  0  0  0  0  0  0  0  0  0  0
   10.3076  -18.3656   28.3093 O   0  0  0  0  0  0  0  0  0  0  0  0
  2  1  1  1
  2  3  1  0
  4  2  1  0
  4  6  1  0
  4  5  1  6
  6  7  2  0
  8  9  1  0
 10  9  1  0
 11 10  1  0
 12 11  1  1
 13  6  1  0
 13 12  1  0
 14 12  1  0
 14 20  1  0
 15 14  2  0
 17 16  1  6
 18 17  1  0
 19 21  1  0
 19 20  1  6
 19 17  1  0
 21 23  1  0
 22 21  2  0
M  END
$$$$
