VMV.pdb
     RDKit          3D

 23 22  0  0  1  0  0  0  0  0999 V2000
    8.4560  -18.5579   20.4758 C   0  0  0  0  0  0  0  0  0  0  0  0
    7.4751  -17.4645   20.7374 C   0  0  2  0  0  0  0  0  0  0  0  0
    6.3119  -17.5420   19.7449 C   0  0  0  0  0  0  0  0  0  0  0  0
    8.0657  -16.0786   20.5905 C   0  0  2  0  0  0  0  0  0  0  0  0
    8.9867  -16.0132   19.4766 N   0  0  0  0  0  0  0  0  0  0  0  0
    8.7555  -15.6087   21.7996 C   0  0  0  0  0  0  0  0  0  0  0  0
   10.0129  -15.6381   21.8991 O   0  0  0  0  0  0  0  0  0  0  0  0
    5.3438  -12.4763   26.3953 C   0  0  0  0  0  0  0  0  0  0  0  0
    7.0445  -12.1602   26.9509 S   0  0  0  0  0  0  0  0  0  0  0  0
    8.2144  -13.2961   26.1736 C   0  0  0  0  0  0  0  0  0  0  0  0
    7.6395  -13.7327   24.8295 C   0  0  0  0  0  0  0  0  0  0  0  0
    8.6382  -14.6597   24.1329 C   0  0  2  0  0  0  0  0  0  0  0  0
    8.0312  -15.0999   22.9107 N   0  0  0  0  0  0  0  0  0  0  0  0
    8.9653  -15.8240   24.9765 C   0  0  0  0  0  0  0  0  0  0  0  0
    8.1093  -16.7338   25.1645 O   0  0  0  0  0  0  0  0  0  0  0  0
   12.2986  -19.0209   26.6221 C   0  0  0  0  0  0  0  0  0  0  0  0
   11.8990  -17.7727   25.8771 C   0  0  1  0  0  0  0  0  0  0  0  0
   11.8765  -18.0650   24.3948 C   0  0  0  0  0  0  0  0  0  0  0  0
   10.5503  -17.2618   26.2715 C   0  0  2  0  0  0  0  0  0  0  0  0
   10.2244  -15.9979   25.6152 N   0  0  0  0  0  0  0  0  0  0  0  0
   10.4917  -17.0569   27.7267 C   0  0  0  0  0  0  0  0  0  0  0  0
   10.5381  -15.9072   28.2312 O   0  0  0  0  0  0  0  0  0  0  0  0
   10.3828  -18.1246   28.6036 O   0  0  0  0  0  0  0  0  0  0  0  0
  2  1  1  6
  2  3  1  0
  4  2  1  0
  4  6  1  0
  4  5  1  6
  6  7  2  0
  8  9  1  0
 10  9  1  0
 11 10  1  0
 12 11  1  1
 13  6  1  0
 13 12  1  0
 14 12  1  0
 14 20  1  0
 15 14  2  0
 17 16  1  1
 18 17  1  0
 19 21  1  0
 19 20  1  6
 19 17  1  0
 21 23  1  0
 22 21  2  0
M  END
$$$$
