VMV.pdb
     RDKit          3D

 23 22  0  0  1  0  0  0  0  0999 V2000
    9.4145  -19.6453   20.3568 C   0  0  0  0  0  0  0  0  0  0  0  0
    9.8519  -18.7054   21.4298 C   0  0  2  0  0  0  0  0  0  0  0  0
    9.2670  -19.1274   22.7803 C   0  0  0  0  0  0  0  0  0  0  0  0
    9.4014  -17.2787   21.2003 C   0  0  2  0  0  0  0  0  0  0  0  0
    9.9166  -16.7572   19.9529 N   0  0  0  0  0  0  0  0  0  0  0  0
    9.7843  -16.3657   22.2859 C   0  0  0  0  0  0  0  0  0  0  0  0
   10.9803  -16.0013   22.4547 O   0  0  0  0  0  0  0  0  0  0  0  0
    5.2069  -13.0163   26.3462 C   0  0  0  0  0  0  0  0  0  0  0  0
    6.5997  -12.0304   25.7223 S   0  0  0  0  0  0  0  0  0  0  0  0
    8.0875  -13.0370   25.5315 C   0  0  0  0  0  0  0  0  0  0  0  0
    7.8449  -14.0459   24.4129 C   0  0  0  0  0  0  0  0  0  0  0  0
    9.1067  -14.8889   24.2142 C   0  0  2  0  0  0  0  0  0  0  0  0
    8.8187  -15.8539   23.1936 N   0  0  0  0  0  0  0  0  0  0  0  0
    9.4911  -15.5779   25.4598 C   0  0  0  0  0  0  0  0  0  0  0  0
    8.6533  -16.2968   26.0737 O   0  0  0  0  0  0  0  0  0  0  0  0
   10.4153  -14.9796   29.7878 C   0  0  0  0  0  0  0  0  0  0  0  0
   10.1916  -14.7788   28.3105 C   0  0  1  0  0  0  0  0  0  0  0  0
   10.5908  -13.3707   27.9349 C   0  0  0  0  0  0  0  0  0  0  0  0
   10.9792  -15.7274   27.4647 C   0  0  2  0  0  0  0  0  0  0  0  0
   10.7880  -15.4843   26.0370 N   0  0  0  0  0  0  0  0  0  0  0  0
   10.5839  -17.1138   27.7559 C   0  0  0  0  0  0  0  0  0  0  0  0
   11.4348  -17.9953   28.0348 O   0  0  0  0  0  0  0  0  0  0  0  0
    9.2550  -17.5066   27.7347 O   0  0  0  0  0  0  0  0  0  0  0  0
  2  1  1  6
  2  3  1  0
  4  2  1  0
  4  6  1  0
  4  5  1  6
  6  7  2  0
  8  9  1  0
 10  9  1  0
 11 10  1  0
 12 11  1  1
 13  6  1  0
 13 12  1  0
 14 12  1  0
 14 20  1  0
 15 14  2  0
 17 16  1  1
 18 17  1  0
 19 21  1  0
 19 20  1  6
 19 17  1  0
 21 23  1  0
 22 21  2  0
M  END
$$$$
