SKH.pdb
     RDKit          3D

 26 26  0  0  1  0  0  0  0  0999 V2000
   11.1434  -18.4347   20.0645 O   0  0  0  0  0  0  0  0  0  0  0  0
   10.2250  -19.1967   19.3529 C   0  0  0  0  0  0  0  0  0  0  0  0
    8.9136  -18.4460   19.1354 C   0  0  2  0  0  0  0  0  0  0  0  0
    9.1340  -17.3519   18.2364 N   0  0  0  0  0  0  0  0  0  0  0  0
    8.3529  -17.9567   20.4194 C   0  0  0  0  0  0  0  0  0  0  0  0
    8.3901  -16.7270   20.6788 O   0  0  0  0  0  0  0  0  0  0  0  0
    7.7709  -18.8198   21.3778 N   0  0  0  0  0  0  0  0  0  0  0  0
    7.0654  -18.3433   22.5480 C   0  0  1  0  0  0  0  0  0  0  0  0
    6.1410  -19.4355   22.9995 C   0  0  0  0  0  0  0  0  0  0  0  0
    4.8620  -19.5054   22.2434 C   0  0  0  0  0  0  0  0  0  0  0  0
    4.0208  -20.7072   22.6204 C   0  0  0  0  0  0  0  0  0  0  0  0
    2.7212  -20.7095   21.8335 C   0  0  0  0  0  0  0  0  0  0  0  0
    1.8968  -21.8191   22.2512 N   0  0  0  0  0  0  0  0  0  0  0  0
    8.0313  -17.9198   23.5526 C   0  0  0  0  0  0  0  0  0  0  0  0
    9.2198  -18.3776   23.6297 O   0  0  0  0  0  0  0  0  0  0  0  0
    7.6655  -16.9443   24.5169 N   0  0  0  0  0  0  0  0  0  0  0  0
    8.6577  -16.4760   25.4879 C   0  0  1  0  0  0  0  0  0  0  0  0
    8.0724  -15.2461   26.1489 C   0  0  0  0  0  0  0  0  0  0  0  0
    8.8761  -14.7169   27.2522 C   0  0  0  0  0  0  0  0  0  0  0  0
   10.0490  -15.2766   27.7209 C   0  0  0  0  0  0  0  0  0  0  0  0
   10.4539  -14.4793   28.7318 N   0  0  0  0  0  0  0  0  0  0  0  0
    9.5648  -13.4812   28.8684 C   0  0  0  0  0  0  0  0  0  0  0  0
    8.5936  -13.6071   27.9752 N   0  0  0  0  0  0  0  0  0  0  0  0
    8.8714  -17.4895   26.5497 C   0  0  0  0  0  0  0  0  0  0  0  0
   10.0483  -17.6232   27.2583 O   0  0  0  0  0  0  0  0  0  0  0  0
    7.9250  -18.2692   26.8164 O   0  0  0  0  0  0  0  0  0  0  0  0
  1  2  1  0
  3  2  1  0
  3  4  1  6
  5  3  1  0
  6  5  2  0
  7  5  1  0
  8  7  1  0
  8  9  1  1
 10 11  1  0
 10  9  1  0
 11 12  1  0
 13 12  1  0
 14 16  1  0
 14  8  1  0
 15 14  2  0
 17 18  1  1
 17 16  1  0
 19 18  1  0
 19 23  1  0
 20 21  1  0
 20 19  2  0
 21 22  1  0
 22 23  2  0
 24 17  1  0
 25 24  1  0
 26 24  2  0
M  END
$$$$
