SKH.pdb
     RDKit          3D

 26 26  0  0  1  0  0  0  0  0999 V2000
   10.4404  -13.2630   20.2391 O   0  0  0  0  0  0  0  0  0  0  0  0
    9.7678  -14.0644   19.3249 C   0  0  0  0  0  0  0  0  0  0  0  0
    8.2537  -13.9048   19.4379 C   0  0  2  0  0  0  0  0  0  0  0  0
    7.9158  -12.5131   19.3852 N   0  0  0  0  0  0  0  0  0  0  0  0
    7.7389  -14.5160   20.6885 C   0  0  0  0  0  0  0  0  0  0  0  0
    7.2499  -13.7760   21.5796 O   0  0  0  0  0  0  0  0  0  0  0  0
    7.7727  -15.9101   20.9284 N   0  0  0  0  0  0  0  0  0  0  0  0
    7.2876  -16.5156   22.1499 C   0  0  1  0  0  0  0  0  0  0  0  0
    7.1208  -17.9849   21.8956 C   0  0  0  0  0  0  0  0  0  0  0  0
    6.6087  -18.7528   23.0621 C   0  0  0  0  0  0  0  0  0  0  0  0
    6.6121  -20.2493   22.8284 C   0  0  0  0  0  0  0  0  0  0  0  0
    6.0974  -20.9767   24.0589 C   0  0  0  0  0  0  0  0  0  0  0  0
    6.2510  -22.4022   23.8861 N   0  0  0  0  0  0  0  0  0  0  0  0
    8.1978  -16.1939   23.2406 C   0  0  0  0  0  0  0  0  0  0  0  0
    9.4621  -16.0921   23.1014 O   0  0  0  0  0  0  0  0  0  0  0  0
    7.6856  -15.9746   24.5463 N   0  0  0  0  0  0  0  0  0  0  0  0
    8.5943  -15.5782   25.6251 C   0  0  1  0  0  0  0  0  0  0  0  0
    7.7460  -14.9039   26.6824 C   0  0  0  0  0  0  0  0  0  0  0  0
    7.2888  -13.5612   26.3196 C   0  0  0  0  0  0  0  0  0  0  0  0
    7.7406  -12.8335   25.2357 C   0  0  0  0  0  0  0  0  0  0  0  0
    7.0643  -11.6662   25.2738 N   0  0  0  0  0  0  0  0  0  0  0  0
    6.2396  -11.6871   26.3344 C   0  0  0  0  0  0  0  0  0  0  0  0
    6.3606  -12.8347   26.9866 N   0  0  0  0  0  0  0  0  0  0  0  0
    9.2165  -16.7703   26.2512 C   0  0  0  0  0  0  0  0  0  0  0  0
   10.1489  -16.7060   27.2670 O   0  0  0  0  0  0  0  0  0  0  0  0
    8.8730  -17.9015   25.8303 O   0  0  0  0  0  0  0  0  0  0  0  0
  1  2  1  0
  3  2  1  0
  3  4  1  1
  5  3  1  0
  6  5  2  0
  7  5  1  0
  8  7  1  0
  8  9  1  6
 10 11  1  0
 10  9  1  0
 11 12  1  0
 13 12  1  0
 14 16  1  0
 14  8  1  0
 15 14  2  0
 17 18  1  1
 17 16  1  0
 19 18  1  0
 19 23  1  0
 20 21  1  0
 20 19  2  0
 21 22  1  0
 22 23  2  0
 24 17  1  0
 25 24  1  0
 26 24  2  0
M  END
$$$$
