SKH.pdb
     RDKit          3D

 26 26  0  0  1  0  0  0  0  0999 V2000
   11.1309  -13.1263   18.3528 O   0  0  0  0  0  0  0  0  0  0  0  0
   10.4718  -13.4244   19.5390 C   0  0  0  0  0  0  0  0  0  0  0  0
    9.0569  -13.9395   19.2869 C   0  0  2  0  0  0  0  0  0  0  0  0
    8.2248  -12.8555   18.8552 N   0  0  0  0  0  0  0  0  0  0  0  0
    8.4901  -14.5757   20.5021 C   0  0  0  0  0  0  0  0  0  0  0  0
    7.8732  -13.8669   21.3375 O   0  0  0  0  0  0  0  0  0  0  0  0
    8.6127  -15.9600   20.7683 N   0  0  0  0  0  0  0  0  0  0  0  0
    7.9646  -16.6122   21.8857 C   0  0  1  0  0  0  0  0  0  0  0  0
    7.8006  -18.0618   21.5353 C   0  0  0  0  0  0  0  0  0  0  0  0
    7.1524  -18.8777   22.5968 C   0  0  0  0  0  0  0  0  0  0  0  0
    6.9339  -20.3176   22.1807 C   0  0  0  0  0  0  0  0  0  0  0  0
    6.2718  -21.0969   23.3044 C   0  0  0  0  0  0  0  0  0  0  0  0
    6.1252  -22.4814   22.9210 N   0  0  0  0  0  0  0  0  0  0  0  0
    8.7365  -16.3704   23.0971 C   0  0  0  0  0  0  0  0  0  0  0  0
   10.0070  -16.2543   23.1161 O   0  0  0  0  0  0  0  0  0  0  0  0
    8.0718  -16.2514   24.3459 N   0  0  0  0  0  0  0  0  0  0  0  0
    8.8302  -15.8617   25.5374 C   0  0  1  0  0  0  0  0  0  0  0  0
    7.8185  -15.4016   26.5655 C   0  0  0  0  0  0  0  0  0  0  0  0
    7.1397  -14.1506   26.2227 C   0  0  0  0  0  0  0  0  0  0  0  0
    7.6681  -13.1515   25.4282 C   0  0  0  0  0  0  0  0  0  0  0  0
    6.7208  -12.1918   25.3727 N   0  0  0  0  0  0  0  0  0  0  0  0
    5.6658  -12.5930   26.1017 C   0  0  0  0  0  0  0  0  0  0  0  0
    5.9004  -13.7860   26.6294 N   0  0  0  0  0  0  0  0  0  0  0  0
    9.5434  -17.0294   26.1102 C   0  0  0  0  0  0  0  0  0  0  0  0
    9.4990  -18.2981   25.5684 O   0  0  0  0  0  0  0  0  0  0  0  0
   10.2257  -16.8496   27.1480 O   0  0  0  0  0  0  0  0  0  0  0  0
  1  2  1  0
  3  2  1  0
  3  4  1  1
  5  3  1  0
  6  5  2  0
  7  5  1  0
  8  7  1  0
  8  9  1  6
 10 11  1  0
 10  9  1  0
 11 12  1  0
 13 12  1  0
 14 16  1  0
 14  8  1  0
 15 14  2  0
 17 18  1  1
 17 16  1  0
 19 18  1  0
 19 23  1  0
 20 21  1  0
 20 19  2  0
 21 22  1  0
 22 23  2  0
 24 17  1  0
 25 24  1  0
 26 24  2  0
M  END
$$$$
