SKH.pdb
     RDKit          3D

 26 26  0  0  1  0  0  0  0  0999 V2000
    9.6570  -19.2973   21.9483 O   0  0  0  0  0  0  0  0  0  0  0  0
    8.3317  -19.0414   21.6189 C   0  0  0  0  0  0  0  0  0  0  0  0
    8.1785  -17.7176   20.8738 C   0  0  2  0  0  0  0  0  0  0  0  0
    8.9133  -17.7746   19.6448 N   0  0  0  0  0  0  0  0  0  0  0  0
    8.6413  -16.5761   21.7017 C   0  0  0  0  0  0  0  0  0  0  0  0
    9.7153  -15.9945   21.4033 O   0  0  0  0  0  0  0  0  0  0  0  0
    7.9216  -16.1054   22.8254 N   0  0  0  0  0  0  0  0  0  0  0  0
    8.3574  -14.9868   23.6334 C   0  0  1  0  0  0  0  0  0  0  0  0
    7.1389  -14.3723   24.2569 C   0  0  0  0  0  0  0  0  0  0  0  0
    7.4109  -13.1413   25.0462 C   0  0  0  0  0  0  0  0  0  0  0  0
    6.1650  -12.5667   25.6880 C   0  0  0  0  0  0  0  0  0  0  0  0
    6.5158  -11.3458   26.5214 C   0  0  0  0  0  0  0  0  0  0  0  0
    5.3402  -10.8684   27.2108 N   0  0  0  0  0  0  0  0  0  0  0  0
    9.3560  -15.4446   24.5899 C   0  0  0  0  0  0  0  0  0  0  0  0
    9.0788  -16.1303   25.6296 O   0  0  0  0  0  0  0  0  0  0  0  0
   10.7252  -15.1292   24.3867 N   0  0  0  0  0  0  0  0  0  0  0  0
   11.7317  -15.6256   25.3286 C   0  0  1  0  0  0  0  0  0  0  0  0
   11.0408  -16.6502   26.2033 C   0  0  0  0  0  0  0  0  0  0  0  0
   10.6437  -16.1469   27.5194 C   0  0  0  0  0  0  0  0  0  0  0  0
   10.5370  -14.8125   27.8610 C   0  0  0  0  0  0  0  0  0  0  0  0
   10.1486  -14.7978   29.1535 N   0  0  0  0  0  0  0  0  0  0  0  0
   10.0258  -16.0677   29.5750 C   0  0  0  0  0  0  0  0  0  0  0  0
   10.3233  -16.9073   28.5933 N   0  0  0  0  0  0  0  0  0  0  0  0
   12.8247  -16.3235   24.6086 C   0  0  0  0  0  0  0  0  0  0  0  0
   12.8567  -16.4934   23.2391 O   0  0  0  0  0  0  0  0  0  0  0  0
   13.7739  -16.7854   25.2872 O   0  0  0  0  0  0  0  0  0  0  0  0
  1  2  1  0
  3  2  1  0
  3  4  1  6
  5  3  1  0
  6  5  2  0
  7  5  1  0
  8  7  1  0
  8  9  1  1
 10 11  1  0
 10  9  1  0
 11 12  1  0
 13 12  1  0
 14 16  1  0
 14  8  1  0
 15 14  2  0
 17 18  1  1
 17 16  1  0
 19 18  1  0
 19 23  1  0
 20 21  1  0
 20 19  2  0
 21 22  1  0
 22 23  2  0
 24 17  1  0
 25 24  1  0
 26 24  2  0
M  END
$$$$
