SKH.pdb
     RDKit          3D

 26 26  0  0  1  0  0  0  0  0999 V2000
   11.6969  -13.4853   18.6245 O   0  0  0  0  0  0  0  0  0  0  0  0
   10.7775  -13.4490   19.6655 C   0  0  0  0  0  0  0  0  0  0  0  0
    9.3721  -13.8131   19.1931 C   0  0  2  0  0  0  0  0  0  0  0  0
    8.7856  -12.6866   18.5292 N   0  0  0  0  0  0  0  0  0  0  0  0
    8.5184  -14.2490   20.3261 C   0  0  0  0  0  0  0  0  0  0  0  0
    7.7770  -13.4093   20.8972 O   0  0  0  0  0  0  0  0  0  0  0  0
    8.4989  -15.5821   20.8000 N   0  0  0  0  0  0  0  0  0  0  0  0
    7.7006  -16.0101   21.9285 C   0  0  1  0  0  0  0  0  0  0  0  0
    6.7145  -17.0255   21.4307 C   0  0  0  0  0  0  0  0  0  0  0  0
    5.8692  -17.6297   22.4952 C   0  0  0  0  0  0  0  0  0  0  0  0
    4.8637  -18.6246   21.9539 C   0  0  0  0  0  0  0  0  0  0  0  0
    3.9414  -19.0997   23.0638 C   0  0  0  0  0  0  0  0  0  0  0  0
    3.0680  -20.1363   22.5658 N   0  0  0  0  0  0  0  0  0  0  0  0
    8.5802  -16.4937   22.9840 C   0  0  0  0  0  0  0  0  0  0  0  0
    8.8751  -17.7236   23.1522 O   0  0  0  0  0  0  0  0  0  0  0  0
    9.1608  -15.5736   23.8960 N   0  0  0  0  0  0  0  0  0  0  0  0
    8.8472  -15.6714   25.3238 C   0  0  1  0  0  0  0  0  0  0  0  0
    7.3422  -15.5617   25.4469 C   0  0  0  0  0  0  0  0  0  0  0  0
    6.8781  -14.3110   26.0500 C   0  0  0  0  0  0  0  0  0  0  0  0
    7.6932  -13.2649   26.4372 C   0  0  0  0  0  0  0  0  0  0  0  0
    6.8647  -12.3242   26.9375 N   0  0  0  0  0  0  0  0  0  0  0  0
    5.6038  -12.7815   26.8563 C   0  0  0  0  0  0  0  0  0  0  0  0
    5.5893  -13.9925   26.3176 N   0  0  0  0  0  0  0  0  0  0  0  0
    9.2391  -16.9988   25.8572 C   0  0  0  0  0  0  0  0  0  0  0  0
    9.0069  -18.1900   25.1997 O   0  0  0  0  0  0  0  0  0  0  0  0
    9.8150  -17.0374   26.9715 O   0  0  0  0  0  0  0  0  0  0  0  0
  1  2  1  0
  3  2  1  0
  3  4  1  1
  5  3  1  0
  6  5  2  0
  7  5  1  0
  8  7  1  0
  8  9  1  6
 10 11  1  0
 10  9  1  0
 11 12  1  0
 13 12  1  0
 14 16  1  0
 14  8  1  0
 15 14  2  0
 17 18  1  6
 17 16  1  0
 19 18  1  0
 19 23  1  0
 20 21  1  0
 20 19  2  0
 21 22  1  0
 22 23  2  0
 24 17  1  0
 25 24  1  0
 26 24  2  0
M  END
$$$$
