SKH.pdb
     RDKit          3D

 26 26  0  0  1  0  0  0  0  0999 V2000
   10.7291  -13.1780   19.3253 O   0  0  0  0  0  0  0  0  0  0  0  0
    9.9327  -13.7753   18.3560 C   0  0  0  0  0  0  0  0  0  0  0  0
    8.4702  -13.8452   18.7885 C   0  0  2  0  0  0  0  0  0  0  0  0
    7.9223  -12.5217   18.8322 N   0  0  0  0  0  0  0  0  0  0  0  0
    8.3293  -14.5082   20.1088 C   0  0  0  0  0  0  0  0  0  0  0  0
    7.9290  -13.8383   21.0947 O   0  0  0  0  0  0  0  0  0  0  0  0
    8.6280  -15.8761   20.3131 N   0  0  0  0  0  0  0  0  0  0  0  0
    8.5005  -16.5315   21.5970 C   0  0  1  0  0  0  0  0  0  0  0  0
    8.7106  -18.0015   21.3816 C   0  0  0  0  0  0  0  0  0  0  0  0
    8.5654  -18.8262   22.6109 C   0  0  0  0  0  0  0  0  0  0  0  0
    8.8613  -20.2926   22.3736 C   0  0  0  0  0  0  0  0  0  0  0  0
    8.8025  -21.0614   23.6827 C   0  0  0  0  0  0  0  0  0  0  0  0
    8.9373  -22.4763   23.4272 N   0  0  0  0  0  0  0  0  0  0  0  0
    9.4281  -15.9238   22.5414 C   0  0  0  0  0  0  0  0  0  0  0  0
   10.3046  -15.0561   22.2145 O   0  0  0  0  0  0  0  0  0  0  0  0
    9.3840  -16.2932   23.9114 N   0  0  0  0  0  0  0  0  0  0  0  0
    9.0661  -15.2842   24.9251 C   0  0  1  0  0  0  0  0  0  0  0  0
    7.6352  -14.8556   24.6783 C   0  0  0  0  0  0  0  0  0  0  0  0
    7.1043  -13.9287   25.6794 C   0  0  0  0  0  0  0  0  0  0  0  0
    7.8249  -13.3969   26.7314 C   0  0  0  0  0  0  0  0  0  0  0  0
    6.9616  -12.6027   27.3989 N   0  0  0  0  0  0  0  0  0  0  0  0
    5.7712  -12.6521   26.7778 C   0  0  0  0  0  0  0  0  0  0  0  0
    5.8362  -13.4557   25.7257 N   0  0  0  0  0  0  0  0  0  0  0  0
    9.1235  -15.8718   26.2859 C   0  0  0  0  0  0  0  0  0  0  0  0
    9.7307  -15.2579   27.3627 O   0  0  0  0  0  0  0  0  0  0  0  0
    8.5879  -16.9925   26.4648 O   0  0  0  0  0  0  0  0  0  0  0  0
  1  2  1  0
  3  2  1  0
  3  4  1  1
  5  3  1  0
  6  5  2  0
  7  5  1  0
  8  7  1  0
  8  9  1  6
 10 11  1  0
 10  9  1  0
 11 12  1  0
 13 12  1  0
 14 16  1  0
 14  8  1  0
 15 14  2  0
 17 18  1  6
 17 16  1  0
 19 18  1  0
 19 23  1  0
 20 21  1  0
 20 19  2  0
 21 22  1  0
 22 23  2  0
 24 17  1  0
 25 24  1  0
 26 24  2  0
M  END
$$$$
