SKH.pdb
     RDKit          3D

 26 26  0  0  1  0  0  0  0  0999 V2000
    9.0381  -17.8558   14.4256 O   0  0  0  0  0  0  0  0  0  0  0  0
    8.1061  -16.8507   14.1982 C   0  0  0  0  0  0  0  0  0  0  0  0
    8.7366  -15.4630   14.2858 C   0  0  2  0  0  0  0  0  0  0  0  0
    9.7522  -15.3368   13.2827 N   0  0  0  0  0  0  0  0  0  0  0  0
    9.3055  -15.2132   15.6335 C   0  0  0  0  0  0  0  0  0  0  0  0
   10.5475  -15.3082   15.8049 O   0  0  0  0  0  0  0  0  0  0  0  0
    8.5060  -14.8688   16.7490 N   0  0  0  0  0  0  0  0  0  0  0  0
    9.0512  -14.6077   18.0639 C   0  0  1  0  0  0  0  0  0  0  0  0
    7.9921  -13.9113   18.8667 C   0  0  0  0  0  0  0  0  0  0  0  0
    8.4212  -13.5208   20.2364 C   0  0  0  0  0  0  0  0  0  0  0  0
    7.3282  -12.8223   21.0184 C   0  0  0  0  0  0  0  0  0  0  0  0
    7.8222  -12.4621   22.4092 C   0  0  0  0  0  0  0  0  0  0  0  0
    6.7657  -11.8176   23.1534 N   0  0  0  0  0  0  0  0  0  0  0  0
    9.5223  -15.8571   18.6459 C   0  0  0  0  0  0  0  0  0  0  0  0
    8.9918  -16.9932   18.4091 O   0  0  0  0  0  0  0  0  0  0  0  0
   10.6320  -15.8494   19.5313 N   0  0  0  0  0  0  0  0  0  0  0  0
   11.0808  -17.1027   20.1430 C   0  0  1  0  0  0  0  0  0  0  0  0
   12.5731  -16.9699   20.3616 C   0  0  0  0  0  0  0  0  0  0  0  0
   13.2159  -18.1820   20.8724 C   0  0  0  0  0  0  0  0  0  0  0  0
   12.6010  -19.4120   21.0053 C   0  0  0  0  0  0  0  0  0  0  0  0
   13.5436  -20.2376   21.5068 N   0  0  0  0  0  0  0  0  0  0  0  0
   14.6788  -19.5375   21.6699 C   0  0  0  0  0  0  0  0  0  0  0  0
   14.5008  -18.2805   21.2888 N   0  0  0  0  0  0  0  0  0  0  0  0
   10.4538  -17.2907   21.4741 C   0  0  0  0  0  0  0  0  0  0  0  0
   10.4868  -18.4774   22.1782 O   0  0  0  0  0  0  0  0  0  0  0  0
    9.8594  -16.3116   21.9868 O   0  0  0  0  0  0  0  0  0  0  0  0
  1  2  1  0
  3  2  1  0
  3  4  1  6
  5  3  1  0
  6  5  2  0
  7  5  1  0
  8  7  1  0
  8  9  1  1
 10 11  1  0
 10  9  1  0
 11 12  1  0
 13 12  1  0
 14 16  1  0
 14  8  1  0
 15 14  2  0
 17 18  1  1
 17 16  1  0
 19 18  1  0
 19 23  1  0
 20 21  1  0
 20 19  2  0
 21 22  1  0
 22 23  2  0
 24 17  1  0
 25 24  1  0
 26 24  2  0
M  END
$$$$
