SKH.pdb
     RDKit          3D

 26 26  0  0  1  0  0  0  0  0999 V2000
   12.8801  -20.7714   20.2814 O   0  0  0  0  0  0  0  0  0  0  0  0
   12.0736  -20.7507   19.1502 C   0  0  0  0  0  0  0  0  0  0  0  0
   12.1787  -19.4232   18.4036 C   0  0  2  0  0  0  0  0  0  0  0  0
   13.4813  -19.3077   17.8176 N   0  0  0  0  0  0  0  0  0  0  0  0
   11.9125  -18.2748   19.3053 C   0  0  0  0  0  0  0  0  0  0  0  0
   12.8744  -17.7160   19.8911 O   0  0  0  0  0  0  0  0  0  0  0  0
   10.6105  -17.7728   19.5398 N   0  0  0  0  0  0  0  0  0  0  0  0
   10.3365  -16.6690   20.4345 C   0  0  1  0  0  0  0  0  0  0  0  0
    9.0183  -16.0742   20.0349 C   0  0  0  0  0  0  0  0  0  0  0  0
    8.6366  -14.8605   20.8054 C   0  0  0  0  0  0  0  0  0  0  0  0
    7.2739  -14.3234   20.4198 C   0  0  0  0  0  0  0  0  0  0  0  0
    6.9874  -13.0291   21.1620 C   0  0  0  0  0  0  0  0  0  0  0  0
    5.7202  -12.4869   20.7312 N   0  0  0  0  0  0  0  0  0  0  0  0
   10.3900  -17.1413   21.8114 C   0  0  0  0  0  0  0  0  0  0  0  0
   10.0643  -18.3223   22.1682 O   0  0  0  0  0  0  0  0  0  0  0  0
   10.8240  -16.2664   22.8417 N   0  0  0  0  0  0  0  0  0  0  0  0
   10.9057  -16.7538   24.2210 C   0  0  1  0  0  0  0  0  0  0  0  0
   12.2366  -16.2849   24.7697 C   0  0  0  0  0  0  0  0  0  0  0  0
   13.3964  -16.9799   24.2085 C   0  0  0  0  0  0  0  0  0  0  0  0
   14.3356  -16.4101   23.3707 C   0  0  0  0  0  0  0  0  0  0  0  0
   15.2204  -17.3914   23.0953 N   0  0  0  0  0  0  0  0  0  0  0  0
   14.8332  -18.5058   23.7385 C   0  0  0  0  0  0  0  0  0  0  0  0
   13.7220  -18.2767   24.4240 N   0  0  0  0  0  0  0  0  0  0  0  0
    9.8429  -16.1436   25.0567 C   0  0  0  0  0  0  0  0  0  0  0  0
    9.6446  -16.4459   26.3888 O   0  0  0  0  0  0  0  0  0  0  0  0
    9.0814  -15.3043   24.5178 O   0  0  0  0  0  0  0  0  0  0  0  0
  1  2  1  0
  3  2  1  0
  3  4  1  1
  5  3  1  0
  6  5  2  0
  7  5  1  0
  8  7  1  0
  8  9  1  6
 10 11  1  0
 10  9  1  0
 11 12  1  0
 13 12  1  0
 14 16  1  0
 14  8  1  0
 15 14  2  0
 17 18  1  1
 17 16  1  0
 19 18  1  0
 19 23  1  0
 20 21  1  0
 20 19  2  0
 21 22  1  0
 22 23  2  0
 24 17  1  0
 25 24  1  0
 26 24  2  0
M  END
$$$$
