SKH.pdb
     RDKit          3D

 26 26  0  0  1  0  0  0  0  0999 V2000
    8.7944  -18.6936   21.7156 O   0  0  0  0  0  0  0  0  0  0  0  0
    9.4490  -18.0748   20.6578 C   0  0  0  0  0  0  0  0  0  0  0  0
    9.1615  -16.5761   20.6124 C   0  0  2  0  0  0  0  0  0  0  0  0
    9.9252  -15.9759   19.5587 N   0  0  0  0  0  0  0  0  0  0  0  0
    9.4715  -15.9279   21.9109 C   0  0  0  0  0  0  0  0  0  0  0  0
   10.6721  -15.7505   22.2396 O   0  0  0  0  0  0  0  0  0  0  0  0
    8.4669  -15.4945   22.8082 N   0  0  0  0  0  0  0  0  0  0  0  0
    8.7570  -14.9063   24.0981 C   0  0  1  0  0  0  0  0  0  0  0  0
    7.6135  -14.0029   24.4552 C   0  0  0  0  0  0  0  0  0  0  0  0
    7.7736  -13.2990   25.7557 C   0  0  0  0  0  0  0  0  0  0  0  0
    6.5957  -12.4078   26.0911 C   0  0  0  0  0  0  0  0  0  0  0  0
    6.8163  -11.7229   27.4292 C   0  0  0  0  0  0  0  0  0  0  0  0
    5.6598  -10.9282   27.7700 N   0  0  0  0  0  0  0  0  0  0  0  0
    9.0094  -15.9668   25.0643 C   0  0  0  0  0  0  0  0  0  0  0  0
    8.1684  -16.8843   25.3448 O   0  0  0  0  0  0  0  0  0  0  0  0
   10.2503  -16.0144   25.7523 N   0  0  0  0  0  0  0  0  0  0  0  0
   10.4659  -17.0251   26.7909 C   0  0  1  0  0  0  0  0  0  0  0  0
   11.9078  -17.4709   26.6712 C   0  0  0  0  0  0  0  0  0  0  0  0
   12.1634  -18.3863   25.5577 C   0  0  0  0  0  0  0  0  0  0  0  0
   11.2022  -18.8754   24.6943 C   0  0  0  0  0  0  0  0  0  0  0  0
   11.8626  -19.6742   23.8296 N   0  0  0  0  0  0  0  0  0  0  0  0
   13.1660  -19.6683   24.1559 C   0  0  0  0  0  0  0  0  0  0  0  0
   13.3715  -18.8885   25.2080 N   0  0  0  0  0  0  0  0  0  0  0  0
   10.2960  -16.4344   28.1408 C   0  0  0  0  0  0  0  0  0  0  0  0
   10.3547  -17.1635   29.3114 O   0  0  0  0  0  0  0  0  0  0  0  0
   10.0867  -15.1995   28.2195 O   0  0  0  0  0  0  0  0  0  0  0  0
  1  2  1  0
  3  2  1  0
  3  4  1  6
  5  3  1  0
  6  5  2  0
  7  5  1  0
  8  7  1  0
  8  9  1  1
 10 11  1  0
 10  9  1  0
 11 12  1  0
 13 12  1  0
 14 16  1  0
 14  8  1  0
 15 14  2  0
 17 18  1  1
 17 16  1  0
 19 18  1  0
 19 23  1  0
 20 21  1  0
 20 19  2  0
 21 22  1  0
 22 23  2  0
 24 17  1  0
 25 24  1  0
 26 24  2  0
M  END
$$$$
