SKH.pdb
     RDKit          3D

 26 26  0  0  1  0  0  0  0  0999 V2000
   14.0983  -19.3715   14.7422 O   0  0  0  0  0  0  0  0  0  0  0  0
   12.9873  -18.7573   15.3069 C   0  0  0  0  0  0  0  0  0  0  0  0
   12.7270  -17.3834   14.6942 C   0  0  2  0  0  0  0  0  0  0  0  0
   13.7481  -17.0890   13.7327 N   0  0  0  0  0  0  0  0  0  0  0  0
   12.6775  -16.3285   15.7369 C   0  0  0  0  0  0  0  0  0  0  0  0
   13.6284  -15.5113   15.8318 O   0  0  0  0  0  0  0  0  0  0  0  0
   11.5969  -16.1971   16.6409 N   0  0  0  0  0  0  0  0  0  0  0  0
   11.5518  -15.1919   17.6808 C   0  0  1  0  0  0  0  0  0  0  0  0
   10.1125  -14.8325   17.9058 C   0  0  0  0  0  0  0  0  0  0  0  0
    9.9069  -13.6722   18.8135 C   0  0  0  0  0  0  0  0  0  0  0  0
    8.4462  -13.4213   19.1257 C   0  0  0  0  0  0  0  0  0  0  0  0
    8.3052  -12.2547   20.0888 C   0  0  0  0  0  0  0  0  0  0  0  0
    6.9074  -11.9810   20.3264 N   0  0  0  0  0  0  0  0  0  0  0  0
   12.2381  -15.6928   18.8639 C   0  0  0  0  0  0  0  0  0  0  0  0
   12.3322  -16.9310   19.1570 O   0  0  0  0  0  0  0  0  0  0  0  0
   12.8489  -14.7814   19.7648 N   0  0  0  0  0  0  0  0  0  0  0  0
   13.5318  -15.2881   20.9579 C   0  0  1  0  0  0  0  0  0  0  0  0
   13.2740  -16.7792   21.0062 C   0  0  0  0  0  0  0  0  0  0  0  0
   12.1456  -17.1668   21.8545 C   0  0  0  0  0  0  0  0  0  0  0  0
   11.3396  -16.2900   22.5546 C   0  0  0  0  0  0  0  0  0  0  0  0
   10.4359  -17.0601   23.1965 N   0  0  0  0  0  0  0  0  0  0  0  0
   10.6846  -18.3462   22.8976 C   0  0  0  0  0  0  0  0  0  0  0  0
   11.7241  -18.4340   22.0798 N   0  0  0  0  0  0  0  0  0  0  0  0
   14.9982  -15.0961   20.8442 C   0  0  0  0  0  0  0  0  0  0  0  0
   15.6793  -15.0742   19.6439 O   0  0  0  0  0  0  0  0  0  0  0  0
   15.6547  -14.9453   21.9030 O   0  0  0  0  0  0  0  0  0  0  0  0
  1  2  1  0
  3  2  1  0
  3  4  1  6
  5  3  1  0
  6  5  2  0
  7  5  1  0
  8  7  1  0
  8  9  1  1
 10 11  1  0
 10  9  1  0
 11 12  1  0
 13 12  1  0
 14 16  1  0
 14  8  1  0
 15 14  2  0
 17 18  1  6
 17 16  1  0
 19 18  1  0
 19 23  1  0
 20 21  1  0
 20 19  2  0
 21 22  1  0
 22 23  2  0
 24 17  1  0
 25 24  1  0
 26 24  2  0
M  END
$$$$
