WWM.pdb
     RDKit          3D

 37 40  0  0  1  0  0  0  0  0999 V2000
    9.3315  -18.1287   19.7384 N   0  0  0  0  0  0  0  0  0  0  0  0
    9.8733  -16.8393   19.4051 C   0  0  1  0  0  0  0  0  0  0  0  0
    9.3288  -16.2413   18.1387 C   0  0  0  0  0  0  0  0  0  0  0  0
    9.3844  -17.2452   17.0613 C   0  0  0  0  0  0  0  0  0  0  0  0
    8.3232  -17.8801   16.4577 C   0  0  0  0  0  0  0  0  0  0  0  0
    8.7900  -18.6943   15.5008 N   0  0  0  0  0  0  0  0  0  0  0  0
   10.1285  -18.5941   15.4802 C   0  0  0  0  0  0  0  0  0  0  0  0
   11.0482  -19.2339   14.6866 C   0  0  0  0  0  0  0  0  0  0  0  0
   12.3833  -18.9620   14.8735 C   0  0  0  0  0  0  0  0  0  0  0  0
   12.7928  -18.0697   15.8332 C   0  0  0  0  0  0  0  0  0  0  0  0
   11.8813  -17.4192   16.6374 C   0  0  0  0  0  0  0  0  0  0  0  0
   10.5302  -17.6970   16.4437 C   0  0  0  0  0  0  0  0  0  0  0  0
    9.6472  -15.8566   20.5308 C   0  0  0  0  0  0  0  0  0  0  0  0
   10.0334  -14.6809   20.3814 O   0  0  0  0  0  0  0  0  0  0  0  0
    9.0137  -16.2281   21.7397 N   0  0  0  0  0  0  0  0  0  0  0  0
    8.7704  -15.2713   22.8435 C   0  0  1  0  0  0  0  0  0  0  0  0
    7.3449  -15.3701   23.1682 C   0  0  0  0  0  0  0  0  0  0  0  0
    6.8340  -14.8270   24.4147 C   0  0  0  0  0  0  0  0  0  0  0  0
    6.2657  -15.4382   25.5064 C   0  0  0  0  0  0  0  0  0  0  0  0
    5.9696  -14.4772   26.3901 N   0  0  0  0  0  0  0  0  0  0  0  0
    6.3175  -13.2671   25.9288 C   0  0  0  0  0  0  0  0  0  0  0  0
    6.2556  -11.9699   26.4234 C   0  0  0  0  0  0  0  0  0  0  0  0
    6.7169  -10.8797   25.7226 C   0  0  0  0  0  0  0  0  0  0  0  0
    7.2664  -11.0793   24.4705 C   0  0  0  0  0  0  0  0  0  0  0  0
    7.3298  -12.3632   23.9752 C   0  0  0  0  0  0  0  0  0  0  0  0
    6.8598  -13.4660   24.6925 C   0  0  0  0  0  0  0  0  0  0  0  0
    9.7697  -15.3744   23.8839 C   0  0  0  0  0  0  0  0  0  0  0  0
    9.9107  -14.3501   24.6432 O   0  0  0  0  0  0  0  0  0  0  0  0
   10.0861  -14.9559   30.0814 C   0  0  0  0  0  0  0  0  0  0  0  0
    9.1116  -15.3649   28.6210 S   0  0  0  0  0  0  0  0  0  0  0  0
   10.1226  -15.2050   27.0846 C   0  0  0  0  0  0  0  0  0  0  0  0
   10.5052  -16.5713   26.5910 C   0  0  0  0  0  0  0  0  0  0  0  0
   11.4318  -16.4219   25.3918 C   0  0  2  0  0  0  0  0  0  0  0  0
   10.5969  -16.4649   24.1647 N   0  0  0  0  0  0  0  0  0  0  0  0
   12.3505  -17.5606   25.3216 C   0  0  0  0  0  0  0  0  0  0  0  0
   12.2469  -18.5289   24.3012 O   0  0  0  0  0  0  0  0  0  0  0  0
   13.2777  -17.7684   26.1376 O   0  0  0  0  0  0  0  0  0  0  0  0
  2  1  1  1
  3  2  1  0
  4  5  2  0
  4  3  1  0
  6  5  1  0
  7 12  2  0
  7  6  1  0
  8  7  1  0
  9 10  1  0
  9  8  2  0
 10 11  2  0
 11 12  1  0
 12  4  1  0
 13  2  1  0
 14 13  2  0
 15 13  1  0
 16 17  1  1
 16 15  1  0
 18 17  1  0
 19 18  2  0
 20 21  1  0
 20 19  1  0
 21 26  2  0
 22 23  2  0
 22 21  1  0
 23 24  1  0
 24 25  2  0
 26 25  1  0
 26 18  1  0
 27 16  1  0
 28 27  2  0
 30 31  1  0
 30 29  1  0
 33 32  1  1
 32 31  1  0
 33 34  1  0
 34 27  1  0
 35 36  1  0
 35 33  1  0
 37 35  2  0
M  END
$$$$
