WWM.pdb
     RDKit          3D

 37 40  0  0  1  0  0  0  0  0999 V2000
   11.7155  -16.6671   20.1185 N   0  0  0  0  0  0  0  0  0  0  0  0
   10.5258  -16.2482   20.8087 C   0  0  1  0  0  0  0  0  0  0  0  0
    9.2445  -16.7531   20.2078 C   0  0  0  0  0  0  0  0  0  0  0  0
    8.2015  -15.7208   20.3434 C   0  0  0  0  0  0  0  0  0  0  0  0
    6.9191  -15.8879   20.8135 C   0  0  0  0  0  0  0  0  0  0  0  0
    6.2969  -14.7008   20.8128 N   0  0  0  0  0  0  0  0  0  0  0  0
    7.1548  -13.7773   20.3511 C   0  0  0  0  0  0  0  0  0  0  0  0
    6.9792  -12.4293   20.1584 C   0  0  0  0  0  0  0  0  0  0  0  0
    8.0259  -11.6931   19.6548 C   0  0  0  0  0  0  0  0  0  0  0  0
    9.2240  -12.2898   19.3492 C   0  0  0  0  0  0  0  0  0  0  0  0
    9.4156  -13.6421   19.5375 C   0  0  0  0  0  0  0  0  0  0  0  0
    8.3530  -14.3834   20.0488 C   0  0  0  0  0  0  0  0  0  0  0  0
   10.5709  -16.6726   22.2585 C   0  0  0  0  0  0  0  0  0  0  0  0
   11.6534  -16.5877   22.8706 O   0  0  0  0  0  0  0  0  0  0  0  0
    9.4291  -17.1586   22.9374 N   0  0  0  0  0  0  0  0  0  0  0  0
    9.1168  -16.7983   24.3394 C   0  0  1  0  0  0  0  0  0  0  0  0
    7.7219  -17.1868   24.5642 C   0  0  0  0  0  0  0  0  0  0  0  0
    6.7285  -16.1903   24.9243 C   0  0  0  0  0  0  0  0  0  0  0  0
    5.3630  -16.2745   25.0533 C   0  0  0  0  0  0  0  0  0  0  0  0
    4.9222  -15.0614   25.4090 N   0  0  0  0  0  0  0  0  0  0  0  0
    5.9341  -14.1884   25.5192 C   0  0  0  0  0  0  0  0  0  0  0  0
    6.0434  -12.8467   25.8641 C   0  0  0  0  0  0  0  0  0  0  0  0
    7.2477  -12.1837   25.9161 C   0  0  0  0  0  0  0  0  0  0  0  0
    8.4022  -12.8795   25.6120 C   0  0  0  0  0  0  0  0  0  0  0  0
    8.2995  -14.2098   25.2690 C   0  0  0  0  0  0  0  0  0  0  0  0
    7.0731  -14.8770   25.2186 C   0  0  0  0  0  0  0  0  0  0  0  0
   10.1539  -17.2212   25.2545 C   0  0  0  0  0  0  0  0  0  0  0  0
   10.8824  -18.2066   24.8753 O   0  0  0  0  0  0  0  0  0  0  0  0
   12.4230  -14.7182   31.0638 C   0  0  0  0  0  0  0  0  0  0  0  0
   10.9202  -14.3819   30.1265 S   0  0  0  0  0  0  0  0  0  0  0  0
   10.9450  -15.2554   28.5003 C   0  0  0  0  0  0  0  0  0  0  0  0
   11.5607  -16.6151   28.6703 C   0  0  0  0  0  0  0  0  0  0  0  0
   11.4635  -17.3699   27.3512 C   0  0  2  0  0  0  0  0  0  0  0  0
   10.4612  -16.6760   26.5037 N   0  0  0  0  0  0  0  0  0  0  0  0
   10.9590  -18.7253   27.5838 C   0  0  0  0  0  0  0  0  0  0  0  0
    9.6198  -19.0705   27.3066 O   0  0  0  0  0  0  0  0  0  0  0  0
   11.6509  -19.6658   28.0372 O   0  0  0  0  0  0  0  0  0  0  0  0
  2  1  1  6
  3  2  1  0
  4  5  2  0
  4  3  1  0
  6  5  1  0
  7 12  2  0
  7  6  1  0
  8  7  1  0
  9 10  1  0
  9  8  2  0
 10 11  2  0
 11 12  1  0
 12  4  1  0
 13  2  1  0
 14 13  2  0
 15 13  1  0
 16 17  1  1
 16 15  1  0
 18 17  1  0
 19 18  2  0
 20 21  1  0
 20 19  1  0
 21 26  2  0
 22 23  2  0
 22 21  1  0
 23 24  1  0
 24 25  2  0
 26 25  1  0
 26 18  1  0
 27 16  1  0
 28 27  2  0
 30 31  1  0
 30 29  1  0
 33 32  1  1
 32 31  1  0
 33 34  1  0
 34 27  1  0
 35 36  1  0
 35 33  1  0
 37 35  2  0
M  END
$$$$
