WWM.pdb
     RDKit          3D

 37 40  0  0  1  0  0  0  0  0999 V2000
   10.8889  -17.4070   18.3865 N   0  0  0  0  0  0  0  0  0  0  0  0
   10.2402  -18.0152   19.5162 C   0  0  1  0  0  0  0  0  0  0  0  0
   10.9381  -19.2308   20.0575 C   0  0  0  0  0  0  0  0  0  0  0  0
   10.8833  -20.3114   19.0570 C   0  0  0  0  0  0  0  0  0  0  0  0
   10.8903  -21.6671   19.2928 C   0  0  0  0  0  0  0  0  0  0  0  0
   10.7923  -22.3131   18.1225 N   0  0  0  0  0  0  0  0  0  0  0  0
   10.7233  -21.3984   17.1423 C   0  0  0  0  0  0  0  0  0  0  0  0
   10.6235  -21.5683   15.7837 C   0  0  0  0  0  0  0  0  0  0  0  0
   10.5805  -20.4526   14.9808 C   0  0  0  0  0  0  0  0  0  0  0  0
   10.6363  -19.1924   15.5226 C   0  0  0  0  0  0  0  0  0  0  0  0
   10.7362  -19.0057   16.8849 C   0  0  0  0  0  0  0  0  0  0  0  0
   10.7783  -20.1387   17.6941 C   0  0  0  0  0  0  0  0  0  0  0  0
   10.0791  -17.0189   20.6411 C   0  0  0  0  0  0  0  0  0  0  0  0
   11.0083  -16.2189   20.8657 O   0  0  0  0  0  0  0  0  0  0  0  0
    8.9132  -16.9664   21.4403 N   0  0  0  0  0  0  0  0  0  0  0  0
    8.7537  -16.0140   22.5629 C   0  0  1  0  0  0  0  0  0  0  0  0
    7.3579  -16.1176   22.9966 C   0  0  0  0  0  0  0  0  0  0  0  0
    6.9276  -15.5132   24.2454 C   0  0  0  0  0  0  0  0  0  0  0  0
    6.3568  -16.0598   25.3696 C   0  0  0  0  0  0  0  0  0  0  0  0
    6.1567  -15.0613   26.2387 N   0  0  0  0  0  0  0  0  0  0  0  0
    6.5697  -13.8884   25.7368 C   0  0  0  0  0  0  0  0  0  0  0  0
    6.6126  -12.5794   26.2012 C   0  0  0  0  0  0  0  0  0  0  0  0
    7.1224  -11.5391   25.4593 C   0  0  0  0  0  0  0  0  0  0  0  0
    7.6141  -11.8036   24.1953 C   0  0  0  0  0  0  0  0  0  0  0  0
    7.5737  -13.0995   23.7297 C   0  0  0  0  0  0  0  0  0  0  0  0
    7.0549  -14.1514   24.4888 C   0  0  0  0  0  0  0  0  0  0  0  0
    9.8308  -16.1178   23.5226 C   0  0  0  0  0  0  0  0  0  0  0  0
   10.8632  -15.3888   23.3029 O   0  0  0  0  0  0  0  0  0  0  0  0
    9.9176  -13.8009   30.1551 C   0  0  0  0  0  0  0  0  0  0  0  0
   10.4497  -13.7271   28.4342 S   0  0  0  0  0  0  0  0  0  0  0  0
   10.4283  -15.4040   27.6623 C   0  0  0  0  0  0  0  0  0  0  0  0
   10.8186  -15.2956   26.2157 C   0  0  0  0  0  0  0  0  0  0  0  0
   10.9770  -16.6967   25.6404 C   0  0  2  0  0  0  0  0  0  0  0  0
    9.8758  -16.9158   24.6687 N   0  0  0  0  0  0  0  0  0  0  0  0
   10.8154  -17.6959   26.6991 C   0  0  0  0  0  0  0  0  0  0  0  0
    9.7302  -18.5970   26.7023 O   0  0  0  0  0  0  0  0  0  0  0  0
   11.6012  -17.8314   27.6650 O   0  0  0  0  0  0  0  0  0  0  0  0
  2  1  1  6
  3  2  1  0
  4  5  2  0
  4  3  1  0
  6  5  1  0
  7 12  2  0
  7  6  1  0
  8  7  1  0
  9 10  1  0
  9  8  2  0
 10 11  2  0
 11 12  1  0
 12  4  1  0
 13  2  1  0
 14 13  2  0
 15 13  1  0
 16 17  1  1
 16 15  1  0
 18 17  1  0
 19 18  2  0
 20 21  1  0
 20 19  1  0
 21 26  2  0
 22 23  2  0
 22 21  1  0
 23 24  1  0
 24 25  2  0
 26 25  1  0
 26 18  1  0
 27 16  1  0
 28 27  2  0
 30 31  1  0
 30 29  1  0
 33 32  1  1
 32 31  1  0
 33 34  1  0
 34 27  1  0
 35 36  1  0
 35 33  1  0
 37 35  2  0
M  END
$$$$
