WWM.pdb
     RDKit          3D

 37 40  0  0  1  0  0  0  0  0999 V2000
    9.7257  -20.5534   21.5088 N   0  0  0  0  0  0  0  0  0  0  0  0
   10.8976  -19.8170   21.1197 C   0  0  1  0  0  0  0  0  0  0  0  0
   11.1935  -19.8465   19.6468 C   0  0  0  0  0  0  0  0  0  0  0  0
   11.3368  -21.2453   19.2055 C   0  0  0  0  0  0  0  0  0  0  0  0
   10.4941  -21.9480   18.3750 C   0  0  0  0  0  0  0  0  0  0  0  0
   10.9924  -23.1782   18.1890 N   0  0  0  0  0  0  0  0  0  0  0  0
   12.1366  -23.2775   18.8840 C   0  0  0  0  0  0  0  0  0  0  0  0
   12.9999  -24.3371   19.0140 C   0  0  0  0  0  0  0  0  0  0  0  0
   14.1144  -24.1867   19.8055 C   0  0  0  0  0  0  0  0  0  0  0  0
   14.3627  -23.0028   20.4547 C   0  0  0  0  0  0  0  0  0  0  0  0
   13.5054  -21.9298   20.3337 C   0  0  0  0  0  0  0  0  0  0  0  0
   12.3785  -22.0865   19.5302 C   0  0  0  0  0  0  0  0  0  0  0  0
   10.7914  -18.3735   21.5546 C   0  0  0  0  0  0  0  0  0  0  0  0
   11.6438  -17.5630   21.1420 O   0  0  0  0  0  0  0  0  0  0  0  0
    9.7602  -17.9176   22.4088 N   0  0  0  0  0  0  0  0  0  0  0  0
    9.7025  -16.5311   22.9257 C   0  0  1  0  0  0  0  0  0  0  0  0
    8.3074  -16.1015   22.7994 C   0  0  0  0  0  0  0  0  0  0  0  0
    7.9300  -14.7291   23.0891 C   0  0  0  0  0  0  0  0  0  0  0  0
    8.1519  -13.5614   22.3995 C   0  0  0  0  0  0  0  0  0  0  0  0
    7.5900  -12.5714   23.1041 N   0  0  0  0  0  0  0  0  0  0  0  0
    7.0111  -13.0359   24.2209 C   0  0  0  0  0  0  0  0  0  0  0  0
    6.2954  -12.4681   25.2680 C   0  0  0  0  0  0  0  0  0  0  0  0
    5.7834  -13.2056   26.3103 C   0  0  0  0  0  0  0  0  0  0  0  0
    5.9883  -14.5721   26.3203 C   0  0  0  0  0  0  0  0  0  0  0  0
    6.6976  -15.1402   25.2849 C   0  0  0  0  0  0  0  0  0  0  0  0
    7.2144  -14.3852   24.2291 C   0  0  0  0  0  0  0  0  0  0  0  0
   10.4042  -16.3888   24.1825 C   0  0  0  0  0  0  0  0  0  0  0  0
   11.4811  -15.6922   24.1591 O   0  0  0  0  0  0  0  0  0  0  0  0
    9.9308  -13.7723   29.6481 C   0  0  0  0  0  0  0  0  0  0  0  0
   10.1705  -13.1167   27.9860 S   0  0  0  0  0  0  0  0  0  0  0  0
   10.4815  -14.4766   26.7767 C   0  0  0  0  0  0  0  0  0  0  0  0
   10.5794  -15.7855   27.5074 C   0  0  0  0  0  0  0  0  0  0  0  0
   11.0299  -16.8639   26.5312 C   0  0  2  0  0  0  0  0  0  0  0  0
   10.0414  -16.9162   25.4245 N   0  0  0  0  0  0  0  0  0  0  0  0
   11.0069  -18.1746   27.1846 C   0  0  0  0  0  0  0  0  0  0  0  0
   11.9033  -18.4945   28.2257 O   0  0  0  0  0  0  0  0  0  0  0  0
   10.2155  -19.0976   26.8836 O   0  0  0  0  0  0  0  0  0  0  0  0
  2  1  1  6
  3  2  1  0
  4  5  2  0
  4  3  1  0
  6  5  1  0
  7 12  2  0
  7  6  1  0
  8  7  1  0
  9 10  1  0
  9  8  2  0
 10 11  2  0
 11 12  1  0
 12  4  1  0
 13  2  1  0
 14 13  2  0
 15 13  1  0
 16 17  1  1
 16 15  1  0
 18 17  1  0
 19 18  2  0
 20 21  1  0
 20 19  1  0
 21 26  2  0
 22 23  2  0
 22 21  1  0
 23 24  1  0
 24 25  2  0
 26 25  1  0
 26 18  1  0
 27 16  1  0
 28 27  2  0
 30 31  1  0
 30 29  1  0
 33 32  1  1
 32 31  1  0
 33 34  1  0
 34 27  1  0
 35 36  1  0
 35 33  1  0
 37 35  2  0
M  END
$$$$
