WWM.pdb
     RDKit          3D

 37 40  0  0  1  0  0  0  0  0999 V2000
    9.1006  -17.3597   21.3428 N   0  0  0  0  0  0  0  0  0  0  0  0
    8.9381  -15.9857   21.7336 C   0  0  1  0  0  0  0  0  0  0  0  0
    7.5752  -15.4153   21.4597 C   0  0  0  0  0  0  0  0  0  0  0  0
    7.4362  -15.1542   20.0160 C   0  0  0  0  0  0  0  0  0  0  0  0
    6.8365  -15.9613   19.0767 C   0  0  0  0  0  0  0  0  0  0  0  0
    6.8855  -15.3519   17.8839 N   0  0  0  0  0  0  0  0  0  0  0  0
    7.5050  -14.1713   18.0406 C   0  0  0  0  0  0  0  0  0  0  0  0
    7.7999  -13.2010   17.1151 C   0  0  0  0  0  0  0  0  0  0  0  0
    8.4618  -12.0702   17.5331 C   0  0  0  0  0  0  0  0  0  0  0  0
    8.8225  -11.9107   18.8481 C   0  0  0  0  0  0  0  0  0  0  0  0
    8.5330  -12.8760   19.7890 C   0  0  0  0  0  0  0  0  0  0  0  0
    7.8616  -14.0189   19.3612 C   0  0  0  0  0  0  0  0  0  0  0  0
    9.2415  -15.8078   23.2034 C   0  0  0  0  0  0  0  0  0  0  0  0
    9.5790  -14.6787   23.6094 O   0  0  0  0  0  0  0  0  0  0  0  0
    9.1534  -16.8765   24.1258 N   0  0  0  0  0  0  0  0  0  0  0  0
    9.4414  -16.7146   25.5694 C   0  0  1  0  0  0  0  0  0  0  0  0
    8.1692  -16.9138   26.2686 C   0  0  0  0  0  0  0  0  0  0  0  0
    7.0365  -16.0455   25.9990 C   0  0  0  0  0  0  0  0  0  0  0  0
    5.7756  -16.3181   25.5255 C   0  0  0  0  0  0  0  0  0  0  0  0
    5.1152  -15.1554   25.4623 N   0  0  0  0  0  0  0  0  0  0  0  0
    5.8836  -14.1357   25.8721 C   0  0  0  0  0  0  0  0  0  0  0  0
    5.7040  -12.7659   26.0216 C   0  0  0  0  0  0  0  0  0  0  0  0
    6.6881  -11.9301   26.4966 C   0  0  0  0  0  0  0  0  0  0  0  0
    7.9112  -12.4731   26.8407 C   0  0  0  0  0  0  0  0  0  0  0  0
    8.0949  -13.8306   26.6941 C   0  0  0  0  0  0  0  0  0  0  0  0
    7.0909  -14.6737   26.2116 C   0  0  0  0  0  0  0  0  0  0  0  0
   10.6239  -17.4425   25.9740 C   0  0  0  0  0  0  0  0  0  0  0  0
   10.9386  -18.4615   25.2611 O   0  0  0  0  0  0  0  0  0  0  0  0
   10.8690  -14.2783   29.7788 C   0  0  0  0  0  0  0  0  0  0  0  0
   11.4408  -15.9861   29.6991 S   0  0  0  0  0  0  0  0  0  0  0  0
   12.9883  -16.1201   28.7015 C   0  0  0  0  0  0  0  0  0  0  0  0
   13.3526  -17.5676   28.5321 C   0  0  0  0  0  0  0  0  0  0  0  0
   12.4975  -18.1659   27.4231 C   0  0  2  0  0  0  0  0  0  0  0  0
   11.4707  -17.1607   27.0491 N   0  0  0  0  0  0  0  0  0  0  0  0
   11.7803  -19.3421   27.9206 C   0  0  0  0  0  0  0  0  0  0  0  0
   12.4646  -20.5141   28.3051 O   0  0  0  0  0  0  0  0  0  0  0  0
   10.5354  -19.4084   28.0419 O   0  0  0  0  0  0  0  0  0  0  0  0
  2  1  1  1
  3  2  1  0
  4  5  2  0
  4  3  1  0
  6  5  1  0
  7 12  2  0
  7  6  1  0
  8  7  1  0
  9 10  1  0
  9  8  2  0
 10 11  2  0
 11 12  1  0
 12  4  1  0
 13  2  1  0
 14 13  2  0
 15 13  1  0
 16 17  1  1
 16 15  1  0
 18 17  1  0
 19 18  2  0
 20 21  1  0
 20 19  1  0
 21 26  2  0
 22 23  2  0
 22 21  1  0
 23 24  1  0
 24 25  2  0
 26 25  1  0
 26 18  1  0
 27 16  1  0
 28 27  2  0
 30 31  1  0
 30 29  1  0
 33 32  1  1
 32 31  1  0
 33 34  1  0
 34 27  1  0
 35 36  1  0
 35 33  1  0
 37 35  2  0
M  END
$$$$
