WWM.pdb
     RDKit          3D

 37 40  0  0  1  0  0  0  0  0999 V2000
    9.7672  -17.3627   18.2268 N   0  0  0  0  0  0  0  0  0  0  0  0
    8.7691  -17.5536   19.2438 C   0  0  1  0  0  0  0  0  0  0  0  0
    8.5227  -18.9884   19.6157 C   0  0  0  0  0  0  0  0  0  0  0  0
    7.1395  -19.3539   19.2620 C   0  0  0  0  0  0  0  0  0  0  0  0
    6.7334  -20.2326   18.2839 C   0  0  0  0  0  0  0  0  0  0  0  0
    5.3959  -20.3164   18.3021 N   0  0  0  0  0  0  0  0  0  0  0  0
    4.9375  -19.5088   19.2714 C   0  0  0  0  0  0  0  0  0  0  0  0
    3.6485  -19.2499   19.6668 C   0  0  0  0  0  0  0  0  0  0  0  0
    3.4398  -18.3598   20.6942 C   0  0  0  0  0  0  0  0  0  0  0  0
    4.4961  -17.7401   21.3147 C   0  0  0  0  0  0  0  0  0  0  0  0
    5.7960  -17.9901   20.9292 C   0  0  0  0  0  0  0  0  0  0  0  0
    6.0024  -18.8931   19.8889 C   0  0  0  0  0  0  0  0  0  0  0  0
    9.1312  -16.7926   20.4984 C   0  0  0  0  0  0  0  0  0  0  0  0
   10.2687  -16.2901   20.5827 O   0  0  0  0  0  0  0  0  0  0  0  0
    8.2238  -16.6336   21.5718 N   0  0  0  0  0  0  0  0  0  0  0  0
    8.5207  -15.7927   22.7539 C   0  0  1  0  0  0  0  0  0  0  0  0
    7.3149  -15.0005   23.0100 C   0  0  0  0  0  0  0  0  0  0  0  0
    6.8981  -14.7121   24.3712 C   0  0  0  0  0  0  0  0  0  0  0  0
    6.4109  -15.5279   25.3639 C   0  0  0  0  0  0  0  0  0  0  0  0
    6.1823  -14.7574   26.4345 N   0  0  0  0  0  0  0  0  0  0  0  0
    6.4971  -13.4771   26.1896 C   0  0  0  0  0  0  0  0  0  0  0  0
    6.4740  -12.2994   26.9267 C   0  0  0  0  0  0  0  0  0  0  0  0
    6.8841  -11.0895   26.4162 C   0  0  0  0  0  0  0  0  0  0  0  0
    7.3395  -11.0391   25.1126 C   0  0  0  0  0  0  0  0  0  0  0  0
    7.3642  -12.2037   24.3771 C   0  0  0  0  0  0  0  0  0  0  0  0
    6.9466  -13.4292   24.9020 C   0  0  0  0  0  0  0  0  0  0  0  0
    9.1423  -16.5493   23.8184 C   0  0  0  0  0  0  0  0  0  0  0  0
    9.5417  -17.7314   23.5203 O   0  0  0  0  0  0  0  0  0  0  0  0
   10.9756  -14.0994   30.0110 C   0  0  0  0  0  0  0  0  0  0  0  0
   11.0520  -13.6640   28.2633 S   0  0  0  0  0  0  0  0  0  0  0  0
   11.5653  -15.1137   27.2419 C   0  0  0  0  0  0  0  0  0  0  0  0
   10.4934  -16.1653   27.2884 C   0  0  0  0  0  0  0  0  0  0  0  0
   10.4068  -16.8431   25.9275 C   0  0  2  0  0  0  0  0  0  0  0  0
    9.3664  -16.1398   25.1353 N   0  0  0  0  0  0  0  0  0  0  0  0
    9.9585  -18.2288   26.0839 C   0  0  0  0  0  0  0  0  0  0  0  0
    8.6644  -18.6328   25.6945 O   0  0  0  0  0  0  0  0  0  0  0  0
   10.6627  -19.1465   26.5642 O   0  0  0  0  0  0  0  0  0  0  0  0
  2  1  1  6
  3  2  1  0
  4  5  2  0
  4  3  1  0
  6  5  1  0
  7 12  2  0
  7  6  1  0
  8  7  1  0
  9 10  1  0
  9  8  2  0
 10 11  2  0
 11 12  1  0
 12  4  1  0
 13  2  1  0
 14 13  2  0
 15 13  1  0
 16 17  1  1
 16 15  1  0
 18 17  1  0
 19 18  2  0
 20 21  1  0
 20 19  1  0
 21 26  2  0
 22 23  2  0
 22 21  1  0
 23 24  1  0
 24 25  2  0
 26 25  1  0
 26 18  1  0
 27 16  1  0
 28 27  2  0
 30 31  1  0
 30 29  1  0
 33 32  1  1
 32 31  1  0
 33 34  1  0
 34 27  1  0
 35 36  1  0
 35 33  1  0
 37 35  2  0
M  END
$$$$
