WWM.pdb
     RDKit          3D

 37 40  0  0  1  0  0  0  0  0999 V2000
   10.8058  -18.6191   19.7392 N   0  0  0  0  0  0  0  0  0  0  0  0
   10.2908  -17.3176   20.0679 C   0  0  1  0  0  0  0  0  0  0  0  0
    9.0052  -16.9616   19.3763 C   0  0  0  0  0  0  0  0  0  0  0  0
    8.8365  -15.4976   19.3824 C   0  0  0  0  0  0  0  0  0  0  0  0
    9.4055  -14.5892   18.5195 C   0  0  0  0  0  0  0  0  0  0  0  0
    8.9758  -13.3598   18.8361 N   0  0  0  0  0  0  0  0  0  0  0  0
    8.1439  -13.4626   19.8846 C   0  0  0  0  0  0  0  0  0  0  0  0
    7.4640  -12.4861   20.5694 C   0  0  0  0  0  0  0  0  0  0  0  0
    6.6719  -12.8550   21.6314 C   0  0  0  0  0  0  0  0  0  0  0  0
    6.5605  -14.1720   22.0030 C   0  0  0  0  0  0  0  0  0  0  0  0
    7.2367  -15.1638   21.3250 C   0  0  0  0  0  0  0  0  0  0  0  0
    8.0368  -14.7855   20.2494 C   0  0  0  0  0  0  0  0  0  0  0  0
   10.0810  -17.1861   21.5588 C   0  0  0  0  0  0  0  0  0  0  0  0
    9.9140  -18.2227   22.2304 O   0  0  0  0  0  0  0  0  0  0  0  0
   10.0700  -15.9307   22.2105 N   0  0  0  0  0  0  0  0  0  0  0  0
    9.9740  -15.7926   23.6817 C   0  0  1  0  0  0  0  0  0  0  0  0
    8.9599  -14.7656   23.9343 C   0  0  0  0  0  0  0  0  0  0  0  0
    8.3078  -14.6768   25.2292 C   0  0  0  0  0  0  0  0  0  0  0  0
    7.0604  -15.0741   25.6471 C   0  0  0  0  0  0  0  0  0  0  0  0
    6.9580  -14.7610   26.9446 N   0  0  0  0  0  0  0  0  0  0  0  0
    8.0786  -14.1786   27.3953 C   0  0  0  0  0  0  0  0  0  0  0  0
    8.5072  -13.6858   28.6219 C   0  0  0  0  0  0  0  0  0  0  0  0
    9.7551  -13.1396   28.8136 C   0  0  0  0  0  0  0  0  0  0  0  0
   10.6238  -13.0759   27.7409 C   0  0  0  0  0  0  0  0  0  0  0  0
   10.2040  -13.5627   26.5224 C   0  0  0  0  0  0  0  0  0  0  0  0
    8.9353  -14.1167   26.3349 C   0  0  0  0  0  0  0  0  0  0  0  0
    9.9015  -17.0755   24.3457 C   0  0  0  0  0  0  0  0  0  0  0  0
    8.8279  -17.7533   24.1621 O   0  0  0  0  0  0  0  0  0  0  0  0
   12.6962  -22.8784   24.9692 C   0  0  0  0  0  0  0  0  0  0  0  0
   13.0529  -21.4044   23.9947 S   0  0  0  0  0  0  0  0  0  0  0  0
   11.7752  -20.1013   24.2736 C   0  0  0  0  0  0  0  0  0  0  0  0
   11.5505  -19.9262   25.7486 C   0  0  0  0  0  0  0  0  0  0  0  0
   10.4871  -18.8574   25.9630 C   0  0  2  0  0  0  0  0  0  0  0  0
   10.8698  -17.6686   25.1599 N   0  0  0  0  0  0  0  0  0  0  0  0
   10.4731  -18.4367   27.3660 C   0  0  0  0  0  0  0  0  0  0  0  0
   10.9965  -17.1896   27.7664 O   0  0  0  0  0  0  0  0  0  0  0  0
   10.0116  -19.1274   28.3034 O   0  0  0  0  0  0  0  0  0  0  0  0
  2  1  1  1
  3  2  1  0
  4  5  2  0
  4  3  1  0
  6  5  1  0
  7 12  2  0
  7  6  1  0
  8  7  1  0
  9 10  1  0
  9  8  2  0
 10 11  2  0
 11 12  1  0
 12  4  1  0
 13  2  1  0
 14 13  2  0
 15 13  1  0
 16 17  1  6
 16 15  1  0
 18 17  1  0
 19 18  2  0
 20 21  1  0
 20 19  1  0
 21 26  2  0
 22 23  2  0
 22 21  1  0
 23 24  1  0
 24 25  2  0
 26 25  1  0
 26 18  1  0
 27 16  1  0
 28 27  2  0
 30 31  1  0
 30 29  1  0
 33 32  1  1
 32 31  1  0
 33 34  1  0
 34 27  1  0
 35 36  1  0
 35 33  1  0
 37 35  2  0
M  END
$$$$
