WWM.pdb
     RDKit          3D

 37 40  0  0  1  0  0  0  0  0999 V2000
    6.8783  -21.2860   24.9017 N   0  0  0  0  0  0  0  0  0  0  0  0
    7.4688  -20.0078   25.1923 C   0  0  1  0  0  0  0  0  0  0  0  0
    8.8633  -20.0757   25.7479 C   0  0  0  0  0  0  0  0  0  0  0  0
    8.8503  -19.6363   27.1546 C   0  0  0  0  0  0  0  0  0  0  0  0
    8.1613  -20.2071   28.2000 C   0  0  0  0  0  0  0  0  0  0  0  0
    8.4408  -19.5340   29.3248 N   0  0  0  0  0  0  0  0  0  0  0  0
    9.2943  -18.5435   29.0205 C   0  0  0  0  0  0  0  0  0  0  0  0
    9.8586  -17.5872   29.8278 C   0  0  0  0  0  0  0  0  0  0  0  0
   10.7055  -16.6628   29.2625 C   0  0  0  0  0  0  0  0  0  0  0  0
   10.9837  -16.6917   27.9184 C   0  0  0  0  0  0  0  0  0  0  0  0
   10.4251  -17.6461   27.0950 C   0  0  0  0  0  0  0  0  0  0  0  0
    9.5688  -18.5808   27.6723 C   0  0  0  0  0  0  0  0  0  0  0  0
    7.4905  -19.1355   23.9583 C   0  0  0  0  0  0  0  0  0  0  0  0
    7.6863  -19.6743   22.8515 O   0  0  0  0  0  0  0  0  0  0  0  0
    7.2955  -17.7359   24.0211 N   0  0  0  0  0  0  0  0  0  0  0  0
    7.8443  -16.8043   23.0093 C   0  0  1  0  0  0  0  0  0  0  0  0
    6.8727  -15.7150   22.8815 C   0  0  0  0  0  0  0  0  0  0  0  0
    6.3795  -15.0256   24.0610 C   0  0  0  0  0  0  0  0  0  0  0  0
    5.5733  -15.4493   25.0900 C   0  0  0  0  0  0  0  0  0  0  0  0
    5.4241  -14.4165   25.9286 N   0  0  0  0  0  0  0  0  0  0  0  0
    6.0944  -13.3380   25.4975 C   0  0  0  0  0  0  0  0  0  0  0  0
    6.2912  -12.0468   25.9717 C   0  0  0  0  0  0  0  0  0  0  0  0
    7.0673  -11.1194   25.3158 C   0  0  0  0  0  0  0  0  0  0  0  0
    7.6797  -11.4844   24.1321 C   0  0  0  0  0  0  0  0  0  0  0  0
    7.4877  -12.7632   23.6571 C   0  0  0  0  0  0  0  0  0  0  0  0
    6.6985  -13.7002   24.3287 C   0  0  0  0  0  0  0  0  0  0  0  0
    9.2439  -16.5177   23.2351 C   0  0  0  0  0  0  0  0  0  0  0  0
    9.8616  -15.9092   22.2896 O   0  0  0  0  0  0  0  0  0  0  0  0
    9.1427  -13.4209   28.1396 C   0  0  0  0  0  0  0  0  0  0  0  0
   10.8249  -13.7682   27.5925 S   0  0  0  0  0  0  0  0  0  0  0  0
   10.8395  -14.4017   25.8585 C   0  0  0  0  0  0  0  0  0  0  0  0
   11.6086  -15.6909   25.8016 C   0  0  0  0  0  0  0  0  0  0  0  0
   11.4025  -16.3293   24.4345 C   0  0  2  0  0  0  0  0  0  0  0  0
   10.0026  -16.8199   24.3688 N   0  0  0  0  0  0  0  0  0  0  0  0
   12.2710  -17.5000   24.2905 C   0  0  0  0  0  0  0  0  0  0  0  0
   13.6753  -17.3887   24.3617 O   0  0  0  0  0  0  0  0  0  0  0  0
   11.8551  -18.6653   24.0954 O   0  0  0  0  0  0  0  0  0  0  0  0
  2  1  1  6
  3  2  1  0
  4  5  2  0
  4  3  1  0
  6  5  1  0
  7 12  2  0
  7  6  1  0
  8  7  1  0
  9 10  1  0
  9  8  2  0
 10 11  2  0
 11 12  1  0
 12  4  1  0
 13  2  1  0
 14 13  2  0
 15 13  1  0
 16 17  1  1
 16 15  1  0
 18 17  1  0
 19 18  2  0
 20 21  1  0
 20 19  1  0
 21 26  2  0
 22 23  2  0
 22 21  1  0
 23 24  1  0
 24 25  2  0
 26 25  1  0
 26 18  1  0
 27 16  1  0
 28 27  2  0
 30 31  1  0
 30 29  1  0
 33 32  1  1
 32 31  1  0
 33 34  1  0
 34 27  1  0
 35 36  1  0
 35 33  1  0
 37 35  2  0
M  END
$$$$
