PGK.pdb
     RDKit          3D

 21 21  0  0  1  0  0  0  0  0999 V2000
    8.4357  -14.9349   19.2703 N   0  0  0  0  0  0  0  0  0  0  0  0
    7.0979  -14.6857   18.8307 C   0  0  0  0  0  0  0  0  0  0  0  0
    6.7804  -13.2370   19.1119 C   0  0  0  0  0  0  0  0  0  0  0  0
    8.1823  -12.6471   19.2450 C   0  0  0  0  0  0  0  0  0  0  0  0
    8.9058  -13.7522   19.9604 C   0  0  1  0  0  0  0  0  0  0  0  0
    8.4930  -13.8731   21.3892 C   0  0  0  0  0  0  0  0  0  0  0  0
    8.2997  -12.8552   22.1212 O   0  0  0  0  0  0  0  0  0  0  0  0
    8.2926  -15.1355   22.0125 N   0  0  0  0  0  0  0  0  0  0  0  0
    7.8528  -15.2606   23.3648 C   0  0  0  0  0  0  0  0  0  0  0  0
    7.6933  -16.6734   23.7947 C   0  0  0  0  0  0  0  0  0  0  0  0
    7.1961  -17.4888   22.9814 O   0  0  0  0  0  0  0  0  0  0  0  0
    8.0952  -17.0819   25.0926 N   0  0  0  0  0  0  0  0  0  0  0  0
    7.8100  -18.4236   25.6036 C   0  0  1  0  0  0  0  0  0  0  0  0
    8.5590  -18.5940   26.9024 C   0  0  0  0  0  0  0  0  0  0  0  0
   10.0406  -18.5407   26.7341 C   0  0  0  0  0  0  0  0  0  0  0  0
   10.6867  -18.8430   28.0781 C   0  0  0  0  0  0  0  0  0  0  0  0
   12.1939  -18.8930   27.8574 C   0  0  0  0  0  0  0  0  0  0  0  0
   12.9157  -19.2113   29.0511 N   0  0  0  0  0  0  0  0  0  0  0  0
    6.3644  -18.5739   25.9034 C   0  0  0  0  0  0  0  0  0  0  0  0
    5.5926  -17.5999   26.0555 O   0  0  0  0  0  0  0  0  0  0  0  0
    5.8472  -19.8481   26.0198 O   0  0  0  0  0  0  0  0  0  0  0  0
  1  2  1  0
  1  5  1  0
  2  3  1  0
  3  4  1  0
  5  4  1  0
  5  6  1  1
  6  7  2  0
  8  6  1  0
  9  8  1  0
  9 10  1  0
 10 12  1  0
 11 10  2  0
 12 13  1  0
 13 19  1  0
 13 14  1  1
 14 15  1  0
 16 17  1  0
 16 15  1  0
 18 17  1  0
 19 20  2  0
 19 21  1  0
M  END
$$$$
