PGK.pdb
     RDKit          3D

 21 21  0  0  1  0  0  0  0  0999 V2000
    7.2701  -14.4658   21.0068 N   0  0  0  0  0  0  0  0  0  0  0  0
    7.5384  -13.0851   20.7483 C   0  0  0  0  0  0  0  0  0  0  0  0
    8.2654  -12.9938   19.4285 C   0  0  0  0  0  0  0  0  0  0  0  0
    7.9025  -14.3358   18.7972 C   0  0  0  0  0  0  0  0  0  0  0  0
    7.9408  -15.2482   19.9898 C   0  0  1  0  0  0  0  0  0  0  0  0
    9.3310  -15.5058   20.4667 C   0  0  0  0  0  0  0  0  0  0  0  0
   10.1585  -16.1877   19.7887 O   0  0  0  0  0  0  0  0  0  0  0  0
    9.8085  -15.0022   21.7080 N   0  0  0  0  0  0  0  0  0  0  0  0
   11.0096  -15.4771   22.3160 C   0  0  0  0  0  0  0  0  0  0  0  0
   10.8727  -15.6944   23.7790 C   0  0  0  0  0  0  0  0  0  0  0  0
   11.9176  -15.8362   24.4584 O   0  0  0  0  0  0  0  0  0  0  0  0
    9.5903  -15.7391   24.3844 N   0  0  0  0  0  0  0  0  0  0  0  0
    9.4232  -15.8852   25.8312 C   0  0  1  0  0  0  0  0  0  0  0  0
    8.1025  -15.2620   26.2107 C   0  0  0  0  0  0  0  0  0  0  0  0
    8.0538  -13.7931   25.9534 C   0  0  0  0  0  0  0  0  0  0  0  0
    6.6510  -13.2971   26.2718 C   0  0  0  0  0  0  0  0  0  0  0  0
    6.6218  -11.8003   25.9858 C   0  0  0  0  0  0  0  0  0  0  0  0
    5.3491  -11.2100   26.2669 N   0  0  0  0  0  0  0  0  0  0  0  0
    9.3612  -17.3187   26.2096 C   0  0  0  0  0  0  0  0  0  0  0  0
    9.3587  -17.7129   27.3979 O   0  0  0  0  0  0  0  0  0  0  0  0
    9.3034  -18.2614   25.2033 O   0  0  0  0  0  0  0  0  0  0  0  0
  1  2  1  0
  1  5  1  0
  2  3  1  0
  3  4  1  0
  5  4  1  0
  5  6  1  1
  6  7  2  0
  8  6  1  0
  9  8  1  0
  9 10  1  0
 10 12  1  0
 11 10  2  0
 12 13  1  0
 13 19  1  0
 13 14  1  6
 14 15  1  0
 16 17  1  0
 16 15  1  0
 18 17  1  0
 19 20  2  0
 19 21  1  0
M  END
$$$$
