PGK.pdb
     RDKit          3D

 21 21  0  0  1  0  0  0  0  0999 V2000
    8.2259  -14.9644   17.8531 N   0  0  0  0  0  0  0  0  0  0  0  0
    6.9605  -14.3340   17.6373 C   0  0  0  0  0  0  0  0  0  0  0  0
    7.0375  -12.9359   18.2011 C   0  0  0  0  0  0  0  0  0  0  0  0
    8.5482  -12.7205   18.2534 C   0  0  0  0  0  0  0  0  0  0  0  0
    9.0306  -14.0806   18.6701 C   0  0  1  0  0  0  0  0  0  0  0  0
    8.7200  -14.3835   20.0978 C   0  0  0  0  0  0  0  0  0  0  0  0
    9.1342  -13.6493   21.0459 O   0  0  0  0  0  0  0  0  0  0  0  0
    7.9423  -15.5118   20.4780 N   0  0  0  0  0  0  0  0  0  0  0  0
    7.5546  -15.7540   21.8303 C   0  0  0  0  0  0  0  0  0  0  0  0
    8.7065  -15.7848   22.7675 C   0  0  0  0  0  0  0  0  0  0  0  0
    9.8645  -15.7574   22.2859 O   0  0  0  0  0  0  0  0  0  0  0  0
    8.4943  -15.8436   24.1691 N   0  0  0  0  0  0  0  0  0  0  0  0
    9.6055  -15.8097   25.1213 C   0  0  1  0  0  0  0  0  0  0  0  0
    9.0953  -15.2097   26.4083 C   0  0  0  0  0  0  0  0  0  0  0  0
   10.1350  -15.1467   27.4765 C   0  0  0  0  0  0  0  0  0  0  0  0
    9.5194  -14.4965   28.7067 C   0  0  0  0  0  0  0  0  0  0  0  0
   10.6202  -14.3693   29.7531 C   0  0  0  0  0  0  0  0  0  0  0  0
   10.1605  -13.7657   30.9663 N   0  0  0  0  0  0  0  0  0  0  0  0
   10.0743  -17.1837   25.4288 C   0  0  0  0  0  0  0  0  0  0  0  0
    9.3313  -18.1895   25.3676 O   0  0  0  0  0  0  0  0  0  0  0  0
   11.3918  -17.3602   25.7996 O   0  0  0  0  0  0  0  0  0  0  0  0
  1  2  1  0
  1  5  1  0
  2  3  1  0
  3  4  1  0
  5  4  1  0
  5  6  1  1
  6  7  2  0
  8  6  1  0
  9  8  1  0
  9 10  1  0
 10 12  1  0
 11 10  2  0
 12 13  1  0
 13 19  1  0
 13 14  1  1
 14 15  1  0
 16 17  1  0
 16 15  1  0
 18 17  1  0
 19 20  2  0
 19 21  1  0
M  END
$$$$
