PGK.pdb
     RDKit          3D

 21 21  0  0  1  0  0  0  0  0999 V2000
    9.3023  -13.2747   19.0634 N   0  0  0  0  0  0  0  0  0  0  0  0
    8.5365  -13.6893   17.9291 C   0  0  0  0  0  0  0  0  0  0  0  0
    7.1081  -13.8786   18.3788 C   0  0  0  0  0  0  0  0  0  0  0  0
    7.0912  -13.0560   19.6650 C   0  0  0  0  0  0  0  0  0  0  0  0
    8.4499  -13.3563   20.2308 C   0  0  1  0  0  0  0  0  0  0  0  0
    8.5515  -14.7464   20.7636 C   0  0  0  0  0  0  0  0  0  0  0  0
    7.6850  -15.2274   21.5556 O   0  0  0  0  0  0  0  0  0  0  0  0
    9.6248  -15.6117   20.4149 N   0  0  0  0  0  0  0  0  0  0  0  0
    9.7882  -16.9034   21.0002 C   0  0  0  0  0  0  0  0  0  0  0  0
   10.5566  -16.8714   22.2710 C   0  0  0  0  0  0  0  0  0  0  0  0
   11.7218  -17.3360   22.2719 O   0  0  0  0  0  0  0  0  0  0  0  0
    9.9807  -16.3281   23.4483 N   0  0  0  0  0  0  0  0  0  0  0  0
   10.7400  -16.2027   24.6934 C   0  0  1  0  0  0  0  0  0  0  0  0
    9.8756  -15.4734   25.6923 C   0  0  0  0  0  0  0  0  0  0  0  0
   10.5325  -15.3055   27.0213 C   0  0  0  0  0  0  0  0  0  0  0  0
    9.5538  -14.6090   27.9551 C   0  0  0  0  0  0  0  0  0  0  0  0
   10.2759  -14.3712   29.2761 C   0  0  0  0  0  0  0  0  0  0  0  0
    9.4300  -13.7824   30.2686 N   0  0  0  0  0  0  0  0  0  0  0  0
   11.0401  -17.5405   25.2613 C   0  0  0  0  0  0  0  0  0  0  0  0
   11.9806  -17.7487   26.0609 O   0  0  0  0  0  0  0  0  0  0  0  0
   10.2441  -18.6049   24.8897 O   0  0  0  0  0  0  0  0  0  0  0  0
  1  2  1  0
  1  5  1  0
  2  3  1  0
  3  4  1  0
  5  4  1  0
  5  6  1  6
  6  7  2  0
  8  6  1  0
  9  8  1  0
  9 10  1  0
 10 12  1  0
 11 10  2  0
 12 13  1  0
 13 19  1  0
 13 14  1  1
 14 15  1  0
 16 17  1  0
 16 15  1  0
 18 17  1  0
 19 20  2  0
 19 21  1  0
M  END
$$$$
