PGK.pdb
     RDKit          3D

 21 21  0  0  1  0  0  0  0  0999 V2000
    5.8333  -14.0817   25.6332 N   0  0  0  0  0  0  0  0  0  0  0  0
    6.5106  -14.0620   26.8925 C   0  0  0  0  0  0  0  0  0  0  0  0
    7.3847  -12.8319   26.9290 C   0  0  0  0  0  0  0  0  0  0  0  0
    6.7339  -11.9740   25.8466 C   0  0  0  0  0  0  0  0  0  0  0  0
    6.3703  -13.0099   24.8214 C   0  0  1  0  0  0  0  0  0  0  0  0
    7.5638  -13.5459   24.1038 C   0  0  0  0  0  0  0  0  0  0  0  0
    8.5669  -12.8185   23.8317 O   0  0  0  0  0  0  0  0  0  0  0  0
    7.6457  -14.9021   23.6837 N   0  0  0  0  0  0  0  0  0  0  0  0
    8.6450  -15.3631   22.7746 C   0  0  0  0  0  0  0  0  0  0  0  0
    9.9568  -15.6046   23.4281 C   0  0  0  0  0  0  0  0  0  0  0  0
   10.9097  -16.0043   22.7168 O   0  0  0  0  0  0  0  0  0  0  0  0
   10.1197  -15.3866   24.8205 N   0  0  0  0  0  0  0  0  0  0  0  0
   11.4113  -15.5667   25.4853 C   0  0  1  0  0  0  0  0  0  0  0  0
   11.3418  -14.8807   26.8274 C   0  0  0  0  0  0  0  0  0  0  0  0
   10.3685  -15.5194   27.7606 C   0  0  0  0  0  0  0  0  0  0  0  0
   11.0999  -15.8741   29.0468 C   0  0  0  0  0  0  0  0  0  0  0  0
   10.0588  -16.3836   30.0366 C   0  0  0  0  0  0  0  0  0  0  0  0
   10.6407  -16.8480   31.2585 N   0  0  0  0  0  0  0  0  0  0  0  0
   11.6753  -17.0052   25.7366 C   0  0  0  0  0  0  0  0  0  0  0  0
   12.7937  -17.4440   26.0889 O   0  0  0  0  0  0  0  0  0  0  0  0
   10.6382  -17.9011   25.5740 O   0  0  0  0  0  0  0  0  0  0  0  0
  1  2  1  0
  1  5  1  0
  2  3  1  0
  3  4  1  0
  5  4  1  0
  5  6  1  1
  6  7  2  0
  8  6  1  0
  9  8  1  0
  9 10  1  0
 10 12  1  0
 11 10  2  0
 12 13  1  0
 13 19  1  0
 13 14  1  1
 14 15  1  0
 16 17  1  0
 16 15  1  0
 18 17  1  0
 19 20  2  0
 19 21  1  0
M  END
$$$$
