PGK.pdb
     RDKit          3D

 21 21  0  0  1  0  0  0  0  0999 V2000
   -2.2290  -20.7737   23.5973 N   0  0  0  0  0  0  0  0  0  0  0  0
   -2.2613  -22.1658   23.9231 C   0  0  0  0  0  0  0  0  0  0  0  0
   -3.5057  -22.7570   23.3063 C   0  0  0  0  0  0  0  0  0  0  0  0
   -3.8296  -21.7159   22.2374 C   0  0  0  0  0  0  0  0  0  0  0  0
   -3.4782  -20.4391   22.9464 C   0  0  1  0  0  0  0  0  0  0  0  0
   -4.4606  -20.0903   24.0140 C   0  0  0  0  0  0  0  0  0  0  0  0
   -5.6982  -19.9555   23.7703 O   0  0  0  0  0  0  0  0  0  0  0  0
   -4.0665  -19.8890   25.3656 N   0  0  0  0  0  0  0  0  0  0  0  0
   -4.9830  -19.4685   26.3759 C   0  0  0  0  0  0  0  0  0  0  0  0
   -5.3691  -20.5643   27.3014 C   0  0  0  0  0  0  0  0  0  0  0  0
   -5.9870  -20.2645   28.3512 O   0  0  0  0  0  0  0  0  0  0  0  0
   -5.0438  -21.9117   26.9990 N   0  0  0  0  0  0  0  0  0  0  0  0
   -5.4556  -23.0190   27.8633 C   0  0  1  0  0  0  0  0  0  0  0  0
   -5.5747  -24.2559   27.0072 C   0  0  0  0  0  0  0  0  0  0  0  0
   -6.0233  -25.4555   27.7726 C   0  0  0  0  0  0  0  0  0  0  0  0
   -6.0640  -26.6427   26.8219 C   0  0  0  0  0  0  0  0  0  0  0  0
   -6.6076  -27.8331   27.6034 C   0  0  0  0  0  0  0  0  0  0  0  0
   -6.7279  -29.0113   26.8005 N   0  0  0  0  0  0  0  0  0  0  0  0
   -4.4230  -23.2916   28.8936 C   0  0  0  0  0  0  0  0  0  0  0  0
   -3.1995  -23.1085   28.7009 O   0  0  0  0  0  0  0  0  0  0  0  0
   -4.8315  -23.7696   30.1221 O   0  0  0  0  0  0  0  0  0  0  0  0
  1  2  1  0
  1  5  1  0
  2  3  1  0
  3  4  1  0
  5  4  1  0
  5  6  1  1
  6  7  2  0
  8  6  1  0
  9  8  1  0
  9 10  1  0
 10 12  1  0
 11 10  2  0
 12 13  1  0
 13 19  1  0
 13 14  1  6
 14 15  1  0
 16 17  1  0
 16 15  1  0
 18 17  1  0
 19 20  2  0
 19 21  1  0
M  END
$$$$
