PGK.pdb
     RDKit          3D

 21 21  0  0  1  0  0  0  0  0999 V2000
    7.6462  -15.5738   19.7781 N   0  0  0  0  0  0  0  0  0  0  0  0
    6.9916  -14.6304   18.9258 C   0  0  0  0  0  0  0  0  0  0  0  0
    7.8783  -13.4140   18.8140 C   0  0  0  0  0  0  0  0  0  0  0  0
    9.2275  -13.9915   19.2352 C   0  0  0  0  0  0  0  0  0  0  0  0
    8.8210  -14.9339   20.3319 C   0  0  1  0  0  0  0  0  0  0  0  0
    8.3993  -14.2186   21.5717 C   0  0  0  0  0  0  0  0  0  0  0  0
    9.2225  -13.5686   22.2854 O   0  0  0  0  0  0  0  0  0  0  0  0
    7.0512  -14.2241   22.0247 N   0  0  0  0  0  0  0  0  0  0  0  0
    6.6513  -13.6029   23.2460 C   0  0  0  0  0  0  0  0  0  0  0  0
    6.9011  -14.4529   24.4382 C   0  0  0  0  0  0  0  0  0  0  0  0
    6.5681  -14.0097   25.5636 O   0  0  0  0  0  0  0  0  0  0  0  0
    7.5009  -15.7312   24.2995 N   0  0  0  0  0  0  0  0  0  0  0  0
    7.8064  -16.5716   25.4583 C   0  0  1  0  0  0  0  0  0  0  0  0
    7.6194  -18.0118   25.0489 C   0  0  0  0  0  0  0  0  0  0  0  0
    7.9200  -18.9756   26.1475 C   0  0  0  0  0  0  0  0  0  0  0  0
    7.7737  -20.3875   25.5997 C   0  0  0  0  0  0  0  0  0  0  0  0
    8.0378  -21.3517   26.7502 C   0  0  0  0  0  0  0  0  0  0  0  0
    7.8695  -22.7212   26.3715 N   0  0  0  0  0  0  0  0  0  0  0  0
    9.2240  -16.4077   25.8654 C   0  0  0  0  0  0  0  0  0  0  0  0
    9.6428  -16.6854   27.0122 O   0  0  0  0  0  0  0  0  0  0  0  0
   10.1227  -15.9263   24.9352 O   0  0  0  0  0  0  0  0  0  0  0  0
  1  2  1  0
  1  5  1  0
  2  3  1  0
  3  4  1  0
  5  4  1  0
  5  6  1  1
  6  7  2  0
  8  6  1  0
  9  8  1  0
  9 10  1  0
 10 12  1  0
 11 10  2  0
 12 13  1  0
 13 19  1  0
 13 14  1  6
 14 15  1  0
 16 17  1  0
 16 15  1  0
 18 17  1  0
 19 20  2  0
 19 21  1  0
M  END
$$$$
