PGK.pdb
     RDKit          3D

 21 21  0  0  1  0  0  0  0  0999 V2000
    8.4348  -14.9058   20.3369 N   0  0  0  0  0  0  0  0  0  0  0  0
    7.2726  -14.6763   19.5359 C   0  0  0  0  0  0  0  0  0  0  0  0
    7.0444  -13.1857   19.4675 C   0  0  0  0  0  0  0  0  0  0  0  0
    8.4261  -12.6570   19.8453 C   0  0  0  0  0  0  0  0  0  0  0  0
    8.8431  -13.6377   20.9038 C   0  0  1  0  0  0  0  0  0  0  0  0
    8.0912  -13.4543   22.1796 C   0  0  0  0  0  0  0  0  0  0  0  0
    7.6579  -12.3200   22.5471 O   0  0  0  0  0  0  0  0  0  0  0  0
    7.8171  -14.5396   23.0567 N   0  0  0  0  0  0  0  0  0  0  0  0
    7.1991  -14.3574   24.3306 C   0  0  0  0  0  0  0  0  0  0  0  0
    7.0799  -15.6203   25.1035 C   0  0  0  0  0  0  0  0  0  0  0  0
    6.4014  -15.6087   26.1585 O   0  0  0  0  0  0  0  0  0  0  0  0
    7.7195  -16.8041   24.6536 N   0  0  0  0  0  0  0  0  0  0  0  0
    7.7535  -18.0210   25.4664 C   0  0  1  0  0  0  0  0  0  0  0  0
    7.6780  -19.2042   24.5330 C   0  0  0  0  0  0  0  0  0  0  0  0
    6.2847  -19.5232   24.1051 C   0  0  0  0  0  0  0  0  0  0  0  0
    6.2850  -19.7468   22.6001 C   0  0  0  0  0  0  0  0  0  0  0  0
    4.8549  -20.0762   22.1887 C   0  0  0  0  0  0  0  0  0  0  0  0
    4.7352  -20.3633   20.7920 N   0  0  0  0  0  0  0  0  0  0  0  0
    9.0362  -18.1217   26.2058 C   0  0  0  0  0  0  0  0  0  0  0  0
    9.9891  -17.3281   26.0335 O   0  0  0  0  0  0  0  0  0  0  0  0
    9.1848  -19.1387   27.1269 O   0  0  0  0  0  0  0  0  0  0  0  0
  1  2  1  0
  1  5  1  0
  2  3  1  0
  3  4  1  0
  5  4  1  0
  5  6  1  1
  6  7  2  0
  8  6  1  0
  9  8  1  0
  9 10  1  0
 10 12  1  0
 11 10  2  0
 12 13  1  0
 13 19  1  0
 13 14  1  6
 14 15  1  0
 16 17  1  0
 16 15  1  0
 18 17  1  0
 19 20  2  0
 19 21  1  0
M  END
$$$$
