RQG.pdb
     RDKit          3D

 25 24  0  0  1  0  0  0  0  0999 V2000
   27.0650  -15.1491  -20.0311 N   0  0  0  0  0  0  0  0  0  0  0  0
   28.2587  -15.9246  -19.8117 C   0  0  0  0  0  0  0  0  0  0  0  0
   29.3483  -15.6915  -20.4997 N   0  0  0  0  0  0  0  0  0  0  0  0
   28.3047  -16.9588  -18.8585 N   0  0  0  0  0  0  0  0  0  0  0  0
   27.1542  -17.2102  -17.9675 C   0  0  0  0  0  0  0  0  0  0  0  0
   27.7398  -17.3739  -16.5962 C   0  0  0  0  0  0  0  0  0  0  0  0
   27.2518  -18.5644  -15.8681 C   0  0  0  0  0  0  0  0  0  0  0  0
   25.7871  -18.8392  -15.9998 C   0  0  2  0  0  0  0  0  0  0  0  0
   24.9439  -17.8800  -15.3433 N   0  0  0  0  0  0  0  0  0  0  0  0
   25.5447  -20.1734  -15.3594 C   0  0  0  0  0  0  0  0  0  0  0  0
   26.1497  -21.1918  -15.7573 O   0  0  0  0  0  0  0  0  0  0  0  0
   30.1952  -16.2406  -20.3054 N   0  0  0  0  0  0  0  0  0  0  0  0
   26.3525  -21.4419   -9.7887 C   0  0  0  0  0  0  0  0  0  0  0  0
   25.7762  -20.3058  -10.4281 O   0  0  0  0  0  0  0  0  0  0  0  0
   25.5470  -19.3009   -9.7153 C   0  0  0  0  0  0  0  0  0  0  0  0
   25.4718  -20.3415  -11.8708 C   0  0  0  0  0  0  0  0  0  0  0  0
   24.8955  -21.6410  -12.3340 C   0  0  1  0  0  0  0  0  0  0  0  0
   24.3743  -21.6844  -13.7260 N   0  0  0  0  0  0  0  0  0  0  0  0
   24.6370  -20.3422  -14.2939 C   0  0  0  0  0  0  0  0  0  0  0  0
   22.9374  -21.9133  -13.8741 O   0  0  0  0  0  0  0  0  0  0  0  0
   22.4138  -23.0000  -13.4597 N   0  0  0  0  0  0  0  0  0  0  0  0
   21.9988  -21.0111  -14.4588 C   0  0  0  0  0  0  0  0  0  0  0  0
   20.6376  -21.4018  -14.7568 C   0  0  0  0  0  0  0  0  0  0  0  0
   19.7659  -20.9533  -13.6531 O   0  0  0  0  0  0  0  0  0  0  0  0
   20.2684  -20.3431  -12.6820 O   0  0  0  0  0  0  0  0  0  0  0  0
  1  2  1  0
  2  3  2  0
  4  5  1  0
  4  2  1  0
  6  5  1  0
  6  7  1  0
  8  7  1  0
  8  9  1  1
 10  8  1  0
 11 10  2  0
 13 14  2  0
 13 12  1  0
 15 13  1  0
 16 15  1  0
 17 16  1  6
 17 18  1  0
 18 10  1  0
 19 21  1  0
 19 17  1  0
 20 19  2  0
 22 21  1  0
 23 22  1  0
 24 23  2  0
 25 23  1  0
M  END
$$$$
