RQG.pdb
     RDKit          3D

 25 24  0  0  1  0  0  0  0  0999 V2000
   27.0497  -20.1215  -11.1132 N   0  0  0  0  0  0  0  0  0  0  0  0
   26.4864  -21.0281  -12.0803 C   0  0  0  0  0  0  0  0  0  0  0  0
   25.6823  -21.9930  -11.7095 N   0  0  0  0  0  0  0  0  0  0  0  0
   26.7748  -20.9186  -13.4533 N   0  0  0  0  0  0  0  0  0  0  0  0
   27.6407  -19.8323  -13.9541 C   0  0  0  0  0  0  0  0  0  0  0  0
   26.9663  -19.3237  -15.1938 C   0  0  0  0  0  0  0  0  0  0  0  0
   26.1819  -18.0871  -14.9918 C   0  0  0  0  0  0  0  0  0  0  0  0
   24.8683  -18.2683  -14.2992 C   0  0  2  0  0  0  0  0  0  0  0  0
   24.7412  -19.5088  -13.5872 N   0  0  0  0  0  0  0  0  0  0  0  0
   23.8165  -18.2460  -15.3679 C   0  0  0  0  0  0  0  0  0  0  0  0
   23.6864  -17.2526  -16.1148 O   0  0  0  0  0  0  0  0  0  0  0  0
   25.3881  -22.6975  -12.3976 N   0  0  0  0  0  0  0  0  0  0  0  0
   23.4061  -18.4114  -19.4096 C   0  0  0  0  0  0  0  0  0  0  0  0
   24.1581  -19.4985  -18.8764 O   0  0  0  0  0  0  0  0  0  0  0  0
   25.3425  -19.6230  -19.2665 C   0  0  0  0  0  0  0  0  0  0  0  0
   23.5403  -20.4234  -17.9078 C   0  0  0  0  0  0  0  0  0  0  0  0
   22.0978  -20.1386  -17.6369 C   0  0  2  0  0  0  0  0  0  0  0  0
   21.7976  -19.2060  -16.5183 N   0  0  0  0  0  0  0  0  0  0  0  0
   22.9366  -19.3270  -15.5796 C   0  0  0  0  0  0  0  0  0  0  0  0
   20.5957  -19.4953  -15.7370 O   0  0  0  0  0  0  0  0  0  0  0  0
   20.5491  -20.5266  -14.9879 N   0  0  0  0  0  0  0  0  0  0  0  0
   19.4020  -18.7135  -15.7110 C   0  0  0  0  0  0  0  0  0  0  0  0
   18.1381  -19.2206  -16.2005 C   0  0  0  0  0  0  0  0  0  0  0  0
   17.3900  -19.7970  -15.0659 O   0  0  0  0  0  0  0  0  0  0  0  0
   17.9298  -20.6767  -14.3572 O   0  0  0  0  0  0  0  0  0  0  0  0
  1  2  1  0
  2  3  2  0
  4  5  1  0
  4  2  1  0
  6  5  1  0
  6  7  1  0
  8  7  1  0
  8  9  1  6
 10  8  1  0
 11 10  2  0
 13 14  2  0
 13 12  1  0
 15 13  1  0
 16 15  1  0
 17 16  1  6
 17 18  1  0
 18 10  1  0
 19 21  1  0
 19 17  1  0
 20 19  2  0
 22 21  1  0
 23 22  1  0
 24 23  2  0
 25 23  1  0
M  END
$$$$
