RQG.pdb
     RDKit          3D

 25 24  0  0  1  0  0  0  0  0999 V2000
   17.3815  -14.9137  -14.4568 N   0  0  0  0  0  0  0  0  0  0  0  0
   16.8898  -15.4203  -15.7122 C   0  0  0  0  0  0  0  0  0  0  0  0
   16.2894  -16.5822  -15.7801 N   0  0  0  0  0  0  0  0  0  0  0  0
   17.0339  -14.6961  -16.9101 N   0  0  0  0  0  0  0  0  0  0  0  0
   17.7369  -13.3975  -16.9222 C   0  0  0  0  0  0  0  0  0  0  0  0
   19.1981  -13.7345  -16.8844 C   0  0  0  0  0  0  0  0  0  0  0  0
   20.0910  -12.5563  -16.8852 C   0  0  0  0  0  0  0  0  0  0  0  0
   21.5546  -12.8624  -16.9323 C   0  0  2  0  0  0  0  0  0  0  0  0
   21.8993  -14.1768  -16.4681 N   0  0  0  0  0  0  0  0  0  0  0  0
   22.2268  -11.8697  -16.0314 C   0  0  0  0  0  0  0  0  0  0  0  0
   22.0631  -11.9180  -14.7935 O   0  0  0  0  0  0  0  0  0  0  0  0
   15.9075  -16.9014  -16.6793 N   0  0  0  0  0  0  0  0  0  0  0  0
   27.9218  -10.1790  -16.5137 C   0  0  0  0  0  0  0  0  0  0  0  0
   27.2965  -11.3320  -15.9559 O   0  0  0  0  0  0  0  0  0  0  0  0
   28.0115  -12.3472  -15.7863 C   0  0  0  0  0  0  0  0  0  0  0  0
   25.8646  -11.3022  -15.6038 C   0  0  0  0  0  0  0  0  0  0  0  0
   25.1904  -10.0076  -15.9274 C   0  0  2  0  0  0  0  0  0  0  0  0
   23.7416   -9.9084  -15.6075 N   0  0  0  0  0  0  0  0  0  0  0  0
   23.0631  -10.8492  -16.5282 C   0  0  0  0  0  0  0  0  0  0  0  0
   23.1164   -8.6046  -15.8269 O   0  0  0  0  0  0  0  0  0  0  0  0
   22.7775   -8.2442  -17.0025 N   0  0  0  0  0  0  0  0  0  0  0  0
   22.8221   -7.6343  -14.8225 C   0  0  0  0  0  0  0  0  0  0  0  0
   22.0868   -6.4225  -15.1141 C   0  0  0  0  0  0  0  0  0  0  0  0
   22.0002   -5.6153  -13.8812 O   0  0  0  0  0  0  0  0  0  0  0  0
   22.4369   -6.0860  -12.8063 O   0  0  0  0  0  0  0  0  0  0  0  0
  1  2  1  0
  2  3  2  0
  4  5  1  0
  4  2  1  0
  6  5  1  0
  6  7  1  0
  8  7  1  0
  8  9  1  1
 10  8  1  0
 11 10  2  0
 13 14  2  0
 13 12  1  0
 15 13  1  0
 16 15  1  0
 17 16  1  1
 17 18  1  0
 18 10  1  0
 19 21  1  0
 19 17  1  0
 20 19  2  0
 22 21  1  0
 23 22  1  0
 24 23  2  0
 25 23  1  0
M  END
$$$$
