RQG.pdb
     RDKit          3D

 25 24  0  0  1  0  0  0  0  0999 V2000
   29.4145  -21.9437  -15.9923 N   0  0  0  0  0  0  0  0  0  0  0  0
   28.3320  -22.4346  -16.8057 C   0  0  0  0  0  0  0  0  0  0  0  0
   28.1129  -23.7197  -16.9299 N   0  0  0  0  0  0  0  0  0  0  0  0
   27.4717  -21.5622  -17.4979 N   0  0  0  0  0  0  0  0  0  0  0  0
   27.3730  -20.1408  -17.1098 C   0  0  0  0  0  0  0  0  0  0  0  0
   27.1232  -20.1474  -15.6307 C   0  0  0  0  0  0  0  0  0  0  0  0
   25.8134  -19.5872  -15.2358 C   0  0  0  0  0  0  0  0  0  0  0  0
   24.7269  -20.5923  -15.0181 C   0  0  2  0  0  0  0  0  0  0  0  0
   24.5164  -21.4847  -16.1233 N   0  0  0  0  0  0  0  0  0  0  0  0
   23.4615  -19.8142  -14.8128 C   0  0  0  0  0  0  0  0  0  0  0  0
   23.3554  -19.0066  -13.8651 O   0  0  0  0  0  0  0  0  0  0  0  0
   27.3736  -24.0468  -17.5646 N   0  0  0  0  0  0  0  0  0  0  0  0
   23.0563  -18.2622  -18.8125 C   0  0  0  0  0  0  0  0  0  0  0  0
   23.1682  -17.1941  -17.8754 O   0  0  0  0  0  0  0  0  0  0  0  0
   24.0872  -16.3624  -18.0602 C   0  0  0  0  0  0  0  0  0  0  0  0
   22.2273  -17.0984  -16.7436 C   0  0  0  0  0  0  0  0  0  0  0  0
   21.1947  -18.1795  -16.7243 C   0  0  2  0  0  0  0  0  0  0  0  0
   21.1715  -19.0625  -15.5281 N   0  0  0  0  0  0  0  0  0  0  0  0
   22.3469  -19.9528  -15.6649 C   0  0  0  0  0  0  0  0  0  0  0  0
   20.0105  -19.9415  -15.3928 O   0  0  0  0  0  0  0  0  0  0  0  0
   20.0575  -21.1396  -15.8278 N   0  0  0  0  0  0  0  0  0  0  0  0
   18.7611  -19.5972  -14.7951 C   0  0  0  0  0  0  0  0  0  0  0  0
   17.6488  -20.5217  -14.7483 C   0  0  0  0  0  0  0  0  0  0  0  0
   17.3618  -20.8432  -13.3364 O   0  0  0  0  0  0  0  0  0  0  0  0
   18.1424  -20.4415  -12.4436 O   0  0  0  0  0  0  0  0  0  0  0  0
  1  2  1  0
  2  3  2  0
  4  5  1  0
  4  2  1  0
  6  5  1  0
  6  7  1  0
  8  7  1  0
  8  9  1  6
 10  8  1  0
 11 10  2  0
 13 14  2  0
 13 12  1  0
 15 13  1  0
 16 15  1  0
 17 16  1  1
 17 18  1  0
 18 10  1  0
 19 21  1  0
 19 17  1  0
 20 19  2  0
 22 21  1  0
 23 22  1  0
 24 23  2  0
 25 23  1  0
M  END
$$$$
