RQG.pdb
     RDKit          3D

 25 24  0  0  1  0  0  0  0  0999 V2000
   16.7036  -14.0194  -14.2278 N   0  0  0  0  0  0  0  0  0  0  0  0
   16.1603  -13.2241  -15.2987 C   0  0  0  0  0  0  0  0  0  0  0  0
   14.9801  -12.6669  -15.1910 N   0  0  0  0  0  0  0  0  0  0  0  0
   16.8671  -13.0148  -16.4974 N   0  0  0  0  0  0  0  0  0  0  0  0
   18.0610  -12.1460  -16.5230 C   0  0  0  0  0  0  0  0  0  0  0  0
   17.5800  -10.8221  -17.0388 C   0  0  0  0  0  0  0  0  0  0  0  0
   18.6528   -9.8249  -17.2391 C   0  0  0  0  0  0  0  0  0  0  0  0
   18.8445   -9.3657  -18.6500 C   0  0  2  0  0  0  0  0  0  0  0  0
   19.0669  -10.4262  -19.5922 N   0  0  0  0  0  0  0  0  0  0  0  0
   20.0627   -8.4912  -18.6517 C   0  0  0  0  0  0  0  0  0  0  0  0
   21.1140   -8.8621  -19.2162 O   0  0  0  0  0  0  0  0  0  0  0  0
   14.5899  -12.1521  -15.9905 N   0  0  0  0  0  0  0  0  0  0  0  0
   18.3207   -3.4618  -19.0266 C   0  0  0  0  0  0  0  0  0  0  0  0
   18.8172   -4.1701  -20.1595 O   0  0  0  0  0  0  0  0  0  0  0  0
   18.1731   -4.0652  -21.2294 C   0  0  0  0  0  0  0  0  0  0  0  0
   20.0406   -4.9860  -20.0466 C   0  0  0  0  0  0  0  0  0  0  0  0
   20.6210   -5.0160  -18.6690 C   0  0  2  0  0  0  0  0  0  0  0  0
   21.2207   -6.3013  -18.2225 N   0  0  0  0  0  0  0  0  0  0  0  0
   20.0821   -7.2276  -18.0266 C   0  0  0  0  0  0  0  0  0  0  0  0
   21.9438   -6.2731  -16.9516 O   0  0  0  0  0  0  0  0  0  0  0  0
   22.9398   -5.4916  -16.7962 N   0  0  0  0  0  0  0  0  0  0  0  0
   21.6475   -7.0603  -15.7987 C   0  0  0  0  0  0  0  0  0  0  0  0
   22.5062   -7.0742  -14.6339 C   0  0  0  0  0  0  0  0  0  0  0  0
   22.0360   -6.0421  -13.6890 O   0  0  0  0  0  0  0  0  0  0  0  0
   21.0823   -5.2992  -14.0148 O   0  0  0  0  0  0  0  0  0  0  0  0
  1  2  1  0
  2  3  2  0
  4  5  1  0
  4  2  1  0
  6  5  1  0
  6  7  1  0
  8  7  1  0
  8  9  1  6
 10  8  1  0
 11 10  2  0
 13 14  2  0
 13 12  1  0
 15 13  1  0
 16 15  1  0
 17 16  1  6
 17 18  1  0
 18 10  1  0
 19 21  1  0
 19 17  1  0
 20 19  2  0
 22 21  1  0
 23 22  1  0
 24 23  2  0
 25 23  1  0
M  END
$$$$
