RQG.pdb
     RDKit          3D

 25 24  0  0  1  0  0  0  0  0999 V2000
   26.3181  -21.3519  -10.3163 N   0  0  0  0  0  0  0  0  0  0  0  0
   24.9301  -21.0230  -10.5155 C   0  0  0  0  0  0  0  0  0  0  0  0
   24.0802  -21.0604   -9.5200 N   0  0  0  0  0  0  0  0  0  0  0  0
   24.4310  -20.6527  -11.7781 N   0  0  0  0  0  0  0  0  0  0  0  0
   25.3444  -20.4833  -12.9261 C   0  0  0  0  0  0  0  0  0  0  0  0
   25.6890  -21.8739  -13.3704 C   0  0  0  0  0  0  0  0  0  0  0  0
   25.3187  -22.1710  -14.7705 C   0  0  0  0  0  0  0  0  0  0  0  0
   26.1797  -21.5270  -15.8106 C   0  0  2  0  0  0  0  0  0  0  0  0
   27.5134  -21.2266  -15.3714 N   0  0  0  0  0  0  0  0  0  0  0  0
   25.5156  -20.2317  -16.1713 C   0  0  0  0  0  0  0  0  0  0  0  0
   26.1778  -19.1749  -16.2494 O   0  0  0  0  0  0  0  0  0  0  0  0
   23.0956  -20.8175   -9.6873 N   0  0  0  0  0  0  0  0  0  0  0  0
   23.7391  -21.5237  -19.6571 C   0  0  0  0  0  0  0  0  0  0  0  0
   22.5118  -20.8056  -19.7544 O   0  0  0  0  0  0  0  0  0  0  0  0
   21.5687  -21.3612  -20.3647 C   0  0  0  0  0  0  0  0  0  0  0  0
   22.3870  -19.4648  -19.1528 C   0  0  0  0  0  0  0  0  0  0  0  0
   23.6203  -19.0042  -18.4441 C   0  0  1  0  0  0  0  0  0  0  0  0
   23.5401  -18.8934  -16.9634 N   0  0  0  0  0  0  0  0  0  0  0  0
   24.1336  -20.1434  -16.4357 C   0  0  0  0  0  0  0  0  0  0  0  0
   22.1970  -18.8089  -16.3907 O   0  0  0  0  0  0  0  0  0  0  0  0
   21.3596  -17.9580  -16.8396 N   0  0  0  0  0  0  0  0  0  0  0  0
   21.6837  -19.6141  -15.3301 C   0  0  0  0  0  0  0  0  0  0  0  0
   20.3635  -20.2047  -15.3810 C   0  0  0  0  0  0  0  0  0  0  0  0
   19.3613  -19.1347  -15.2083 O   0  0  0  0  0  0  0  0  0  0  0  0
   19.4237  -18.1120  -15.9279 O   0  0  0  0  0  0  0  0  0  0  0  0
  1  2  1  0
  2  3  2  0
  4  5  1  0
  4  2  1  0
  6  5  1  0
  6  7  1  0
  8  7  1  0
  8  9  1  1
 10  8  1  0
 11 10  2  0
 13 14  2  0
 13 12  1  0
 15 13  1  0
 16 15  1  0
 17 16  1  1
 17 18  1  0
 18 10  1  0
 19 21  1  0
 19 17  1  0
 20 19  2  0
 22 21  1  0
 23 22  1  0
 24 23  2  0
 25 23  1  0
M  END
$$$$
