RQG.pdb
     RDKit          3D

 25 24  0  0  1  0  0  0  0  0999 V2000
   28.9096  -27.6047  -15.7917 N   0  0  0  0  0  0  0  0  0  0  0  0
   27.9815  -28.2725  -16.6677 C   0  0  0  0  0  0  0  0  0  0  0  0
   27.4933  -29.4482  -16.3605 N   0  0  0  0  0  0  0  0  0  0  0  0
   27.5645  -27.6964  -17.8820 N   0  0  0  0  0  0  0  0  0  0  0  0
   27.6105  -26.2329  -18.0734 C   0  0  0  0  0  0  0  0  0  0  0  0
   26.5455  -25.6791  -17.1737 C   0  0  0  0  0  0  0  0  0  0  0  0
   26.8459  -24.3350  -16.6366 C   0  0  0  0  0  0  0  0  0  0  0  0
   26.1112  -23.2065  -17.2882 C   0  0  2  0  0  0  0  0  0  0  0  0
   26.7649  -22.6655  -18.4466 N   0  0  0  0  0  0  0  0  0  0  0  0
   26.0161  -22.1133  -16.2660 C   0  0  0  0  0  0  0  0  0  0  0  0
   26.6112  -21.0277  -16.4353 O   0  0  0  0  0  0  0  0  0  0  0  0
   26.8826  -29.9321  -17.0308 N   0  0  0  0  0  0  0  0  0  0  0  0
   21.0156  -19.8461  -15.3326 C   0  0  0  0  0  0  0  0  0  0  0  0
   21.6570  -19.1249  -14.2838 O   0  0  0  0  0  0  0  0  0  0  0  0
   21.0166  -18.1839  -13.7593 C   0  0  0  0  0  0  0  0  0  0  0  0
   23.0195  -19.4929  -13.8558 C   0  0  0  0  0  0  0  0  0  0  0  0
   23.6231  -20.6041  -14.6534 C   0  0  1  0  0  0  0  0  0  0  0  0
   24.9657  -21.0814  -14.2282 N   0  0  0  0  0  0  0  0  0  0  0  0
   25.2628  -22.2539  -15.0826 C   0  0  0  0  0  0  0  0  0  0  0  0
   25.0813  -21.5468  -12.8465 O   0  0  0  0  0  0  0  0  0  0  0  0
   24.4926  -22.6164  -12.4775 N   0  0  0  0  0  0  0  0  0  0  0  0
   25.8195  -20.9098  -11.8044 C   0  0  0  0  0  0  0  0  0  0  0  0
   25.7807  -21.3782  -10.4357 C   0  0  0  0  0  0  0  0  0  0  0  0
   24.5920  -20.8046   -9.7745 O   0  0  0  0  0  0  0  0  0  0  0  0
   23.8227  -20.0637  -10.4279 O   0  0  0  0  0  0  0  0  0  0  0  0
  1  2  1  0
  2  3  2  0
  4  5  1  0
  4  2  1  0
  6  5  1  0
  6  7  1  0
  8  7  1  0
  8  9  1  6
 10  8  1  0
 11 10  2  0
 13 14  2  0
 13 12  1  0
 15 13  1  0
 16 15  1  0
 17 16  1  6
 17 18  1  0
 18 10  1  0
 19 21  1  0
 19 17  1  0
 20 19  2  0
 22 21  1  0
 23 22  1  0
 24 23  2  0
 25 23  1  0
M  END
$$$$
