RQG.pdb
     RDKit          3D

 25 24  0  0  1  0  0  0  0  0999 V2000
   23.3777  -21.2014   -7.7949 N   0  0  0  0  0  0  0  0  0  0  0  0
   22.9983  -20.5699   -9.0326 C   0  0  0  0  0  0  0  0  0  0  0  0
   21.9778  -19.7510   -9.0850 N   0  0  0  0  0  0  0  0  0  0  0  0
   23.7006  -20.8052  -10.2292 N   0  0  0  0  0  0  0  0  0  0  0  0
   25.1627  -21.0121  -10.2133 C   0  0  0  0  0  0  0  0  0  0  0  0
   25.6891  -20.2303  -11.3802 C   0  0  0  0  0  0  0  0  0  0  0  0
   24.8597  -20.3314  -12.5998 C   0  0  0  0  0  0  0  0  0  0  0  0
   25.1681  -21.4943  -13.4889 C   0  0  2  0  0  0  0  0  0  0  0  0
   26.4567  -21.4314  -14.1195 N   0  0  0  0  0  0  0  0  0  0  0  0
   24.1300  -21.4902  -14.5712 C   0  0  0  0  0  0  0  0  0  0  0  0
   24.2190  -20.7035  -15.5380 O   0  0  0  0  0  0  0  0  0  0  0  0
   21.6980  -19.3502   -9.9891 N   0  0  0  0  0  0  0  0  0  0  0  0
   21.8721  -25.7838  -18.0570 C   0  0  0  0  0  0  0  0  0  0  0  0
   22.9557  -24.8802  -18.2598 O   0  0  0  0  0  0  0  0  0  0  0  0
   23.7322  -25.1202  -19.2138 C   0  0  0  0  0  0  0  0  0  0  0  0
   23.1312  -23.7199  -17.3665 C   0  0  0  0  0  0  0  0  0  0  0  0
   22.0609  -23.5883  -16.3308 C   0  0  2  0  0  0  0  0  0  0  0  0
   21.9842  -22.2913  -15.6078 N   0  0  0  0  0  0  0  0  0  0  0  0
   23.0203  -22.3596  -14.5520 C   0  0  0  0  0  0  0  0  0  0  0  0
   20.7247  -22.0041  -14.9220 O   0  0  0  0  0  0  0  0  0  0  0  0
   19.6166  -22.1015  -15.5461 N   0  0  0  0  0  0  0  0  0  0  0  0
   20.5819  -21.6078  -13.5585 C   0  0  0  0  0  0  0  0  0  0  0  0
   19.2863  -21.3963  -12.9494 C   0  0  0  0  0  0  0  0  0  0  0  0
   18.8159  -20.0417  -13.2998 O   0  0  0  0  0  0  0  0  0  0  0  0
   19.5318  -19.3096  -14.0203 O   0  0  0  0  0  0  0  0  0  0  0  0
  1  2  1  0
  2  3  2  0
  4  5  1  0
  4  2  1  0
  6  5  1  0
  6  7  1  0
  8  7  1  0
  8  9  1  6
 10  8  1  0
 11 10  2  0
 13 14  2  0
 13 12  1  0
 15 13  1  0
 16 15  1  0
 17 16  1  6
 17 18  1  0
 18 10  1  0
 19 21  1  0
 19 17  1  0
 20 19  2  0
 22 21  1  0
 23 22  1  0
 24 23  2  0
 25 23  1  0
M  END
$$$$
