RQG.pdb
     RDKit          3D

 25 24  0  0  1  0  0  0  0  0999 V2000
   23.6518  -19.0268  -17.9667 N   0  0  0  0  0  0  0  0  0  0  0  0
   22.2461  -19.2199  -18.2146 C   0  0  0  0  0  0  0  0  0  0  0  0
   21.8219  -19.6669  -19.3700 N   0  0  0  0  0  0  0  0  0  0  0  0
   21.2761  -18.9369  -17.2351 N   0  0  0  0  0  0  0  0  0  0  0  0
   21.6766  -18.4364  -15.9047 C   0  0  0  0  0  0  0  0  0  0  0  0
   22.0315  -19.6577  -15.1092 C   0  0  0  0  0  0  0  0  0  0  0  0
   21.1420  -19.9076  -13.9551 C   0  0  0  0  0  0  0  0  0  0  0  0
   21.4904  -21.1028  -13.1256 C   0  0  2  0  0  0  0  0  0  0  0  0
   21.6556  -22.3159  -13.8761 N   0  0  0  0  0  0  0  0  0  0  0  0
   20.3502  -21.3074  -12.1732 C   0  0  0  0  0  0  0  0  0  0  0  0
   19.9846  -20.3892  -11.4086 O   0  0  0  0  0  0  0  0  0  0  0  0
   20.8139  -19.8002  -19.5205 N   0  0  0  0  0  0  0  0  0  0  0  0
   17.4092  -22.4212  -14.6276 C   0  0  0  0  0  0  0  0  0  0  0  0
   16.5261  -21.6850  -13.7851 O   0  0  0  0  0  0  0  0  0  0  0  0
   15.8384  -20.7852  -14.3216 C   0  0  0  0  0  0  0  0  0  0  0  0
   16.4476  -21.9913  -12.3445 C   0  0  0  0  0  0  0  0  0  0  0  0
   17.3574  -23.0961  -11.9121 C   0  0  2  0  0  0  0  0  0  0  0  0
   18.5506  -22.7078  -11.1142 N   0  0  0  0  0  0  0  0  0  0  0  0
   19.6457  -22.5261  -12.0944 C   0  0  0  0  0  0  0  0  0  0  0  0
   19.0323  -23.6923  -10.1459 O   0  0  0  0  0  0  0  0  0  0  0  0
   19.9162  -24.5472  -10.4844 N   0  0  0  0  0  0  0  0  0  0  0  0
   18.6070  -23.8139   -8.7890 C   0  0  0  0  0  0  0  0  0  0  0  0
   19.2181  -24.7511   -7.8713 C   0  0  0  0  0  0  0  0  0  0  0  0
   18.7110  -24.4788   -6.5119 O   0  0  0  0  0  0  0  0  0  0  0  0
   17.9824  -23.4795   -6.3164 O   0  0  0  0  0  0  0  0  0  0  0  0
  1  2  1  0
  2  3  2  0
  4  5  1  0
  4  2  1  0
  6  5  1  0
  6  7  1  0
  8  7  1  0
  8  9  1  6
 10  8  1  0
 11 10  2  0
 13 14  2  0
 13 12  1  0
 15 13  1  0
 16 15  1  0
 17 16  1  6
 17 18  1  0
 18 10  1  0
 19 21  1  0
 19 17  1  0
 20 19  2  0
 22 21  1  0
 23 22  1  0
 24 23  2  0
 25 23  1  0
M  END
$$$$
