MLS.pdb
     RDKit          3D

 23 22  0  0  1  0  0  0  0  0999 V2000
    3.4198  -19.1746   20.4519 C   0  0  0  0  0  0  0  0  0  0  0  0
    4.9483  -18.9645   21.4120 S   0  0  0  0  0  0  0  0  0  0  0  0
    5.7219  -17.4220   20.8699 C   0  0  0  0  0  0  0  0  0  0  0  0
    6.8653  -17.1315   21.8133 C   0  0  0  0  0  0  0  0  0  0  0  0
    7.4361  -15.7822   21.4397 C   0  0  2  0  0  0  0  0  0  0  0  0
    8.4678  -15.9900   20.4504 N   0  0  0  0  0  0  0  0  0  0  0  0
    8.0120  -15.2151   22.7114 C   0  0  0  0  0  0  0  0  0  0  0  0
    9.2509  -15.2699   22.9179 O   0  0  0  0  0  0  0  0  0  0  0  0
    8.0931  -11.3698   26.2369 C   0  0  0  0  0  0  0  0  0  0  0  0
    7.0287  -12.3991   26.5807 C   0  0  1  0  0  0  0  0  0  0  0  0
    5.8411  -11.7486   27.2470 C   0  0  0  0  0  0  0  0  0  0  0  0
    6.5522  -13.0487   25.3070 C   0  0  0  0  0  0  0  0  0  0  0  0
    7.6205  -13.9726   24.8047 C   0  0  2  0  0  0  0  0  0  0  0  0
    7.1065  -14.6380   23.6262 N   0  0  0  0  0  0  0  0  0  0  0  0
    7.9649  -15.0088   25.8291 C   0  0  0  0  0  0  0  0  0  0  0  0
    8.4915  -14.6770   26.9141 O   0  0  0  0  0  0  0  0  0  0  0  0
    7.9679  -18.9826   24.7991 O   0  0  0  0  0  0  0  0  0  0  0  0
    7.4312  -18.6723   26.0583 C   0  0  0  0  0  0  0  0  0  0  0  0
    8.0639  -17.3794   26.5093 C   0  0  2  0  0  0  0  0  0  0  0  0
    7.6841  -16.3560   25.5441 N   0  0  0  0  0  0  0  0  0  0  0  0
    9.5467  -17.5181   26.4698 C   0  0  0  0  0  0  0  0  0  0  0  0
   10.1922  -18.4347   27.3031 O   0  0  0  0  0  0  0  0  0  0  0  0
   10.2492  -16.8295   25.7019 O   0  0  0  0  0  0  0  0  0  0  0  0
  1  2  1  0
  3  2  1  0
  4  3  1  0
  5  4  1  0
  5  6  1  6
  7  8  2  0
  7  5  1  0
 10  9  1  6
 10 11  1  0
 12 10  1  0
 13 12  1  1
 13 14  1  0
 14  7  1  0
 15 20  1  0
 15 13  1  0
 16 15  2  0
 19 18  1  6
 18 17  1  0
 19 20  1  0
 19 21  1  0
 21 22  1  0
 23 21  2  0
M  END
$$$$
