MLS.pdb
     RDKit          3D

 23 22  0  0  1  0  0  0  0  0999 V2000
    8.6213  -11.3710   20.0736 C   0  0  0  0  0  0  0  0  0  0  0  0
    7.9709  -12.4889   18.7970 S   0  0  0  0  0  0  0  0  0  0  0  0
    7.7886  -14.1237   19.5490 C   0  0  0  0  0  0  0  0  0  0  0  0
    8.3215  -14.0366   20.9598 C   0  0  0  0  0  0  0  0  0  0  0  0
    8.2313  -15.4171   21.5697 C   0  0  2  0  0  0  0  0  0  0  0  0
    6.8406  -15.8069   21.5935 N   0  0  0  0  0  0  0  0  0  0  0  0
    8.7800  -15.2839   22.9668 C   0  0  0  0  0  0  0  0  0  0  0  0
   10.0169  -15.1467   23.1444 O   0  0  0  0  0  0  0  0  0  0  0  0
    5.9015  -12.5450   26.4067 C   0  0  0  0  0  0  0  0  0  0  0  0
    7.0925  -13.1700   25.6984 C   0  0  1  0  0  0  0  0  0  0  0  0
    8.3567  -12.3946   25.9771 C   0  0  0  0  0  0  0  0  0  0  0  0
    7.2818  -14.5737   26.2135 C   0  0  0  0  0  0  0  0  0  0  0  0
    8.3347  -15.2540   25.3916 C   0  0  2  0  0  0  0  0  0  0  0  0
    7.8520  -15.3213   24.0284 N   0  0  0  0  0  0  0  0  0  0  0  0
    8.5868  -16.6465   25.8808 C   0  0  0  0  0  0  0  0  0  0  0  0
    7.6312  -17.3930   26.1881 O   0  0  0  0  0  0  0  0  0  0  0  0
   12.0232  -18.2713   25.0487 O   0  0  0  0  0  0  0  0  0  0  0  0
   10.9981  -19.1472   25.4385 C   0  0  0  0  0  0  0  0  0  0  0  0
   10.1749  -18.4370   26.4841 C   0  0  2  0  0  0  0  0  0  0  0  0
    9.9153  -17.0926   25.9859 N   0  0  0  0  0  0  0  0  0  0  0  0
   10.9715  -18.3149   27.7371 C   0  0  0  0  0  0  0  0  0  0  0  0
   11.2627  -17.0563   28.2685 O   0  0  0  0  0  0  0  0  0  0  0  0
   11.3980  -19.3190   28.3431 O   0  0  0  0  0  0  0  0  0  0  0  0
  1  2  1  0
  3  2  1  0
  4  3  1  0
  5  4  1  0
  5  6  1  1
  7  8  2  0
  7  5  1  0
 10  9  1  1
 10 11  1  0
 12 10  1  0
 13 12  1  1
 13 14  1  0
 14  7  1  0
 15 20  1  0
 15 13  1  0
 16 15  2  0
 19 18  1  6
 18 17  1  0
 19 20  1  0
 19 21  1  0
 21 22  1  0
 23 21  2  0
M  END
$$$$
