MLS.pdb
     RDKit          3D

 23 22  0  0  1  0  0  0  0  0999 V2000
    7.8420  -11.9476   18.6407 C   0  0  0  0  0  0  0  0  0  0  0  0
    7.6092  -12.7463   20.2563 S   0  0  0  0  0  0  0  0  0  0  0  0
    7.1051  -14.4558   19.9489 C   0  0  0  0  0  0  0  0  0  0  0  0
    7.3191  -15.2295   21.2287 C   0  0  0  0  0  0  0  0  0  0  0  0
    8.6554  -14.8112   21.7990 C   0  0  2  0  0  0  0  0  0  0  0  0
    9.6925  -15.4798   21.0480 N   0  0  0  0  0  0  0  0  0  0  0  0
    8.6480  -15.2667   23.2353 C   0  0  0  0  0  0  0  0  0  0  0  0
    9.5146  -16.0831   23.6389 O   0  0  0  0  0  0  0  0  0  0  0  0
    5.6545  -12.0013   26.4505 C   0  0  0  0  0  0  0  0  0  0  0  0
    6.8490  -12.7966   25.9492 C   0  0  1  0  0  0  0  0  0  0  0  0
    8.0951  -12.4512   26.7272 C   0  0  0  0  0  0  0  0  0  0  0  0
    6.5697  -14.2651   26.1417 C   0  0  0  0  0  0  0  0  0  0  0  0
    7.6601  -15.0564   25.4845 C   0  0  2  0  0  0  0  0  0  0  0  0
    7.6426  -14.7388   24.0722 N   0  0  0  0  0  0  0  0  0  0  0  0
    7.4348  -16.5275   25.6484 C   0  0  0  0  0  0  0  0  0  0  0  0
    6.3137  -17.0277   25.4082 O   0  0  0  0  0  0  0  0  0  0  0  0
   10.2681  -19.0762   25.2296 O   0  0  0  0  0  0  0  0  0  0  0  0
    8.9529  -19.5539   25.3390 C   0  0  0  0  0  0  0  0  0  0  0  0
    8.2627  -18.7291   26.3966 C   0  0  2  0  0  0  0  0  0  0  0  0
    8.5071  -17.3288   26.0763 N   0  0  0  0  0  0  0  0  0  0  0  0
    8.8829  -19.0106   27.7216 C   0  0  0  0  0  0  0  0  0  0  0  0
    8.7699  -20.2776   28.2988 O   0  0  0  0  0  0  0  0  0  0  0  0
    9.5140  -18.1357   28.3490 O   0  0  0  0  0  0  0  0  0  0  0  0
  1  2  1  0
  3  2  1  0
  4  3  1  0
  5  4  1  0
  5  6  1  6
  7  8  2  0
  7  5  1  0
 10  9  1  1
 10 11  1  0
 12 10  1  0
 13 12  1  1
 13 14  1  0
 14  7  1  0
 15 20  1  0
 15 13  1  0
 16 15  2  0
 19 18  1  6
 18 17  1  0
 19 20  1  0
 19 21  1  0
 21 22  1  0
 23 21  2  0
M  END
$$$$
