MLS.pdb
     RDKit          3D

 23 22  0  0  1  0  0  0  0  0999 V2000
    9.0677  -14.2819   30.0281 C   0  0  0  0  0  0  0  0  0  0  0  0
   10.6630  -15.0357   29.5931 S   0  0  0  0  0  0  0  0  0  0  0  0
   10.3421  -16.7528   29.1245 C   0  0  0  0  0  0  0  0  0  0  0  0
    9.0542  -16.7751   28.3353 C   0  0  0  0  0  0  0  0  0  0  0  0
    9.4022  -17.0955   26.8993 C   0  0  2  0  0  0  0  0  0  0  0  0
   10.6271  -16.4045   26.5698 N   0  0  0  0  0  0  0  0  0  0  0  0
    8.2513  -16.5801   26.0745 C   0  0  0  0  0  0  0  0  0  0  0  0
    7.1225  -17.1266   26.1622 O   0  0  0  0  0  0  0  0  0  0  0  0
    7.7235  -11.6900   26.0554 C   0  0  0  0  0  0  0  0  0  0  0  0
    7.3320  -13.1513   25.9065 C   0  0  1  0  0  0  0  0  0  0  0  0
    5.9193  -13.3852   26.3828 C   0  0  0  0  0  0  0  0  0  0  0  0
    7.4019  -13.5264   24.4485 C   0  0  0  0  0  0  0  0  0  0  0  0
    7.4665  -15.0197   24.3344 C   0  0  2  0  0  0  0  0  0  0  0  0
    8.5087  -15.4832   25.2258 N   0  0  0  0  0  0  0  0  0  0  0  0
    7.8063  -15.4412   22.9384 C   0  0  0  0  0  0  0  0  0  0  0  0
    7.0219  -15.1992   21.9946 O   0  0  0  0  0  0  0  0  0  0  0  0
   11.4683  -15.7895   21.7448 O   0  0  0  0  0  0  0  0  0  0  0  0
   10.4217  -15.7937   20.8096 C   0  0  0  0  0  0  0  0  0  0  0  0
    9.3092  -16.6337   21.3855 C   0  0  2  0  0  0  0  0  0  0  0  0
    9.0211  -16.1116   22.7150 N   0  0  0  0  0  0  0  0  0  0  0  0
    9.7823  -18.0382   21.5379 C   0  0  0  0  0  0  0  0  0  0  0  0
   10.1770  -18.7752   20.4189 O   0  0  0  0  0  0  0  0  0  0  0  0
    9.8401  -18.5928   22.6543 O   0  0  0  0  0  0  0  0  0  0  0  0
  1  2  1  0
  3  2  1  0
  4  3  1  0
  5  4  1  0
  5  6  1  6
  7  8  2  0
  7  5  1  0
 10  9  1  6
 10 11  1  0
 12 10  1  0
 13 12  1  6
 13 14  1  0
 14  7  1  0
 15 20  1  0
 15 13  1  0
 16 15  2  0
 19 18  1  1
 18 17  1  0
 19 20  1  0
 19 21  1  0
 21 22  1  0
 23 21  2  0
M  END
$$$$
