MLS.pdb
     RDKit          3D

 23 22  0  0  1  0  0  0  0  0999 V2000
    8.5062  -12.0848   19.5612 C   0  0  0  0  0  0  0  0  0  0  0  0
    6.9305  -12.9327   19.8785 S   0  0  0  0  0  0  0  0  0  0  0  0
    7.2312  -14.7100   19.7301 C   0  0  0  0  0  0  0  0  0  0  0  0
    7.4249  -15.2559   21.1253 C   0  0  0  0  0  0  0  0  0  0  0  0
    8.7691  -14.7749   21.6229 C   0  0  2  0  0  0  0  0  0  0  0  0
    9.7961  -15.4467   20.8610 N   0  0  0  0  0  0  0  0  0  0  0  0
    8.8310  -15.1657   23.0769 C   0  0  0  0  0  0  0  0  0  0  0  0
    9.7566  -15.9109   23.4872 O   0  0  0  0  0  0  0  0  0  0  0  0
    5.6288  -12.0140   26.2648 C   0  0  0  0  0  0  0  0  0  0  0  0
    6.8890  -12.7002   25.7632 C   0  0  1  0  0  0  0  0  0  0  0  0
    8.1057  -12.2126   26.5111 C   0  0  0  0  0  0  0  0  0  0  0  0
    6.7600  -14.1834   25.9969 C   0  0  0  0  0  0  0  0  0  0  0  0
    7.9194  -14.8791   25.3498 C   0  0  2  0  0  0  0  0  0  0  0  0
    7.8205  -14.6612   23.9219 N   0  0  0  0  0  0  0  0  0  0  0  0
    7.8822  -16.3524   25.6141 C   0  0  0  0  0  0  0  0  0  0  0  0
    6.8006  -16.9787   25.5614 O   0  0  0  0  0  0  0  0  0  0  0  0
   11.1199  -18.4655   25.1831 O   0  0  0  0  0  0  0  0  0  0  0  0
    9.9044  -19.1599   25.2840 C   0  0  0  0  0  0  0  0  0  0  0  0
    9.0482  -18.4224   26.2832 C   0  0  2  0  0  0  0  0  0  0  0  0
    9.0848  -17.0114   25.9212 N   0  0  0  0  0  0  0  0  0  0  0  0
    9.6462  -18.5624   27.6405 C   0  0  0  0  0  0  0  0  0  0  0  0
    9.7216  -19.8157   28.2527 O   0  0  0  0  0  0  0  0  0  0  0  0
   10.0923  -17.5782   28.2649 O   0  0  0  0  0  0  0  0  0  0  0  0
  1  2  1  0
  3  2  1  0
  4  3  1  0
  5  4  1  0
  5  6  1  6
  7  8  2  0
  7  5  1  0
 10  9  1  1
 10 11  1  0
 12 10  1  0
 13 12  1  1
 13 14  1  0
 14  7  1  0
 15 20  1  0
 15 13  1  0
 16 15  2  0
 19 18  1  6
 18 17  1  0
 19 20  1  0
 19 21  1  0
 21 22  1  0
 23 21  2  0
M  END
$$$$
