MLS.pdb
     RDKit          3D

 23 22  0  0  1  0  0  0  0  0999 V2000
    7.9010  -11.6009   19.8660 C   0  0  0  0  0  0  0  0  0  0  0  0
    7.7419  -13.0214   18.7438 S   0  0  0  0  0  0  0  0  0  0  0  0
    7.8249  -14.5210   19.7517 C   0  0  0  0  0  0  0  0  0  0  0  0
    8.3471  -14.1251   21.1128 C   0  0  0  0  0  0  0  0  0  0  0  0
    8.5926  -15.3945   21.8964 C   0  0  2  0  0  0  0  0  0  0  0  0
    7.3665  -16.1582   21.9087 N   0  0  0  0  0  0  0  0  0  0  0  0
    8.9680  -14.9511   23.2867 C   0  0  0  0  0  0  0  0  0  0  0  0
   10.0572  -14.3544   23.4821 O   0  0  0  0  0  0  0  0  0  0  0  0
    5.6306  -12.5873   26.5857 C   0  0  0  0  0  0  0  0  0  0  0  0
    6.9056  -13.0716   25.9144 C   0  0  1  0  0  0  0  0  0  0  0  0
    8.0724  -12.1789   26.2593 C   0  0  0  0  0  0  0  0  0  0  0  0
    7.2174  -14.4606   26.4092 C   0  0  0  0  0  0  0  0  0  0  0  0
    8.4321  -14.9693   25.6933 C   0  0  2  0  0  0  0  0  0  0  0  0
    8.0533  -15.2366   24.3218 N   0  0  0  0  0  0  0  0  0  0  0  0
    8.9309  -16.2394   26.3096 C   0  0  0  0  0  0  0  0  0  0  0  0
    9.1135  -16.3155   27.5448 O   0  0  0  0  0  0  0  0  0  0  0  0
   10.1529  -19.1577   23.8154 O   0  0  0  0  0  0  0  0  0  0  0  0
    9.6092  -19.6419   25.0153 C   0  0  0  0  0  0  0  0  0  0  0  0
    9.7557  -18.5508   26.0465 C   0  0  2  0  0  0  0  0  0  0  0  0
    9.1878  -17.3382   25.4719 N   0  0  0  0  0  0  0  0  0  0  0  0
   11.2032  -18.3037   26.2981 C   0  0  0  0  0  0  0  0  0  0  0  0
   11.9933  -19.2874   26.8976 O   0  0  0  0  0  0  0  0  0  0  0  0
   11.7479  -17.2252   25.9858 O   0  0  0  0  0  0  0  0  0  0  0  0
  1  2  1  0
  3  2  1  0
  4  3  1  0
  5  4  1  0
  5  6  1  1
  7  8  2  0
  7  5  1  0
 10  9  1  1
 10 11  1  0
 12 10  1  0
 13 12  1  1
 13 14  1  0
 14  7  1  0
 15 20  1  0
 15 13  1  0
 16 15  2  0
 19 18  1  6
 18 17  1  0
 19 20  1  0
 19 21  1  0
 21 22  1  0
 23 21  2  0
M  END
$$$$
