VGP.pdb
     RDKit          3D

 19 19  0  0  1  0  0  0  0  0999 V2000
   27.1401  -21.7094  -12.1292 C   0  0  0  0  0  0  0  0  0  0  0  0
   25.7650  -21.2745  -12.5109 C   0  0  1  0  0  0  0  0  0  0  0  0
   25.2280  -22.0216  -13.6762 C   0  0  0  0  0  0  0  0  0  0  0  0
   24.8233  -21.2073  -11.3148 C   0  0  2  0  0  0  0  0  0  0  0  0
   23.5360  -20.6500  -11.7550 N   0  0  0  0  0  0  0  0  0  0  0  0
   25.3054  -20.3110  -10.2477 C   0  0  0  0  0  0  0  0  0  0  0  0
   24.9948  -19.0819  -10.2167 O   0  0  0  0  0  0  0  0  0  0  0  0
   26.1580  -20.7528   -9.1644 N   0  0  0  0  0  0  0  0  0  0  0  0
   26.5649  -19.8451   -8.1448 C   0  0  0  0  0  0  0  0  0  0  0  0
   27.4172  -20.2730   -7.0711 C   0  0  0  0  0  0  0  0  0  0  0  0
   27.4429  -21.5860   -6.9440 O   0  0  0  0  0  0  0  0  0  0  0  0
   28.2089  -19.5386   -6.1553 N   0  0  0  0  0  0  0  0  0  0  0  0
   28.4323  -18.1312   -6.1142 C   0  0  0  0  0  0  0  0  0  0  0  0
   29.6287  -17.9185   -5.1478 C   0  0  0  0  0  0  0  0  0  0  0  0
   29.4730  -19.0905   -4.2174 C   0  0  0  0  0  0  0  0  0  0  0  0
   28.9791  -20.1808   -5.1180 C   0  0  1  0  0  0  0  0  0  0  0  0
   28.1562  -21.1372   -4.3150 C   0  0  0  0  0  0  0  0  0  0  0  0
   26.9188  -21.0522   -4.3491 O   0  0  0  0  0  0  0  0  0  0  0  0
   28.7712  -22.0902   -3.5558 O   0  0  0  0  0  0  0  0  0  0  0  0
  2  1  1  1
  3  2  1  0
  4  2  1  0
  4  5  1  6
  6  7  2  0
  6  4  1  0
  8  6  1  0
  9 10  1  0
  9  8  1  0
 10 12  1  0
 11 10  2  0
 12 16  1  0
 13 12  1  0
 13 14  1  0
 14 15  1  0
 16 15  1  0
 16 17  1  1
 17 19  1  0
 18 17  2  0
M  END
$$$$
