VGP.pdb
     RDKit          3D

 19 19  0  0  1  0  0  0  0  0999 V2000
-2167366.7500-535329.0625-323349.7500 C   0  0  0  0  0  0  0  0  0  0  0  0
-2167365.7500-535330.0000-323351.1250 C   0  0  1  0  0  0  0  0  0  0  0  0
-2167365.5000-535330.7500-323352.3125 C   0  0  0  0  0  0  0  0  0  0  0  0
-2167366.2500-535328.7500-323351.5938 C   0  0  2  0  0  0  0  0  0  0  0  0
-2167366.0000-535329.0000-323352.7500 N   0  0  0  0  0  0  0  0  0  0  0  0
-2167364.2500-535328.2500-323351.9375 C   0  0  0  0  0  0  0  0  0  0  0  0
-2167363.7500-535328.3750-323352.8750 O   0  0  0  0  0  0  0  0  0  0  0  0
-2167363.0000-535327.0625-323351.1875 N   0  0  0  0  0  0  0  0  0  0  0  0
-2167362.2500-535327.9375-323350.2812 C   0  0  0  0  0  0  0  0  0  0  0  0
-2167361.5000-535328.0000-323349.1875 C   0  0  0  0  0  0  0  0  0  0  0  0
-2167360.5000-535327.6250-323348.0938 O   0  0  0  0  0  0  0  0  0  0  0  0
-2167363.5000-535327.5625-323349.0625 N   0  0  0  0  0  0  0  0  0  0  0  0
-2167364.5000-535327.8750-323349.8125 C   0  0  0  0  0  0  0  0  0  0  0  0
-2167365.2500-535326.8750-323349.1250 C   0  0  0  0  0  0  0  0  0  0  0  0
-2167364.7500-535326.5000-323347.7500 C   0  0  0  0  0  0  0  0  0  0  0  0
-2167363.2500-535326.4375-323347.8438 C   0  0  1  0  0  0  0  0  0  0  0  0
-2167363.2500-535327.1250-323346.4688 C   0  0  0  0  0  0  0  0  0  0  0  0
-2167363.2500-535325.8125-323345.5000 O   0  0  0  0  0  0  0  0  0  0  0  0
-2167362.5000-535327.7500-323345.5000 O   0  0  0  0  0  0  0  0  0  0  0  0
  2  1  1  1
  3  2  1  0
  4  2  1  0
  4  5  1  6
  6  7  2  0
  6  4  1  0
  8  6  1  0
  9 10  1  0
  9  8  1  0
 10 12  1  0
 11 10  2  0
 12 16  1  0
 13 12  1  0
 13 14  1  0
 14 15  1  0
 16 15  1  0
 16 17  1  1
 17 19  1  0
 18 17  2  0
M  END
$$$$
