VGP.pdb
     RDKit          3D

 19 19  0  0  1  0  0  0  0  0999 V2000
   16.3997  -10.0600  -18.4464 C   0  0  0  0  0  0  0  0  0  0  0  0
   16.1248  -11.5263  -18.4542 C   0  0  1  0  0  0  0  0  0  0  0  0
   14.8681  -11.8723  -19.1652 C   0  0  0  0  0  0  0  0  0  0  0  0
   17.3381  -12.3432  -18.8816 C   0  0  2  0  0  0  0  0  0  0  0  0
   17.0037  -13.7720  -18.7920 N   0  0  0  0  0  0  0  0  0  0  0  0
   18.5063  -12.1480  -18.0031 C   0  0  0  0  0  0  0  0  0  0  0  0
   18.6152  -12.7508  -16.8928 O   0  0  0  0  0  0  0  0  0  0  0  0
   19.6079  -11.2677  -18.3305 N   0  0  0  0  0  0  0  0  0  0  0  0
   20.7377  -11.1677  -17.4688 C   0  0  0  0  0  0  0  0  0  0  0  0
   20.7358  -10.2692  -16.3484 C   0  0  0  0  0  0  0  0  0  0  0  0
   19.6732   -9.4872  -16.3345 O   0  0  0  0  0  0  0  0  0  0  0  0
   21.6596  -10.0909  -15.2904 N   0  0  0  0  0  0  0  0  0  0  0  0
   22.8097  -10.8752  -14.9828 C   0  0  0  0  0  0  0  0  0  0  0  0
   23.2429  -10.4523  -13.5531 C   0  0  0  0  0  0  0  0  0  0  0  0
   22.7746   -9.0232  -13.5097 C   0  0  0  0  0  0  0  0  0  0  0  0
   21.5019   -9.0546  -14.2989 C   0  0  1  0  0  0  0  0  0  0  0  0
   21.2822   -7.7110  -14.9179 C   0  0  0  0  0  0  0  0  0  0  0  0
   21.7305   -7.4833  -16.0522 O   0  0  0  0  0  0  0  0  0  0  0  0
   20.5937   -6.7524  -14.2325 O   0  0  0  0  0  0  0  0  0  0  0  0
  2  1  1  6
  3  2  1  0
  4  2  1  0
  4  5  1  1
  6  7  2  0
  6  4  1  0
  8  6  1  0
  9 10  1  0
  9  8  1  0
 10 12  1  0
 11 10  2  0
 12 16  1  0
 13 12  1  0
 13 14  1  0
 14 15  1  0
 16 15  1  0
 16 17  1  6
 17 19  1  0
 18 17  2  0
M  END
$$$$
