VGP.pdb
     RDKit          3D

 19 19  0  0  1  0  0  0  0  0999 V2000
   26.0778  -15.5815  -14.5024 C   0  0  0  0  0  0  0  0  0  0  0  0
   25.7171  -14.3339  -15.2367 C   0  0  1  0  0  0  0  0  0  0  0  0
   26.4968  -14.1570  -16.4878 C   0  0  0  0  0  0  0  0  0  0  0  0
   24.2111  -14.1714  -15.4023 C   0  0  2  0  0  0  0  0  0  0  0  0
   23.7185  -15.2144  -16.3138 N   0  0  0  0  0  0  0  0  0  0  0  0
   23.8316  -12.8868  -16.0190 C   0  0  0  0  0  0  0  0  0  0  0  0
   23.4785  -12.8079  -17.2344 O   0  0  0  0  0  0  0  0  0  0  0  0
   23.8295  -11.6305  -15.2998 N   0  0  0  0  0  0  0  0  0  0  0  0
   23.3931  -10.4320  -15.9341 C   0  0  0  0  0  0  0  0  0  0  0  0
   22.5478   -9.4969  -15.2460 C   0  0  0  0  0  0  0  0  0  0  0  0
   21.9735  -10.0278  -14.1833 O   0  0  0  0  0  0  0  0  0  0  0  0
   22.2394   -8.1413  -15.5141 N   0  0  0  0  0  0  0  0  0  0  0  0
   22.7425   -7.3130  -16.5596 C   0  0  0  0  0  0  0  0  0  0  0  0
   22.3488   -5.8603  -16.1782 C   0  0  0  0  0  0  0  0  0  0  0  0
   21.0860   -6.0896  -15.3932 C   0  0  0  0  0  0  0  0  0  0  0  0
   21.3603   -7.3712  -14.6679 C   0  0  1  0  0  0  0  0  0  0  0  0
   20.0636   -8.0725  -14.4158 C   0  0  0  0  0  0  0  0  0  0  0  0
   19.4342   -7.8311  -13.3740 O   0  0  0  0  0  0  0  0  0  0  0  0
   19.5870   -8.9672  -15.3296 O   0  0  0  0  0  0  0  0  0  0  0  0
  2  1  1  6
  3  2  1  0
  4  2  1  0
  4  5  1  6
  6  7  2  0
  6  4  1  0
  8  6  1  0
  9 10  1  0
  9  8  1  0
 10 12  1  0
 11 10  2  0
 12 16  1  0
 13 12  1  0
 13 14  1  0
 14 15  1  0
 16 15  1  0
 16 17  1  6
 17 19  1  0
 18 17  2  0
M  END
$$$$
