VGP.pdb
     RDKit          3D

 19 19  0  0  1  0  0  0  0  0999 V2000
   16.3784  -24.0344  -14.3771 C   0  0  0  0  0  0  0  0  0  0  0  0
   16.6450  -24.3227  -12.9378 C   0  0  1  0  0  0  0  0  0  0  0  0
   16.0567  -25.6105  -12.4905 C   0  0  0  0  0  0  0  0  0  0  0  0
   18.1117  -24.1361  -12.5693 C   0  0  2  0  0  0  0  0  0  0  0  0
   18.9238  -25.0649  -13.3690 N   0  0  0  0  0  0  0  0  0  0  0  0
   18.4006  -24.4606  -11.1602 C   0  0  0  0  0  0  0  0  0  0  0  0
   18.8453  -25.5966  -10.8140 O   0  0  0  0  0  0  0  0  0  0  0  0
   18.2050  -23.5244  -10.0735 N   0  0  0  0  0  0  0  0  0  0  0  0
   18.4253  -23.9231   -8.7238 C   0  0  0  0  0  0  0  0  0  0  0  0
   17.3974  -24.5866   -7.9717 C   0  0  0  0  0  0  0  0  0  0  0  0
   16.2783  -24.7168   -8.6585 O   0  0  0  0  0  0  0  0  0  0  0  0
   17.3893  -25.1068   -6.6549 N   0  0  0  0  0  0  0  0  0  0  0  0
   18.4924  -25.2796   -5.7686 C   0  0  0  0  0  0  0  0  0  0  0  0
   17.9780  -26.1913   -4.6220 C   0  0  0  0  0  0  0  0  0  0  0  0
   16.5165  -25.8358   -4.5907 C   0  0  0  0  0  0  0  0  0  0  0  0
   16.1873  -25.6085   -6.0342 C   0  0  1  0  0  0  0  0  0  0  0  0
   15.0565  -24.6339   -6.1258 C   0  0  0  0  0  0  0  0  0  0  0  0
   15.2995  -23.4417   -6.3688 O   0  0  0  0  0  0  0  0  0  0  0  0
   13.7741  -25.0632   -5.9421 O   0  0  0  0  0  0  0  0  0  0  0  0
  2  1  1  6
  3  2  1  0
  4  2  1  0
  4  5  1  6
  6  7  2  0
  6  4  1  0
  8  6  1  0
  9 10  1  0
  9  8  1  0
 10 12  1  0
 11 10  2  0
 12 16  1  0
 13 12  1  0
 13 14  1  0
 14 15  1  0
 16 15  1  0
 16 17  1  1
 17 19  1  0
 18 17  2  0
M  END
$$$$
