VGP.pdb
     RDKit          3D

 19 19  0  0  1  0  0  0  0  0999 V2000
   23.1456  -17.9248  -15.4342 C   0  0  0  0  0  0  0  0  0  0  0  0
   22.7360  -19.2834  -14.9735 C   0  0  1  0  0  0  0  0  0  0  0  0
   21.6986  -19.8965  -15.8409 C   0  0  0  0  0  0  0  0  0  0  0  0
   23.9305  -20.1840  -14.6838 C   0  0  2  0  0  0  0  0  0  0  0  0
   23.4387  -21.4995  -14.2489 N   0  0  0  0  0  0  0  0  0  0  0  0
   24.7767  -19.6873  -13.5830 C   0  0  0  0  0  0  0  0  0  0  0  0
   25.4206  -18.5987  -13.6743 O   0  0  0  0  0  0  0  0  0  0  0  0
   24.9389  -20.3892  -12.3272 N   0  0  0  0  0  0  0  0  0  0  0  0
   25.7048  -19.8183  -11.2706 C   0  0  0  0  0  0  0  0  0  0  0  0
   25.8414  -20.4912  -10.0092 C   0  0  0  0  0  0  0  0  0  0  0  0
   25.2859  -21.6879  -10.0166 O   0  0  0  0  0  0  0  0  0  0  0  0
   26.4550  -20.0920   -8.7973 N   0  0  0  0  0  0  0  0  0  0  0  0
   27.3249  -18.9852   -8.5725 C   0  0  0  0  0  0  0  0  0  0  0  0
   27.9622  -19.2218   -7.1766 C   0  0  0  0  0  0  0  0  0  0  0  0
   26.8771  -19.9974   -6.4806 C   0  0  0  0  0  0  0  0  0  0  0  0
   26.3039  -20.8441   -7.5753 C   0  0  1  0  0  0  0  0  0  0  0  0
   24.8696  -21.1323   -7.2644 C   0  0  0  0  0  0  0  0  0  0  0  0
   23.9879  -20.3822   -7.7110 O   0  0  0  0  0  0  0  0  0  0  0  0
   24.5457  -22.2128   -6.4961 O   0  0  0  0  0  0  0  0  0  0  0  0
  2  1  1  6
  3  2  1  0
  4  2  1  0
  4  5  1  1
  6  7  2  0
  6  4  1  0
  8  6  1  0
  9 10  1  0
  9  8  1  0
 10 12  1  0
 11 10  2  0
 12 16  1  0
 13 12  1  0
 13 14  1  0
 14 15  1  0
 16 15  1  0
 16 17  1  1
 17 19  1  0
 18 17  2  0
M  END
$$$$
