VGP.pdb
     RDKit          3D

 19 19  0  0  1  0  0  0  0  0999 V2000
   23.4220  -12.2524  -17.7373 C   0  0  0  0  0  0  0  0  0  0  0  0
   22.6113  -13.3297  -17.0987 C   0  0  1  0  0  0  0  0  0  0  0  0
   23.3032  -14.6434  -17.0927 C   0  0  0  0  0  0  0  0  0  0  0  0
   22.0442  -12.9080  -15.7487 C   0  0  2  0  0  0  0  0  0  0  0  0
   21.1854  -13.9860  -15.2370 N   0  0  0  0  0  0  0  0  0  0  0  0
   21.1840  -11.7131  -15.8296 C   0  0  0  0  0  0  0  0  0  0  0  0
   20.1152  -11.7044  -16.5121 O   0  0  0  0  0  0  0  0  0  0  0  0
   21.4827  -10.4718  -15.1470 N   0  0  0  0  0  0  0  0  0  0  0  0
   20.6413   -9.3339  -15.3093 C   0  0  0  0  0  0  0  0  0  0  0  0
   21.1862   -8.0052  -15.3073 C   0  0  0  0  0  0  0  0  0  0  0  0
   22.4907   -7.9984  -15.1091 O   0  0  0  0  0  0  0  0  0  0  0  0
   20.5712   -6.7413  -15.4773 N   0  0  0  0  0  0  0  0  0  0  0  0
   19.2303   -6.4593  -15.8710 C   0  0  0  0  0  0  0  0  0  0  0  0
   19.2006   -4.9486  -16.2280 C   0  0  0  0  0  0  0  0  0  0  0  0
   20.2775   -4.4077  -15.3272 C   0  0  0  0  0  0  0  0  0  0  0  0
   21.2969   -5.5051  -15.3133 C   0  0  1  0  0  0  0  0  0  0  0  0
   22.0431   -5.4570  -14.0181 C   0  0  0  0  0  0  0  0  0  0  0  0
   21.6408   -6.1338  -13.0590 O   0  0  0  0  0  0  0  0  0  0  0  0
   23.1543   -4.6730  -13.9037 O   0  0  0  0  0  0  0  0  0  0  0  0
  2  1  1  1
  3  2  1  0
  4  2  1  0
  4  5  1  6
  6  7  2  0
  6  4  1  0
  8  6  1  0
  9 10  1  0
  9  8  1  0
 10 12  1  0
 11 10  2  0
 12 16  1  0
 13 12  1  0
 13 14  1  0
 14 15  1  0
 16 15  1  0
 16 17  1  1
 17 19  1  0
 18 17  2  0
M  END
$$$$
