SSK.pdb
     RDKit          3D

 22 21  0  0  1  0  0  0  0  0999 V2000
    5.5592  -18.9338   20.3712 O   0  0  0  0  0  0  0  0  0  0  0  0
    4.9744  -18.2040   19.3616 C   0  0  0  0  0  0  0  0  0  0  0  0
    5.9471  -17.7379   18.3108 C   0  0  2  0  0  0  0  0  0  0  0  0
    6.2686  -18.8417   17.4635 N   0  0  0  0  0  0  0  0  0  0  0  0
    7.1176  -17.0341   18.8514 C   0  0  0  0  0  0  0  0  0  0  0  0
    8.2012  -17.6532   19.0088 O   0  0  0  0  0  0  0  0  0  0  0  0
    7.8499  -13.0210   18.6101 O   0  0  0  0  0  0  0  0  0  0  0  0
    8.1082  -13.5121   19.8946 C   0  0  0  0  0  0  0  0  0  0  0  0
    8.2613  -14.9938   19.7898 C   0  0  2  0  0  0  0  0  0  0  0  0
    7.1159  -15.6543   19.2234 N   0  0  0  0  0  0  0  0  0  0  0  0
    8.6044  -15.5263   21.1366 C   0  0  0  0  0  0  0  0  0  0  0  0
    7.6954  -16.0563   21.7707 O   0  0  0  0  0  0  0  0  0  0  0  0
    9.9033  -15.4267   21.6551 N   0  0  0  0  0  0  0  0  0  0  0  0
   10.4995  -16.2544   22.6448 C   0  0  1  0  0  0  0  0  0  0  0  0
   10.4192  -17.7087   22.3859 C   0  0  0  0  0  0  0  0  0  0  0  0
   11.0560  -18.6183   23.3704 C   0  0  0  0  0  0  0  0  0  0  0  0
   10.9112  -20.0809   23.0216 C   0  0  0  0  0  0  0  0  0  0  0  0
   11.5091  -20.9098   24.1493 C   0  0  0  0  0  0  0  0  0  0  0  0
   11.3052  -22.3188   23.9539 N   0  0  0  0  0  0  0  0  0  0  0  0
   11.8554  -15.7580   23.0354 C   0  0  0  0  0  0  0  0  0  0  0  0
   12.7184  -15.1179   22.1492 O   0  0  0  0  0  0  0  0  0  0  0  0
   12.2646  -15.9062   24.1958 O   0  0  0  0  0  0  0  0  0  0  0  0
  1  2  1  0
  2  3  1  0
  3  4  1  1
  5 10  1  0
  5  3  1  0
  6  5  2  0
  9  8  1  1
  8  7  1  0
  9 11  1  0
  9 10  1  0
 11 13  1  0
 12 11  2  0
 13 14  1  0
 14 20  1  0
 14 15  1  6
 16 15  1  0
 17 16  1  0
 18 17  1  0
 19 18  1  0
 20 21  1  0
 22 20  2  0
M  END
$$$$
