SSK.pdb
     RDKit          3D

 22 21  0  0  1  0  0  0  0  0999 V2000
    7.7309  -15.8549   19.2363 O   0  0  0  0  0  0  0  0  0  0  0  0
    6.8096  -14.8366   19.3261 C   0  0  0  0  0  0  0  0  0  0  0  0
    7.3754  -13.5567   19.8825 C   0  0  2  0  0  0  0  0  0  0  0  0
    8.1131  -12.8972   18.8527 N   0  0  0  0  0  0  0  0  0  0  0  0
    8.1181  -13.7287   21.1381 C   0  0  0  0  0  0  0  0  0  0  0  0
    9.3725  -13.6360   21.1397 O   0  0  0  0  0  0  0  0  0  0  0  0
    6.2694  -14.6122   24.7781 O   0  0  0  0  0  0  0  0  0  0  0  0
    7.4663  -13.8912   24.8494 C   0  0  0  0  0  0  0  0  0  0  0  0
    8.2481  -14.1893   23.6124 C   0  0  2  0  0  0  0  0  0  0  0  0
    7.5009  -14.0023   22.3976 N   0  0  0  0  0  0  0  0  0  0  0  0
    8.7963  -15.5683   23.7249 C   0  0  0  0  0  0  0  0  0  0  0  0
    8.1493  -16.4667   23.1924 O   0  0  0  0  0  0  0  0  0  0  0  0
    9.9939  -15.8277   24.4066 N   0  0  0  0  0  0  0  0  0  0  0  0
   10.5849  -17.0965   24.6533 C   0  0  1  0  0  0  0  0  0  0  0  0
   11.8910  -17.3247   23.9973 C   0  0  0  0  0  0  0  0  0  0  0  0
   11.9384  -18.3021   22.8817 C   0  0  0  0  0  0  0  0  0  0  0  0
   13.3161  -18.4698   22.2851 C   0  0  0  0  0  0  0  0  0  0  0  0
   13.2225  -19.4360   21.1128 C   0  0  0  0  0  0  0  0  0  0  0  0
   14.4840  -19.6028   20.4453 N   0  0  0  0  0  0  0  0  0  0  0  0
   10.5381  -17.4539   26.1051 C   0  0  0  0  0  0  0  0  0  0  0  0
   10.8359  -18.7259   26.5880 O   0  0  0  0  0  0  0  0  0  0  0  0
   10.2229  -16.6021   26.9483 O   0  0  0  0  0  0  0  0  0  0  0  0
  1  2  1  0
  2  3  1  0
  3  4  1  6
  5 10  1  0
  5  3  1  0
  6  5  2  0
  9  8  1  1
  8  7  1  0
  9 11  1  0
  9 10  1  0
 11 13  1  0
 12 11  2  0
 13 14  1  0
 14 20  1  0
 14 15  1  1
 16 15  1  0
 17 16  1  0
 18 17  1  0
 19 18  1  0
 20 21  1  0
 22 20  2  0
M  END
$$$$
