SSK.pdb
     RDKit          3D

 22 21  0  0  1  0  0  0  0  0999 V2000
    5.7451  -18.8254   20.7101 O   0  0  0  0  0  0  0  0  0  0  0  0
    5.1386  -17.9888   19.8012 C   0  0  0  0  0  0  0  0  0  0  0  0
    6.0183  -17.6236   18.6348 C   0  0  2  0  0  0  0  0  0  0  0  0
    6.2540  -18.7966   17.8550 N   0  0  0  0  0  0  0  0  0  0  0  0
    7.2380  -16.8971   19.0118 C   0  0  0  0  0  0  0  0  0  0  0  0
    8.3324  -17.5121   19.0902 O   0  0  0  0  0  0  0  0  0  0  0  0
    7.9731  -12.8837   18.5644 O   0  0  0  0  0  0  0  0  0  0  0  0
    8.3126  -13.3410   19.8425 C   0  0  0  0  0  0  0  0  0  0  0  0
    8.4577  -14.8254   19.7678 C   0  0  2  0  0  0  0  0  0  0  0  0
    7.2739  -15.4990   19.3055 N   0  0  0  0  0  0  0  0  0  0  0  0
    8.8987  -15.3211   21.1000 C   0  0  0  0  0  0  0  0  0  0  0  0
    8.0218  -15.7304   21.8568 O   0  0  0  0  0  0  0  0  0  0  0  0
   10.2507  -15.3201   21.4717 N   0  0  0  0  0  0  0  0  0  0  0  0
   10.8334  -15.9652   22.5962 C   0  0  1  0  0  0  0  0  0  0  0  0
   10.5011  -17.3989   22.7459 C   0  0  0  0  0  0  0  0  0  0  0  0
   11.1323  -18.1372   23.8678 C   0  0  0  0  0  0  0  0  0  0  0  0
   10.7364  -19.5937   23.9295 C   0  0  0  0  0  0  0  0  0  0  0  0
   11.4586  -20.2431   25.1013 C   0  0  0  0  0  0  0  0  0  0  0  0
   10.9962  -21.5809   25.3494 N   0  0  0  0  0  0  0  0  0  0  0  0
   12.2872  -15.6384   22.7275 C   0  0  0  0  0  0  0  0  0  0  0  0
   12.9798  -15.7101   23.9338 O   0  0  0  0  0  0  0  0  0  0  0  0
   12.9397  -15.2827   21.7357 O   0  0  0  0  0  0  0  0  0  0  0  0
  1  2  1  0
  2  3  1  0
  3  4  1  1
  5 10  1  0
  5  3  1  0
  6  5  2  0
  9  8  1  1
  8  7  1  0
  9 11  1  0
  9 10  1  0
 11 13  1  0
 12 11  2  0
 13 14  1  0
 14 20  1  0
 14 15  1  6
 16 15  1  0
 17 16  1  0
 18 17  1  0
 19 18  1  0
 20 21  1  0
 22 20  2  0
M  END
$$$$
