SSK.pdb
     RDKit          3D

 22 21  0  0  1  0  0  0  0  0999 V2000
    4.8979  -18.0484   21.1151 O   0  0  0  0  0  0  0  0  0  0  0  0
    4.5815  -17.3896   19.9491 C   0  0  0  0  0  0  0  0  0  0  0  0
    5.6571  -17.4700   18.8981 C   0  0  2  0  0  0  0  0  0  0  0  0
    5.7553  -18.8214   18.4469 N   0  0  0  0  0  0  0  0  0  0  0  0
    6.9376  -16.8786   19.3083 C   0  0  0  0  0  0  0  0  0  0  0  0
    7.8980  -17.6262   19.6256 O   0  0  0  0  0  0  0  0  0  0  0  0
    7.2776  -12.9610   19.2606 O   0  0  0  0  0  0  0  0  0  0  0  0
    8.5415  -13.4438   19.6171 C   0  0  0  0  0  0  0  0  0  0  0  0
    8.4124  -14.9114   19.8617 C   0  0  2  0  0  0  0  0  0  0  0  0
    7.1801  -15.4718   19.3756 N   0  0  0  0  0  0  0  0  0  0  0  0
    8.6061  -15.1634   21.3156 C   0  0  0  0  0  0  0  0  0  0  0  0
    7.5991  -15.1485   22.0193 O   0  0  0  0  0  0  0  0  0  0  0  0
    9.8776  -15.4059   21.8546 N   0  0  0  0  0  0  0  0  0  0  0  0
   10.1912  -16.1894   22.9982 C   0  0  1  0  0  0  0  0  0  0  0  0
    9.6310  -17.5585   23.0005 C   0  0  0  0  0  0  0  0  0  0  0  0
    9.2323  -18.1358   24.3081 C   0  0  0  0  0  0  0  0  0  0  0  0
    8.5751  -19.4911   24.1936 C   0  0  0  0  0  0  0  0  0  0  0  0
    8.3607  -20.0459   25.5946 C   0  0  0  0  0  0  0  0  0  0  0  0
    7.2864  -20.9991   25.6420 N   0  0  0  0  0  0  0  0  0  0  0  0
   11.6437  -16.1025   23.3450 C   0  0  0  0  0  0  0  0  0  0  0  0
   12.1372  -15.2970   24.3685 O   0  0  0  0  0  0  0  0  0  0  0  0
   12.4779  -16.7653   22.7120 O   0  0  0  0  0  0  0  0  0  0  0  0
  1  2  1  0
  2  3  1  0
  3  4  1  1
  5 10  1  0
  5  3  1  0
  6  5  2  0
  9  8  1  1
  8  7  1  0
  9 11  1  0
  9 10  1  0
 11 13  1  0
 12 11  2  0
 13 14  1  0
 14 20  1  0
 14 15  1  6
 16 15  1  0
 17 16  1  0
 18 17  1  0
 19 18  1  0
 20 21  1  0
 22 20  2  0
M  END
$$$$
