SSK.pdb
     RDKit          3D

 22 21  0  0  1  0  0  0  0  0999 V2000
    8.5114  -16.0701   17.0054 O   0  0  0  0  0  0  0  0  0  0  0  0
    7.4765  -15.1641   16.9618 C   0  0  0  0  0  0  0  0  0  0  0  0
    7.7965  -13.8483   17.6207 C   0  0  2  0  0  0  0  0  0  0  0  0
    8.6934  -13.1220   16.7794 N   0  0  0  0  0  0  0  0  0  0  0  0
    8.2460  -13.9721   19.0136 C   0  0  0  0  0  0  0  0  0  0  0  0
    9.4745  -13.9297   19.2798 O   0  0  0  0  0  0  0  0  0  0  0  0
    7.2957  -14.3200   23.7469 O   0  0  0  0  0  0  0  0  0  0  0  0
    6.7238  -14.4372   22.4753 C   0  0  0  0  0  0  0  0  0  0  0  0
    7.8252  -14.3299   21.4725 C   0  0  2  0  0  0  0  0  0  0  0  0
    7.3622  -14.1427   20.1236 N   0  0  0  0  0  0  0  0  0  0  0  0
    8.6968  -15.5292   21.6030 C   0  0  0  0  0  0  0  0  0  0  0  0
    8.4035  -16.5045   20.9160 O   0  0  0  0  0  0  0  0  0  0  0  0
    9.7994  -15.5432   22.4692 N   0  0  0  0  0  0  0  0  0  0  0  0
   10.7056  -16.6158   22.6895 C   0  0  1  0  0  0  0  0  0  0  0  0
   11.9878  -16.5215   21.9578 C   0  0  0  0  0  0  0  0  0  0  0  0
   12.9585  -17.6311   22.1263 C   0  0  0  0  0  0  0  0  0  0  0  0
   14.2493  -17.4232   21.3696 C   0  0  0  0  0  0  0  0  0  0  0  0
   15.1574  -18.6182   21.6223 C   0  0  0  0  0  0  0  0  0  0  0  0
   16.3366  -18.5865   20.8017 N   0  0  0  0  0  0  0  0  0  0  0  0
   10.8328  -16.9405   24.1442 C   0  0  0  0  0  0  0  0  0  0  0  0
   11.5030  -18.0651   24.6194 O   0  0  0  0  0  0  0  0  0  0  0  0
   10.3295  -16.1953   24.9970 O   0  0  0  0  0  0  0  0  0  0  0  0
  1  2  1  0
  2  3  1  0
  3  4  1  6
  5 10  1  0
  5  3  1  0
  6  5  2  0
  9  8  1  1
  8  7  1  0
  9 11  1  0
  9 10  1  0
 11 13  1  0
 12 11  2  0
 13 14  1  0
 14 20  1  0
 14 15  1  1
 16 15  1  0
 17 16  1  0
 18 17  1  0
 19 18  1  0
 20 21  1  0
 22 20  2  0
M  END
$$$$
