SSK.pdb
     RDKit          3D

 22 21  0  0  1  0  0  0  0  0999 V2000
    7.7291  -17.8638   16.8807 O   0  0  0  0  0  0  0  0  0  0  0  0
    7.2101  -16.8301   16.1351 C   0  0  0  0  0  0  0  0  0  0  0  0
    8.1706  -15.6877   15.9344 C   0  0  2  0  0  0  0  0  0  0  0  0
    9.0924  -16.0414   14.9024 N   0  0  0  0  0  0  0  0  0  0  0  0
    8.8058  -15.2175   17.1725 C   0  0  0  0  0  0  0  0  0  0  0  0
    9.9871  -15.5587   17.4373 O   0  0  0  0  0  0  0  0  0  0  0  0
    6.7465  -13.5135   20.4010 O   0  0  0  0  0  0  0  0  0  0  0  0
    7.9939  -12.9464   20.1181 C   0  0  0  0  0  0  0  0  0  0  0  0
    8.7864  -13.9553   19.3537 C   0  0  2  0  0  0  0  0  0  0  0  0
    8.1600  -14.3742   18.1286 N   0  0  0  0  0  0  0  0  0  0  0  0
    9.0767  -15.1040   20.2544 C   0  0  0  0  0  0  0  0  0  0  0  0
    8.3591  -16.0943   20.1379 O   0  0  0  0  0  0  0  0  0  0  0  0
   10.1196  -15.0562   21.1905 N   0  0  0  0  0  0  0  0  0  0  0  0
   10.5675  -16.1099   22.0326 C   0  0  1  0  0  0  0  0  0  0  0  0
   10.8246  -17.3981   21.3523 C   0  0  0  0  0  0  0  0  0  0  0  0
   11.2083  -18.5566   22.1965 C   0  0  0  0  0  0  0  0  0  0  0  0
   11.4605  -19.8200   21.4079 C   0  0  0  0  0  0  0  0  0  0  0  0
   11.7351  -20.9546   22.3846 C   0  0  0  0  0  0  0  0  0  0  0  0
   11.8482  -22.2249   21.7224 N   0  0  0  0  0  0  0  0  0  0  0  0
   11.6555  -15.6556   22.9533 C   0  0  0  0  0  0  0  0  0  0  0  0
   12.3590  -14.4668   22.7755 O   0  0  0  0  0  0  0  0  0  0  0  0
   11.9736  -16.3452   23.9326 O   0  0  0  0  0  0  0  0  0  0  0  0
  1  2  1  0
  2  3  1  0
  3  4  1  6
  5 10  1  0
  5  3  1  0
  6  5  2  0
  9  8  1  1
  8  7  1  0
  9 11  1  0
  9 10  1  0
 11 13  1  0
 12 11  2  0
 13 14  1  0
 14 20  1  0
 14 15  1  6
 16 15  1  0
 17 16  1  0
 18 17  1  0
 19 18  1  0
 20 21  1  0
 22 20  2  0
M  END
$$$$
