SSK.pdb
     RDKit          3D

 22 21  0  0  1  0  0  0  0  0999 V2000
   12.8967  -22.9569   25.1314 O   0  0  0  0  0  0  0  0  0  0  0  0
   11.5585  -23.1574   25.3820 C   0  0  0  0  0  0  0  0  0  0  0  0
   10.8126  -21.8960   25.7290 C   0  0  2  0  0  0  0  0  0  0  0  0
   10.8183  -21.0337   24.5906 N   0  0  0  0  0  0  0  0  0  0  0  0
   11.2678  -21.2560   26.9703 C   0  0  0  0  0  0  0  0  0  0  0  0
   12.1908  -20.4025   26.9311 O   0  0  0  0  0  0  0  0  0  0  0  0
    9.3490  -21.5447   30.7415 O   0  0  0  0  0  0  0  0  0  0  0  0
   10.1253  -20.4409   30.3716 C   0  0  0  0  0  0  0  0  0  0  0  0
   11.2088  -20.9322   29.4689 C   0  0  2  0  0  0  0  0  0  0  0  0
   10.7218  -21.5407   28.2599 N   0  0  0  0  0  0  0  0  0  0  0  0
   12.0842  -21.8525   30.2446 C   0  0  0  0  0  0  0  0  0  0  0  0
   12.0012  -23.0495   29.9808 O   0  0  0  0  0  0  0  0  0  0  0  0
   12.9609  -21.3743   31.2288 N   0  0  0  0  0  0  0  0  0  0  0  0
   13.9479  -22.1151   31.9340 C   0  0  1  0  0  0  0  0  0  0  0  0
   14.8459  -22.9350   31.0916 C   0  0  0  0  0  0  0  0  0  0  0  0
   15.8724  -23.7570   31.7790 C   0  0  0  0  0  0  0  0  0  0  0  0
   16.7966  -24.4843   30.8309 C   0  0  0  0  0  0  0  0  0  0  0  0
   17.7705  -25.3203   31.6490 C   0  0  0  0  0  0  0  0  0  0  0  0
   18.6746  -26.0672   30.8185 N   0  0  0  0  0  0  0  0  0  0  0  0
   14.6398  -21.2749   32.9601 C   0  0  0  0  0  0  0  0  0  0  0  0
   15.3613  -21.8100   34.0245 O   0  0  0  0  0  0  0  0  0  0  0  0
   14.5900  -20.0384   32.8919 O   0  0  0  0  0  0  0  0  0  0  0  0
  1  2  1  0
  2  3  1  0
  3  4  1  6
  5 10  1  0
  5  3  1  0
  6  5  2  0
  9  8  1  1
  8  7  1  0
  9 11  1  0
  9 10  1  0
 11 13  1  0
 12 11  2  0
 13 14  1  0
 14 20  1  0
 14 15  1  6
 16 15  1  0
 17 16  1  0
 18 17  1  0
 19 18  1  0
 20 21  1  0
 22 20  2  0
M  END
$$$$
