IYH.pdb
     RDKit          3D

 31 32  0  0  1  0  0  0  0  0999 V2000
   11.2066  -19.9000   18.1381 C   0  0  0  0  0  0  0  0  0  0  0  0
   10.1902  -18.7861   18.3487 C   0  0  0  0  0  0  0  0  0  0  0  0
   10.3228  -18.1689   19.7256 C   0  0  2  0  0  0  0  0  0  0  0  0
   10.2223  -19.2825   20.7331 C   0  0  0  0  0  0  0  0  0  0  0  0
    9.2212  -17.1482   19.8669 C   0  0  2  0  0  0  0  0  0  0  0  0
    9.2342  -16.3311   18.6738 N   0  0  0  0  0  0  0  0  0  0  0  0
    9.4067  -16.2676   21.0389 C   0  0  0  0  0  0  0  0  0  0  0  0
   10.5235  -15.6946   21.2567 O   0  0  0  0  0  0  0  0  0  0  0  0
    6.8605  -11.2733   27.9874 O   0  0  0  0  0  0  0  0  0  0  0  0
    6.9155  -12.0784   26.8590 C   0  0  0  0  0  0  0  0  0  0  0  0
    6.4022  -13.3581   26.8413 C   0  0  0  0  0  0  0  0  0  0  0  0
    6.4468  -14.1650   25.7421 C   0  0  0  0  0  0  0  0  0  0  0  0
    7.0207  -13.7257   24.5728 C   0  0  0  0  0  0  0  0  0  0  0  0
    7.1105  -14.5288   23.3462 C   0  0  0  0  0  0  0  0  0  0  0  0
    8.4098  -15.1861   23.1081 C   0  0  2  0  0  0  0  0  0  0  0  0
    8.3283  -16.0647   21.9224 N   0  0  0  0  0  0  0  0  0  0  0  0
    9.0492  -15.9388   24.1578 C   0  0  0  0  0  0  0  0  0  0  0  0
    9.5063  -15.2890   25.1704 O   0  0  0  0  0  0  0  0  0  0  0  0
    7.5423  -12.4264   24.5895 C   0  0  0  0  0  0  0  0  0  0  0  0
    7.4927  -11.6186   25.7051 C   0  0  0  0  0  0  0  0  0  0  0  0
    9.2548  -17.3394   24.2522 N   0  0  0  0  0  0  0  0  0  0  0  0
    9.8949  -17.9533   25.4162 C   0  0  1  0  0  0  0  0  0  0  0  0
   11.1238  -17.1629   25.8082 C   0  0  0  0  0  0  0  0  0  0  0  0
   12.2359  -17.2376   24.8492 C   0  0  0  0  0  0  0  0  0  0  0  0
   12.2020  -17.9120   23.6496 C   0  0  0  0  0  0  0  0  0  0  0  0
   13.4128  -17.7740   23.0545 N   0  0  0  0  0  0  0  0  0  0  0  0
   14.1969  -17.0314   23.8542 C   0  0  0  0  0  0  0  0  0  0  0  0
   13.4742  -16.7150   24.9326 N   0  0  0  0  0  0  0  0  0  0  0  0
    8.9554  -17.9799   26.5460 C   0  0  0  0  0  0  0  0  0  0  0  0
    7.6410  -17.5315   26.3876 O   0  0  0  0  0  0  0  0  0  0  0  0
    9.3067  -18.3990   27.6675 O   0  0  0  0  0  0  0  0  0  0  0  0
  2  3  1  0
  2  1  1  0
  3  4  1  1
  5  3  1  0
  5  6  1  6
  7  5  1  0
  7  8  2  0
  9 10  1  0
 10 11  2  0
 10 20  1  0
 11 12  1  0
 12 13  2  0
 13 14  1  0
 15 14  1  1
 15 16  1  0
 16  7  1  0
 17 15  1  0
 18 17  2  0
 19 13  1  0
 20 19  2  0
 21 17  1  0
 22 21  1  0
 22 29  1  0
 22 23  1  1
 24 23  1  0
 24 25  2  0
 26 25  1  0
 27 26  1  0
 28 27  2  0
 28 24  1  0
 29 31  2  0
 29 30  1  0
M  END
$$$$
