IYH.pdb
     RDKit          3D

 31 32  0  0  1  0  0  0  0  0999 V2000
    9.3115  -14.4254   29.5404 C   0  0  0  0  0  0  0  0  0  0  0  0
    8.2352  -15.1719   28.7641 C   0  0  0  0  0  0  0  0  0  0  0  0
    8.5531  -15.2199   27.2839 C   0  0  2  0  0  0  0  0  0  0  0  0
    8.7458  -13.8027   26.8155 C   0  0  0  0  0  0  0  0  0  0  0  0
    7.4006  -15.9126   26.6004 C   0  0  2  0  0  0  0  0  0  0  0  0
    7.2662  -17.2213   27.2009 N   0  0  0  0  0  0  0  0  0  0  0  0
    7.6182  -16.0841   25.1489 C   0  0  0  0  0  0  0  0  0  0  0  0
    7.9503  -17.2153   24.6661 O   0  0  0  0  0  0  0  0  0  0  0  0
    7.8185  -13.6231   16.5356 O   0  0  0  0  0  0  0  0  0  0  0  0
    7.6244  -13.7065   17.9067 C   0  0  0  0  0  0  0  0  0  0  0  0
    6.8582  -14.6974   18.4834 C   0  0  0  0  0  0  0  0  0  0  0  0
    6.6555  -14.7962   19.8289 C   0  0  0  0  0  0  0  0  0  0  0  0
    7.2214  -13.8880   20.6917 C   0  0  0  0  0  0  0  0  0  0  0  0
    7.0536  -13.9217   22.1506 C   0  0  0  0  0  0  0  0  0  0  0  0
    7.7484  -15.0212   22.8471 C   0  0  2  0  0  0  0  0  0  0  0  0
    7.4538  -14.9759   24.2948 N   0  0  0  0  0  0  0  0  0  0  0  0
    9.1725  -15.1908   22.7033 C   0  0  0  0  0  0  0  0  0  0  0  0
    9.8996  -15.0889   23.7604 O   0  0  0  0  0  0  0  0  0  0  0  0
    7.9996  -12.8813   20.1074 C   0  0  0  0  0  0  0  0  0  0  0  0
    8.1987  -12.7896   18.7466 C   0  0  0  0  0  0  0  0  0  0  0  0
    9.9232  -15.4688   21.5320 N   0  0  0  0  0  0  0  0  0  0  0  0
   11.1213  -16.3085   21.5591 C   0  0  1  0  0  0  0  0  0  0  0  0
   10.7883  -17.6675   22.1343 C   0  0  0  0  0  0  0  0  0  0  0  0
   11.3056  -17.9061   23.4899 C   0  0  0  0  0  0  0  0  0  0  0  0
   12.0099  -16.9916   24.2401 C   0  0  0  0  0  0  0  0  0  0  0  0
   12.3362  -17.5764   25.4194 N   0  0  0  0  0  0  0  0  0  0  0  0
   11.8526  -18.8302   25.4199 C   0  0  0  0  0  0  0  0  0  0  0  0
   11.2336  -19.0152   24.2502 N   0  0  0  0  0  0  0  0  0  0  0  0
   11.6451  -16.4747   20.1960 C   0  0  0  0  0  0  0  0  0  0  0  0
   10.9163  -16.0174   19.0943 O   0  0  0  0  0  0  0  0  0  0  0  0
   12.7452  -17.0263   19.9903 O   0  0  0  0  0  0  0  0  0  0  0  0
  2  3  1  0
  2  1  1  0
  3  4  1  6
  5  3  1  0
  5  6  1  1
  7  5  1  0
  7  8  2  0
  9 10  1  0
 10 11  2  0
 10 20  1  0
 11 12  1  0
 12 13  2  0
 13 14  1  0
 15 14  1  6
 15 16  1  0
 16  7  1  0
 17 15  1  0
 18 17  2  0
 19 13  1  0
 20 19  2  0
 21 17  1  0
 22 21  1  0
 22 29  1  0
 22 23  1  6
 24 23  1  0
 24 25  2  0
 26 25  1  0
 27 26  1  0
 28 27  2  0
 28 24  1  0
 29 31  2  0
 29 30  1  0
M  END
$$$$
