IYH.pdb
     RDKit          3D

 31 32  0  0  1  0  0  0  0  0999 V2000
    7.7917  -19.8629   17.4006 C   0  0  0  0  0  0  0  0  0  0  0  0
    8.4418  -19.6888   18.7664 C   0  0  0  0  0  0  0  0  0  0  0  0
    8.3432  -18.2560   19.2477 C   0  0  2  0  0  0  0  0  0  0  0  0
    8.9578  -17.3792   18.1900 C   0  0  0  0  0  0  0  0  0  0  0  0
    9.0663  -18.1765   20.5691 C   0  0  2  0  0  0  0  0  0  0  0  0
    8.4068  -19.0884   21.4775 N   0  0  0  0  0  0  0  0  0  0  0  0
    9.0303  -16.8219   21.1583 C   0  0  0  0  0  0  0  0  0  0  0  0
    9.6372  -15.8498   20.6016 O   0  0  0  0  0  0  0  0  0  0  0  0
    6.6757  -10.6143   27.2329 O   0  0  0  0  0  0  0  0  0  0  0  0
    6.8171  -11.7514   26.4509 C   0  0  0  0  0  0  0  0  0  0  0  0
    7.5999  -11.7722   25.3158 C   0  0  0  0  0  0  0  0  0  0  0  0
    7.7515  -12.8800   24.5340 C   0  0  0  0  0  0  0  0  0  0  0  0
    7.1136  -14.0552   24.8522 C   0  0  0  0  0  0  0  0  0  0  0  0
    7.2222  -15.2912   24.0658 C   0  0  0  0  0  0  0  0  0  0  0  0
    8.3258  -15.3295   23.0873 C   0  0  2  0  0  0  0  0  0  0  0  0
    8.3127  -16.6116   22.3521 N   0  0  0  0  0  0  0  0  0  0  0  0
    9.6830  -15.0898   23.5094 C   0  0  0  0  0  0  0  0  0  0  0  0
   10.0244  -13.8777   23.7754 O   0  0  0  0  0  0  0  0  0  0  0  0
    6.3184  -14.0354   26.0045 C   0  0  0  0  0  0  0  0  0  0  0  0
    6.1712  -12.9112   26.7881 C   0  0  0  0  0  0  0  0  0  0  0  0
   10.7383  -16.0210   23.6887 N   0  0  0  0  0  0  0  0  0  0  0  0
   11.3349  -16.2748   25.0006 C   0  0  1  0  0  0  0  0  0  0  0  0
   10.2814  -16.7859   25.9584 C   0  0  0  0  0  0  0  0  0  0  0  0
   10.0763  -15.9506   27.1511 C   0  0  0  0  0  0  0  0  0  0  0  0
   10.5043  -14.6495   27.2887 C   0  0  0  0  0  0  0  0  0  0  0  0
   10.1542  -14.2197   28.5265 N   0  0  0  0  0  0  0  0  0  0  0  0
    9.5203  -15.2210   29.1602 C   0  0  0  0  0  0  0  0  0  0  0  0
    9.4807  -16.2583   28.3190 N   0  0  0  0  0  0  0  0  0  0  0  0
   12.4039  -17.2759   24.8773 C   0  0  0  0  0  0  0  0  0  0  0  0
   12.1088  -18.6410   24.9359 O   0  0  0  0  0  0  0  0  0  0  0  0
   13.5934  -16.9337   24.7203 O   0  0  0  0  0  0  0  0  0  0  0  0
  2  3  1  0
  2  1  1  0
  3  4  1  6
  5  3  1  0
  5  6  1  1
  7  5  1  0
  7  8  2  0
  9 10  1  0
 10 11  2  0
 10 20  1  0
 11 12  1  0
 12 13  2  0
 13 14  1  0
 15 14  1  1
 15 16  1  0
 16  7  1  0
 17 15  1  0
 18 17  2  0
 19 13  1  0
 20 19  2  0
 21 17  1  0
 22 21  1  0
 22 29  1  0
 22 23  1  1
 24 23  1  0
 24 25  2  0
 26 25  1  0
 27 26  1  0
 28 27  2  0
 28 24  1  0
 29 31  2  0
 29 30  1  0
M  END
$$$$
