IYH.pdb
     RDKit          3D

 31 32  0  0  1  0  0  0  0  0999 V2000
    6.6628  -10.5916   26.3089 C   0  0  0  0  0  0  0  0  0  0  0  0
    7.0342  -12.0198   26.6838 C   0  0  0  0  0  0  0  0  0  0  0  0
    6.7009  -12.9892   25.5687 C   0  0  2  0  0  0  0  0  0  0  0  0
    5.2269  -12.8697   25.2895 C   0  0  0  0  0  0  0  0  0  0  0  0
    7.0997  -14.3662   26.0381 C   0  0  2  0  0  0  0  0  0  0  0  0
    8.2909  -14.2189   26.8450 N   0  0  0  0  0  0  0  0  0  0  0  0
    7.4023  -15.2842   24.9205 C   0  0  0  0  0  0  0  0  0  0  0  0
    6.5032  -16.0475   24.4388 O   0  0  0  0  0  0  0  0  0  0  0  0
    5.6871  -13.0052   18.9699 O   0  0  0  0  0  0  0  0  0  0  0  0
    6.6622  -13.6053   19.7532 C   0  0  0  0  0  0  0  0  0  0  0  0
    7.6808  -12.8855   20.3414 C   0  0  0  0  0  0  0  0  0  0  0  0
    8.6486  -13.4572   21.1147 C   0  0  0  0  0  0  0  0  0  0  0  0
    8.6506  -14.8119   21.3476 C   0  0  0  0  0  0  0  0  0  0  0  0
    9.6537  -15.5062   22.1658 C   0  0  0  0  0  0  0  0  0  0  0  0
    9.1266  -16.2491   23.3264 C   0  0  2  0  0  0  0  0  0  0  0  0
    8.7057  -15.3091   24.3865 N   0  0  0  0  0  0  0  0  0  0  0  0
    9.9171  -17.2783   23.9534 C   0  0  0  0  0  0  0  0  0  0  0  0
   10.2530  -18.2960   23.2406 O   0  0  0  0  0  0  0  0  0  0  0  0
    7.6168  -15.5439   20.7509 C   0  0  0  0  0  0  0  0  0  0  0  0
    6.6434  -14.9574   19.9711 C   0  0  0  0  0  0  0  0  0  0  0  0
   10.4047  -17.3413   25.2842 N   0  0  0  0  0  0  0  0  0  0  0  0
   11.2276  -18.4550   25.7575 C   0  0  1  0  0  0  0  0  0  0  0  0
   12.6646  -18.0082   25.9117 C   0  0  0  0  0  0  0  0  0  0  0  0
   13.2597  -17.4197   24.7026 C   0  0  0  0  0  0  0  0  0  0  0  0
   13.2955  -16.0743   24.4132 C   0  0  0  0  0  0  0  0  0  0  0  0
   13.9000  -15.9186   23.2091 N   0  0  0  0  0  0  0  0  0  0  0  0
   14.2398  -17.1328   22.7443 C   0  0  0  0  0  0  0  0  0  0  0  0
   13.8476  -18.0283   23.6552 N   0  0  0  0  0  0  0  0  0  0  0  0
   10.7261  -18.9298   27.0549 C   0  0  0  0  0  0  0  0  0  0  0  0
   11.4268  -19.9019   27.7746 O   0  0  0  0  0  0  0  0  0  0  0  0
    9.6685  -18.4809   27.5413 O   0  0  0  0  0  0  0  0  0  0  0  0
  2  3  1  0
  2  1  1  0
  3  4  1  1
  5  3  1  0
  5  6  1  1
  7  5  1  0
  7  8  2  0
  9 10  1  0
 10 11  2  0
 10 20  1  0
 11 12  1  0
 12 13  2  0
 13 14  1  0
 15 14  1  6
 15 16  1  0
 16  7  1  0
 17 15  1  0
 18 17  2  0
 19 13  1  0
 20 19  2  0
 21 17  1  0
 22 21  1  0
 22 29  1  0
 22 23  1  1
 24 23  1  0
 24 25  2  0
 26 25  1  0
 27 26  1  0
 28 27  2  0
 28 24  1  0
 29 31  2  0
 29 30  1  0
M  END
$$$$
