IYH.pdb
     RDKit          3D

 31 32  0  0  1  0  0  0  0  0999 V2000
    8.7425  -20.1635   17.9505 C   0  0  0  0  0  0  0  0  0  0  0  0
    8.6739  -18.6431   17.9930 C   0  0  0  0  0  0  0  0  0  0  0  0
    8.8963  -18.1181   19.3963 C   0  0  2  0  0  0  0  0  0  0  0  0
    7.8315  -18.7140   20.2774 C   0  0  0  0  0  0  0  0  0  0  0  0
    8.8268  -16.6128   19.3277 C   0  0  2  0  0  0  0  0  0  0  0  0
    9.8201  -16.1781   18.3708 N   0  0  0  0  0  0  0  0  0  0  0  0
    9.1147  -15.9689   20.6262 C   0  0  0  0  0  0  0  0  0  0  0  0
   10.2952  -15.9610   21.1052 O   0  0  0  0  0  0  0  0  0  0  0  0
    6.8744  -11.8903   28.2893 O   0  0  0  0  0  0  0  0  0  0  0  0
    6.9561  -12.3417   26.9801 C   0  0  0  0  0  0  0  0  0  0  0  0
    7.6553  -11.6585   26.0075 C   0  0  0  0  0  0  0  0  0  0  0  0
    7.7472  -12.0859   24.7152 C   0  0  0  0  0  0  0  0  0  0  0  0
    7.1303  -13.2474   24.3154 C   0  0  0  0  0  0  0  0  0  0  0  0
    7.1787  -13.7773   22.9462 C   0  0  0  0  0  0  0  0  0  0  0  0
    8.2302  -14.7793   22.6871 C   0  0  2  0  0  0  0  0  0  0  0  0
    8.0634  -15.3577   21.3372 N   0  0  0  0  0  0  0  0  0  0  0  0
    8.4351  -15.8743   23.6017 C   0  0  0  0  0  0  0  0  0  0  0  0
    7.8696  -16.9981   23.3298 O   0  0  0  0  0  0  0  0  0  0  0  0
    6.4200  -13.9421   25.3019 C   0  0  0  0  0  0  0  0  0  0  0  0
    6.3327  -13.5023   26.6052 C   0  0  0  0  0  0  0  0  0  0  0  0
    9.1977  -15.9061   24.7976 N   0  0  0  0  0  0  0  0  0  0  0  0
    9.9901  -17.0747   25.1820 C   0  0  1  0  0  0  0  0  0  0  0  0
   10.9519  -17.4362   24.0717 C   0  0  0  0  0  0  0  0  0  0  0  0
   11.8590  -18.5514   24.3814 C   0  0  0  0  0  0  0  0  0  0  0  0
   12.2116  -18.9554   25.6493 C   0  0  0  0  0  0  0  0  0  0  0  0
   13.0771  -19.9933   25.5350 N   0  0  0  0  0  0  0  0  0  0  0  0
   13.2703  -20.2433   24.2289 C   0  0  0  0  0  0  0  0  0  0  0  0
   12.5296  -19.3663   23.5451 N   0  0  0  0  0  0  0  0  0  0  0  0
   10.7506  -16.7815   26.4051 C   0  0  0  0  0  0  0  0  0  0  0  0
   11.5570  -17.7609   26.9920 O   0  0  0  0  0  0  0  0  0  0  0  0
   10.6936  -15.6590   26.9467 O   0  0  0  0  0  0  0  0  0  0  0  0
  2  3  1  0
  2  1  1  0
  3  4  1  1
  5  3  1  0
  5  6  1  6
  7  5  1  0
  7  8  2  0
  9 10  1  0
 10 11  2  0
 10 20  1  0
 11 12  1  0
 12 13  2  0
 13 14  1  0
 15 14  1  1
 15 16  1  0
 16  7  1  0
 17 15  1  0
 18 17  2  0
 19 13  1  0
 20 19  2  0
 21 17  1  0
 22 21  1  0
 22 29  1  0
 22 23  1  6
 24 23  1  0
 24 25  2  0
 26 25  1  0
 27 26  1  0
 28 27  2  0
 28 24  1  0
 29 31  2  0
 29 30  1  0
M  END
$$$$
