IYH.pdb
     RDKit          3D

 31 32  0  0  1  0  0  0  0  0999 V2000
    5.0447  -23.4538   24.1476 C   0  0  0  0  0  0  0  0  0  0  0  0
    4.3967  -22.2149   23.5445 C   0  0  0  0  0  0  0  0  0  0  0  0
    5.4129  -21.1158   23.3129 C   0  0  2  0  0  0  0  0  0  0  0  0
    6.0838  -20.8338   24.6303 C   0  0  0  0  0  0  0  0  0  0  0  0
    4.6670  -19.9238   22.7669 C   0  0  2  0  0  0  0  0  0  0  0  0
    3.8462  -20.3927   21.6724 N   0  0  0  0  0  0  0  0  0  0  0  0
    5.5697  -18.8709   22.2570 C   0  0  0  0  0  0  0  0  0  0  0  0
    5.4984  -18.4772   21.0475 O   0  0  0  0  0  0  0  0  0  0  0  0
    8.7099  -12.3551   18.6756 O   0  0  0  0  0  0  0  0  0  0  0  0
    8.1266  -13.2459   19.5648 C   0  0  0  0  0  0  0  0  0  0  0  0
    7.5980  -12.8415   20.7725 C   0  0  0  0  0  0  0  0  0  0  0  0
    7.0206  -13.7019   21.6600 C   0  0  0  0  0  0  0  0  0  0  0  0
    6.9383  -15.0455   21.3816 C   0  0  0  0  0  0  0  0  0  0  0  0
    6.3344  -16.0381   22.2804 C   0  0  0  0  0  0  0  0  0  0  0  0
    7.2565  -17.0578   22.8159 C   0  0  2  0  0  0  0  0  0  0  0  0
    6.5191  -18.3003   23.1274 N   0  0  0  0  0  0  0  0  0  0  0  0
    8.0945  -16.7594   23.9500 C   0  0  0  0  0  0  0  0  0  0  0  0
    7.7114  -15.8284   24.7519 O   0  0  0  0  0  0  0  0  0  0  0  0
    7.4748  -15.4574   20.1556 C   0  0  0  0  0  0  0  0  0  0  0  0
    8.0563  -14.5806   19.2653 C   0  0  0  0  0  0  0  0  0  0  0  0
    9.3202  -17.3611   24.3354 N   0  0  0  0  0  0  0  0  0  0  0  0
   10.4607  -17.4523   23.4231 C   0  0  1  0  0  0  0  0  0  0  0  0
   10.0159  -17.1593   22.0071 C   0  0  0  0  0  0  0  0  0  0  0  0
   10.9463  -17.6134   20.9629 C   0  0  0  0  0  0  0  0  0  0  0  0
   12.1490  -18.2420   21.1941 C   0  0  0  0  0  0  0  0  0  0  0  0
   12.7334  -18.4870   19.9950 N   0  0  0  0  0  0  0  0  0  0  0  0
   11.9241  -18.0264   19.0261 C   0  0  0  0  0  0  0  0  0  0  0  0
   10.8504  -17.5023   19.6244 N   0  0  0  0  0  0  0  0  0  0  0  0
   11.4933  -16.4833   23.8167 C   0  0  0  0  0  0  0  0  0  0  0  0
   11.8021  -15.3992   22.9899 O   0  0  0  0  0  0  0  0  0  0  0  0
   12.1167  -16.6052   24.8905 O   0  0  0  0  0  0  0  0  0  0  0  0
  2  3  1  0
  2  1  1  0
  3  4  1  1
  5  3  1  0
  5  6  1  6
  7  5  1  0
  7  8  2  0
  9 10  1  0
 10 11  2  0
 10 20  1  0
 11 12  1  0
 12 13  2  0
 13 14  1  0
 15 14  1  1
 15 16  1  0
 16  7  1  0
 17 15  1  0
 18 17  2  0
 19 13  1  0
 20 19  2  0
 21 17  1  0
 22 21  1  0
 22 29  1  0
 22 23  1  6
 24 23  1  0
 24 25  2  0
 26 25  1  0
 27 26  1  0
 28 27  2  0
 28 24  1  0
 29 31  2  0
 29 30  1  0
M  END
$$$$
