IYH.pdb
     RDKit          3D

 31 32  0  0  1  0  0  0  0  0999 V2000
    7.7408  -19.5623   17.3779 C   0  0  0  0  0  0  0  0  0  0  0  0
    8.0215  -19.6425   18.8722 C   0  0  0  0  0  0  0  0  0  0  0  0
    8.7104  -18.3903   19.3740 C   0  0  2  0  0  0  0  0  0  0  0  0
    9.9779  -18.2213   18.5803 C   0  0  0  0  0  0  0  0  0  0  0  0
    8.9621  -18.5781   20.8494 C   0  0  2  0  0  0  0  0  0  0  0  0
    7.6939  -18.8983   21.4663 N   0  0  0  0  0  0  0  0  0  0  0  0
    9.5029  -17.3637   21.4946 C   0  0  0  0  0  0  0  0  0  0  0  0
   10.6379  -16.8936   21.1574 O   0  0  0  0  0  0  0  0  0  0  0  0
    7.4637  -12.7796   17.5146 O   0  0  0  0  0  0  0  0  0  0  0  0
    7.6518  -13.1741   18.8312 C   0  0  0  0  0  0  0  0  0  0  0  0
    8.8949  -13.1800   19.4281 C   0  0  0  0  0  0  0  0  0  0  0  0
    9.1002  -13.5644   20.7209 C   0  0  0  0  0  0  0  0  0  0  0  0
    8.0487  -13.9735   21.5060 C   0  0  0  0  0  0  0  0  0  0  0  0
    8.1824  -14.4031   22.9044 C   0  0  0  0  0  0  0  0  0  0  0  0
    9.1714  -15.4695   23.1521 C   0  0  2  0  0  0  0  0  0  0  0  0
    8.7459  -16.7235   22.4955 N   0  0  0  0  0  0  0  0  0  0  0  0
    9.5642  -15.8011   24.4986 C   0  0  0  0  0  0  0  0  0  0  0  0
    9.1864  -15.0154   25.4455 O   0  0  0  0  0  0  0  0  0  0  0  0
    6.7859  -13.9680   20.9011 C   0  0  0  0  0  0  0  0  0  0  0  0
    6.5884  -13.5779   19.5941 C   0  0  0  0  0  0  0  0  0  0  0  0
   10.3274  -16.9052   24.9582 N   0  0  0  0  0  0  0  0  0  0  0  0
    9.9051  -17.7201   26.0980 C   0  0  1  0  0  0  0  0  0  0  0  0
    8.5365  -18.3085   25.8350 C   0  0  0  0  0  0  0  0  0  0  0  0
    8.0637  -19.2504   26.8605 C   0  0  0  0  0  0  0  0  0  0  0  0
    8.7665  -19.6104   27.9881 C   0  0  0  0  0  0  0  0  0  0  0  0
    8.0228  -20.5101   28.6786 N   0  0  0  0  0  0  0  0  0  0  0  0
    6.8768  -20.7175   28.0081 C   0  0  0  0  0  0  0  0  0  0  0  0
    6.9152  -19.9514   26.9139 N   0  0  0  0  0  0  0  0  0  0  0  0
   10.8670  -18.8097   26.3160 C   0  0  0  0  0  0  0  0  0  0  0  0
   11.3139  -19.5877   25.2441 O   0  0  0  0  0  0  0  0  0  0  0  0
   11.3036  -19.0665   27.4562 O   0  0  0  0  0  0  0  0  0  0  0  0
  2  3  1  0
  2  1  1  0
  3  4  1  6
  5  3  1  0
  5  6  1  1
  7  5  1  0
  7  8  2  0
  9 10  1  0
 10 11  2  0
 10 20  1  0
 11 12  1  0
 12 13  2  0
 13 14  1  0
 15 14  1  1
 15 16  1  0
 16  7  1  0
 17 15  1  0
 18 17  2  0
 19 13  1  0
 20 19  2  0
 21 17  1  0
 22 21  1  0
 22 29  1  0
 22 23  1  6
 24 23  1  0
 24 25  2  0
 26 25  1  0
 27 26  1  0
 28 27  2  0
 28 24  1  0
 29 31  2  0
 29 30  1  0
M  END
$$$$
