VYG.pdb
     RDKit          3D

 24 24  0  0  1  0  0  0  0  0999 V2000
   25.8487  -20.7000  -15.9420 C   0  0  0  0  0  0  0  0  0  0  0  0
   26.6448  -19.7427  -15.0852 C   0  0  2  0  0  0  0  0  0  0  0  0
   27.6789  -19.0032  -15.8722 C   0  0  0  0  0  0  0  0  0  0  0  0
   27.3044  -20.4374  -13.9248 C   0  0  2  0  0  0  0  0  0  0  0  0
   28.2521  -21.4289  -14.3200 N   0  0  0  0  0  0  0  0  0  0  0  0
   26.2528  -20.9852  -13.0116 C   0  0  0  0  0  0  0  0  0  0  0  0
   25.9648  -22.2073  -13.0806 O   0  0  0  0  0  0  0  0  0  0  0  0
   28.4422  -20.4322   -6.0703 O   0  0  0  0  0  0  0  0  0  0  0  0
   27.4552  -20.2751   -7.0391 C   0  0  0  0  0  0  0  0  0  0  0  0
   27.2844  -19.0516   -7.6506 C   0  0  0  0  0  0  0  0  0  0  0  0
   26.3105  -18.8623   -8.6192 C   0  0  0  0  0  0  0  0  0  0  0  0
   25.4701  -19.8815   -9.0162 C   0  0  0  0  0  0  0  0  0  0  0  0
   24.4229  -19.7032  -10.0405 C   0  0  0  0  0  0  0  0  0  0  0  0
   24.5209  -20.6512  -11.2008 C   0  0  2  0  0  0  0  0  0  0  0  0
   25.5899  -20.1649  -12.0890 N   0  0  0  0  0  0  0  0  0  0  0  0
   23.2564  -20.7787  -11.9635 C   0  0  0  0  0  0  0  0  0  0  0  0
   23.1202  -20.0869  -13.0183 O   0  0  0  0  0  0  0  0  0  0  0  0
   25.6550  -21.1089   -8.3904 C   0  0  0  0  0  0  0  0  0  0  0  0
   26.6228  -21.3011   -7.4265 C   0  0  0  0  0  0  0  0  0  0  0  0
   22.2440  -21.6573  -11.5035 N   0  0  0  0  0  0  0  0  0  0  0  0
   21.3815  -22.3598  -12.4249 C   0  0  0  0  0  0  0  0  0  0  0  0
   20.5625  -21.4136  -13.2180 C   0  0  0  0  0  0  0  0  0  0  0  0
   19.7219  -20.7032  -12.6210 O   0  0  0  0  0  0  0  0  0  0  0  0
   20.7214  -21.3185  -14.5728 O   0  0  0  0  0  0  0  0  0  0  0  0
  2  1  1  6
  2  4  1  0
  2  3  1  0
  4  6  1  0
  4  5  1  6
  6  7  2  0
  8  9  1  0
  9 10  2  0
 10 11  1  0
 12 11  2  0
 12 13  1  0
 14 13  1  1
 14 16  1  0
 15 14  1  0
 15  6  1  0
 16 20  1  0
 16 17  2  0
 18 12  1  0
 19  9  1  0
 19 18  2  0
 20 21  1  0
 22 24  1  0
 22 21  1  0
 23 22  2  0
M  END
$$$$
