VYG.pdb
     RDKit          3D

 24 24  0  0  1  0  0  0  0  0999 V2000
   26.6694  -23.0897  -16.0172 C   0  0  0  0  0  0  0  0  0  0  0  0
   25.7606  -23.9805  -16.8326 C   0  0  2  0  0  0  0  0  0  0  0  0
   26.5156  -24.8009  -17.8288 C   0  0  0  0  0  0  0  0  0  0  0  0
   24.6891  -23.1973  -17.5418 C   0  0  2  0  0  0  0  0  0  0  0  0
   25.1764  -22.4439  -18.6519 N   0  0  0  0  0  0  0  0  0  0  0  0
   23.9588  -22.3459  -16.5510 C   0  0  0  0  0  0  0  0  0  0  0  0
   24.0705  -21.0956  -16.6252 O   0  0  0  0  0  0  0  0  0  0  0  0
   18.2222  -21.0446  -19.3728 O   0  0  0  0  0  0  0  0  0  0  0  0
   18.8960  -21.4345  -18.2191 C   0  0  0  0  0  0  0  0  0  0  0  0
   19.0801  -20.5304  -17.1950 C   0  0  0  0  0  0  0  0  0  0  0  0
   19.7470  -20.8871  -16.0329 C   0  0  0  0  0  0  0  0  0  0  0  0
   20.2558  -22.1554  -15.8451 C   0  0  0  0  0  0  0  0  0  0  0  0
   20.9738  -22.5573  -14.6201 C   0  0  0  0  0  0  0  0  0  0  0  0
   22.4083  -22.1167  -14.5678 C   0  0  2  0  0  0  0  0  0  0  0  0
   23.1595  -22.9151  -15.5507 N   0  0  0  0  0  0  0  0  0  0  0  0
   23.0209  -22.2691  -13.2267 C   0  0  0  0  0  0  0  0  0  0  0  0
   22.8013  -23.3419  -12.5858 O   0  0  0  0  0  0  0  0  0  0  0  0
   20.0620  -23.0553  -16.8867 C   0  0  0  0  0  0  0  0  0  0  0  0
   19.3990  -22.7041  -18.0442 C   0  0  0  0  0  0  0  0  0  0  0  0
   23.8256  -21.2285  -12.6995 N   0  0  0  0  0  0  0  0  0  0  0  0
   24.4841  -21.3606  -11.4208 C   0  0  0  0  0  0  0  0  0  0  0  0
   25.6587  -22.2586  -11.5144 C   0  0  0  0  0  0  0  0  0  0  0  0
   25.9473  -22.7530  -12.6279 O   0  0  0  0  0  0  0  0  0  0  0  0
   26.4115  -22.5414  -10.4083 O   0  0  0  0  0  0  0  0  0  0  0  0
  2  1  1  6
  2  4  1  0
  2  3  1  0
  4  6  1  0
  4  5  1  6
  6  7  2  0
  8  9  1  0
  9 10  2  0
 10 11  1  0
 12 11  2  0
 12 13  1  0
 14 13  1  1
 14 16  1  0
 15 14  1  0
 15  6  1  0
 16 20  1  0
 16 17  2  0
 18 12  1  0
 19  9  1  0
 19 18  2  0
 20 21  1  0
 22 24  1  0
 22 21  1  0
 23 22  2  0
M  END
$$$$
