VYG.pdb
     RDKit          3D

 24 24  0  0  1  0  0  0  0  0999 V2000
   23.6404  -23.0445  -17.2161 C   0  0  0  0  0  0  0  0  0  0  0  0
   24.9308  -22.2601  -17.1537 C   0  0  2  0  0  0  0  0  0  0  0  0
   25.7022  -22.3350  -18.4323 C   0  0  0  0  0  0  0  0  0  0  0  0
   25.8086  -22.7056  -16.0154 C   0  0  2  0  0  0  0  0  0  0  0  0
   26.2139  -24.0708  -16.1109 N   0  0  0  0  0  0  0  0  0  0  0  0
   25.1296  -22.4015  -14.7168 C   0  0  0  0  0  0  0  0  0  0  0  0
   24.8405  -23.3514  -13.9452 O   0  0  0  0  0  0  0  0  0  0  0  0
   29.6762  -21.7427   -9.6828 O   0  0  0  0  0  0  0  0  0  0  0  0
   28.5783  -21.2353  -10.3717 C   0  0  0  0  0  0  0  0  0  0  0  0
   27.3736  -21.0792   -9.7203 C   0  0  0  0  0  0  0  0  0  0  0  0
   26.2612  -20.5767  -10.3779 C   0  0  0  0  0  0  0  0  0  0  0  0
   26.3043  -20.2107  -11.7071 C   0  0  0  0  0  0  0  0  0  0  0  0
   25.1329  -19.6788  -12.4300 C   0  0  0  0  0  0  0  0  0  0  0  0
   24.2488  -20.7290  -13.0385 C   0  0  2  0  0  0  0  0  0  0  0  0
   24.8135  -21.0864  -14.3505 N   0  0  0  0  0  0  0  0  0  0  0  0
   22.8426  -20.2900  -13.2021 C   0  0  0  0  0  0  0  0  0  0  0  0
   22.3035  -19.6397  -12.2554 O   0  0  0  0  0  0  0  0  0  0  0  0
   27.5260  -20.3740  -12.3497 C   0  0  0  0  0  0  0  0  0  0  0  0
   28.6349  -20.8735  -11.6989 C   0  0  0  0  0  0  0  0  0  0  0  0
   22.1434  -20.6022  -14.3947 N   0  0  0  0  0  0  0  0  0  0  0  0
   20.7642  -20.2161  -14.5815 C   0  0  0  0  0  0  0  0  0  0  0  0
   19.8458  -21.1847  -13.9385 C   0  0  0  0  0  0  0  0  0  0  0  0
   20.3352  -22.1877  -13.3708 O   0  0  0  0  0  0  0  0  0  0  0  0
   18.4930  -20.9874  -13.9645 O   0  0  0  0  0  0  0  0  0  0  0  0
  2  1  1  6
  2  4  1  0
  2  3  1  0
  4  6  1  0
  4  5  1  6
  6  7  2  0
  8  9  1  0
  9 10  2  0
 10 11  1  0
 12 11  2  0
 12 13  1  0
 14 13  1  6
 14 16  1  0
 15 14  1  0
 15  6  1  0
 16 20  1  0
 16 17  2  0
 18 12  1  0
 19  9  1  0
 19 18  2  0
 20 21  1  0
 22 24  1  0
 22 21  1  0
 23 22  2  0
M  END
$$$$
