VYG.pdb
     RDKit          3D

 24 24  0  0  1  0  0  0  0  0999 V2000
   31.0183  -25.2125  -18.9811 C   0  0  0  0  0  0  0  0  0  0  0  0
   31.8381  -26.4500  -19.2653 C   0  0  2  0  0  0  0  0  0  0  0  0
   31.5827  -26.9977  -20.6329 C   0  0  0  0  0  0  0  0  0  0  0  0
   31.6035  -27.5303  -18.2442 C   0  0  2  0  0  0  0  0  0  0  0  0
   32.3614  -28.7153  -18.4862 N   0  0  0  0  0  0  0  0  0  0  0  0
   30.1357  -27.8032  -18.1390 C   0  0  0  0  0  0  0  0  0  0  0  0
   29.5733  -28.4617  -19.0507 O   0  0  0  0  0  0  0  0  0  0  0  0
   27.6336  -34.0096  -17.7681 O   0  0  0  0  0  0  0  0  0  0  0  0
   27.6505  -32.7003  -17.2960 C   0  0  0  0  0  0  0  0  0  0  0  0
   28.8529  -32.0939  -17.0019 C   0  0  0  0  0  0  0  0  0  0  0  0
   28.9040  -30.7912  -16.5300 C   0  0  0  0  0  0  0  0  0  0  0  0
   27.7624  -30.0425  -16.3326 C   0  0  0  0  0  0  0  0  0  0  0  0
   27.7907  -28.6567  -15.8264 C   0  0  0  0  0  0  0  0  0  0  0  0
   27.9460  -27.6093  -16.8910 C   0  0  2  0  0  0  0  0  0  0  0  0
   29.3850  -27.3405  -17.0501 N   0  0  0  0  0  0  0  0  0  0  0  0
   27.2328  -26.3474  -16.5818 C   0  0  0  0  0  0  0  0  0  0  0  0
   27.6458  -25.6488  -15.6065 O   0  0  0  0  0  0  0  0  0  0  0  0
   26.5581  -30.6680  -16.6338 C   0  0  0  0  0  0  0  0  0  0  0  0
   26.5032  -31.9638  -17.1035 C   0  0  0  0  0  0  0  0  0  0  0  0
   26.1225  -25.9563  -17.3710 N   0  0  0  0  0  0  0  0  0  0  0  0
   25.4332  -24.7091  -17.1348 C   0  0  0  0  0  0  0  0  0  0  0  0
   26.2577  -23.5537  -17.5591 C   0  0  0  0  0  0  0  0  0  0  0  0
   27.2592  -23.2485  -16.8724 O   0  0  0  0  0  0  0  0  0  0  0  0
   25.9318  -22.8361  -18.6765 O   0  0  0  0  0  0  0  0  0  0  0  0
  2  1  1  1
  2  4  1  0
  2  3  1  0
  4  6  1  0
  4  5  1  6
  6  7  2  0
  8  9  1  0
  9 10  2  0
 10 11  1  0
 12 11  2  0
 12 13  1  0
 14 13  1  1
 14 16  1  0
 15 14  1  0
 15  6  1  0
 16 20  1  0
 16 17  2  0
 18 12  1  0
 19  9  1  0
 19 18  2  0
 20 21  1  0
 22 24  1  0
 22 21  1  0
 23 22  2  0
M  END
$$$$
