VYG.pdb
     RDKit          3D

 24 24  0  0  1  0  0  0  0  0999 V2000
   24.1746  -20.6508  -15.5649 C   0  0  0  0  0  0  0  0  0  0  0  0
   24.2472  -20.8292  -14.0659 C   0  0  2  0  0  0  0  0  0  0  0  0
   23.6680  -19.6652  -13.3276 C   0  0  0  0  0  0  0  0  0  0  0  0
   25.6556  -21.0684  -13.5927 C   0  0  2  0  0  0  0  0  0  0  0  0
   26.3342  -22.0907  -14.3217 N   0  0  0  0  0  0  0  0  0  0  0  0
   25.6462  -21.3289  -12.1189 C   0  0  0  0  0  0  0  0  0  0  0  0
   25.2775  -22.4570  -11.7036 O   0  0  0  0  0  0  0  0  0  0  0  0
   28.2126  -20.4656   -3.6547 O   0  0  0  0  0  0  0  0  0  0  0  0
   27.9334  -20.2741   -5.0048 C   0  0  0  0  0  0  0  0  0  0  0  0
   27.8906  -18.9966   -5.5208 C   0  0  0  0  0  0  0  0  0  0  0  0
   27.6153  -18.7720   -6.8610 C   0  0  0  0  0  0  0  0  0  0  0  0
   27.3720  -19.8082   -7.7383 C   0  0  0  0  0  0  0  0  0  0  0  0
   27.0713  -19.5943   -9.1672 C   0  0  0  0  0  0  0  0  0  0  0  0
   26.0901  -20.5709   -9.7486 C   0  0  2  0  0  0  0  0  0  0  0  0
   26.0385  -20.3440  -11.2025 N   0  0  0  0  0  0  0  0  0  0  0  0
   24.7290  -20.4479   -9.1747 C   0  0  0  0  0  0  0  0  0  0  0  0
   24.0626  -19.3992   -9.4316 O   0  0  0  0  0  0  0  0  0  0  0  0
   27.4188  -21.0901   -7.2028 C   0  0  0  0  0  0  0  0  0  0  0  0
   27.6925  -21.3176   -5.8701 C   0  0  0  0  0  0  0  0  0  0  0  0
   24.2115  -21.4890   -8.3644 N   0  0  0  0  0  0  0  0  0  0  0  0
   22.9515  -21.3485   -7.6722 C   0  0  0  0  0  0  0  0  0  0  0  0
   21.8095  -21.5522   -8.5938 C   0  0  0  0  0  0  0  0  0  0  0  0
   22.0484  -21.8284   -9.7914 O   0  0  0  0  0  0  0  0  0  0  0  0
   20.5223  -21.4408   -8.1458 O   0  0  0  0  0  0  0  0  0  0  0  0
  2  1  1  6
  2  4  1  0
  2  3  1  0
  4  6  1  0
  4  5  1  6
  6  7  2  0
  8  9  1  0
  9 10  2  0
 10 11  1  0
 12 11  2  0
 12 13  1  0
 14 13  1  1
 14 16  1  0
 15 14  1  0
 15  6  1  0
 16 20  1  0
 16 17  2  0
 18 12  1  0
 19  9  1  0
 19 18  2  0
 20 21  1  0
 22 24  1  0
 22 21  1  0
 23 22  2  0
M  END
$$$$
