VYG.pdb
     RDKit          3D

 24 24  0  0  1  0  0  0  0  0999 V2000
   28.3266  -11.7295  -16.0969 C   0  0  0  0  0  0  0  0  0  0  0  0
   26.9141  -11.2665  -16.3700 C   0  0  2  0  0  0  0  0  0  0  0  0
   26.5102  -10.1281  -15.4889 C   0  0  0  0  0  0  0  0  0  0  0  0
   25.9158  -12.3837  -16.2294 C   0  0  2  0  0  0  0  0  0  0  0  0
   26.3103  -13.5851  -16.8913 N   0  0  0  0  0  0  0  0  0  0  0  0
   24.5689  -11.9043  -16.6720 C   0  0  0  0  0  0  0  0  0  0  0  0
   24.3433  -11.7775  -17.9025 O   0  0  0  0  0  0  0  0  0  0  0  0
   15.8617  -11.8643  -17.3654 O   0  0  0  0  0  0  0  0  0  0  0  0
   17.1946  -12.0138  -16.9934 C   0  0  0  0  0  0  0  0  0  0  0  0
   18.1693  -12.1124  -17.9630 C   0  0  0  0  0  0  0  0  0  0  0  0
   19.5058  -12.2620  -17.6256 C   0  0  0  0  0  0  0  0  0  0  0  0
   19.9236  -12.3195  -16.3123 C   0  0  0  0  0  0  0  0  0  0  0  0
   21.3389  -12.4838  -15.9282 C   0  0  0  0  0  0  0  0  0  0  0  0
   22.1845  -11.2601  -16.1338 C   0  0  2  0  0  0  0  0  0  0  0  0
   23.5641  -11.5970  -15.7449 N   0  0  0  0  0  0  0  0  0  0  0  0
   21.7184  -10.0869  -15.3571 C   0  0  0  0  0  0  0  0  0  0  0  0
   21.9830  -10.0455  -14.1169 O   0  0  0  0  0  0  0  0  0  0  0  0
   18.9289  -12.2186  -15.3465 C   0  0  0  0  0  0  0  0  0  0  0  0
   17.5983  -12.0696  -15.6783 C   0  0  0  0  0  0  0  0  0  0  0  0
   20.9988   -9.0542  -16.0082 N   0  0  0  0  0  0  0  0  0  0  0  0
   20.4360   -7.9478  -15.2695 C   0  0  0  0  0  0  0  0  0  0  0  0
   21.4260   -6.8586  -15.1009 C   0  0  0  0  0  0  0  0  0  0  0  0
   22.0456   -6.4511  -16.1097 O   0  0  0  0  0  0  0  0  0  0  0  0
   21.6581   -6.3104  -13.8698 O   0  0  0  0  0  0  0  0  0  0  0  0
  2  1  1  1
  2  4  1  0
  2  3  1  0
  4  6  1  0
  4  5  1  6
  6  7  2  0
  8  9  1  0
  9 10  2  0
 10 11  1  0
 12 11  2  0
 12 13  1  0
 14 13  1  1
 14 16  1  0
 15 14  1  0
 15  6  1  0
 16 20  1  0
 16 17  2  0
 18 12  1  0
 19  9  1  0
 19 18  2  0
 20 21  1  0
 22 24  1  0
 22 21  1  0
 23 22  2  0
M  END
$$$$
