VYG.pdb
     RDKit          3D

 24 24  0  0  1  0  0  0  0  0999 V2000
   24.7109  -22.9341  -18.2966 C   0  0  0  0  0  0  0  0  0  0  0  0
   24.4474  -22.6882  -16.8288 C   0  0  2  0  0  0  0  0  0  0  0  0
   24.1269  -21.2561  -16.5424 C   0  0  0  0  0  0  0  0  0  0  0  0
   25.6019  -23.1223  -15.9668 C   0  0  2  0  0  0  0  0  0  0  0  0
   25.9935  -24.4779  -16.1817 N   0  0  0  0  0  0  0  0  0  0  0  0
   25.2829  -22.8412  -14.5318 C   0  0  0  0  0  0  0  0  0  0  0  0
   24.4202  -23.5484  -13.9514 O   0  0  0  0  0  0  0  0  0  0  0  0
   26.3884  -19.7401   -6.2584 O   0  0  0  0  0  0  0  0  0  0  0  0
   26.5050  -20.0379   -7.6130 C   0  0  0  0  0  0  0  0  0  0  0  0
   26.4234  -19.0265   -8.5460 C   0  0  0  0  0  0  0  0  0  0  0  0
   26.5354  -19.2898   -9.9027 C   0  0  0  0  0  0  0  0  0  0  0  0
   26.7326  -20.5677  -10.3829 C   0  0  0  0  0  0  0  0  0  0  0  0
   26.8494  -20.8738  -11.8218 C   0  0  0  0  0  0  0  0  0  0  0  0
   25.6158  -21.4750  -12.4312 C   0  0  2  0  0  0  0  0  0  0  0  0
   25.9246  -21.8114  -13.8311 N   0  0  0  0  0  0  0  0  0  0  0  0
   24.4382  -20.5763  -12.3810 C   0  0  0  0  0  0  0  0  0  0  0  0
   24.4455  -19.5374  -13.1094 O   0  0  0  0  0  0  0  0  0  0  0  0
   26.8128  -21.5763   -9.4297 C   0  0  0  0  0  0  0  0  0  0  0  0
   26.7019  -21.3183   -8.0792 C   0  0  0  0  0  0  0  0  0  0  0  0
   23.3479  -20.8936  -11.5331 N   0  0  0  0  0  0  0  0  0  0  0  0
   22.2190  -20.0034  -11.3937 C   0  0  0  0  0  0  0  0  0  0  0  0
   21.1300  -20.3702  -12.3288 C   0  0  0  0  0  0  0  0  0  0  0  0
   21.3243  -21.3071  -13.1362 O   0  0  0  0  0  0  0  0  0  0  0  0
   19.9383  -19.6998  -12.3102 O   0  0  0  0  0  0  0  0  0  0  0  0
  2  1  1  6
  2  4  1  0
  2  3  1  0
  4  6  1  0
  4  5  1  1
  6  7  2  0
  8  9  1  0
  9 10  2  0
 10 11  1  0
 12 11  2  0
 12 13  1  0
 14 13  1  6
 14 16  1  0
 15 14  1  0
 15  6  1  0
 16 20  1  0
 16 17  2  0
 18 12  1  0
 19  9  1  0
 19 18  2  0
 20 21  1  0
 22 24  1  0
 22 21  1  0
 23 22  2  0
M  END
$$$$
