VYG.pdb
     RDKit          3D

 24 24  0  0  1  0  0  0  0  0999 V2000
   21.4459  -17.9081  -19.3452 C   0  0  0  0  0  0  0  0  0  0  0  0
   21.4390  -18.9582  -18.2581 C   0  0  2  0  0  0  0  0  0  0  0  0
   20.3372  -18.7444  -17.2703 C   0  0  0  0  0  0  0  0  0  0  0  0
   22.7543  -19.0269  -17.5303 C   0  0  2  0  0  0  0  0  0  0  0  0
   23.8794  -19.1493  -18.3999 N   0  0  0  0  0  0  0  0  0  0  0  0
   22.7001  -20.1204  -16.5099 C   0  0  0  0  0  0  0  0  0  0  0  0
   22.7560  -21.3156  -16.8966 O   0  0  0  0  0  0  0  0  0  0  0  0
   28.8711  -21.6121  -15.8138 O   0  0  0  0  0  0  0  0  0  0  0  0
   27.6509  -21.3757  -15.1874 C   0  0  0  0  0  0  0  0  0  0  0  0
   27.1969  -20.0827  -15.0381 C   0  0  0  0  0  0  0  0  0  0  0  0
   25.9860  -19.8135  -14.4188 C   0  0  0  0  0  0  0  0  0  0  0  0
   25.1811  -20.8188  -13.9245 C   0  0  0  0  0  0  0  0  0  0  0  0
   23.8914  -20.5572  -13.2568 C   0  0  0  0  0  0  0  0  0  0  0  0
   22.6842  -20.8660  -14.0946 C   0  0  2  0  0  0  0  0  0  0  0  0
   22.5891  -19.8359  -15.1423 N   0  0  0  0  0  0  0  0  0  0  0  0
   21.4235  -20.9053  -13.3160 C   0  0  0  0  0  0  0  0  0  0  0  0
   20.9025  -19.8036  -12.9630 O   0  0  0  0  0  0  0  0  0  0  0  0
   25.6528  -22.1168  -14.0828 C   0  0  0  0  0  0  0  0  0  0  0  0
   26.8568  -22.3886  -14.6984 C   0  0  0  0  0  0  0  0  0  0  0  0
   20.8383  -22.1538  -12.9890 N   0  0  0  0  0  0  0  0  0  0  0  0
   19.6424  -22.2365  -12.1832 C   0  0  0  0  0  0  0  0  0  0  0  0
   18.4369  -22.3945  -13.0298 C   0  0  0  0  0  0  0  0  0  0  0  0
   18.5811  -22.4516  -14.2723 O   0  0  0  0  0  0  0  0  0  0  0  0
   17.1937  -22.4764  -12.4664 O   0  0  0  0  0  0  0  0  0  0  0  0
  2  1  1  6
  2  4  1  0
  2  3  1  0
  4  6  1  0
  4  5  1  6
  6  7  2  0
  8  9  1  0
  9 10  2  0
 10 11  1  0
 12 11  2  0
 12 13  1  0
 14 13  1  1
 14 16  1  0
 15 14  1  0
 15  6  1  0
 16 20  1  0
 16 17  2  0
 18 12  1  0
 19  9  1  0
 19 18  2  0
 20 21  1  0
 22 24  1  0
 22 21  1  0
 23 22  2  0
M  END
$$$$
