WCC.pdb
     RDKit          3D

 27 28  0  0  1  0  0  0  0  0999 V2000
    6.6071  -17.9299   24.6387 N   0  0  0  0  0  0  0  0  0  0  0  0
    7.2625  -16.8353   23.9559 C   0  0  1  0  0  0  0  0  0  0  0  0
    7.8991  -15.8684   24.9302 C   0  0  0  0  0  0  0  0  0  0  0  0
    6.9377  -14.9235   25.5406 C   0  0  0  0  0  0  0  0  0  0  0  0
    5.7161  -15.2579   26.0858 C   0  0  0  0  0  0  0  0  0  0  0  0
    5.0831  -14.1432   26.5348 N   0  0  0  0  0  0  0  0  0  0  0  0
    5.8635  -13.0834   26.2959 C   0  0  0  0  0  0  0  0  0  0  0  0
    5.6703  -11.7466   26.5666 C   0  0  0  0  0  0  0  0  0  0  0  0
    6.6522  -10.8343   26.2181 C   0  0  0  0  0  0  0  0  0  0  0  0
    7.7857  -11.2820   25.6164 C   0  0  0  0  0  0  0  0  0  0  0  0
    7.9633  -12.6323   25.3511 C   0  0  0  0  0  0  0  0  0  0  0  0
    7.0243  -13.5559   25.6764 C   0  0  0  0  0  0  0  0  0  0  0  0
    8.1930  -17.3811   22.9681 C   0  0  0  0  0  0  0  0  0  0  0  0
    8.6816  -18.5274   23.1314 O   0  0  0  0  0  0  0  0  0  0  0  0
    8.6133  -16.6887   21.7728 N   0  0  0  0  0  0  0  0  0  0  0  0
    9.9555  -16.8598   21.2448 C   0  0  1  0  0  0  0  0  0  0  0  0
   10.1663  -15.8472   20.1010 C   0  0  0  0  0  0  0  0  0  0  0  0
   11.8023  -16.0481   19.3672 S   0  0  0  0  0  0  0  0  0  0  0  0
   11.0225  -16.7631   22.2337 C   0  0  0  0  0  0  0  0  0  0  0  0
   11.2542  -15.6165   22.7528 O   0  0  0  0  0  0  0  0  0  0  0  0
   11.8571  -17.8029   22.7083 N   0  0  0  0  0  0  0  0  0  0  0  0
   12.9938  -17.5736   23.5715 C   0  0  1  0  0  0  0  0  0  0  0  0
   12.5916  -17.5449   25.0344 C   0  0  0  0  0  0  0  0  0  0  0  0
   11.5237  -18.9818   25.3287 S   0  0  0  0  0  0  0  0  0  0  0  0
   14.1182  -18.4818   23.3601 C   0  0  0  0  0  0  0  0  0  0  0  0
   13.9753  -19.4606   22.5718 O   0  0  0  0  0  0  0  0  0  0  0  0
   15.3540  -18.3447   23.9724 O   0  0  0  0  0  0  0  0  0  0  0  0
  2  1  1  1
  3  2  1  0
  3  4  1  0
  4  5  2  0
  6  5  1  0
  7  6  1  0
  8  7  2  0
  9  8  1  0
 10  9  2  0
 10 11  1  0
 11 12  2  0
 12  7  1  0
 12  4  1  0
 13 14  2  0
 13  2  1  0
 15 13  1  0
 16 15  1  0
 16 17  1  6
 18 17  1  0
 19 16  1  0
 19 21  1  0
 20 19  2  0
 22 21  1  0
 22 25  1  0
 22 23  1  1
 23 24  1  0
 25 26  2  0
 25 27  1  0
M  END
$$$$
