WCC.pdb
     RDKit          3D

 27 28  0  0  1  0  0  0  0  0999 V2000
    6.0987  -17.5128   23.7580 N   0  0  0  0  0  0  0  0  0  0  0  0
    6.6948  -16.2689   23.3208 C   0  0  1  0  0  0  0  0  0  0  0  0
    7.7635  -15.7924   24.2800 C   0  0  0  0  0  0  0  0  0  0  0  0
    7.2306  -15.0232   25.4263 C   0  0  0  0  0  0  0  0  0  0  0  0
    6.4514  -15.5314   26.4443 C   0  0  0  0  0  0  0  0  0  0  0  0
    6.1195  -14.5447   27.3168 N   0  0  0  0  0  0  0  0  0  0  0  0
    6.6646  -13.3990   26.8932 C   0  0  0  0  0  0  0  0  0  0  0  0
    6.6214  -12.1313   27.4306 C   0  0  0  0  0  0  0  0  0  0  0  0
    7.2869  -11.0993   26.7905 C   0  0  0  0  0  0  0  0  0  0  0  0
    7.9686  -11.3636   25.6447 C   0  0  0  0  0  0  0  0  0  0  0  0
    8.0011  -12.6467   25.1176 C   0  0  0  0  0  0  0  0  0  0  0  0
    7.3611  -13.6831   25.7149 C   0  0  0  0  0  0  0  0  0  0  0  0
    7.1606  -16.4242   21.9430 C   0  0  0  0  0  0  0  0  0  0  0  0
    7.7534  -17.4762   21.5949 O   0  0  0  0  0  0  0  0  0  0  0  0
    6.9889  -15.4334   20.9068 N   0  0  0  0  0  0  0  0  0  0  0  0
    8.0222  -15.2089   19.9110 C   0  0  1  0  0  0  0  0  0  0  0  0
    7.8686  -13.7778   19.3575 C   0  0  0  0  0  0  0  0  0  0  0  0
    9.0633  -13.4738   18.0401 S   0  0  0  0  0  0  0  0  0  0  0  0
    9.3842  -15.4489   20.3729 C   0  0  0  0  0  0  0  0  0  0  0  0
    9.9415  -14.5441   21.0860 O   0  0  0  0  0  0  0  0  0  0  0  0
   10.1911  -16.5858   20.1293 N   0  0  0  0  0  0  0  0  0  0  0  0
   11.6001  -16.6390   20.4482 C   0  0  1  0  0  0  0  0  0  0  0  0
   11.9463  -17.8739   21.2592 C   0  0  0  0  0  0  0  0  0  0  0  0
   11.0729  -17.7410   22.8440 S   0  0  0  0  0  0  0  0  0  0  0  0
   12.4946  -16.5037   19.3013 C   0  0  0  0  0  0  0  0  0  0  0  0
   13.7409  -16.4248   19.5023 O   0  0  0  0  0  0  0  0  0  0  0  0
   12.0674  -16.4555   17.9836 O   0  0  0  0  0  0  0  0  0  0  0  0
  2  1  1  1
  3  2  1  0
  3  4  1  0
  4  5  2  0
  6  5  1  0
  7  6  1  0
  8  7  2  0
  9  8  1  0
 10  9  2  0
 10 11  1  0
 11 12  2  0
 12  7  1  0
 12  4  1  0
 13 14  2  0
 13  2  1  0
 15 13  1  0
 16 15  1  0
 16 17  1  1
 18 17  1  0
 19 16  1  0
 19 21  1  0
 20 19  2  0
 22 21  1  0
 22 25  1  0
 22 23  1  6
 23 24  1  0
 25 26  2  0
 25 27  1  0
M  END
$$$$
