WCC.pdb
     RDKit          3D

 27 28  0  0  1  0  0  0  0  0999 V2000
    6.3722  -17.6390   23.9089 N   0  0  0  0  0  0  0  0  0  0  0  0
    7.2818  -16.5408   23.6626 C   0  0  1  0  0  0  0  0  0  0  0  0
    7.9655  -16.0843   24.9329 C   0  0  0  0  0  0  0  0  0  0  0  0
    7.1841  -15.0908   25.7022 C   0  0  0  0  0  0  0  0  0  0  0  0
    6.1512  -15.3762   26.5701 C   0  0  0  0  0  0  0  0  0  0  0  0
    5.6424  -14.2274   27.0860 N   0  0  0  0  0  0  0  0  0  0  0  0
    6.3195  -13.1932   26.5750 C   0  0  0  0  0  0  0  0  0  0  0  0
    6.1859  -11.8388   26.7883 C   0  0  0  0  0  0  0  0  0  0  0  0
    7.0309  -10.9610   26.1300 C   0  0  0  0  0  0  0  0  0  0  0  0
    7.9742  -11.4591   25.2878 C   0  0  0  0  0  0  0  0  0  0  0  0
    8.0944  -12.8264   25.0849 C   0  0  0  0  0  0  0  0  0  0  0  0
    7.2849  -13.7175   25.7104 C   0  0  0  0  0  0  0  0  0  0  0  0
    8.2063  -16.9206   22.5946 C   0  0  0  0  0  0  0  0  0  0  0  0
    8.7928  -18.0312   22.6367 O   0  0  0  0  0  0  0  0  0  0  0  0
    8.5132  -16.0963   21.4495 N   0  0  0  0  0  0  0  0  0  0  0  0
    9.6230  -16.4232   20.5714 C   0  0  1  0  0  0  0  0  0  0  0  0
    9.6044  -15.4523   19.3735 C   0  0  0  0  0  0  0  0  0  0  0  0
    8.0369  -15.5656   18.4873 S   0  0  0  0  0  0  0  0  0  0  0  0
   10.9319  -16.4381   21.2137 C   0  0  0  0  0  0  0  0  0  0  0  0
   11.3102  -15.3787   21.8239 O   0  0  0  0  0  0  0  0  0  0  0  0
   11.8631  -17.5031   21.2521 N   0  0  0  0  0  0  0  0  0  0  0  0
   13.1359  -17.4172   21.9323 C   0  0  1  0  0  0  0  0  0  0  0  0
   13.3013  -18.5242   22.9568 C   0  0  0  0  0  0  0  0  0  0  0  0
   12.0768  -18.2367   24.2643 S   0  0  0  0  0  0  0  0  0  0  0  0
   14.2991  -17.3472   21.0514 C   0  0  0  0  0  0  0  0  0  0  0  0
   14.1277  -17.4411   19.8017 O   0  0  0  0  0  0  0  0  0  0  0  0
   15.6016  -17.1812   21.4952 O   0  0  0  0  0  0  0  0  0  0  0  0
  2  1  1  1
  3  2  1  0
  3  4  1  0
  4  5  2  0
  6  5  1  0
  7  6  1  0
  8  7  2  0
  9  8  1  0
 10  9  2  0
 10 11  1  0
 11 12  2  0
 12  7  1  0
 12  4  1  0
 13 14  2  0
 13  2  1  0
 15 13  1  0
 16 15  1  0
 16 17  1  6
 18 17  1  0
 19 16  1  0
 19 21  1  0
 20 19  2  0
 22 21  1  0
 22 25  1  0
 22 23  1  1
 23 24  1  0
 25 26  2  0
 25 27  1  0
M  END
$$$$
