WCC.pdb
     RDKit          3D

 27 28  0  0  1  0  0  0  0  0999 V2000
    6.3746  -17.8273   23.9402 N   0  0  0  0  0  0  0  0  0  0  0  0
    7.0944  -16.6350   23.5476 C   0  0  1  0  0  0  0  0  0  0  0  0
    7.8927  -16.0588   24.6965 C   0  0  0  0  0  0  0  0  0  0  0  0
    7.1272  -15.1061   25.5309 C   0  0  0  0  0  0  0  0  0  0  0  0
    6.0551  -15.4238   26.3378 C   0  0  0  0  0  0  0  0  0  0  0  0
    5.5767  -14.3055   26.9422 N   0  0  0  0  0  0  0  0  0  0  0  0
    6.3124  -13.2597   26.5493 C   0  0  0  0  0  0  0  0  0  0  0  0
    6.2273  -11.9258   26.8826 C   0  0  0  0  0  0  0  0  0  0  0  0
    7.1291  -11.0297   26.3336 C   0  0  0  0  0  0  0  0  0  0  0  0
    8.0789  -11.4900   25.4773 C   0  0  0  0  0  0  0  0  0  0  0  0
    8.1497  -12.8371   25.1525 C   0  0  0  0  0  0  0  0  0  0  0  0
    7.2839  -13.7450   25.6689 C   0  0  0  0  0  0  0  0  0  0  0  0
    7.8943  -16.9330   22.3598 C   0  0  0  0  0  0  0  0  0  0  0  0
    8.5189  -18.0205   22.2795 O   0  0  0  0  0  0  0  0  0  0  0  0
    8.0313  -16.0500   21.2255 N   0  0  0  0  0  0  0  0  0  0  0  0
    9.1385  -16.1955   20.2968 C   0  0  1  0  0  0  0  0  0  0  0  0
    8.9986  -15.1266   19.1941 C   0  0  0  0  0  0  0  0  0  0  0  0
    7.4818  -15.3806   18.2508 S   0  0  0  0  0  0  0  0  0  0  0  0
   10.4625  -16.1500   20.9059 C   0  0  0  0  0  0  0  0  0  0  0  0
   10.7957  -15.0850   21.5325 O   0  0  0  0  0  0  0  0  0  0  0  0
   11.4534  -17.1604   20.8951 N   0  0  0  0  0  0  0  0  0  0  0  0
   12.7158  -17.0380   21.5887 C   0  0  1  0  0  0  0  0  0  0  0  0
   12.5214  -16.6817   23.0509 C   0  0  0  0  0  0  0  0  0  0  0  0
   11.4096  -17.9246   23.7658 S   0  0  0  0  0  0  0  0  0  0  0  0
   13.6071  -18.1868   21.4486 C   0  0  0  0  0  0  0  0  0  0  0  0
   13.1774  -19.2292   20.8752 O   0  0  0  0  0  0  0  0  0  0  0  0
   14.9148  -18.2167   21.9068 O   0  0  0  0  0  0  0  0  0  0  0  0
  2  1  1  1
  3  2  1  0
  3  4  1  0
  4  5  2  0
  6  5  1  0
  7  6  1  0
  8  7  2  0
  9  8  1  0
 10  9  2  0
 10 11  1  0
 11 12  2  0
 12  7  1  0
 12  4  1  0
 13 14  2  0
 13  2  1  0
 15 13  1  0
 16 15  1  0
 16 17  1  6
 18 17  1  0
 19 16  1  0
 19 21  1  0
 20 19  2  0
 22 21  1  0
 22 25  1  0
 22 23  1  1
 23 24  1  0
 25 26  2  0
 25 27  1  0
M  END
$$$$
