WCC.pdb
     RDKit          3D

 27 28  0  0  1  0  0  0  0  0999 V2000
    6.6056  -17.9563   24.1153 N   0  0  0  0  0  0  0  0  0  0  0  0
    7.5053  -16.9181   23.6609 C   0  0  1  0  0  0  0  0  0  0  0  0
    8.1140  -16.1581   24.8190 C   0  0  0  0  0  0  0  0  0  0  0  0
    7.1453  -15.3045   25.5420 C   0  0  0  0  0  0  0  0  0  0  0  0
    6.0876  -15.7545   26.3039 C   0  0  0  0  0  0  0  0  0  0  0  0
    5.3897  -14.7020   26.8037 N   0  0  0  0  0  0  0  0  0  0  0  0
    5.9669  -13.5699   26.3862 C   0  0  0  0  0  0  0  0  0  0  0  0
    5.6387  -12.2534   26.6248 C   0  0  0  0  0  0  0  0  0  0  0  0
    6.4149  -11.2490   26.0715 C   0  0  0  0  0  0  0  0  0  0  0  0
    7.4848  -11.5879   25.3048 C   0  0  0  0  0  0  0  0  0  0  0  0
    7.8004  -12.9193   25.0748 C   0  0  0  0  0  0  0  0  0  0  0  0
    7.0639  -13.9311   25.5984 C   0  0  0  0  0  0  0  0  0  0  0  0
    8.4906  -17.5072   22.7544 C   0  0  0  0  0  0  0  0  0  0  0  0
    9.1885  -18.4816   23.1323 O   0  0  0  0  0  0  0  0  0  0  0  0
    8.7383  -17.0478   21.4081 N   0  0  0  0  0  0  0  0  0  0  0  0
   10.0890  -16.9870   20.8775 C   0  0  1  0  0  0  0  0  0  0  0  0
   10.0965  -16.0408   19.6600 C   0  0  0  0  0  0  0  0  0  0  0  0
   11.7134  -16.0471   18.8595 S   0  0  0  0  0  0  0  0  0  0  0  0
   11.1128  -16.6065   21.8434 C   0  0  0  0  0  0  0  0  0  0  0  0
   10.7464  -15.9349   22.8694 O   0  0  0  0  0  0  0  0  0  0  0  0
   12.4977  -16.8937   21.7924 N   0  0  0  0  0  0  0  0  0  0  0  0
   13.3406  -16.9364   22.9661 C   0  0  1  0  0  0  0  0  0  0  0  0
   12.7211  -17.7693   24.0729 C   0  0  0  0  0  0  0  0  0  0  0  0
   12.8393  -16.8045   25.6049 S   0  0  0  0  0  0  0  0  0  0  0  0
   14.7197  -17.3482   22.7166 C   0  0  0  0  0  0  0  0  0  0  0  0
   15.5548  -17.2993   23.6655 O   0  0  0  0  0  0  0  0  0  0  0  0
   15.1875  -17.7977   21.4918 O   0  0  0  0  0  0  0  0  0  0  0  0
  2  1  1  1
  3  2  1  0
  3  4  1  0
  4  5  2  0
  6  5  1  0
  7  6  1  0
  8  7  2  0
  9  8  1  0
 10  9  2  0
 10 11  1  0
 11 12  2  0
 12  7  1  0
 12  4  1  0
 13 14  2  0
 13  2  1  0
 15 13  1  0
 16 15  1  0
 16 17  1  6
 18 17  1  0
 19 16  1  0
 19 21  1  0
 20 19  2  0
 22 21  1  0
 22 25  1  0
 22 23  1  1
 23 24  1  0
 25 26  2  0
 25 27  1  0
M  END
$$$$
