WCC.pdb
     RDKit          3D

 27 28  0  0  1  0  0  0  0  0999 V2000
   12.8850  -19.4254   17.4001 N   0  0  0  0  0  0  0  0  0  0  0  0
   14.0524  -19.6655   18.2206 C   0  0  1  0  0  0  0  0  0  0  0  0
   15.2917  -19.8850   17.3807 C   0  0  0  0  0  0  0  0  0  0  0  0
   15.2407  -21.1150   16.5596 C   0  0  0  0  0  0  0  0  0  0  0  0
   14.8047  -21.1936   15.2537 C   0  0  0  0  0  0  0  0  0  0  0  0
   14.8701  -22.4774   14.8150 N   0  0  0  0  0  0  0  0  0  0  0  0
   15.3402  -23.2437   15.8055 C   0  0  0  0  0  0  0  0  0  0  0  0
   15.5892  -24.5978   15.8525 C   0  0  0  0  0  0  0  0  0  0  0  0
   16.0901  -25.1561   17.0165 C   0  0  0  0  0  0  0  0  0  0  0  0
   16.3247  -24.3519   18.0868 C   0  0  0  0  0  0  0  0  0  0  0  0
   16.0678  -22.9899   18.0216 C   0  0  0  0  0  0  0  0  0  0  0  0
   15.5762  -22.4064   16.8998 C   0  0  0  0  0  0  0  0  0  0  0  0
   14.1797  -18.5812   19.1940 C   0  0  0  0  0  0  0  0  0  0  0  0
   14.1296  -17.3850   18.8122 O   0  0  0  0  0  0  0  0  0  0  0  0
   14.3632  -18.7757   20.6130 N   0  0  0  0  0  0  0  0  0  0  0  0
   14.6419  -17.6518   21.4898 C   0  0  1  0  0  0  0  0  0  0  0  0
   13.5234  -17.5648   22.5478 C   0  0  0  0  0  0  0  0  0  0  0  0
   13.8719  -16.2521   23.7354 S   0  0  0  0  0  0  0  0  0  0  0  0
   15.9573  -17.6733   22.1183 C   0  0  0  0  0  0  0  0  0  0  0  0
   16.2714  -18.7017   22.8122 O   0  0  0  0  0  0  0  0  0  0  0  0
   16.9604  -16.6767   22.0567 N   0  0  0  0  0  0  0  0  0  0  0  0
   18.2478  -16.8090   22.7009 C   0  0  1  0  0  0  0  0  0  0  0  0
   19.2998  -15.9394   22.0380 C   0  0  0  0  0  0  0  0  0  0  0  0
   19.3365  -16.3832   20.2791 S   0  0  0  0  0  0  0  0  0  0  0  0
   18.2355  -16.5979   24.1463 C   0  0  0  0  0  0  0  0  0  0  0  0
   17.1501  -16.2727   24.7087 O   0  0  0  0  0  0  0  0  0  0  0  0
   19.3487  -16.7316   24.9611 O   0  0  0  0  0  0  0  0  0  0  0  0
  2  1  1  6
  3  2  1  0
  3  4  1  0
  4  5  2  0
  6  5  1  0
  7  6  1  0
  8  7  2  0
  9  8  1  0
 10  9  2  0
 10 11  1  0
 11 12  2  0
 12  7  1  0
 12  4  1  0
 13 14  2  0
 13  2  1  0
 15 13  1  0
 16 15  1  0
 16 17  1  1
 18 17  1  0
 19 16  1  0
 19 21  1  0
 20 19  2  0
 22 21  1  0
 22 25  1  0
 22 23  1  6
 23 24  1  0
 25 26  2  0
 25 27  1  0
M  END
$$$$
