WCC.pdb
     RDKit          3D

 27 28  0  0  1  0  0  0  0  0999 V2000
    6.2245  -18.3426   24.4833 N   0  0  0  0  0  0  0  0  0  0  0  0
    6.5299  -16.9381   24.3161 C   0  0  1  0  0  0  0  0  0  0  0  0
    7.3140  -16.3920   25.4893 C   0  0  0  0  0  0  0  0  0  0  0  0
    6.7428  -15.1508   26.0575 C   0  0  0  0  0  0  0  0  0  0  0  0
    5.4409  -14.9835   26.4798 C   0  0  0  0  0  0  0  0  0  0  0  0
    5.2522  -13.7136   26.9232 N   0  0  0  0  0  0  0  0  0  0  0  0
    6.4032  -13.0432   26.8009 C   0  0  0  0  0  0  0  0  0  0  0  0
    6.7213  -11.7400   27.1148 C   0  0  0  0  0  0  0  0  0  0  0  0
    8.0098  -11.2834   26.8940 C   0  0  0  0  0  0  0  0  0  0  0  0
    8.9317  -12.1349   26.3720 C   0  0  0  0  0  0  0  0  0  0  0  0
    8.5936  -13.4443   26.0616 C   0  0  0  0  0  0  0  0  0  0  0  0
    7.3421  -13.9280   26.2625 C   0  0  0  0  0  0  0  0  0  0  0  0
    7.1857  -16.7456   23.0229 C   0  0  0  0  0  0  0  0  0  0  0  0
    8.0407  -17.5749   22.6224 O   0  0  0  0  0  0  0  0  0  0  0  0
    6.9226  -15.6411   22.1308 N   0  0  0  0  0  0  0  0  0  0  0  0
    7.7809  -15.3854   20.9873 C   0  0  1  0  0  0  0  0  0  0  0  0
    7.4578  -13.9826   20.4344 C   0  0  0  0  0  0  0  0  0  0  0  0
    8.5466  -13.5766   19.0542 S   0  0  0  0  0  0  0  0  0  0  0  0
    9.2086  -15.5312   21.2449 C   0  0  0  0  0  0  0  0  0  0  0  0
    9.7565  -14.7078   22.0571 O   0  0  0  0  0  0  0  0  0  0  0  0
   10.0909  -16.4938   20.6990 N   0  0  0  0  0  0  0  0  0  0  0  0
   11.5293  -16.4006   20.8082 C   0  0  1  0  0  0  0  0  0  0  0  0
   12.0651  -17.2698   21.9307 C   0  0  0  0  0  0  0  0  0  0  0  0
   11.0572  -18.7779   21.9732 S   0  0  0  0  0  0  0  0  0  0  0  0
   12.2567  -16.6500   19.5662 C   0  0  0  0  0  0  0  0  0  0  0  0
   11.6204  -17.0724   18.5579 O   0  0  0  0  0  0  0  0  0  0  0  0
   13.6197  -16.4527   19.4104 O   0  0  0  0  0  0  0  0  0  0  0  0
  2  1  1  1
  3  2  1  0
  3  4  1  0
  4  5  2  0
  6  5  1  0
  7  6  1  0
  8  7  2  0
  9  8  1  0
 10  9  2  0
 10 11  1  0
 11 12  2  0
 12  7  1  0
 12  4  1  0
 13 14  2  0
 13  2  1  0
 15 13  1  0
 16 15  1  0
 16 17  1  1
 18 17  1  0
 19 16  1  0
 19 21  1  0
 20 19  2  0
 22 21  1  0
 22 25  1  0
 22 23  1  1
 23 24  1  0
 25 26  2  0
 25 27  1  0
M  END
$$$$
