NFK.pdb
     RDKit          3D

 29 29  0  0  1  0  0  0  0  0999 V2000
   10.9332  -17.1169   16.8770 N   0  0  0  0  0  0  0  0  0  0  0  0
    9.7579  -16.9413   17.6833 C   0  0  0  0  0  0  0  0  0  0  0  0
    8.7165  -17.4704   17.2172 O   0  0  0  0  0  0  0  0  0  0  0  0
    9.8450  -16.1881   18.9447 C   0  0  0  0  0  0  0  0  0  0  0  0
    9.5661  -16.9614   20.1834 C   0  0  2  0  0  0  0  0  0  0  0  0
    8.1392  -17.3554   20.0937 N   0  0  0  0  0  0  0  0  0  0  0  0
    9.6758  -16.2073   21.4438 C   0  0  0  0  0  0  0  0  0  0  0  0
   10.8074  -15.8078   21.8022 O   0  0  0  0  0  0  0  0  0  0  0  0
    8.5921  -15.9032   22.2772 N   0  0  0  0  0  0  0  0  0  0  0  0
    8.7304  -15.1801   23.5711 C   0  0  1  0  0  0  0  0  0  0  0  0
    7.5372  -14.3429   23.6792 C   0  0  0  0  0  0  0  0  0  0  0  0
    7.2948  -13.4799   24.7998 C   0  0  0  0  0  0  0  0  0  0  0  0
    6.1512  -13.6462   25.5491 C   0  0  0  0  0  0  0  0  0  0  0  0
    5.8642  -12.8304   26.6461 C   0  0  0  0  0  0  0  0  0  0  0  0
    6.7647  -11.8396   26.9676 C   0  0  0  0  0  0  0  0  0  0  0  0
    7.9199  -11.6530   26.2308 C   0  0  0  0  0  0  0  0  0  0  0  0
    8.1730  -12.4746   25.1549 C   0  0  0  0  0  0  0  0  0  0  0  0
    8.8984  -16.1862   24.6360 C   0  0  0  0  0  0  0  0  0  0  0  0
    7.9990  -17.0989   24.7426 O   0  0  0  0  0  0  0  0  0  0  0  0
    9.9421  -16.2770   25.5627 N   0  0  0  0  0  0  0  0  0  0  0  0
    9.9902  -17.4315   26.5401 C   0  0  1  0  0  0  0  0  0  0  0  0
   11.1316  -18.2935   26.0899 C   0  0  0  0  0  0  0  0  0  0  0  0
   11.0205  -19.2304   25.0049 C   0  0  0  0  0  0  0  0  0  0  0  0
   12.0750  -20.0677   24.4530 C   0  0  0  0  0  0  0  0  0  0  0  0
   11.7639  -20.9840   23.3254 C   0  0  0  0  0  0  0  0  0  0  0  0
   12.8871  -21.7166   22.8651 N   0  0  0  0  0  0  0  0  0  0  0  0
   10.2193  -16.7908   27.8196 C   0  0  0  0  0  0  0  0  0  0  0  0
   10.5586  -15.5581   27.8517 O   0  0  0  0  0  0  0  0  0  0  0  0
   10.0968  -17.4007   29.0324 O   0  0  0  0  0  0  0  0  0  0  0  0
  1  2  1  0
  2  3  2  0
  4  5  1  0
  4  2  1  0
  5  6  1  6
  5  7  1  0
  7  8  2  0
  9  7  1  0
  9 10  1  0
 10 18  1  0
 11 12  1  0
 10 11  1  1
 12 13  2  0
 13 14  1  0
 15 14  2  0
 16 15  1  0
 17 12  1  0
 17 16  2  0
 18 20  1  0
 19 18  2  0
 20 21  1  0
 21 27  1  0
 21 22  1  6
 23 22  1  0
 24 23  1  0
 25 24  1  0
 26 25  1  0
 27 28  2  0
 27 29  1  0
M  END
$$$$
