NFK.pdb
     RDKit          3D

 29 29  0  0  1  0  0  0  0  0999 V2000
    7.1424  -19.5900   19.3948 N   0  0  0  0  0  0  0  0  0  0  0  0
    8.5436  -19.2762   19.4121 C   0  0  0  0  0  0  0  0  0  0  0  0
    9.2055  -19.7724   18.4649 O   0  0  0  0  0  0  0  0  0  0  0  0
    9.0886  -18.4328   20.4881 C   0  0  0  0  0  0  0  0  0  0  0  0
    9.0015  -16.9648   20.2698 C   0  0  2  0  0  0  0  0  0  0  0  0
   10.0683  -16.6442   19.2908 N   0  0  0  0  0  0  0  0  0  0  0  0
    9.2969  -16.1271   21.4447 C   0  0  0  0  0  0  0  0  0  0  0  0
   10.4953  -15.8910   21.7216 O   0  0  0  0  0  0  0  0  0  0  0  0
    8.3213  -15.5711   22.2816 N   0  0  0  0  0  0  0  0  0  0  0  0
    8.6401  -14.8266   23.5307 C   0  0  1  0  0  0  0  0  0  0  0  0
    7.4931  -13.9521   23.7668 C   0  0  0  0  0  0  0  0  0  0  0  0
    7.3249  -13.2048   24.9803 C   0  0  0  0  0  0  0  0  0  0  0  0
    8.2127  -12.1969   25.2848 C   0  0  0  0  0  0  0  0  0  0  0  0
    8.0980  -11.4429   26.4551 C   0  0  0  0  0  0  0  0  0  0  0  0
    7.0602  -11.7339   27.3121 C   0  0  0  0  0  0  0  0  0  0  0  0
    6.1560  -12.7408   27.0283 C   0  0  0  0  0  0  0  0  0  0  0  0
    6.2974  -13.4657   25.8659 C   0  0  0  0  0  0  0  0  0  0  0  0
    8.9127  -15.8158   24.5900 C   0  0  0  0  0  0  0  0  0  0  0  0
    8.0179  -16.7112   24.8156 O   0  0  0  0  0  0  0  0  0  0  0  0
   10.0530  -15.9070   25.3948 N   0  0  0  0  0  0  0  0  0  0  0  0
   10.2240  -17.0784   26.3378 C   0  0  1  0  0  0  0  0  0  0  0  0
   11.6296  -17.5587   26.1331 C   0  0  0  0  0  0  0  0  0  0  0  0
   11.9743  -18.5775   25.1788 C   0  0  0  0  0  0  0  0  0  0  0  0
   13.1141  -18.5871   24.2741 C   0  0  0  0  0  0  0  0  0  0  0  0
   13.2552  -19.6918   23.2903 C   0  0  0  0  0  0  0  0  0  0  0  0
   14.3801  -19.5511   22.4389 N   0  0  0  0  0  0  0  0  0  0  0  0
    9.9948  -16.5027   27.6478 C   0  0  0  0  0  0  0  0  0  0  0  0
    9.8897  -15.2335   27.7654 O   0  0  0  0  0  0  0  0  0  0  0  0
    9.8715  -17.2144   28.8038 O   0  0  0  0  0  0  0  0  0  0  0  0
  1  2  1  0
  2  3  2  0
  4  5  1  0
  4  2  1  0
  5  6  1  6
  5  7  1  0
  7  8  2  0
  9  7  1  0
  9 10  1  0
 10 18  1  0
 11 12  1  0
 10 11  1  1
 12 13  2  0
 13 14  1  0
 15 14  2  0
 16 15  1  0
 17 12  1  0
 17 16  2  0
 18 20  1  0
 19 18  2  0
 20 21  1  0
 21 27  1  0
 21 22  1  1
 23 22  1  0
 24 23  1  0
 25 24  1  0
 26 25  1  0
 27 28  2  0
 27 29  1  0
M  END
$$$$
