NFK.pdb
     RDKit          3D

 29 29  0  0  1  0  0  0  0  0999 V2000
    8.0336  -12.8840   16.9003 N   0  0  0  0  0  0  0  0  0  0  0  0
    7.9334  -13.9634   17.8422 C   0  0  0  0  0  0  0  0  0  0  0  0
    7.8209  -15.1041   17.3248 O   0  0  0  0  0  0  0  0  0  0  0  0
    7.9676  -13.6771   19.2854 C   0  0  0  0  0  0  0  0  0  0  0  0
    8.9819  -14.4268   20.0723 C   0  0  2  0  0  0  0  0  0  0  0  0
    8.4935  -15.8262   20.1204 N   0  0  0  0  0  0  0  0  0  0  0  0
    9.1215  -14.0223   21.4818 C   0  0  0  0  0  0  0  0  0  0  0  0
    9.0745  -12.8017   21.7584 O   0  0  0  0  0  0  0  0  0  0  0  0
    9.3051  -14.9164   22.5439 N   0  0  0  0  0  0  0  0  0  0  0  0
    9.1755  -14.5273   23.9750 C   0  0  1  0  0  0  0  0  0  0  0  0
    7.8890  -13.8415   24.0776 C   0  0  0  0  0  0  0  0  0  0  0  0
    7.4651  -13.1629   25.2689 C   0  0  0  0  0  0  0  0  0  0  0  0
    6.4474  -13.6967   26.0279 C   0  0  0  0  0  0  0  0  0  0  0  0
    5.9928  -13.0742   27.1928 C   0  0  0  0  0  0  0  0  0  0  0  0
    6.5947  -11.8953   27.5724 C   0  0  0  0  0  0  0  0  0  0  0  0
    7.6185  -11.3397   26.8272 C   0  0  0  0  0  0  0  0  0  0  0  0
    8.0430  -11.9788   25.6835 C   0  0  0  0  0  0  0  0  0  0  0  0
    9.3103  -15.7490   24.7900 C   0  0  0  0  0  0  0  0  0  0  0  0
    9.1105  -15.6472   26.0561 O   0  0  0  0  0  0  0  0  0  0  0  0
    9.6302  -17.0361   24.3460 N   0  0  0  0  0  0  0  0  0  0  0  0
    9.7120  -18.1804   25.3331 C   0  0  1  0  0  0  0  0  0  0  0  0
    9.8592  -19.4199   24.5020 C   0  0  0  0  0  0  0  0  0  0  0  0
    9.5767  -19.4516   23.0925 C   0  0  0  0  0  0  0  0  0  0  0  0
    9.6882  -20.5938   22.1977 C   0  0  0  0  0  0  0  0  0  0  0  0
    9.3378  -20.4330   20.7626 C   0  0  0  0  0  0  0  0  0  0  0  0
    9.4867  -21.6233   20.0069 N   0  0  0  0  0  0  0  0  0  0  0  0
   10.8870  -17.8712   26.1229 C   0  0  0  0  0  0  0  0  0  0  0  0
   11.8115  -17.1479   25.6150 O   0  0  0  0  0  0  0  0  0  0  0  0
   11.1016  -18.2901   27.4021 O   0  0  0  0  0  0  0  0  0  0  0  0
  1  2  1  0
  2  3  2  0
  4  5  1  0
  4  2  1  0
  5  6  1  1
  5  7  1  0
  7  8  2  0
  9  7  1  0
  9 10  1  0
 10 18  1  0
 11 12  1  0
 10 11  1  6
 12 13  2  0
 13 14  1  0
 15 14  2  0
 16 15  1  0
 17 12  1  0
 17 16  2  0
 18 20  1  0
 19 18  2  0
 20 21  1  0
 21 27  1  0
 21 22  1  6
 23 22  1  0
 24 23  1  0
 25 24  1  0
 26 25  1  0
 27 28  2  0
 27 29  1  0
M  END
$$$$
