NFK.pdb
     RDKit          3D

 29 29  0  0  1  0  0  0  0  0999 V2000
    9.5504  -20.0185   18.4912 N   0  0  0  0  0  0  0  0  0  0  0  0
    8.7200  -18.9851   19.0433 C   0  0  0  0  0  0  0  0  0  0  0  0
    7.6805  -18.7356   18.3810 O   0  0  0  0  0  0  0  0  0  0  0  0
    9.1216  -18.3161   20.2912 C   0  0  0  0  0  0  0  0  0  0  0  0
    9.2812  -16.8400   20.2144 C   0  0  2  0  0  0  0  0  0  0  0  0
   10.5544  -16.6147   19.4881 N   0  0  0  0  0  0  0  0  0  0  0  0
    9.4496  -16.1492   21.5043 C   0  0  0  0  0  0  0  0  0  0  0  0
   10.5748  -16.1795   22.0535 O   0  0  0  0  0  0  0  0  0  0  0  0
    8.4291  -15.4543   22.1654 N   0  0  0  0  0  0  0  0  0  0  0  0
    8.6090  -14.7967   23.4888 C   0  0  1  0  0  0  0  0  0  0  0  0
    7.5231  -13.8239   23.5916 C   0  0  0  0  0  0  0  0  0  0  0  0
    7.2256  -13.1197   24.8060 C   0  0  0  0  0  0  0  0  0  0  0  0
    7.9833  -12.0248   25.1582 C   0  0  0  0  0  0  0  0  0  0  0  0
    7.7398  -11.3072   26.3316 C   0  0  0  0  0  0  0  0  0  0  0  0
    6.7082  -11.7252   27.1423 C   0  0  0  0  0  0  0  0  0  0  0  0
    5.9334  -12.8213   26.8102 C   0  0  0  0  0  0  0  0  0  0  0  0
    6.1998  -13.5070   25.6461 C   0  0  0  0  0  0  0  0  0  0  0  0
    8.6168  -15.8506   24.5204 C   0  0  0  0  0  0  0  0  0  0  0  0
    7.8351  -16.8574   24.3514 O   0  0  0  0  0  0  0  0  0  0  0  0
    9.3912  -15.8953   25.6842 N   0  0  0  0  0  0  0  0  0  0  0  0
    9.5913  -17.2070   26.4122 C   0  0  1  0  0  0  0  0  0  0  0  0
   10.5433  -17.9971   25.5648 C   0  0  0  0  0  0  0  0  0  0  0  0
   11.1351  -19.2325   26.0017 C   0  0  0  0  0  0  0  0  0  0  0  0
   12.0466  -20.0852   25.2535 C   0  0  0  0  0  0  0  0  0  0  0  0
   12.4623  -21.3906   25.8290 C   0  0  0  0  0  0  0  0  0  0  0  0
   13.3427  -22.1230   24.9931 N   0  0  0  0  0  0  0  0  0  0  0  0
   10.1473  -16.8107   27.6903 C   0  0  0  0  0  0  0  0  0  0  0  0
    9.9907  -17.5726   28.7056 O   0  0  0  0  0  0  0  0  0  0  0  0
   10.8501  -15.6647   27.9156 O   0  0  0  0  0  0  0  0  0  0  0  0
  1  2  1  0
  2  3  2  0
  4  5  1  0
  4  2  1  0
  5  6  1  6
  5  7  1  0
  7  8  2  0
  9  7  1  0
  9 10  1  0
 10 18  1  0
 11 12  1  0
 10 11  1  1
 12 13  2  0
 13 14  1  0
 15 14  2  0
 16 15  1  0
 17 12  1  0
 17 16  2  0
 18 20  1  0
 19 18  2  0
 20 21  1  0
 21 27  1  0
 21 22  1  6
 23 22  1  0
 24 23  1  0
 25 24  1  0
 26 25  1  0
 27 28  2  0
 27 29  1  0
M  END
$$$$
