NFK.pdb
     RDKit          3D

 29 29  0  0  1  0  0  0  0  0999 V2000
   12.1759  -18.1692   18.2525 N   0  0  0  0  0  0  0  0  0  0  0  0
   11.2663  -17.0775   18.4602 C   0  0  0  0  0  0  0  0  0  0  0  0
   10.5269  -16.8148   17.4775 O   0  0  0  0  0  0  0  0  0  0  0  0
   11.2592  -16.3699   19.7507 C   0  0  0  0  0  0  0  0  0  0  0  0
   10.2945  -16.8749   20.7628 C   0  0  2  0  0  0  0  0  0  0  0  0
    8.9535  -16.7097   20.1516 N   0  0  0  0  0  0  0  0  0  0  0  0
   10.2363  -16.1145   22.0230 C   0  0  0  0  0  0  0  0  0  0  0  0
   11.3112  -15.8477   22.6076 O   0  0  0  0  0  0  0  0  0  0  0  0
    9.0510  -15.6649   22.6182 N   0  0  0  0  0  0  0  0  0  0  0  0
    9.0062  -14.9731   23.9356 C   0  0  1  0  0  0  0  0  0  0  0  0
    7.7660  -14.1996   23.9277 C   0  0  0  0  0  0  0  0  0  0  0  0
    7.3178  -13.4420   25.0611 C   0  0  0  0  0  0  0  0  0  0  0  0
    7.9620  -12.2704   25.3915 C   0  0  0  0  0  0  0  0  0  0  0  0
    7.5699  -11.4980   26.4874 C   0  0  0  0  0  0  0  0  0  0  0  0
    6.5073  -11.9409   27.2428 C   0  0  0  0  0  0  0  0  0  0  0  0
    5.8444  -13.1137   26.9311 C   0  0  0  0  0  0  0  0  0  0  0  0
    6.2563  -13.8520   25.8440 C   0  0  0  0  0  0  0  0  0  0  0  0
    9.1074  -15.9996   24.9894 C   0  0  0  0  0  0  0  0  0  0  0  0
    8.2210  -16.9310   25.0030 O   0  0  0  0  0  0  0  0  0  0  0  0
   10.0737  -16.0919   25.9963 N   0  0  0  0  0  0  0  0  0  0  0  0
   10.0635  -17.2653   26.9522 C   0  0  1  0  0  0  0  0  0  0  0  0
   11.1383  -18.1909   26.4656 C   0  0  0  0  0  0  0  0  0  0  0  0
   10.9410  -19.1121   25.3794 C   0  0  0  0  0  0  0  0  0  0  0  0
   11.9275  -20.0080   24.7947 C   0  0  0  0  0  0  0  0  0  0  0  0
   11.5293  -20.9007   23.6754 C   0  0  0  0  0  0  0  0  0  0  0  0
   12.5785  -21.7375   23.2182 N   0  0  0  0  0  0  0  0  0  0  0  0
   10.3562  -16.6650   28.2382 C   0  0  0  0  0  0  0  0  0  0  0  0
   10.3725  -17.4004   29.2844 O   0  0  0  0  0  0  0  0  0  0  0  0
   10.6302  -15.3451   28.4407 O   0  0  0  0  0  0  0  0  0  0  0  0
  1  2  1  0
  2  3  2  0
  4  5  1  0
  4  2  1  0
  5  6  1  6
  5  7  1  0
  7  8  2  0
  9  7  1  0
  9 10  1  0
 10 18  1  0
 11 12  1  0
 10 11  1  1
 12 13  2  0
 13 14  1  0
 15 14  2  0
 16 15  1  0
 17 12  1  0
 17 16  2  0
 18 20  1  0
 19 18  2  0
 20 21  1  0
 21 27  1  0
 21 22  1  6
 23 22  1  0
 24 23  1  0
 25 24  1  0
 26 25  1  0
 27 28  2  0
 27 29  1  0
M  END
$$$$
