NFK.pdb
     RDKit          3D

 29 29  0  0  1  0  0  0  0  0999 V2000
   10.2543  -19.7400   18.3708 N   0  0  0  0  0  0  0  0  0  0  0  0
    9.2227  -19.1907   19.2053 C   0  0  0  0  0  0  0  0  0  0  0  0
    8.0532  -19.5219   18.8825 O   0  0  0  0  0  0  0  0  0  0  0  0
    9.5850  -18.3162   20.3322 C   0  0  0  0  0  0  0  0  0  0  0  0
    9.0851  -16.9182   20.2562 C   0  0  2  0  0  0  0  0  0  0  0  0
    9.8818  -16.2683   19.1876 N   0  0  0  0  0  0  0  0  0  0  0  0
    9.3111  -16.0944   21.4561 C   0  0  0  0  0  0  0  0  0  0  0  0
   10.4785  -15.7171   21.7081 O   0  0  0  0  0  0  0  0  0  0  0  0
    8.3016  -15.7001   22.3430 N   0  0  0  0  0  0  0  0  0  0  0  0
    8.5558  -14.8950   23.5691 C   0  0  1  0  0  0  0  0  0  0  0  0
    7.3267  -14.1388   23.8007 C   0  0  0  0  0  0  0  0  0  0  0  0
    7.0756  -13.4216   25.0181 C   0  0  0  0  0  0  0  0  0  0  0  0
    6.1788  -13.9293   25.9318 C   0  0  0  0  0  0  0  0  0  0  0  0
    5.8938  -13.2689   27.1292 C   0  0  0  0  0  0  0  0  0  0  0  0
    6.5399  -12.0793   27.3806 C   0  0  0  0  0  0  0  0  0  0  0  0
    7.4445  -11.5493   26.4790 C   0  0  0  0  0  0  0  0  0  0  0  0
    7.7030  -12.2255   25.3075 C   0  0  0  0  0  0  0  0  0  0  0  0
    8.9428  -15.8232   24.6477 C   0  0  0  0  0  0  0  0  0  0  0  0
    8.2564  -16.9022   24.7819 O   0  0  0  0  0  0  0  0  0  0  0  0
    9.9919  -15.6754   25.5607 N   0  0  0  0  0  0  0  0  0  0  0  0
   10.3386  -16.8046   26.5070 C   0  0  1  0  0  0  0  0  0  0  0  0
   11.7536  -17.1812   26.1838 C   0  0  0  0  0  0  0  0  0  0  0  0
   12.1159  -17.9046   24.9952 C   0  0  0  0  0  0  0  0  0  0  0  0
   13.4502  -18.3203   24.5898 C   0  0  0  0  0  0  0  0  0  0  0  0
   13.6173  -19.1397   23.3614 C   0  0  0  0  0  0  0  0  0  0  0  0
   14.9661  -19.4794   23.0868 N   0  0  0  0  0  0  0  0  0  0  0  0
   10.1835  -16.2134   27.8209 C   0  0  0  0  0  0  0  0  0  0  0  0
    9.9431  -14.9612   27.9207 O   0  0  0  0  0  0  0  0  0  0  0  0
   10.2677  -16.8935   28.9992 O   0  0  0  0  0  0  0  0  0  0  0  0
  1  2  1  0
  2  3  2  0
  4  5  1  0
  4  2  1  0
  5  6  1  6
  5  7  1  0
  7  8  2  0
  9  7  1  0
  9 10  1  0
 10 18  1  0
 11 12  1  0
 10 11  1  1
 12 13  2  0
 13 14  1  0
 15 14  2  0
 16 15  1  0
 17 12  1  0
 17 16  2  0
 18 20  1  0
 19 18  2  0
 20 21  1  0
 21 27  1  0
 21 22  1  6
 23 22  1  0
 24 23  1  0
 25 24  1  0
 26 25  1  0
 27 28  2  0
 27 29  1  0
M  END
$$$$
