NFK.pdb
     RDKit          3D

 29 29  0  0  1  0  0  0  0  0999 V2000
   10.7452  -18.6911   19.2546 N   0  0  0  0  0  0  0  0  0  0  0  0
   11.4027  -17.4144   19.2588 C   0  0  0  0  0  0  0  0  0  0  0  0
   12.1224  -17.1902   18.2523 O   0  0  0  0  0  0  0  0  0  0  0  0
   11.2003  -16.4938   20.3891 C   0  0  0  0  0  0  0  0  0  0  0  0
   10.4563  -17.0465   21.5515 C   0  0  2  0  0  0  0  0  0  0  0  0
    9.0842  -17.3126   21.0557 N   0  0  0  0  0  0  0  0  0  0  0  0
   10.2798  -16.1288   22.6901 C   0  0  0  0  0  0  0  0  0  0  0  0
   11.2884  -15.8122   23.3616 O   0  0  0  0  0  0  0  0  0  0  0  0
    9.0506  -15.5807   23.0774 N   0  0  0  0  0  0  0  0  0  0  0  0
    8.8588  -14.8021   24.3316 C   0  0  1  0  0  0  0  0  0  0  0  0
    7.7334  -13.9079   24.0671 C   0  0  0  0  0  0  0  0  0  0  0  0
    7.1848  -13.0359   25.0661 C   0  0  0  0  0  0  0  0  0  0  0  0
    5.9886  -13.3603   25.6668 C   0  0  0  0  0  0  0  0  0  0  0  0
    5.4081  -12.5441   26.6405 C   0  0  0  0  0  0  0  0  0  0  0  0
    6.0691  -11.3886   26.9929 C   0  0  0  0  0  0  0  0  0  0  0  0
    7.2712  -11.0415   26.4044 C   0  0  0  0  0  0  0  0  0  0  0  0
    7.8165  -11.8682   25.4474 C   0  0  0  0  0  0  0  0  0  0  0  0
    8.6617  -15.7615   25.4341 C   0  0  0  0  0  0  0  0  0  0  0  0
    8.6543  -15.2992   26.6339 O   0  0  0  0  0  0  0  0  0  0  0  0
    8.4714  -17.1435   25.3344 N   0  0  0  0  0  0  0  0  0  0  0  0
    8.3386  -17.9831   26.5867 C   0  0  1  0  0  0  0  0  0  0  0  0
    7.9580  -19.3544   26.1140 C   0  0  0  0  0  0  0  0  0  0  0  0
    7.9041  -20.4938   26.9893 C   0  0  0  0  0  0  0  0  0  0  0  0
    7.7010  -21.8847   26.6126 C   0  0  0  0  0  0  0  0  0  0  0  0
    7.6922  -22.9320   27.6667 C   0  0  0  0  0  0  0  0  0  0  0  0
    7.3422  -24.2182   27.1836 N   0  0  0  0  0  0  0  0  0  0  0  0
    9.6577  -17.9229   27.1836 C   0  0  0  0  0  0  0  0  0  0  0  0
    9.7671  -17.8214   28.4539 O   0  0  0  0  0  0  0  0  0  0  0  0
   10.8316  -17.9718   26.4926 O   0  0  0  0  0  0  0  0  0  0  0  0
  1  2  1  0
  2  3  2  0
  4  5  1  0
  4  2  1  0
  5  6  1  6
  5  7  1  0
  7  8  2  0
  9  7  1  0
  9 10  1  0
 10 18  1  0
 11 12  1  0
 10 11  1  6
 12 13  2  0
 13 14  1  0
 15 14  2  0
 16 15  1  0
 17 12  1  0
 17 16  2  0
 18 20  1  0
 19 18  2  0
 20 21  1  0
 21 27  1  0
 21 22  1  6
 23 22  1  0
 24 23  1  0
 25 24  1  0
 26 25  1  0
 27 28  2  0
 27 29  1  0
M  END
$$$$
