NFK.pdb
     RDKit          3D

 29 29  0  0  1  0  0  0  0  0999 V2000
    8.0299  -18.3212   17.7519 N   0  0  0  0  0  0  0  0  0  0  0  0
    8.1185  -18.9778   19.0260 C   0  0  0  0  0  0  0  0  0  0  0  0
    7.7976  -20.1937   19.0145 O   0  0  0  0  0  0  0  0  0  0  0  0
    8.5589  -18.2194   20.2079 C   0  0  0  0  0  0  0  0  0  0  0  0
    8.7151  -16.7533   20.0175 C   0  0  2  0  0  0  0  0  0  0  0  0
    9.8976  -16.5901   19.1375 N   0  0  0  0  0  0  0  0  0  0  0  0
    9.0337  -15.9832   21.2321 C   0  0  0  0  0  0  0  0  0  0  0  0
   10.2319  -15.8987   21.5864 O   0  0  0  0  0  0  0  0  0  0  0  0
    8.0804  -15.3330   22.0257 N   0  0  0  0  0  0  0  0  0  0  0  0
    8.3984  -14.6967   23.3334 C   0  0  1  0  0  0  0  0  0  0  0  0
    7.2819  -13.7950   23.6100 C   0  0  0  0  0  0  0  0  0  0  0  0
    7.1013  -13.1517   24.8800 C   0  0  0  0  0  0  0  0  0  0  0  0
    6.0722  -13.5522   25.7030 C   0  0  0  0  0  0  0  0  0  0  0  0
    5.8487  -12.9559   26.9463 C   0  0  0  0  0  0  0  0  0  0  0  0
    6.6941  -11.9421   27.3379 C   0  0  0  0  0  0  0  0  0  0  0  0
    7.7345  -11.5225   26.5294 C   0  0  0  0  0  0  0  0  0  0  0  0
    7.9274  -12.1312   25.3092 C   0  0  0  0  0  0  0  0  0  0  0  0
    8.6057  -15.7719   24.3212 C   0  0  0  0  0  0  0  0  0  0  0  0
    7.7864  -16.7628   24.3062 O   0  0  0  0  0  0  0  0  0  0  0  0
    9.6098  -15.8528   25.2915 N   0  0  0  0  0  0  0  0  0  0  0  0
    9.8109  -17.1353   26.0696 C   0  0  1  0  0  0  0  0  0  0  0  0
   10.9215  -17.8609   25.3705 C   0  0  0  0  0  0  0  0  0  0  0  0
   11.5135  -19.0647   25.8878 C   0  0  0  0  0  0  0  0  0  0  0  0
   12.5917  -19.8412   25.2943 C   0  0  0  0  0  0  0  0  0  0  0  0
   13.0709  -21.0684   25.9818 C   0  0  0  0  0  0  0  0  0  0  0  0
   12.8173  -22.2594   25.2556 N   0  0  0  0  0  0  0  0  0  0  0  0
   10.1647  -16.6801   27.3991 C   0  0  0  0  0  0  0  0  0  0  0  0
   10.4707  -15.4516   27.5806 O   0  0  0  0  0  0  0  0  0  0  0  0
   10.1969  -17.4666   28.5120 O   0  0  0  0  0  0  0  0  0  0  0  0
  1  2  1  0
  2  3  2  0
  4  5  1  0
  4  2  1  0
  5  6  1  6
  5  7  1  0
  7  8  2  0
  9  7  1  0
  9 10  1  0
 10 18  1  0
 11 12  1  0
 10 11  1  1
 12 13  2  0
 13 14  1  0
 15 14  2  0
 16 15  1  0
 17 12  1  0
 17 16  2  0
 18 20  1  0
 19 18  2  0
 20 21  1  0
 21 27  1  0
 21 22  1  6
 23 22  1  0
 24 23  1  0
 25 24  1  0
 26 25  1  0
 27 28  2  0
 27 29  1  0
M  END
$$$$
