QYQ.pdb
     RDKit          3D

 31 31  0  0  1  0  0  0  0  0999 V2000
    7.6305  -20.4449   20.3310 N   0  0  0  0  0  0  0  0  0  0  0  0
    8.3434  -20.4892   19.1107 C   0  0  0  0  0  0  0  0  0  0  0  0
    7.9555  -21.2025   18.1577 O   0  0  0  0  0  0  0  0  0  0  0  0
    9.5664  -19.6789   18.9611 C   0  0  0  0  0  0  0  0  0  0  0  0
    9.8512  -18.9100   20.2389 C   0  0  0  0  0  0  0  0  0  0  0  0
    9.7848  -17.4335   19.8833 C   0  0  2  0  0  0  0  0  0  0  0  0
   10.8688  -17.1305   19.0270 N   0  0  0  0  0  0  0  0  0  0  0  0
    9.8492  -16.6153   21.1254 C   0  0  0  0  0  0  0  0  0  0  0  0
   10.9830  -16.4142   21.6766 O   0  0  0  0  0  0  0  0  0  0  0  0
    6.5622  -11.3962   27.6579 O   0  0  0  0  0  0  0  0  0  0  0  0
    6.8459  -12.0937   26.5002 C   0  0  0  0  0  0  0  0  0  0  0  0
    7.7334  -11.6002   25.5675 C   0  0  0  0  0  0  0  0  0  0  0  0
    7.9793  -12.3468   24.4214 C   0  0  0  0  0  0  0  0  0  0  0  0
    7.3799  -13.5510   24.1764 C   0  0  0  0  0  0  0  0  0  0  0  0
    7.6558  -14.3203   22.9664 C   0  0  0  0  0  0  0  0  0  0  0  0
    8.7864  -15.2775   22.9879 C   0  0  2  0  0  0  0  0  0  0  0  0
    8.7045  -16.0546   21.7151 N   0  0  0  0  0  0  0  0  0  0  0  0
    8.8500  -16.2718   24.0439 C   0  0  0  0  0  0  0  0  0  0  0  0
    8.3858  -17.4460   23.8219 O   0  0  0  0  0  0  0  0  0  0  0  0
    6.4849  -14.0265   25.1391 C   0  0  0  0  0  0  0  0  0  0  0  0
    6.2246  -13.3105   26.2775 C   0  0  0  0  0  0  0  0  0  0  0  0
   12.6754  -21.0910   25.2862 N   0  0  0  0  0  0  0  0  0  0  0  0
   12.6339  -19.6988   25.4293 C   0  0  0  0  0  0  0  0  0  0  0  0
   13.5240  -19.0015   24.8763 O   0  0  0  0  0  0  0  0  0  0  0  0
   11.5786  -18.9842   26.2119 C   0  0  0  0  0  0  0  0  0  0  0  0
   10.9053  -17.9326   25.3990 C   0  0  0  0  0  0  0  0  0  0  0  0
    9.8629  -17.1303   26.1729 C   0  0  2  0  0  0  0  0  0  0  0  0
    9.4109  -16.0118   25.3172 N   0  0  0  0  0  0  0  0  0  0  0  0
   10.3570  -16.5896   27.4386 C   0  0  0  0  0  0  0  0  0  0  0  0
   10.5558  -15.3637   27.5793 O   0  0  0  0  0  0  0  0  0  0  0  0
   10.6372  -17.3699   28.5581 O   0  0  0  0  0  0  0  0  0  0  0  0
  2  1  1  0
  2  4  1  0
  3  2  2  0
  5  4  1  0
  6  5  1  0
  6  7  1  6
  8  9  2  0
  8  6  1  0
 10 11  1  0
 11 12  2  0
 12 13  1  0
 14 15  1  0
 14 13  2  0
 16 15  1  1
 16 17  1  0
 17  8  1  0
 18 16  1  0
 19 18  2  0
 20 14  1  0
 21 20  2  0
 21 11  1  0
 23 24  2  0
 23 22  1  0
 25 23  1  0
 27 26  1  6
 26 25  1  0
 27 28  1  0
 28 18  1  0
 29 27  1  0
 30 29  2  0
 31 29  1  0
M  END
$$$$
