QYQ.pdb
     RDKit          3D

 31 31  0  0  1  0  0  0  0  0999 V2000
    8.4141  -16.9713   16.6757 N   0  0  0  0  0  0  0  0  0  0  0  0
    9.7696  -17.3692   16.6151 C   0  0  0  0  0  0  0  0  0  0  0  0
   10.3901  -17.3975   15.5281 O   0  0  0  0  0  0  0  0  0  0  0  0
   10.4624  -17.7576   17.8577 C   0  0  0  0  0  0  0  0  0  0  0  0
    9.5585  -17.5394   19.0579 C   0  0  0  0  0  0  0  0  0  0  0  0
   10.3599  -17.9400   20.2859 C   0  0  2  0  0  0  0  0  0  0  0  0
    9.7097  -19.0310   20.9081 N   0  0  0  0  0  0  0  0  0  0  0  0
   10.4597  -16.7839   21.2185 C   0  0  0  0  0  0  0  0  0  0  0  0
   11.3188  -15.8697   20.9822 O   0  0  0  0  0  0  0  0  0  0  0  0
    6.5703  -12.6031   18.4038 O   0  0  0  0  0  0  0  0  0  0  0  0
    7.0436  -13.1329   19.5881 C   0  0  0  0  0  0  0  0  0  0  0  0
    8.2397  -12.7140   20.1313 C   0  0  0  0  0  0  0  0  0  0  0  0
    8.6648  -13.2834   21.3256 C   0  0  0  0  0  0  0  0  0  0  0  0
    7.9495  -14.2421   21.9877 C   0  0  0  0  0  0  0  0  0  0  0  0
    8.4140  -14.8244   23.2436 C   0  0  0  0  0  0  0  0  0  0  0  0
    9.7418  -15.4812   23.2620 C   0  0  2  0  0  0  0  0  0  0  0  0
    9.6405  -16.6617   22.3528 N   0  0  0  0  0  0  0  0  0  0  0  0
   10.2544  -16.0027   24.5162 C   0  0  0  0  0  0  0  0  0  0  0  0
   10.0205  -15.3590   25.5998 O   0  0  0  0  0  0  0  0  0  0  0  0
    6.7411  -14.6475   21.4138 C   0  0  0  0  0  0  0  0  0  0  0  0
    6.2989  -14.1025   20.2375 C   0  0  0  0  0  0  0  0  0  0  0  0
   10.6288  -19.3276   29.9814 N   0  0  0  0  0  0  0  0  0  0  0  0
    9.8175  -19.2292   28.8445 C   0  0  0  0  0  0  0  0  0  0  0  0
    8.9930  -20.1486   28.6016 O   0  0  0  0  0  0  0  0  0  0  0  0
    9.8758  -18.0789   27.8906 C   0  0  0  0  0  0  0  0  0  0  0  0
   10.2682  -18.5164   26.5214 C   0  0  0  0  0  0  0  0  0  0  0  0
   11.4240  -17.7161   25.9275 C   0  0  2  0  0  0  0  0  0  0  0  0
   11.0007  -17.2020   24.6069 N   0  0  0  0  0  0  0  0  0  0  0  0
   12.6533  -18.4910   25.7631 C   0  0  0  0  0  0  0  0  0  0  0  0
   12.9674  -18.9690   24.6518 O   0  0  0  0  0  0  0  0  0  0  0  0
   13.5492  -18.7519   26.7974 O   0  0  0  0  0  0  0  0  0  0  0  0
  2  1  1  0
  2  4  1  0
  3  2  2  0
  5  4  1  0
  6  5  1  0
  6  7  1  1
  8  9  2  0
  8  6  1  0
 10 11  1  0
 11 12  2  0
 12 13  1  0
 14 15  1  0
 14 13  2  0
 16 15  1  1
 16 17  1  0
 17  8  1  0
 18 16  1  0
 19 18  2  0
 20 14  1  0
 21 20  2  0
 21 11  1  0
 23 24  2  0
 23 22  1  0
 25 23  1  0
 27 26  1  6
 26 25  1  0
 27 28  1  0
 28 18  1  0
 29 27  1  0
 30 29  2  0
 31 29  1  0
M  END
$$$$
