QYQ.pdb
     RDKit          3D

 31 31  0  0  1  0  0  0  0  0999 V2000
    9.1325  -13.0334   17.3318 N   0  0  0  0  0  0  0  0  0  0  0  0
    7.8328  -13.5560   17.5247 C   0  0  0  0  0  0  0  0  0  0  0  0
    7.0553  -13.7352   16.5599 O   0  0  0  0  0  0  0  0  0  0  0  0
    7.3881  -13.8952   18.8891 C   0  0  0  0  0  0  0  0  0  0  0  0
    8.5160  -13.6792   19.8824 C   0  0  0  0  0  0  0  0  0  0  0  0
    8.8877  -15.0498   20.4248 C   0  0  2  0  0  0  0  0  0  0  0  0
    7.7749  -15.9089   20.2702 N   0  0  0  0  0  0  0  0  0  0  0  0
    9.2697  -14.9345   21.8591 C   0  0  0  0  0  0  0  0  0  0  0  0
   10.2398  -14.1702   22.1823 O   0  0  0  0  0  0  0  0  0  0  0  0
    6.1542  -10.2235   26.9961 O   0  0  0  0  0  0  0  0  0  0  0  0
    6.5407  -11.4619   26.5225 C   0  0  0  0  0  0  0  0  0  0  0  0
    7.8014  -11.9613   26.7721 C   0  0  0  0  0  0  0  0  0  0  0  0
    8.1335  -13.2137   26.2698 C   0  0  0  0  0  0  0  0  0  0  0  0
    7.2650  -13.9748   25.5379 C   0  0  0  0  0  0  0  0  0  0  0  0
    7.6342  -15.2902   25.0226 C   0  0  0  0  0  0  0  0  0  0  0  0
    8.9285  -15.4267   24.3146 C   0  0  2  0  0  0  0  0  0  0  0  0
    8.5997  -15.6384   22.8732 N   0  0  0  0  0  0  0  0  0  0  0  0
    9.8174  -16.5175   24.6721 C   0  0  0  0  0  0  0  0  0  0  0  0
   10.1403  -16.6795   25.9021 O   0  0  0  0  0  0  0  0  0  0  0  0
    5.9941  -13.4434   25.3004 C   0  0  0  0  0  0  0  0  0  0  0  0
    5.6411  -12.2114   25.7840 C   0  0  0  0  0  0  0  0  0  0  0  0
   11.5457  -21.4478   20.9197 N   0  0  0  0  0  0  0  0  0  0  0  0
   12.2194  -21.6678   22.1273 C   0  0  0  0  0  0  0  0  0  0  0  0
   12.9502  -22.6862   22.2419 O   0  0  0  0  0  0  0  0  0  0  0  0
   12.1186  -20.7498   23.3036 C   0  0  0  0  0  0  0  0  0  0  0  0
   11.2803  -19.5555   23.0017 C   0  0  0  0  0  0  0  0  0  0  0  0
   11.1487  -18.5846   24.1718 C   0  0  2  0  0  0  0  0  0  0  0  0
   10.3457  -17.4261   23.7240 N   0  0  0  0  0  0  0  0  0  0  0  0
   12.4310  -18.1034   24.6844 C   0  0  0  0  0  0  0  0  0  0  0  0
   13.0180  -17.1409   24.1447 O   0  0  0  0  0  0  0  0  0  0  0  0
   13.0842  -18.6583   25.7826 O   0  0  0  0  0  0  0  0  0  0  0  0
  2  1  1  0
  2  4  1  0
  3  2  2  0
  5  4  1  0
  6  5  1  0
  6  7  1  1
  8  9  2  0
  8  6  1  0
 10 11  1  0
 11 12  2  0
 12 13  1  0
 14 15  1  0
 14 13  2  0
 16 15  1  1
 16 17  1  0
 17  8  1  0
 18 16  1  0
 19 18  2  0
 20 14  1  0
 21 20  2  0
 21 11  1  0
 23 24  2  0
 23 22  1  0
 25 23  1  0
 27 26  1  6
 26 25  1  0
 27 28  1  0
 28 18  1  0
 29 27  1  0
 30 29  2  0
 31 29  1  0
M  END
$$$$
