QYQ.pdb
     RDKit          3D

 31 31  0  0  1  0  0  0  0  0999 V2000
    6.0536  -20.2613   19.2677 N   0  0  0  0  0  0  0  0  0  0  0  0
    7.2339  -20.2296   18.4896 C   0  0  0  0  0  0  0  0  0  0  0  0
    7.4661  -21.1059   17.6261 O   0  0  0  0  0  0  0  0  0  0  0  0
    8.2074  -19.1425   18.7019 C   0  0  0  0  0  0  0  0  0  0  0  0
    7.7335  -18.2162   19.8076 C   0  0  0  0  0  0  0  0  0  0  0  0
    8.2426  -16.8266   19.4605 C   0  0  2  0  0  0  0  0  0  0  0  0
    9.3414  -16.9599   18.5800 N   0  0  0  0  0  0  0  0  0  0  0  0
    8.6468  -16.1155   20.7044 C   0  0  0  0  0  0  0  0  0  0  0  0
    9.8762  -16.1191   21.0483 O   0  0  0  0  0  0  0  0  0  0  0  0
    7.1770  -11.4188   28.2292 O   0  0  0  0  0  0  0  0  0  0  0  0
    7.1219  -12.0355   26.9947 C   0  0  0  0  0  0  0  0  0  0  0  0
    6.3754  -13.1781   26.7990 C   0  0  0  0  0  0  0  0  0  0  0  0
    6.3581  -13.7542   25.5345 C   0  0  0  0  0  0  0  0  0  0  0  0
    7.0492  -13.2384   24.4735 C   0  0  0  0  0  0  0  0  0  0  0  0
    7.0140  -13.8588   23.1522 C   0  0  0  0  0  0  0  0  0  0  0  0
    8.1525  -14.7179   22.7515 C   0  0  2  0  0  0  0  0  0  0  0  0
    7.7221  -15.4385   21.5162 N   0  0  0  0  0  0  0  0  0  0  0  0
    8.6116  -15.7518   23.6614 C   0  0  0  0  0  0  0  0  0  0  0  0
    7.9178  -16.8223   23.7880 O   0  0  0  0  0  0  0  0  0  0  0  0
    7.7974  -12.0798   24.7012 C   0  0  0  0  0  0  0  0  0  0  0  0
    7.8316  -11.4918   25.9379 C   0  0  0  0  0  0  0  0  0  0  0  0
   14.5789  -17.3467   24.4522 N   0  0  0  0  0  0  0  0  0  0  0  0
   13.8399  -18.3389   25.1079 C   0  0  0  0  0  0  0  0  0  0  0  0
   14.3956  -19.4353   25.3788 O   0  0  0  0  0  0  0  0  0  0  0  0
   12.4096  -18.1676   25.5098 C   0  0  0  0  0  0  0  0  0  0  0  0
   11.7637  -17.0375   24.7845 C   0  0  0  0  0  0  0  0  0  0  0  0
   10.3088  -16.8034   25.1811 C   0  0  2  0  0  0  0  0  0  0  0  0
    9.8024  -15.6416   24.4187 N   0  0  0  0  0  0  0  0  0  0  0  0
   10.1212  -16.5518   26.6094 C   0  0  0  0  0  0  0  0  0  0  0  0
   10.3357  -17.4486   27.4532 O   0  0  0  0  0  0  0  0  0  0  0  0
    9.7025  -15.3305   27.1328 O   0  0  0  0  0  0  0  0  0  0  0  0
  2  1  1  0
  2  4  1  0
  3  2  2  0
  5  4  1  0
  6  5  1  0
  6  7  1  6
  8  9  2  0
  8  6  1  0
 10 11  1  0
 11 12  2  0
 12 13  1  0
 14 15  1  0
 14 13  2  0
 16 15  1  1
 16 17  1  0
 17  8  1  0
 18 16  1  0
 19 18  2  0
 20 14  1  0
 21 20  2  0
 21 11  1  0
 23 24  2  0
 23 22  1  0
 25 23  1  0
 27 26  1  1
 26 25  1  0
 27 28  1  0
 28 18  1  0
 29 27  1  0
 30 29  2  0
 31 29  1  0
M  END
$$$$
