QYQ.pdb
     RDKit          3D

 31 31  0  0  1  0  0  0  0  0999 V2000
    6.2747  -20.0692   19.9418 N   0  0  0  0  0  0  0  0  0  0  0  0
    6.8472  -19.8911   18.6612 C   0  0  0  0  0  0  0  0  0  0  0  0
    6.4644  -20.5667   17.6791 O   0  0  0  0  0  0  0  0  0  0  0  0
    7.9150  -18.8898   18.4826 C   0  0  0  0  0  0  0  0  0  0  0  0
    8.2002  -18.1806   19.7944 C   0  0  0  0  0  0  0  0  0  0  0  0
    8.4897  -16.7284   19.4511 C   0  0  2  0  0  0  0  0  0  0  0  0
    9.5655  -16.6915   18.5337 N   0  0  0  0  0  0  0  0  0  0  0  0
    8.8283  -15.9778   20.6914 C   0  0  0  0  0  0  0  0  0  0  0  0
   10.0426  -15.9456   21.0839 O   0  0  0  0  0  0  0  0  0  0  0  0
    6.5853  -11.9812   28.4179 O   0  0  0  0  0  0  0  0  0  0  0  0
    6.7173  -12.3968   27.1075 C   0  0  0  0  0  0  0  0  0  0  0  0
    7.3330  -11.6020   26.1639 C   0  0  0  0  0  0  0  0  0  0  0  0
    7.4366  -12.0735   24.8608 C   0  0  0  0  0  0  0  0  0  0  0  0
    6.9549  -13.2922   24.4711 C   0  0  0  0  0  0  0  0  0  0  0  0
    7.0778  -13.7691   23.0965 C   0  0  0  0  0  0  0  0  0  0  0  0
    8.1863  -14.6977   22.7740 C   0  0  2  0  0  0  0  0  0  0  0  0
    7.8575  -15.3016   21.4482 N   0  0  0  0  0  0  0  0  0  0  0  0
    8.4459  -15.8210   23.6563 C   0  0  0  0  0  0  0  0  0  0  0  0
    7.7774  -16.9035   23.4988 O   0  0  0  0  0  0  0  0  0  0  0  0
    6.3357  -14.0765   25.4487 C   0  0  0  0  0  0  0  0  0  0  0  0
    6.2203  -13.6355   26.7404 C   0  0  0  0  0  0  0  0  0  0  0  0
   11.6467  -19.9113   22.8832 N   0  0  0  0  0  0  0  0  0  0  0  0
   12.2599  -18.6756   23.1231 C   0  0  0  0  0  0  0  0  0  0  0  0
   13.3762  -18.4350   22.5936 O   0  0  0  0  0  0  0  0  0  0  0  0
   11.6561  -17.6120   23.9837 C   0  0  0  0  0  0  0  0  0  0  0  0
   10.3398  -18.0332   24.5405 C   0  0  0  0  0  0  0  0  0  0  0  0
    9.7086  -17.0037   25.4735 C   0  0  2  0  0  0  0  0  0  0  0  0
    9.4146  -15.7857   24.6877 N   0  0  0  0  0  0  0  0  0  0  0  0
   10.5550  -16.6422   26.6100 C   0  0  0  0  0  0  0  0  0  0  0  0
   10.9889  -15.4776   26.7429 O   0  0  0  0  0  0  0  0  0  0  0  0
   10.9354  -17.5361   27.6084 O   0  0  0  0  0  0  0  0  0  0  0  0
  2  1  1  0
  2  4  1  0
  3  2  2  0
  5  4  1  0
  6  5  1  0
  6  7  1  6
  8  9  2  0
  8  6  1  0
 10 11  1  0
 11 12  2  0
 12 13  1  0
 14 15  1  0
 14 13  2  0
 16 15  1  1
 16 17  1  0
 17  8  1  0
 18 16  1  0
 19 18  2  0
 20 14  1  0
 21 20  2  0
 21 11  1  0
 23 24  2  0
 23 22  1  0
 25 23  1  0
 27 26  1  6
 26 25  1  0
 27 28  1  0
 28 18  1  0
 29 27  1  0
 30 29  2  0
 31 29  1  0
M  END
$$$$
