LYI.pdb
     RDKit          3D

 29 29  0  0  1  0  0  0  0  0999 V2000
    6.3138  -21.9033   20.9599 C   0  0  0  0  0  0  0  0  0  0  0  0
    5.6462  -20.6276   21.3674 C   0  0  2  0  0  0  0  0  0  0  0  0
    4.3407  -20.4038   20.6634 C   0  0  0  0  0  0  0  0  0  0  0  0
    6.6221  -19.4921   21.1420 C   0  0  0  0  0  0  0  0  0  0  0  0
    6.8490  -18.8226   22.5019 C   0  0  2  0  0  0  0  0  0  0  0  0
    5.5665  -18.2567   22.8767 N   0  0  0  0  0  0  0  0  0  0  0  0
    7.8593  -17.7672   22.4268 C   0  0  0  0  0  0  0  0  0  0  0  0
    9.0391  -18.0595   22.0386 O   0  0  0  0  0  0  0  0  0  0  0  0
    8.0145  -14.3196   16.4624 O   0  0  0  0  0  0  0  0  0  0  0  0
    8.0354  -14.2967   17.8631 C   0  0  0  0  0  0  0  0  0  0  0  0
    7.2990  -13.3370   18.5069 C   0  0  0  0  0  0  0  0  0  0  0  0
    7.3011  -13.2916   19.8700 C   0  0  0  0  0  0  0  0  0  0  0  0
    8.0218  -14.1826   20.6027 C   0  0  0  0  0  0  0  0  0  0  0  0
    8.0084  -14.1177   22.0742 C   0  0  0  0  0  0  0  0  0  0  0  0
    8.5266  -15.3487   22.7571 C   0  0  2  0  0  0  0  0  0  0  0  0
    7.5655  -16.4210   22.7746 N   0  0  0  0  0  0  0  0  0  0  0  0
    9.1359  -15.1493   24.0656 C   0  0  0  0  0  0  0  0  0  0  0  0
   10.3451  -14.7369   24.1115 O   0  0  0  0  0  0  0  0  0  0  0  0
    8.7659  -15.1514   19.9818 C   0  0  0  0  0  0  0  0  0  0  0  0
    8.7633  -15.1966   18.6049 C   0  0  0  0  0  0  0  0  0  0  0  0
    6.6141  -12.0200   26.9633 C   0  0  0  0  0  0  0  0  0  0  0  0
    7.5843  -12.9554   26.2833 C   0  0  0  0  0  0  0  0  0  0  0  0
    8.2386  -13.8932   27.2764 C   0  0  2  0  0  0  0  0  0  0  0  0
    9.1506  -13.0391   28.1313 C   0  0  0  0  0  0  0  0  0  0  0  0
    9.1122  -14.8862   26.5418 C   0  0  2  0  0  0  0  0  0  0  0  0
    8.5348  -15.3603   25.3292 N   0  0  0  0  0  0  0  0  0  0  0  0
    9.5137  -15.9414   27.4943 C   0  0  0  0  0  0  0  0  0  0  0  0
   10.1736  -15.6747   28.5468 O   0  0  0  0  0  0  0  0  0  0  0  0
    9.1614  -17.2543   27.2335 O   0  0  0  0  0  0  0  0  0  0  0  0
  2  1  1  6
  2  4  1  0
  3  2  1  0
  4  5  1  0
  5  6  1  6
  7  5  1  0
  8  7  2  0
  9 10  1  0
 10 11  2  0
 10 20  1  0
 11 12  1  0
 12 13  2  0
 13 14  1  0
 15 14  1  1
 15 16  1  0
 15 17  1  0
 16  7  1  0
 17 26  1  0
 18 17  2  0
 19 13  1  0
 20 19  2  0
 21 22  1  0
 23 25  1  0
 23 22  1  0
 23 24  1  1
 25 27  1  0
 25 26  1  6
 27 28  2  0
 27 29  1  0
M  END
$$$$
