LYI.pdb
     RDKit          3D

 29 29  0  0  1  0  0  0  0  0999 V2000
   10.0216  -19.8707   18.8992 C   0  0  0  0  0  0  0  0  0  0  0  0
   11.3503  -19.9390   19.5837 C   0  0  2  0  0  0  0  0  0  0  0  0
   11.7924  -21.3461   19.8565 C   0  0  0  0  0  0  0  0  0  0  0  0
   11.2734  -19.1065   20.8461 C   0  0  0  0  0  0  0  0  0  0  0  0
   10.7764  -17.7164   20.4340 C   0  0  2  0  0  0  0  0  0  0  0  0
   11.8454  -17.1396   19.6404 N   0  0  0  0  0  0  0  0  0  0  0  0
   10.5023  -16.8704   21.5956 C   0  0  0  0  0  0  0  0  0  0  0  0
   11.4546  -16.2020   22.1193 O   0  0  0  0  0  0  0  0  0  0  0  0
    5.9096  -11.9066   27.2735 O   0  0  0  0  0  0  0  0  0  0  0  0
    6.2690  -12.8131   26.2676 C   0  0  0  0  0  0  0  0  0  0  0  0
    6.9969  -12.3468   25.2043 C   0  0  0  0  0  0  0  0  0  0  0  0
    7.3604  -13.2075   24.2108 C   0  0  0  0  0  0  0  0  0  0  0  0
    7.0131  -14.5218   24.2562 C   0  0  0  0  0  0  0  0  0  0  0  0
    7.4180  -15.4352   23.1739 C   0  0  0  0  0  0  0  0  0  0  0  0
    8.8497  -15.8786   23.2354 C   0  0  2  0  0  0  0  0  0  0  0  0
    9.2022  -16.7700   22.1607 N   0  0  0  0  0  0  0  0  0  0  0  0
    9.3131  -16.3772   24.5236 C   0  0  0  0  0  0  0  0  0  0  0  0
    9.2120  -17.6301   24.7575 O   0  0  0  0  0  0  0  0  0  0  0  0
    6.2856  -15.0117   25.3090 C   0  0  0  0  0  0  0  0  0  0  0  0
    5.9188  -14.1417   26.3122 C   0  0  0  0  0  0  0  0  0  0  0  0
   10.0541  -13.2131   29.0972 C   0  0  0  0  0  0  0  0  0  0  0  0
    9.7060  -14.2015   28.0107 C   0  0  0  0  0  0  0  0  0  0  0  0
   10.8074  -15.2229   27.8168 C   0  0  2  0  0  0  0  0  0  0  0  0
   11.9999  -14.4649   27.2735 C   0  0  0  0  0  0  0  0  0  0  0  0
   10.3942  -16.2254   26.7619 C   0  0  2  0  0  0  0  0  0  0  0  0
    9.8802  -15.6229   25.5781 N   0  0  0  0  0  0  0  0  0  0  0  0
    9.5014  -17.2186   27.3929 C   0  0  0  0  0  0  0  0  0  0  0  0
    9.9101  -17.9948   28.3121 O   0  0  0  0  0  0  0  0  0  0  0  0
    8.1857  -17.3056   26.9722 O   0  0  0  0  0  0  0  0  0  0  0  0
  2  1  1  1
  2  4  1  0
  3  2  1  0
  4  5  1  0
  5  6  1  6
  7  5  1  0
  8  7  2  0
  9 10  1  0
 10 11  2  0
 10 20  1  0
 11 12  1  0
 12 13  2  0
 13 14  1  0
 15 14  1  1
 15 16  1  0
 15 17  1  0
 16  7  1  0
 17 26  1  0
 18 17  2  0
 19 13  1  0
 20 19  2  0
 21 22  1  0
 23 25  1  0
 23 22  1  0
 23 24  1  6
 25 27  1  0
 25 26  1  6
 27 28  2  0
 27 29  1  0
M  END
$$$$
