LYI.pdb
     RDKit          3D

 29 29  0  0  1  0  0  0  0  0999 V2000
    8.7397  -12.9796   18.5803 C   0  0  0  0  0  0  0  0  0  0  0  0
    7.5618  -13.9023   18.5769 C   0  0  2  0  0  0  0  0  0  0  0  0
    6.3030  -13.2367   18.1052 C   0  0  0  0  0  0  0  0  0  0  0  0
    7.4164  -14.4861   19.9664 C   0  0  0  0  0  0  0  0  0  0  0  0
    8.8332  -14.6948   20.5128 C   0  0  2  0  0  0  0  0  0  0  0  0
    9.4723  -15.6201   19.5959 N   0  0  0  0  0  0  0  0  0  0  0  0
    8.8179  -15.2578   21.8630 C   0  0  0  0  0  0  0  0  0  0  0  0
    7.9919  -14.7996   22.7207 O   0  0  0  0  0  0  0  0  0  0  0  0
   10.8446  -20.6236   28.6432 O   0  0  0  0  0  0  0  0  0  0  0  0
   10.7776  -19.9613   27.4104 C   0  0  0  0  0  0  0  0  0  0  0  0
   11.5443  -20.4344   26.3777 C   0  0  0  0  0  0  0  0  0  0  0  0
   11.4984  -19.8089   25.1667 C   0  0  0  0  0  0  0  0  0  0  0  0
   10.7047  -18.7229   24.9650 C   0  0  0  0  0  0  0  0  0  0  0  0
   10.6680  -18.0634   23.6484 C   0  0  0  0  0  0  0  0  0  0  0  0
    9.7336  -16.8931   23.5634 C   0  0  2  0  0  0  0  0  0  0  0  0
    9.6989  -16.3037   22.2498 N   0  0  0  0  0  0  0  0  0  0  0  0
    9.8728  -15.8828   24.6041 C   0  0  0  0  0  0  0  0  0  0  0  0
   10.9339  -15.1698   24.6149 O   0  0  0  0  0  0  0  0  0  0  0  0
    9.9290  -18.2313   25.9821 C   0  0  0  0  0  0  0  0  0  0  0  0
    9.9759  -18.8636   27.2051 C   0  0  0  0  0  0  0  0  0  0  0  0
    6.6488  -11.9158   25.8604 C   0  0  0  0  0  0  0  0  0  0  0  0
    7.7983  -12.8729   25.6571 C   0  0  0  0  0  0  0  0  0  0  0  0
    8.0808  -13.6743   26.9109 C   0  0  2  0  0  0  0  0  0  0  0  0
    8.5493  -12.6819   27.9538 C   0  0  0  0  0  0  0  0  0  0  0  0
    9.2236  -14.6326   26.6577 C   0  0  2  0  0  0  0  0  0  0  0  0
    8.9492  -15.5838   25.6337 N   0  0  0  0  0  0  0  0  0  0  0  0
    9.6353  -15.2129   27.9521 C   0  0  0  0  0  0  0  0  0  0  0  0
    9.0804  -16.2540   28.4236 O   0  0  0  0  0  0  0  0  0  0  0  0
   10.6521  -14.6069   28.6695 O   0  0  0  0  0  0  0  0  0  0  0  0
  2  1  1  1
  2  4  1  0
  3  2  1  0
  4  5  1  0
  5  6  1  6
  7  5  1  0
  8  7  2  0
  9 10  1  0
 10 11  2  0
 10 20  1  0
 11 12  1  0
 12 13  2  0
 13 14  1  0
 15 14  1  6
 15 16  1  0
 15 17  1  0
 16  7  1  0
 17 26  1  0
 18 17  2  0
 19 13  1  0
 20 19  2  0
 21 22  1  0
 23 25  1  0
 23 22  1  0
 23 24  1  1
 25 27  1  0
 25 26  1  6
 27 28  2  0
 27 29  1  0
M  END
$$$$
