LYI.pdb
     RDKit          3D

 29 29  0  0  1  0  0  0  0  0999 V2000
    7.4213  -12.4286   19.4216 C   0  0  0  0  0  0  0  0  0  0  0  0
    8.1554  -13.6854   19.7683 C   0  0  2  0  0  0  0  0  0  0  0  0
    9.6386  -13.5630   19.5816 C   0  0  0  0  0  0  0  0  0  0  0  0
    7.5655  -14.8162   18.9523 C   0  0  0  0  0  0  0  0  0  0  0  0
    8.1136  -16.1221   19.5382 C   0  0  2  0  0  0  0  0  0  0  0  0
    7.6075  -17.1771   18.6801 N   0  0  0  0  0  0  0  0  0  0  0  0
    7.6603  -16.3339   20.9129 C   0  0  0  0  0  0  0  0  0  0  0  0
    6.4118  -16.4541   21.1467 O   0  0  0  0  0  0  0  0  0  0  0  0
    7.7929  -19.5229   29.0928 O   0  0  0  0  0  0  0  0  0  0  0  0
    7.9269  -19.1889   27.7388 C   0  0  0  0  0  0  0  0  0  0  0  0
    9.1903  -19.0322   27.2317 C   0  0  0  0  0  0  0  0  0  0  0  0
    9.3500  -18.7071   25.9168 C   0  0  0  0  0  0  0  0  0  0  0  0
    8.2769  -18.5354   25.0989 C   0  0  0  0  0  0  0  0  0  0  0  0
    8.4715  -18.1868   23.6810 C   0  0  0  0  0  0  0  0  0  0  0  0
    8.2012  -16.7490   23.3499 C   0  0  2  0  0  0  0  0  0  0  0  0
    8.5721  -16.4100   22.0003 N   0  0  0  0  0  0  0  0  0  0  0  0
    8.6919  -15.7660   24.3070 C   0  0  0  0  0  0  0  0  0  0  0  0
    9.9195  -15.4159   24.2367 O   0  0  0  0  0  0  0  0  0  0  0  0
    7.0038  -18.6867   25.5827 C   0  0  0  0  0  0  0  0  0  0  0  0
    6.8433  -19.0151   26.9110 C   0  0  0  0  0  0  0  0  0  0  0  0
    5.4071  -12.3357   27.4956 C   0  0  0  0  0  0  0  0  0  0  0  0
    6.3008  -13.4742   27.0668 C   0  0  0  0  0  0  0  0  0  0  0  0
    7.5793  -12.9668   26.4330 C   0  0  2  0  0  0  0  0  0  0  0  0
    7.1890  -12.3943   25.0869 C   0  0  0  0  0  0  0  0  0  0  0  0
    8.5156  -14.1263   26.1731 C   0  0  2  0  0  0  0  0  0  0  0  0
    7.9540  -15.1309   25.3341 N   0  0  0  0  0  0  0  0  0  0  0  0
    9.0212  -14.6122   27.4731 C   0  0  0  0  0  0  0  0  0  0  0  0
    9.6729  -13.8573   28.2602 O   0  0  0  0  0  0  0  0  0  0  0  0
    8.7783  -15.9236   27.8432 O   0  0  0  0  0  0  0  0  0  0  0  0
  2  1  1  6
  2  4  1  0
  3  2  1  0
  4  5  1  0
  5  6  1  6
  7  5  1  0
  8  7  2  0
  9 10  1  0
 10 11  2  0
 10 20  1  0
 11 12  1  0
 12 13  2  0
 13 14  1  0
 15 14  1  1
 15 16  1  0
 15 17  1  0
 16  7  1  0
 17 26  1  0
 18 17  2  0
 19 13  1  0
 20 19  2  0
 21 22  1  0
 23 25  1  0
 23 22  1  0
 23 24  1  6
 25 27  1  0
 25 26  1  1
 27 28  2  0
 27 29  1  0
M  END
$$$$
