LYI.pdb
     RDKit          3D

 29 29  0  0  1  0  0  0  0  0999 V2000
    9.3751  -14.7259   19.6481 C   0  0  0  0  0  0  0  0  0  0  0  0
    8.1820  -14.1545   18.9490 C   0  0  2  0  0  0  0  0  0  0  0  0
    8.1446  -12.6556   18.9932 C   0  0  0  0  0  0  0  0  0  0  0  0
    6.9400  -14.7777   19.5504 C   0  0  0  0  0  0  0  0  0  0  0  0
    7.3115  -16.2077   19.9584 C   0  0  2  0  0  0  0  0  0  0  0  0
    6.4700  -17.0737   19.1539 N   0  0  0  0  0  0  0  0  0  0  0  0
    7.0646  -16.4491   21.3800 C   0  0  0  0  0  0  0  0  0  0  0  0
    5.8694  -16.3964   21.8235 O   0  0  0  0  0  0  0  0  0  0  0  0
    8.0868  -19.7954   29.4532 O   0  0  0  0  0  0  0  0  0  0  0  0
    8.1210  -19.4680   28.0914 C   0  0  0  0  0  0  0  0  0  0  0  0
    9.3322  -19.1613   27.5285 C   0  0  0  0  0  0  0  0  0  0  0  0
    9.3946  -18.8389   26.2049 C   0  0  0  0  0  0  0  0  0  0  0  0
    8.2753  -18.8162   25.4325 C   0  0  0  0  0  0  0  0  0  0  0  0
    8.3650  -18.4676   24.0041 C   0  0  0  0  0  0  0  0  0  0  0  0
    7.9310  -17.0699   23.6752 C   0  0  2  0  0  0  0  0  0  0  0  0
    8.1200  -16.7417   22.2858 N   0  0  0  0  0  0  0  0  0  0  0  0
    8.4325  -16.0187   24.5506 C   0  0  0  0  0  0  0  0  0  0  0  0
    9.5881  -15.5298   24.3059 O   0  0  0  0  0  0  0  0  0  0  0  0
    7.0528  -19.1190   25.9724 C   0  0  0  0  0  0  0  0  0  0  0  0
    6.9906  -19.4446   27.3096 C   0  0  0  0  0  0  0  0  0  0  0  0
    5.4356  -11.9076   26.5605 C   0  0  0  0  0  0  0  0  0  0  0  0
    6.5754  -12.7145   25.9871 C   0  0  0  0  0  0  0  0  0  0  0  0
    7.3037  -13.4892   27.0656 C   0  0  2  0  0  0  0  0  0  0  0  0
    8.0467  -12.4651   27.8971 C   0  0  0  0  0  0  0  0  0  0  0  0
    8.3404  -14.3921   26.4341 C   0  0  2  0  0  0  0  0  0  0  0  0
    7.7769  -15.4542   25.6705 N   0  0  0  0  0  0  0  0  0  0  0  0
    9.2865  -14.8158   27.4862 C   0  0  0  0  0  0  0  0  0  0  0  0
   10.1127  -14.0034   28.0074 O   0  0  0  0  0  0  0  0  0  0  0  0
    9.2722  -16.1315   27.9155 O   0  0  0  0  0  0  0  0  0  0  0  0
  2  1  1  1
  2  4  1  0
  3  2  1  0
  4  5  1  0
  5  6  1  6
  7  5  1  0
  8  7  2  0
  9 10  1  0
 10 11  2  0
 10 20  1  0
 11 12  1  0
 12 13  2  0
 13 14  1  0
 15 14  1  1
 15 16  1  0
 15 17  1  0
 16  7  1  0
 17 26  1  0
 18 17  2  0
 19 13  1  0
 20 19  2  0
 21 22  1  0
 23 25  1  0
 23 22  1  0
 23 24  1  1
 25 27  1  0
 25 26  1  1
 27 28  2  0
 27 29  1  0
M  END
$$$$
