LYI.pdb
     RDKit          3D

 29 29  0  0  1  0  0  0  0  0999 V2000
    5.4209  -21.1187   27.1173 C   0  0  0  0  0  0  0  0  0  0  0  0
    6.8959  -21.2981   27.2933 C   0  0  2  0  0  0  0  0  0  0  0  0
    7.3068  -21.3563   28.7347 C   0  0  0  0  0  0  0  0  0  0  0  0
    7.5987  -20.1882   26.5404 C   0  0  0  0  0  0  0  0  0  0  0  0
    7.1623  -20.2974   25.0752 C   0  0  2  0  0  0  0  0  0  0  0  0
    7.6810  -21.5694   24.6077 N   0  0  0  0  0  0  0  0  0  0  0  0
    7.7035  -19.2071   24.2638 C   0  0  0  0  0  0  0  0  0  0  0  0
    8.8922  -19.2982   23.8093 O   0  0  0  0  0  0  0  0  0  0  0  0
    8.5398  -11.9081   19.4756 O   0  0  0  0  0  0  0  0  0  0  0  0
    8.0262  -12.9532   20.2545 C   0  0  0  0  0  0  0  0  0  0  0  0
    7.5985  -12.6659   21.5243 C   0  0  0  0  0  0  0  0  0  0  0  0
    7.0940  -13.6642   22.3045 C   0  0  0  0  0  0  0  0  0  0  0  0
    7.0075  -14.9414   21.8446 C   0  0  0  0  0  0  0  0  0  0  0  0
    6.4571  -16.0045   22.7027 C   0  0  0  0  0  0  0  0  0  0  0  0
    7.4896  -16.8368   23.4037 C   0  0  2  0  0  0  0  0  0  0  0  0
    6.9423  -18.0447   23.9653 N   0  0  0  0  0  0  0  0  0  0  0  0
    8.3406  -16.1363   24.3568 C   0  0  0  0  0  0  0  0  0  0  0  0
    9.5996  -16.1105   24.1361 O   0  0  0  0  0  0  0  0  0  0  0  0
    7.4287  -15.2535   20.5785 C   0  0  0  0  0  0  0  0  0  0  0  0
    7.9382  -14.2444   19.7910 C   0  0  0  0  0  0  0  0  0  0  0  0
    6.6456  -11.6529   26.7952 C   0  0  0  0  0  0  0  0  0  0  0  0
    7.4180  -12.7456   26.0965 C   0  0  0  0  0  0  0  0  0  0  0  0
    8.2171  -13.5752   27.0798 C   0  0  2  0  0  0  0  0  0  0  0  0
    9.3459  -12.6904   27.5646 C   0  0  0  0  0  0  0  0  0  0  0  0
    8.8443  -14.7513   26.3642 C   0  0  2  0  0  0  0  0  0  0  0  0
    7.9321  -15.4592   25.5303 N   0  0  0  0  0  0  0  0  0  0  0  0
    9.5450  -15.5811   27.3653 C   0  0  0  0  0  0  0  0  0  0  0  0
   10.5868  -15.1677   27.9637 O   0  0  0  0  0  0  0  0  0  0  0  0
    9.0536  -16.8412   27.6593 O   0  0  0  0  0  0  0  0  0  0  0  0
  2  1  1  1
  2  4  1  0
  3  2  1  0
  4  5  1  0
  5  6  1  6
  7  5  1  0
  8  7  2  0
  9 10  1  0
 10 11  2  0
 10 20  1  0
 11 12  1  0
 12 13  2  0
 13 14  1  0
 15 14  1  1
 15 16  1  0
 15 17  1  0
 16  7  1  0
 17 26  1  0
 18 17  2  0
 19 13  1  0
 20 19  2  0
 21 22  1  0
 23 25  1  0
 23 22  1  0
 23 24  1  6
 25 27  1  0
 25 26  1  1
 27 28  2  0
 27 29  1  0
M  END
$$$$
