NVS.pdb
     RDKit          3D

 22 21  0  0  1  0  0  0  0  0999 V2000
   16.6785  -15.5931  -15.2779 N   0  0  0  0  0  0  0  0  0  0  0  0
   17.6973  -14.7765  -15.7937 C   0  0  0  0  0  0  0  0  0  0  0  0
   18.6915  -15.3495  -16.3338 O   0  0  0  0  0  0  0  0  0  0  0  0
   17.6578  -13.2920  -15.7330 C   0  0  0  0  0  0  0  0  0  0  0  0
   16.4308  -12.8372  -14.9516 C   0  0  2  0  0  0  0  0  0  0  0  0
   15.2278  -13.2365  -15.6388 N   0  0  0  0  0  0  0  0  0  0  0  0
   16.4491  -11.3756  -14.7231 C   0  0  0  0  0  0  0  0  0  0  0  0
   15.9563  -10.6233  -15.6037 O   0  0  0  0  0  0  0  0  0  0  0  0
   17.4981   -9.7303  -10.9286 C   0  0  0  0  0  0  0  0  0  0  0  0
   16.6553   -9.0110  -11.9758 C   0  0  2  0  0  0  0  0  0  0  0  0
   15.2225   -9.4344  -11.7455 C   0  0  0  0  0  0  0  0  0  0  0  0
   17.1561   -9.3796  -13.3395 C   0  0  2  0  0  0  0  0  0  0  0  0
   16.9981  -10.7828  -13.5540 N   0  0  0  0  0  0  0  0  0  0  0  0
   18.5632   -8.9169  -13.4473 C   0  0  0  0  0  0  0  0  0  0  0  0
   19.4546   -9.8010  -13.3637 O   0  0  0  0  0  0  0  0  0  0  0  0
   21.5343   -7.5250  -16.2198 O   0  0  0  0  0  0  0  0  0  0  0  0
   20.3277   -7.8391  -15.6223 C   0  0  0  0  0  0  0  0  0  0  0  0
   20.1704   -7.1933  -14.2578 C   0  0  2  0  0  0  0  0  0  0  0  0
   18.9194   -7.5601  -13.6345 N   0  0  0  0  0  0  0  0  0  0  0  0
   20.2893   -5.7256  -14.4361 C   0  0  0  0  0  0  0  0  0  0  0  0
   21.5050   -5.0853  -14.2548 O   0  0  0  0  0  0  0  0  0  0  0  0
   19.2999   -5.0232  -14.7545 O   0  0  0  0  0  0  0  0  0  0  0  0
  2  4  1  0
  2  1  1  0
  3  2  2  0
  5  7  1  0
  5  4  1  0
  5  6  1  6
  7 13  1  0
  8  7  2  0
 10  9  1  1
 10 12  1  0
 11 10  1  0
 12 14  1  0
 12 13  1  1
 14 15  2  0
 14 19  1  0
 17 16  1  0
 18 17  1  6
 18 20  1  0
 19 18  1  0
 20 21  1  0
 22 20  2  0
M  END
$$$$
