NVS.pdb
     RDKit          3D

 22 21  0  0  1  0  0  0  0  0999 V2000
   12.3310  -13.2495   -9.9722 N   0  0  0  0  0  0  0  0  0  0  0  0
   13.3761  -13.2237  -10.9092 C   0  0  0  0  0  0  0  0  0  0  0  0
   13.8542  -14.3364  -11.2856 O   0  0  0  0  0  0  0  0  0  0  0  0
   13.9352  -11.9652  -11.4683 C   0  0  0  0  0  0  0  0  0  0  0  0
   13.3067  -10.7639  -10.7720 C   0  0  2  0  0  0  0  0  0  0  0  0
   11.9054  -10.6761  -11.1003 N   0  0  0  0  0  0  0  0  0  0  0  0
   14.0110   -9.5103  -11.1201 C   0  0  0  0  0  0  0  0  0  0  0  0
   13.7800   -8.9818  -12.2389 O   0  0  0  0  0  0  0  0  0  0  0  0
   16.4980   -5.5682   -9.5384 C   0  0  0  0  0  0  0  0  0  0  0  0
   15.6417   -6.8017   -9.2745 C   0  0  2  0  0  0  0  0  0  0  0  0
   16.2656   -7.5200   -8.0997 C   0  0  0  0  0  0  0  0  0  0  0  0
   15.6057   -7.6426  -10.5146 C   0  0  2  0  0  0  0  0  0  0  0  0
   14.9367   -8.8759  -10.2481 N   0  0  0  0  0  0  0  0  0  0  0  0
   17.0030   -7.8149  -10.9875 C   0  0  0  0  0  0  0  0  0  0  0  0
   17.7246   -8.6116  -10.3334 O   0  0  0  0  0  0  0  0  0  0  0  0
   20.0574   -8.4494  -14.4337 O   0  0  0  0  0  0  0  0  0  0  0  0
   18.8029   -8.2374  -13.8928 C   0  0  0  0  0  0  0  0  0  0  0  0
   18.8531   -7.4258  -12.6112 C   0  0  2  0  0  0  0  0  0  0  0  0
   17.5290   -7.1345  -12.1114 N   0  0  0  0  0  0  0  0  0  0  0  0
   19.6232   -6.1890  -12.8895 C   0  0  0  0  0  0  0  0  0  0  0  0
   20.9961   -6.1516  -12.7044 O   0  0  0  0  0  0  0  0  0  0  0  0
   19.0592   -5.1457  -13.2982 O   0  0  0  0  0  0  0  0  0  0  0  0
  2  4  1  0
  2  1  1  0
  3  2  2  0
  5  7  1  0
  5  4  1  0
  5  6  1  6
  7 13  1  0
  8  7  2  0
 10  9  1  6
 10 12  1  0
 11 10  1  0
 12 14  1  0
 12 13  1  1
 14 15  2  0
 14 19  1  0
 17 16  1  0
 18 17  1  6
 18 20  1  0
 19 18  1  0
 20 21  1  0
 22 20  2  0
M  END
$$$$
