NVS.pdb
     RDKit          3D

 22 21  0  0  1  0  0  0  0  0999 V2000
   17.4622  -12.1374  -19.7323 N   0  0  0  0  0  0  0  0  0  0  0  0
   17.3772  -10.7458  -19.5679 C   0  0  0  0  0  0  0  0  0  0  0  0
   16.8820  -10.0715  -20.5212 O   0  0  0  0  0  0  0  0  0  0  0  0
   17.8368  -10.0429  -18.3417 C   0  0  0  0  0  0  0  0  0  0  0  0
   18.4285  -11.0467  -17.3592 C   0  0  2  0  0  0  0  0  0  0  0  0
   17.3941  -11.9126  -16.8499 N   0  0  0  0  0  0  0  0  0  0  0  0
   19.1388  -10.3650  -16.2549 C   0  0  0  0  0  0  0  0  0  0  0  0
   18.4767  -10.0021  -15.2477 O   0  0  0  0  0  0  0  0  0  0  0  0
   22.4289  -11.5704  -14.7217 C   0  0  0  0  0  0  0  0  0  0  0  0
   22.6173  -10.1035  -15.0920 C   0  0  2  0  0  0  0  0  0  0  0  0
   23.4461   -9.4810  -13.9917 C   0  0  0  0  0  0  0  0  0  0  0  0
   21.2705   -9.4618  -15.2361 C   0  0  2  0  0  0  0  0  0  0  0  0
   20.5350  -10.1013  -16.2801 N   0  0  0  0  0  0  0  0  0  0  0  0
   21.4812   -8.0091  -15.4617 C   0  0  0  0  0  0  0  0  0  0  0  0
   22.1660   -7.6890  -16.4676 O   0  0  0  0  0  0  0  0  0  0  0  0
   18.9394   -5.2470  -15.6895 O   0  0  0  0  0  0  0  0  0  0  0  0
   19.8936   -4.8059  -14.7914 C   0  0  0  0  0  0  0  0  0  0  0  0
   21.1805   -5.6065  -14.8722 C   0  0  2  0  0  0  0  0  0  0  0  0
   20.9539   -7.0093  -14.6102 N   0  0  0  0  0  0  0  0  0  0  0  0
   22.1426   -5.0133  -13.9117 C   0  0  0  0  0  0  0  0  0  0  0  0
   22.4601   -5.6662  -12.7312 O   0  0  0  0  0  0  0  0  0  0  0  0
   22.6950   -3.9097  -14.1367 O   0  0  0  0  0  0  0  0  0  0  0  0
  2  4  1  0
  2  1  1  0
  3  2  2  0
  5  7  1  0
  5  4  1  0
  5  6  1  1
  7 13  1  0
  8  7  2  0
 10  9  1  1
 10 12  1  0
 11 10  1  0
 12 14  1  0
 12 13  1  6
 14 15  2  0
 14 19  1  0
 17 16  1  0
 18 17  1  1
 18 20  1  0
 19 18  1  0
 20 21  1  0
 22 20  2  0
M  END
$$$$
