NVS.pdb
     RDKit          3D

 22 21  0  0  1  0  0  0  0  0999 V2000
   18.6055  -22.9146  -14.7966 N   0  0  0  0  0  0  0  0  0  0  0  0
   19.6288  -22.8485  -13.8378 C   0  0  0  0  0  0  0  0  0  0  0  0
   19.3992  -23.3566  -12.6987 O   0  0  0  0  0  0  0  0  0  0  0  0
   20.9486  -22.2174  -14.1002 C   0  0  0  0  0  0  0  0  0  0  0  0
   21.3025  -21.2639  -12.9651 C   0  0  2  0  0  0  0  0  0  0  0  0
   20.3445  -20.1880  -12.9028 N   0  0  0  0  0  0  0  0  0  0  0  0
   22.6781  -20.7393  -13.1114 C   0  0  0  0  0  0  0  0  0  0  0  0
   22.8444  -19.6494  -13.7188 O   0  0  0  0  0  0  0  0  0  0  0  0
   25.4889  -21.0187  -10.3392 C   0  0  0  0  0  0  0  0  0  0  0  0
   26.0287  -21.5267  -11.6715 C   0  0  2  0  0  0  0  0  0  0  0  0
   27.4638  -21.0610  -11.7644 C   0  0  0  0  0  0  0  0  0  0  0  0
   25.1730  -20.9902  -12.7789 C   0  0  2  0  0  0  0  0  0  0  0  0
   23.8202  -21.4106  -12.5971 N   0  0  0  0  0  0  0  0  0  0  0  0
   25.7651  -21.4342  -14.0665 C   0  0  0  0  0  0  0  0  0  0  0  0
   26.0156  -22.6623  -14.1773 O   0  0  0  0  0  0  0  0  0  0  0  0
   26.4326  -20.8493  -18.7793 O   0  0  0  0  0  0  0  0  0  0  0  0
   25.9424  -20.3715  -17.5781 C   0  0  0  0  0  0  0  0  0  0  0  0
   26.6003  -21.0306  -16.3796 C   0  0  2  0  0  0  0  0  0  0  0  0
   26.0464  -20.5495  -15.1347 N   0  0  0  0  0  0  0  0  0  0  0  0
   28.0592  -20.7781  -16.4693 C   0  0  0  0  0  0  0  0  0  0  0  0
   28.9268  -21.7737  -16.8898 O   0  0  0  0  0  0  0  0  0  0  0  0
   28.5495  -19.6631  -16.1694 O   0  0  0  0  0  0  0  0  0  0  0  0
  2  4  1  0
  2  1  1  0
  3  2  2  0
  5  7  1  0
  5  4  1  0
  5  6  1  6
  7 13  1  0
  8  7  2  0
 10  9  1  1
 10 12  1  0
 11 10  1  0
 12 14  1  0
 12 13  1  1
 14 15  2  0
 14 19  1  0
 17 16  1  0
 18 17  1  6
 18 20  1  0
 19 18  1  0
 20 21  1  0
 22 20  2  0
M  END
$$$$
