NVS.pdb
     RDKit          3D

 22 21  0  0  1  0  0  0  0  0999 V2000
   20.7801  -13.8927  -20.9477 N   0  0  0  0  0  0  0  0  0  0  0  0
   21.7466  -12.9220  -20.6404 C   0  0  0  0  0  0  0  0  0  0  0  0
   22.6454  -12.6944  -21.5058 O   0  0  0  0  0  0  0  0  0  0  0  0
   21.7583  -12.1630  -19.3626 C   0  0  0  0  0  0  0  0  0  0  0  0
   23.0895  -12.3685  -18.6494 C   0  0  2  0  0  0  0  0  0  0  0  0
   23.2574  -13.7575  -18.3008 N   0  0  0  0  0  0  0  0  0  0  0  0
   23.1978  -11.5060  -17.4522 C   0  0  0  0  0  0  0  0  0  0  0  0
   22.4053  -11.7044  -16.4947 O   0  0  0  0  0  0  0  0  0  0  0  0
   26.7116   -9.4090  -16.8750 C   0  0  0  0  0  0  0  0  0  0  0  0
   25.7952   -9.7926  -15.7186 C   0  0  2  0  0  0  0  0  0  0  0  0
   26.1635  -11.2043  -15.3227 C   0  0  0  0  0  0  0  0  0  0  0  0
   24.3701   -9.6700  -16.1666 C   0  0  2  0  0  0  0  0  0  0  0  0
   24.1564  -10.4634  -17.3348 N   0  0  0  0  0  0  0  0  0  0  0  0
   24.0794   -8.2275  -16.3668 C   0  0  0  0  0  0  0  0  0  0  0  0
   24.4168   -7.7334  -17.4738 O   0  0  0  0  0  0  0  0  0  0  0  0
   21.5070   -4.6607  -16.8376 O   0  0  0  0  0  0  0  0  0  0  0  0
   21.8615   -5.9654  -16.5484 C   0  0  0  0  0  0  0  0  0  0  0  0
   23.0921   -6.0499  -15.6639 C   0  0  2  0  0  0  0  0  0  0  0  0
   23.4564   -7.4202  -15.3855 N   0  0  0  0  0  0  0  0  0  0  0  0
   22.8087   -5.2902  -14.4219 C   0  0  0  0  0  0  0  0  0  0  0  0
   22.7809   -3.9046  -14.4287 O   0  0  0  0  0  0  0  0  0  0  0  0
   22.5870   -5.8745  -13.3342 O   0  0  0  0  0  0  0  0  0  0  0  0
  2  4  1  0
  2  1  1  0
  3  2  2  0
  5  7  1  0
  5  4  1  0
  5  6  1  1
  7 13  1  0
  8  7  2  0
 10  9  1  6
 10 12  1  0
 11 10  1  0
 12 14  1  0
 12 13  1  6
 14 15  2  0
 14 19  1  0
 17 16  1  0
 18 17  1  6
 18 20  1  0
 19 18  1  0
 20 21  1  0
 22 20  2  0
M  END
$$$$
