SSG.pdb
     RDKit          3D

 17 16  0  0  1  0  0  0  0  0999 V2000
   17.3263  -10.9426  -17.8941 O   0  0  0  0  0  0  0  0  0  0  0  0
   17.7802   -9.8202  -17.2346 C   0  0  0  0  0  0  0  0  0  0  0  0
   18.3936  -10.1412  -15.8934 C   0  0  2  0  0  0  0  0  0  0  0  0
   17.4207  -10.7616  -15.0215 N   0  0  0  0  0  0  0  0  0  0  0  0
   18.9901   -8.9272  -15.2590 C   0  0  0  0  0  0  0  0  0  0  0  0
   18.3626   -8.2544  -14.4020 O   0  0  0  0  0  0  0  0  0  0  0  0
   22.6070   -8.3286  -13.7110 O   0  0  0  0  0  0  0  0  0  0  0  0
   22.3772   -7.4573  -14.7495 C   0  0  0  0  0  0  0  0  0  0  0  0
   20.8844   -7.2843  -15.0259 C   0  0  2  0  0  0  0  0  0  0  0  0
   20.3049   -8.4656  -15.5917 N   0  0  0  0  0  0  0  0  0  0  0  0
   20.6511   -6.0754  -15.8541 C   0  0  0  0  0  0  0  0  0  0  0  0
   20.8132   -6.1302  -17.0984 O   0  0  0  0  0  0  0  0  0  0  0  0
   20.2452   -4.8288  -15.3093 N   0  0  0  0  0  0  0  0  0  0  0  0
   19.9974   -3.6665  -16.1754 C   0  0  0  0  0  0  0  0  0  0  0  0
   19.5906   -2.4955  -15.3729 C   0  0  0  0  0  0  0  0  0  0  0  0
   19.4301   -1.2370  -15.9333 O   0  0  0  0  0  0  0  0  0  0  0  0
   19.3782   -2.6191  -14.1438 O   0  0  0  0  0  0  0  0  0  0  0  0
  2  3  1  0
  2  1  1  0
  3  4  1  1
  5  6  2  0
  5  3  1  0
  7  8  1  0
  9  8  1  6
  9 11  1  0
  9 10  1  0
 10  5  1  0
 11 13  1  0
 12 11  2  0
 13 14  1  0
 14 15  1  0
 15 17  2  0
 15 16  1  0
M  END
$$$$
