SSG.pdb
     RDKit          3D

 17 16  0  0  1  0  0  0  0  0999 V2000
   17.5630  -10.7387  -17.0314 O   0  0  0  0  0  0  0  0  0  0  0  0
   17.7577   -9.4998  -16.4588 C   0  0  0  0  0  0  0  0  0  0  0  0
   18.6593   -9.5527  -15.2495 C   0  0  2  0  0  0  0  0  0  0  0  0
   18.0546  -10.3361  -14.1948 N   0  0  0  0  0  0  0  0  0  0  0  0
   19.0127   -8.1827  -14.7692 C   0  0  0  0  0  0  0  0  0  0  0  0
   18.1425   -7.3987  -14.3120 O   0  0  0  0  0  0  0  0  0  0  0  0
   22.5067   -5.1180  -13.3352 O   0  0  0  0  0  0  0  0  0  0  0  0
   22.1915   -6.3256  -13.9120 C   0  0  0  0  0  0  0  0  0  0  0  0
   20.7244   -6.3877  -14.3342 C   0  0  2  0  0  0  0  0  0  0  0  0
   20.3575   -7.6902  -14.8035 N   0  0  0  0  0  0  0  0  0  0  0  0
   20.4261   -5.3167  -15.3171 C   0  0  0  0  0  0  0  0  0  0  0  0
   20.6613   -5.5051  -16.5364 O   0  0  0  0  0  0  0  0  0  0  0  0
   19.8766   -4.0599  -14.9513 N   0  0  0  0  0  0  0  0  0  0  0  0
   19.6864   -2.9955  -15.9482 C   0  0  0  0  0  0  0  0  0  0  0  0
   19.0532   -1.8118  -15.3328 C   0  0  0  0  0  0  0  0  0  0  0  0
   18.6528   -1.7961  -14.0050 O   0  0  0  0  0  0  0  0  0  0  0  0
   18.8615   -0.7767  -16.0131 O   0  0  0  0  0  0  0  0  0  0  0  0
  2  3  1  0
  2  1  1  0
  3  4  1  1
  5  6  2  0
  5  3  1  0
  7  8  1  0
  9  8  1  6
  9 11  1  0
  9 10  1  0
 10  5  1  0
 11 13  1  0
 12 11  2  0
 13 14  1  0
 14 15  1  0
 15 17  2  0
 15 16  1  0
M  END
$$$$
