SSG.pdb
     RDKit          3D

 17 16  0  0  1  0  0  0  0  0999 V2000
   18.5576  -11.6669  -14.9935 O   0  0  0  0  0  0  0  0  0  0  0  0
   18.7534  -10.3024  -15.0170 C   0  0  0  0  0  0  0  0  0  0  0  0
   19.5513   -9.8494  -16.2155 C   0  0  2  0  0  0  0  0  0  0  0  0
   20.8366  -10.5115  -16.2539 N   0  0  0  0  0  0  0  0  0  0  0  0
   19.7087   -8.3638  -16.2392 C   0  0  0  0  0  0  0  0  0  0  0  0
   20.7973   -7.8204  -16.5566 O   0  0  0  0  0  0  0  0  0  0  0  0
   16.5755   -5.8134  -14.9806 O   0  0  0  0  0  0  0  0  0  0  0  0
   17.3145   -5.4178  -16.0706 C   0  0  0  0  0  0  0  0  0  0  0  0
   18.7001   -6.0618  -16.0812 C   0  0  2  0  0  0  0  0  0  0  0  0
   18.6315   -7.4813  -15.9028 N   0  0  0  0  0  0  0  0  0  0  0  0
   19.5830   -5.3993  -15.0895 C   0  0  0  0  0  0  0  0  0  0  0  0
   19.4381   -5.6398  -13.8653 O   0  0  0  0  0  0  0  0  0  0  0  0
   20.6081   -4.4863  -15.4521 N   0  0  0  0  0  0  0  0  0  0  0  0
   21.5515   -3.9674  -14.4504 C   0  0  0  0  0  0  0  0  0  0  0  0
   22.3270   -5.0687  -13.8448 C   0  0  0  0  0  0  0  0  0  0  0  0
   23.0045   -6.0034  -14.6135 O   0  0  0  0  0  0  0  0  0  0  0  0
   22.3890   -5.1821  -12.5980 O   0  0  0  0  0  0  0  0  0  0  0  0
  2  3  1  0
  2  1  1  0
  3  4  1  1
  5  6  2  0
  5  3  1  0
  7  8  1  0
  9  8  1  1
  9 11  1  0
  9 10  1  0
 10  5  1  0
 11 13  1  0
 12 11  2  0
 13 14  1  0
 14 15  1  0
 15 17  2  0
 15 16  1  0
M  END
$$$$
