SSG.pdb
     RDKit          3D

 17 16  0  0  1  0  0  0  0  0999 V2000
   17.8946   -7.9946  -19.4961 O   0  0  0  0  0  0  0  0  0  0  0  0
   18.7620   -7.7947  -18.4433 C   0  0  0  0  0  0  0  0  0  0  0  0
   18.7487   -8.9343  -17.4537 C   0  0  2  0  0  0  0  0  0  0  0  0
   17.3929   -9.2703  -17.0790 N   0  0  0  0  0  0  0  0  0  0  0  0
   19.5801   -8.6255  -16.2513 C   0  0  0  0  0  0  0  0  0  0  0  0
   19.0618   -8.2479  -15.1697 O   0  0  0  0  0  0  0  0  0  0  0  0
   22.9043  -10.5581  -14.7771 O   0  0  0  0  0  0  0  0  0  0  0  0
   23.1230   -9.2471  -15.1291 C   0  0  0  0  0  0  0  0  0  0  0  0
   21.8280   -8.4363  -15.1321 C   0  0  2  0  0  0  0  0  0  0  0  0
   21.0079   -8.7426  -16.2656 N   0  0  0  0  0  0  0  0  0  0  0  0
   22.1275   -6.9878  -15.0131 C   0  0  0  0  0  0  0  0  0  0  0  0
   22.3745   -6.3145  -16.0441 O   0  0  0  0  0  0  0  0  0  0  0  0
   22.1520   -6.3007  -13.7709 N   0  0  0  0  0  0  0  0  0  0  0  0
   22.4785   -4.8685  -13.7021 C   0  0  0  0  0  0  0  0  0  0  0  0
   21.2689   -4.0473  -13.9104 C   0  0  0  0  0  0  0  0  0  0  0  0
   20.0381   -4.6107  -14.2132 O   0  0  0  0  0  0  0  0  0  0  0  0
   21.3327   -2.7991  -13.8157 O   0  0  0  0  0  0  0  0  0  0  0  0
  2  3  1  0
  2  1  1  0
  3  4  1  1
  5  6  2  0
  5  3  1  0
  7  8  1  0
  9  8  1  6
  9 11  1  0
  9 10  1  0
 10  5  1  0
 11 13  1  0
 12 11  2  0
 13 14  1  0
 14 15  1  0
 15 17  2  0
 15 16  1  0
M  END
$$$$
