SSG.pdb
     RDKit          3D

 17 16  0  0  1  0  0  0  0  0999 V2000
   19.4124  -11.1352  -17.9742 O   0  0  0  0  0  0  0  0  0  0  0  0
   19.3490  -10.2181  -16.9467 C   0  0  0  0  0  0  0  0  0  0  0  0
   20.6793   -9.5610  -16.6701 C   0  0  2  0  0  0  0  0  0  0  0  0
   21.6681  -10.5469  -16.2932 N   0  0  0  0  0  0  0  0  0  0  0  0
   20.5580   -8.4941  -15.6312 C   0  0  0  0  0  0  0  0  0  0  0  0
   19.7820   -8.6142  -14.6492 O   0  0  0  0  0  0  0  0  0  0  0  0
   22.2155   -5.3705  -12.7069 O   0  0  0  0  0  0  0  0  0  0  0  0
   22.3624   -6.3066  -13.7032 C   0  0  0  0  0  0  0  0  0  0  0  0
   21.2188   -6.2436  -14.7146 C   0  0  2  0  0  0  0  0  0  0  0  0
   21.3166   -7.2806  -15.6977 N   0  0  0  0  0  0  0  0  0  0  0  0
   21.1359   -4.8886  -15.3138 C   0  0  0  0  0  0  0  0  0  0  0  0
   21.8713   -4.5902  -16.2873 O   0  0  0  0  0  0  0  0  0  0  0  0
   20.2519   -3.8840  -14.8396 N   0  0  0  0  0  0  0  0  0  0  0  0
   20.2367   -2.5415  -15.4396 C   0  0  0  0  0  0  0  0  0  0  0  0
   21.4946   -1.8252  -15.1466 C   0  0  0  0  0  0  0  0  0  0  0  0
   21.8470   -1.4501  -13.8587 O   0  0  0  0  0  0  0  0  0  0  0  0
   22.2845   -1.5365  -16.0760 O   0  0  0  0  0  0  0  0  0  0  0  0
  2  3  1  0
  2  1  1  0
  3  4  1  1
  5  6  2  0
  5  3  1  0
  7  8  1  0
  9  8  1  1
  9 11  1  0
  9 10  1  0
 10  5  1  0
 11 13  1  0
 12 11  2  0
 13 14  1  0
 14 15  1  0
 15 17  2  0
 15 16  1  0
M  END
$$$$
