SSG.pdb
     RDKit          3D

 17 16  0  0  1  0  0  0  0  0999 V2000
   23.0290   -9.5973  -20.1153 O   0  0  0  0  0  0  0  0  0  0  0  0
   22.3343   -8.8299  -19.2046 C   0  0  0  0  0  0  0  0  0  0  0  0
   21.7259   -9.6522  -18.0947 C   0  0  2  0  0  0  0  0  0  0  0  0
   20.6962  -10.5265  -18.6114 N   0  0  0  0  0  0  0  0  0  0  0  0
   21.1979   -8.7863  -16.9975 C   0  0  0  0  0  0  0  0  0  0  0  0
   20.0846   -8.2091  -17.0899 O   0  0  0  0  0  0  0  0  0  0  0  0
   23.0583   -8.6388  -13.1717 O   0  0  0  0  0  0  0  0  0  0  0  0
   21.7204   -8.3751  -13.3479 C   0  0  0  0  0  0  0  0  0  0  0  0
   21.4396   -7.7517  -14.7143 C   0  0  2  0  0  0  0  0  0  0  0  0
   21.9290   -8.5675  -15.7851 N   0  0  0  0  0  0  0  0  0  0  0  0
   21.9616   -6.3635  -14.7637 C   0  0  0  0  0  0  0  0  0  0  0  0
   23.1093   -6.1439  -15.2241 O   0  0  0  0  0  0  0  0  0  0  0  0
   21.2213   -5.2404  -14.3097 N   0  0  0  0  0  0  0  0  0  0  0  0
   21.7995   -3.8885  -14.3378 C   0  0  0  0  0  0  0  0  0  0  0  0
   20.8146   -2.8904  -13.8747 C   0  0  0  0  0  0  0  0  0  0  0  0
   19.4879   -3.2182  -13.6377 O   0  0  0  0  0  0  0  0  0  0  0  0
   21.1661   -1.7027  -13.6828 O   0  0  0  0  0  0  0  0  0  0  0  0
  2  3  1  0
  2  1  1  0
  3  4  1  6
  5  6  2  0
  5  3  1  0
  7  8  1  0
  9  8  1  1
  9 11  1  0
  9 10  1  0
 10  5  1  0
 11 13  1  0
 12 11  2  0
 13 14  1  0
 14 15  1  0
 15 17  2  0
 15 16  1  0
M  END
$$$$
