SSG.pdb
     RDKit          3D

 17 16  0  0  1  0  0  0  0  0999 V2000
   17.4905   -2.9065  -17.2435 O   0  0  0  0  0  0  0  0  0  0  0  0
   18.4984   -3.8438  -17.1630 C   0  0  0  0  0  0  0  0  0  0  0  0
   19.8405   -3.2926  -17.5791 C   0  0  2  0  0  0  0  0  0  0  0  0
   19.8399   -2.9521  -18.9847 N   0  0  0  0  0  0  0  0  0  0  0  0
   20.9473   -4.2422  -17.2543 C   0  0  0  0  0  0  0  0  0  0  0  0
   21.7192   -4.6848  -18.1427 O   0  0  0  0  0  0  0  0  0  0  0  0
   22.7995   -4.4499  -13.5522 O   0  0  0  0  0  0  0  0  0  0  0  0
   22.4752   -5.6800  -14.0739 C   0  0  0  0  0  0  0  0  0  0  0  0
   22.2380   -5.6127  -15.5818 C   0  0  2  0  0  0  0  0  0  0  0  0
   21.1881   -4.6982  -15.9177 N   0  0  0  0  0  0  0  0  0  0  0  0
   22.0126   -6.9736  -16.1285 C   0  0  0  0  0  0  0  0  0  0  0  0
   20.8937   -7.5262  -15.9865 O   0  0  0  0  0  0  0  0  0  0  0  0
   23.0125   -7.7067  -16.8202 N   0  0  0  0  0  0  0  0  0  0  0  0
   22.7594   -9.0761  -17.2928 C   0  0  0  0  0  0  0  0  0  0  0  0
   22.1933   -9.0607  -18.6566 C   0  0  0  0  0  0  0  0  0  0  0  0
   21.8761   -7.8792  -19.3103 O   0  0  0  0  0  0  0  0  0  0  0  0
   21.9841  -10.1379  -19.2624 O   0  0  0  0  0  0  0  0  0  0  0  0
  2  3  1  0
  2  1  1  0
  3  4  1  6
  5  6  2  0
  5  3  1  0
  7  8  1  0
  9  8  1  1
  9 11  1  0
  9 10  1  0
 10  5  1  0
 11 13  1  0
 12 11  2  0
 13 14  1  0
 14 15  1  0
 15 17  2  0
 15 16  1  0
M  END
$$$$
