SSG.pdb
     RDKit          3D

 17 16  0  0  1  0  0  0  0  0999 V2000
   24.0175  -13.1392  -14.9998 O   0  0  0  0  0  0  0  0  0  0  0  0
   24.1443  -11.7777  -15.1763 C   0  0  0  0  0  0  0  0  0  0  0  0
   22.8548  -11.1246  -15.6109 C   0  0  2  0  0  0  0  0  0  0  0  0
   22.3652  -11.7230  -16.8332 N   0  0  0  0  0  0  0  0  0  0  0  0
   23.0122   -9.6463  -15.7592 C   0  0  0  0  0  0  0  0  0  0  0  0
   23.5001   -8.9390  -14.8412 O   0  0  0  0  0  0  0  0  0  0  0  0
   23.8149   -7.7171  -19.2560 O   0  0  0  0  0  0  0  0  0  0  0  0
   22.7688   -7.1310  -18.5833 C   0  0  0  0  0  0  0  0  0  0  0  0
   22.7406   -7.5391  -17.1111 C   0  0  2  0  0  0  0  0  0  0  0  0
   22.6171   -8.9570  -16.9514 N   0  0  0  0  0  0  0  0  0  0  0  0
   21.6870   -6.7846  -16.3881 C   0  0  0  0  0  0  0  0  0  0  0  0
   20.5096   -7.2214  -16.3665 O   0  0  0  0  0  0  0  0  0  0  0  0
   21.9377   -5.5673  -15.7019 N   0  0  0  0  0  0  0  0  0  0  0  0
   20.8798   -4.9004  -14.9282 C   0  0  0  0  0  0  0  0  0  0  0  0
   21.3875   -3.6566  -14.3150 C   0  0  0  0  0  0  0  0  0  0  0  0
   20.5608   -2.7854  -13.6213 O   0  0  0  0  0  0  0  0  0  0  0  0
   22.6010   -3.3580  -14.4119 O   0  0  0  0  0  0  0  0  0  0  0  0
  2  3  1  0
  2  1  1  0
  3  4  1  6
  5  6  2  0
  5  3  1  0
  7  8  1  0
  9  8  1  6
  9 11  1  0
  9 10  1  0
 10  5  1  0
 11 13  1  0
 12 11  2  0
 13 14  1  0
 14 15  1  0
 15 17  2  0
 15 16  1  0
M  END
$$$$
