GNE.pdb
     RDKit          3D

 22 21  0  0  1  0  0  0  0  0999 V2000
   16.7871  -11.2598  -17.4039 N   0  0  0  0  0  0  0  0  0  0  0  0
   17.1157   -9.8537  -17.4837 C   0  0  0  0  0  0  0  0  0  0  0  0
   18.1328   -9.4452  -16.5123 C   0  0  0  0  0  0  0  0  0  0  0  0
   17.7978   -8.6799  -15.5720 O   0  0  0  0  0  0  0  0  0  0  0  0
   22.5606   -8.8049  -13.5990 N   0  0  0  0  0  0  0  0  0  0  0  0
   22.5429   -9.9918  -14.3464 C   0  0  0  0  0  0  0  0  0  0  0  0
   23.4711  -10.8410  -14.1255 O   0  0  0  0  0  0  0  0  0  0  0  0
   21.5658  -10.3731  -15.3667 C   0  0  0  0  0  0  0  0  0  0  0  0
   20.4633   -9.3786  -15.5762 C   0  0  2  0  0  0  0  0  0  0  0  0
   19.4954   -9.8512  -16.5469 N   0  0  0  0  0  0  0  0  0  0  0  0
   20.9672   -8.0318  -15.9393 C   0  0  0  0  0  0  0  0  0  0  0  0
   21.4667   -7.7729  -17.0817 O   0  0  0  0  0  0  0  0  0  0  0  0
   20.9179   -6.9700  -15.0365 N   0  0  0  0  0  0  0  0  0  0  0  0
   21.2978   -5.5844  -15.3396 C   0  0  1  0  0  0  0  0  0  0  0  0
   20.1222   -4.7305  -15.5764 C   0  0  0  0  0  0  0  0  0  0  0  0
   20.5050   -3.3127  -15.8685 C   0  0  0  0  0  0  0  0  0  0  0  0
   19.4076   -2.3817  -16.1028 C   0  0  0  0  0  0  0  0  0  0  0  0
   18.2302   -2.7484  -16.2703 O   0  0  0  0  0  0  0  0  0  0  0  0
   22.0665   -5.1083  -14.1709 C   0  0  0  0  0  0  0  0  0  0  0  0
   22.9680   -4.0524  -14.2291 O   0  0  0  0  0  0  0  0  0  0  0  0
   19.6810   -1.0245  -16.1423 O   0  0  0  0  0  0  0  0  0  0  0  0
   21.8807   -5.7142  -13.0594 O   0  0  0  0  0  0  0  0  0  0  0  0
  2  3  1  0
  2  1  1  0
  3  4  2  0
  5  6  1  0
  6  8  1  0
  7  6  2  0
  9  8  1  6
 10  3  1  0
 10  9  1  0
 11 13  1  0
 11  9  1  0
 12 11  2  0
 14 13  1  0
 14 15  1  1
 15 16  1  0
 16 17  1  0
 17 21  1  0
 18 17  2  0
 19 20  1  0
 19 14  1  0
 22 19  2  0
M  END
$$$$
