GNE.pdb
     RDKit          3D

 22 21  0  0  1  0  0  0  0  0999 V2000
   21.8186  -12.1840  -18.4971 N   0  0  0  0  0  0  0  0  0  0  0  0
   21.3690  -11.8728  -17.1582 C   0  0  0  0  0  0  0  0  0  0  0  0
   20.7964  -10.5298  -17.0419 C   0  0  0  0  0  0  0  0  0  0  0  0
   20.7548   -9.7998  -18.0652 O   0  0  0  0  0  0  0  0  0  0  0  0
   16.6217  -10.5188  -15.1894 N   0  0  0  0  0  0  0  0  0  0  0  0
   17.3170   -9.4252  -15.7263 C   0  0  0  0  0  0  0  0  0  0  0  0
   17.0079   -9.0535  -16.9085 O   0  0  0  0  0  0  0  0  0  0  0  0
   18.3731   -8.6499  -15.0747 C   0  0  0  0  0  0  0  0  0  0  0  0
   19.6845   -8.6489  -15.8019 C   0  0  2  0  0  0  0  0  0  0  0  0
   20.2736   -9.9732  -15.8421 N   0  0  0  0  0  0  0  0  0  0  0  0
   20.6421   -7.6566  -15.2560 C   0  0  0  0  0  0  0  0  0  0  0  0
   21.3629   -7.8920  -14.2329 O   0  0  0  0  0  0  0  0  0  0  0  0
   20.8022   -6.4021  -15.8437 N   0  0  0  0  0  0  0  0  0  0  0  0
   21.8065   -5.4059  -15.4495 C   0  0  1  0  0  0  0  0  0  0  0  0
   21.8171   -4.2464  -16.3563 C   0  0  0  0  0  0  0  0  0  0  0  0
   22.8715   -3.2501  -15.9850 C   0  0  0  0  0  0  0  0  0  0  0  0
   22.9080   -2.0234  -16.7722 C   0  0  0  0  0  0  0  0  0  0  0  0
   22.1950   -1.8389  -17.7754 O   0  0  0  0  0  0  0  0  0  0  0  0
   21.4539   -4.9949  -14.0746 C   0  0  0  0  0  0  0  0  0  0  0  0
   20.1452   -4.8116  -13.6449 O   0  0  0  0  0  0  0  0  0  0  0  0
   23.7743   -1.0119  -16.3916 O   0  0  0  0  0  0  0  0  0  0  0  0
   22.4167   -4.7999  -13.2549 O   0  0  0  0  0  0  0  0  0  0  0  0
  2  3  1  0
  2  1  1  0
  3  4  2  0
  5  6  1  0
  6  8  1  0
  7  6  2  0
  9  8  1  1
 10  3  1  0
 10  9  1  0
 11 13  1  0
 11  9  1  0
 12 11  2  0
 14 13  1  0
 14 15  1  6
 15 16  1  0
 16 17  1  0
 17 21  1  0
 18 17  2  0
 19 20  1  0
 19 14  1  0
 22 19  2  0
M  END
$$$$
