GNE.pdb
     RDKit          3D

 22 21  0  0  1  0  0  0  0  0999 V2000
   27.1317  -23.3278  -15.8783 N   0  0  0  0  0  0  0  0  0  0  0  0
   26.7987  -22.0195  -15.3597 C   0  0  0  0  0  0  0  0  0  0  0  0
   25.6487  -22.0364  -14.4529 C   0  0  0  0  0  0  0  0  0  0  0  0
   24.7740  -22.9276  -14.6026 O   0  0  0  0  0  0  0  0  0  0  0  0
   26.1822  -22.2466  -10.6671 N   0  0  0  0  0  0  0  0  0  0  0  0
   25.4776  -21.0605  -10.4136 C   0  0  0  0  0  0  0  0  0  0  0  0
   25.7439  -20.4369   -9.3312 O   0  0  0  0  0  0  0  0  0  0  0  0
   24.4557  -20.4471  -11.2625 C   0  0  0  0  0  0  0  0  0  0  0  0
   24.2409  -21.1370  -12.5765 C   0  0  2  0  0  0  0  0  0  0  0  0
   25.4366  -21.1085  -13.3962 N   0  0  0  0  0  0  0  0  0  0  0  0
   23.0732  -20.6042  -13.3197 C   0  0  0  0  0  0  0  0  0  0  0  0
   23.0901  -19.4705  -13.8995 O   0  0  0  0  0  0  0  0  0  0  0  0
   21.8852  -21.3274  -13.4213 N   0  0  0  0  0  0  0  0  0  0  0  0
   20.7312  -20.9460  -14.2453 C   0  0  1  0  0  0  0  0  0  0  0  0
   19.9909  -22.1210  -14.7335 C   0  0  0  0  0  0  0  0  0  0  0  0
   19.2879  -22.8442  -13.6267 C   0  0  0  0  0  0  0  0  0  0  0  0
   18.4843  -23.9970  -14.0155 C   0  0  0  0  0  0  0  0  0  0  0  0
   18.2492  -24.2919  -15.2015 O   0  0  0  0  0  0  0  0  0  0  0  0
   19.8747  -20.1065  -13.3820 C   0  0  0  0  0  0  0  0  0  0  0  0
   19.9695  -20.0921  -11.9957 O   0  0  0  0  0  0  0  0  0  0  0  0
   17.9546  -24.8060  -13.0239 O   0  0  0  0  0  0  0  0  0  0  0  0
   19.0063  -19.3652  -13.9593 O   0  0  0  0  0  0  0  0  0  0  0  0
  2  3  1  0
  2  1  1  0
  3  4  2  0
  5  6  1  0
  6  8  1  0
  7  6  2  0
  9  8  1  1
 10  3  1  0
 10  9  1  0
 11 13  1  0
 11  9  1  0
 12 11  2  0
 14 13  1  0
 14 15  1  1
 15 16  1  0
 16 17  1  0
 17 21  1  0
 18 17  2  0
 19 20  1  0
 19 14  1  0
 22 19  2  0
M  END
$$$$
