GNE.pdb
     RDKit          3D

 22 21  0  0  1  0  0  0  0  0999 V2000
   22.2102  -13.8317  -18.6615 N   0  0  0  0  0  0  0  0  0  0  0  0
   22.4300  -13.8408  -17.2321 C   0  0  0  0  0  0  0  0  0  0  0  0
   23.1240  -12.6447  -16.7498 C   0  0  0  0  0  0  0  0  0  0  0  0
   22.6797  -12.0581  -15.7298 O   0  0  0  0  0  0  0  0  0  0  0  0
   27.6038  -11.8503  -14.9547 N   0  0  0  0  0  0  0  0  0  0  0  0
   27.0809  -11.9626  -16.2514 C   0  0  0  0  0  0  0  0  0  0  0  0
   27.2034  -13.0892  -16.8405 O   0  0  0  0  0  0  0  0  0  0  0  0
   26.4002  -10.9182  -17.0177 C   0  0  0  0  0  0  0  0  0  0  0  0
   24.9121  -10.8820  -16.8364 C   0  0  2  0  0  0  0  0  0  0  0  0
   24.2820  -12.0813  -17.3533 N   0  0  0  0  0  0  0  0  0  0  0  0
   24.2935   -9.6643  -17.4145 C   0  0  0  0  0  0  0  0  0  0  0  0
   24.1238   -9.5116  -18.6673 O   0  0  0  0  0  0  0  0  0  0  0  0
   23.8620   -8.6143  -16.6046 N   0  0  0  0  0  0  0  0  0  0  0  0
   23.1062   -7.4441  -17.0689 C   0  0  1  0  0  0  0  0  0  0  0  0
   22.3695   -6.7941  -15.9726 C   0  0  0  0  0  0  0  0  0  0  0  0
   23.2468   -5.8923  -15.1607 C   0  0  0  0  0  0  0  0  0  0  0  0
   22.6059   -5.1903  -14.0552 C   0  0  0  0  0  0  0  0  0  0  0  0
   22.5936   -5.6265  -12.8897 O   0  0  0  0  0  0  0  0  0  0  0  0
   24.1024   -6.5216  -17.6522 C   0  0  0  0  0  0  0  0  0  0  0  0
   23.7916   -5.5782  -18.6241 O   0  0  0  0  0  0  0  0  0  0  0  0
   21.9793   -3.9808  -14.3066 O   0  0  0  0  0  0  0  0  0  0  0  0
   25.3066   -6.6145  -17.2302 O   0  0  0  0  0  0  0  0  0  0  0  0
  2  3  1  0
  2  1  1  0
  3  4  2  0
  5  6  1  0
  6  8  1  0
  7  6  2  0
  9  8  1  6
 10  3  1  0
 10  9  1  0
 11 13  1  0
 11  9  1  0
 12 11  2  0
 14 13  1  0
 14 15  1  1
 15 16  1  0
 16 17  1  0
 17 21  1  0
 18 17  2  0
 19 20  1  0
 19 14  1  0
 22 19  2  0
M  END
$$$$
