GNE.pdb
     RDKit          3D

 22 21  0  0  1  0  0  0  0  0999 V2000
   33.3665  -35.7267   -4.9124 N   0  0  0  0  0  0  0  0  0  0  0  0
   32.8643  -35.9237   -3.5706 C   0  0  0  0  0  0  0  0  0  0  0  0
   33.6711  -35.2505   -2.5504 C   0  0  0  0  0  0  0  0  0  0  0  0
   34.3925  -34.2792   -2.8942 O   0  0  0  0  0  0  0  0  0  0  0  0
   36.1091  -32.0504    0.5202 N   0  0  0  0  0  0  0  0  0  0  0  0
   34.7687  -32.4597    0.5790 C   0  0  0  0  0  0  0  0  0  0  0  0
   34.0615  -32.0234    1.5489 O   0  0  0  0  0  0  0  0  0  0  0  0
   34.0782  -33.3441   -0.3603 C   0  0  0  0  0  0  0  0  0  0  0  0
   34.3836  -34.8015   -0.1834 C   0  0  2  0  0  0  0  0  0  0  0  0
   33.7060  -35.6132   -1.1757 N   0  0  0  0  0  0  0  0  0  0  0  0
   34.0941  -35.2857    1.1882 C   0  0  0  0  0  0  0  0  0  0  0  0
   32.9236  -35.6183    1.5639 O   0  0  0  0  0  0  0  0  0  0  0  0
   35.1017  -35.4022    2.1452 N   0  0  0  0  0  0  0  0  0  0  0  0
   34.9095  -35.8758    3.5218 C   0  0  1  0  0  0  0  0  0  0  0  0
   36.1904  -36.0758    4.2191 C   0  0  0  0  0  0  0  0  0  0  0  0
   35.9984  -36.5604    5.6229 C   0  0  0  0  0  0  0  0  0  0  0  0
   37.2005  -36.6640    6.4413 C   0  0  0  0  0  0  0  0  0  0  0  0
   38.3446  -36.4586    5.9966 O   0  0  0  0  0  0  0  0  0  0  0  0
   34.0985  -34.8422    4.1982 C   0  0  0  0  0  0  0  0  0  0  0  0
   33.3556  -35.0859    5.3470 O   0  0  0  0  0  0  0  0  0  0  0  0
   37.0708  -37.0068    7.7770 O   0  0  0  0  0  0  0  0  0  0  0  0
   34.0906  -33.6713    3.6824 O   0  0  0  0  0  0  0  0  0  0  0  0
  2  3  1  0
  2  1  1  0
  3  4  2  0
  5  6  1  0
  6  8  1  0
  7  6  2  0
  9  8  1  1
 10  3  1  0
 10  9  1  0
 11 13  1  0
 11  9  1  0
 12 11  2  0
 14 13  1  0
 14 15  1  1
 15 16  1  0
 16 17  1  0
 17 21  1  0
 18 17  2  0
 19 20  1  0
 19 14  1  0
 22 19  2  0
M  END
$$$$
