GNE.pdb
     RDKit          3D

 22 21  0  0  1  0  0  0  0  0999 V2000
   15.0167  -10.2059  -10.7612 N   0  0  0  0  0  0  0  0  0  0  0  0
   15.8348   -9.2391  -10.0629 C   0  0  0  0  0  0  0  0  0  0  0  0
   16.9920   -8.7951  -10.8432 C   0  0  0  0  0  0  0  0  0  0  0  0
   17.7926   -7.9757  -10.3241 O   0  0  0  0  0  0  0  0  0  0  0  0
   21.7379   -9.0235  -13.6819 N   0  0  0  0  0  0  0  0  0  0  0  0
   20.4646   -9.3352  -14.1813 C   0  0  0  0  0  0  0  0  0  0  0  0
   20.2782   -9.2101  -15.4387 O   0  0  0  0  0  0  0  0  0  0  0  0
   19.3076   -9.7947  -13.4124 C   0  0  0  0  0  0  0  0  0  0  0  0
   18.4180   -8.6974  -12.9093 C   0  0  2  0  0  0  0  0  0  0  0  0
   17.2894   -9.2234  -12.1663 N   0  0  0  0  0  0  0  0  0  0  0  0
   17.9667   -7.7851  -13.9880 C   0  0  0  0  0  0  0  0  0  0  0  0
   17.0557   -8.1050  -14.8184 O   0  0  0  0  0  0  0  0  0  0  0  0
   18.5242   -6.5169  -14.1477 N   0  0  0  0  0  0  0  0  0  0  0  0
   18.0840   -5.5173  -15.1290 C   0  0  1  0  0  0  0  0  0  0  0  0
   18.1517   -4.1493  -14.5897 C   0  0  0  0  0  0  0  0  0  0  0  0
   17.6448   -3.1329  -15.5655 C   0  0  0  0  0  0  0  0  0  0  0  0
   17.5907   -1.7544  -15.0939 C   0  0  0  0  0  0  0  0  0  0  0  0
   16.9270   -1.4016  -14.1019 O   0  0  0  0  0  0  0  0  0  0  0  0
   18.9808   -5.6682  -16.2938 C   0  0  0  0  0  0  0  0  0  0  0  0
   18.5685   -5.4667  -17.6054 O   0  0  0  0  0  0  0  0  0  0  0  0
   18.3088   -0.7868  -15.7770 O   0  0  0  0  0  0  0  0  0  0  0  0
   20.1931   -6.0050  -16.0617 O   0  0  0  0  0  0  0  0  0  0  0  0
  2  3  1  0
  2  1  1  0
  3  4  2  0
  5  6  1  0
  6  8  1  0
  7  6  2  0
  9  8  1  6
 10  3  1  0
 10  9  1  0
 11 13  1  0
 11  9  1  0
 12 11  2  0
 14 13  1  0
 14 15  1  1
 15 16  1  0
 16 17  1  0
 17 21  1  0
 18 17  2  0
 19 20  1  0
 19 14  1  0
 22 19  2  0
M  END
$$$$
