GNE.pdb
     RDKit          3D

 22 21  0  0  1  0  0  0  0  0999 V2000
   16.4243  -11.7799  -15.4411 N   0  0  0  0  0  0  0  0  0  0  0  0
   17.7063  -11.1481  -15.6624 C   0  0  0  0  0  0  0  0  0  0  0  0
   17.8590   -9.8872  -14.9332 C   0  0  0  0  0  0  0  0  0  0  0  0
   17.4804   -8.8212  -15.4831 O   0  0  0  0  0  0  0  0  0  0  0  0
   15.8992   -9.0187  -11.8035 N   0  0  0  0  0  0  0  0  0  0  0  0
   17.0478   -8.8773  -11.0108 C   0  0  0  0  0  0  0  0  0  0  0  0
   16.9073   -8.9837   -9.7458 O   0  0  0  0  0  0  0  0  0  0  0  0
   18.4104   -8.6176  -11.4768 C   0  0  0  0  0  0  0  0  0  0  0  0
   18.5457   -8.4858  -12.9644 C   0  0  2  0  0  0  0  0  0  0  0  0
   18.4119   -9.7678  -13.6284 N   0  0  0  0  0  0  0  0  0  0  0  0
   19.8004   -7.8056  -13.3680 C   0  0  0  0  0  0  0  0  0  0  0  0
   20.9167   -8.4144  -13.4386 O   0  0  0  0  0  0  0  0  0  0  0  0
   19.8193   -6.4500  -13.6942 N   0  0  0  0  0  0  0  0  0  0  0  0
   20.9723   -5.7302  -14.2498 C   0  0  1  0  0  0  0  0  0  0  0  0
   20.5666   -4.7292  -15.2500 C   0  0  0  0  0  0  0  0  0  0  0  0
   21.7373   -3.9730  -15.7977 C   0  0  0  0  0  0  0  0  0  0  0  0
   21.4345   -2.9222  -16.7619 C   0  0  0  0  0  0  0  0  0  0  0  0
   21.9241   -1.7798  -16.6975 O   0  0  0  0  0  0  0  0  0  0  0  0
   21.6408   -5.0844  -13.1010 C   0  0  0  0  0  0  0  0  0  0  0  0
   22.9607   -4.6507  -13.1312 O   0  0  0  0  0  0  0  0  0  0  0  0
   20.5619   -3.2011  -17.8008 O   0  0  0  0  0  0  0  0  0  0  0  0
   20.9535   -4.9289  -12.0331 O   0  0  0  0  0  0  0  0  0  0  0  0
  2  3  1  0
  2  1  1  0
  3  4  2  0
  5  6  1  0
  6  8  1  0
  7  6  2  0
  9  8  1  1
 10  3  1  0
 10  9  1  0
 11 13  1  0
 11  9  1  0
 12 11  2  0
 14 13  1  0
 14 15  1  6
 15 16  1  0
 16 17  1  0
 17 21  1  0
 18 17  2  0
 19 20  1  0
 19 14  1  0
 22 19  2  0
M  END
$$$$
