KNE.pdb
     RDKit          3D

 27 26  0  0  1  0  0  0  0  0999 V2000
   10.5129  -13.5095   18.8799 N   0  0  0  0  0  0  0  0  0  0  0  0
    9.2727  -13.4220   19.5838 C   0  0  1  0  0  0  0  0  0  0  0  0
    8.1129  -13.1523   18.6766 C   0  0  0  0  0  0  0  0  0  0  0  0
    8.1928  -13.9156   17.3956 C   0  0  0  0  0  0  0  0  0  0  0  0
    7.1043  -13.5213   16.4181 C   0  0  0  0  0  0  0  0  0  0  0  0
    7.2492  -14.3318   15.1351 C   0  0  0  0  0  0  0  0  0  0  0  0
    6.2463  -13.8728   14.1894 N   0  0  0  0  0  0  0  0  0  0  0  0
    8.9891  -14.6871   20.3393 C   0  0  0  0  0  0  0  0  0  0  0  0
    8.0301  -14.7751   21.1320 O   0  0  0  0  0  0  0  0  0  0  0  0
    8.5673  -19.4835   21.6657 N   0  0  0  0  0  0  0  0  0  0  0  0
    9.0686  -19.3710   20.3041 C   0  0  0  0  0  0  0  0  0  0  0  0
    8.8903  -20.3854   19.6146 O   0  0  0  0  0  0  0  0  0  0  0  0
    9.6867  -18.1080   19.9798 C   0  0  0  0  0  0  0  0  0  0  0  0
    9.7609  -17.0183   20.9853 C   0  0  2  0  0  0  0  0  0  0  0  0
    9.8289  -15.7835   20.1386 N   0  0  0  0  0  0  0  0  0  0  0  0
   10.9720  -16.9610   21.8152 C   0  0  0  0  0  0  0  0  0  0  0  0
   11.3687  -18.0278   22.3834 O   0  0  0  0  0  0  0  0  0  0  0  0
   11.7900  -15.8541   22.0779 N   0  0  0  0  0  0  0  0  0  0  0  0
   13.2213  -15.8592   22.1576 C   0  0  1  0  0  0  0  0  0  0  0  0
   13.9627  -14.7358   21.5820 C   0  0  0  0  0  0  0  0  0  0  0  0
   15.4449  -14.7036   21.8420 C   0  0  0  0  0  0  0  0  0  0  0  0
   16.2390  -14.1830   20.7075 C   0  0  0  0  0  0  0  0  0  0  0  0
   15.7985  -13.9497   19.5650 O   0  0  0  0  0  0  0  0  0  0  0  0
   13.7301  -16.1800   23.5131 C   0  0  0  0  0  0  0  0  0  0  0  0
   15.0798  -16.4939   23.6479 O   0  0  0  0  0  0  0  0  0  0  0  0
   17.6084  -13.9164   20.8934 O   0  0  0  0  0  0  0  0  0  0  0  0
   13.0057  -16.1796   24.5348 O   0  0  0  0  0  0  0  0  0  0  0  0
  2  1  1  6
  2  8  1  0
  3  2  1  0
  4  3  1  0
  5  4  1  0
  6  5  1  0
  7  6  1  0
  8  9  2  0
  8 15  1  0
 10 11  1  0
 11 12  2  0
 13 11  1  0
 14 16  1  0
 14 13  1  6
 15 14  1  0
 16 18  1  0
 17 16  2  0
 18 19  1  0
 19 24  1  0
 19 20  1  1
 20 21  1  0
 22 21  1  0
 22 26  1  0
 23 22  2  0
 24 27  2  0
 24 25  1  0
M  END
$$$$
