KNE.pdb
     RDKit          3D

 27 26  0  0  1  0  0  0  0  0999 V2000
    8.1313  -16.9748   17.6153 N   0  0  0  0  0  0  0  0  0  0  0  0
    9.2807  -16.5080   18.3239 C   0  0  1  0  0  0  0  0  0  0  0  0
    8.9641  -15.3810   19.2570 C   0  0  0  0  0  0  0  0  0  0  0  0
    8.5926  -14.1252   18.5395 C   0  0  0  0  0  0  0  0  0  0  0  0
    8.3502  -12.9675   19.4867 C   0  0  0  0  0  0  0  0  0  0  0  0
    7.8911  -11.7468   18.6974 C   0  0  0  0  0  0  0  0  0  0  0  0
    7.5390  -10.6992   19.6406 N   0  0  0  0  0  0  0  0  0  0  0  0
    9.9089  -17.6119   19.1228 C   0  0  0  0  0  0  0  0  0  0  0  0
    9.2595  -18.6178   19.4728 O   0  0  0  0  0  0  0  0  0  0  0  0
   14.5075  -17.1811   18.2471 N   0  0  0  0  0  0  0  0  0  0  0  0
   14.2187  -17.6439   19.5964 C   0  0  0  0  0  0  0  0  0  0  0  0
   14.8600  -17.0570   20.4798 O   0  0  0  0  0  0  0  0  0  0  0  0
   13.2413  -18.7016   19.6867 C   0  0  0  0  0  0  0  0  0  0  0  0
   11.9428  -18.4793   20.3712 C   0  0  2  0  0  0  0  0  0  0  0  0
   11.2542  -17.4951   19.4748 N   0  0  0  0  0  0  0  0  0  0  0  0
   11.9869  -17.8142   21.6806 C   0  0  0  0  0  0  0  0  0  0  0  0
   12.3800  -16.6055   21.7337 O   0  0  0  0  0  0  0  0  0  0  0  0
   11.6389  -18.3409   22.9316 N   0  0  0  0  0  0  0  0  0  0  0  0
   11.6263  -17.6293   24.1758 C   0  0  1  0  0  0  0  0  0  0  0  0
   10.3786  -17.0025   24.6160 C   0  0  0  0  0  0  0  0  0  0  0  0
   10.4239  -16.2582   25.9234 C   0  0  0  0  0  0  0  0  0  0  0  0
    9.1338  -15.6432   26.3055 C   0  0  0  0  0  0  0  0  0  0  0  0
    8.3584  -15.0515   25.5295 O   0  0  0  0  0  0  0  0  0  0  0  0
   12.2506  -18.3856   25.2882 C   0  0  0  0  0  0  0  0  0  0  0  0
   12.6569  -17.6758   26.4148 O   0  0  0  0  0  0  0  0  0  0  0  0
    8.7116  -15.7108   27.6465 O   0  0  0  0  0  0  0  0  0  0  0  0
   12.4259  -19.6254   25.2604 O   0  0  0  0  0  0  0  0  0  0  0  0
  2  1  1  1
  2  8  1  0
  3  2  1  0
  4  3  1  0
  5  4  1  0
  6  5  1  0
  7  6  1  0
  8  9  2  0
  8 15  1  0
 10 11  1  0
 11 12  2  0
 13 11  1  0
 14 16  1  0
 14 13  1  6
 15 14  1  0
 16 18  1  0
 17 16  2  0
 18 19  1  0
 19 24  1  0
 19 20  1  1
 20 21  1  0
 22 21  1  0
 22 26  1  0
 23 22  2  0
 24 27  2  0
 24 25  1  0
M  END
$$$$
