KNE.pdb
     RDKit          3D

 27 26  0  0  1  0  0  0  0  0999 V2000
   11.3038  -16.3888   14.0100 N   0  0  0  0  0  0  0  0  0  0  0  0
   10.1672  -16.4527   14.8733 C   0  0  1  0  0  0  0  0  0  0  0  0
    9.7028  -17.8557   15.1118 C   0  0  0  0  0  0  0  0  0  0  0  0
   10.7719  -18.8677   14.8615 C   0  0  0  0  0  0  0  0  0  0  0  0
   10.2567  -20.2895   14.9559 C   0  0  0  0  0  0  0  0  0  0  0  0
   11.4103  -21.2668   14.7618 C   0  0  0  0  0  0  0  0  0  0  0  0
   10.8916  -22.6176   14.8941 N   0  0  0  0  0  0  0  0  0  0  0  0
   10.4634  -15.8272   16.2047 C   0  0  0  0  0  0  0  0  0  0  0  0
   11.6333  -15.6216   16.5855 O   0  0  0  0  0  0  0  0  0  0  0  0
    6.7766  -12.5952   19.7617 N   0  0  0  0  0  0  0  0  0  0  0  0
    7.9793  -13.4147   19.7713 C   0  0  0  0  0  0  0  0  0  0  0  0
    8.5450  -13.4687   20.8728 O   0  0  0  0  0  0  0  0  0  0  0  0
    8.3158  -14.0261   18.5083 C   0  0  0  0  0  0  0  0  0  0  0  0
    9.5784  -14.7901   18.3469 C   0  0  2  0  0  0  0  0  0  0  0  0
    9.3920  -15.4724   17.0255 N   0  0  0  0  0  0  0  0  0  0  0  0
    9.8178  -15.8866   19.2952 C   0  0  0  0  0  0  0  0  0  0  0  0
    9.5278  -17.0722   18.9368 O   0  0  0  0  0  0  0  0  0  0  0  0
   10.3465  -15.8111   20.5906 N   0  0  0  0  0  0  0  0  0  0  0  0
   10.6346  -16.9191   21.4532 C   0  0  1  0  0  0  0  0  0  0  0  0
   11.4337  -18.0290   20.9309 C   0  0  0  0  0  0  0  0  0  0  0  0
   12.8878  -17.7452   20.6657 C   0  0  0  0  0  0  0  0  0  0  0  0
   13.6428  -18.9146   20.1646 C   0  0  0  0  0  0  0  0  0  0  0  0
   14.5305  -19.5237   20.7927 O   0  0  0  0  0  0  0  0  0  0  0  0
   11.1260  -16.5068   22.7903 C   0  0  0  0  0  0  0  0  0  0  0  0
   11.3686  -17.5016   23.7334 O   0  0  0  0  0  0  0  0  0  0  0  0
   13.3649  -19.4105   18.8770 O   0  0  0  0  0  0  0  0  0  0  0  0
   11.3324  -15.3126   23.1061 O   0  0  0  0  0  0  0  0  0  0  0  0
  2  1  1  6
  2  8  1  0
  3  2  1  0
  4  3  1  0
  5  4  1  0
  6  5  1  0
  7  6  1  0
  8  9  2  0
  8 15  1  0
 10 11  1  0
 11 12  2  0
 13 11  1  0
 14 16  1  0
 14 13  1  1
 15 14  1  0
 16 18  1  0
 17 16  2  0
 18 19  1  0
 19 24  1  0
 19 20  1  6
 20 21  1  0
 22 21  1  0
 22 26  1  0
 23 22  2  0
 24 27  2  0
 24 25  1  0
M  END
$$$$
