KNE.pdb
     RDKit          3D

 27 26  0  0  1  0  0  0  0  0999 V2000
    7.3999  -16.1654   19.2799 N   0  0  0  0  0  0  0  0  0  0  0  0
    8.5323  -15.3097   19.4428 C   0  0  1  0  0  0  0  0  0  0  0  0
    8.3545  -13.9842   18.7703 C   0  0  0  0  0  0  0  0  0  0  0  0
    7.2568  -13.9936   17.7579 C   0  0  0  0  0  0  0  0  0  0  0  0
    7.5788  -13.1414   16.5471 C   0  0  0  0  0  0  0  0  0  0  0  0
    8.0013  -14.0366   15.3878 C   0  0  0  0  0  0  0  0  0  0  0  0
    8.4274  -13.1884   14.2878 N   0  0  0  0  0  0  0  0  0  0  0  0
    8.8180  -15.0611   20.8947 C   0  0  0  0  0  0  0  0  0  0  0  0
    9.7958  -14.3791   21.2619 O   0  0  0  0  0  0  0  0  0  0  0  0
    7.8403  -15.5307   26.1364 N   0  0  0  0  0  0  0  0  0  0  0  0
    6.7301  -16.0137   25.3288 C   0  0  0  0  0  0  0  0  0  0  0  0
    5.8062  -16.5130   25.9870 O   0  0  0  0  0  0  0  0  0  0  0  0
    6.8830  -15.8347   23.9051 C   0  0  0  0  0  0  0  0  0  0  0  0
    8.2058  -15.5015   23.3193 C   0  0  2  0  0  0  0  0  0  0  0  0
    7.9588  -15.6137   21.8453 N   0  0  0  0  0  0  0  0  0  0  0  0
    9.3041  -16.4421   23.5797 C   0  0  0  0  0  0  0  0  0  0  0  0
    9.7928  -17.0897   22.5999 O   0  0  0  0  0  0  0  0  0  0  0  0
    9.9197  -16.7371   24.8033 N   0  0  0  0  0  0  0  0  0  0  0  0
   11.2628  -17.2042   24.9843 C   0  0  1  0  0  0  0  0  0  0  0  0
   12.3364  -16.5785   24.2102 C   0  0  0  0  0  0  0  0  0  0  0  0
   13.7306  -17.0885   24.4584 C   0  0  0  0  0  0  0  0  0  0  0  0
   14.6462  -16.9064   23.3108 C   0  0  0  0  0  0  0  0  0  0  0  0
   14.4670  -16.1174   22.3627 O   0  0  0  0  0  0  0  0  0  0  0  0
   11.6517  -17.3276   26.4101 C   0  0  0  0  0  0  0  0  0  0  0  0
   12.7727  -18.0935   26.7184 O   0  0  0  0  0  0  0  0  0  0  0  0
   15.8278  -17.6684   23.2478 O   0  0  0  0  0  0  0  0  0  0  0  0
   11.0225  -16.7765   27.3421 O   0  0  0  0  0  0  0  0  0  0  0  0
  2  1  1  1
  2  8  1  0
  3  2  1  0
  4  3  1  0
  5  4  1  0
  6  5  1  0
  7  6  1  0
  8  9  2  0
  8 15  1  0
 10 11  1  0
 11 12  2  0
 13 11  1  0
 14 16  1  0
 14 13  1  1
 15 14  1  0
 16 18  1  0
 17 16  2  0
 18 19  1  0
 19 24  1  0
 19 20  1  6
 20 21  1  0
 22 21  1  0
 22 26  1  0
 23 22  2  0
 24 27  2  0
 24 25  1  0
M  END
$$$$
