KNE.pdb
     RDKit          3D

 27 26  0  0  1  0  0  0  0  0999 V2000
   11.4713  -17.0590   16.0491 N   0  0  0  0  0  0  0  0  0  0  0  0
   11.1463  -15.7737   16.5814 C   0  0  1  0  0  0  0  0  0  0  0  0
   10.0968  -15.0671   15.7812 C   0  0  0  0  0  0  0  0  0  0  0  0
    9.1259  -16.0069   15.1456 C   0  0  0  0  0  0  0  0  0  0  0  0
    8.2015  -15.3102   14.1678 C   0  0  0  0  0  0  0  0  0  0  0  0
    7.3380  -16.3436   13.4534 C   0  0  0  0  0  0  0  0  0  0  0  0
    6.4782  -15.6475   12.5115 N   0  0  0  0  0  0  0  0  0  0  0  0
   10.6594  -15.8817   17.9966 C   0  0  0  0  0  0  0  0  0  0  0  0
   10.3402  -14.8732   18.6577 O   0  0  0  0  0  0  0  0  0  0  0  0
    8.9546  -18.4730   22.3048 N   0  0  0  0  0  0  0  0  0  0  0  0
    8.5199  -19.0390   21.0364 C   0  0  0  0  0  0  0  0  0  0  0  0
    7.6814  -19.9449   21.1482 O   0  0  0  0  0  0  0  0  0  0  0  0
    9.1300  -18.4593   19.8641 C   0  0  0  0  0  0  0  0  0  0  0  0
   10.1228  -17.3625   19.9883 C   0  0  2  0  0  0  0  0  0  0  0  0
   10.5671  -17.1493   18.5728 N   0  0  0  0  0  0  0  0  0  0  0  0
   11.3606  -17.6660   20.7194 C   0  0  0  0  0  0  0  0  0  0  0  0
   12.0701  -18.6471   20.3292 O   0  0  0  0  0  0  0  0  0  0  0  0
   11.8968  -16.9987   21.8287 N   0  0  0  0  0  0  0  0  0  0  0  0
   12.9210  -17.4941   22.7008 C   0  0  1  0  0  0  0  0  0  0  0  0
   14.1874  -16.7645   22.7855 C   0  0  0  0  0  0  0  0  0  0  0  0
   14.7407  -16.2243   21.4942 C   0  0  0  0  0  0  0  0  0  0  0  0
   16.0718  -15.5935   21.6324 C   0  0  0  0  0  0  0  0  0  0  0  0
   16.3910  -14.7663   22.5084 O   0  0  0  0  0  0  0  0  0  0  0  0
   12.4220  -17.8317   24.0559 C   0  0  0  0  0  0  0  0  0  0  0  0
   13.2781  -18.5123   24.9174 O   0  0  0  0  0  0  0  0  0  0  0  0
   17.0885  -15.9291   20.7188 O   0  0  0  0  0  0  0  0  0  0  0  0
   11.2741  -17.5328   24.4576 O   0  0  0  0  0  0  0  0  0  0  0  0
  2  1  1  6
  2  8  1  0
  3  2  1  0
  4  3  1  0
  5  4  1  0
  6  5  1  0
  7  6  1  0
  8  9  2  0
  8 15  1  0
 10 11  1  0
 11 12  2  0
 13 11  1  0
 14 16  1  0
 14 13  1  6
 15 14  1  0
 16 18  1  0
 17 16  2  0
 18 19  1  0
 19 24  1  0
 19 20  1  1
 20 21  1  0
 22 21  1  0
 22 26  1  0
 23 22  2  0
 24 27  2  0
 24 25  1  0
M  END
$$$$
