KNE.pdb
     RDKit          3D

 27 26  0  0  1  0  0  0  0  0999 V2000
    7.4806  -16.1123   20.5079 N   0  0  0  0  0  0  0  0  0  0  0  0
    8.1881  -15.1253   21.2605 C   0  0  1  0  0  0  0  0  0  0  0  0
    7.4575  -13.8206   21.3306 C   0  0  0  0  0  0  0  0  0  0  0  0
    6.9713  -13.3594   19.9962 C   0  0  0  0  0  0  0  0  0  0  0  0
    8.0884  -13.2538   18.9780 C   0  0  0  0  0  0  0  0  0  0  0  0
    7.5182  -12.8116   17.6352 C   0  0  0  0  0  0  0  0  0  0  0  0
    8.6174  -12.6749   16.6950 N   0  0  0  0  0  0  0  0  0  0  0  0
    8.4413  -15.5937   22.6634 C   0  0  0  0  0  0  0  0  0  0  0  0
    8.9751  -14.8540   23.5141 O   0  0  0  0  0  0  0  0  0  0  0  0
    6.1258  -20.3436   25.6365 N   0  0  0  0  0  0  0  0  0  0  0  0
    7.2748  -19.4523   25.5757 C   0  0  0  0  0  0  0  0  0  0  0  0
    8.1209  -19.6578   26.4577 O   0  0  0  0  0  0  0  0  0  0  0  0
    7.2434  -18.4822   24.5079 C   0  0  0  0  0  0  0  0  0  0  0  0
    8.3246  -17.4748   24.3650 C   0  0  2  0  0  0  0  0  0  0  0  0
    8.0641  -16.8921   23.0089 N   0  0  0  0  0  0  0  0  0  0  0  0
    9.7009  -17.9834   24.2873 C   0  0  0  0  0  0  0  0  0  0  0  0
   10.0110  -18.7478   23.3190 O   0  0  0  0  0  0  0  0  0  0  0  0
   10.7671  -17.7329   25.1612 N   0  0  0  0  0  0  0  0  0  0  0  0
   12.1539  -17.9828   24.8980 C   0  0  1  0  0  0  0  0  0  0  0  0
   12.7306  -17.4998   23.6421 C   0  0  0  0  0  0  0  0  0  0  0  0
   13.8185  -16.4658   23.7547 C   0  0  0  0  0  0  0  0  0  0  0  0
   14.4011  -16.0680   22.4543 C   0  0  0  0  0  0  0  0  0  0  0  0
   13.7548  -15.8418   21.4128 O   0  0  0  0  0  0  0  0  0  0  0  0
   13.0361  -17.6444   26.0411 C   0  0  0  0  0  0  0  0  0  0  0  0
   14.3458  -18.1158   26.0184 O   0  0  0  0  0  0  0  0  0  0  0  0
   15.7966  -15.9222   22.3433 O   0  0  0  0  0  0  0  0  0  0  0  0
   12.6588  -16.9573   27.0178 O   0  0  0  0  0  0  0  0  0  0  0  0
  2  1  1  6
  2  8  1  0
  3  2  1  0
  4  3  1  0
  5  4  1  0
  6  5  1  0
  7  6  1  0
  8  9  2  0
  8 15  1  0
 10 11  1  0
 11 12  2  0
 13 11  1  0
 14 16  1  0
 14 13  1  6
 15 14  1  0
 16 18  1  0
 17 16  2  0
 18 19  1  0
 19 24  1  0
 19 20  1  6
 20 21  1  0
 22 21  1  0
 22 26  1  0
 23 22  2  0
 24 27  2  0
 24 25  1  0
M  END
$$$$
