KNE.pdb
     RDKit          3D

 27 26  0  0  1  0  0  0  0  0999 V2000
    8.8309  -16.3133   20.1247 N   0  0  0  0  0  0  0  0  0  0  0  0
    9.5021  -15.1386   20.5837 C   0  0  1  0  0  0  0  0  0  0  0  0
    9.2496  -13.9512   19.7079 C   0  0  0  0  0  0  0  0  0  0  0  0
    8.4411  -14.2879   18.4984 C   0  0  0  0  0  0  0  0  0  0  0  0
    8.2559  -13.0996   17.5767 C   0  0  0  0  0  0  0  0  0  0  0  0
    7.4072  -13.5079   16.3780 C   0  0  0  0  0  0  0  0  0  0  0  0
    7.3181  -12.3738   15.4741 N   0  0  0  0  0  0  0  0  0  0  0  0
    9.0810  -14.7858   21.9800 C   0  0  0  0  0  0  0  0  0  0  0  0
    8.7236  -13.6299   22.2836 O   0  0  0  0  0  0  0  0  0  0  0  0
    5.7076  -13.8620   25.6799 N   0  0  0  0  0  0  0  0  0  0  0  0
    6.3510  -15.1151   25.3138 C   0  0  0  0  0  0  0  0  0  0  0  0
    5.9946  -16.0849   25.9984 O   0  0  0  0  0  0  0  0  0  0  0  0
    7.2914  -15.0265   24.2229 C   0  0  0  0  0  0  0  0  0  0  0  0
    8.6755  -15.5430   24.3696 C   0  0  2  0  0  0  0  0  0  0  0  0
    9.0953  -15.7874   22.9516 N   0  0  0  0  0  0  0  0  0  0  0  0
    8.8321  -16.8471   25.0282 C   0  0  0  0  0  0  0  0  0  0  0  0
    8.4727  -17.8918   24.3977 O   0  0  0  0  0  0  0  0  0  0  0  0
    9.3467  -17.1169   26.3033 N   0  0  0  0  0  0  0  0  0  0  0  0
   10.3512  -18.0884   26.6225 C   0  0  1  0  0  0  0  0  0  0  0  0
   11.5131  -18.2157   25.7411 C   0  0  0  0  0  0  0  0  0  0  0  0
   12.3205  -16.9671   25.5072 C   0  0  0  0  0  0  0  0  0  0  0  0
   13.4748  -17.1631   24.6028 C   0  0  0  0  0  0  0  0  0  0  0  0
   13.5491  -16.7529   23.4281 O   0  0  0  0  0  0  0  0  0  0  0  0
   10.7762  -18.0449   28.0426 C   0  0  0  0  0  0  0  0  0  0  0  0
   11.6601  -19.0225   28.4911 O   0  0  0  0  0  0  0  0  0  0  0  0
   14.6013  -17.8656   25.0701 O   0  0  0  0  0  0  0  0  0  0  0  0
   10.3798  -17.1735   28.8501 O   0  0  0  0  0  0  0  0  0  0  0  0
  2  1  1  6
  2  8  1  0
  3  2  1  0
  4  3  1  0
  5  4  1  0
  6  5  1  0
  7  6  1  0
  8  9  2  0
  8 15  1  0
 10 11  1  0
 11 12  2  0
 13 11  1  0
 14 16  1  0
 14 13  1  6
 15 14  1  0
 16 18  1  0
 17 16  2  0
 18 19  1  0
 19 24  1  0
 19 20  1  6
 20 21  1  0
 22 21  1  0
 22 26  1  0
 23 22  2  0
 24 27  2  0
 24 25  1  0
M  END
$$$$
