KNE.pdb
     RDKit          3D

 27 26  0  0  1  0  0  0  0  0999 V2000
   10.1293  -16.1052   18.0963 N   0  0  0  0  0  0  0  0  0  0  0  0
   10.9720  -16.6855   17.0992 C   0  0  1  0  0  0  0  0  0  0  0  0
   10.4953  -16.4060   15.7079 C   0  0  0  0  0  0  0  0  0  0  0  0
   10.9769  -17.4162   14.7193 C   0  0  0  0  0  0  0  0  0  0  0  0
   10.5410  -17.0946   13.3041 C   0  0  0  0  0  0  0  0  0  0  0  0
   11.2022  -18.0641   12.3312 C   0  0  0  0  0  0  0  0  0  0  0  0
   10.9596  -17.5907   10.9792 N   0  0  0  0  0  0  0  0  0  0  0  0
   12.3797  -16.1803   17.2199 C   0  0  0  0  0  0  0  0  0  0  0  0
   13.1065  -16.0223   16.2185 O   0  0  0  0  0  0  0  0  0  0  0  0
   16.5950  -14.0384   16.7810 N   0  0  0  0  0  0  0  0  0  0  0  0
   15.6473  -13.5176   17.7551 C   0  0  0  0  0  0  0  0  0  0  0  0
   16.0502  -12.5182   18.3676 O   0  0  0  0  0  0  0  0  0  0  0  0
   14.4031  -14.2424   17.8495 C   0  0  0  0  0  0  0  0  0  0  0  0
   14.2834  -15.4348   18.7258 C   0  0  2  0  0  0  0  0  0  0  0  0
   12.8729  -15.8843   18.4913 N   0  0  0  0  0  0  0  0  0  0  0  0
   14.3587  -15.2048   20.1751 C   0  0  0  0  0  0  0  0  0  0  0  0
   13.7388  -14.2072   20.6637 O   0  0  0  0  0  0  0  0  0  0  0  0
   15.0403  -15.9614   21.1376 N   0  0  0  0  0  0  0  0  0  0  0  0
   15.0967  -15.6893   22.5439 C   0  0  1  0  0  0  0  0  0  0  0  0
   14.2233  -16.4454   23.4431 C   0  0  0  0  0  0  0  0  0  0  0  0
   12.7859  -16.5906   23.0208 C   0  0  0  0  0  0  0  0  0  0  0  0
   11.9723  -17.4118   23.9440 C   0  0  0  0  0  0  0  0  0  0  0  0
   12.4049  -18.0148   24.9454 O   0  0  0  0  0  0  0  0  0  0  0  0
   16.4803  -15.6454   23.0757 C   0  0  0  0  0  0  0  0  0  0  0  0
   16.6674  -15.1806   24.3746 O   0  0  0  0  0  0  0  0  0  0  0  0
   10.5919  -17.5482   23.7059 O   0  0  0  0  0  0  0  0  0  0  0  0
   17.4805  -16.0066   22.4142 O   0  0  0  0  0  0  0  0  0  0  0  0
  2  1  1  1
  2  8  1  0
  3  2  1  0
  4  3  1  0
  5  4  1  0
  6  5  1  0
  7  6  1  0
  8  9  2  0
  8 15  1  0
 10 11  1  0
 11 12  2  0
 13 11  1  0
 14 16  1  0
 14 13  1  6
 15 14  1  0
 16 18  1  0
 17 16  2  0
 18 19  1  0
 19 24  1  0
 19 20  1  1
 20 21  1  0
 22 21  1  0
 22 26  1  0
 23 22  2  0
 24 27  2  0
 24 25  1  0
M  END
$$$$
