KNE.pdb
     RDKit          3D

 27 26  0  0  1  0  0  0  0  0999 V2000
   12.8571  -17.3044   17.1177 N   0  0  0  0  0  0  0  0  0  0  0  0
   13.0090  -16.4664   15.9706 C   0  0  1  0  0  0  0  0  0  0  0  0
   11.8192  -16.5102   15.0632 C   0  0  0  0  0  0  0  0  0  0  0  0
   11.6804  -17.8184   14.3567 C   0  0  0  0  0  0  0  0  0  0  0  0
   10.2476  -18.3104   14.3258 C   0  0  0  0  0  0  0  0  0  0  0  0
   10.1780  -19.6403   13.5840 C   0  0  0  0  0  0  0  0  0  0  0  0
    8.7875  -20.0572   13.5237 N   0  0  0  0  0  0  0  0  0  0  0  0
   13.2379  -15.0384   16.3705 C   0  0  0  0  0  0  0  0  0  0  0  0
   13.4460  -14.1468   15.5233 O   0  0  0  0  0  0  0  0  0  0  0  0
    9.4148  -13.7088   19.4164 N   0  0  0  0  0  0  0  0  0  0  0  0
    9.6205  -14.9379   18.6647 C   0  0  0  0  0  0  0  0  0  0  0  0
    8.6078  -15.6459   18.5670 O   0  0  0  0  0  0  0  0  0  0  0  0
   10.9580  -15.1320   18.1592 C   0  0  0  0  0  0  0  0  0  0  0  0
   12.0139  -14.1152   18.3946 C   0  0  2  0  0  0  0  0  0  0  0  0
   13.2142  -14.7164   17.7281 N   0  0  0  0  0  0  0  0  0  0  0  0
   12.4347  -13.9039   19.7864 C   0  0  0  0  0  0  0  0  0  0  0  0
   11.5963  -13.4082   20.6047 O   0  0  0  0  0  0  0  0  0  0  0  0
   13.6781  -14.1865   20.3674 N   0  0  0  0  0  0  0  0  0  0  0  0
   14.0448  -15.4021   21.0328 C   0  0  1  0  0  0  0  0  0  0  0  0
   12.9914  -16.3523   21.3947 C   0  0  0  0  0  0  0  0  0  0  0  0
   12.5449  -16.3470   22.8320 C   0  0  0  0  0  0  0  0  0  0  0  0
   12.4508  -17.6955   23.4331 C   0  0  0  0  0  0  0  0  0  0  0  0
   12.0280  -17.9474   24.5782 O   0  0  0  0  0  0  0  0  0  0  0  0
   15.1797  -16.1035   20.3854 C   0  0  0  0  0  0  0  0  0  0  0  0
   15.5727  -15.6810   19.1184 O   0  0  0  0  0  0  0  0  0  0  0  0
   12.8630  -18.8121   22.6818 O   0  0  0  0  0  0  0  0  0  0  0  0
   15.7969  -17.0509   20.9239 O   0  0  0  0  0  0  0  0  0  0  0  0
  2  1  1  1
  2  8  1  0
  3  2  1  0
  4  3  1  0
  5  4  1  0
  6  5  1  0
  7  6  1  0
  8  9  2  0
  8 15  1  0
 10 11  1  0
 11 12  2  0
 13 11  1  0
 14 16  1  0
 14 13  1  1
 15 14  1  0
 16 18  1  0
 17 16  2  0
 18 19  1  0
 19 24  1  0
 19 20  1  6
 20 21  1  0
 22 21  1  0
 22 26  1  0
 23 22  2  0
 24 27  2  0
 24 25  1  0
M  END
$$$$
