KNE.pdb
     RDKit          3D

 27 26  0  0  1  0  0  0  0  0999 V2000
    9.0918  -16.9183   18.8820 N   0  0  0  0  0  0  0  0  0  0  0  0
    9.0916  -15.6184   18.2892 C   0  0  1  0  0  0  0  0  0  0  0  0
    7.7913  -15.2881   17.6251 C   0  0  0  0  0  0  0  0  0  0  0  0
    7.7260  -15.7698   16.2132 C   0  0  0  0  0  0  0  0  0  0  0  0
    7.3930  -14.6592   15.2376 C   0  0  0  0  0  0  0  0  0  0  0  0
    8.2761  -14.7812   14.0010 C   0  0  0  0  0  0  0  0  0  0  0  0
    7.8638  -13.7688   13.0439 N   0  0  0  0  0  0  0  0  0  0  0  0
    9.3753  -14.5576   19.3118 C   0  0  0  0  0  0  0  0  0  0  0  0
    9.1545  -13.3516   19.0824 O   0  0  0  0  0  0  0  0  0  0  0  0
    7.1213  -13.2217   23.5098 N   0  0  0  0  0  0  0  0  0  0  0  0
    7.1181  -14.5787   22.9838 C   0  0  0  0  0  0  0  0  0  0  0  0
    6.3906  -15.3619   23.6111 O   0  0  0  0  0  0  0  0  0  0  0  0
    7.9549  -14.7910   21.8275 C   0  0  0  0  0  0  0  0  0  0  0  0
    9.3885  -14.4058   21.8464 C   0  0  2  0  0  0  0  0  0  0  0  0
    9.8993  -14.9467   20.5453 N   0  0  0  0  0  0  0  0  0  0  0  0
   10.2344  -15.0422   22.8654 C   0  0  0  0  0  0  0  0  0  0  0  0
    9.7412  -15.2494   24.0196 O   0  0  0  0  0  0  0  0  0  0  0  0
   11.5609  -15.4762   22.7417 N   0  0  0  0  0  0  0  0  0  0  0  0
   12.2093  -16.4600   23.5581 C   0  0  1  0  0  0  0  0  0  0  0  0
   11.5516  -17.7523   23.7596 C   0  0  0  0  0  0  0  0  0  0  0  0
   10.5775  -17.8408   24.9036 C   0  0  0  0  0  0  0  0  0  0  0  0
   10.7034  -19.0809   25.7005 C   0  0  0  0  0  0  0  0  0  0  0  0
   11.1324  -20.1713   25.2758 O   0  0  0  0  0  0  0  0  0  0  0  0
   13.6403  -16.6505   23.2186 C   0  0  0  0  0  0  0  0  0  0  0  0
   13.9492  -17.2602   22.0057 O   0  0  0  0  0  0  0  0  0  0  0  0
   10.3172  -19.0691   27.0539 O   0  0  0  0  0  0  0  0  0  0  0  0
   14.5763  -16.2887   23.9678 O   0  0  0  0  0  0  0  0  0  0  0  0
  2  1  1  1
  2  8  1  0
  3  2  1  0
  4  3  1  0
  5  4  1  0
  6  5  1  0
  7  6  1  0
  8  9  2  0
  8 15  1  0
 10 11  1  0
 11 12  2  0
 13 11  1  0
 14 16  1  0
 14 13  1  1
 15 14  1  0
 16 18  1  0
 17 16  2  0
 18 19  1  0
 19 24  1  0
 19 20  1  6
 20 21  1  0
 22 21  1  0
 22 26  1  0
 23 22  2  0
 24 27  2  0
 24 25  1  0
M  END
$$$$
