HHR.pdb
     RDKit          3D

 32 33  0  0  1  0  0  0  0  0999 V2000
    8.7472  -12.7409   18.7982 N   0  0  0  0  0  0  0  0  0  0  0  0
    8.2835  -14.0555   19.1705 C   0  0  1  0  0  0  0  0  0  0  0  0
    8.8465  -15.1117   18.2436 C   0  0  0  0  0  0  0  0  0  0  0  0
    8.3327  -14.9277   16.8561 C   0  0  0  0  0  0  0  0  0  0  0  0
    7.1507  -15.3907   16.3234 C   0  0  0  0  0  0  0  0  0  0  0  0
    7.0600  -15.0119   15.0397 N   0  0  0  0  0  0  0  0  0  0  0  0
    8.1850  -14.3143   14.7758 C   0  0  0  0  0  0  0  0  0  0  0  0
    8.9588  -14.2622   15.8775 N   0  0  0  0  0  0  0  0  0  0  0  0
    8.7276  -14.3961   20.5405 C   0  0  0  0  0  0  0  0  0  0  0  0
    9.8241  -13.9595   20.9544 O   0  0  0  0  0  0  0  0  0  0  0  0
    7.9076  -15.2083   21.3593 N   0  0  0  0  0  0  0  0  0  0  0  0
    8.2895  -15.6009   22.6946 C   0  0  1  0  0  0  0  0  0  0  0  0
    7.1918  -16.3058   23.4296 C   0  0  0  0  0  0  0  0  0  0  0  0
    7.6361  -16.8128   24.7612 C   0  0  0  0  0  0  0  0  0  0  0  0
    8.8973  -16.6298   25.2698 C   0  0  0  0  0  0  0  0  0  0  0  0
    8.9361  -17.2129   26.4657 N   0  0  0  0  0  0  0  0  0  0  0  0
    7.7353  -17.7525   26.7135 C   0  0  0  0  0  0  0  0  0  0  0  0
    6.9376  -17.5063   25.6663 N   0  0  0  0  0  0  0  0  0  0  0  0
    9.5160  -16.4281   22.6397 C   0  0  0  0  0  0  0  0  0  0  0  0
    9.5403  -17.4699   21.8981 O   0  0  0  0  0  0  0  0  0  0  0  0
   15.2865  -13.1999   19.1839 N   0  0  0  0  0  0  0  0  0  0  0  0
   14.8231  -14.4305   18.6436 C   0  0  0  0  0  0  0  0  0  0  0  0
   14.8761  -14.6724   17.3736 N   0  0  0  0  0  0  0  0  0  0  0  0
   14.2750  -15.4649   19.4694 N   0  0  0  0  0  0  0  0  0  0  0  0
   14.0040  -15.2654   20.8793 C   0  0  0  0  0  0  0  0  0  0  0  0
   13.3777  -16.4995   21.5011 C   0  0  0  0  0  0  0  0  0  0  0  0
   13.0528  -16.2326   22.9299 C   0  0  0  0  0  0  0  0  0  0  0  0
   11.8439  -16.9930   23.3808 C   0  0  2  0  0  0  0  0  0  0  0  0
   10.6670  -16.1068   23.3804 N   0  0  0  0  0  0  0  0  0  0  0  0
   11.9675  -17.6420   24.6987 C   0  0  0  0  0  0  0  0  0  0  0  0
   11.3413  -17.2709   25.7124 O   0  0  0  0  0  0  0  0  0  0  0  0
   12.8207  -18.7455   24.8919 O   0  0  0  0  0  0  0  0  0  0  0  0
  2  1  1  6
  2  3  1  0
  3  4  1  0
  4  5  2  0
  6  5  1  0
  7  6  1  0
  8  7  2  0
  8  4  1  0
  9  2  1  0
  9 10  2  0
 11  9  1  0
 12 11  1  0
 12 13  1  6
 13 14  1  0
 14 18  1  0
 15 14  2  0
 15 16  1  0
 16 17  1  0
 18 17  2  0
 19 12  1  0
 20 19  2  0
 22 24  1  0
 22 21  1  0
 23 22  2  0
 25 24  1  0
 26 25  1  0
 27 26  1  0
 28 27  1  1
 28 29  1  0
 29 19  1  0
 30 28  1  0
 30 32  1  0
 31 30  2  0
M  END
$$$$
