HHR.pdb
     RDKit          3D

 32 33  0  0  1  0  0  0  0  0999 V2000
    9.2244  -17.6965   18.6723 N   0  0  0  0  0  0  0  0  0  0  0  0
   10.0837  -16.7633   19.3597 C   0  0  1  0  0  0  0  0  0  0  0  0
    9.2781  -15.6464   19.9885 C   0  0  0  0  0  0  0  0  0  0  0  0
    8.7321  -14.7335   18.9437 C   0  0  0  0  0  0  0  0  0  0  0  0
    8.9576  -14.7708   17.5861 C   0  0  0  0  0  0  0  0  0  0  0  0
    8.2824  -13.7748   16.9931 N   0  0  0  0  0  0  0  0  0  0  0  0
    7.6383  -13.1197   17.9820 C   0  0  0  0  0  0  0  0  0  0  0  0
    7.9103  -13.7005   19.1669 N   0  0  0  0  0  0  0  0  0  0  0  0
   10.8187  -17.4390   20.4521 C   0  0  0  0  0  0  0  0  0  0  0  0
   10.2625  -18.3652   21.0822 O   0  0  0  0  0  0  0  0  0  0  0  0
   12.1360  -17.0284   20.7664 N   0  0  0  0  0  0  0  0  0  0  0  0
   12.8798  -17.5841   21.8714 C   0  0  1  0  0  0  0  0  0  0  0  0
   14.3559  -17.3657   21.7468 C   0  0  0  0  0  0  0  0  0  0  0  0
   14.9919  -18.3230   20.7946 C   0  0  0  0  0  0  0  0  0  0  0  0
   14.4504  -19.5357   20.4499 C   0  0  0  0  0  0  0  0  0  0  0  0
   15.2835  -20.1170   19.5897 N   0  0  0  0  0  0  0  0  0  0  0  0
   16.3262  -19.2999   19.3911 C   0  0  0  0  0  0  0  0  0  0  0  0
   16.1463  -18.1983   20.1313 N   0  0  0  0  0  0  0  0  0  0  0  0
   12.3622  -17.0376   23.1462 C   0  0  0  0  0  0  0  0  0  0  0  0
   12.1761  -15.7775   23.2618 O   0  0  0  0  0  0  0  0  0  0  0  0
    5.3370  -17.6136   22.1161 N   0  0  0  0  0  0  0  0  0  0  0  0
    5.5862  -18.5300   23.1741 C   0  0  0  0  0  0  0  0  0  0  0  0
    4.7786  -19.5100   23.4223 N   0  0  0  0  0  0  0  0  0  0  0  0
    6.7378  -18.4204   24.0193 N   0  0  0  0  0  0  0  0  0  0  0  0
    7.2384  -17.1406   24.4805 C   0  0  0  0  0  0  0  0  0  0  0  0
    8.5012  -17.3065   25.3049 C   0  0  0  0  0  0  0  0  0  0  0  0
    9.6816  -17.4047   24.4020 C   0  0  0  0  0  0  0  0  0  0  0  0
   10.9628  -17.5331   25.1670 C   0  0  2  0  0  0  0  0  0  0  0  0
   12.0644  -17.8618   24.2456 N   0  0  0  0  0  0  0  0  0  0  0  0
   10.9388  -18.5110   26.2698 C   0  0  0  0  0  0  0  0  0  0  0  0
   10.1854  -18.4162   27.2602 O   0  0  0  0  0  0  0  0  0  0  0  0
   11.7861  -19.6357   26.2667 O   0  0  0  0  0  0  0  0  0  0  0  0
  2  1  1  1
  2  3  1  0
  3  4  1  0
  4  5  2  0
  6  5  1  0
  7  6  1  0
  8  7  2  0
  8  4  1  0
  9  2  1  0
  9 10  2  0
 11  9  1  0
 12 11  1  0
 12 13  1  6
 13 14  1  0
 14 18  1  0
 15 14  2  0
 15 16  1  0
 16 17  1  0
 18 17  2  0
 19 12  1  0
 20 19  2  0
 22 24  1  0
 22 21  1  0
 23 22  2  0
 25 24  1  0
 26 25  1  0
 27 26  1  0
 28 27  1  6
 28 29  1  0
 29 19  1  0
 30 28  1  0
 30 32  1  0
 31 30  2  0
M  END
$$$$
