HHR.pdb
     RDKit          3D

 32 33  0  0  1  0  0  0  0  0999 V2000
    9.5222  -15.9584   17.4601 N   0  0  0  0  0  0  0  0  0  0  0  0
   10.3678  -15.0483   18.1940 C   0  0  1  0  0  0  0  0  0  0  0  0
    9.8884  -14.8946   19.6218 C   0  0  0  0  0  0  0  0  0  0  0  0
    8.5952  -14.1541   19.6700 C   0  0  0  0  0  0  0  0  0  0  0  0
    7.3553  -14.5896   19.2597 C   0  0  0  0  0  0  0  0  0  0  0  0
    6.4492  -13.6233   19.4719 N   0  0  0  0  0  0  0  0  0  0  0  0
    7.1263  -12.5889   20.0135 C   0  0  0  0  0  0  0  0  0  0  0  0
    8.4293  -12.9095   20.1345 N   0  0  0  0  0  0  0  0  0  0  0  0
   11.7556  -15.5589   18.2527 C   0  0  0  0  0  0  0  0  0  0  0  0
   11.9528  -16.7938   18.2714 O   0  0  0  0  0  0  0  0  0  0  0  0
   12.8355  -14.6451   18.2866 N   0  0  0  0  0  0  0  0  0  0  0  0
   14.2134  -15.0723   18.3319 C   0  0  1  0  0  0  0  0  0  0  0  0
   15.1434  -14.1075   17.6639 C   0  0  0  0  0  0  0  0  0  0  0  0
   16.5355  -14.6369   17.5676 C   0  0  0  0  0  0  0  0  0  0  0  0
   16.8988  -15.7013   16.7816 C   0  0  0  0  0  0  0  0  0  0  0  0
   18.2056  -15.8934   16.9455 N   0  0  0  0  0  0  0  0  0  0  0  0
   18.6636  -14.9790   17.8107 C   0  0  0  0  0  0  0  0  0  0  0  0
   17.6373  -14.2077   18.1923 N   0  0  0  0  0  0  0  0  0  0  0  0
   14.6133  -15.3189   19.7357 C   0  0  0  0  0  0  0  0  0  0  0  0
   14.2290  -14.5124   20.6509 O   0  0  0  0  0  0  0  0  0  0  0  0
   15.7939  -23.0433   23.9695 N   0  0  0  0  0  0  0  0  0  0  0  0
   15.6219  -22.0203   24.9415 C   0  0  0  0  0  0  0  0  0  0  0  0
   15.5055  -22.2979   26.1999 N   0  0  0  0  0  0  0  0  0  0  0  0
   15.5681  -20.6339   24.5847 N   0  0  0  0  0  0  0  0  0  0  0  0
   15.4859  -20.1938   23.2060 C   0  0  0  0  0  0  0  0  0  0  0  0
   15.6741  -18.6926   23.0936 C   0  0  0  0  0  0  0  0  0  0  0  0
   15.5229  -18.2721   21.6729 C   0  0  0  0  0  0  0  0  0  0  0  0
   15.5944  -16.7841   21.5185 C   0  0  2  0  0  0  0  0  0  0  0  0
   15.4080  -16.4188   20.1034 N   0  0  0  0  0  0  0  0  0  0  0  0
   16.8296  -16.1600   22.0266 C   0  0  0  0  0  0  0  0  0  0  0  0
   17.8195  -15.9058   21.3106 O   0  0  0  0  0  0  0  0  0  0  0  0
   16.9642  -15.8066   23.3830 O   0  0  0  0  0  0  0  0  0  0  0  0
  2  1  1  6
  2  3  1  0
  3  4  1  0
  4  5  2  0
  6  5  1  0
  7  6  1  0
  8  7  2  0
  8  4  1  0
  9  2  1  0
  9 10  2  0
 11  9  1  0
 12 11  1  0
 12 13  1  1
 13 14  1  0
 14 18  1  0
 15 14  2  0
 15 16  1  0
 16 17  1  0
 18 17  2  0
 19 12  1  0
 20 19  2  0
 22 24  1  0
 22 21  1  0
 23 22  2  0
 25 24  1  0
 26 25  1  0
 27 26  1  0
 28 27  1  6
 28 29  1  0
 29 19  1  0
 30 28  1  0
 30 32  1  0
 31 30  2  0
M  END
$$$$
