HHR.pdb
     RDKit          3D

 32 33  0  0  1  0  0  0  0  0999 V2000
   13.3713  -17.5671   19.5594 N   0  0  0  0  0  0  0  0  0  0  0  0
   12.0987  -17.9822   20.0978 C   0  0  1  0  0  0  0  0  0  0  0  0
   11.9472  -19.4870   20.0326 C   0  0  0  0  0  0  0  0  0  0  0  0
   11.6998  -19.9347   18.6320 C   0  0  0  0  0  0  0  0  0  0  0  0
   11.0642  -19.2459   17.6236 C   0  0  0  0  0  0  0  0  0  0  0  0
   11.0466  -19.9963   16.5117 N   0  0  0  0  0  0  0  0  0  0  0  0
   11.6708  -21.1500   16.8299 C   0  0  0  0  0  0  0  0  0  0  0  0
   12.0680  -21.1142   18.1168 N   0  0  0  0  0  0  0  0  0  0  0  0
   11.9833  -17.5938   21.5211 C   0  0  0  0  0  0  0  0  0  0  0  0
   13.0168  -17.5248   22.2221 O   0  0  0  0  0  0  0  0  0  0  0  0
   10.7093  -17.3069   22.0662 N   0  0  0  0  0  0  0  0  0  0  0  0
   10.5279  -16.8741   23.4310 C   0  0  1  0  0  0  0  0  0  0  0  0
    9.2308  -16.1578   23.6463 C   0  0  0  0  0  0  0  0  0  0  0  0
    8.0533  -16.9898   23.2604 C   0  0  0  0  0  0  0  0  0  0  0  0
    7.6865  -17.2450   21.9631 C   0  0  0  0  0  0  0  0  0  0  0  0
    6.5987  -18.0113   21.9972 N   0  0  0  0  0  0  0  0  0  0  0  0
    6.2799  -18.2385   23.2783 C   0  0  0  0  0  0  0  0  0  0  0  0
    7.1738  -17.6109   24.0534 N   0  0  0  0  0  0  0  0  0  0  0  0
   10.6589  -18.0327   24.3432 C   0  0  0  0  0  0  0  0  0  0  0  0
   10.4817  -19.2151   23.8889 O   0  0  0  0  0  0  0  0  0  0  0  0
   12.1765  -20.4246   31.7904 N   0  0  0  0  0  0  0  0  0  0  0  0
   12.9838  -21.4437   31.2151 C   0  0  0  0  0  0  0  0  0  0  0  0
   13.6229  -22.2944   31.9513 N   0  0  0  0  0  0  0  0  0  0  0  0
   13.1341  -21.5849   29.7974 N   0  0  0  0  0  0  0  0  0  0  0  0
   13.1129  -20.4458   28.9012 C   0  0  0  0  0  0  0  0  0  0  0  0
   11.7352  -19.8130   28.8451 C   0  0  0  0  0  0  0  0  0  0  0  0
   11.7369  -18.6909   27.8658 C   0  0  0  0  0  0  0  0  0  0  0  0
   10.9803  -19.0338   26.6196 C   0  0  2  0  0  0  0  0  0  0  0  0
   10.9747  -17.8792   25.7046 N   0  0  0  0  0  0  0  0  0  0  0  0
    9.5967  -19.4955   26.8337 C   0  0  0  0  0  0  0  0  0  0  0  0
    9.3061  -20.6342   27.2533 O   0  0  0  0  0  0  0  0  0  0  0  0
    8.4978  -18.6553   26.5702 O   0  0  0  0  0  0  0  0  0  0  0  0
  2  1  1  1
  2  3  1  0
  3  4  1  0
  4  5  2  0
  6  5  1  0
  7  6  1  0
  8  7  2  0
  8  4  1  0
  9  2  1  0
  9 10  2  0
 11  9  1  0
 12 11  1  0
 12 13  1  6
 13 14  1  0
 14 18  1  0
 15 14  2  0
 15 16  1  0
 16 17  1  0
 18 17  2  0
 19 12  1  0
 20 19  2  0
 22 24  1  0
 22 21  1  0
 23 22  2  0
 25 24  1  0
 26 25  1  0
 27 26  1  0
 28 27  1  1
 28 29  1  0
 29 19  1  0
 30 28  1  0
 30 32  1  0
 31 30  2  0
M  END
$$$$
