HHR.pdb
     RDKit          3D

 32 33  0  0  1  0  0  0  0  0999 V2000
    9.0965  -15.4958   13.3889 N   0  0  0  0  0  0  0  0  0  0  0  0
    9.9359  -16.2839   14.2585 C   0  0  1  0  0  0  0  0  0  0  0  0
   11.1666  -16.7743   13.5258 C   0  0  0  0  0  0  0  0  0  0  0  0
   10.9328  -18.1265   12.9427 C   0  0  0  0  0  0  0  0  0  0  0  0
   10.0724  -19.1035   13.3905 C   0  0  0  0  0  0  0  0  0  0  0  0
   10.1570  -20.1756   12.5886 N   0  0  0  0  0  0  0  0  0  0  0  0
   11.0694  -19.8642   11.6439 C   0  0  0  0  0  0  0  0  0  0  0  0
   11.5413  -18.6204   11.8574 N   0  0  0  0  0  0  0  0  0  0  0  0
   10.4048  -15.4738   15.4048 C   0  0  0  0  0  0  0  0  0  0  0  0
   11.1148  -14.4664   15.1921 O   0  0  0  0  0  0  0  0  0  0  0  0
   10.0440  -15.8499   16.7204 N   0  0  0  0  0  0  0  0  0  0  0  0
   10.4235  -15.0792   17.8802 C   0  0  1  0  0  0  0  0  0  0  0  0
    9.4847  -15.2620   19.0322 C   0  0  0  0  0  0  0  0  0  0  0  0
    8.2735  -14.3973   18.9187 C   0  0  0  0  0  0  0  0  0  0  0  0
    8.1130  -13.4232   17.9658 C   0  0  0  0  0  0  0  0  0  0  0  0
    6.9252  -12.8571   18.1669 N   0  0  0  0  0  0  0  0  0  0  0  0
    6.3443  -13.4520   19.2173 C   0  0  0  0  0  0  0  0  0  0  0  0
    7.1730  -14.3977   19.6783 N   0  0  0  0  0  0  0  0  0  0  0  0
   11.8148  -15.4083   18.2643 C   0  0  0  0  0  0  0  0  0  0  0  0
   12.2774  -16.5748   18.0168 O   0  0  0  0  0  0  0  0  0  0  0  0
   20.2051  -12.4782   17.7188 N   0  0  0  0  0  0  0  0  0  0  0  0
   19.2992  -13.3233   17.0216 C   0  0  0  0  0  0  0  0  0  0  0  0
   19.7200  -14.2781   16.2563 N   0  0  0  0  0  0  0  0  0  0  0  0
   17.8791  -13.1662   17.1263 N   0  0  0  0  0  0  0  0  0  0  0  0
   17.2294  -12.8304   18.3778 C   0  0  0  0  0  0  0  0  0  0  0  0
   16.3889  -13.9847   18.8906 C   0  0  0  0  0  0  0  0  0  0  0  0
   14.9468  -13.7039   18.6462 C   0  0  0  0  0  0  0  0  0  0  0  0
   14.0661  -14.7912   19.1800 C   0  0  2  0  0  0  0  0  0  0  0  0
   12.6551  -14.4756   18.8974 N   0  0  0  0  0  0  0  0  0  0  0  0
   14.2252  -15.0774   20.6174 C   0  0  0  0  0  0  0  0  0  0  0  0
   13.3721  -14.7814   21.4788 O   0  0  0  0  0  0  0  0  0  0  0  0
   15.3783  -15.7177   21.1110 O   0  0  0  0  0  0  0  0  0  0  0  0
  2  1  1  6
  2  3  1  0
  3  4  1  0
  4  5  2  0
  6  5  1  0
  7  6  1  0
  8  7  2  0
  8  4  1  0
  9  2  1  0
  9 10  2  0
 11  9  1  0
 12 11  1  0
 12 13  1  1
 13 14  1  0
 14 18  1  0
 15 14  2  0
 15 16  1  0
 16 17  1  0
 18 17  2  0
 19 12  1  0
 20 19  2  0
 22 24  1  0
 22 21  1  0
 23 22  2  0
 25 24  1  0
 26 25  1  0
 27 26  1  0
 28 27  1  1
 28 29  1  0
 29 19  1  0
 30 28  1  0
 30 32  1  0
 31 30  2  0
M  END
$$$$
