HHR.pdb
     RDKit          3D

 32 33  0  0  1  0  0  0  0  0999 V2000
    8.0682  -17.2883   17.5803 N   0  0  0  0  0  0  0  0  0  0  0  0
    8.9520  -16.7164   18.5671 C   0  0  1  0  0  0  0  0  0  0  0  0
    8.2022  -15.7760   19.4864 C   0  0  0  0  0  0  0  0  0  0  0  0
    8.0652  -14.4266   18.8671 C   0  0  0  0  0  0  0  0  0  0  0  0
    8.5310  -14.0071   17.6413 C   0  0  0  0  0  0  0  0  0  0  0  0
    8.2016  -12.7202   17.4543 N   0  0  0  0  0  0  0  0  0  0  0  0
    7.5319  -12.3412   18.5632 C   0  0  0  0  0  0  0  0  0  0  0  0
    7.4481  -13.3760   19.4219 N   0  0  0  0  0  0  0  0  0  0  0  0
    9.5421  -17.7763   19.4148 C   0  0  0  0  0  0  0  0  0  0  0  0
    8.8128  -18.7027   19.8322 O   0  0  0  0  0  0  0  0  0  0  0  0
   10.9185  -17.7260   19.7395 N   0  0  0  0  0  0  0  0  0  0  0  0
   11.5725  -18.7552   20.5116 C   0  0  1  0  0  0  0  0  0  0  0  0
   13.0657  -18.6883   20.4228 C   0  0  0  0  0  0  0  0  0  0  0  0
   13.5822  -19.2435   19.1373 C   0  0  0  0  0  0  0  0  0  0  0  0
   13.1376  -20.4124   18.5729 C   0  0  0  0  0  0  0  0  0  0  0  0
   13.8168  -20.5961   17.4431 N   0  0  0  0  0  0  0  0  0  0  0  0
   14.6702  -19.5749   17.2904 C   0  0  0  0  0  0  0  0  0  0  0  0
   14.5254  -18.7447   18.3313 N   0  0  0  0  0  0  0  0  0  0  0  0
   11.1151  -18.6902   21.9180 C   0  0  0  0  0  0  0  0  0  0  0  0
   10.9836  -17.5515   22.4855 O   0  0  0  0  0  0  0  0  0  0  0  0
    5.5833  -23.7950   26.6547 N   0  0  0  0  0  0  0  0  0  0  0  0
    6.1038  -22.8134   27.5417 C   0  0  0  0  0  0  0  0  0  0  0  0
    5.6740  -22.7068   28.7575 N   0  0  0  0  0  0  0  0  0  0  0  0
    7.1263  -21.8932   27.1417 N   0  0  0  0  0  0  0  0  0  0  0  0
    7.6166  -21.8278   25.7792 C   0  0  0  0  0  0  0  0  0  0  0  0
    8.7451  -20.8225   25.6462 C   0  0  0  0  0  0  0  0  0  0  0  0
    9.2065  -20.7690   24.2311 C   0  0  0  0  0  0  0  0  0  0  0  0
   10.2905  -19.7546   24.0334 C   0  0  2  0  0  0  0  0  0  0  0  0
   10.8164  -19.8463   22.6602 N   0  0  0  0  0  0  0  0  0  0  0  0
   11.4075  -19.8363   24.9919 C   0  0  0  0  0  0  0  0  0  0  0  0
   12.4834  -20.4205   24.7500 O   0  0  0  0  0  0  0  0  0  0  0  0
   11.3204  -19.2441   26.2666 O   0  0  0  0  0  0  0  0  0  0  0  0
  2  1  1  6
  2  3  1  0
  3  4  1  0
  4  5  2  0
  6  5  1  0
  7  6  1  0
  8  7  2  0
  8  4  1  0
  9  2  1  0
  9 10  2  0
 11  9  1  0
 12 11  1  0
 12 13  1  1
 13 14  1  0
 14 18  1  0
 15 14  2  0
 15 16  1  0
 16 17  1  0
 18 17  2  0
 19 12  1  0
 20 19  2  0
 22 24  1  0
 22 21  1  0
 23 22  2  0
 25 24  1  0
 26 25  1  0
 27 26  1  0
 28 27  1  1
 28 29  1  0
 29 19  1  0
 30 28  1  0
 30 32  1  0
 31 30  2  0
M  END
$$$$
