HHR.pdb
     RDKit          3D

 32 33  0  0  1  0  0  0  0  0999 V2000
   10.7328  -18.1151   15.0019 N   0  0  0  0  0  0  0  0  0  0  0  0
    9.6237  -18.2393   15.9165 C   0  0  1  0  0  0  0  0  0  0  0  0
    9.5484  -19.6380   16.4907 C   0  0  0  0  0  0  0  0  0  0  0  0
    9.1643  -20.6228   15.4392 C   0  0  0  0  0  0  0  0  0  0  0  0
    9.9491  -21.5982   14.8665 C   0  0  0  0  0  0  0  0  0  0  0  0
    9.2294  -22.2761   13.9598 N   0  0  0  0  0  0  0  0  0  0  0  0
    7.9988  -21.7217   13.9697 C   0  0  0  0  0  0  0  0  0  0  0  0
    7.9575  -20.7179   14.8674 N   0  0  0  0  0  0  0  0  0  0  0  0
    9.7810  -17.3081   17.0559 C   0  0  0  0  0  0  0  0  0  0  0  0
   10.9042  -17.1803   17.5909 O   0  0  0  0  0  0  0  0  0  0  0  0
    8.6616  -16.5784   17.5216 N   0  0  0  0  0  0  0  0  0  0  0  0
    8.7393  -15.6643   18.6359 C   0  0  1  0  0  0  0  0  0  0  0  0
    7.4888  -14.8609   18.8170 C   0  0  0  0  0  0  0  0  0  0  0  0
    7.6181  -13.8492   19.9066 C   0  0  0  0  0  0  0  0  0  0  0  0
    8.1950  -12.6151   19.7430 C   0  0  0  0  0  0  0  0  0  0  0  0
    8.1392  -11.9876   20.9155 N   0  0  0  0  0  0  0  0  0  0  0  0
    7.5446  -12.7971   21.8019 C   0  0  0  0  0  0  0  0  0  0  0  0
    7.2249  -13.9401   21.1815 N   0  0  0  0  0  0  0  0  0  0  0  0
    9.0822  -16.4086   19.8687 C   0  0  0  0  0  0  0  0  0  0  0  0
    8.6228  -17.5900   20.0395 O   0  0  0  0  0  0  0  0  0  0  0  0
   13.3194  -22.3779   20.4102 N   0  0  0  0  0  0  0  0  0  0  0  0
   12.1913  -21.6187   20.8251 C   0  0  0  0  0  0  0  0  0  0  0  0
   11.1687  -22.1804   21.3847 N   0  0  0  0  0  0  0  0  0  0  0  0
   12.1238  -20.1987   20.6481 N   0  0  0  0  0  0  0  0  0  0  0  0
   12.7095  -19.2732   21.5977 C   0  0  0  0  0  0  0  0  0  0  0  0
   11.6421  -18.5809   22.4241 C   0  0  0  0  0  0  0  0  0  0  0  0
   11.5893  -17.1357   22.0679 C   0  0  0  0  0  0  0  0  0  0  0  0
   10.1916  -16.5993   22.1093 C   0  0  2  0  0  0  0  0  0  0  0  0
    9.9033  -15.8588   20.8688 N   0  0  0  0  0  0  0  0  0  0  0  0
    9.8818  -15.7468   23.2715 C   0  0  0  0  0  0  0  0  0  0  0  0
   10.0217  -16.1161   24.4553 O   0  0  0  0  0  0  0  0  0  0  0  0
    9.3988  -14.4344   23.1061 O   0  0  0  0  0  0  0  0  0  0  0  0
  2  1  1  6
  2  3  1  0
  3  4  1  0
  4  5  2  0
  6  5  1  0
  7  6  1  0
  8  7  2  0
  8  4  1  0
  9  2  1  0
  9 10  2  0
 11  9  1  0
 12 11  1  0
 12 13  1  1
 13 14  1  0
 14 18  1  0
 15 14  2  0
 15 16  1  0
 16 17  1  0
 18 17  2  0
 19 12  1  0
 20 19  2  0
 22 24  1  0
 22 21  1  0
 23 22  2  0
 25 24  1  0
 26 25  1  0
 27 26  1  0
 28 27  1  6
 28 29  1  0
 29 19  1  0
 30 28  1  0
 30 32  1  0
 31 30  2  0
M  END
$$$$
