HHR.pdb
     RDKit          3D

 32 33  0  0  1  0  0  0  0  0999 V2000
   14.0534  -18.9013   13.5055 N   0  0  0  0  0  0  0  0  0  0  0  0
   12.8780  -18.2226   13.9952 C   0  0  1  0  0  0  0  0  0  0  0  0
   11.6383  -18.6869   13.2608 C   0  0  0  0  0  0  0  0  0  0  0  0
   11.6808  -18.2669   11.8308 C   0  0  0  0  0  0  0  0  0  0  0  0
   12.7242  -17.6779   11.1528 C   0  0  0  0  0  0  0  0  0  0  0  0
   12.3623  -17.4565    9.8801 N   0  0  0  0  0  0  0  0  0  0  0  0
   11.0952  -17.9078    9.7684 C   0  0  0  0  0  0  0  0  0  0  0  0
   10.6799  -18.4002   10.9517 N   0  0  0  0  0  0  0  0  0  0  0  0
   12.6686  -18.5133   15.4311 C   0  0  0  0  0  0  0  0  0  0  0  0
   11.6467  -18.0725   16.0018 O   0  0  0  0  0  0  0  0  0  0  0  0
   13.6248  -19.2834   16.1348 N   0  0  0  0  0  0  0  0  0  0  0  0
   13.4978  -19.5834   17.5408 C   0  0  1  0  0  0  0  0  0  0  0  0
   13.4411  -21.0537   17.8187 C   0  0  0  0  0  0  0  0  0  0  0  0
   12.1344  -21.6554   17.4212 C   0  0  0  0  0  0  0  0  0  0  0  0
   10.9190  -21.2337   17.8982 C   0  0  0  0  0  0  0  0  0  0  0  0
    9.9817  -21.9925   17.3348 N   0  0  0  0  0  0  0  0  0  0  0  0
   10.5808  -22.8730   16.5222 C   0  0  0  0  0  0  0  0  0  0  0  0
   11.9028  -22.6653   16.5758 N   0  0  0  0  0  0  0  0  0  0  0  0
   14.5992  -18.9377   18.2901 C   0  0  0  0  0  0  0  0  0  0  0  0
   15.6520  -18.5657   17.6662 O   0  0  0  0  0  0  0  0  0  0  0  0
   16.1519  -25.0657   20.3514 N   0  0  0  0  0  0  0  0  0  0  0  0
   16.8725  -24.8758   21.5620 C   0  0  0  0  0  0  0  0  0  0  0  0
   17.7849  -25.7107   21.9423 N   0  0  0  0  0  0  0  0  0  0  0  0
   16.6304  -23.7568   22.4233 N   0  0  0  0  0  0  0  0  0  0  0  0
   15.6460  -22.7399   22.1102 C   0  0  0  0  0  0  0  0  0  0  0  0
   16.1754  -21.7567   21.0833 C   0  0  0  0  0  0  0  0  0  0  0  0
   15.0592  -20.9128   20.5733 C   0  0  0  0  0  0  0  0  0  0  0  0
   15.3975  -19.4543   20.6103 C   0  0  2  0  0  0  0  0  0  0  0  0
   14.5295  -18.7159   19.6767 N   0  0  0  0  0  0  0  0  0  0  0  0
   16.8077  -19.1308   20.3275 C   0  0  0  0  0  0  0  0  0  0  0  0
   17.7123  -19.9878   20.2593 O   0  0  0  0  0  0  0  0  0  0  0  0
   17.2230  -17.8025   20.1127 O   0  0  0  0  0  0  0  0  0  0  0  0
  2  1  1  6
  2  3  1  0
  3  4  1  0
  4  5  2  0
  6  5  1  0
  7  6  1  0
  8  7  2  0
  8  4  1  0
  9  2  1  0
  9 10  2  0
 11  9  1  0
 12 11  1  0
 12 13  1  6
 13 14  1  0
 14 18  1  0
 15 14  2  0
 15 16  1  0
 16 17  1  0
 18 17  2  0
 19 12  1  0
 20 19  2  0
 22 24  1  0
 22 21  1  0
 23 22  2  0
 25 24  1  0
 26 25  1  0
 27 26  1  0
 28 27  1  6
 28 29  1  0
 29 19  1  0
 30 28  1  0
 30 32  1  0
 31 30  2  0
M  END
$$$$
