HHR.pdb
     RDKit          3D

 32 33  0  0  1  0  0  0  0  0999 V2000
   11.2401  -17.5531   17.6822 N   0  0  0  0  0  0  0  0  0  0  0  0
   10.1125  -17.8010   18.5477 C   0  0  1  0  0  0  0  0  0  0  0  0
   10.1692  -19.1994   19.1248 C   0  0  0  0  0  0  0  0  0  0  0  0
    9.8830  -20.2184   18.0746 C   0  0  0  0  0  0  0  0  0  0  0  0
    9.5826  -20.0046   16.7482 C   0  0  0  0  0  0  0  0  0  0  0  0
    9.3924  -21.1836   16.1371 N   0  0  0  0  0  0  0  0  0  0  0  0
    9.5746  -22.1285   17.0837 C   0  0  0  0  0  0  0  0  0  0  0  0
    9.8726  -21.5441   18.2606 N   0  0  0  0  0  0  0  0  0  0  0  0
   10.1139  -16.8582   19.6884 C   0  0  0  0  0  0  0  0  0  0  0  0
   11.1905  -16.3309   20.0449 O   0  0  0  0  0  0  0  0  0  0  0  0
    8.9008  -16.5683   20.3568 N   0  0  0  0  0  0  0  0  0  0  0  0
    8.8039  -15.5653   21.3901 C   0  0  1  0  0  0  0  0  0  0  0  0
    7.7239  -14.5621   21.1270 C   0  0  0  0  0  0  0  0  0  0  0  0
    7.8542  -13.9291   19.7817 C   0  0  0  0  0  0  0  0  0  0  0  0
    8.4364  -12.7061   19.5625 C   0  0  0  0  0  0  0  0  0  0  0  0
    8.3744  -12.4608   18.2557 N   0  0  0  0  0  0  0  0  0  0  0  0
    7.7703  -13.4963   17.6579 C   0  0  0  0  0  0  0  0  0  0  0  0
    7.4512  -14.3976   18.5958 N   0  0  0  0  0  0  0  0  0  0  0  0
    8.6195  -16.2200   22.7050 C   0  0  0  0  0  0  0  0  0  0  0  0
    7.6309  -17.0123   22.8808 O   0  0  0  0  0  0  0  0  0  0  0  0
   14.1606  -22.1059   22.6654 N   0  0  0  0  0  0  0  0  0  0  0  0
   13.1880  -22.4126   23.6560 C   0  0  0  0  0  0  0  0  0  0  0  0
   12.9530  -23.6330   24.0159 N   0  0  0  0  0  0  0  0  0  0  0  0
   12.4186  -21.3944   24.3068 N   0  0  0  0  0  0  0  0  0  0  0  0
   11.7850  -20.3171   23.5726 C   0  0  0  0  0  0  0  0  0  0  0  0
   11.1926  -19.2829   24.5113 C   0  0  0  0  0  0  0  0  0  0  0  0
   10.5912  -18.1728   23.7212 C   0  0  0  0  0  0  0  0  0  0  0  0
    9.9913  -17.1199   24.6012 C   0  0  2  0  0  0  0  0  0  0  0  0
    9.5006  -16.0007   23.7784 N   0  0  0  0  0  0  0  0  0  0  0  0
   10.8834  -16.5996   25.6533 C   0  0  0  0  0  0  0  0  0  0  0  0
   11.7092  -15.6828   25.4669 O   0  0  0  0  0  0  0  0  0  0  0  0
   10.8523  -17.1216   26.9607 O   0  0  0  0  0  0  0  0  0  0  0  0
  2  1  1  6
  2  3  1  0
  3  4  1  0
  4  5  2  0
  6  5  1  0
  7  6  1  0
  8  7  2  0
  8  4  1  0
  9  2  1  0
  9 10  2  0
 11  9  1  0
 12 11  1  0
 12 13  1  6
 13 14  1  0
 14 18  1  0
 15 14  2  0
 15 16  1  0
 16 17  1  0
 18 17  2  0
 19 12  1  0
 20 19  2  0
 22 24  1  0
 22 21  1  0
 23 22  2  0
 25 24  1  0
 26 25  1  0
 27 26  1  0
 28 27  1  6
 28 29  1  0
 29 19  1  0
 30 28  1  0
 30 32  1  0
 31 30  2  0
M  END
$$$$
