HHR.pdb
     RDKit          3D

 32 33  0  0  1  0  0  0  0  0999 V2000
    9.5596  -17.6797   18.0010 N   0  0  0  0  0  0  0  0  0  0  0  0
    9.7118  -16.7545   19.0977 C   0  0  1  0  0  0  0  0  0  0  0  0
    8.4374  -15.9700   19.3262 C   0  0  0  0  0  0  0  0  0  0  0  0
    8.1131  -15.1282   18.1390 C   0  0  0  0  0  0  0  0  0  0  0  0
    7.0816  -15.2921   17.2421 C   0  0  0  0  0  0  0  0  0  0  0  0
    7.1358  -14.3229   16.3162 N   0  0  0  0  0  0  0  0  0  0  0  0
    8.2002  -13.5580   16.6382 C   0  0  0  0  0  0  0  0  0  0  0  0
    8.7946  -14.0454   17.7447 N   0  0  0  0  0  0  0  0  0  0  0  0
   10.0087  -17.4791   20.3535 C   0  0  0  0  0  0  0  0  0  0  0  0
    9.0869  -18.0856   20.9423 O   0  0  0  0  0  0  0  0  0  0  0  0
   11.3271  -17.4751   20.8676 N   0  0  0  0  0  0  0  0  0  0  0  0
   11.6901  -18.1692   22.0798 C   0  0  1  0  0  0  0  0  0  0  0  0
   13.0688  -18.7508   22.0260 C   0  0  0  0  0  0  0  0  0  0  0  0
   13.1385  -19.9641   21.1596 C   0  0  0  0  0  0  0  0  0  0  0  0
   12.0389  -20.6588   20.7227 C   0  0  0  0  0  0  0  0  0  0  0  0
   12.4748  -21.6747   19.9813 N   0  0  0  0  0  0  0  0  0  0  0  0
   13.8132  -21.6303   19.9459 C   0  0  0  0  0  0  0  0  0  0  0  0
   14.2199  -20.5795   20.6698 N   0  0  0  0  0  0  0  0  0  0  0  0
   11.5351  -17.2621   23.2395 C   0  0  0  0  0  0  0  0  0  0  0  0
   11.8156  -16.0210   23.1101 O   0  0  0  0  0  0  0  0  0  0  0  0
    7.6978  -12.1773   22.2736 N   0  0  0  0  0  0  0  0  0  0  0  0
    7.3852  -13.5404   22.0179 C   0  0  0  0  0  0  0  0  0  0  0  0
    6.4496  -13.8741   21.1888 N   0  0  0  0  0  0  0  0  0  0  0  0
    8.0839  -14.6138   22.6597 N   0  0  0  0  0  0  0  0  0  0  0  0
    7.9067  -14.9194   24.0656 C   0  0  0  0  0  0  0  0  0  0  0  0
    8.7462  -16.1128   24.4811 C   0  0  0  0  0  0  0  0  0  0  0  0
    9.9991  -15.6428   25.1350 C   0  0  0  0  0  0  0  0  0  0  0  0
   10.8487  -16.7838   25.6032 C   0  0  2  0  0  0  0  0  0  0  0  0
   11.0860  -17.7198   24.4906 N   0  0  0  0  0  0  0  0  0  0  0  0
   10.3189  -17.5252   26.7621 C   0  0  0  0  0  0  0  0  0  0  0  0
    9.8016  -18.6578   26.6792 O   0  0  0  0  0  0  0  0  0  0  0  0
   10.3688  -16.9826   28.0606 O   0  0  0  0  0  0  0  0  0  0  0  0
  2  1  1  6
  2  3  1  0
  3  4  1  0
  4  5  2  0
  6  5  1  0
  7  6  1  0
  8  7  2  0
  8  4  1  0
  9  2  1  0
  9 10  2  0
 11  9  1  0
 12 11  1  0
 12 13  1  6
 13 14  1  0
 14 18  1  0
 15 14  2  0
 15 16  1  0
 16 17  1  0
 18 17  2  0
 19 12  1  0
 20 19  2  0
 22 24  1  0
 22 21  1  0
 23 22  2  0
 25 24  1  0
 26 25  1  0
 27 26  1  0
 28 27  1  6
 28 29  1  0
 29 19  1  0
 30 28  1  0
 30 32  1  0
 31 30  2  0
M  END
$$$$
