HHR.pdb
     RDKit          3D

 32 33  0  0  1  0  0  0  0  0999 V2000
    9.5606  -15.7041   15.9136 N   0  0  0  0  0  0  0  0  0  0  0  0
    9.4263  -16.7345   16.9147 C   0  0  1  0  0  0  0  0  0  0  0  0
   10.5715  -17.7213   16.8341 C   0  0  0  0  0  0  0  0  0  0  0  0
   10.4322  -18.5985   15.6365 C   0  0  0  0  0  0  0  0  0  0  0  0
   10.1181  -19.9384   15.6014 C   0  0  0  0  0  0  0  0  0  0  0  0
   10.0909  -20.3581   14.3276 N   0  0  0  0  0  0  0  0  0  0  0  0
   10.3879  -19.2794   13.5726 C   0  0  0  0  0  0  0  0  0  0  0  0
   10.5953  -18.2102   14.3657 N   0  0  0  0  0  0  0  0  0  0  0  0
    9.4512  -16.1477   18.2730 C   0  0  0  0  0  0  0  0  0  0  0  0
   10.3217  -15.2953   18.5553 O   0  0  0  0  0  0  0  0  0  0  0  0
    8.4924  -16.5585   19.2293 N   0  0  0  0  0  0  0  0  0  0  0  0
    8.4345  -16.0018   20.5597 C   0  0  1  0  0  0  0  0  0  0  0  0
    7.0579  -16.0425   21.1474 C   0  0  0  0  0  0  0  0  0  0  0  0
    7.0178  -15.4941   22.5349 C   0  0  0  0  0  0  0  0  0  0  0  0
    7.2076  -14.1704   22.8423 C   0  0  0  0  0  0  0  0  0  0  0  0
    7.1066  -14.0470   24.1637 N   0  0  0  0  0  0  0  0  0  0  0  0
    6.8598  -15.2560   24.6850 C   0  0  0  0  0  0  0  0  0  0  0  0
    6.8054  -16.1442   23.6840 N   0  0  0  0  0  0  0  0  0  0  0  0
    9.4112  -16.6919   21.4322 C   0  0  0  0  0  0  0  0  0  0  0  0
    9.7084  -17.9143   21.2011 O   0  0  0  0  0  0  0  0  0  0  0  0
    9.0514  -13.2334   28.6062 N   0  0  0  0  0  0  0  0  0  0  0  0
    9.9416  -14.2937   28.9293 C   0  0  0  0  0  0  0  0  0  0  0  0
   10.4686  -14.3972   30.1065 N   0  0  0  0  0  0  0  0  0  0  0  0
   10.3028  -15.3002   27.9760 N   0  0  0  0  0  0  0  0  0  0  0  0
   10.7929  -14.9701   26.6524 C   0  0  0  0  0  0  0  0  0  0  0  0
   11.1101  -16.2202   25.8535 C   0  0  0  0  0  0  0  0  0  0  0  0
   11.4780  -15.8461   24.4596 C   0  0  0  0  0  0  0  0  0  0  0  0
   10.8919  -16.7880   23.4535 C   0  0  2  0  0  0  0  0  0  0  0  0
   10.0306  -16.0460   22.5165 N   0  0  0  0  0  0  0  0  0  0  0  0
   10.1369  -17.9201   24.0206 C   0  0  0  0  0  0  0  0  0  0  0  0
    8.8936  -17.9367   24.1267 O   0  0  0  0  0  0  0  0  0  0  0  0
   10.7937  -19.0757   24.4856 O   0  0  0  0  0  0  0  0  0  0  0  0
  2  1  1  6
  2  3  1  0
  3  4  1  0
  4  5  2  0
  6  5  1  0
  7  6  1  0
  8  7  2  0
  8  4  1  0
  9  2  1  0
  9 10  2  0
 11  9  1  0
 12 11  1  0
 12 13  1  1
 13 14  1  0
 14 18  1  0
 15 14  2  0
 15 16  1  0
 16 17  1  0
 18 17  2  0
 19 12  1  0
 20 19  2  0
 22 24  1  0
 22 21  1  0
 23 22  2  0
 25 24  1  0
 26 25  1  0
 27 26  1  0
 28 27  1  1
 28 29  1  0
 29 19  1  0
 30 28  1  0
 30 32  1  0
 31 30  2  0
M  END
$$$$
