PYG.pdb
     RDKit          3D

 24 25  0  0  1  0  0  0  0  0999 V2000
   27.6713  -20.2914  -16.8207 N   0  0  0  0  0  0  0  0  0  0  0  0
   28.7554  -20.3477  -17.7864 C   0  0  0  0  0  0  0  0  0  0  0  0
   29.7072  -21.3709  -17.1924 C   0  0  0  0  0  0  0  0  0  0  0  0
   28.8988  -22.1051  -16.1249 C   0  0  0  0  0  0  0  0  0  0  0  0
   27.4978  -21.6624  -16.4574 C   0  0  1  0  0  0  0  0  0  0  0  0
   26.6110  -21.8736  -15.3105 C   0  0  0  0  0  0  0  0  0  0  0  0
   26.3001  -23.0558  -15.0119 O   0  0  0  0  0  0  0  0  0  0  0  0
   22.6271  -21.1754   -7.4740 O   0  0  0  0  0  0  0  0  0  0  0  0
   23.3583  -20.9455   -8.6436 C   0  0  0  0  0  0  0  0  0  0  0  0
   24.6676  -21.3651   -8.7497 C   0  0  0  0  0  0  0  0  0  0  0  0
   25.4043  -21.1410   -9.9101 C   0  0  0  0  0  0  0  0  0  0  0  0
   24.8579  -20.4924  -10.9981 C   0  0  0  0  0  0  0  0  0  0  0  0
   25.6832  -20.2764  -12.2141 C   0  0  0  0  0  0  0  0  0  0  0  0
   25.1883  -21.1022  -13.3801 C   0  0  2  0  0  0  0  0  0  0  0  0
   26.0688  -20.8384  -14.5005 N   0  0  0  0  0  0  0  0  0  0  0  0
   23.8086  -20.7701  -13.7430 C   0  0  0  0  0  0  0  0  0  0  0  0
   23.5033  -19.6014  -14.0641 O   0  0  0  0  0  0  0  0  0  0  0  0
   23.5484  -20.0750  -10.8864 C   0  0  0  0  0  0  0  0  0  0  0  0
   22.8114  -20.2977   -9.7293 C   0  0  0  0  0  0  0  0  0  0  0  0
   22.7490  -21.7363  -13.7532 N   0  0  0  0  0  0  0  0  0  0  0  0
   21.4036  -21.4099  -14.1065 C   0  0  0  0  0  0  0  0  0  0  0  0
   20.5058  -21.3110  -12.9299 C   0  0  0  0  0  0  0  0  0  0  0  0
   20.8628  -21.8038  -11.8325 O   0  0  0  0  0  0  0  0  0  0  0  0
   19.2700  -20.6895  -12.9859 O   0  0  0  0  0  0  0  0  0  0  0  0
  1  5  1  0
  1  2  1  0
  2  3  1  0
  4  3  1  0
  5  4  1  0
  6  7  2  0
  5  6  1  1
  8  9  1  0
  9 19  2  0
  9 10  1  0
 10 11  2  0
 11 12  1  0
 12 13  1  0
 14 13  1  1
 14 15  1  0
 15  6  1  0
 16 14  1  0
 16 20  1  0
 17 16  2  0
 18 12  2  0
 19 18  1  0
 21 20  1  0
 21 22  1  0
 22 24  1  0
 23 22  2  0
M  END
$$$$
