PYG.pdb
     RDKit          3D

 24 25  0  0  1  0  0  0  0  0999 V2000
   16.7689  -18.7195    3.1260 N   0  0  0  0  0  0  0  0  0  0  0  0
   15.6703  -19.1791    2.2935 C   0  0  0  0  0  0  0  0  0  0  0  0
   14.4395  -18.8686    3.1267 C   0  0  0  0  0  0  0  0  0  0  0  0
   14.9142  -17.8975    4.2054 C   0  0  0  0  0  0  0  0  0  0  0  0
   16.2651  -17.4986    3.6712 C   0  0  1  0  0  0  0  0  0  0  0  0
   17.0894  -16.9323    4.7419 C   0  0  0  0  0  0  0  0  0  0  0  0
   18.2184  -17.4454    4.9549 O   0  0  0  0  0  0  0  0  0  0  0  0
   22.0571  -10.7037    6.6894 O   0  0  0  0  0  0  0  0  0  0  0  0
   20.8830  -11.4631    6.6746 C   0  0  0  0  0  0  0  0  0  0  0  0
   20.4381  -12.0944    7.8171 C   0  0  0  0  0  0  0  0  0  0  0  0
   19.2701  -12.8530    7.8127 C   0  0  0  0  0  0  0  0  0  0  0  0
   18.5119  -13.0044    6.6702 C   0  0  0  0  0  0  0  0  0  0  0  0
   17.2735  -13.8235    6.7147 C   0  0  0  0  0  0  0  0  0  0  0  0
   17.5753  -15.3006    6.5986 C   0  0  2  0  0  0  0  0  0  0  0  0
   16.7107  -15.8380    5.5672 N   0  0  0  0  0  0  0  0  0  0  0  0
   17.3454  -16.0097    7.8595 C   0  0  0  0  0  0  0  0  0  0  0  0
   16.1841  -16.3013    8.2181 O   0  0  0  0  0  0  0  0  0  0  0  0
   18.9617  -12.3710    5.5309 C   0  0  0  0  0  0  0  0  0  0  0  0
   20.1269  -11.6135    5.5331 C   0  0  0  0  0  0  0  0  0  0  0  0
   18.4070  -16.4040    8.7392 N   0  0  0  0  0  0  0  0  0  0  0  0
   18.1802  -17.0920    9.9707 C   0  0  0  0  0  0  0  0  0  0  0  0
   18.1773  -18.5672    9.8156 C   0  0  0  0  0  0  0  0  0  0  0  0
   18.2040  -19.0714    8.6669 O   0  0  0  0  0  0  0  0  0  0  0  0
   18.1459  -19.4300   10.8979 O   0  0  0  0  0  0  0  0  0  0  0  0
  1  5  1  0
  1  2  1  0
  2  3  1  0
  4  3  1  0
  5  4  1  0
  6  7  2  0
  5  6  1  1
  8  9  1  0
  9 19  2  0
  9 10  1  0
 10 11  2  0
 11 12  1  0
 12 13  1  0
 14 13  1  1
 14 15  1  0
 15  6  1  0
 16 14  1  0
 16 20  1  0
 17 16  2  0
 18 12  2  0
 19 18  1  0
 21 20  1  0
 21 22  1  0
 22 24  1  0
 23 22  2  0
M  END
$$$$
