PYG.pdb
     RDKit          3D

 24 25  0  0  1  0  0  0  0  0999 V2000
   27.2089  -22.2738  -16.1157 N   0  0  0  0  0  0  0  0  0  0  0  0
   27.7153  -22.4391  -17.4675 C   0  0  0  0  0  0  0  0  0  0  0  0
   26.8897  -21.4561  -18.2786 C   0  0  0  0  0  0  0  0  0  0  0  0
   26.2446  -20.5258  -17.2537 C   0  0  0  0  0  0  0  0  0  0  0  0
   27.0319  -20.8597  -16.0135 C   0  0  1  0  0  0  0  0  0  0  0  0
   26.3044  -20.4291  -14.8169 C   0  0  0  0  0  0  0  0  0  0  0  0
   26.1588  -19.1941  -14.6244 O   0  0  0  0  0  0  0  0  0  0  0  0
   20.4440  -19.4119  -17.0947 O   0  0  0  0  0  0  0  0  0  0  0  0
   21.2212  -19.9463  -16.0623 C   0  0  0  0  0  0  0  0  0  0  0  0
   21.3534  -19.2793  -14.8626 C   0  0  0  0  0  0  0  0  0  0  0  0
   22.1250  -19.8030  -13.8282 C   0  0  0  0  0  0  0  0  0  0  0  0
   22.7871  -21.0062  -13.9593 C   0  0  0  0  0  0  0  0  0  0  0  0
   23.5983  -21.5243  -12.8280 C   0  0  0  0  0  0  0  0  0  0  0  0
   24.9396  -20.8319  -12.7382 C   0  0  2  0  0  0  0  0  0  0  0  0
   25.7445  -21.3049  -13.8466 N   0  0  0  0  0  0  0  0  0  0  0  0
   25.6209  -21.1146  -11.4727 C   0  0  0  0  0  0  0  0  0  0  0  0
   25.9616  -22.2823  -11.1853 O   0  0  0  0  0  0  0  0  0  0  0  0
   22.6513  -21.6687  -15.1611 C   0  0  0  0  0  0  0  0  0  0  0  0
   21.8818  -21.1478  -16.1945 C   0  0  0  0  0  0  0  0  0  0  0  0
   25.9323  -20.0993  -10.5091 N   0  0  0  0  0  0  0  0  0  0  0  0
   26.5321  -20.3865   -9.2445 C   0  0  0  0  0  0  0  0  0  0  0  0
   25.5346  -20.6628   -8.1820 C   0  0  0  0  0  0  0  0  0  0  0  0
   24.3372  -20.8726   -8.4931 O   0  0  0  0  0  0  0  0  0  0  0  0
   25.8680  -20.7010   -6.8388 O   0  0  0  0  0  0  0  0  0  0  0  0
  1  5  1  0
  1  2  1  0
  2  3  1  0
  4  3  1  0
  5  4  1  0
  6  7  2  0
  5  6  1  1
  8  9  1  0
  9 19  2  0
  9 10  1  0
 10 11  2  0
 11 12  1  0
 12 13  1  0
 14 13  1  1
 14 15  1  0
 15  6  1  0
 16 14  1  0
 16 20  1  0
 17 16  2  0
 18 12  2  0
 19 18  1  0
 21 20  1  0
 21 22  1  0
 22 24  1  0
 23 22  2  0
M  END
$$$$
