PYG.pdb
     RDKit          3D

 24 25  0  0  1  0  0  0  0  0999 V2000
   26.4450  -19.7339  -13.7805 N   0  0  0  0  0  0  0  0  0  0  0  0
   26.8160  -19.7290  -15.1853 C   0  0  0  0  0  0  0  0  0  0  0  0
   28.1602  -20.4353  -15.1999 C   0  0  0  0  0  0  0  0  0  0  0  0
   28.2660  -21.1341  -13.8461 C   0  0  0  0  0  0  0  0  0  0  0  0
   26.8469  -21.0359  -13.3503 C   0  0  1  0  0  0  0  0  0  0  0  0
   26.7995  -21.2316  -11.8991 C   0  0  0  0  0  0  0  0  0  0  0  0
   26.8928  -22.4057  -11.4563 O   0  0  0  0  0  0  0  0  0  0  0  0
   28.4559  -20.0910   -3.3534 O   0  0  0  0  0  0  0  0  0  0  0  0
   28.2089  -19.8613   -4.7105 C   0  0  0  0  0  0  0  0  0  0  0  0
   28.4139  -20.8572   -5.6421 C   0  0  0  0  0  0  0  0  0  0  0  0
   28.1709  -20.6385   -6.9959 C   0  0  0  0  0  0  0  0  0  0  0  0
   27.7167  -19.4216   -7.4604 C   0  0  0  0  0  0  0  0  0  0  0  0
   27.4719  -19.2360   -8.9138 C   0  0  0  0  0  0  0  0  0  0  0  0
   26.7487  -20.4202   -9.5148 C   0  0  2  0  0  0  0  0  0  0  0  0
   26.6552  -20.1895  -10.9425 N   0  0  0  0  0  0  0  0  0  0  0  0
   25.4081  -20.5907   -8.9498 C   0  0  0  0  0  0  0  0  0  0  0  0
   25.2621  -20.8516   -7.7362 O   0  0  0  0  0  0  0  0  0  0  0  0
   27.5135  -18.4296   -6.5244 C   0  0  0  0  0  0  0  0  0  0  0  0
   27.7554  -18.6457   -5.1730 C   0  0  0  0  0  0  0  0  0  0  0  0
   24.2106  -20.4729   -9.7297 N   0  0  0  0  0  0  0  0  0  0  0  0
   22.9023  -20.5636   -9.1627 C   0  0  0  0  0  0  0  0  0  0  0  0
   21.8247  -20.3759  -10.1646 C   0  0  0  0  0  0  0  0  0  0  0  0
   22.1186  -20.2593  -11.3789 O   0  0  0  0  0  0  0  0  0  0  0  0
   20.4856  -20.3222   -9.8173 O   0  0  0  0  0  0  0  0  0  0  0  0
  1  5  1  0
  1  2  1  0
  2  3  1  0
  4  3  1  0
  5  4  1  0
  6  7  2  0
  5  6  1  1
  8  9  1  0
  9 19  2  0
  9 10  1  0
 10 11  2  0
 11 12  1  0
 12 13  1  0
 14 13  1  1
 14 15  1  0
 15  6  1  0
 16 14  1  0
 16 20  1  0
 17 16  2  0
 18 12  2  0
 19 18  1  0
 21 20  1  0
 21 22  1  0
 22 24  1  0
 23 22  2  0
M  END
$$$$
