PYG.pdb
     RDKit          3D

 24 25  0  0  1  0  0  0  0  0999 V2000
   22.9067   -9.0245  -18.5855 N   0  0  0  0  0  0  0  0  0  0  0  0
   23.0674   -9.5408  -19.9341 C   0  0  0  0  0  0  0  0  0  0  0  0
   22.0362  -10.6525  -20.0139 C   0  0  0  0  0  0  0  0  0  0  0  0
   21.0993  -10.4225  -18.8300 C   0  0  0  0  0  0  0  0  0  0  0  0
   21.4885   -9.0289  -18.4106 C   0  0  1  0  0  0  0  0  0  0  0  0
   21.0507   -8.7694  -17.0367 C   0  0  0  0  0  0  0  0  0  0  0  0
   19.8145   -8.7498  -16.8026 O   0  0  0  0  0  0  0  0  0  0  0  0
   21.5897  -14.7292  -15.7723 O   0  0  0  0  0  0  0  0  0  0  0  0
   21.7682  -13.4329  -15.2794 C   0  0  0  0  0  0  0  0  0  0  0  0
   20.6901  -12.6875  -14.8509 C   0  0  0  0  0  0  0  0  0  0  0  0
   20.8574  -11.3955  -14.3584 C   0  0  0  0  0  0  0  0  0  0  0  0
   22.1036  -10.8091  -14.2786 C   0  0  0  0  0  0  0  0  0  0  0  0
   22.2320   -9.4284  -13.7460 C   0  0  0  0  0  0  0  0  0  0  0  0
   21.4452   -8.4352  -14.5713 C   0  0  2  0  0  0  0  0  0  0  0  0
   21.9208   -8.5358  -15.9366 N   0  0  0  0  0  0  0  0  0  0  0  0
   21.6120   -7.0630  -14.0865 C   0  0  0  0  0  0  0  0  0  0  0  0
   21.3236   -6.7701  -12.9062 O   0  0  0  0  0  0  0  0  0  0  0  0
   23.1779  -11.5591  -14.7084 C   0  0  0  0  0  0  0  0  0  0  0  0
   23.0131  -12.8485  -15.2002 C   0  0  0  0  0  0  0  0  0  0  0  0
   22.1029   -5.9973  -14.9109 N   0  0  0  0  0  0  0  0  0  0  0  0
   22.2426   -4.6545  -14.4429 C   0  0  0  0  0  0  0  0  0  0  0  0
   21.0488   -3.8193  -14.7211 C   0  0  0  0  0  0  0  0  0  0  0  0
   20.0479   -4.3316  -15.2782 O   0  0  0  0  0  0  0  0  0  0  0  0
   20.9851   -2.4767  -14.3891 O   0  0  0  0  0  0  0  0  0  0  0  0
  1  5  1  0
  1  2  1  0
  2  3  1  0
  4  3  1  0
  5  4  1  0
  6  7  2  0
  5  6  1  1
  8  9  1  0
  9 19  2  0
  9 10  1  0
 10 11  2  0
 11 12  1  0
 12 13  1  0
 14 13  1  1
 14 15  1  0
 15  6  1  0
 16 14  1  0
 16 20  1  0
 17 16  2  0
 18 12  2  0
 19 18  1  0
 21 20  1  0
 21 22  1  0
 22 24  1  0
 23 22  2  0
M  END
$$$$
