PYG.pdb
     RDKit          3D

 24 25  0  0  1  0  0  0  0  0999 V2000
   16.1062  -17.1234    3.8973 N   0  0  0  0  0  0  0  0  0  0  0  0
   15.6901  -17.0975    2.5054 C   0  0  0  0  0  0  0  0  0  0  0  0
   16.5625  -16.0154    1.8942 C   0  0  0  0  0  0  0  0  0  0  0  0
   17.6835  -15.7795    2.9041 C   0  0  0  0  0  0  0  0  0  0  0  0
   17.5244  -16.9742    3.8078 C   0  0  1  0  0  0  0  0  0  0  0  0
   18.1865  -16.7331    5.0923 C   0  0  0  0  0  0  0  0  0  0  0  0
   19.4445  -16.7324    5.1194 O   0  0  0  0  0  0  0  0  0  0  0  0
   20.8415  -10.6745    5.5961 O   0  0  0  0  0  0  0  0  0  0  0  0
   20.1046  -11.6957    6.2039 C   0  0  0  0  0  0  0  0  0  0  0  0
   18.9003  -12.1072    5.6729 C   0  0  0  0  0  0  0  0  0  0  0  0
   18.1589  -13.1233    6.2707 C   0  0  0  0  0  0  0  0  0  0  0  0
   18.5959  -13.7586    7.4147 C   0  0  0  0  0  0  0  0  0  0  0  0
   17.7701  -14.8371    8.0160 C   0  0  0  0  0  0  0  0  0  0  0  0
   18.2168  -16.2063    7.5555 C   0  0  2  0  0  0  0  0  0  0  0  0
   17.5133  -16.4977    6.3224 N   0  0  0  0  0  0  0  0  0  0  0  0
   17.9277  -17.2424    8.5497 C   0  0  0  0  0  0  0  0  0  0  0  0
   18.3861  -17.1517    9.7090 O   0  0  0  0  0  0  0  0  0  0  0  0
   19.8007  -13.3430    7.9411 C   0  0  0  0  0  0  0  0  0  0  0  0
   20.5421  -12.3292    7.3461 C   0  0  0  0  0  0  0  0  0  0  0  0
   17.1231  -18.3950    8.2659 N   0  0  0  0  0  0  0  0  0  0  0  0
   16.8687  -19.4206    9.2276 C   0  0  0  0  0  0  0  0  0  0  0  0
   17.2308  -20.7732    8.7382 C   0  0  0  0  0  0  0  0  0  0  0  0
   17.7835  -20.9019    7.6190 O   0  0  0  0  0  0  0  0  0  0  0  0
   16.9834  -21.9216    9.4709 O   0  0  0  0  0  0  0  0  0  0  0  0
  1  5  1  0
  1  2  1  0
  2  3  1  0
  4  3  1  0
  5  4  1  0
  6  7  2  0
  5  6  1  1
  8  9  1  0
  9 19  2  0
  9 10  1  0
 10 11  2  0
 11 12  1  0
 12 13  1  0
 14 13  1  1
 14 15  1  0
 15  6  1  0
 16 14  1  0
 16 20  1  0
 17 16  2  0
 18 12  2  0
 19 18  1  0
 21 20  1  0
 21 22  1  0
 22 24  1  0
 23 22  2  0
M  END
$$$$
