PYG.pdb
     RDKit          3D

 24 25  0  0  1  0  0  0  0  0999 V2000
   27.0235  -20.4503  -17.1078 N   0  0  0  0  0  0  0  0  0  0  0  0
   27.6806  -20.6156  -18.3931 C   0  0  0  0  0  0  0  0  0  0  0  0
   28.7291  -21.6799  -18.1215 C   0  0  0  0  0  0  0  0  0  0  0  0
   28.3249  -22.3181  -16.7943 C   0  0  0  0  0  0  0  0  0  0  0  0
   26.9231  -21.7923  -16.6274 C   0  0  1  0  0  0  0  0  0  0  0  0
   26.5014  -21.9008  -15.2285 C   0  0  0  0  0  0  0  0  0  0  0  0
   26.1726  -23.0355  -14.7952 O   0  0  0  0  0  0  0  0  0  0  0  0
   25.3893  -20.2439   -6.5778 O   0  0  0  0  0  0  0  0  0  0  0  0
   25.7895  -20.2802   -7.9172 C   0  0  0  0  0  0  0  0  0  0  0  0
   25.7839  -19.1348   -8.6852 C   0  0  0  0  0  0  0  0  0  0  0  0
   26.1807  -19.1604  -10.0199 C   0  0  0  0  0  0  0  0  0  0  0  0
   26.5943  -20.3276  -10.6279 C   0  0  0  0  0  0  0  0  0  0  0  0
   27.0082  -20.3052  -12.0543 C   0  0  0  0  0  0  0  0  0  0  0  0
   25.9843  -20.9726  -12.9444 C   0  0  2  0  0  0  0  0  0  0  0  0
   26.4339  -20.8148  -14.3131 N   0  0  0  0  0  0  0  0  0  0  0  0
   24.6521  -20.3841  -12.7877 C   0  0  0  0  0  0  0  0  0  0  0  0
   24.3744  -19.2943  -13.3330 O   0  0  0  0  0  0  0  0  0  0  0  0
   26.5978  -21.4697   -9.8551 C   0  0  0  0  0  0  0  0  0  0  0  0
   26.2023  -21.4464   -8.5230 C   0  0  0  0  0  0  0  0  0  0  0  0
   23.6101  -21.0022  -12.0206 N   0  0  0  0  0  0  0  0  0  0  0  0
   22.3083  -20.4311  -11.8769 C   0  0  0  0  0  0  0  0  0  0  0  0
   21.3490  -20.9169  -12.8987 C   0  0  0  0  0  0  0  0  0  0  0  0
   21.7444  -21.6898  -13.8047 O   0  0  0  0  0  0  0  0  0  0  0  0
   20.0136  -20.5515  -12.9003 O   0  0  0  0  0  0  0  0  0  0  0  0
  1  5  1  0
  1  2  1  0
  2  3  1  0
  4  3  1  0
  5  4  1  0
  6  7  2  0
  5  6  1  1
  8  9  1  0
  9 19  2  0
  9 10  1  0
 10 11  2  0
 11 12  1  0
 12 13  1  0
 14 13  1  1
 14 15  1  0
 15  6  1  0
 16 14  1  0
 16 20  1  0
 17 16  2  0
 18 12  2  0
 19 18  1  0
 21 20  1  0
 21 22  1  0
 22 24  1  0
 23 22  2  0
M  END
$$$$
