DDC.pdb
     RDKit          3D

 23 22  0  0  1  0  0  0  0  0999 V2000
   12.9014  -20.1408   13.0595 N   0  0  0  0  0  0  0  0  0  0  0  0
   13.4304  -18.8798   13.5171 C   0  0  1  0  0  0  0  0  0  0  0  0
   12.6962  -17.7777   12.8256 C   0  0  0  0  0  0  0  0  0  0  0  0
   13.0577  -17.7979   11.4015 C   0  0  0  0  0  0  0  0  0  0  0  0
   13.1455  -18.8751   10.7924 O   0  0  0  0  0  0  0  0  0  0  0  0
   13.4488  -18.7753   14.9893 C   0  0  0  0  0  0  0  0  0  0  0  0
   13.9762  -17.7477   15.4868 O   0  0  0  0  0  0  0  0  0  0  0  0
   13.3014  -16.6197   10.7337 O   0  0  0  0  0  0  0  0  0  0  0  0
   12.8964  -19.7875   15.8144 N   0  0  0  0  0  0  0  0  0  0  0  0
   12.8440  -19.7028   17.2557 C   0  0  1  0  0  0  0  0  0  0  0  0
   11.6498  -20.3456   17.8625 C   0  0  0  0  0  0  0  0  0  0  0  0
   11.5225  -19.9980   19.2916 C   0  0  0  0  0  0  0  0  0  0  0  0
   11.8529  -20.8200   20.1578 O   0  0  0  0  0  0  0  0  0  0  0  0
   14.1169  -20.1253   17.8819 C   0  0  0  0  0  0  0  0  0  0  0  0
   14.9009  -20.8706   17.2670 O   0  0  0  0  0  0  0  0  0  0  0  0
   11.0387  -18.7650   19.6592 O   0  0  0  0  0  0  0  0  0  0  0  0
   14.4501  -19.6871   19.1784 N   0  0  0  0  0  0  0  0  0  0  0  0
   15.7938  -19.7163   19.7236 C   0  0  1  0  0  0  0  0  0  0  0  0
   16.6429  -18.8697   18.7964 C   0  0  0  0  0  0  0  0  0  0  0  0
   18.3596  -18.8247   19.3543 S   0  0  0  0  0  0  0  0  0  0  0  0
   15.8652  -19.2941   21.1220 C   0  0  0  0  0  0  0  0  0  0  0  0
   15.1393  -18.3638   21.5382 O   0  0  0  0  0  0  0  0  0  0  0  0
   16.7360  -19.9259   21.9804 O   0  0  0  0  0  0  0  0  0  0  0  0
  2  1  1  1
  3  4  1  0
  3  2  1  0
  4  8  1  0
  5  4  2  0
  6  7  2  0
  6  2  1  0
  9  6  1  0
 10 14  1  0
 10  9  1  0
 10 11  1  1
 12 11  1  0
 13 12  2  0
 14 17  1  0
 15 14  2  0
 16 12  1  0
 17 18  1  0
 18 21  1  0
 18 19  1  6
 20 19  1  0
 21 22  2  0
 21 23  1  0
M  END
$$$$
