DDC.pdb
     RDKit          3D

 23 22  0  0  1  0  0  0  0  0999 V2000
   10.0237  -19.1539   17.7791 N   0  0  0  0  0  0  0  0  0  0  0  0
    9.9974  -17.9807   18.6173 C   0  0  1  0  0  0  0  0  0  0  0  0
    8.5832  -17.7163   19.0197 C   0  0  0  0  0  0  0  0  0  0  0  0
    7.7077  -18.0323   17.8827 C   0  0  0  0  0  0  0  0  0  0  0  0
    8.0117  -17.6666   16.7370 O   0  0  0  0  0  0  0  0  0  0  0  0
   10.9491  -18.0682   19.7420 C   0  0  0  0  0  0  0  0  0  0  0  0
   10.6156  -18.7795   20.7241 O   0  0  0  0  0  0  0  0  0  0  0  0
    6.5430  -18.7373   18.0826 O   0  0  0  0  0  0  0  0  0  0  0  0
   12.1897  -17.3817   19.7226 N   0  0  0  0  0  0  0  0  0  0  0  0
   13.1040  -17.3530   20.8408 C   0  0  1  0  0  0  0  0  0  0  0  0
   14.4878  -16.9422   20.4882 C   0  0  0  0  0  0  0  0  0  0  0  0
   15.0860  -17.8655   19.5038 C   0  0  0  0  0  0  0  0  0  0  0  0
   15.1250  -19.0807   19.7428 O   0  0  0  0  0  0  0  0  0  0  0  0
   12.5481  -16.6064   21.9917 C   0  0  0  0  0  0  0  0  0  0  0  0
   12.2626  -15.4008   21.8778 O   0  0  0  0  0  0  0  0  0  0  0  0
   15.5980  -17.3773   18.3253 O   0  0  0  0  0  0  0  0  0  0  0  0
   12.3383  -17.2552   23.2242 N   0  0  0  0  0  0  0  0  0  0  0  0
   11.7766  -16.6091   24.3950 C   0  0  1  0  0  0  0  0  0  0  0  0
   10.3876  -16.1511   23.9974 C   0  0  0  0  0  0  0  0  0  0  0  0
    9.2559  -16.2273   25.4024 S   0  0  0  0  0  0  0  0  0  0  0  0
   11.7889  -17.4532   25.5893 C   0  0  0  0  0  0  0  0  0  0  0  0
   11.7483  -18.6992   25.4819 O   0  0  0  0  0  0  0  0  0  0  0  0
   11.8457  -16.8700   26.8347 O   0  0  0  0  0  0  0  0  0  0  0  0
  2  1  1  1
  3  4  1  0
  3  2  1  0
  4  8  1  0
  5  4  2  0
  6  7  2  0
  6  2  1  0
  9  6  1  0
 10 14  1  0
 10  9  1  0
 10 11  1  6
 12 11  1  0
 13 12  2  0
 14 17  1  0
 15 14  2  0
 16 12  1  0
 17 18  1  0
 18 21  1  0
 18 19  1  6
 20 19  1  0
 21 22  2  0
 21 23  1  0
M  END
$$$$
