DDC.pdb
     RDKit          3D

 23 22  0  0  1  0  0  0  0  0999 V2000
   12.7806  -17.2629   19.2322 N   0  0  0  0  0  0  0  0  0  0  0  0
   12.6978  -18.4421   20.0582 C   0  0  1  0  0  0  0  0  0  0  0  0
   13.0035  -19.6359   19.2136 C   0  0  0  0  0  0  0  0  0  0  0  0
   12.2487  -19.5246   17.9578 C   0  0  0  0  0  0  0  0  0  0  0  0
   11.1817  -20.1402   17.8112 O   0  0  0  0  0  0  0  0  0  0  0  0
   13.5134  -18.3323   21.2834 C   0  0  0  0  0  0  0  0  0  0  0  0
   13.2974  -19.1708   22.1956 O   0  0  0  0  0  0  0  0  0  0  0  0
   12.7219  -18.7351   16.9350 O   0  0  0  0  0  0  0  0  0  0  0  0
   14.5012  -17.3261   21.4326 N   0  0  0  0  0  0  0  0  0  0  0  0
   15.1987  -17.0691   22.6714 C   0  0  1  0  0  0  0  0  0  0  0  0
   16.4725  -16.3209   22.5116 C   0  0  0  0  0  0  0  0  0  0  0  0
   17.1703  -16.1695   23.8035 C   0  0  0  0  0  0  0  0  0  0  0  0
   17.8718  -15.1696   24.0119 O   0  0  0  0  0  0  0  0  0  0  0  0
   14.3057  -16.4900   23.7000 C   0  0  0  0  0  0  0  0  0  0  0  0
   14.0776  -15.2669   23.7153 O   0  0  0  0  0  0  0  0  0  0  0  0
   17.0415  -17.1360   24.7724 O   0  0  0  0  0  0  0  0  0  0  0  0
   13.7076  -17.3189   24.6690 N   0  0  0  0  0  0  0  0  0  0  0  0
   12.6836  -16.8746   25.5952 C   0  0  1  0  0  0  0  0  0  0  0  0
   11.5332  -16.3761   24.7436 C   0  0  0  0  0  0  0  0  0  0  0  0
   10.1179  -15.9255   25.7704 S   0  0  0  0  0  0  0  0  0  0  0  0
   12.2880  -17.8981   26.5622 C   0  0  0  0  0  0  0  0  0  0  0  0
   12.2291  -19.1002   26.2202 O   0  0  0  0  0  0  0  0  0  0  0  0
   11.9802  -17.5326   27.8530 O   0  0  0  0  0  0  0  0  0  0  0  0
  2  1  1  6
  3  4  1  0
  3  2  1  0
  4  8  1  0
  5  4  2  0
  6  7  2  0
  6  2  1  0
  9  6  1  0
 10 14  1  0
 10  9  1  0
 10 11  1  6
 12 11  1  0
 13 12  2  0
 14 17  1  0
 15 14  2  0
 16 12  1  0
 17 18  1  0
 18 21  1  0
 18 19  1  6
 20 19  1  0
 21 22  2  0
 21 23  1  0
M  END
$$$$
