DDC.pdb
     RDKit          3D

 23 22  0  0  1  0  0  0  0  0999 V2000
    8.4764  -15.8267   19.7519 N   0  0  0  0  0  0  0  0  0  0  0  0
    8.1973  -14.5822   20.4249 C   0  0  1  0  0  0  0  0  0  0  0  0
    7.2336  -13.7990   19.5945 C   0  0  0  0  0  0  0  0  0  0  0  0
    7.6718  -13.8556   18.1931 C   0  0  0  0  0  0  0  0  0  0  0  0
    7.0792  -13.1981   17.3240 O   0  0  0  0  0  0  0  0  0  0  0  0
    7.7802  -14.7790   21.8269 C   0  0  0  0  0  0  0  0  0  0  0  0
    7.3863  -13.7649   22.4579 O   0  0  0  0  0  0  0  0  0  0  0  0
    8.7446  -14.6398   17.8358 O   0  0  0  0  0  0  0  0  0  0  0  0
    7.8193  -16.0555   22.4431 N   0  0  0  0  0  0  0  0  0  0  0  0
    7.5060  -16.2800   23.8355 C   0  0  1  0  0  0  0  0  0  0  0  0
    7.2511  -17.7021   24.1827 C   0  0  0  0  0  0  0  0  0  0  0  0
    7.0061  -17.8644   25.6294 C   0  0  0  0  0  0  0  0  0  0  0  0
    6.0711  -17.2557   26.1684 O   0  0  0  0  0  0  0  0  0  0  0  0
    8.4814  -15.6244   24.7353 C   0  0  0  0  0  0  0  0  0  0  0  0
    9.6889  -15.9177   24.6712 O   0  0  0  0  0  0  0  0  0  0  0  0
    7.8138  -18.6892   26.3757 O   0  0  0  0  0  0  0  0  0  0  0  0
    8.0500  -14.6638   25.6708 N   0  0  0  0  0  0  0  0  0  0  0  0
    8.9390  -13.9462   26.5643 C   0  0  1  0  0  0  0  0  0  0  0  0
    8.2365  -12.6467   26.9031 C   0  0  0  0  0  0  0  0  0  0  0  0
    6.6000  -12.9598   27.5991 S   0  0  0  0  0  0  0  0  0  0  0  0
    9.3290  -14.7187   27.7434 C   0  0  0  0  0  0  0  0  0  0  0  0
    8.7780  -15.8146   27.9905 O   0  0  0  0  0  0  0  0  0  0  0  0
   10.3072  -14.2343   28.5818 O   0  0  0  0  0  0  0  0  0  0  0  0
  2  1  1  6
  3  4  1  0
  3  2  1  0
  4  8  1  0
  5  4  2  0
  6  7  2  0
  6  2  1  0
  9  6  1  0
 10 14  1  0
 10  9  1  0
 10 11  1  6
 12 11  1  0
 13 12  2  0
 14 17  1  0
 15 14  2  0
 16 12  1  0
 17 18  1  0
 18 21  1  0
 18 19  1  1
 20 19  1  0
 21 22  2  0
 21 23  1  0
M  END
$$$$
