DDC.pdb
     RDKit          3D

 23 22  0  0  1  0  0  0  0  0999 V2000
   10.5665  -18.1570   23.1143 N   0  0  0  0  0  0  0  0  0  0  0  0
   11.2436  -16.9046   22.8848 C   0  0  1  0  0  0  0  0  0  0  0  0
   12.2902  -17.1151   21.8398 C   0  0  0  0  0  0  0  0  0  0  0  0
   13.5847  -17.3071   22.5080 C   0  0  0  0  0  0  0  0  0  0  0  0
   13.6305  -17.6270   23.7057 O   0  0  0  0  0  0  0  0  0  0  0  0
   10.3072  -15.7995   22.6013 C   0  0  0  0  0  0  0  0  0  0  0  0
   10.8025  -14.6578   22.4196 O   0  0  0  0  0  0  0  0  0  0  0  0
   14.7563  -17.1332   21.8076 O   0  0  0  0  0  0  0  0  0  0  0  0
    8.9064  -16.0091   22.5348 N   0  0  0  0  0  0  0  0  0  0  0  0
    7.9580  -14.9696   22.2074 C   0  0  1  0  0  0  0  0  0  0  0  0
    6.6808  -15.4665   21.6333 C   0  0  0  0  0  0  0  0  0  0  0  0
    6.9121  -16.5933   20.7081 C   0  0  0  0  0  0  0  0  0  0  0  0
    7.5349  -16.4069   19.6532 O   0  0  0  0  0  0  0  0  0  0  0  0
    7.7656  -14.0224   23.3285 C   0  0  0  0  0  0  0  0  0  0  0  0
    7.2126  -12.9249   23.1339 O   0  0  0  0  0  0  0  0  0  0  0  0
    6.4376  -17.8458   21.0172 O   0  0  0  0  0  0  0  0  0  0  0  0
    8.2071  -14.3563   24.6237 N   0  0  0  0  0  0  0  0  0  0  0  0
    8.0573  -13.4922   25.7789 C   0  0  1  0  0  0  0  0  0  0  0  0
    6.5774  -13.1822   25.8838 C   0  0  0  0  0  0  0  0  0  0  0  0
    6.2257  -12.2040   27.3602 S   0  0  0  0  0  0  0  0  0  0  0  0
    8.6198  -14.0559   27.0057 C   0  0  0  0  0  0  0  0  0  0  0  0
    9.0397  -15.2344   27.0240 O   0  0  0  0  0  0  0  0  0  0  0  0
    8.6857  -13.2827   28.1425 O   0  0  0  0  0  0  0  0  0  0  0  0
  2  1  1  6
  3  4  1  0
  3  2  1  0
  4  8  1  0
  5  4  2  0
  6  7  2  0
  6  2  1  0
  9  6  1  0
 10 14  1  0
 10  9  1  0
 10 11  1  1
 12 11  1  0
 13 12  2  0
 14 17  1  0
 15 14  2  0
 16 12  1  0
 17 18  1  0
 18 21  1  0
 18 19  1  1
 20 19  1  0
 21 22  2  0
 21 23  1  0
M  END
$$$$
