DDC.pdb
     RDKit          3D

 23 22  0  0  1  0  0  0  0  0999 V2000
   13.7835  -18.8285   15.5260 N   0  0  0  0  0  0  0  0  0  0  0  0
   12.7292  -17.9062   15.8682 C   0  0  1  0  0  0  0  0  0  0  0  0
   11.7009  -17.9373   14.7849 C   0  0  0  0  0  0  0  0  0  0  0  0
   12.3261  -17.4837   13.5349 C   0  0  0  0  0  0  0  0  0  0  0  0
   13.1522  -16.5583   13.5472 O   0  0  0  0  0  0  0  0  0  0  0  0
   12.1971  -18.1344   17.2259 C   0  0  0  0  0  0  0  0  0  0  0  0
   11.3118  -17.3417   17.6378 O   0  0  0  0  0  0  0  0  0  0  0  0
   11.9985  -18.0841   12.3410 O   0  0  0  0  0  0  0  0  0  0  0  0
   12.6600  -19.2011   18.0373 N   0  0  0  0  0  0  0  0  0  0  0  0
   12.0874  -19.5345   19.3212 C   0  0  1  0  0  0  0  0  0  0  0  0
   12.4489  -20.8871   19.8187 C   0  0  0  0  0  0  0  0  0  0  0  0
   11.6398  -21.2585   20.9963 C   0  0  0  0  0  0  0  0  0  0  0  0
   11.6631  -20.5460   22.0098 O   0  0  0  0  0  0  0  0  0  0  0  0
   12.3088  -18.4655   20.3207 C   0  0  0  0  0  0  0  0  0  0  0  0
   13.4356  -17.9546   20.4529 O   0  0  0  0  0  0  0  0  0  0  0  0
   10.8627  -22.3920   20.9673 O   0  0  0  0  0  0  0  0  0  0  0  0
   11.2458  -18.0187   21.1296 N   0  0  0  0  0  0  0  0  0  0  0  0
   11.3713  -16.9762   22.1302 C   0  0  1  0  0  0  0  0  0  0  0  0
    9.9728  -16.4365   22.3537 C   0  0  0  0  0  0  0  0  0  0  0  0
    9.9723  -15.1493   23.6200 S   0  0  0  0  0  0  0  0  0  0  0  0
   12.0233  -17.4241   23.3605 C   0  0  0  0  0  0  0  0  0  0  0  0
   11.7590  -18.5486   23.8413 O   0  0  0  0  0  0  0  0  0  0  0  0
   12.9308  -16.6017   23.9883 O   0  0  0  0  0  0  0  0  0  0  0  0
  2  1  1  6
  3  4  1  0
  3  2  1  0
  4  8  1  0
  5  4  2  0
  6  7  2  0
  6  2  1  0
  9  6  1  0
 10 14  1  0
 10  9  1  0
 10 11  1  1
 12 11  1  0
 13 12  2  0
 14 17  1  0
 15 14  2  0
 16 12  1  0
 17 18  1  0
 18 21  1  0
 18 19  1  1
 20 19  1  0
 21 22  2  0
 21 23  1  0
M  END
$$$$
