DDC.pdb
     RDKit          3D

 23 22  0  0  1  0  0  0  0  0999 V2000
   10.2260  -17.8018   17.2779 N   0  0  0  0  0  0  0  0  0  0  0  0
    8.8945  -17.4875   17.7338 C   0  0  1  0  0  0  0  0  0  0  0  0
    7.9239  -18.3519   16.9971 C   0  0  0  0  0  0  0  0  0  0  0  0
    8.1829  -18.2213   15.5566 C   0  0  0  0  0  0  0  0  0  0  0  0
    9.2870  -18.5368   15.0871 O   0  0  0  0  0  0  0  0  0  0  0  0
    8.7725  -17.5431   19.2036 C   0  0  0  0  0  0  0  0  0  0  0  0
    7.6593  -17.2341   19.7008 O   0  0  0  0  0  0  0  0  0  0  0  0
    7.2001  -17.7476   14.7181 O   0  0  0  0  0  0  0  0  0  0  0  0
    9.8608  -17.9280   20.0270 N   0  0  0  0  0  0  0  0  0  0  0  0
    9.7706  -18.0519   21.4636 C   0  0  1  0  0  0  0  0  0  0  0  0
   10.5538  -19.1806   22.0298 C   0  0  0  0  0  0  0  0  0  0  0  0
   10.4353  -19.2299   23.5005 C   0  0  0  0  0  0  0  0  0  0  0  0
    9.3389  -19.4757   24.0227 O   0  0  0  0  0  0  0  0  0  0  0  0
   10.0235  -16.7638   22.1475 C   0  0  0  0  0  0  0  0  0  0  0  0
   10.7280  -15.8937   21.6047 O   0  0  0  0  0  0  0  0  0  0  0  0
   11.5393  -19.0036   24.2875 O   0  0  0  0  0  0  0  0  0  0  0  0
    9.4686  -16.5136   23.4178 N   0  0  0  0  0  0  0  0  0  0  0  0
    9.0632  -15.2002   23.8807 C   0  0  1  0  0  0  0  0  0  0  0  0
    8.0477  -14.6944   22.8757 C   0  0  0  0  0  0  0  0  0  0  0  0
    7.3804  -13.0947   23.3814 S   0  0  0  0  0  0  0  0  0  0  0  0
    8.5691  -15.1939   25.2573 C   0  0  0  0  0  0  0  0  0  0  0  0
    7.9579  -16.1860   25.7129 O   0  0  0  0  0  0  0  0  0  0  0  0
    8.7799  -14.0895   26.0513 O   0  0  0  0  0  0  0  0  0  0  0  0
  2  1  1  1
  3  4  1  0
  3  2  1  0
  4  8  1  0
  5  4  2  0
  6  7  2  0
  6  2  1  0
  9  6  1  0
 10 14  1  0
 10  9  1  0
 10 11  1  1
 12 11  1  0
 13 12  2  0
 14 17  1  0
 15 14  2  0
 16 12  1  0
 17 18  1  0
 18 21  1  0
 18 19  1  6
 20 19  1  0
 21 22  2  0
 21 23  1  0
M  END
$$$$
