DDC.pdb
     RDKit          3D

 23 22  0  0  1  0  0  0  0  0999 V2000
   12.4059  -17.9447   21.0510 N   0  0  0  0  0  0  0  0  0  0  0  0
   11.0737  -17.3973   21.1231 C   0  0  1  0  0  0  0  0  0  0  0  0
   10.2272  -18.0707   20.0927 C   0  0  0  0  0  0  0  0  0  0  0  0
   10.7169  -17.6852   18.7620 C   0  0  0  0  0  0  0  0  0  0  0  0
   11.8716  -17.9727   18.4115 O   0  0  0  0  0  0  0  0  0  0  0  0
   10.5207  -17.4343   22.4910 C   0  0  0  0  0  0  0  0  0  0  0  0
    9.3552  -16.9901   22.6528 O   0  0  0  0  0  0  0  0  0  0  0  0
    9.8956  -17.0017   17.8949 O   0  0  0  0  0  0  0  0  0  0  0  0
   11.2666  -17.9479   23.5820 N   0  0  0  0  0  0  0  0  0  0  0  0
   10.7802  -17.9698   24.9422 C   0  0  1  0  0  0  0  0  0  0  0  0
   11.3111  -19.0888   25.7630 C   0  0  0  0  0  0  0  0  0  0  0  0
   10.7354  -19.0759   27.1223 C   0  0  0  0  0  0  0  0  0  0  0  0
   11.4814  -18.9788   28.1069 O   0  0  0  0  0  0  0  0  0  0  0  0
   10.9117  -16.6497   25.5986 C   0  0  0  0  0  0  0  0  0  0  0  0
   11.9989  -16.0449   25.5779 O   0  0  0  0  0  0  0  0  0  0  0  0
    9.3749  -19.1714   27.2941 O   0  0  0  0  0  0  0  0  0  0  0  0
    9.8074  -16.0684   26.2517 N   0  0  0  0  0  0  0  0  0  0  0  0
    9.8435  -14.7775   26.9120 C   0  0  1  0  0  0  0  0  0  0  0  0
    8.5209  -14.1071   26.5985 C   0  0  0  0  0  0  0  0  0  0  0  0
    8.3992  -12.5037   27.4198 S   0  0  0  0  0  0  0  0  0  0  0  0
   10.1249  -14.8630   28.3447 C   0  0  0  0  0  0  0  0  0  0  0  0
   10.0045  -15.9527   28.9476 O   0  0  0  0  0  0  0  0  0  0  0  0
   10.5238  -13.7371   29.0285 O   0  0  0  0  0  0  0  0  0  0  0  0
  2  1  1  1
  3  4  1  0
  3  2  1  0
  4  8  1  0
  5  4  2  0
  6  7  2  0
  6  2  1  0
  9  6  1  0
 10 14  1  0
 10  9  1  0
 10 11  1  1
 12 11  1  0
 13 12  2  0
 14 17  1  0
 15 14  2  0
 16 12  1  0
 17 18  1  0
 18 21  1  0
 18 19  1  1
 20 19  1  0
 21 22  2  0
 21 23  1  0
M  END
$$$$
