KWI.pdb
     RDKit          3D

 32 33  0  0  1  0  0  0  0  0999 V2000
   27.5432  -22.5788  -15.4241 N   0  0  0  0  0  0  0  0  0  0  0  0
   27.7035  -21.3529  -14.6679 C   0  0  1  0  0  0  0  0  0  0  0  0
   26.8932  -20.2995  -15.4368 C   0  0  0  0  0  0  0  0  0  0  0  0
   27.5482  -20.1683  -16.7978 C   0  0  0  0  0  0  0  0  0  0  0  0
   27.7352  -18.7171  -17.1838 C   0  0  0  0  0  0  0  0  0  0  0  0
   29.2185  -18.4708  -17.3471 C   0  0  0  0  0  0  0  0  0  0  0  0
   29.4112  -17.0800  -17.6737 N   0  0  0  0  0  0  0  0  0  0  0  0
   27.0888  -21.5152  -13.3498 C   0  0  0  0  0  0  0  0  0  0  0  0
   26.1071  -22.2770  -13.2077 O   0  0  0  0  0  0  0  0  0  0  0  0
   27.5723  -20.8224  -12.1800 N   0  0  0  0  0  0  0  0  0  0  0  0
   26.9467  -21.0011  -10.9078 C   0  0  1  0  0  0  0  0  0  0  0  0
   27.8073  -20.5409   -9.7536 C   0  0  0  0  0  0  0  0  0  0  0  0
   27.0853  -20.6563   -8.4692 C   0  0  0  0  0  0  0  0  0  0  0  0
   25.8351  -21.1784   -8.2345 C   0  0  0  0  0  0  0  0  0  0  0  0
   25.5496  -21.0945   -6.9248 N   0  0  0  0  0  0  0  0  0  0  0  0
   26.5720  -20.5296   -6.2635 C   0  0  0  0  0  0  0  0  0  0  0  0
   26.8169  -20.2064   -4.9420 C   0  0  0  0  0  0  0  0  0  0  0  0
   28.0110  -19.6070   -4.5421 C   0  0  0  0  0  0  0  0  0  0  0  0
   28.9565  -19.3390   -5.5039 C   0  0  0  0  0  0  0  0  0  0  0  0
   28.7064  -19.6635   -6.8190 C   0  0  0  0  0  0  0  0  0  0  0  0
   27.5338  -20.2540   -7.2230 C   0  0  0  0  0  0  0  0  0  0  0  0
   25.6790  -20.2277  -10.9003 C   0  0  0  0  0  0  0  0  0  0  0  0
   25.6933  -18.9905  -10.8375 O   0  0  0  0  0  0  0  0  0  0  0  0
   23.4902  -19.3354  -14.9548 C   0  0  0  0  0  0  0  0  0  0  0  0
   23.7961  -19.3648  -13.4840 C   0  0  0  0  0  0  0  0  0  0  0  0
   22.8349  -20.2186  -12.6922 C   0  0  2  0  0  0  0  0  0  0  0  0
   21.4400  -19.7317  -12.9434 C   0  0  0  0  0  0  0  0  0  0  0  0
   23.1806  -20.2359  -11.2197 C   0  0  2  0  0  0  0  0  0  0  0  0
   24.4301  -20.9030  -10.9648 N   0  0  0  0  0  0  0  0  0  0  0  0
   22.0730  -20.8726  -10.4331 C   0  0  0  0  0  0  0  0  0  0  0  0
   21.9484  -22.1214  -10.3565 O   0  0  0  0  0  0  0  0  0  0  0  0
   21.1515  -20.0878   -9.7656 O   0  0  0  0  0  0  0  0  0  0  0  0
  2  3  1  0
  2  1  1  6
  3  4  1  0
  5  4  1  0
  6  5  1  0
  7  6  1  0
  8  2  1  0
  8  9  2  0
 10  8  1  0
 11 10  1  0
 11 22  1  0
 11 12  1  1
 13 12  1  0
 13 14  2  0
 15 14  1  0
 16 15  1  0
 17 16  2  0
 18 17  1  0
 19 18  2  0
 19 20  1  0
 20 21  2  0
 21 16  1  0
 21 13  1  0
 22 23  2  0
 22 29  1  0
 24 25  1  0
 25 26  1  0
 26 28  1  0
 26 27  1  1
 28 30  1  0
 28 29  1  6
 30 31  2  0
 30 32  1  0
M  END
$$$$
