KWI.pdb
     RDKit          3D

 32 33  0  0  1  0  0  0  0  0999 V2000
   26.5082  -20.5218  -18.9949 N   0  0  0  0  0  0  0  0  0  0  0  0
   26.4333  -19.4979  -17.9720 C   0  0  1  0  0  0  0  0  0  0  0  0
   25.2328  -18.6256  -18.3661 C   0  0  0  0  0  0  0  0  0  0  0  0
   25.7987  -17.4371  -19.1182 C   0  0  0  0  0  0  0  0  0  0  0  0
   26.8699  -16.7330  -18.3141 C   0  0  0  0  0  0  0  0  0  0  0  0
   27.2867  -15.4986  -19.0824 C   0  0  0  0  0  0  0  0  0  0  0  0
   28.3550  -14.8564  -18.3583 N   0  0  0  0  0  0  0  0  0  0  0  0
   26.1278  -20.1235  -16.6848 C   0  0  0  0  0  0  0  0  0  0  0  0
   25.3102  -21.0682  -16.6275 O   0  0  0  0  0  0  0  0  0  0  0  0
   26.7388  -19.6924  -15.4507 N   0  0  0  0  0  0  0  0  0  0  0  0
   26.4119  -20.3196  -14.2091 C   0  0  1  0  0  0  0  0  0  0  0  0
   27.4539  -20.0938  -13.1378 C   0  0  0  0  0  0  0  0  0  0  0  0
   27.1308  -20.8503  -11.9099 C   0  0  0  0  0  0  0  0  0  0  0  0
   27.2141  -22.2056  -11.6933 C   0  0  0  0  0  0  0  0  0  0  0  0
   26.8276  -22.4866  -10.4381 N   0  0  0  0  0  0  0  0  0  0  0  0
   26.4841  -21.3589   -9.7962 C   0  0  0  0  0  0  0  0  0  0  0  0
   26.0265  -21.0625   -8.5260 C   0  0  0  0  0  0  0  0  0  0  0  0
   25.7456  -19.7539   -8.1338 C   0  0  0  0  0  0  0  0  0  0  0  0
   25.9359  -18.7467   -9.0505 C   0  0  0  0  0  0  0  0  0  0  0  0
   26.3920  -19.0486  -10.3146 C   0  0  0  0  0  0  0  0  0  0  0  0
   26.6715  -20.3340  -10.7105 C   0  0  0  0  0  0  0  0  0  0  0  0
   25.1135  -19.7728  -13.7396 C   0  0  0  0  0  0  0  0  0  0  0  0
   24.9365  -18.5496  -13.6533 O   0  0  0  0  0  0  0  0  0  0  0  0
   21.0931  -19.4219  -16.2598 C   0  0  0  0  0  0  0  0  0  0  0  0
   22.0866  -19.3516  -15.1348 C   0  0  0  0  0  0  0  0  0  0  0  0
   21.7147  -20.2188  -13.9560 C   0  0  2  0  0  0  0  0  0  0  0  0
   20.3803  -19.7771  -13.4361 C   0  0  0  0  0  0  0  0  0  0  0  0
   22.7829  -20.1998  -12.8852 C   0  0  2  0  0  0  0  0  0  0  0  0
   24.0557  -20.6520  -13.3822 N   0  0  0  0  0  0  0  0  0  0  0  0
   22.3536  -21.0247  -11.7078 C   0  0  0  0  0  0  0  0  0  0  0  0
   22.6855  -22.2316  -11.5885 O   0  0  0  0  0  0  0  0  0  0  0  0
   21.5717  -20.4669  -10.7137 O   0  0  0  0  0  0  0  0  0  0  0  0
  2  3  1  0
  2  1  1  6
  3  4  1  0
  5  4  1  0
  6  5  1  0
  7  6  1  0
  8  2  1  0
  8  9  2  0
 10  8  1  0
 11 10  1  0
 11 22  1  0
 11 12  1  1
 13 12  1  0
 13 14  2  0
 15 14  1  0
 16 15  1  0
 17 16  2  0
 18 17  1  0
 19 18  2  0
 19 20  1  0
 20 21  2  0
 21 16  1  0
 21 13  1  0
 22 23  2  0
 22 29  1  0
 24 25  1  0
 25 26  1  0
 26 28  1  0
 26 27  1  1
 28 30  1  0
 28 29  1  6
 30 31  2  0
 30 32  1  0
M  END
$$$$
