KWI.pdb
     RDKit          3D

 32 33  0  0  1  0  0  0  0  0999 V2000
   29.1168  -21.9107  -17.2761 N   0  0  0  0  0  0  0  0  0  0  0  0
   29.3747  -20.6275  -16.6537 C   0  0  1  0  0  0  0  0  0  0  0  0
   29.7492  -19.6898  -17.8104 C   0  0  0  0  0  0  0  0  0  0  0  0
   28.9086  -20.1198  -18.9965 C   0  0  0  0  0  0  0  0  0  0  0  0
   29.7736  -20.5859  -20.1473 C   0  0  0  0  0  0  0  0  0  0  0  0
   28.8908  -20.7033  -21.3698 C   0  0  0  0  0  0  0  0  0  0  0  0
   29.6949  -21.1939  -22.4610 N   0  0  0  0  0  0  0  0  0  0  0  0
   28.1380  -20.1253  -16.0536 C   0  0  0  0  0  0  0  0  0  0  0  0
   28.1491  -19.0601  -15.3983 O   0  0  0  0  0  0  0  0  0  0  0  0
   26.8781  -20.8164  -16.1850 N   0  0  0  0  0  0  0  0  0  0  0  0
   25.6971  -20.3206  -15.5516 C   0  0  1  0  0  0  0  0  0  0  0  0
   24.4696  -20.4140  -16.4284 C   0  0  0  0  0  0  0  0  0  0  0  0
   23.3055  -19.7652  -15.7895 C   0  0  0  0  0  0  0  0  0  0  0  0
   23.1807  -18.4657  -15.3578 C   0  0  0  0  0  0  0  0  0  0  0  0
   21.9583  -18.2798  -14.8334 N   0  0  0  0  0  0  0  0  0  0  0  0
   21.2493  -19.4179  -14.8972 C   0  0  0  0  0  0  0  0  0  0  0  0
   19.9740  -19.7930  -14.5183 C   0  0  0  0  0  0  0  0  0  0  0  0
   19.5000  -21.0892  -14.7193 C   0  0  0  0  0  0  0  0  0  0  0  0
   20.3400  -22.0027  -15.3117 C   0  0  0  0  0  0  0  0  0  0  0  0
   21.6096  -21.6227  -15.6868 C   0  0  0  0  0  0  0  0  0  0  0  0
   22.0857  -20.3488  -15.4934 C   0  0  0  0  0  0  0  0  0  0  0  0
   25.4660  -21.1104  -14.3154 C   0  0  0  0  0  0  0  0  0  0  0  0
   25.6591  -22.3341  -14.3014 O   0  0  0  0  0  0  0  0  0  0  0  0
   27.9300  -20.4807   -9.8781 C   0  0  0  0  0  0  0  0  0  0  0  0
   27.0347  -21.0492  -10.9425 C   0  0  0  0  0  0  0  0  0  0  0  0
   25.5814  -20.6841  -10.7567 C   0  0  2  0  0  0  0  0  0  0  0  0
   25.1156  -21.2212   -9.4375 C   0  0  0  0  0  0  0  0  0  0  0  0
   24.7285  -21.1693  -11.9078 C   0  0  2  0  0  0  0  0  0  0  0  0
   25.0182  -20.4668  -13.1300 N   0  0  0  0  0  0  0  0  0  0  0  0
   23.2732  -21.0495  -11.5631 C   0  0  0  0  0  0  0  0  0  0  0  0
   22.6566  -19.9583  -11.6637 O   0  0  0  0  0  0  0  0  0  0  0  0
   22.5683  -22.1531  -11.1207 O   0  0  0  0  0  0  0  0  0  0  0  0
  2  3  1  0
  2  1  1  6
  3  4  1  0
  5  4  1  0
  6  5  1  0
  7  6  1  0
  8  2  1  0
  8  9  2  0
 10  8  1  0
 11 10  1  0
 11 22  1  0
 11 12  1  6
 13 12  1  0
 13 14  2  0
 15 14  1  0
 16 15  1  0
 17 16  2  0
 18 17  1  0
 19 18  2  0
 19 20  1  0
 20 21  2  0
 21 16  1  0
 21 13  1  0
 22 23  2  0
 22 29  1  0
 24 25  1  0
 25 26  1  0
 26 28  1  0
 26 27  1  1
 28 30  1  0
 28 29  1  6
 30 31  2  0
 30 32  1  0
M  END
$$$$
