KWI.pdb
     RDKit          3D

 32 33  0  0  1  0  0  0  0  0999 V2000
   26.9283  -22.0787  -15.1517 N   0  0  0  0  0  0  0  0  0  0  0  0
   27.0207  -20.8518  -14.3859 C   0  0  1  0  0  0  0  0  0  0  0  0
   26.0640  -19.8729  -15.0814 C   0  0  0  0  0  0  0  0  0  0  0  0
   26.6947  -19.5390  -16.4189 C   0  0  0  0  0  0  0  0  0  0  0  0
   27.7980  -18.5141  -16.2695 C   0  0  0  0  0  0  0  0  0  0  0  0
   28.3205  -18.1940  -17.6523 C   0  0  0  0  0  0  0  0  0  0  0  0
   29.3732  -17.2180  -17.5216 N   0  0  0  0  0  0  0  0  0  0  0  0
   26.5134  -21.0880  -13.0336 C   0  0  0  0  0  0  0  0  0  0  0  0
   25.5626  -21.8799  -12.8523 O   0  0  0  0  0  0  0  0  0  0  0  0
   27.0707  -20.4357  -11.8734 N   0  0  0  0  0  0  0  0  0  0  0  0
   26.5437  -20.6795  -10.5678 C   0  0  1  0  0  0  0  0  0  0  0  0
   27.3787  -20.0671   -9.4668 C   0  0  0  0  0  0  0  0  0  0  0  0
   26.8635  -20.4422   -8.1334 C   0  0  0  0  0  0  0  0  0  0  0  0
   25.7947  -21.2507   -7.8257 C   0  0  0  0  0  0  0  0  0  0  0  0
   25.6622  -21.3352   -6.4918 N   0  0  0  0  0  0  0  0  0  0  0  0
   26.6120  -20.6061   -5.8851 C   0  0  0  0  0  0  0  0  0  0  0  0
   26.9428  -20.3390   -4.5698 C   0  0  0  0  0  0  0  0  0  0  0  0
   28.0191  -19.5173   -4.2361 C   0  0  0  0  0  0  0  0  0  0  0  0
   28.7578  -18.9684   -5.2578 C   0  0  0  0  0  0  0  0  0  0  0  0
   28.4230  -19.2383   -6.5663 C   0  0  0  0  0  0  0  0  0  0  0  0
   27.3651  -20.0463   -6.9055 C   0  0  0  0  0  0  0  0  0  0  0  0
   25.1737  -20.1096  -10.5055 C   0  0  0  0  0  0  0  0  0  0  0  0
   25.0004  -18.8841  -10.4524 O   0  0  0  0  0  0  0  0  0  0  0  0
   22.4165  -20.8586  -14.5435 C   0  0  0  0  0  0  0  0  0  0  0  0
   22.8980  -20.3697  -13.2068 C   0  0  0  0  0  0  0  0  0  0  0  0
   22.1378  -20.9641  -12.0455 C   0  0  2  0  0  0  0  0  0  0  0  0
   20.6854  -20.6282  -12.1991 C   0  0  0  0  0  0  0  0  0  0  0  0
   22.6954  -20.5068  -10.7158 C   0  0  2  0  0  0  0  0  0  0  0  0
   24.0420  -20.9693  -10.5056 N   0  0  0  0  0  0  0  0  0  0  0  0
   21.8032  -20.9552   -9.5960 C   0  0  0  0  0  0  0  0  0  0  0  0
   21.0568  -20.1511   -8.9817 O   0  0  0  0  0  0  0  0  0  0  0  0
   21.7825  -22.2821   -9.2097 O   0  0  0  0  0  0  0  0  0  0  0  0
  2  3  1  0
  2  1  1  6
  3  4  1  0
  5  4  1  0
  6  5  1  0
  7  6  1  0
  8  2  1  0
  8  9  2  0
 10  8  1  0
 11 10  1  0
 11 22  1  0
 11 12  1  1
 13 12  1  0
 13 14  2  0
 15 14  1  0
 16 15  1  0
 17 16  2  0
 18 17  1  0
 19 18  2  0
 19 20  1  0
 20 21  2  0
 21 16  1  0
 21 13  1  0
 22 23  2  0
 22 29  1  0
 24 25  1  0
 25 26  1  0
 26 28  1  0
 26 27  1  6
 28 30  1  0
 28 29  1  1
 30 31  2  0
 30 32  1  0
M  END
$$$$
