KWI.pdb
     RDKit          3D

 32 33  0  0  1  0  0  0  0  0999 V2000
   27.3444  -22.7347  -13.4224 N   0  0  0  0  0  0  0  0  0  0  0  0
   27.0342  -21.4153  -12.9091 C   0  0  1  0  0  0  0  0  0  0  0  0
   26.1318  -20.7740  -13.9729 C   0  0  0  0  0  0  0  0  0  0  0  0
   26.9908  -20.5969  -15.2095 C   0  0  0  0  0  0  0  0  0  0  0  0
   26.2561  -19.8308  -16.2880 C   0  0  0  0  0  0  0  0  0  0  0  0
   27.2100  -19.6340  -17.4451 C   0  0  0  0  0  0  0  0  0  0  0  0
   26.4885  -19.0028  -18.5217 N   0  0  0  0  0  0  0  0  0  0  0  0
   26.2514  -21.5478  -11.6797 C   0  0  0  0  0  0  0  0  0  0  0  0
   25.7863  -22.6616  -11.3521 O   0  0  0  0  0  0  0  0  0  0  0  0
   25.9846  -20.4292  -10.8081 N   0  0  0  0  0  0  0  0  0  0  0  0
   25.2209  -20.5942   -9.6117 C   0  0  1  0  0  0  0  0  0  0  0  0
   25.5776  -19.5929   -8.5372 C   0  0  0  0  0  0  0  0  0  0  0  0
   26.9266  -19.8516   -7.9919 C   0  0  0  0  0  0  0  0  0  0  0  0
   28.1005  -20.0609   -8.6768 C   0  0  0  0  0  0  0  0  0  0  0  0
   29.1025  -20.2591   -7.8047 N   0  0  0  0  0  0  0  0  0  0  0  0
   28.6411  -20.1902   -6.5460 C   0  0  0  0  0  0  0  0  0  0  0  0
   29.2103  -20.3128   -5.2923 C   0  0  0  0  0  0  0  0  0  0  0  0
   28.4538  -20.1876   -4.1274 C   0  0  0  0  0  0  0  0  0  0  0  0
   27.1078  -19.9353   -4.2517 C   0  0  0  0  0  0  0  0  0  0  0  0
   26.5466  -19.8142   -5.5037 C   0  0  0  0  0  0  0  0  0  0  0  0
   27.2829  -19.9358   -6.6570 C   0  0  0  0  0  0  0  0  0  0  0  0
   23.7836  -20.4417   -9.9528 C   0  0  0  0  0  0  0  0  0  0  0  0
   23.4262  -19.6732  -10.8565 O   0  0  0  0  0  0  0  0  0  0  0  0
   18.5242  -23.6449   -8.7719 C   0  0  0  0  0  0  0  0  0  0  0  0
   19.2987  -22.5751   -9.4884 C   0  0  0  0  0  0  0  0  0  0  0  0
   20.6637  -22.3269   -8.8926 C   0  0  2  0  0  0  0  0  0  0  0  0
   20.5012  -21.9933   -7.4406 C   0  0  0  0  0  0  0  0  0  0  0  0
   21.4197  -21.2557   -9.6468 C   0  0  2  0  0  0  0  0  0  0  0  0
   22.7987  -21.1793   -9.2417 N   0  0  0  0  0  0  0  0  0  0  0  0
   20.7459  -19.9261   -9.4765 C   0  0  0  0  0  0  0  0  0  0  0  0
   21.2052  -19.0448   -8.7063 O   0  0  0  0  0  0  0  0  0  0  0  0
   19.5877  -19.6371  -10.1734 O   0  0  0  0  0  0  0  0  0  0  0  0
  2  3  1  0
  2  1  1  6
  3  4  1  0
  5  4  1  0
  6  5  1  0
  7  6  1  0
  8  2  1  0
  8  9  2  0
 10  8  1  0
 11 10  1  0
 11 22  1  0
 11 12  1  1
 13 12  1  0
 13 14  2  0
 15 14  1  0
 16 15  1  0
 17 16  2  0
 18 17  1  0
 19 18  2  0
 19 20  1  0
 20 21  2  0
 21 16  1  0
 21 13  1  0
 22 23  2  0
 22 29  1  0
 24 25  1  0
 25 26  1  0
 26 28  1  0
 26 27  1  1
 28 30  1  0
 28 29  1  1
 30 31  2  0
 30 32  1  0
M  END
$$$$
