KWI.pdb
     RDKit          3D

 32 33  0  0  1  0  0  0  0  0999 V2000
   26.2187  -21.4849  -12.8688 N   0  0  0  0  0  0  0  0  0  0  0  0
   25.5602  -20.4476  -12.1003 C   0  0  1  0  0  0  0  0  0  0  0  0
   24.3290  -20.0556  -12.9298 C   0  0  0  0  0  0  0  0  0  0  0  0
   24.6856  -20.3308  -14.3773 C   0  0  0  0  0  0  0  0  0  0  0  0
   24.3363  -19.1566  -15.2657 C   0  0  0  0  0  0  0  0  0  0  0  0
   24.7530  -19.5059  -16.6770 C   0  0  0  0  0  0  0  0  0  0  0  0
   24.3895  -18.4092  -17.5389 N   0  0  0  0  0  0  0  0  0  0  0  0
   25.0861  -21.0115  -10.8358 C   0  0  0  0  0  0  0  0  0  0  0  0
   24.7571  -22.2165  -10.7733 O   0  0  0  0  0  0  0  0  0  0  0  0
   24.9776  -20.2255   -9.6306 N   0  0  0  0  0  0  0  0  0  0  0  0
   24.5364  -20.8138   -8.4054 C   0  0  1  0  0  0  0  0  0  0  0  0
   25.1135  -20.1397   -7.1818 C   0  0  0  0  0  0  0  0  0  0  0  0
   26.5887  -20.2275   -7.1688 C   0  0  0  0  0  0  0  0  0  0  0  0
   27.4304  -20.6340   -8.1773 C   0  0  0  0  0  0  0  0  0  0  0  0
   28.7042  -20.5658   -7.7569 N   0  0  0  0  0  0  0  0  0  0  0  0
   28.7506  -20.1241   -6.4902 C   0  0  0  0  0  0  0  0  0  0  0  0
   29.7632  -19.8691   -5.5844 C   0  0  0  0  0  0  0  0  0  0  0  0
   29.4966  -19.4008   -4.2981 C   0  0  0  0  0  0  0  0  0  0  0  0
   28.1846  -19.1938   -3.9418 C   0  0  0  0  0  0  0  0  0  0  0  0
   27.1802  -19.4498   -4.8488 C   0  0  0  0  0  0  0  0  0  0  0  0
   27.4323  -19.9111   -6.1179 C   0  0  0  0  0  0  0  0  0  0  0  0
   23.0553  -20.7208   -8.3517 C   0  0  0  0  0  0  0  0  0  0  0  0
   22.4721  -19.6937   -8.7260 O   0  0  0  0  0  0  0  0  0  0  0  0
   17.9883  -23.5080   -9.6775 C   0  0  0  0  0  0  0  0  0  0  0  0
   18.6826  -22.6215   -8.6827 C   0  0  0  0  0  0  0  0  0  0  0  0
   20.1883  -22.7089   -8.7553 C   0  0  2  0  0  0  0  0  0  0  0  0
   20.5963  -24.1391   -8.5713 C   0  0  0  0  0  0  0  0  0  0  0  0
   20.8534  -21.7889   -7.7557 C   0  0  2  0  0  0  0  0  0  0  0  0
   22.2881  -21.8147   -7.8674 N   0  0  0  0  0  0  0  0  0  0  0  0
   20.4268  -22.1409   -6.3611 C   0  0  0  0  0  0  0  0  0  0  0  0
   21.2226  -22.6569   -5.5356 O   0  0  0  0  0  0  0  0  0  0  0  0
   19.1298  -21.9018   -5.9474 O   0  0  0  0  0  0  0  0  0  0  0  0
  2  3  1  0
  2  1  1  6
  3  4  1  0
  5  4  1  0
  6  5  1  0
  7  6  1  0
  8  2  1  0
  8  9  2  0
 10  8  1  0
 11 10  1  0
 11 22  1  0
 11 12  1  1
 13 12  1  0
 13 14  2  0
 15 14  1  0
 16 15  1  0
 17 16  2  0
 18 17  1  0
 19 18  2  0
 19 20  1  0
 20 21  2  0
 21 16  1  0
 21 13  1  0
 22 23  2  0
 22 29  1  0
 24 25  1  0
 25 26  1  0
 26 28  1  0
 26 27  1  1
 28 30  1  0
 28 29  1  1
 30 31  2  0
 30 32  1  0
M  END
$$$$
