KWI.pdb
     RDKit          3D

 32 33  0  0  1  0  0  0  0  0999 V2000
   28.8226  -21.1659  -15.4058 N   0  0  0  0  0  0  0  0  0  0  0  0
   28.2416  -20.2918  -14.4064 C   0  0  1  0  0  0  0  0  0  0  0  0
   27.6038  -19.1434  -15.2013 C   0  0  0  0  0  0  0  0  0  0  0  0
   28.5886  -18.7856  -16.2970 C   0  0  0  0  0  0  0  0  0  0  0  0
   28.9484  -17.3162  -16.2587 C   0  0  0  0  0  0  0  0  0  0  0  0
   29.9275  -17.0517  -17.3808 C   0  0  0  0  0  0  0  0  0  0  0  0
   30.2811  -15.6546  -17.3505 N   0  0  0  0  0  0  0  0  0  0  0  0
   27.1690  -21.0025  -13.7091 C   0  0  0  0  0  0  0  0  0  0  0  0
   26.3353  -21.6699  -14.3600 O   0  0  0  0  0  0  0  0  0  0  0  0
   27.0242  -20.9687  -12.2738 N   0  0  0  0  0  0  0  0  0  0  0  0
   25.9842  -21.6999  -11.6215 C   0  0  1  0  0  0  0  0  0  0  0  0
   26.3182  -22.0594  -10.1920 C   0  0  0  0  0  0  0  0  0  0  0  0
   26.5533  -20.8489   -9.3773 C   0  0  0  0  0  0  0  0  0  0  0  0
   25.9120  -19.6345   -9.4448 C   0  0  0  0  0  0  0  0  0  0  0  0
   26.4273  -18.8005   -8.5267 N   0  0  0  0  0  0  0  0  0  0  0  0
   27.4011  -19.4155   -7.8374 C   0  0  0  0  0  0  0  0  0  0  0  0
   28.2469  -19.0474   -6.8078 C   0  0  0  0  0  0  0  0  0  0  0  0
   29.1878  -19.9308   -6.2795 C   0  0  0  0  0  0  0  0  0  0  0  0
   29.2596  -21.1969   -6.8113 C   0  0  0  0  0  0  0  0  0  0  0  0
   28.4142  -21.5576   -7.8371 C   0  0  0  0  0  0  0  0  0  0  0  0
   27.4841  -20.6950   -8.3643 C   0  0  0  0  0  0  0  0  0  0  0  0
   24.7536  -20.8687  -11.6331 C   0  0  0  0  0  0  0  0  0  0  0  0
   24.8226  -19.6354  -11.5374 O   0  0  0  0  0  0  0  0  0  0  0  0
   23.2733  -20.6909  -16.0441 C   0  0  0  0  0  0  0  0  0  0  0  0
   23.3491  -20.4446  -14.5638 C   0  0  0  0  0  0  0  0  0  0  0  0
   22.1993  -21.0543  -13.7983 C   0  0  2  0  0  0  0  0  0  0  0  0
   20.9145  -20.5152  -14.3503 C   0  0  0  0  0  0  0  0  0  0  0  0
   22.3279  -20.8195  -12.3096 C   0  0  2  0  0  0  0  0  0  0  0  0
   23.4779  -21.4832  -11.7542 N   0  0  0  0  0  0  0  0  0  0  0  0
   21.0769  -21.2541  -11.6047 C   0  0  0  0  0  0  0  0  0  0  0  0
   20.8609  -22.4602  -11.3223 O   0  0  0  0  0  0  0  0  0  0  0  0
   20.1201  -20.3237  -11.2451 O   0  0  0  0  0  0  0  0  0  0  0  0
  2  3  1  0
  2  1  1  6
  3  4  1  0
  5  4  1  0
  6  5  1  0
  7  6  1  0
  8  2  1  0
  8  9  2  0
 10  8  1  0
 11 10  1  0
 11 22  1  0
 11 12  1  1
 13 12  1  0
 13 14  2  0
 15 14  1  0
 16 15  1  0
 17 16  2  0
 18 17  1  0
 19 18  2  0
 19 20  1  0
 20 21  2  0
 21 16  1  0
 21 13  1  0
 22 23  2  0
 22 29  1  0
 24 25  1  0
 25 26  1  0
 26 28  1  0
 26 27  1  6
 28 30  1  0
 28 29  1  1
 30 31  2  0
 30 32  1  0
M  END
$$$$
