SQK.pdb
     RDKit          3D

 25 24  0  0  1  0  0  0  0  0999 V2000
   15.0366   -8.3907  -13.1748 O   0  0  0  0  0  0  0  0  0  0  0  0
   15.7029   -9.5973  -13.2453 C   0  0  0  0  0  0  0  0  0  0  0  0
   16.7561   -9.6660  -12.1580 C   0  0  2  0  0  0  0  0  0  0  0  0
   16.1516   -9.5921  -10.8630 N   0  0  0  0  0  0  0  0  0  0  0  0
   17.6845   -8.5338  -12.3384 C   0  0  0  0  0  0  0  0  0  0  0  0
   17.6163   -7.5657  -11.5056 O   0  0  0  0  0  0  0  0  0  0  0  0
   23.5474   -9.0976  -13.9238 N   0  0  0  0  0  0  0  0  0  0  0  0
   22.5192   -9.5638  -14.7878 C   0  0  0  0  0  0  0  0  0  0  0  0
   22.8372  -10.4095  -15.6506 O   0  0  0  0  0  0  0  0  0  0  0  0
   21.1397   -9.0592  -14.6601 C   0  0  0  0  0  0  0  0  0  0  0  0
   20.9896   -8.0546  -13.5691 C   0  0  0  0  0  0  0  0  0  0  0  0
   19.6203   -7.4884  -13.5042 C   0  0  2  0  0  0  0  0  0  0  0  0
   18.6097   -8.5375  -13.3997 N   0  0  0  0  0  0  0  0  0  0  0  0
   19.3110   -6.7885  -14.8011 C   0  0  0  0  0  0  0  0  0  0  0  0
   18.8684   -7.4125  -15.8129 O   0  0  0  0  0  0  0  0  0  0  0  0
   19.4925   -5.3957  -14.9764 N   0  0  0  0  0  0  0  0  0  0  0  0
   19.1870   -4.7382  -16.2225 C   0  0  1  0  0  0  0  0  0  0  0  0
   17.8753   -4.0415  -16.2639 C   0  0  0  0  0  0  0  0  0  0  0  0
   17.5897   -3.2111  -17.4555 C   0  0  0  0  0  0  0  0  0  0  0  0
   16.2613   -3.4343  -18.1001 C   0  0  0  0  0  0  0  0  0  0  0  0
   16.1128   -2.5049  -19.3249 C   0  0  0  0  0  0  0  0  0  0  0  0
   14.9081   -2.9291  -19.9987 N   0  0  0  0  0  0  0  0  0  0  0  0
   20.3007   -3.8892  -16.6583 C   0  0  0  0  0  0  0  0  0  0  0  0
   21.0201   -3.2442  -15.8180 O   0  0  0  0  0  0  0  0  0  0  0  0
   20.6450   -3.7293  -17.9840 O   0  0  0  0  0  0  0  0  0  0  0  0
  2  1  1  0
  3  2  1  0
  3  4  1  1
  5  6  2  0
  5  3  1  0
  7  8  1  0
  8 10  1  0
  9  8  2  0
 10 11  1  0
 12 11  1  6
 12 13  1  0
 13  5  1  0
 14 12  1  0
 14 16  1  0
 15 14  2  0
 17 16  1  0
 17 18  1  1
 18 19  1  0
 20 19  1  0
 21 22  1  0
 21 20  1  0
 23 17  1  0
 24 23  2  0
 25 23  1  0
M  END
$$$$
