SQK.pdb
     RDKit          3D

 25 24  0  0  1  0  0  0  0  0999 V2000
   18.0805  -12.0330  -15.6789 O   0  0  0  0  0  0  0  0  0  0  0  0
   18.5158  -11.2208  -14.6514 C   0  0  0  0  0  0  0  0  0  0  0  0
   17.4710  -10.1640  -14.3553 C   0  0  2  0  0  0  0  0  0  0  0  0
   17.3529   -9.2490  -15.4491 N   0  0  0  0  0  0  0  0  0  0  0  0
   17.8792   -9.4350  -13.1395 C   0  0  0  0  0  0  0  0  0  0  0  0
   18.0550  -10.1102  -12.0677 O   0  0  0  0  0  0  0  0  0  0  0  0
   21.2686   -4.2323  -12.9507 N   0  0  0  0  0  0  0  0  0  0  0  0
   21.6559   -5.5890  -13.1261 C   0  0  0  0  0  0  0  0  0  0  0  0
   22.8202   -5.8042  -13.5248 O   0  0  0  0  0  0  0  0  0  0  0  0
   20.7108   -6.6856  -12.8468 C   0  0  0  0  0  0  0  0  0  0  0  0
   19.4065   -6.2031  -12.3104 C   0  0  0  0  0  0  0  0  0  0  0  0
   18.4827   -7.3155  -11.9805 C   0  0  2  0  0  0  0  0  0  0  0  0
   18.0650   -8.0398  -13.1779 N   0  0  0  0  0  0  0  0  0  0  0  0
   17.2079   -6.7499  -11.4126 C   0  0  0  0  0  0  0  0  0  0  0  0
   16.2769   -6.3129  -12.1551 O   0  0  0  0  0  0  0  0  0  0  0  0
   16.9652   -6.6686  -10.0205 N   0  0  0  0  0  0  0  0  0  0  0  0
   15.7422   -6.1188   -9.4910 C   0  0  1  0  0  0  0  0  0  0  0  0
   15.0692   -6.9519   -8.4610 C   0  0  0  0  0  0  0  0  0  0  0  0
   13.7751   -6.4612   -7.9363 C   0  0  0  0  0  0  0  0  0  0  0  0
   13.0713   -7.3729   -6.9858 C   0  0  0  0  0  0  0  0  0  0  0  0
   11.7726   -6.7032   -6.4850 C   0  0  0  0  0  0  0  0  0  0  0  0
   11.1545   -7.6572   -5.5944 N   0  0  0  0  0  0  0  0  0  0  0  0
   15.9282   -4.7263   -9.0698 C   0  0  0  0  0  0  0  0  0  0  0  0
   17.0423   -4.3142   -8.5915 O   0  0  0  0  0  0  0  0  0  0  0  0
   14.9306   -3.7784   -9.1585 O   0  0  0  0  0  0  0  0  0  0  0  0
  2  1  1  0
  3  2  1  0
  3  4  1  6
  5  6  2  0
  5  3  1  0
  7  8  1  0
  8 10  1  0
  9  8  2  0
 10 11  1  0
 12 11  1  6
 12 13  1  0
 13  5  1  0
 14 12  1  0
 14 16  1  0
 15 14  2  0
 17 16  1  0
 17 18  1  1
 18 19  1  0
 20 19  1  0
 21 22  1  0
 21 20  1  0
 23 17  1  0
 24 23  2  0
 25 23  1  0
M  END
$$$$
