SQK.pdb
     RDKit          3D

 25 24  0  0  1  0  0  0  0  0999 V2000
   15.9824   -3.6836  -13.1566 O   0  0  0  0  0  0  0  0  0  0  0  0
   15.7560   -4.8347  -13.8838 C   0  0  0  0  0  0  0  0  0  0  0  0
   17.0674   -5.3639  -14.4278 C   0  0  2  0  0  0  0  0  0  0  0  0
   17.6033   -4.4732  -15.4114 N   0  0  0  0  0  0  0  0  0  0  0  0
   16.8188   -6.6845  -15.0364 C   0  0  0  0  0  0  0  0  0  0  0  0
   16.0117   -6.7445  -16.0266 O   0  0  0  0  0  0  0  0  0  0  0  0
   21.0694  -11.0158  -15.3510 N   0  0  0  0  0  0  0  0  0  0  0  0
   20.7075  -10.0946  -16.3717 C   0  0  0  0  0  0  0  0  0  0  0  0
   21.5683   -9.8353  -17.2392 O   0  0  0  0  0  0  0  0  0  0  0  0
   19.3686   -9.4776  -16.3912 C   0  0  0  0  0  0  0  0  0  0  0  0
   18.5181   -9.9036  -15.2435 C   0  0  0  0  0  0  0  0  0  0  0  0
   17.2538   -9.1331  -15.1579 C   0  0  2  0  0  0  0  0  0  0  0  0
   17.4597   -7.8311  -14.5293 N   0  0  0  0  0  0  0  0  0  0  0  0
   16.2963   -9.8509  -14.2438 C   0  0  0  0  0  0  0  0  0  0  0  0
   16.2540   -9.6179  -12.9977 O   0  0  0  0  0  0  0  0  0  0  0  0
   15.3852  -10.8279  -14.7117 N   0  0  0  0  0  0  0  0  0  0  0  0
   14.4761  -11.5093  -13.8241 C   0  0  1  0  0  0  0  0  0  0  0  0
   13.5295  -10.6288  -13.0919 C   0  0  0  0  0  0  0  0  0  0  0  0
   12.6064  -11.2788  -12.1346 C   0  0  0  0  0  0  0  0  0  0  0  0
   11.6695  -10.3665  -11.4135 C   0  0  0  0  0  0  0  0  0  0  0  0
   10.8381  -11.1734  -10.3920 C   0  0  0  0  0  0  0  0  0  0  0  0
   10.0461  -10.2032   -9.6731 N   0  0  0  0  0  0  0  0  0  0  0  0
   13.8110  -12.6254  -14.5047 C   0  0  0  0  0  0  0  0  0  0  0  0
   13.1702  -13.5217  -13.8523 O   0  0  0  0  0  0  0  0  0  0  0  0
   13.8296  -12.7841  -15.8744 O   0  0  0  0  0  0  0  0  0  0  0  0
  2  1  1  0
  3  2  1  0
  3  4  1  6
  5  6  2  0
  5  3  1  0
  7  8  1  0
  8 10  1  0
  9  8  2  0
 10 11  1  0
 12 11  1  1
 12 13  1  0
 13  5  1  0
 14 12  1  0
 14 16  1  0
 15 14  2  0
 17 16  1  0
 17 18  1  6
 18 19  1  0
 20 19  1  0
 21 22  1  0
 21 20  1  0
 23 17  1  0
 24 23  2  0
 25 23  1  0
M  END
$$$$
