SQK.pdb
     RDKit          3D

 25 24  0  0  1  0  0  0  0  0999 V2000
   26.9356  -21.7438  -13.7200 O   0  0  0  0  0  0  0  0  0  0  0  0
   26.2280  -22.4309  -14.6854 C   0  0  0  0  0  0  0  0  0  0  0  0
   25.4296  -21.4562  -15.5271 C   0  0  2  0  0  0  0  0  0  0  0  0
   26.2831  -20.4511  -16.0833 N   0  0  0  0  0  0  0  0  0  0  0  0
   24.4125  -20.8235  -14.6661 C   0  0  0  0  0  0  0  0  0  0  0  0
   24.5932  -19.6049  -14.3231 O   0  0  0  0  0  0  0  0  0  0  0  0
   20.4162  -18.8218  -17.2595 N   0  0  0  0  0  0  0  0  0  0  0  0
   21.3510  -18.1428  -16.4309 C   0  0  0  0  0  0  0  0  0  0  0  0
   21.6328  -16.9640  -16.7340 O   0  0  0  0  0  0  0  0  0  0  0  0
   21.9557  -18.8158  -15.2668 C   0  0  0  0  0  0  0  0  0  0  0  0
   21.4360  -20.1979  -15.0627 C   0  0  0  0  0  0  0  0  0  0  0  0
   22.0476  -20.8660  -13.8883 C   0  0  2  0  0  0  0  0  0  0  0  0
   23.2848  -21.5545  -14.2460 N   0  0  0  0  0  0  0  0  0  0  0  0
   21.1296  -21.9573  -13.4047 C   0  0  0  0  0  0  0  0  0  0  0  0
   20.9506  -23.0263  -14.0636 O   0  0  0  0  0  0  0  0  0  0  0  0
   20.4096  -21.8633  -12.1897 N   0  0  0  0  0  0  0  0  0  0  0  0
   19.5874  -22.9441  -11.7056 C   0  0  1  0  0  0  0  0  0  0  0  0
   19.5875  -23.1260  -10.2309 C   0  0  0  0  0  0  0  0  0  0  0  0
   18.7779  -24.2401   -9.6884 C   0  0  0  0  0  0  0  0  0  0  0  0
   18.6661  -24.2980   -8.2004 C   0  0  0  0  0  0  0  0  0  0  0  0
   17.7910  -25.5025   -7.7893 C   0  0  0  0  0  0  0  0  0  0  0  0
   17.7256  -25.4690   -6.3471 N   0  0  0  0  0  0  0  0  0  0  0  0
   18.2372  -22.8759  -12.2744 C   0  0  0  0  0  0  0  0  0  0  0  0
   17.6870  -21.7559  -12.5615 O   0  0  0  0  0  0  0  0  0  0  0  0
   17.4781  -23.9972  -12.5355 O   0  0  0  0  0  0  0  0  0  0  0  0
  2  1  1  0
  3  2  1  0
  3  4  1  1
  5  6  2  0
  5  3  1  0
  7  8  1  0
  8 10  1  0
  9  8  2  0
 10 11  1  0
 12 11  1  6
 12 13  1  0
 13  5  1  0
 14 12  1  0
 14 16  1  0
 15 14  2  0
 17 16  1  0
 17 18  1  1
 18 19  1  0
 20 19  1  0
 21 22  1  0
 21 20  1  0
 23 17  1  0
 24 23  2  0
 25 23  1  0
M  END
$$$$
