SQK.pdb
     RDKit          3D

 25 24  0  0  1  0  0  0  0  0999 V2000
   18.4617  -11.5453  -17.7618 O   0  0  0  0  0  0  0  0  0  0  0  0
   19.0277  -11.1203  -16.5769 C   0  0  0  0  0  0  0  0  0  0  0  0
   17.9642  -11.0390  -15.5007 C   0  0  2  0  0  0  0  0  0  0  0  0
   16.6558  -11.0606  -16.0798 N   0  0  0  0  0  0  0  0  0  0  0  0
   18.1556   -9.7822  -14.7524 C   0  0  0  0  0  0  0  0  0  0  0  0
   17.6210   -9.6880  -13.5944 O   0  0  0  0  0  0  0  0  0  0  0  0
   23.1407   -6.0232  -14.9765 N   0  0  0  0  0  0  0  0  0  0  0  0
   22.2028   -5.2697  -14.2190 C   0  0  0  0  0  0  0  0  0  0  0  0
   22.6043   -4.2006  -13.7125 O   0  0  0  0  0  0  0  0  0  0  0  0
   20.8177   -5.7442  -14.0457 C   0  0  0  0  0  0  0  0  0  0  0  0
   20.5646   -7.0498  -14.7188 C   0  0  0  0  0  0  0  0  0  0  0  0
   19.1680   -7.5170  -14.5432 C   0  0  2  0  0  0  0  0  0  0  0  0
   18.9071   -8.7311  -15.3119 N   0  0  0  0  0  0  0  0  0  0  0  0
   18.2261   -6.4920  -15.1175 C   0  0  0  0  0  0  0  0  0  0  0  0
   18.1152   -6.3066  -16.3674 O   0  0  0  0  0  0  0  0  0  0  0  0
   17.4066   -5.6721  -14.3053 N   0  0  0  0  0  0  0  0  0  0  0  0
   16.4262   -4.7780  -14.8691 C   0  0  1  0  0  0  0  0  0  0  0  0
   15.0194   -5.0577  -14.4813 C   0  0  0  0  0  0  0  0  0  0  0  0
   13.9942   -4.0799  -14.9098 C   0  0  0  0  0  0  0  0  0  0  0  0
   12.5824   -4.4263  -14.5681 C   0  0  0  0  0  0  0  0  0  0  0  0
   12.2850   -4.0231  -13.1070 C   0  0  0  0  0  0  0  0  0  0  0  0
   10.9313   -4.4530  -12.8465 N   0  0  0  0  0  0  0  0  0  0  0  0
   16.8094   -3.3772  -14.6639 C   0  0  0  0  0  0  0  0  0  0  0  0
   17.5902   -3.0290  -13.7107 O   0  0  0  0  0  0  0  0  0  0  0  0
   16.3617   -2.3532  -15.4719 O   0  0  0  0  0  0  0  0  0  0  0  0
  2  1  1  0
  3  2  1  0
  3  4  1  6
  5  6  2  0
  5  3  1  0
  7  8  1  0
  8 10  1  0
  9  8  2  0
 10 11  1  0
 12 11  1  6
 12 13  1  0
 13  5  1  0
 14 12  1  0
 14 16  1  0
 15 14  2  0
 17 16  1  0
 17 18  1  1
 18 19  1  0
 20 19  1  0
 21 22  1  0
 21 20  1  0
 23 17  1  0
 24 23  2  0
 25 23  1  0
M  END
$$$$
