SQK.pdb
     RDKit          3D

 25 24  0  0  1  0  0  0  0  0999 V2000
   16.9528  -13.1172  -17.9176 O   0  0  0  0  0  0  0  0  0  0  0  0
   17.3021  -11.8492  -17.4992 C   0  0  0  0  0  0  0  0  0  0  0  0
   18.0864  -11.9338  -16.2055 C   0  0  2  0  0  0  0  0  0  0  0  0
   17.5240  -12.9222  -15.3368 N   0  0  0  0  0  0  0  0  0  0  0  0
   18.0439  -10.6133  -15.5492 C   0  0  0  0  0  0  0  0  0  0  0  0
   17.1936  -10.4392  -14.6100 O   0  0  0  0  0  0  0  0  0  0  0  0
   23.0041   -6.8251  -14.9599 N   0  0  0  0  0  0  0  0  0  0  0  0
   21.9535   -6.0989  -14.3353 C   0  0  0  0  0  0  0  0  0  0  0  0
   22.2576   -5.0292  -13.7660 O   0  0  0  0  0  0  0  0  0  0  0  0
   20.5676   -6.6012  -14.3649 C   0  0  0  0  0  0  0  0  0  0  0  0
   20.4401   -7.9070  -15.0723 C   0  0  0  0  0  0  0  0  0  0  0  0
   19.0313   -8.3573  -15.1821 C   0  0  2  0  0  0  0  0  0  0  0  0
   18.9202   -9.5897  -15.9577 N   0  0  0  0  0  0  0  0  0  0  0  0
   18.2453   -7.3405  -15.9669 C   0  0  0  0  0  0  0  0  0  0  0  0
   18.3754   -7.2132  -17.2222 O   0  0  0  0  0  0  0  0  0  0  0  0
   17.3143   -6.4643  -15.3594 N   0  0  0  0  0  0  0  0  0  0  0  0
   16.5865   -5.4792  -16.1200 C   0  0  1  0  0  0  0  0  0  0  0  0
   15.1071   -5.6059  -16.0654 C   0  0  0  0  0  0  0  0  0  0  0  0
   14.3583   -5.3104  -17.3075 C   0  0  0  0  0  0  0  0  0  0  0  0
   12.8731   -5.4363  -17.2167 C   0  0  0  0  0  0  0  0  0  0  0  0
   12.2344   -5.0719  -18.5751 C   0  0  0  0  0  0  0  0  0  0  0  0
   10.8425   -5.4414  -18.4687 N   0  0  0  0  0  0  0  0  0  0  0  0
   17.0572   -4.1239  -15.8156 C   0  0  0  0  0  0  0  0  0  0  0  0
   17.4605   -3.8021  -14.6436 O   0  0  0  0  0  0  0  0  0  0  0  0
   17.0973   -3.1170  -16.7570 O   0  0  0  0  0  0  0  0  0  0  0  0
  2  1  1  0
  3  2  1  0
  3  4  1  1
  5  6  2  0
  5  3  1  0
  7  8  1  0
  8 10  1  0
  9  8  2  0
 10 11  1  0
 12 11  1  6
 12 13  1  0
 13  5  1  0
 14 12  1  0
 14 16  1  0
 15 14  2  0
 17 16  1  0
 17 18  1  1
 18 19  1  0
 20 19  1  0
 21 22  1  0
 21 20  1  0
 23 17  1  0
 24 23  2  0
 25 23  1  0
M  END
$$$$
