SQK.pdb
     RDKit          3D

 25 24  0  0  1  0  0  0  0  0999 V2000
   17.6728  -10.2929  -17.6113 O   0  0  0  0  0  0  0  0  0  0  0  0
   18.7162  -11.0601  -17.1341 C   0  0  0  0  0  0  0  0  0  0  0  0
   18.7735  -10.9650  -15.6230 C   0  0  2  0  0  0  0  0  0  0  0  0
   17.5137  -11.3220  -15.0456 N   0  0  0  0  0  0  0  0  0  0  0  0
   19.1120   -9.5765  -15.2574 C   0  0  0  0  0  0  0  0  0  0  0  0
   18.3081   -8.9479  -14.4866 O   0  0  0  0  0  0  0  0  0  0  0  0
   21.9028   -6.7072  -12.5052 N   0  0  0  0  0  0  0  0  0  0  0  0
   22.3495   -5.7349  -13.4413 C   0  0  0  0  0  0  0  0  0  0  0  0
   22.5847   -4.5878  -13.0059 O   0  0  0  0  0  0  0  0  0  0  0  0
   22.5217   -6.0806  -14.8642 C   0  0  0  0  0  0  0  0  0  0  0  0
   22.1174   -7.4818  -15.1725 C   0  0  0  0  0  0  0  0  0  0  0  0
   20.6521   -7.6224  -15.3535 C   0  0  2  0  0  0  0  0  0  0  0  0
   20.2878   -8.9796  -15.7511 N   0  0  0  0  0  0  0  0  0  0  0  0
   20.2089   -6.7563  -16.5028 C   0  0  0  0  0  0  0  0  0  0  0  0
   20.5084   -7.0292  -17.7048 O   0  0  0  0  0  0  0  0  0  0  0  0
   19.4332   -5.5866  -16.3193 N   0  0  0  0  0  0  0  0  0  0  0  0
   18.9826   -4.7886  -17.4322 C   0  0  1  0  0  0  0  0  0  0  0  0
   17.5577   -4.3713  -17.3742 C   0  0  0  0  0  0  0  0  0  0  0  0
   17.0272   -3.6194  -18.5335 C   0  0  0  0  0  0  0  0  0  0  0  0
   15.6171   -3.1435  -18.4095 C   0  0  0  0  0  0  0  0  0  0  0  0
   15.1923   -2.4258  -19.7096 C   0  0  0  0  0  0  0  0  0  0  0  0
   13.8028   -2.0751  -19.5310 N   0  0  0  0  0  0  0  0  0  0  0  0
   19.8974   -3.6702  -17.6844 C   0  0  0  0  0  0  0  0  0  0  0  0
   20.5113   -3.0783  -16.7292 O   0  0  0  0  0  0  0  0  0  0  0  0
   20.1557   -3.1859  -18.9495 O   0  0  0  0  0  0  0  0  0  0  0  0
  2  1  1  0
  3  2  1  0
  3  4  1  1
  5  6  2  0
  5  3  1  0
  7  8  1  0
  8 10  1  0
  9  8  2  0
 10 11  1  0
 12 11  1  6
 12 13  1  0
 13  5  1  0
 14 12  1  0
 14 16  1  0
 15 14  2  0
 17 16  1  0
 17 18  1  1
 18 19  1  0
 20 19  1  0
 21 22  1  0
 21 20  1  0
 23 17  1  0
 24 23  2  0
 25 23  1  0
M  END
$$$$
