SQK.pdb
     RDKit          3D

 25 24  0  0  1  0  0  0  0  0999 V2000
   14.3291  -12.2657  -10.7837 O   0  0  0  0  0  0  0  0  0  0  0  0
   14.4159  -10.8891  -10.8326 C   0  0  0  0  0  0  0  0  0  0  0  0
   14.0056  -10.3016   -9.4975 C   0  0  2  0  0  0  0  0  0  0  0  0
   12.6221  -10.5574   -9.2360 N   0  0  0  0  0  0  0  0  0  0  0  0
   14.2429   -8.8462   -9.5377 C   0  0  0  0  0  0  0  0  0  0  0  0
   13.4678   -8.1336  -10.2636 O   0  0  0  0  0  0  0  0  0  0  0  0
   14.1698   -3.9862   -7.9949 N   0  0  0  0  0  0  0  0  0  0  0  0
   13.5512   -4.9522   -7.1550 C   0  0  0  0  0  0  0  0  0  0  0  0
   12.3798   -4.7228   -6.7863 O   0  0  0  0  0  0  0  0  0  0  0  0
   14.2756   -6.1684   -6.7429 C   0  0  0  0  0  0  0  0  0  0  0  0
   15.6045   -6.3028   -7.4046 C   0  0  0  0  0  0  0  0  0  0  0  0
   15.4992   -6.8321   -8.7860 C   0  0  2  0  0  0  0  0  0  0  0  0
   15.2942   -8.2781   -8.7929 N   0  0  0  0  0  0  0  0  0  0  0  0
   16.8114   -6.6295   -9.4963 C   0  0  0  0  0  0  0  0  0  0  0  0
   17.9249   -6.8037   -8.9142 O   0  0  0  0  0  0  0  0  0  0  0  0
   16.8891   -6.2333  -10.8530 N   0  0  0  0  0  0  0  0  0  0  0  0
   18.1530   -6.0470  -11.5212 C   0  0  1  0  0  0  0  0  0  0  0  0
   18.6633   -7.2370  -12.2501 C   0  0  0  0  0  0  0  0  0  0  0  0
   19.9689   -7.1006  -12.9340 C   0  0  0  0  0  0  0  0  0  0  0  0
   20.4929   -8.3371  -13.5871 C   0  0  0  0  0  0  0  0  0  0  0  0
   21.9135   -8.0763  -14.1345 C   0  0  0  0  0  0  0  0  0  0  0  0
   22.3835   -9.3470  -14.6342 N   0  0  0  0  0  0  0  0  0  0  0  0
   18.1413   -4.8328  -12.3438 C   0  0  0  0  0  0  0  0  0  0  0  0
   19.2236   -4.3206  -12.7977 O   0  0  0  0  0  0  0  0  0  0  0  0
   16.9806   -4.1685  -12.6803 O   0  0  0  0  0  0  0  0  0  0  0  0
  2  1  1  0
  3  2  1  0
  3  4  1  6
  5  6  2  0
  5  3  1  0
  7  8  1  0
  8 10  1  0
  9  8  2  0
 10 11  1  0
 12 11  1  1
 12 13  1  0
 13  5  1  0
 14 12  1  0
 14 16  1  0
 15 14  2  0
 17 16  1  0
 17 18  1  6
 18 19  1  0
 20 19  1  0
 21 22  1  0
 21 20  1  0
 23 17  1  0
 24 23  2  0
 25 23  1  0
M  END
$$$$
