SQK.pdb
     RDKit          3D

 25 24  0  0  1  0  0  0  0  0999 V2000
   28.7301  -25.4655  -19.5522 O   0  0  0  0  0  0  0  0  0  0  0  0
   27.9441  -25.3953  -18.4198 C   0  0  0  0  0  0  0  0  0  0  0  0
   28.8015  -25.0419  -17.2215 C   0  0  2  0  0  0  0  0  0  0  0  0
   28.9883  -26.1834  -16.3789 N   0  0  0  0  0  0  0  0  0  0  0  0
   28.1242  -23.9716  -16.4652 C   0  0  0  0  0  0  0  0  0  0  0  0
   27.7990  -24.2104  -15.2516 O   0  0  0  0  0  0  0  0  0  0  0  0
   28.8222  -17.8067  -17.5005 N   0  0  0  0  0  0  0  0  0  0  0  0
   27.8917  -17.8719  -16.4276 C   0  0  0  0  0  0  0  0  0  0  0  0
   27.5919  -16.7976  -15.8647 O   0  0  0  0  0  0  0  0  0  0  0  0
   27.3144  -19.1616  -16.0068 C   0  0  0  0  0  0  0  0  0  0  0  0
   27.8573  -20.3173  -16.7759 C   0  0  0  0  0  0  0  0  0  0  0  0
   27.3326  -21.6173  -16.2918 C   0  0  2  0  0  0  0  0  0  0  0  0
   27.8535  -22.7328  -17.0773 N   0  0  0  0  0  0  0  0  0  0  0  0
   25.8429  -21.6621  -16.5068 C   0  0  0  0  0  0  0  0  0  0  0  0
   25.3339  -21.7918  -17.6614 O   0  0  0  0  0  0  0  0  0  0  0  0
   24.9168  -21.5629  -15.4409 N   0  0  0  0  0  0  0  0  0  0  0  0
   23.4928  -21.6057  -15.6622 C   0  0  1  0  0  0  0  0  0  0  0  0
   22.6697  -21.8038  -14.4411 C   0  0  0  0  0  0  0  0  0  0  0  0
   21.2174  -22.0150  -14.6334 C   0  0  0  0  0  0  0  0  0  0  0  0
   20.4341  -22.3102  -13.3968 C   0  0  0  0  0  0  0  0  0  0  0  0
   18.9693  -22.6278  -13.7701 C   0  0  0  0  0  0  0  0  0  0  0  0
   18.3124  -22.9739  -12.5316 N   0  0  0  0  0  0  0  0  0  0  0  0
   23.0501  -20.4665  -16.4730 C   0  0  0  0  0  0  0  0  0  0  0  0
   23.5192  -19.2895  -16.2874 O   0  0  0  0  0  0  0  0  0  0  0  0
   22.1117  -20.5827  -17.4768 O   0  0  0  0  0  0  0  0  0  0  0  0
  2  1  1  0
  3  2  1  0
  3  4  1  1
  5  6  2  0
  5  3  1  0
  7  8  1  0
  8 10  1  0
  9  8  2  0
 10 11  1  0
 12 11  1  6
 12 13  1  0
 13  5  1  0
 14 12  1  0
 14 16  1  0
 15 14  2  0
 17 16  1  0
 17 18  1  1
 18 19  1  0
 20 19  1  0
 21 22  1  0
 21 20  1  0
 23 17  1  0
 24 23  2  0
 25 23  1  0
M  END
$$$$
