SQI.pdb
     RDKit          3D

 24 23  0  0  1  0  0  0  0  0999 V2000
    8.3930  -11.5699   19.8378 O   0  0  0  0  0  0  0  0  0  0  0  0
    9.1829  -12.5874   19.3417 C   0  0  0  0  0  0  0  0  0  0  0  0
    8.3424  -13.8399   19.1667 C   0  0  2  0  0  0  0  0  0  0  0  0
    7.0624  -13.5490   18.5945 N   0  0  0  0  0  0  0  0  0  0  0  0
    8.1757  -14.5368   20.4730 C   0  0  0  0  0  0  0  0  0  0  0  0
    7.1361  -14.3946   21.1620 O   0  0  0  0  0  0  0  0  0  0  0  0
   11.6979  -19.6371   21.9872 N   0  0  0  0  0  0  0  0  0  0  0  0
   11.0273  -19.3664   23.1949 C   0  0  0  0  0  0  0  0  0  0  0  0
   11.1491  -20.1145   24.1869 O   0  0  0  0  0  0  0  0  0  0  0  0
   10.1594  -18.1439   23.2583 C   0  0  0  0  0  0  0  0  0  0  0  0
   10.1502  -17.3572   21.9905 C   0  0  0  0  0  0  0  0  0  0  0  0
    9.2330  -16.1690   22.1073 C   0  0  2  0  0  0  0  0  0  0  0  0
    9.1991  -15.3656   20.9390 N   0  0  0  0  0  0  0  0  0  0  0  0
    9.3140  -15.4330   23.3674 C   0  0  0  0  0  0  0  0  0  0  0  0
   10.3504  -14.7079   23.5427 O   0  0  0  0  0  0  0  0  0  0  0  0
    6.3566  -11.6083   26.4180 C   0  0  0  0  0  0  0  0  0  0  0  0
    7.5045  -12.5261   26.3744 C   0  0  0  0  0  0  0  0  0  0  0  0
    7.3452  -13.8814   25.8085 C   0  0  2  0  0  0  0  0  0  0  0  0
    6.0499  -14.5212   26.3279 C   0  0  0  0  0  0  0  0  0  0  0  0
    8.4549  -14.8085   25.6949 C   0  0  2  0  0  0  0  0  0  0  0  0
    8.3500  -15.4639   24.3845 N   0  0  0  0  0  0  0  0  0  0  0  0
    8.8744  -15.7085   26.7394 C   0  0  0  0  0  0  0  0  0  0  0  0
    9.2497  -15.1792   27.8545 O   0  0  0  0  0  0  0  0  0  0  0  0
    8.9448  -17.0734   26.7615 O   0  0  0  0  0  0  0  0  0  0  0  0
  2  1  1  0
  2  3  1  0
  3  4  1  1
  5  3  1  0
  5  6  2  0
  7  8  1  0
  8  9  2  0
 10 11  1  0
 10  8  1  0
 12 11  1  6
 12 13  1  0
 13  5  1  0
 14 12  1  0
 15 14  2  0
 17 18  1  0
 17 16  1  0
 18 20  1  0
 18 19  1  1
 20 21  1  6
 20 22  1  0
 21 14  1  0
 22 24  1  0
 23 22  2  0
M  END
$$$$
