SQI.pdb
     RDKit          3D

 24 23  0  0  1  0  0  0  0  0999 V2000
    7.4843  -13.0930   19.3762 O   0  0  0  0  0  0  0  0  0  0  0  0
    8.6566  -13.8056   19.2245 C   0  0  0  0  0  0  0  0  0  0  0  0
    8.3553  -15.2927   19.2839 C   0  0  2  0  0  0  0  0  0  0  0  0
    7.2677  -15.6524   18.4248 N   0  0  0  0  0  0  0  0  0  0  0  0
    8.0618  -15.7046   20.6855 C   0  0  0  0  0  0  0  0  0  0  0  0
    6.8854  -15.7503   21.1208 O   0  0  0  0  0  0  0  0  0  0  0  0
   11.2473  -20.1223   23.3737 N   0  0  0  0  0  0  0  0  0  0  0  0
   10.3663  -20.0450   22.2786 C   0  0  0  0  0  0  0  0  0  0  0  0
   10.2200  -21.0050   21.4940 O   0  0  0  0  0  0  0  0  0  0  0  0
    9.6004  -18.7697   22.0813 C   0  0  0  0  0  0  0  0  0  0  0  0
    9.8893  -17.7381   23.1199 C   0  0  0  0  0  0  0  0  0  0  0  0
    9.0766  -16.4944   22.8762 C   0  0  2  0  0  0  0  0  0  0  0  0
    9.1197  -16.0468   21.5311 N   0  0  0  0  0  0  0  0  0  0  0  0
    9.2115  -15.4466   23.8861 C   0  0  0  0  0  0  0  0  0  0  0  0
   10.1053  -14.5589   23.6759 O   0  0  0  0  0  0  0  0  0  0  0  0
    5.9180  -11.9714   25.4222 C   0  0  0  0  0  0  0  0  0  0  0  0
    7.1395  -12.7719   25.2521 C   0  0  0  0  0  0  0  0  0  0  0  0
    7.6668  -13.5637   26.3825 C   0  0  2  0  0  0  0  0  0  0  0  0
    7.7897  -12.6814   27.6328 C   0  0  0  0  0  0  0  0  0  0  0  0
    8.7518  -14.5131   26.2233 C   0  0  2  0  0  0  0  0  0  0  0  0
    8.4420  -15.3452   25.0532 N   0  0  0  0  0  0  0  0  0  0  0  0
    9.3431  -15.2625   27.3030 C   0  0  0  0  0  0  0  0  0  0  0  0
   10.0066  -14.5958   28.1859 O   0  0  0  0  0  0  0  0  0  0  0  0
    9.3225  -16.6029   27.5704 O   0  0  0  0  0  0  0  0  0  0  0  0
  2  1  1  0
  2  3  1  0
  3  4  1  6
  5  3  1  0
  5  6  2  0
  7  8  1  0
  8  9  2  0
 10 11  1  0
 10  8  1  0
 12 11  1  6
 12 13  1  0
 13  5  1  0
 14 12  1  0
 15 14  2  0
 17 18  1  0
 17 16  1  0
 18 20  1  0
 18 19  1  1
 20 21  1  6
 20 22  1  0
 21 14  1  0
 22 24  1  0
 23 22  2  0
M  END
$$$$
