SQI.pdb
     RDKit          3D

 24 23  0  0  1  0  0  0  0  0999 V2000
   10.9581  -12.5477   18.3664 O   0  0  0  0  0  0  0  0  0  0  0  0
   10.1181  -12.7192   19.4481 C   0  0  0  0  0  0  0  0  0  0  0  0
    9.0240  -13.7081   19.0865 C   0  0  2  0  0  0  0  0  0  0  0  0
    7.9271  -13.0720   18.4214 N   0  0  0  0  0  0  0  0  0  0  0  0
    8.5449  -14.4172   20.3062 C   0  0  0  0  0  0  0  0  0  0  0  0
    7.4365  -14.1443   20.8282 O   0  0  0  0  0  0  0  0  0  0  0  0
   10.7076  -20.1505   21.9860 N   0  0  0  0  0  0  0  0  0  0  0  0
    9.9892  -19.7595   23.1317 C   0  0  0  0  0  0  0  0  0  0  0  0
    9.8377  -20.5341   24.0988 O   0  0  0  0  0  0  0  0  0  0  0  0
    9.4099  -18.3754   23.1596 C   0  0  0  0  0  0  0  0  0  0  0  0
    9.6772  -17.5958   21.9158 C   0  0  0  0  0  0  0  0  0  0  0  0
    9.0928  -16.2121   22.0182 C   0  0  2  0  0  0  0  0  0  0  0  0
    9.3478  -15.4063   20.8792 N   0  0  0  0  0  0  0  0  0  0  0  0
    9.2750  -15.5459   23.3061 C   0  0  0  0  0  0  0  0  0  0  0  0
   10.4203  -15.0255   23.5260 O   0  0  0  0  0  0  0  0  0  0  0  0
    6.4964  -11.6569   26.7934 C   0  0  0  0  0  0  0  0  0  0  0  0
    7.6029  -12.6119   26.6329 C   0  0  0  0  0  0  0  0  0  0  0  0
    7.4444  -13.7835   25.7471 C   0  0  2  0  0  0  0  0  0  0  0  0
    6.0210  -14.3462   25.8660 C   0  0  0  0  0  0  0  0  0  0  0  0
    8.4703  -14.8007   25.6176 C   0  0  2  0  0  0  0  0  0  0  0  0
    8.2976  -15.4370   24.3050 N   0  0  0  0  0  0  0  0  0  0  0  0
    8.8219  -15.7392   26.6532 C   0  0  0  0  0  0  0  0  0  0  0  0
    8.4797  -16.9697   26.4711 O   0  0  0  0  0  0  0  0  0  0  0  0
    9.4809  -15.5521   27.8360 O   0  0  0  0  0  0  0  0  0  0  0  0
  2  1  1  0
  2  3  1  0
  3  4  1  1
  5  3  1  0
  5  6  2  0
  7  8  1  0
  8  9  2  0
 10 11  1  0
 10  8  1  0
 12 11  1  1
 12 13  1  0
 13  5  1  0
 14 12  1  0
 15 14  2  0
 17 18  1  0
 17 16  1  0
 18 20  1  0
 18 19  1  1
 20 21  1  6
 20 22  1  0
 21 14  1  0
 22 24  1  0
 23 22  2  0
M  END
$$$$
