SQI.pdb
     RDKit          3D

 24 23  0  0  1  0  0  0  0  0999 V2000
    8.4729  -15.5217   19.6092 O   0  0  0  0  0  0  0  0  0  0  0  0
    8.1362  -16.8274   19.9042 C   0  0  0  0  0  0  0  0  0  0  0  0
    6.6701  -16.8955   20.2935 C   0  0  2  0  0  0  0  0  0  0  0  0
    5.8682  -16.0004   19.5151 N   0  0  0  0  0  0  0  0  0  0  0  0
    6.5070  -16.6022   21.7452 C   0  0  0  0  0  0  0  0  0  0  0  0
    6.1173  -15.4781   22.1454 O   0  0  0  0  0  0  0  0  0  0  0  0
    7.7901  -20.9513   26.2603 N   0  0  0  0  0  0  0  0  0  0  0  0
    7.2210  -19.8992   27.0025 C   0  0  0  0  0  0  0  0  0  0  0  0
    7.1713  -19.9371   28.2493 O   0  0  0  0  0  0  0  0  0  0  0  0
    6.6756  -18.7219   26.2486 C   0  0  0  0  0  0  0  0  0  0  0  0
    6.7690  -18.8719   24.7670 C   0  0  0  0  0  0  0  0  0  0  0  0
    6.7887  -17.5247   24.0952 C   0  0  2  0  0  0  0  0  0  0  0  0
    6.7943  -17.6006   22.6789 N   0  0  0  0  0  0  0  0  0  0  0  0
    7.7115  -16.5482   24.6704 C   0  0  0  0  0  0  0  0  0  0  0  0
    8.9006  -16.5390   24.2050 O   0  0  0  0  0  0  0  0  0  0  0  0
    5.9994  -11.6302   25.7757 C   0  0  0  0  0  0  0  0  0  0  0  0
    6.8813  -12.7641   25.4619 C   0  0  0  0  0  0  0  0  0  0  0  0
    7.6117  -13.4534   26.5454 C   0  0  2  0  0  0  0  0  0  0  0  0
    8.3858  -12.4331   27.3920 C   0  0  0  0  0  0  0  0  0  0  0  0
    8.3228  -14.6990   26.3294 C   0  0  2  0  0  0  0  0  0  0  0  0
    7.3913  -15.6323   25.6820 N   0  0  0  0  0  0  0  0  0  0  0  0
    9.1639  -15.3372   27.3103 C   0  0  0  0  0  0  0  0  0  0  0  0
   10.4249  -15.0684   27.2662 O   0  0  0  0  0  0  0  0  0  0  0  0
    8.8520  -16.2058   28.3187 O   0  0  0  0  0  0  0  0  0  0  0  0
  2  1  1  0
  2  3  1  0
  3  4  1  6
  5  3  1  0
  5  6  2  0
  7  8  1  0
  8  9  2  0
 10 11  1  0
 10  8  1  0
 12 11  1  1
 12 13  1  0
 13  5  1  0
 14 12  1  0
 15 14  2  0
 17 18  1  0
 17 16  1  0
 18 20  1  0
 18 19  1  6
 20 21  1  1
 20 22  1  0
 21 14  1  0
 22 24  1  0
 23 22  2  0
M  END
$$$$
