SQI.pdb
     RDKit          3D

 24 23  0  0  1  0  0  0  0  0999 V2000
    9.8994  -13.0084   19.9185 O   0  0  0  0  0  0  0  0  0  0  0  0
    9.4143  -14.0943   19.2181 C   0  0  0  0  0  0  0  0  0  0  0  0
    7.9216  -14.2274   19.4628 C   0  0  2  0  0  0  0  0  0  0  0  0
    7.2179  -13.0222   19.1427 N   0  0  0  0  0  0  0  0  0  0  0  0
    7.6627  -14.6139   20.8783 C   0  0  0  0  0  0  0  0  0  0  0  0
    7.2576  -13.7766   21.7211 O   0  0  0  0  0  0  0  0  0  0  0  0
    5.3181  -19.2355   22.8686 N   0  0  0  0  0  0  0  0  0  0  0  0
    6.1109  -19.1435   24.0281 C   0  0  0  0  0  0  0  0  0  0  0  0
    5.6802  -19.5131   25.1401 O   0  0  0  0  0  0  0  0  0  0  0  0
    7.4982  -18.5887   23.8889 C   0  0  0  0  0  0  0  0  0  0  0  0
    7.7795  -18.0288   22.5347 C   0  0  0  0  0  0  0  0  0  0  0  0
    7.6912  -16.5260   22.5504 C   0  0  2  0  0  0  0  0  0  0  0  0
    7.8760  -15.9366   21.2737 N   0  0  0  0  0  0  0  0  0  0  0  0
    8.3936  -15.8658   23.6489 C   0  0  0  0  0  0  0  0  0  0  0  0
    9.6472  -15.6757   23.4965 O   0  0  0  0  0  0  0  0  0  0  0  0
    6.0052  -11.7877   25.8236 C   0  0  0  0  0  0  0  0  0  0  0  0
    7.0461  -12.7299   25.3868 C   0  0  0  0  0  0  0  0  0  0  0  0
    7.6754  -13.6405   26.3652 C   0  0  2  0  0  0  0  0  0  0  0  0
    8.2660  -12.8353   27.5314 C   0  0  0  0  0  0  0  0  0  0  0  0
    8.4886  -14.7709   25.9593 C   0  0  2  0  0  0  0  0  0  0  0  0
    7.8002  -15.4311   24.8421 N   0  0  0  0  0  0  0  0  0  0  0  0
    9.0986  -15.7048   26.8719 C   0  0  0  0  0  0  0  0  0  0  0  0
   10.0606  -15.2621   27.6087 O   0  0  0  0  0  0  0  0  0  0  0  0
    8.8273  -17.0236   27.1074 O   0  0  0  0  0  0  0  0  0  0  0  0
  2  1  1  0
  2  3  1  0
  3  4  1  1
  5  3  1  0
  5  6  2  0
  7  8  1  0
  8  9  2  0
 10 11  1  0
 10  8  1  0
 12 11  1  6
 12 13  1  0
 13  5  1  0
 14 12  1  0
 15 14  2  0
 17 18  1  0
 17 16  1  0
 18 20  1  0
 18 19  1  1
 20 21  1  6
 20 22  1  0
 21 14  1  0
 22 24  1  0
 23 22  2  0
M  END
$$$$
