SQI.pdb
     RDKit          3D

 24 23  0  0  1  0  0  0  0  0999 V2000
    9.5352  -12.4647   16.9066 O   0  0  0  0  0  0  0  0  0  0  0  0
    8.6300  -13.4898   17.0934 C   0  0  0  0  0  0  0  0  0  0  0  0
    9.2209  -14.7872   16.5707 C   0  0  2  0  0  0  0  0  0  0  0  0
    8.3117  -15.4790   15.7074 N   0  0  0  0  0  0  0  0  0  0  0  0
    9.6227  -15.6659   17.7050 C   0  0  0  0  0  0  0  0  0  0  0  0
    8.8144  -16.4735   18.2246 O   0  0  0  0  0  0  0  0  0  0  0  0
   15.4778  -16.9134   17.2398 N   0  0  0  0  0  0  0  0  0  0  0  0
   14.5335  -17.8496   17.7017 C   0  0  0  0  0  0  0  0  0  0  0  0
   14.8544  -19.0325   17.9388 O   0  0  0  0  0  0  0  0  0  0  0  0
   13.1222  -17.3822   17.9059 C   0  0  0  0  0  0  0  0  0  0  0  0
   12.9328  -16.6001   19.1624 C   0  0  0  0  0  0  0  0  0  0  0  0
   11.4874  -16.2178   19.3393 C   0  0  2  0  0  0  0  0  0  0  0  0
   10.9269  -15.5875   18.1991 N   0  0  0  0  0  0  0  0  0  0  0  0
   11.1522  -15.5998   20.6206 C   0  0  0  0  0  0  0  0  0  0  0  0
   11.8704  -14.6086   20.9848 O   0  0  0  0  0  0  0  0  0  0  0  0
    7.0261  -13.0816   21.3377 C   0  0  0  0  0  0  0  0  0  0  0  0
    8.3331  -13.7338   21.5057 C   0  0  0  0  0  0  0  0  0  0  0  0
    8.5483  -14.6803   22.6194 C   0  0  2  0  0  0  0  0  0  0  0  0
    8.0108  -14.0856   23.9287 C   0  0  0  0  0  0  0  0  0  0  0  0
    9.7831  -15.4253   22.7748 C   0  0  2  0  0  0  0  0  0  0  0  0
   10.1136  -16.0093   21.4682 N   0  0  0  0  0  0  0  0  0  0  0  0
   10.0650  -16.3145   23.8734 C   0  0  0  0  0  0  0  0  0  0  0  0
    9.7434  -17.5547   23.7219 O   0  0  0  0  0  0  0  0  0  0  0  0
   10.6368  -16.0701   25.0906 O   0  0  0  0  0  0  0  0  0  0  0  0
  2  1  1  0
  2  3  1  0
  3  4  1  1
  5  3  1  0
  5  6  2  0
  7  8  1  0
  8  9  2  0
 10 11  1  0
 10  8  1  0
 12 11  1  6
 12 13  1  0
 13  5  1  0
 14 12  1  0
 15 14  2  0
 17 18  1  0
 17 16  1  0
 18 20  1  0
 18 19  1  1
 20 21  1  6
 20 22  1  0
 21 14  1  0
 22 24  1  0
 23 22  2  0
M  END
$$$$
