SQI.pdb
     RDKit          3D

 24 23  0  0  1  0  0  0  0  0999 V2000
    8.7999  -16.6878   18.3171 O   0  0  0  0  0  0  0  0  0  0  0  0
    8.8269  -16.7224   19.6967 C   0  0  0  0  0  0  0  0  0  0  0  0
    7.6611  -17.5525   20.2042 C   0  0  2  0  0  0  0  0  0  0  0  0
    6.5749  -17.5750   19.2715 N   0  0  0  0  0  0  0  0  0  0  0  0
    7.1962  -17.0381   21.5231 C   0  0  0  0  0  0  0  0  0  0  0  0
    6.4286  -16.0483   21.6051 O   0  0  0  0  0  0  0  0  0  0  0  0
    5.5651  -21.9035   24.7996 N   0  0  0  0  0  0  0  0  0  0  0  0
    6.2930  -20.7995   25.2820 C   0  0  0  0  0  0  0  0  0  0  0  0
    6.8181  -20.8128   26.4145 O   0  0  0  0  0  0  0  0  0  0  0  0
    6.4241  -19.6000   24.3899 C   0  0  0  0  0  0  0  0  0  0  0  0
    7.2993  -18.5326   24.9567 C   0  0  0  0  0  0  0  0  0  0  0  0
    7.3441  -17.3383   24.0412 C   0  0  2  0  0  0  0  0  0  0  0  0
    7.6248  -17.6721   22.6916 N   0  0  0  0  0  0  0  0  0  0  0  0
    8.0636  -16.1759   24.5580 C   0  0  0  0  0  0  0  0  0  0  0  0
    9.2626  -16.0148   24.1489 O   0  0  0  0  0  0  0  0  0  0  0  0
    5.8030  -11.4970   27.3151 C   0  0  0  0  0  0  0  0  0  0  0  0
    6.1952  -12.8105   26.7833 C   0  0  0  0  0  0  0  0  0  0  0  0
    7.4357  -12.9466   25.9927 C   0  0  2  0  0  0  0  0  0  0  0  0
    7.2082  -12.4379   24.5622 C   0  0  0  0  0  0  0  0  0  0  0  0
    8.2788  -14.1243   26.0713 C   0  0  2  0  0  0  0  0  0  0  0  0
    7.5412  -15.2366   25.4578 N   0  0  0  0  0  0  0  0  0  0  0  0
    9.0169  -14.5206   27.2440 C   0  0  0  0  0  0  0  0  0  0  0  0
    8.6946  -15.6451   27.7881 O   0  0  0  0  0  0  0  0  0  0  0  0
   10.0378  -13.8965   27.9047 O   0  0  0  0  0  0  0  0  0  0  0  0
  2  1  1  0
  2  3  1  0
  3  4  1  6
  5  3  1  0
  5  6  2  0
  7  8  1  0
  8  9  2  0
 10 11  1  0
 10  8  1  0
 12 11  1  1
 12 13  1  0
 13  5  1  0
 14 12  1  0
 15 14  2  0
 17 18  1  0
 17 16  1  0
 18 20  1  0
 18 19  1  6
 20 21  1  1
 20 22  1  0
 21 14  1  0
 22 24  1  0
 23 22  2  0
M  END
$$$$
