SQI.pdb
     RDKit          3D

 24 23  0  0  1  0  0  0  0  0999 V2000
    9.2094  -13.2703   20.3362 O   0  0  0  0  0  0  0  0  0  0  0  0
    7.8641  -13.4181   20.0649 C   0  0  0  0  0  0  0  0  0  0  0  0
    7.4775  -14.8795   20.2075 C   0  0  2  0  0  0  0  0  0  0  0  0
    6.1398  -15.1247   19.7592 N   0  0  0  0  0  0  0  0  0  0  0  0
    7.6348  -15.3198   21.6222 C   0  0  0  0  0  0  0  0  0  0  0  0
    6.7306  -15.1275   22.4713 O   0  0  0  0  0  0  0  0  0  0  0  0
   11.9282  -19.7447   23.2773 N   0  0  0  0  0  0  0  0  0  0  0  0
   11.2735  -19.4563   24.4897 C   0  0  0  0  0  0  0  0  0  0  0  0
   11.4915  -20.1259   25.5205 O   0  0  0  0  0  0  0  0  0  0  0  0
   10.3028  -18.3121   24.5094 C   0  0  0  0  0  0  0  0  0  0  0  0
   10.1124  -17.6733   23.1745 C   0  0  0  0  0  0  0  0  0  0  0  0
    9.1545  -16.5157   23.2695 C   0  0  2  0  0  0  0  0  0  0  0  0
    8.8144  -15.9600   22.0097 N   0  0  0  0  0  0  0  0  0  0  0  0
    9.4447  -15.5434   24.3213 C   0  0  0  0  0  0  0  0  0  0  0  0
   10.3583  -14.6861   24.0739 O   0  0  0  0  0  0  0  0  0  0  0  0
    5.8580  -12.4538   25.9586 C   0  0  0  0  0  0  0  0  0  0  0  0
    7.1368  -13.1363   25.7116 C   0  0  0  0  0  0  0  0  0  0  0  0
    7.8888  -13.7259   26.8383 C   0  0  2  0  0  0  0  0  0  0  0  0
    7.9981  -12.7133   27.9871 C   0  0  0  0  0  0  0  0  0  0  0  0
    9.0854  -14.5210   26.6389 C   0  0  2  0  0  0  0  0  0  0  0  0
    8.8022  -15.4830   25.5656 N   0  0  0  0  0  0  0  0  0  0  0  0
    9.8744  -15.0864   27.7042 C   0  0  0  0  0  0  0  0  0  0  0  0
    9.7578  -16.3543   27.9117 O   0  0  0  0  0  0  0  0  0  0  0  0
   10.7598  -14.4978   28.5633 O   0  0  0  0  0  0  0  0  0  0  0  0
  2  1  1  0
  2  3  1  0
  3  4  1  1
  5  3  1  0
  5  6  2  0
  7  8  1  0
  8  9  2  0
 10 11  1  0
 10  8  1  0
 12 11  1  6
 12 13  1  0
 13  5  1  0
 14 12  1  0
 15 14  2  0
 17 18  1  0
 17 16  1  0
 18 20  1  0
 18 19  1  1
 20 21  1  6
 20 22  1  0
 21 14  1  0
 22 24  1  0
 23 22  2  0
M  END
$$$$
