VEE.pdb
     RDKit          3D

 26 25  0  0  1  0  0  0  0  0999 V2000
   25.2912  -34.0018  -11.3221 C   0  0  0  0  0  0  0  0  0  0  0  0
   24.8043  -33.8776   -9.9239 C   0  0  1  0  0  0  0  0  0  0  0  0
   25.8897  -33.5125   -8.9379 C   0  0  0  0  0  0  0  0  0  0  0  0
   23.6370  -32.9137   -9.8509 C   0  0  2  0  0  0  0  0  0  0  0  0
   24.2105  -31.6216  -10.2894 N   0  0  0  0  0  0  0  0  0  0  0  0
   23.1778  -32.7474   -8.4652 C   0  0  0  0  0  0  0  0  0  0  0  0
   23.6613  -31.8058   -7.7713 O   0  0  0  0  0  0  0  0  0  0  0  0
   22.2164  -33.5571   -7.8039 N   0  0  0  0  0  0  0  0  0  0  0  0
   21.8738  -33.3035   -6.4139 C   0  0  1  0  0  0  0  0  0  0  0  0
   20.4612  -33.8062   -6.2273 C   0  0  0  0  0  0  0  0  0  0  0  0
   19.4312  -32.7521   -6.4195 C   0  0  0  0  0  0  0  0  0  0  0  0
   18.0725  -33.2753   -6.3110 C   0  0  0  0  0  0  0  0  0  0  0  0
   17.7665  -34.4694   -6.0957 O   0  0  0  0  0  0  0  0  0  0  0  0
   22.8134  -33.9855   -5.4864 C   0  0  0  0  0  0  0  0  0  0  0  0
   23.8820  -34.4411   -5.9557 O   0  0  0  0  0  0  0  0  0  0  0  0
   16.9501  -32.4183   -6.4498 O   0  0  0  0  0  0  0  0  0  0  0  0
   22.5529  -34.1413   -4.1019 N   0  0  0  0  0  0  0  0  0  0  0  0
   23.5669  -34.3531   -3.0846 C   0  0  1  0  0  0  0  0  0  0  0  0
   24.7708  -33.5135   -3.2890 C   0  0  0  0  0  0  0  0  0  0  0  0
   25.8715  -33.5867   -2.3132 C   0  0  0  0  0  0  0  0  0  0  0  0
   27.2247  -33.8584   -2.7800 C   0  0  0  0  0  0  0  0  0  0  0  0
   28.0472  -34.5448   -2.1683 O   0  0  0  0  0  0  0  0  0  0  0  0
   23.0493  -34.4875   -1.7240 C   0  0  0  0  0  0  0  0  0  0  0  0
   22.1594  -33.7375   -1.2340 O   0  0  0  0  0  0  0  0  0  0  0  0
   27.6891  -33.3322   -4.0043 O   0  0  0  0  0  0  0  0  0  0  0  0
   23.5470  -35.4881   -0.9031 O   0  0  0  0  0  0  0  0  0  0  0  0
  2  4  1  0
  2  1  1  6
  3  2  1  0
  4  6  1  0
  4  5  1  1
  6  7  2  0
  8  6  1  0
  8  9  1  0
  9 14  1  0
  9 10  1  1
 11 10  1  0
 12 16  1  0
 12 11  1  0
 13 12  2  0
 14 15  2  0
 17 18  1  0
 17 14  1  0
 18 23  1  0
 18 19  1  1
 20 19  1  0
 21 22  2  0
 21 20  1  0
 23 24  2  0
 23 26  1  0
 25 21  1  0
M  END
$$$$
