VEE.pdb
     RDKit          3D

 26 25  0  0  1  0  0  0  0  0999 V2000
   16.8116   -8.8853  -16.7829 C   0  0  0  0  0  0  0  0  0  0  0  0
   16.5823  -10.1292  -16.0034 C   0  0  1  0  0  0  0  0  0  0  0  0
   15.4234  -10.9546  -16.5128 C   0  0  0  0  0  0  0  0  0  0  0  0
   17.8556  -10.9469  -15.9199 C   0  0  2  0  0  0  0  0  0  0  0  0
   17.5429  -11.9973  -14.9250 N   0  0  0  0  0  0  0  0  0  0  0  0
   18.9626  -10.1436  -15.3834 C   0  0  0  0  0  0  0  0  0  0  0  0
   18.9297   -9.7951  -14.1671 O   0  0  0  0  0  0  0  0  0  0  0  0
   20.1019   -9.7061  -16.1098 N   0  0  0  0  0  0  0  0  0  0  0  0
   21.1365   -8.9242  -15.4523 C   0  0  1  0  0  0  0  0  0  0  0  0
   22.4536   -9.4081  -16.0126 C   0  0  0  0  0  0  0  0  0  0  0  0
   22.9969  -10.5932  -15.2988 C   0  0  0  0  0  0  0  0  0  0  0  0
   24.3015  -11.0017  -15.8113 C   0  0  0  0  0  0  0  0  0  0  0  0
   24.9174  -10.4562  -16.7542 O   0  0  0  0  0  0  0  0  0  0  0  0
   20.9546   -7.4686  -15.6891 C   0  0  0  0  0  0  0  0  0  0  0  0
   20.1750   -7.1102  -16.6021 O   0  0  0  0  0  0  0  0  0  0  0  0
   24.9934  -12.1029  -15.2436 O   0  0  0  0  0  0  0  0  0  0  0  0
   21.6220   -6.4747  -14.9301 N   0  0  0  0  0  0  0  0  0  0  0  0
   21.3281   -5.0539  -14.9809 C   0  0  1  0  0  0  0  0  0  0  0  0
   19.8742   -4.7672  -14.9893 C   0  0  0  0  0  0  0  0  0  0  0  0
   19.4181   -3.3670  -14.9674 C   0  0  0  0  0  0  0  0  0  0  0  0
   17.9905   -3.0802  -14.9169 C   0  0  0  0  0  0  0  0  0  0  0  0
   17.3521   -2.9058  -13.8757 O   0  0  0  0  0  0  0  0  0  0  0  0
   22.1848   -4.2217  -14.1379 C   0  0  0  0  0  0  0  0  0  0  0  0
   22.5848   -4.5630  -12.9899 O   0  0  0  0  0  0  0  0  0  0  0  0
   17.2279   -2.9820  -16.1002 O   0  0  0  0  0  0  0  0  0  0  0  0
   22.5966   -2.9815  -14.6017 O   0  0  0  0  0  0  0  0  0  0  0  0
  2  4  1  0
  2  1  1  6
  3  2  1  0
  4  6  1  0
  4  5  1  1
  6  7  2  0
  8  6  1  0
  8  9  1  0
  9 14  1  0
  9 10  1  6
 11 10  1  0
 12 16  1  0
 12 11  1  0
 13 12  2  0
 14 15  2  0
 17 18  1  0
 17 14  1  0
 18 23  1  0
 18 19  1  1
 20 19  1  0
 21 22  2  0
 21 20  1  0
 23 24  2  0
 23 26  1  0
 25 21  1  0
M  END
$$$$
