VEE.pdb
     RDKit          3D

 26 25  0  0  1  0  0  0  0  0999 V2000
   22.3589  -12.5207  -21.2938 C   0  0  0  0  0  0  0  0  0  0  0  0
   21.8000  -11.3151  -20.6292 C   0  0  1  0  0  0  0  0  0  0  0  0
   20.2909  -11.2489  -20.6712 C   0  0  0  0  0  0  0  0  0  0  0  0
   22.3245  -11.1975  -19.2122 C   0  0  2  0  0  0  0  0  0  0  0  0
   21.8373  -12.4263  -18.5462 N   0  0  0  0  0  0  0  0  0  0  0  0
   21.7211  -10.0498  -18.5212 C   0  0  0  0  0  0  0  0  0  0  0  0
   22.1390   -8.8862  -18.7922 O   0  0  0  0  0  0  0  0  0  0  0  0
   20.6842  -10.1123  -17.5528 N   0  0  0  0  0  0  0  0  0  0  0  0
   20.2151   -8.9010  -16.8996 C   0  0  1  0  0  0  0  0  0  0  0  0
   18.8561   -9.2280  -16.3262 C   0  0  0  0  0  0  0  0  0  0  0  0
   18.9068  -10.2208  -15.2212 C   0  0  0  0  0  0  0  0  0  0  0  0
   17.5831  -10.5257  -14.6858 C   0  0  0  0  0  0  0  0  0  0  0  0
   17.2214  -10.3610  -13.4993 O   0  0  0  0  0  0  0  0  0  0  0  0
   21.1532   -8.4551  -15.8369 C   0  0  0  0  0  0  0  0  0  0  0  0
   22.0772   -9.2309  -15.4993 O   0  0  0  0  0  0  0  0  0  0  0  0
   16.5660  -11.0570  -15.5205 O   0  0  0  0  0  0  0  0  0  0  0  0
   21.0469   -7.1968  -15.1931 N   0  0  0  0  0  0  0  0  0  0  0  0
   22.1685   -6.3382  -14.8574 C   0  0  1  0  0  0  0  0  0  0  0  0
   23.1549   -6.2240  -15.9574 C   0  0  0  0  0  0  0  0  0  0  0  0
   24.3235   -5.3443  -15.7857 C   0  0  0  0  0  0  0  0  0  0  0  0
   25.2778   -5.2009  -16.8774 C   0  0  0  0  0  0  0  0  0  0  0  0
   25.3487   -4.2142  -17.6145 O   0  0  0  0  0  0  0  0  0  0  0  0
   21.8110   -5.1217  -14.1298 C   0  0  0  0  0  0  0  0  0  0  0  0
   20.9080   -4.3210  -14.5014 O   0  0  0  0  0  0  0  0  0  0  0  0
   26.2101   -6.2205  -17.1646 O   0  0  0  0  0  0  0  0  0  0  0  0
   22.4866   -4.8051  -12.9611 O   0  0  0  0  0  0  0  0  0  0  0  0
  2  4  1  0
  2  1  1  1
  3  2  1  0
  4  6  1  0
  4  5  1  1
  6  7  2  0
  8  6  1  0
  8  9  1  0
  9 14  1  0
  9 10  1  1
 11 10  1  0
 12 16  1  0
 12 11  1  0
 13 12  2  0
 14 15  2  0
 17 18  1  0
 17 14  1  0
 18 23  1  0
 18 19  1  6
 20 19  1  0
 21 22  2  0
 21 20  1  0
 23 24  2  0
 23 26  1  0
 25 21  1  0
M  END
$$$$
