VEE.pdb
     RDKit          3D

 26 25  0  0  1  0  0  0  0  0999 V2000
   24.8494  -21.1201   -8.1649 C   0  0  0  0  0  0  0  0  0  0  0  0
   24.6631  -20.8750   -9.6184 C   0  0  1  0  0  0  0  0  0  0  0  0
   23.6603  -19.7862   -9.9223 C   0  0  0  0  0  0  0  0  0  0  0  0
   25.9962  -20.6085  -10.2881 C   0  0  2  0  0  0  0  0  0  0  0  0
   26.5696  -19.4860   -9.5120 N   0  0  0  0  0  0  0  0  0  0  0  0
   25.8078  -20.1422  -11.6686 C   0  0  0  0  0  0  0  0  0  0  0  0
   25.3404  -18.9820  -11.8621 O   0  0  0  0  0  0  0  0  0  0  0  0
   26.1069  -20.8802  -12.8446 N   0  0  0  0  0  0  0  0  0  0  0  0
   25.8582  -20.3044  -14.1563 C   0  0  1  0  0  0  0  0  0  0  0  0
   26.9822  -20.7790  -15.0474 C   0  0  0  0  0  0  0  0  0  0  0  0
   26.8974  -20.2503  -16.4339 C   0  0  0  0  0  0  0  0  0  0  0  0
   27.9567  -20.7704  -17.2936 C   0  0  0  0  0  0  0  0  0  0  0  0
   28.4003  -21.9404  -17.2767 O   0  0  0  0  0  0  0  0  0  0  0  0
   24.5359  -20.7186  -14.6930 C   0  0  0  0  0  0  0  0  0  0  0  0
   24.1807  -21.9100  -14.5370 O   0  0  0  0  0  0  0  0  0  0  0  0
   28.5861  -19.9389  -18.2558 O   0  0  0  0  0  0  0  0  0  0  0  0
   23.6653  -19.8282  -15.3699 N   0  0  0  0  0  0  0  0  0  0  0  0
   22.2949  -20.1295  -15.7429 C   0  0  1  0  0  0  0  0  0  0  0  0
   21.3099  -19.6655  -14.7377 C   0  0  0  0  0  0  0  0  0  0  0  0
   19.8752  -19.8954  -14.9787 C   0  0  0  0  0  0  0  0  0  0  0  0
   18.8951  -19.3144  -14.0706 C   0  0  0  0  0  0  0  0  0  0  0  0
   17.6738  -19.4391  -14.1925 O   0  0  0  0  0  0  0  0  0  0  0  0
   21.9844  -19.9147  -17.1553 C   0  0  0  0  0  0  0  0  0  0  0  0
   22.2700  -18.8576  -17.7841 O   0  0  0  0  0  0  0  0  0  0  0  0
   19.3019  -18.5474  -12.9582 O   0  0  0  0  0  0  0  0  0  0  0  0
   21.3395  -20.9133  -17.8690 O   0  0  0  0  0  0  0  0  0  0  0  0
  2  4  1  0
  2  1  1  1
  3  2  1  0
  4  6  1  0
  4  5  1  1
  6  7  2  0
  8  6  1  0
  8  9  1  0
  9 14  1  0
  9 10  1  6
 11 10  1  0
 12 16  1  0
 12 11  1  0
 13 12  2  0
 14 15  2  0
 17 18  1  0
 17 14  1  0
 18 23  1  0
 18 19  1  1
 20 19  1  0
 21 22  2  0
 21 20  1  0
 23 24  2  0
 23 26  1  0
 25 21  1  0
M  END
$$$$
