VEE.pdb
     RDKit          3D

 26 25  0  0  1  0  0  0  0  0999 V2000
   17.9411  -10.3348  -18.3162 C   0  0  0  0  0  0  0  0  0  0  0  0
   17.9626  -11.4619  -17.3483 C   0  0  1  0  0  0  0  0  0  0  0  0
   17.6392  -12.7992  -17.9733 C   0  0  0  0  0  0  0  0  0  0  0  0
   19.2820  -11.4984  -16.6036 C   0  0  2  0  0  0  0  0  0  0  0  0
   19.0602  -12.4918  -15.5290 N   0  0  0  0  0  0  0  0  0  0  0  0
   19.5602  -10.2062  -15.9622 C   0  0  0  0  0  0  0  0  0  0  0  0
   18.8440   -9.8444  -14.9834 O   0  0  0  0  0  0  0  0  0  0  0  0
   20.5823   -9.2939  -16.3366 N   0  0  0  0  0  0  0  0  0  0  0  0
   20.7366   -8.0330  -15.6294 C   0  0  1  0  0  0  0  0  0  0  0  0
   22.1891   -7.6421  -15.7724 C   0  0  0  0  0  0  0  0  0  0  0  0
   22.4989   -6.3077  -15.1958 C   0  0  0  0  0  0  0  0  0  0  0  0
   23.9183   -5.9778  -15.2875 C   0  0  0  0  0  0  0  0  0  0  0  0
   24.8186   -6.7417  -15.7019 O   0  0  0  0  0  0  0  0  0  0  0  0
   19.8412   -6.9836  -16.1816 C   0  0  0  0  0  0  0  0  0  0  0  0
   19.7470   -6.8810  -17.4267 O   0  0  0  0  0  0  0  0  0  0  0  0
   24.3951   -4.7013  -14.8918 O   0  0  0  0  0  0  0  0  0  0  0  0
   19.0939   -6.0993  -15.3638 N   0  0  0  0  0  0  0  0  0  0  0  0
   18.3055   -4.9824  -15.8524 C   0  0  1  0  0  0  0  0  0  0  0  0
   16.9462   -4.9368  -15.2638 C   0  0  0  0  0  0  0  0  0  0  0  0
   16.0286   -3.8546  -15.6586 C   0  0  0  0  0  0  0  0  0  0  0  0
   14.6858   -3.8137  -15.0945 C   0  0  0  0  0  0  0  0  0  0  0  0
   14.2526   -4.6223  -14.2696 O   0  0  0  0  0  0  0  0  0  0  0  0
   19.0394   -3.7243  -15.9780 C   0  0  0  0  0  0  0  0  0  0  0  0
   19.7671   -3.2419  -15.0656 O   0  0  0  0  0  0  0  0  0  0  0  0
   13.7698   -2.8094  -15.4737 O   0  0  0  0  0  0  0  0  0  0  0  0
   18.9488   -2.9990  -17.1562 O   0  0  0  0  0  0  0  0  0  0  0  0
  2  4  1  0
  2  1  1  6
  3  2  1  0
  4  6  1  0
  4  5  1  1
  6  7  2  0
  8  6  1  0
  8  9  1  0
  9 14  1  0
  9 10  1  6
 11 10  1  0
 12 16  1  0
 12 11  1  0
 13 12  2  0
 14 15  2  0
 17 18  1  0
 17 14  1  0
 18 23  1  0
 18 19  1  1
 20 19  1  0
 21 22  2  0
 21 20  1  0
 23 24  2  0
 23 26  1  0
 25 21  1  0
M  END
$$$$
