VEE.pdb
     RDKit          3D

 26 25  0  0  1  0  0  0  0  0999 V2000
   19.0097  -13.1376  -18.6200 C   0  0  0  0  0  0  0  0  0  0  0  0
   19.6691  -12.1835  -17.6913 C   0  0  1  0  0  0  0  0  0  0  0  0
   19.0305  -12.1360  -16.3225 C   0  0  0  0  0  0  0  0  0  0  0  0
   21.1553  -12.4673  -17.6040 C   0  0  2  0  0  0  0  0  0  0  0  0
   21.2275  -13.8270  -17.0234 N   0  0  0  0  0  0  0  0  0  0  0  0
   21.8122  -11.5486  -16.6643 C   0  0  0  0  0  0  0  0  0  0  0  0
   21.6480  -11.7265  -15.4220 O   0  0  0  0  0  0  0  0  0  0  0  0
   22.6396  -10.4492  -17.0161 N   0  0  0  0  0  0  0  0  0  0  0  0
   23.1762   -9.5745  -15.9860 C   0  0  1  0  0  0  0  0  0  0  0  0
   24.6785   -9.6070  -16.1431 C   0  0  0  0  0  0  0  0  0  0  0  0
   25.2826  -10.9092  -15.7577 C   0  0  0  0  0  0  0  0  0  0  0  0
   26.7304  -10.9282  -15.9449 C   0  0  0  0  0  0  0  0  0  0  0  0
   27.4261   -9.9680  -16.3445 O   0  0  0  0  0  0  0  0  0  0  0  0
   22.6523   -8.1902  -16.1174 C   0  0  0  0  0  0  0  0  0  0  0  0
   22.1985   -7.8320  -17.2290 O   0  0  0  0  0  0  0  0  0  0  0  0
   27.4835  -12.0994  -15.6715 O   0  0  0  0  0  0  0  0  0  0  0  0
   22.6447   -7.2637  -15.0448 N   0  0  0  0  0  0  0  0  0  0  0  0
   22.0745   -5.9298  -15.1033 C   0  0  1  0  0  0  0  0  0  0  0  0
   20.8124   -5.8773  -15.8781 C   0  0  0  0  0  0  0  0  0  0  0  0
   19.5829   -6.4317  -15.2863 C   0  0  0  0  0  0  0  0  0  0  0  0
   18.3243   -6.3148  -16.0111 C   0  0  0  0  0  0  0  0  0  0  0  0
   17.7945   -7.2355  -16.6384 O   0  0  0  0  0  0  0  0  0  0  0  0
   22.1392   -5.1815  -13.8491 C   0  0  0  0  0  0  0  0  0  0  0  0
   21.9332   -3.9388  -13.7615 O   0  0  0  0  0  0  0  0  0  0  0  0
   17.6130   -5.0964  -16.0380 O   0  0  0  0  0  0  0  0  0  0  0  0
   22.4421   -5.8506  -12.6731 O   0  0  0  0  0  0  0  0  0  0  0  0
  2  4  1  0
  2  1  1  6
  3  2  1  0
  4  6  1  0
  4  5  1  1
  6  7  2  0
  8  6  1  0
  8  9  1  0
  9 14  1  0
  9 10  1  6
 11 10  1  0
 12 16  1  0
 12 11  1  0
 13 12  2  0
 14 15  2  0
 17 18  1  0
 17 14  1  0
 18 23  1  0
 18 19  1  1
 20 19  1  0
 21 22  2  0
 21 20  1  0
 23 24  2  0
 23 26  1  0
 25 21  1  0
M  END
$$$$
