VEE.pdb
     RDKit          3D

 26 25  0  0  1  0  0  0  0  0999 V2000
   21.7459  -14.4589  -19.1381 C   0  0  0  0  0  0  0  0  0  0  0  0
   21.0126  -13.2550  -18.6688 C   0  0  1  0  0  0  0  0  0  0  0  0
   20.8765  -12.1825  -19.7247 C   0  0  0  0  0  0  0  0  0  0  0  0
   19.6663  -13.6437  -18.0914 C   0  0  2  0  0  0  0  0  0  0  0  0
   18.9263  -14.1970  -19.2477 N   0  0  0  0  0  0  0  0  0  0  0  0
   18.9337  -12.4600  -17.6215 C   0  0  0  0  0  0  0  0  0  0  0  0
   18.3032  -11.7582  -18.4654 O   0  0  0  0  0  0  0  0  0  0  0  0
   18.8552  -12.0089  -16.2771 N   0  0  0  0  0  0  0  0  0  0  0  0
   18.1450  -10.7821  -15.9542 C   0  0  1  0  0  0  0  0  0  0  0  0
   17.1994  -11.1243  -14.8266 C   0  0  0  0  0  0  0  0  0  0  0  0
   16.0073  -11.8929  -15.2709 C   0  0  0  0  0  0  0  0  0  0  0  0
   15.0930  -12.1868  -14.1712 C   0  0  0  0  0  0  0  0  0  0  0  0
   15.3352  -12.0128  -12.9560 O   0  0  0  0  0  0  0  0  0  0  0  0
   19.0803   -9.6969  -15.5600 C   0  0  0  0  0  0  0  0  0  0  0  0
   20.1720  -10.0178  -15.0355 O   0  0  0  0  0  0  0  0  0  0  0  0
   13.8011  -12.7174  -14.4219 O   0  0  0  0  0  0  0  0  0  0  0  0
   18.7911   -8.3225  -15.7510 N   0  0  0  0  0  0  0  0  0  0  0  0
   19.6845   -7.2303  -15.4094 C   0  0  1  0  0  0  0  0  0  0  0  0
   20.7431   -7.0144  -16.4237 C   0  0  0  0  0  0  0  0  0  0  0  0
   21.7725   -5.9895  -16.1805 C   0  0  0  0  0  0  0  0  0  0  0  0
   22.7584   -5.7061  -17.2152 C   0  0  0  0  0  0  0  0  0  0  0  0
   22.8297   -6.3052  -18.2913 O   0  0  0  0  0  0  0  0  0  0  0  0
   19.0243   -6.0530  -14.8481 C   0  0  0  0  0  0  0  0  0  0  0  0
   17.8266   -5.7361  -15.0927 O   0  0  0  0  0  0  0  0  0  0  0  0
   23.7242   -4.6924  -17.0389 O   0  0  0  0  0  0  0  0  0  0  0  0
   19.7310   -5.2193  -13.9948 O   0  0  0  0  0  0  0  0  0  0  0  0
  2  4  1  0
  2  1  1  6
  3  2  1  0
  4  6  1  0
  4  5  1  6
  6  7  2  0
  8  6  1  0
  8  9  1  0
  9 14  1  0
  9 10  1  1
 11 10  1  0
 12 16  1  0
 12 11  1  0
 13 12  2  0
 14 15  2  0
 17 18  1  0
 17 14  1  0
 18 23  1  0
 18 19  1  6
 20 19  1  0
 21 22  2  0
 21 20  1  0
 23 24  2  0
 23 26  1  0
 25 21  1  0
M  END
$$$$
