VEE.pdb
     RDKit          3D

 26 25  0  0  1  0  0  0  0  0999 V2000
   27.3035  -13.1521  -16.9906 C   0  0  0  0  0  0  0  0  0  0  0  0
   26.1905  -12.2192  -17.3044 C   0  0  1  0  0  0  0  0  0  0  0  0
   25.1977  -12.7778  -18.2974 C   0  0  0  0  0  0  0  0  0  0  0  0
   25.5080  -11.7584  -16.0321 C   0  0  2  0  0  0  0  0  0  0  0  0
   24.9915  -13.0076  -15.4293 N   0  0  0  0  0  0  0  0  0  0  0  0
   24.3532  -10.9019  -16.3350 C   0  0  0  0  0  0  0  0  0  0  0  0
   24.5587   -9.7443  -16.8037 O   0  0  0  0  0  0  0  0  0  0  0  0
   22.9884  -11.2497  -16.1527 N   0  0  0  0  0  0  0  0  0  0  0  0
   21.9357  -10.3436  -16.5827 C   0  0  1  0  0  0  0  0  0  0  0  0
   20.7322  -11.2055  -16.8850 C   0  0  0  0  0  0  0  0  0  0  0  0
   19.5965  -10.4461  -17.4705 C   0  0  0  0  0  0  0  0  0  0  0  0
   18.4350  -11.2924  -17.7280 C   0  0  0  0  0  0  0  0  0  0  0  0
   18.3966  -12.5363  -17.5977 O   0  0  0  0  0  0  0  0  0  0  0  0
   21.6241   -9.3334  -15.5385 C   0  0  0  0  0  0  0  0  0  0  0  0
   21.6009   -9.7060  -14.3426 O   0  0  0  0  0  0  0  0  0  0  0  0
   17.2084  -10.7297  -18.1664 O   0  0  0  0  0  0  0  0  0  0  0  0
   21.3537   -7.9743  -15.8369 N   0  0  0  0  0  0  0  0  0  0  0  0
   21.0364   -6.9551  -14.8529 C   0  0  1  0  0  0  0  0  0  0  0  0
   21.8034   -5.7031  -15.0539 C   0  0  0  0  0  0  0  0  0  0  0  0
   21.6222   -4.5901  -14.1066 C   0  0  0  0  0  0  0  0  0  0  0  0
   22.3997   -3.3699  -14.2791 C   0  0  0  0  0  0  0  0  0  0  0  0
   23.3128   -3.2366  -15.0980 O   0  0  0  0  0  0  0  0  0  0  0  0
   19.6161   -6.8424  -14.5254 C   0  0  0  0  0  0  0  0  0  0  0  0
   18.6952   -6.8283  -15.3893 O   0  0  0  0  0  0  0  0  0  0  0  0
   22.1431   -2.2285  -13.4901 O   0  0  0  0  0  0  0  0  0  0  0  0
   19.2305   -6.7442  -13.1972 O   0  0  0  0  0  0  0  0  0  0  0  0
  2  4  1  0
  2  1  1  1
  3  2  1  0
  4  6  1  0
  4  5  1  6
  6  7  2  0
  8  6  1  0
  8  9  1  0
  9 14  1  0
  9 10  1  1
 11 10  1  0
 12 16  1  0
 12 11  1  0
 13 12  2  0
 14 15  2  0
 17 18  1  0
 17 14  1  0
 18 23  1  0
 18 19  1  6
 20 19  1  0
 21 22  2  0
 21 20  1  0
 23 24  2  0
 23 26  1  0
 25 21  1  0
M  END
$$$$
