QCV.pdb
     RDKit          3D

 23 22  0  0  1  0  0  0  0  0999 V2000
   19.9169  -10.9199  -21.0185 N   0  0  0  0  0  0  0  0  0  0  0  0
   19.0424  -12.0555  -20.9622 C   0  0  0  0  0  0  0  0  0  0  0  0
   18.9869  -12.8460  -21.9367 O   0  0  0  0  0  0  0  0  0  0  0  0
   18.2491  -12.2425  -19.7525 C   0  0  0  0  0  0  0  0  0  0  0  0
   18.3834  -11.1965  -18.7177 C   0  0  0  0  0  0  0  0  0  0  0  0
   19.4397  -11.4159  -17.6760 C   0  0  2  0  0  0  0  0  0  0  0  0
   19.3240  -12.6594  -16.9899 N   0  0  0  0  0  0  0  0  0  0  0  0
   19.4756  -10.2485  -16.7803 C   0  0  0  0  0  0  0  0  0  0  0  0
   18.5149  -10.0567  -15.9846 O   0  0  0  0  0  0  0  0  0  0  0  0
   20.5137   -9.3339  -16.7589 N   0  0  0  0  0  0  0  0  0  0  0  0
   20.6362   -8.2273  -15.8342 C   0  0  1  0  0  0  0  0  0  0  0  0
   22.0026   -8.0511  -15.2764 C   0  0  0  0  0  0  0  0  0  0  0  0
   22.4897   -9.3998  -14.1725 S   0  0  0  0  0  0  0  0  0  0  0  0
   20.2276   -6.9887  -16.5209 C   0  0  0  0  0  0  0  0  0  0  0  0
   20.5567   -6.7218  -17.7094 O   0  0  0  0  0  0  0  0  0  0  0  0
   17.0375   -5.8641  -17.5947 C   0  0  0  0  0  0  0  0  0  0  0  0
   17.5156   -4.8532  -16.5999 C   0  0  2  0  0  0  0  0  0  0  0  0
   16.9224   -3.5161  -16.9692 C   0  0  0  0  0  0  0  0  0  0  0  0
   19.0017   -4.7926  -16.4484 C   0  0  2  0  0  0  0  0  0  0  0  0
   19.4345   -6.0407  -15.8493 N   0  0  0  0  0  0  0  0  0  0  0  0
   19.4763   -3.6214  -15.6826 C   0  0  0  0  0  0  0  0  0  0  0  0
   19.5119   -3.6118  -14.2881 O   0  0  0  0  0  0  0  0  0  0  0  0
   19.8601   -2.6035  -16.2764 O   0  0  0  0  0  0  0  0  0  0  0  0
  1  2  1  0
  2  3  2  0
  4  5  1  0
  4  2  1  0
  6  5  1  0
  6  8  1  0
  6  7  1  1
  8  9  2  0
 10 11  1  0
 10  8  1  0
 11 12  1  6
 13 12  1  0
 14 11  1  0
 14 15  2  0
 17 16  1  6
 17 19  1  0
 18 17  1  0
 19 20  1  1
 19 21  1  0
 20 14  1  0
 21 23  2  0
 21 22  1  0
M  END
$$$$
