QCV.pdb
     RDKit          3D

 23 22  0  0  1  0  0  0  0  0999 V2000
   30.3723  -34.2663  -19.0869 N   0  0  0  0  0  0  0  0  0  0  0  0
   30.5604  -34.3850  -17.6698 C   0  0  0  0  0  0  0  0  0  0  0  0
   30.3883  -35.4967  -17.1111 O   0  0  0  0  0  0  0  0  0  0  0  0
   30.9536  -33.1884  -16.9342 C   0  0  0  0  0  0  0  0  0  0  0  0
   30.2253  -32.9295  -15.6751 C   0  0  0  0  0  0  0  0  0  0  0  0
   28.9445  -32.1577  -15.7881 C   0  0  2  0  0  0  0  0  0  0  0  0
   29.1294  -30.7600  -15.9951 N   0  0  0  0  0  0  0  0  0  0  0  0
   28.0926  -32.4754  -14.6306 C   0  0  0  0  0  0  0  0  0  0  0  0
   28.0920  -31.6962  -13.6378 O   0  0  0  0  0  0  0  0  0  0  0  0
   27.2819  -33.5947  -14.5633 N   0  0  0  0  0  0  0  0  0  0  0  0
   26.3718  -33.9060  -13.4819 C   0  0  1  0  0  0  0  0  0  0  0  0
   25.1607  -33.0453  -13.4412 C   0  0  0  0  0  0  0  0  0  0  0  0
   23.8757  -33.6927  -12.3436 S   0  0  0  0  0  0  0  0  0  0  0  0
   25.9621  -35.3171  -13.5990 C   0  0  0  0  0  0  0  0  0  0  0  0
   25.6386  -35.8494  -14.6962 O   0  0  0  0  0  0  0  0  0  0  0  0
   27.8918  -38.1061  -11.5577 C   0  0  0  0  0  0  0  0  0  0  0  0
   26.9207  -38.2795  -12.6834 C   0  0  2  0  0  0  0  0  0  0  0  0
   27.6158  -37.8923  -13.9652 C   0  0  0  0  0  0  0  0  0  0  0  0
   25.6264  -37.5546  -12.4981 C   0  0  2  0  0  0  0  0  0  0  0  0
   25.9193  -36.1345  -12.4550 N   0  0  0  0  0  0  0  0  0  0  0  0
   24.8605  -37.9941  -11.3134 C   0  0  0  0  0  0  0  0  0  0  0  0
   23.8512  -38.9534  -11.3965 O   0  0  0  0  0  0  0  0  0  0  0  0
   25.1047  -37.5089  -10.1993 O   0  0  0  0  0  0  0  0  0  0  0  0
  1  2  1  0
  2  3  2  0
  4  5  1  0
  4  2  1  0
  6  5  1  0
  6  8  1  0
  6  7  1  1
  8  9  2  0
 10 11  1  0
 10  8  1  0
 11 12  1  6
 13 12  1  0
 14 11  1  0
 14 15  2  0
 17 16  1  1
 17 19  1  0
 18 17  1  0
 19 20  1  1
 19 21  1  0
 20 14  1  0
 21 23  2  0
 21 22  1  0
M  END
$$$$
