QCV.pdb
     RDKit          3D

 23 22  0  0  1  0  0  0  0  0999 V2000
   19.2564  -12.6988  -18.5250 N   0  0  0  0  0  0  0  0  0  0  0  0
   19.4835  -13.4581  -17.3295 C   0  0  0  0  0  0  0  0  0  0  0  0
   19.8205  -14.6652  -17.4145 O   0  0  0  0  0  0  0  0  0  0  0  0
   19.3130  -12.7782  -16.0504 C   0  0  0  0  0  0  0  0  0  0  0  0
   18.9984  -11.3361  -16.1165 C   0  0  0  0  0  0  0  0  0  0  0  0
   17.7706  -10.8837  -15.3836 C   0  0  2  0  0  0  0  0  0  0  0  0
   16.5579  -11.4252  -15.9000 N   0  0  0  0  0  0  0  0  0  0  0  0
   17.7755   -9.4138  -15.3074 C   0  0  0  0  0  0  0  0  0  0  0  0
   17.5637   -8.7449  -16.3565 O   0  0  0  0  0  0  0  0  0  0  0  0
   18.0037   -8.7104  -14.1379 N   0  0  0  0  0  0  0  0  0  0  0  0
   17.9680   -7.2695  -14.0065 C   0  0  1  0  0  0  0  0  0  0  0  0
   16.8678   -6.7661  -13.1432 C   0  0  0  0  0  0  0  0  0  0  0  0
   15.2521   -7.4417  -13.5996 S   0  0  0  0  0  0  0  0  0  0  0  0
   19.2600   -6.8111  -13.4648 C   0  0  0  0  0  0  0  0  0  0  0  0
   19.7452   -7.2469  -12.3846 O   0  0  0  0  0  0  0  0  0  0  0  0
   22.1351   -5.3183  -16.0792 C   0  0  0  0  0  0  0  0  0  0  0  0
   22.3299   -5.8302  -14.6863 C   0  0  2  0  0  0  0  0  0  0  0  0
   22.4170   -7.3351  -14.7484 C   0  0  0  0  0  0  0  0  0  0  0  0
   21.3017   -5.3609  -13.7077 C   0  0  2  0  0  0  0  0  0  0  0  0
   20.0110   -5.8453  -14.1589 N   0  0  0  0  0  0  0  0  0  0  0  0
   21.2983   -3.8978  -13.5012 C   0  0  0  0  0  0  0  0  0  0  0  0
   20.2685   -3.0843  -13.9741 O   0  0  0  0  0  0  0  0  0  0  0  0
   22.2296   -3.3532  -12.8910 O   0  0  0  0  0  0  0  0  0  0  0  0
  1  2  1  0
  2  3  2  0
  4  5  1  0
  4  2  1  0
  6  5  1  0
  6  8  1  0
  6  7  1  6
  8  9  2  0
 10 11  1  0
 10  8  1  0
 11 12  1  1
 13 12  1  0
 14 11  1  0
 14 15  2  0
 17 16  1  6
 17 19  1  0
 18 17  1  0
 19 20  1  6
 19 21  1  0
 20 14  1  0
 21 23  2  0
 21 22  1  0
M  END
$$$$
