QCV.pdb
     RDKit          3D

 23 22  0  0  1  0  0  0  0  0999 V2000
   23.4834  -27.0936  -14.3459 N   0  0  0  0  0  0  0  0  0  0  0  0
   22.0882  -27.1138  -14.6782 C   0  0  0  0  0  0  0  0  0  0  0  0
   21.5827  -28.1506  -15.1755 O   0  0  0  0  0  0  0  0  0  0  0  0
   21.3095  -25.9091  -14.4138 C   0  0  0  0  0  0  0  0  0  0  0  0
   22.0472  -24.7739  -13.8221 C   0  0  0  0  0  0  0  0  0  0  0  0
   23.4907  -24.6396  -14.2059 C   0  0  2  0  0  0  0  0  0  0  0  0
   24.3911  -25.2569  -13.2901 N   0  0  0  0  0  0  0  0  0  0  0  0
   23.7866  -23.2201  -14.4586 C   0  0  0  0  0  0  0  0  0  0  0  0
   22.9725  -22.3433  -14.0570 O   0  0  0  0  0  0  0  0  0  0  0  0
   24.9196  -22.7823  -15.1214 N   0  0  0  0  0  0  0  0  0  0  0  0
   25.3137  -21.3991  -15.2830 C   0  0  1  0  0  0  0  0  0  0  0  0
   26.7184  -21.2171  -15.7334 C   0  0  0  0  0  0  0  0  0  0  0  0
   27.9103  -22.0846  -14.6837 S   0  0  0  0  0  0  0  0  0  0  0  0
   24.4055  -20.7578  -16.2507 C   0  0  0  0  0  0  0  0  0  0  0  0
   23.9677  -21.3475  -17.2767 O   0  0  0  0  0  0  0  0  0  0  0  0
   22.1800  -17.3943  -14.9896 C   0  0  0  0  0  0  0  0  0  0  0  0
   21.8687  -18.3525  -16.0965 C   0  0  2  0  0  0  0  0  0  0  0  0
   21.1647  -19.5455  -15.4989 C   0  0  0  0  0  0  0  0  0  0  0  0
   23.0515  -18.7460  -16.9219 C   0  0  2  0  0  0  0  0  0  0  0  0
   23.9888  -19.4293  -16.0507 N   0  0  0  0  0  0  0  0  0  0  0  0
   23.6852  -17.6166  -17.6334 C   0  0  0  0  0  0  0  0  0  0  0  0
   23.2312  -17.1740  -18.8759 O   0  0  0  0  0  0  0  0  0  0  0  0
   24.6527  -17.0280  -17.1296 O   0  0  0  0  0  0  0  0  0  0  0  0
  1  2  1  0
  2  3  2  0
  4  5  1  0
  4  2  1  0
  6  5  1  0
  6  8  1  0
  6  7  1  1
  8  9  2  0
 10 11  1  0
 10  8  1  0
 11 12  1  6
 13 12  1  0
 14 11  1  0
 14 15  2  0
 17 16  1  1
 17 19  1  0
 18 17  1  0
 19 20  1  1
 19 21  1  0
 20 14  1  0
 21 23  2  0
 21 22  1  0
M  END
$$$$
