QCV.pdb
     RDKit          3D

 23 22  0  0  1  0  0  0  0  0999 V2000
   28.3471  -18.2300  -15.9231 N   0  0  0  0  0  0  0  0  0  0  0  0
   28.5166  -18.7399  -17.2531 C   0  0  0  0  0  0  0  0  0  0  0  0
   29.3218  -18.1777  -18.0363 O   0  0  0  0  0  0  0  0  0  0  0  0
   27.7346  -19.9100  -17.6367 C   0  0  0  0  0  0  0  0  0  0  0  0
   26.9490  -20.5491  -16.5611 C   0  0  0  0  0  0  0  0  0  0  0  0
   27.7284  -21.2314  -15.4766 C   0  0  2  0  0  0  0  0  0  0  0  0
   28.5551  -22.2947  -15.9416 N   0  0  0  0  0  0  0  0  0  0  0  0
   26.8035  -21.6290  -14.4028 C   0  0  0  0  0  0  0  0  0  0  0  0
   26.1353  -22.6919  -14.5318 O   0  0  0  0  0  0  0  0  0  0  0  0
   26.6181  -20.8959  -13.2440 N   0  0  0  0  0  0  0  0  0  0  0  0
   25.6093  -21.1575  -12.2397 C   0  0  1  0  0  0  0  0  0  0  0  0
   25.9031  -20.5546  -10.9133 C   0  0  0  0  0  0  0  0  0  0  0  0
   24.6037  -20.8722   -9.6943 S   0  0  0  0  0  0  0  0  0  0  0  0
   24.3132  -20.6524  -12.7273 C   0  0  0  0  0  0  0  0  0  0  0  0
   24.1527  -19.4782  -13.1603 O   0  0  0  0  0  0  0  0  0  0  0  0
   22.5206  -21.7705  -15.5090 C   0  0  0  0  0  0  0  0  0  0  0  0
   21.5336  -21.8846  -14.3895 C   0  0  2  0  0  0  0  0  0  0  0  0
   20.1664  -21.5546  -14.9354 C   0  0  0  0  0  0  0  0  0  0  0  0
   21.8743  -21.0714  -13.1822 C   0  0  2  0  0  0  0  0  0  0  0  0
   23.1846  -21.4919  -12.7234 N   0  0  0  0  0  0  0  0  0  0  0  0
   20.8643  -21.1482  -12.1064 C   0  0  0  0  0  0  0  0  0  0  0  0
   19.9481  -20.1222  -11.8742 O   0  0  0  0  0  0  0  0  0  0  0  0
   20.8101  -22.1466  -11.3738 O   0  0  0  0  0  0  0  0  0  0  0  0
  1  2  1  0
  2  3  2  0
  4  5  1  0
  4  2  1  0
  6  5  1  0
  6  8  1  0
  6  7  1  6
  8  9  2  0
 10 11  1  0
 10  8  1  0
 11 12  1  1
 13 12  1  0
 14 11  1  0
 14 15  2  0
 17 16  1  6
 17 19  1  0
 18 17  1  0
 19 20  1  1
 19 21  1  0
 20 14  1  0
 21 23  2  0
 21 22  1  0
M  END
$$$$
