QCV.pdb
     RDKit          3D

 23 22  0  0  1  0  0  0  0  0999 V2000
   16.9350  -13.8346  -17.2449 N   0  0  0  0  0  0  0  0  0  0  0  0
   18.0533  -14.2705  -18.0304 C   0  0  0  0  0  0  0  0  0  0  0  0
   18.0992  -15.4563  -18.4419 O   0  0  0  0  0  0  0  0  0  0  0  0
   19.0995  -13.2966  -18.3217 C   0  0  0  0  0  0  0  0  0  0  0  0
   18.8959  -11.9393  -17.7749 C   0  0  0  0  0  0  0  0  0  0  0  0
   19.9702  -10.9330  -18.0620 C   0  0  2  0  0  0  0  0  0  0  0  0
   21.2849  -11.4821  -18.0816 N   0  0  0  0  0  0  0  0  0  0  0  0
   19.8185   -9.7971  -17.1383 C   0  0  0  0  0  0  0  0  0  0  0  0
   18.7009   -9.6017  -16.5855 O   0  0  0  0  0  0  0  0  0  0  0  0
   20.8420   -8.9163  -16.8363 N   0  0  0  0  0  0  0  0  0  0  0  0
   20.7362   -7.7846  -15.9403 C   0  0  1  0  0  0  0  0  0  0  0  0
   21.8470   -7.6826  -14.9580 C   0  0  0  0  0  0  0  0  0  0  0  0
   21.6749   -8.8434  -13.5803 S   0  0  0  0  0  0  0  0  0  0  0  0
   20.6808   -6.5491  -16.7422 C   0  0  0  0  0  0  0  0  0  0  0  0
   21.4820   -6.3068  -17.6864 O   0  0  0  0  0  0  0  0  0  0  0  0
   17.0393   -4.5889  -16.9460 C   0  0  0  0  0  0  0  0  0  0  0  0
   18.1774   -4.4561  -17.9090 C   0  0  2  0  0  0  0  0  0  0  0  0
   18.0839   -5.5870  -18.9032 C   0  0  0  0  0  0  0  0  0  0  0  0
   19.5240   -4.3766  -17.2646 C   0  0  2  0  0  0  0  0  0  0  0  0
   19.7028   -5.5760  -16.4685 N   0  0  0  0  0  0  0  0  0  0  0  0
   19.7322   -3.1507  -16.4662 C   0  0  0  0  0  0  0  0  0  0  0  0
   20.3135   -2.0035  -17.0064 O   0  0  0  0  0  0  0  0  0  0  0  0
   19.3873   -3.1171  -15.2762 O   0  0  0  0  0  0  0  0  0  0  0  0
  1  2  1  0
  2  3  2  0
  4  5  1  0
  4  2  1  0
  6  5  1  0
  6  8  1  0
  6  7  1  1
  8  9  2  0
 10 11  1  0
 10  8  1  0
 11 12  1  1
 13 12  1  0
 14 11  1  0
 14 15  2  0
 17 16  1  1
 17 19  1  0
 18 17  1  0
 19 20  1  1
 19 21  1  0
 20 14  1  0
 21 23  2  0
 21 22  1  0
M  END
$$$$
