QCV.pdb
     RDKit          3D

 23 22  0  0  1  0  0  0  0  0999 V2000
   28.5889  -23.6744  -16.5444 N   0  0  0  0  0  0  0  0  0  0  0  0
   27.7554  -24.8413  -16.5119 C   0  0  0  0  0  0  0  0  0  0  0  0
   28.0864  -25.8600  -17.1679 O   0  0  0  0  0  0  0  0  0  0  0  0
   26.5443  -24.7885  -15.7005 C   0  0  0  0  0  0  0  0  0  0  0  0
   26.3224  -23.5398  -14.9426 C   0  0  0  0  0  0  0  0  0  0  0  0
   25.9750  -22.3214  -15.7452 C   0  0  2  0  0  0  0  0  0  0  0  0
   27.0727  -21.4380  -15.9576 N   0  0  0  0  0  0  0  0  0  0  0  0
   24.8019  -21.6704  -15.1397 C   0  0  0  0  0  0  0  0  0  0  0  0
   24.7528  -21.5396  -13.8854 O   0  0  0  0  0  0  0  0  0  0  0  0
   23.7328  -21.1875  -15.8735 N   0  0  0  0  0  0  0  0  0  0  0  0
   22.5841  -20.4981  -15.3259 C   0  0  1  0  0  0  0  0  0  0  0  0
   22.2869  -19.1982  -15.9824 C   0  0  0  0  0  0  0  0  0  0  0  0
   21.2370  -18.1250  -14.9719 S   0  0  0  0  0  0  0  0  0  0  0  0
   21.4069  -21.3785  -15.4349 C   0  0  0  0  0  0  0  0  0  0  0  0
   21.0964  -21.9814  -16.4989 O   0  0  0  0  0  0  0  0  0  0  0  0
   20.6513  -24.3725  -13.6702 C   0  0  0  0  0  0  0  0  0  0  0  0
   19.4766  -23.4820  -13.4106 C   0  0  2  0  0  0  0  0  0  0  0  0
   18.2382  -24.3425  -13.3638 C   0  0  0  0  0  0  0  0  0  0  0  0
   19.3414  -22.3444  -14.3711 C   0  0  2  0  0  0  0  0  0  0  0  0
   20.5715  -21.5771  -14.3208 N   0  0  0  0  0  0  0  0  0  0  0  0
   18.1549  -21.4974  -14.1298 C   0  0  0  0  0  0  0  0  0  0  0  0
   16.9421  -21.7160  -14.7834 O   0  0  0  0  0  0  0  0  0  0  0  0
   18.2152  -20.5564  -13.3253 O   0  0  0  0  0  0  0  0  0  0  0  0
  1  2  1  0
  2  3  2  0
  4  5  1  0
  4  2  1  0
  6  5  1  0
  6  8  1  0
  6  7  1  1
  8  9  2  0
 10 11  1  0
 10  8  1  0
 11 12  1  6
 13 12  1  0
 14 11  1  0
 14 15  2  0
 17 16  1  6
 17 19  1  0
 18 17  1  0
 19 20  1  1
 19 21  1  0
 20 14  1  0
 21 23  2  0
 21 22  1  0
M  END
$$$$
