QCV.pdb
     RDKit          3D

 23 22  0  0  1  0  0  0  0  0999 V2000
   28.2346  -18.6251  -14.3962 N   0  0  0  0  0  0  0  0  0  0  0  0
   28.2385  -18.0763  -15.7214 C   0  0  0  0  0  0  0  0  0  0  0  0
   28.7579  -16.9513  -15.9267 O   0  0  0  0  0  0  0  0  0  0  0  0
   27.6317  -18.8677  -16.7860 C   0  0  0  0  0  0  0  0  0  0  0  0
   27.1234  -20.1996  -16.3982 C   0  0  0  0  0  0  0  0  0  0  0  0
   27.6416  -20.7657  -15.1098 C   0  0  2  0  0  0  0  0  0  0  0  0
   28.6306  -21.7772  -15.2803 N   0  0  0  0  0  0  0  0  0  0  0  0
   26.5005  -21.1894  -14.2821 C   0  0  0  0  0  0  0  0  0  0  0  0
   25.8533  -22.2212  -14.6126 O   0  0  0  0  0  0  0  0  0  0  0  0
   26.0871  -20.5135  -13.1477 N   0  0  0  0  0  0  0  0  0  0  0  0
   25.0531  -20.9580  -12.2379 C   0  0  1  0  0  0  0  0  0  0  0  0
   25.2429  -20.5041  -10.8353 C   0  0  0  0  0  0  0  0  0  0  0  0
   26.7425  -21.1757  -10.0768 S   0  0  0  0  0  0  0  0  0  0  0  0
   23.7495  -20.4792  -12.7320 C   0  0  0  0  0  0  0  0  0  0  0  0
   23.5194  -19.2679  -12.9997 O   0  0  0  0  0  0  0  0  0  0  0  0
   22.0346  -22.0876  -15.6335 C   0  0  0  0  0  0  0  0  0  0  0  0
   21.0371  -21.9898  -14.5219 C   0  0  2  0  0  0  0  0  0  0  0  0
   19.6856  -21.7057  -15.1292 C   0  0  0  0  0  0  0  0  0  0  0  0
   21.3979  -21.0070  -13.4547 C   0  0  2  0  0  0  0  0  0  0  0  0
   22.6934  -21.3881  -12.9248 N   0  0  0  0  0  0  0  0  0  0  0  0
   20.3823  -20.8842  -12.3884 C   0  0  0  0  0  0  0  0  0  0  0  0
   19.4367  -19.8587  -12.3792 O   0  0  0  0  0  0  0  0  0  0  0  0
   20.3500  -21.7070  -11.4620 O   0  0  0  0  0  0  0  0  0  0  0  0
  1  2  1  0
  2  3  2  0
  4  5  1  0
  4  2  1  0
  6  5  1  0
  6  8  1  0
  6  7  1  6
  8  9  2  0
 10 11  1  0
 10  8  1  0
 11 12  1  1
 13 12  1  0
 14 11  1  0
 14 15  2  0
 17 16  1  6
 17 19  1  0
 18 17  1  0
 19 20  1  1
 19 21  1  0
 20 14  1  0
 21 23  2  0
 21 22  1  0
M  END
$$$$
