YDI.pdb
     RDKit          3D

 29 29  0  0  1  0  0  0  0  0999 V2000
   14.5275  -23.7593   24.8553 O   0  0  0  0  0  0  0  0  0  0  0  0
   13.9429  -22.5040   24.6413 C   0  0  0  0  0  0  0  0  0  0  0  0
   14.7125  -21.3839   24.4047 C   0  0  0  0  0  0  0  0  0  0  0  0
   14.1241  -20.1527   24.1954 C   0  0  0  0  0  0  0  0  0  0  0  0
   12.7568  -19.9767   24.2109 C   0  0  0  0  0  0  0  0  0  0  0  0
   12.1102  -18.6528   23.9840 C   0  0  0  0  0  0  0  0  0  0  0  0
   11.6906  -18.4895   22.5375 C   0  0  2  0  0  0  0  0  0  0  0  0
   12.8565  -18.4924   21.6841 N   0  0  0  0  0  0  0  0  0  0  0  0
   10.8591  -17.2668   22.3320 C   0  0  0  0  0  0  0  0  0  0  0  0
   11.4642  -16.2591   21.9062 O   0  0  0  0  0  0  0  0  0  0  0  0
   11.9847  -21.1042   24.4486 C   0  0  0  0  0  0  0  0  0  0  0  0
   12.5730  -22.3412   24.6592 C   0  0  0  0  0  0  0  0  0  0  0  0
    9.4922  -17.2104   22.5864 N   0  0  0  0  0  0  0  0  0  0  0  0
    8.6061  -16.0669   22.3551 C   0  0  1  0  0  0  0  0  0  0  0  0
    7.2477  -16.5726   22.0214 C   0  0  0  0  0  0  0  0  0  0  0  0
    6.6400  -17.3991   23.0738 C   0  0  0  0  0  0  0  0  0  0  0  0
    7.2224  -17.6244   24.1460 O   0  0  0  0  0  0  0  0  0  0  0  0
    8.7120  -15.0888   23.3903 C   0  0  0  0  0  0  0  0  0  0  0  0
    8.9814  -13.8787   23.0635 O   0  0  0  0  0  0  0  0  0  0  0  0
    5.3629  -17.9696   22.8959 O   0  0  0  0  0  0  0  0  0  0  0  0
    6.1307  -11.4782   26.6066 C   0  0  0  0  0  0  0  0  0  0  0  0
    7.4648  -12.1920   26.5767 C   0  0  0  0  0  0  0  0  0  0  0  0
    7.4296  -13.3828   25.6418 C   0  0  2  0  0  0  0  0  0  0  0  0
    6.1449  -14.1444   25.7733 C   0  0  0  0  0  0  0  0  0  0  0  0
    8.6595  -14.2415   25.7475 C   0  0  2  0  0  0  0  0  0  0  0  0
    8.5405  -15.3192   24.7631 N   0  0  0  0  0  0  0  0  0  0  0  0
    8.6808  -14.8196   27.0961 C   0  0  0  0  0  0  0  0  0  0  0  0
    8.2850  -15.9946   27.3016 O   0  0  0  0  0  0  0  0  0  0  0  0
    9.1315  -14.0986   28.1712 O   0  0  0  0  0  0  0  0  0  0  0  0
  2  1  1  0
  3  2  2  0
  4  3  1  0
  5  4  2  0
  5 11  1  0
  6  5  1  0
  7  8  1  6
  7  6  1  0
  9  7  1  0
 10  9  2  0
 11 12  2  0
 12  2  1  0
 13  9  1  0
 14 18  1  0
 14 13  1  0
 14 15  1  1
 16 15  1  0
 17 16  2  0
 18 19  2  0
 20 16  1  0
 22 21  1  0
 23 24  1  1
 23 22  1  0
 25 23  1  0
 25 26  1  6
 26 18  1  0
 27 29  1  0
 27 25  1  0
 28 27  2  0
M  END
$$$$
