YDI.pdb
     RDKit          3D

 29 29  0  0  1  0  0  0  0  0999 V2000
   15.7601  -24.1691   33.8647 O   0  0  0  0  0  0  0  0  0  0  0  0
   15.3847  -23.1113   33.0259 C   0  0  0  0  0  0  0  0  0  0  0  0
   14.4946  -23.2978   31.9887 C   0  0  0  0  0  0  0  0  0  0  0  0
   14.1329  -22.2471   31.1695 C   0  0  0  0  0  0  0  0  0  0  0  0
   14.6328  -20.9735   31.3395 C   0  0  0  0  0  0  0  0  0  0  0  0
   14.2479  -19.8311   30.4627 C   0  0  0  0  0  0  0  0  0  0  0  0
   14.8443  -19.9790   29.0779 C   0  0  2  0  0  0  0  0  0  0  0  0
   16.2852  -19.9034   29.1526 N   0  0  0  0  0  0  0  0  0  0  0  0
   14.2878  -18.9779   28.1205 C   0  0  0  0  0  0  0  0  0  0  0  0
   14.8007  -17.8385   28.1610 O   0  0  0  0  0  0  0  0  0  0  0  0
   15.5274  -20.7880   32.3831 C   0  0  0  0  0  0  0  0  0  0  0  0
   15.8922  -21.8411   33.2068 C   0  0  0  0  0  0  0  0  0  0  0  0
   13.2620  -19.2551   27.2220 N   0  0  0  0  0  0  0  0  0  0  0  0
   12.6306  -18.3108   26.2971 C   0  0  1  0  0  0  0  0  0  0  0  0
   12.6653  -18.8865   24.9260 C   0  0  0  0  0  0  0  0  0  0  0  0
   12.0770  -18.0189   23.8960 C   0  0  0  0  0  0  0  0  0  0  0  0
   11.6766  -16.8738   24.1565 O   0  0  0  0  0  0  0  0  0  0  0  0
   11.3734  -17.8414   26.7858 C   0  0  0  0  0  0  0  0  0  0  0  0
   10.4641  -18.7021   27.0616 O   0  0  0  0  0  0  0  0  0  0  0  0
   11.9460  -18.4656   22.5650 O   0  0  0  0  0  0  0  0  0  0  0  0
   10.0184  -12.2907   27.4759 C   0  0  0  0  0  0  0  0  0  0  0  0
   10.0352  -13.7093   26.9491 C   0  0  0  0  0  0  0  0  0  0  0  0
    9.8248  -14.7119   28.0644 C   0  0  2  0  0  0  0  0  0  0  0  0
   10.8300  -14.5292   29.1616 C   0  0  0  0  0  0  0  0  0  0  0  0
    9.7213  -16.1258   27.5632 C   0  0  2  0  0  0  0  0  0  0  0  0
   11.0232  -16.5016   27.0078 N   0  0  0  0  0  0  0  0  0  0  0  0
    8.7168  -16.1436   26.4936 C   0  0  0  0  0  0  0  0  0  0  0  0
    9.0581  -16.2473   25.2885 O   0  0  0  0  0  0  0  0  0  0  0  0
    7.3785  -16.0478   26.7741 O   0  0  0  0  0  0  0  0  0  0  0  0
  2  1  1  0
  3  2  2  0
  4  3  1  0
  5  4  2  0
  5 11  1  0
  6  5  1  0
  7  8  1  1
  7  6  1  0
  9  7  1  0
 10  9  2  0
 11 12  2  0
 12  2  1  0
 13  9  1  0
 14 18  1  0
 14 13  1  0
 14 15  1  6
 16 15  1  0
 17 16  2  0
 18 19  2  0
 20 16  1  0
 22 21  1  0
 23 24  1  1
 23 22  1  0
 25 23  1  0
 25 26  1  6
 26 18  1  0
 27 29  1  0
 27 25  1  0
 28 27  2  0
M  END
$$$$
