YDI.pdb
     RDKit          3D

 29 29  0  0  1  0  0  0  0  0999 V2000
    6.2151  -12.4385   17.1665 O   0  0  0  0  0  0  0  0  0  0  0  0
    7.2255  -13.2178   17.7454 C   0  0  0  0  0  0  0  0  0  0  0  0
    7.4527  -13.2045   19.1059 C   0  0  0  0  0  0  0  0  0  0  0  0
    8.4516  -13.9771   19.6638 C   0  0  0  0  0  0  0  0  0  0  0  0
    9.2644  -14.7919   18.9048 C   0  0  0  0  0  0  0  0  0  0  0  0
   10.3445  -15.6320   19.4963 C   0  0  0  0  0  0  0  0  0  0  0  0
    9.8362  -17.0188   19.8335 C   0  0  2  0  0  0  0  0  0  0  0  0
    9.2295  -17.6173   18.6667 N   0  0  0  0  0  0  0  0  0  0  0  0
    8.8995  -17.0026   20.9958 C   0  0  0  0  0  0  0  0  0  0  0  0
    7.6917  -17.1817   20.7275 O   0  0  0  0  0  0  0  0  0  0  0  0
    9.0342  -14.8041   17.5371 C   0  0  0  0  0  0  0  0  0  0  0  0
    8.0322  -14.0293   16.9746 C   0  0  0  0  0  0  0  0  0  0  0  0
    9.3049  -16.8039   22.3121 N   0  0  0  0  0  0  0  0  0  0  0  0
    8.4896  -16.9869   23.5154 C   0  0  1  0  0  0  0  0  0  0  0  0
    8.2710  -18.4424   23.7299 C   0  0  0  0  0  0  0  0  0  0  0  0
    7.4716  -18.7597   24.9216 C   0  0  0  0  0  0  0  0  0  0  0  0
    7.9839  -18.8470   26.0482 O   0  0  0  0  0  0  0  0  0  0  0  0
    8.9810  -16.2223   24.6171 C   0  0  0  0  0  0  0  0  0  0  0  0
   10.2233  -16.3145   24.9201 O   0  0  0  0  0  0  0  0  0  0  0  0
    6.0823  -18.9789   24.8210 O   0  0  0  0  0  0  0  0  0  0  0  0
    5.8403  -12.1520   26.6295 C   0  0  0  0  0  0  0  0  0  0  0  0
    6.9804  -12.9321   26.0118 C   0  0  0  0  0  0  0  0  0  0  0  0
    7.7771  -13.6693   27.0677 C   0  0  2  0  0  0  0  0  0  0  0  0
    8.2802  -12.7342   28.1261 C   0  0  0  0  0  0  0  0  0  0  0  0
    8.8424  -14.5533   26.4805 C   0  0  2  0  0  0  0  0  0  0  0  0
    8.2273  -15.3527   25.4188 N   0  0  0  0  0  0  0  0  0  0  0  0
    9.3132  -15.4460   27.5458 C   0  0  0  0  0  0  0  0  0  0  0  0
    8.8295  -16.5976   27.6845 O   0  0  0  0  0  0  0  0  0  0  0  0
   10.2924  -15.0532   28.4208 O   0  0  0  0  0  0  0  0  0  0  0  0
  2  1  1  0
  3  2  2  0
  4  3  1  0
  5  4  2  0
  5 11  1  0
  6  5  1  0
  7  8  1  6
  7  6  1  0
  9  7  1  0
 10  9  2  0
 11 12  2  0
 12  2  1  0
 13  9  1  0
 14 18  1  0
 14 13  1  0
 14 15  1  1
 16 15  1  0
 17 16  2  0
 18 19  2  0
 20 16  1  0
 22 21  1  0
 23 24  1  1
 23 22  1  0
 25 23  1  0
 25 26  1  6
 26 18  1  0
 27 29  1  0
 27 25  1  0
 28 27  2  0
M  END
$$$$
