YDI.pdb
     RDKit          3D

 29 29  0  0  1  0  0  0  0  0999 V2000
   11.6556  -18.8848   30.8840 O   0  0  0  0  0  0  0  0  0  0  0  0
   11.8175  -18.0962   29.7371 C   0  0  0  0  0  0  0  0  0  0  0  0
   11.8845  -18.6609   28.4803 C   0  0  0  0  0  0  0  0  0  0  0  0
   12.0443  -17.8726   27.3583 C   0  0  0  0  0  0  0  0  0  0  0  0
   12.1441  -16.4994   27.4299 C   0  0  0  0  0  0  0  0  0  0  0  0
   12.3145  -15.6381   26.2253 C   0  0  0  0  0  0  0  0  0  0  0  0
   12.6677  -16.4657   25.0064 C   0  0  2  0  0  0  0  0  0  0  0  0
   14.0879  -16.3863   24.7530 N   0  0  0  0  0  0  0  0  0  0  0  0
   11.8702  -16.0654   23.8097 C   0  0  0  0  0  0  0  0  0  0  0  0
   12.2360  -15.0177   23.2340 O   0  0  0  0  0  0  0  0  0  0  0  0
   12.0761  -15.9335   28.6944 C   0  0  0  0  0  0  0  0  0  0  0  0
   11.9159  -16.7226   29.8224 C   0  0  0  0  0  0  0  0  0  0  0  0
   10.7801  -16.7860   23.3313 N   0  0  0  0  0  0  0  0  0  0  0  0
    9.5022  -16.2366   22.8716 C   0  0  1  0  0  0  0  0  0  0  0  0
    8.9846  -17.0865   21.7661 C   0  0  0  0  0  0  0  0  0  0  0  0
    7.7166  -16.6162   21.1911 C   0  0  0  0  0  0  0  0  0  0  0  0
    7.1519  -15.5914   21.6038 O   0  0  0  0  0  0  0  0  0  0  0  0
    8.6188  -15.9536   23.9576 C   0  0  0  0  0  0  0  0  0  0  0  0
    8.4002  -16.8729   24.8240 O   0  0  0  0  0  0  0  0  0  0  0  0
    7.0941  -17.3230   20.1417 O   0  0  0  0  0  0  0  0  0  0  0  0
    7.0823  -10.6976   25.0583 C   0  0  0  0  0  0  0  0  0  0  0  0
    7.6598  -12.0887   25.2043 C   0  0  0  0  0  0  0  0  0  0  0  0
    6.5651  -13.1308   25.2974 C   0  0  2  0  0  0  0  0  0  0  0  0
    5.5915  -12.8060   26.3903 C   0  0  0  0  0  0  0  0  0  0  0  0
    7.1018  -14.5341   25.3579 C   0  0  2  0  0  0  0  0  0  0  0  0
    7.9535  -14.7400   24.1845 N   0  0  0  0  0  0  0  0  0  0  0  0
    5.9566  -15.4491   25.2897 C   0  0  0  0  0  0  0  0  0  0  0  0
    5.5471  -15.8905   24.1866 O   0  0  0  0  0  0  0  0  0  0  0  0
    5.2991  -15.8501   26.4236 O   0  0  0  0  0  0  0  0  0  0  0  0
  2  1  1  0
  3  2  2  0
  4  3  1  0
  5  4  2  0
  5 11  1  0
  6  5  1  0
  7  8  1  6
  7  6  1  0
  9  7  1  0
 10  9  2  0
 11 12  2  0
 12  2  1  0
 13  9  1  0
 14 18  1  0
 14 13  1  0
 14 15  1  6
 16 15  1  0
 17 16  2  0
 18 19  2  0
 20 16  1  0
 22 21  1  0
 23 24  1  1
 23 22  1  0
 25 23  1  0
 25 26  1  6
 26 18  1  0
 27 29  1  0
 27 25  1  0
 28 27  2  0
M  END
$$$$
