YDI.pdb
     RDKit          3D

 29 29  0  0  1  0  0  0  0  0999 V2000
   11.8976  -17.9700   31.6709 O   0  0  0  0  0  0  0  0  0  0  0  0
   11.8142  -17.3736   30.4056 C   0  0  0  0  0  0  0  0  0  0  0  0
   12.0290  -16.0220   30.2327 C   0  0  0  0  0  0  0  0  0  0  0  0
   11.9437  -15.4468   28.9806 C   0  0  0  0  0  0  0  0  0  0  0  0
   11.6441  -16.1789   27.8516 C   0  0  0  0  0  0  0  0  0  0  0  0
   11.5516  -15.5691   26.4944 C   0  0  0  0  0  0  0  0  0  0  0  0
   12.3055  -16.3940   25.4714 C   0  0  2  0  0  0  0  0  0  0  0  0
   13.7276  -16.2809   25.7003 N   0  0  0  0  0  0  0  0  0  0  0  0
   11.9399  -16.0195   24.0733 C   0  0  0  0  0  0  0  0  0  0  0  0
   12.5762  -15.0637   23.5789 O   0  0  0  0  0  0  0  0  0  0  0  0
   11.4288  -17.5378   28.0275 C   0  0  0  0  0  0  0  0  0  0  0  0
   11.5136  -18.1177   29.2833 C   0  0  0  0  0  0  0  0  0  0  0  0
   10.9577  -16.6685   23.3314 N   0  0  0  0  0  0  0  0  0  0  0  0
    9.6876  -16.0993   22.8744 C   0  0  1  0  0  0  0  0  0  0  0  0
    9.2018  -16.8848   21.7085 C   0  0  0  0  0  0  0  0  0  0  0  0
   10.0666  -16.7967   20.5236 C   0  0  0  0  0  0  0  0  0  0  0  0
   10.6694  -15.7526   20.2303 O   0  0  0  0  0  0  0  0  0  0  0  0
    8.7770  -15.8855   23.9537 C   0  0  0  0  0  0  0  0  0  0  0  0
    8.6781  -16.7882   24.8587 O   0  0  0  0  0  0  0  0  0  0  0  0
   10.2395  -17.9075   19.6724 O   0  0  0  0  0  0  0  0  0  0  0  0
    6.7280  -10.8131   24.7680 C   0  0  0  0  0  0  0  0  0  0  0  0
    7.4388  -12.1315   24.9846 C   0  0  0  0  0  0  0  0  0  0  0  0
    6.4523  -13.2529   25.2341 C   0  0  2  0  0  0  0  0  0  0  0  0
    5.5550  -12.9446   26.3950 C   0  0  0  0  0  0  0  0  0  0  0  0
    7.1133  -14.6009   25.3172 C   0  0  2  0  0  0  0  0  0  0  0  0
    7.9633  -14.7577   24.1350 N   0  0  0  0  0  0  0  0  0  0  0  0
    6.0537  -15.6157   25.2879 C   0  0  0  0  0  0  0  0  0  0  0  0
    5.4355  -15.9346   26.3347 O   0  0  0  0  0  0  0  0  0  0  0  0
    5.7056  -16.2461   24.1216 O   0  0  0  0  0  0  0  0  0  0  0  0
  2  1  1  0
  3  2  2  0
  4  3  1  0
  5  4  2  0
  5 11  1  0
  6  5  1  0
  7  8  1  6
  7  6  1  0
  9  7  1  0
 10  9  2  0
 11 12  2  0
 12  2  1  0
 13  9  1  0
 14 18  1  0
 14 13  1  0
 14 15  1  6
 16 15  1  0
 17 16  2  0
 18 19  2  0
 20 16  1  0
 22 21  1  0
 23 24  1  1
 23 22  1  0
 25 23  1  0
 25 26  1  6
 26 18  1  0
 27 29  1  0
 27 25  1  0
 28 27  2  0
M  END
$$$$
