YDI.pdb
     RDKit          3D

 29 29  0  0  1  0  0  0  0  0999 V2000
    7.4347  -12.2613   16.3075 O   0  0  0  0  0  0  0  0  0  0  0  0
    7.5281  -12.8446   17.5781 C   0  0  0  0  0  0  0  0  0  0  0  0
    6.4512  -13.4845   18.1559 C   0  0  0  0  0  0  0  0  0  0  0  0
    6.5563  -14.0550   19.4086 C   0  0  0  0  0  0  0  0  0  0  0  0
    7.7242  -14.0180   20.1401 C   0  0  0  0  0  0  0  0  0  0  0  0
    7.8501  -14.6325   21.4925 C   0  0  0  0  0  0  0  0  0  0  0  0
    8.6556  -15.9144   21.4381 C   0  0  2  0  0  0  0  0  0  0  0  0
    7.9764  -16.8872   20.6135 N   0  0  0  0  0  0  0  0  0  0  0  0
    8.9436  -16.4510   22.8011 C   0  0  0  0  0  0  0  0  0  0  0  0
    7.9689  -16.5138   23.5814 O   0  0  0  0  0  0  0  0  0  0  0  0
    8.8059  -13.3745   19.5573 C   0  0  0  0  0  0  0  0  0  0  0  0
    8.7030  -12.8008   18.3000 C   0  0  0  0  0  0  0  0  0  0  0  0
   10.2048  -16.8666   23.2173 N   0  0  0  0  0  0  0  0  0  0  0  0
   10.5577  -17.4070   24.5324 C   0  0  1  0  0  0  0  0  0  0  0  0
   11.7058  -18.3395   24.3753 C   0  0  0  0  0  0  0  0  0  0  0  0
   11.9540  -19.1885   25.5489 C   0  0  0  0  0  0  0  0  0  0  0  0
   12.1681  -20.4059   25.4416 O   0  0  0  0  0  0  0  0  0  0  0  0
   10.6683  -16.3822   25.5209 C   0  0  0  0  0  0  0  0  0  0  0  0
   11.5986  -15.5089   25.3954 O   0  0  0  0  0  0  0  0  0  0  0  0
   11.9552  -18.6409   26.8483 O   0  0  0  0  0  0  0  0  0  0  0  0
    7.1290  -13.0411   26.3820 C   0  0  0  0  0  0  0  0  0  0  0  0
    8.4602  -13.7586   26.3256 C   0  0  0  0  0  0  0  0  0  0  0  0
    8.8483  -14.3036   27.6841 C   0  0  2  0  0  0  0  0  0  0  0  0
    8.9195  -13.2139   28.7113 C   0  0  0  0  0  0  0  0  0  0  0  0
   10.0743  -15.1728   27.6331 C   0  0  2  0  0  0  0  0  0  0  0  0
    9.8387  -16.2234   26.6405 N   0  0  0  0  0  0  0  0  0  0  0  0
   10.2369  -15.7863   28.9562 C   0  0  0  0  0  0  0  0  0  0  0  0
    9.8108  -16.9458   29.1875 O   0  0  0  0  0  0  0  0  0  0  0  0
   10.8567  -15.1162   29.9788 O   0  0  0  0  0  0  0  0  0  0  0  0
  2  1  1  0
  3  2  2  0
  4  3  1  0
  5  4  2  0
  5 11  1  0
  6  5  1  0
  7  8  1  6
  7  6  1  0
  9  7  1  0
 10  9  2  0
 11 12  2  0
 12  2  1  0
 13  9  1  0
 14 18  1  0
 14 13  1  0
 14 15  1  6
 16 15  1  0
 17 16  2  0
 18 19  2  0
 20 16  1  0
 22 21  1  0
 23 24  1  1
 23 22  1  0
 25 23  1  0
 25 26  1  6
 26 18  1  0
 27 29  1  0
 27 25  1  0
 28 27  2  0
M  END
$$$$
