YDI.pdb
     RDKit          3D

 29 29  0  0  1  0  0  0  0  0999 V2000
    7.2494  -13.3937   15.2808 O   0  0  0  0  0  0  0  0  0  0  0  0
    7.2637  -13.7534   16.6350 C   0  0  0  0  0  0  0  0  0  0  0  0
    7.7833  -12.9118   17.5966 C   0  0  0  0  0  0  0  0  0  0  0  0
    7.7915  -13.2783   18.9276 C   0  0  0  0  0  0  0  0  0  0  0  0
    7.2888  -14.4859   19.3631 C   0  0  0  0  0  0  0  0  0  0  0  0
    7.2902  -14.8913   20.7976 C   0  0  0  0  0  0  0  0  0  0  0  0
    8.7036  -15.0406   21.3225 C   0  0  2  0  0  0  0  0  0  0  0  0
    9.5184  -15.7328   20.3506 N   0  0  0  0  0  0  0  0  0  0  0  0
    8.7364  -15.7174   22.6527 C   0  0  0  0  0  0  0  0  0  0  0  0
    7.8647  -15.3552   23.4724 O   0  0  0  0  0  0  0  0  0  0  0  0
    6.7665  -15.3305   18.3947 C   0  0  0  0  0  0  0  0  0  0  0  0
    6.7573  -14.9651   17.0579 C   0  0  0  0  0  0  0  0  0  0  0  0
    9.6631  -16.6960   22.9990 N   0  0  0  0  0  0  0  0  0  0  0  0
    9.8385  -17.3064   24.3191 C   0  0  1  0  0  0  0  0  0  0  0  0
   10.7173  -18.4988   24.1832 C   0  0  0  0  0  0  0  0  0  0  0  0
   10.9386  -19.2272   25.4403 C   0  0  0  0  0  0  0  0  0  0  0  0
   10.3103  -18.9525   26.4743 O   0  0  0  0  0  0  0  0  0  0  0  0
   10.1820  -16.3415   25.3144 C   0  0  0  0  0  0  0  0  0  0  0  0
   11.3267  -15.7688   25.2420 O   0  0  0  0  0  0  0  0  0  0  0  0
   11.8833  -20.2716   25.5123 O   0  0  0  0  0  0  0  0  0  0  0  0
    7.2456  -12.3335   26.3572 C   0  0  0  0  0  0  0  0  0  0  0  0
    8.4019  -13.2968   26.1989 C   0  0  0  0  0  0  0  0  0  0  0  0
    8.7915  -13.9104   27.5274 C   0  0  2  0  0  0  0  0  0  0  0  0
    9.1289  -12.8566   28.5391 C   0  0  0  0  0  0  0  0  0  0  0  0
    9.8402  -14.9790   27.3890 C   0  0  2  0  0  0  0  0  0  0  0  0
    9.3729  -15.9395   26.3871 N   0  0  0  0  0  0  0  0  0  0  0  0
    9.9580  -15.6539   28.6867 C   0  0  0  0  0  0  0  0  0  0  0  0
    9.3542  -16.7331   28.9108 O   0  0  0  0  0  0  0  0  0  0  0  0
   10.7278  -15.1302   29.6926 O   0  0  0  0  0  0  0  0  0  0  0  0
  2  1  1  0
  3  2  2  0
  4  3  1  0
  5  4  2  0
  5 11  1  0
  6  5  1  0
  7  8  1  6
  7  6  1  0
  9  7  1  0
 10  9  2  0
 11 12  2  0
 12  2  1  0
 13  9  1  0
 14 18  1  0
 14 13  1  0
 14 15  1  6
 16 15  1  0
 17 16  2  0
 18 19  2  0
 20 16  1  0
 22 21  1  0
 23 24  1  1
 23 22  1  0
 25 23  1  0
 25 26  1  6
 26 18  1  0
 27 29  1  0
 27 25  1  0
 28 27  2  0
M  END
$$$$
