LYS.pdb
     RDKit          3D

 27 27  0  0  1  0  0  0  0  0999 V2000
    8.4966  -14.4794   17.9275 C   0  0  0  0  0  0  0  0  0  0  0  0
    8.0526  -13.6273   19.0931 C   0  0  2  0  0  0  0  0  0  0  0  0
    8.2956  -12.1678   18.6771 C   0  0  0  0  0  0  0  0  0  0  0  0
    8.8256  -13.8314   20.3435 C   0  0  0  0  0  0  0  0  0  0  0  0
    8.7769  -15.1965   20.9471 C   0  0  2  0  0  0  0  0  0  0  0  0
    7.5219  -15.8710   20.8558 N   0  0  0  0  0  0  0  0  0  0  0  0
    9.3076  -15.2496   22.3212 C   0  0  0  0  0  0  0  0  0  0  0  0
   10.4447  -14.7922   22.5535 O   0  0  0  0  0  0  0  0  0  0  0  0
    6.2248  -10.3860   26.8558 O   0  0  0  0  0  0  0  0  0  0  0  0
    6.5807  -11.7021   26.5320 C   0  0  0  0  0  0  0  0  0  0  0  0
    5.6767  -12.7251   26.5716 C   0  0  0  0  0  0  0  0  0  0  0  0
    6.0524  -14.0129   26.2481 C   0  0  0  0  0  0  0  0  0  0  0  0
    7.3352  -14.3370   25.8734 C   0  0  0  0  0  0  0  0  0  0  0  0
    7.7216  -15.6992   25.5319 C   0  0  0  0  0  0  0  0  0  0  0  0
    8.9955  -15.8621   24.7479 C   0  0  2  0  0  0  0  0  0  0  0  0
    8.5301  -15.8103   23.3363 N   0  0  0  0  0  0  0  0  0  0  0  0
    9.6467  -17.1748   24.8741 C   0  0  0  0  0  0  0  0  0  0  0  0
    8.9770  -18.2562   25.0456 O   0  0  0  0  0  0  0  0  0  0  0  0
    8.2496  -13.2961   25.8344 C   0  0  0  0  0  0  0  0  0  0  0  0
    7.8786  -11.9968   26.1589 C   0  0  0  0  0  0  0  0  0  0  0  0
   13.8513  -17.9230   24.2909 O   0  0  0  0  0  0  0  0  0  0  0  0
   12.8721  -18.8385   23.9900 C   0  0  0  0  0  0  0  0  0  0  0  0
   11.6426  -18.7080   24.8675 C   0  0  2  0  0  0  0  0  0  0  0  0
   11.0639  -17.4059   24.8180 N   0  0  0  0  0  0  0  0  0  0  0  0
   11.9746  -19.2175   26.2042 C   0  0  0  0  0  0  0  0  0  0  0  0
   11.8148  -18.3843   27.3184 O   0  0  0  0  0  0  0  0  0  0  0  0
   12.3957  -20.3925   26.3194 O   0  0  0  0  0  0  0  0  0  0  0  0
  2  1  1  6
  3  2  1  0
  4  2  1  0
  4  5  1  0
  5  6  1  1
  7  5  1  0
  7  8  2  0
  9 10  1  0
 10 11  2  0
 11 12  1  0
 13 14  1  0
 13 12  2  0
 15 14  1  1
 15 16  1  0
 16  7  1  0
 17 15  1  0
 18 17  2  0
 19 13  1  0
 20 19  2  0
 20 10  1  0
 21 22  1  0
 23 22  1  6
 23 25  1  0
 23 24  1  0
 24 17  1  0
 25 26  1  0
 27 25  2  0
M  END
$$$$
