LYS.pdb
     RDKit          3D

 27 27  0  0  1  0  0  0  0  0999 V2000
    8.5380  -14.3795   18.0150 C   0  0  0  0  0  0  0  0  0  0  0  0
    7.7841  -13.7671   19.1720 C   0  0  2  0  0  0  0  0  0  0  0  0
    7.7146  -12.2577   18.8903 C   0  0  0  0  0  0  0  0  0  0  0  0
    8.4482  -13.9077   20.4918 C   0  0  0  0  0  0  0  0  0  0  0  0
    8.6165  -15.2968   21.0136 C   0  0  2  0  0  0  0  0  0  0  0  0
    7.4695  -16.1409   20.9125 N   0  0  0  0  0  0  0  0  0  0  0  0
    9.1940  -15.3486   22.3687 C   0  0  0  0  0  0  0  0  0  0  0  0
   10.3121  -14.8352   22.5748 O   0  0  0  0  0  0  0  0  0  0  0  0
    6.1444  -10.4320   26.7502 O   0  0  0  0  0  0  0  0  0  0  0  0
    6.5094  -11.7532   26.4586 C   0  0  0  0  0  0  0  0  0  0  0  0
    5.6269  -12.6429   25.9155 C   0  0  0  0  0  0  0  0  0  0  0  0
    6.0112  -13.9388   25.6375 C   0  0  0  0  0  0  0  0  0  0  0  0
    7.2816  -14.4029   25.8858 C   0  0  0  0  0  0  0  0  0  0  0  0
    7.6781  -15.7722   25.5871 C   0  0  0  0  0  0  0  0  0  0  0  0
    8.9519  -15.9501   24.8061 C   0  0  2  0  0  0  0  0  0  0  0  0
    8.4811  -15.9703   23.3956 N   0  0  0  0  0  0  0  0  0  0  0  0
    9.6250  -17.2449   24.9893 C   0  0  0  0  0  0  0  0  0  0  0  0
    9.0440  -18.3598   24.7305 O   0  0  0  0  0  0  0  0  0  0  0  0
    8.1741  -13.4970   26.4370 C   0  0  0  0  0  0  0  0  0  0  0  0
    7.7944  -12.1905   26.7197 C   0  0  0  0  0  0  0  0  0  0  0  0
   13.7966  -17.8243   25.2814 O   0  0  0  0  0  0  0  0  0  0  0  0
   12.9146  -18.8186   24.9335 C   0  0  0  0  0  0  0  0  0  0  0  0
   11.5749  -18.7001   25.6334 C   0  0  2  0  0  0  0  0  0  0  0  0
   10.9716  -17.4200   25.4594 N   0  0  0  0  0  0  0  0  0  0  0  0
   11.7380  -19.1548   27.0203 C   0  0  0  0  0  0  0  0  0  0  0  0
   12.2315  -20.4413   27.2700 O   0  0  0  0  0  0  0  0  0  0  0  0
   11.4305  -18.3778   27.9546 O   0  0  0  0  0  0  0  0  0  0  0  0
  2  1  1  6
  3  2  1  0
  4  2  1  0
  4  5  1  0
  5  6  1  1
  7  5  1  0
  7  8  2  0
  9 10  1  0
 10 11  2  0
 11 12  1  0
 13 14  1  0
 13 12  2  0
 15 14  1  1
 15 16  1  0
 16  7  1  0
 17 15  1  0
 18 17  2  0
 19 13  1  0
 20 19  2  0
 20 10  1  0
 21 22  1  0
 23 22  1  1
 23 25  1  0
 23 24  1  0
 24 17  1  0
 25 26  1  0
 27 25  2  0
M  END
$$$$
