LYS.pdb
     RDKit          3D

 27 27  0  0  1  0  0  0  0  0999 V2000
    7.9529  -14.4023   17.9049 C   0  0  0  0  0  0  0  0  0  0  0  0
    7.3927  -13.6453   19.0860 C   0  0  2  0  0  0  0  0  0  0  0  0
    7.3413  -12.1677   18.6657 C   0  0  0  0  0  0  0  0  0  0  0  0
    8.2298  -13.6943   20.3106 C   0  0  0  0  0  0  0  0  0  0  0  0
    8.3798  -15.0268   20.9678 C   0  0  2  0  0  0  0  0  0  0  0  0
    7.1629  -15.6928   21.3054 N   0  0  0  0  0  0  0  0  0  0  0  0
    9.3117  -15.0162   22.1098 C   0  0  0  0  0  0  0  0  0  0  0  0
   10.5043  -14.7033   21.9203 O   0  0  0  0  0  0  0  0  0  0  0  0
   10.7397  -15.5032   30.9892 O   0  0  0  0  0  0  0  0  0  0  0  0
   10.2515  -15.3865   29.6809 C   0  0  0  0  0  0  0  0  0  0  0  0
    9.7314  -16.4542   29.0065 C   0  0  0  0  0  0  0  0  0  0  0  0
    9.2570  -16.3131   27.7183 C   0  0  0  0  0  0  0  0  0  0  0  0
    9.2792  -15.1117   27.0494 C   0  0  0  0  0  0  0  0  0  0  0  0
    8.7744  -14.9725   25.6903 C   0  0  0  0  0  0  0  0  0  0  0  0
    9.7250  -15.3251   24.5786 C   0  0  2  0  0  0  0  0  0  0  0  0
    8.8442  -15.3563   23.3806 N   0  0  0  0  0  0  0  0  0  0  0  0
   10.2998  -16.6771   24.6494 C   0  0  0  0  0  0  0  0  0  0  0  0
    9.5863  -17.7323   24.4915 O   0  0  0  0  0  0  0  0  0  0  0  0
    9.8079  -14.0307   27.7373 C   0  0  0  0  0  0  0  0  0  0  0  0
   10.2875  -14.1652   29.0346 C   0  0  0  0  0  0  0  0  0  0  0  0
   13.8520  -19.7996   24.0016 O   0  0  0  0  0  0  0  0  0  0  0  0
   13.3715  -18.5126   23.9931 C   0  0  0  0  0  0  0  0  0  0  0  0
   12.1966  -18.3077   24.9293 C   0  0  2  0  0  0  0  0  0  0  0  0
   11.6843  -16.9776   24.8904 N   0  0  0  0  0  0  0  0  0  0  0  0
   12.5694  -18.8183   26.2548 C   0  0  0  0  0  0  0  0  0  0  0  0
   12.9502  -20.1586   26.3947 O   0  0  0  0  0  0  0  0  0  0  0  0
   12.5384  -18.0397   27.2367 O   0  0  0  0  0  0  0  0  0  0  0  0
  2  1  1  6
  3  2  1  0
  4  2  1  0
  4  5  1  0
  5  6  1  1
  7  5  1  0
  7  8  2  0
  9 10  1  0
 10 11  2  0
 11 12  1  0
 13 14  1  0
 13 12  2  0
 15 14  1  1
 15 16  1  0
 16  7  1  0
 17 15  1  0
 18 17  2  0
 19 13  1  0
 20 19  2  0
 20 10  1  0
 21 22  1  0
 23 22  1  6
 23 25  1  0
 23 24  1  0
 24 17  1  0
 25 26  1  0
 27 25  2  0
M  END
$$$$
