LYS.pdb
     RDKit          3D

 27 27  0  0  1  0  0  0  0  0999 V2000
    2.2603  -18.4004   20.7149 C   0  0  0  0  0  0  0  0  0  0  0  0
    3.0180  -19.4039   21.5521 C   0  0  2  0  0  0  0  0  0  0  0  0
    2.1209  -19.7234   22.7585 C   0  0  0  0  0  0  0  0  0  0  0  0
    4.2982  -18.9057   22.1137 C   0  0  0  0  0  0  0  0  0  0  0  0
    5.3196  -18.4277   21.1346 C   0  0  2  0  0  0  0  0  0  0  0  0
    5.6250  -19.3263   20.0680 N   0  0  0  0  0  0  0  0  0  0  0  0
    6.5499  -17.9225   21.7698 C   0  0  0  0  0  0  0  0  0  0  0  0
    7.5691  -18.6416   21.7820 O   0  0  0  0  0  0  0  0  0  0  0  0
    8.6227  -12.3875   17.7784 O   0  0  0  0  0  0  0  0  0  0  0  0
    8.3478  -12.9349   19.0388 C   0  0  0  0  0  0  0  0  0  0  0  0
    7.0694  -13.1173   19.4835 C   0  0  0  0  0  0  0  0  0  0  0  0
    6.8252  -13.6585   20.7292 C   0  0  0  0  0  0  0  0  0  0  0  0
    7.8353  -14.0395   21.5810 C   0  0  0  0  0  0  0  0  0  0  0  0
    7.5673  -14.6116   22.8934 C   0  0  0  0  0  0  0  0  0  0  0  0
    7.7518  -16.0986   23.0309 C   0  0  2  0  0  0  0  0  0  0  0  0
    6.5528  -16.6507   22.3458 N   0  0  0  0  0  0  0  0  0  0  0  0
    7.6639  -16.6176   24.4042 C   0  0  0  0  0  0  0  0  0  0  0  0
    6.5635  -16.6200   25.0649 O   0  0  0  0  0  0  0  0  0  0  0  0
    9.1312  -13.8527   21.1260 C   0  0  0  0  0  0  0  0  0  0  0  0
    9.3848  -13.3082   19.8729 C   0  0  0  0  0  0  0  0  0  0  0  0
    8.5092  -20.1328   25.3130 O   0  0  0  0  0  0  0  0  0  0  0  0
    7.8155  -19.2336   26.0861 C   0  0  0  0  0  0  0  0  0  0  0  0
    8.5784  -17.9474   26.3357 C   0  0  2  0  0  0  0  0  0  0  0  0
    8.7582  -17.1728   25.1522 N   0  0  0  0  0  0  0  0  0  0  0  0
    9.7977  -18.2733   27.0865 C   0  0  0  0  0  0  0  0  0  0  0  0
   11.0395  -17.8406   26.6052 O   0  0  0  0  0  0  0  0  0  0  0  0
    9.6999  -18.9347   28.1468 O   0  0  0  0  0  0  0  0  0  0  0  0
  2  1  1  6
  3  2  1  0
  4  2  1  0
  4  5  1  0
  5  6  1  6
  7  5  1  0
  7  8  2  0
  9 10  1  0
 10 11  2  0
 11 12  1  0
 13 14  1  0
 13 12  2  0
 15 14  1  1
 15 16  1  0
 16  7  1  0
 17 15  1  0
 18 17  2  0
 19 13  1  0
 20 19  2  0
 20 10  1  0
 21 22  1  0
 23 22  1  6
 23 25  1  0
 23 24  1  0
 24 17  1  0
 25 26  1  0
 27 25  2  0
M  END
$$$$
