LYS.pdb
     RDKit          3D

 27 27  0  0  1  0  0  0  0  0999 V2000
    8.2745  -15.4279   15.9236 C   0  0  0  0  0  0  0  0  0  0  0  0
    7.7789  -14.4313   16.9450 C   0  0  2  0  0  0  0  0  0  0  0  0
    7.7578  -13.0658   16.2396 C   0  0  0  0  0  0  0  0  0  0  0  0
    8.6561  -14.2667   18.1307 C   0  0  0  0  0  0  0  0  0  0  0  0
    8.6913  -15.4007   19.1018 C   0  0  2  0  0  0  0  0  0  0  0  0
    7.5344  -16.2372   19.1213 N   0  0  0  0  0  0  0  0  0  0  0  0
    9.0730  -14.9934   20.4660 C   0  0  0  0  0  0  0  0  0  0  0  0
   10.1460  -14.3820   20.6417 O   0  0  0  0  0  0  0  0  0  0  0  0
    6.9016  -12.5656   28.7826 O   0  0  0  0  0  0  0  0  0  0  0  0
    6.9682  -13.0142   27.4567 C   0  0  0  0  0  0  0  0  0  0  0  0
    6.6901  -14.3075   27.1172 C   0  0  0  0  0  0  0  0  0  0  0  0
    6.7629  -14.7244   25.8038 C   0  0  0  0  0  0  0  0  0  0  0  0
    7.1131  -13.8786   24.7776 C   0  0  0  0  0  0  0  0  0  0  0  0
    7.1854  -14.3278   23.3940 C   0  0  0  0  0  0  0  0  0  0  0  0
    8.5173  -14.8445   22.9217 C   0  0  2  0  0  0  0  0  0  0  0  0
    8.2288  -15.2989   21.5352 N   0  0  0  0  0  0  0  0  0  0  0  0
    9.0036  -16.0491   23.6112 C   0  0  0  0  0  0  0  0  0  0  0  0
    8.4185  -17.1858   23.4960 O   0  0  0  0  0  0  0  0  0  0  0  0
    7.3946  -12.5670   25.1263 C   0  0  0  0  0  0  0  0  0  0  0  0
    7.3234  -12.1399   26.4468 C   0  0  0  0  0  0  0  0  0  0  0  0
   12.9261  -16.7015   24.8350 O   0  0  0  0  0  0  0  0  0  0  0  0
   12.0034  -17.7054   24.6676 C   0  0  0  0  0  0  0  0  0  0  0  0
   10.6035  -17.3068   25.0922 C   0  0  2  0  0  0  0  0  0  0  0  0
   10.1570  -16.1060   24.4666 N   0  0  0  0  0  0  0  0  0  0  0  0
   10.5423  -17.3328   26.5593 C   0  0  0  0  0  0  0  0  0  0  0  0
   10.9048  -18.4997   27.2434 O   0  0  0  0  0  0  0  0  0  0  0  0
   10.1651  -16.3052   27.1700 O   0  0  0  0  0  0  0  0  0  0  0  0
  2  1  1  6
  3  2  1  0
  4  2  1  0
  4  5  1  0
  5  6  1  1
  7  5  1  0
  7  8  2  0
  9 10  1  0
 10 11  2  0
 11 12  1  0
 13 14  1  0
 13 12  2  0
 15 14  1  1
 15 16  1  0
 16  7  1  0
 17 15  1  0
 18 17  2  0
 19 13  1  0
 20 19  2  0
 20 10  1  0
 21 22  1  0
 23 22  1  1
 23 25  1  0
 23 24  1  0
 24 17  1  0
 25 26  1  0
 27 25  2  0
M  END
$$$$
