MEP.pdb
     RDKit          3D

 25 25  0  0  1  0  0  0  0  0999 V2000
   29.6574  -19.4821   -7.4121 C   0  0  0  0  0  0  0  0  0  0  0  0
   28.4456  -19.5685   -6.0743 S   0  0  0  0  0  0  0  0  0  0  0  0
   26.7933  -19.7068   -6.8043 C   0  0  0  0  0  0  0  0  0  0  0  0
   26.8668  -20.4185   -8.1560 C   0  0  0  0  0  0  0  0  0  0  0  0
   25.5027  -20.4468   -8.7433 C   0  0  2  0  0  0  0  0  0  0  0  0
   24.5857  -21.1609   -7.9054 N   0  0  0  0  0  0  0  0  0  0  0  0
   25.4564  -20.9309  -10.1399 C   0  0  0  0  0  0  0  0  0  0  0  0
   25.8436  -22.0898  -10.4156 O   0  0  0  0  0  0  0  0  0  0  0  0
   24.9861  -20.1412  -11.2257 N   0  0  0  0  0  0  0  0  0  0  0  0
   24.9665  -20.5964  -12.6154 C   0  0  1  0  0  0  0  0  0  0  0  0
   23.6177  -20.4439  -13.2065 C   0  0  0  0  0  0  0  0  0  0  0  0
   22.5991  -21.3739  -12.6573 C   0  0  0  0  0  0  0  0  0  0  0  0
   21.2778  -20.7372  -12.5208 C   0  0  0  0  0  0  0  0  0  0  0  0
   20.9334  -19.6198  -12.9542 O   0  0  0  0  0  0  0  0  0  0  0  0
   26.0574  -20.0945  -13.4359 C   0  0  0  0  0  0  0  0  0  0  0  0
   26.3939  -18.8590  -13.2665 O   0  0  0  0  0  0  0  0  0  0  0  0
   20.2835  -21.4457  -11.8326 O   0  0  0  0  0  0  0  0  0  0  0  0
   26.8225  -20.7771  -14.4168 N   0  0  0  0  0  0  0  0  0  0  0  0
   26.7198  -22.1602  -14.7417 C   0  0  0  0  0  0  0  0  0  0  0  0
   27.6814  -22.3732  -15.9109 C   0  0  0  0  0  0  0  0  0  0  0  0
   28.7195  -21.2618  -15.6857 C   0  0  0  0  0  0  0  0  0  0  0  0
   27.8159  -20.1551  -15.2474 C   0  0  1  0  0  0  0  0  0  0  0  0
   27.2216  -19.4335  -16.3963 C   0  0  0  0  0  0  0  0  0  0  0  0
   26.0089  -19.5709  -16.6390 O   0  0  0  0  0  0  0  0  0  0  0  0
   28.0066  -18.6307  -17.1712 O   0  0  0  0  0  0  0  0  0  0  0  0
  2  3  1  0
  2  1  1  0
  4  3  1  0
  5  7  1  0
  5  4  1  0
  5  6  1  1
  7  8  2  0
  9 10  1  0
  9  7  1  0
 10 11  1  6
 11 12  1  0
 12 13  1  0
 13 14  2  0
 15 18  1  0
 15 10  1  0
 16 15  2  0
 17 13  1  0
 18 19  1  0
 19 20  1  0
 21 20  1  0
 22 21  1  0
 22 18  1  0
 22 23  1  6
 24 23  2  0
 25 23  1  0
M  END
$$$$
