MEP.pdb
     RDKit          3D

 25 25  0  0  1  0  0  0  0  0999 V2000
   27.1755  -15.8391  -14.9002 C   0  0  0  0  0  0  0  0  0  0  0  0
   26.6212  -14.1195  -14.9324 S   0  0  0  0  0  0  0  0  0  0  0  0
   25.1455  -14.0112  -15.9777 C   0  0  0  0  0  0  0  0  0  0  0  0
   24.5892  -12.5866  -15.9666 C   0  0  0  0  0  0  0  0  0  0  0  0
   23.4372  -12.5281  -16.9026 C   0  0  2  0  0  0  0  0  0  0  0  0
   23.8148  -12.9308  -18.2248 N   0  0  0  0  0  0  0  0  0  0  0  0
   22.7293  -11.2297  -16.9086 C   0  0  0  0  0  0  0  0  0  0  0  0
   23.1760  -10.2745  -17.5847 O   0  0  0  0  0  0  0  0  0  0  0  0
   21.5361  -10.9865  -16.1732 N   0  0  0  0  0  0  0  0  0  0  0  0
   20.8546   -9.6932  -16.1308 C   0  0  1  0  0  0  0  0  0  0  0  0
   19.4384   -9.8507  -15.7293 C   0  0  0  0  0  0  0  0  0  0  0  0
   18.6903   -8.5740  -15.6073 C   0  0  0  0  0  0  0  0  0  0  0  0
   17.2809   -8.7863  -15.2353 C   0  0  0  0  0  0  0  0  0  0  0  0
   16.6022   -9.8164  -15.4181 O   0  0  0  0  0  0  0  0  0  0  0  0
   21.5796   -8.6457  -15.4291 C   0  0  0  0  0  0  0  0  0  0  0  0
   22.1192   -8.9659  -14.3001 O   0  0  0  0  0  0  0  0  0  0  0  0
   16.6090   -7.7295  -14.6063 O   0  0  0  0  0  0  0  0  0  0  0  0
   21.7851   -7.2944  -15.8103 N   0  0  0  0  0  0  0  0  0  0  0  0
   21.2910   -6.6772  -16.9951 C   0  0  0  0  0  0  0  0  0  0  0  0
   21.7047   -5.2093  -16.8889 C   0  0  0  0  0  0  0  0  0  0  0  0
   22.9593   -5.2876  -16.0037 C   0  0  0  0  0  0  0  0  0  0  0  0
   22.5206   -6.3359  -15.0332 C   0  0  1  0  0  0  0  0  0  0  0  0
   21.7164   -5.7684  -13.9263 C   0  0  0  0  0  0  0  0  0  0  0  0
   20.4936   -5.9951  -13.8850 O   0  0  0  0  0  0  0  0  0  0  0  0
   22.3226   -5.0075  -12.9699 O   0  0  0  0  0  0  0  0  0  0  0  0
  2  3  1  0
  2  1  1  0
  4  3  1  0
  5  7  1  0
  5  4  1  0
  5  6  1  6
  7  8  2  0
  9 10  1  0
  9  7  1  0
 10 11  1  1
 11 12  1  0
 12 13  1  0
 13 14  2  0
 15 18  1  0
 15 10  1  0
 16 15  2  0
 17 13  1  0
 18 19  1  0
 19 20  1  0
 21 20  1  0
 22 21  1  0
 22 18  1  0
 22 23  1  1
 24 23  2  0
 25 23  1  0
M  END
$$$$
