MEP.pdb
     RDKit          3D

 25 25  0  0  1  0  0  0  0  0999 V2000
   29.4022  -16.7950  -17.3024 C   0  0  0  0  0  0  0  0  0  0  0  0
   28.2878  -15.4092  -17.6235 S   0  0  0  0  0  0  0  0  0  0  0  0
   26.5920  -16.0420  -17.7012 C   0  0  0  0  0  0  0  0  0  0  0  0
   26.5984  -17.5657  -17.8327 C   0  0  0  0  0  0  0  0  0  0  0  0
   25.1944  -18.0460  -17.7646 C   0  0  2  0  0  0  0  0  0  0  0  0
   24.3018  -17.1550  -18.4445 N   0  0  0  0  0  0  0  0  0  0  0  0
   24.7254  -18.3484  -16.3950 C   0  0  0  0  0  0  0  0  0  0  0  0
   24.5602  -17.4213  -15.5692 O   0  0  0  0  0  0  0  0  0  0  0  0
   24.4405  -19.6657  -15.9394 N   0  0  0  0  0  0  0  0  0  0  0  0
   23.9385  -19.9738  -14.6008 C   0  0  1  0  0  0  0  0  0  0  0  0
   22.5251  -20.4112  -14.6501 C   0  0  0  0  0  0  0  0  0  0  0  0
   21.6954  -19.6923  -15.6497 C   0  0  0  0  0  0  0  0  0  0  0  0
   20.3163  -20.2070  -15.7043 C   0  0  0  0  0  0  0  0  0  0  0  0
   19.8152  -21.0921  -14.9828 O   0  0  0  0  0  0  0  0  0  0  0  0
   24.8147  -20.8149  -13.8007 C   0  0  0  0  0  0  0  0  0  0  0  0
   25.4284  -21.7700  -14.4167 O   0  0  0  0  0  0  0  0  0  0  0  0
   19.4554  -19.6570  -16.6637 O   0  0  0  0  0  0  0  0  0  0  0  0
   25.1000  -20.7392  -12.4127 N   0  0  0  0  0  0  0  0  0  0  0  0
   24.5554  -19.7916  -11.4992 C   0  0  0  0  0  0  0  0  0  0  0  0
   25.1015  -20.1916  -10.1285 C   0  0  0  0  0  0  0  0  0  0  0  0
   26.4197  -20.8928  -10.4949 C   0  0  0  0  0  0  0  0  0  0  0  0
   25.9824  -21.6339  -11.7167 C   0  0  1  0  0  0  0  0  0  0  0  0
   25.3334  -22.9230  -11.3835 C   0  0  0  0  0  0  0  0  0  0  0  0
   26.0261  -23.8541  -10.9345 O   0  0  0  0  0  0  0  0  0  0  0  0
   23.9907  -23.0738  -11.5719 O   0  0  0  0  0  0  0  0  0  0  0  0
  2  3  1  0
  2  1  1  0
  4  3  1  0
  5  7  1  0
  5  4  1  0
  5  6  1  1
  7  8  2  0
  9 10  1  0
  9  7  1  0
 10 11  1  6
 11 12  1  0
 12 13  1  0
 13 14  2  0
 15 18  1  0
 15 10  1  0
 16 15  2  0
 17 13  1  0
 18 19  1  0
 19 20  1  0
 21 20  1  0
 22 21  1  0
 22 18  1  0
 22 23  1  1
 24 23  2  0
 25 23  1  0
M  END
$$$$
