MEP.pdb
     RDKit          3D

 25 25  0  0  1  0  0  0  0  0999 V2000
   26.6201  -27.4516  -15.6611 C   0  0  0  0  0  0  0  0  0  0  0  0
   28.2993  -27.4352  -16.3285 S   0  0  0  0  0  0  0  0  0  0  0  0
   28.7739  -25.7161  -16.6472 C   0  0  0  0  0  0  0  0  0  0  0  0
   27.5293  -24.8425  -16.8116 C   0  0  0  0  0  0  0  0  0  0  0  0
   27.9692  -23.4513  -17.0906 C   0  0  2  0  0  0  0  0  0  0  0  0
   29.3980  -23.3476  -17.1128 N   0  0  0  0  0  0  0  0  0  0  0  0
   27.3619  -22.4365  -16.2026 C   0  0  0  0  0  0  0  0  0  0  0  0
   27.9453  -22.0956  -15.1480 O   0  0  0  0  0  0  0  0  0  0  0  0
   26.1185  -21.8018  -16.4766 N   0  0  0  0  0  0  0  0  0  0  0  0
   25.4833  -20.8346  -15.5823 C   0  0  1  0  0  0  0  0  0  0  0  0
   24.7304  -19.8158  -16.3485 C   0  0  0  0  0  0  0  0  0  0  0  0
   23.9927  -18.8387  -15.5087 C   0  0  0  0  0  0  0  0  0  0  0  0
   23.1830  -17.9089  -16.3149 C   0  0  0  0  0  0  0  0  0  0  0  0
   21.9773  -18.0249  -16.6112 O   0  0  0  0  0  0  0  0  0  0  0  0
   24.7605  -21.4216  -14.4651 C   0  0  0  0  0  0  0  0  0  0  0  0
   23.8957  -22.3386  -14.7473 O   0  0  0  0  0  0  0  0  0  0  0  0
   23.8154  -16.7621  -16.8139 O   0  0  0  0  0  0  0  0  0  0  0  0
   24.8676  -21.1284  -13.0808 N   0  0  0  0  0  0  0  0  0  0  0  0
   25.8015  -20.2311  -12.4877 C   0  0  0  0  0  0  0  0  0  0  0  0
   25.4451  -20.2011  -11.0014 C   0  0  0  0  0  0  0  0  0  0  0  0
   24.7999  -21.5810  -10.7931 C   0  0  0  0  0  0  0  0  0  0  0  0
   24.0234  -21.6932  -12.0650 C   0  0  1  0  0  0  0  0  0  0  0  0
   22.7106  -21.0128  -11.9778 C   0  0  0  0  0  0  0  0  0  0  0  0
   22.5037  -19.9999  -12.6702 O   0  0  0  0  0  0  0  0  0  0  0  0
   21.7485  -21.5021  -11.1435 O   0  0  0  0  0  0  0  0  0  0  0  0
  2  3  1  0
  2  1  1  0
  4  3  1  0
  5  7  1  0
  5  4  1  0
  5  6  1  1
  7  8  2  0
  9 10  1  0
  9  7  1  0
 10 11  1  6
 11 12  1  0
 12 13  1  0
 13 14  2  0
 15 18  1  0
 15 10  1  0
 16 15  2  0
 17 13  1  0
 18 19  1  0
 19 20  1  0
 21 20  1  0
 22 21  1  0
 22 18  1  0
 22 23  1  1
 24 23  2  0
 25 23  1  0
M  END
$$$$
