MEP.pdb
     RDKit          3D

 25 25  0  0  1  0  0  0  0  0999 V2000
   25.6091  -19.6344   -7.2703 C   0  0  0  0  0  0  0  0  0  0  0  0
   27.3721  -19.8997   -6.9754 S   0  0  0  0  0  0  0  0  0  0  0  0
   28.0777  -20.7309   -8.4223 C   0  0  0  0  0  0  0  0  0  0  0  0
   27.3542  -20.2887   -9.6952 C   0  0  0  0  0  0  0  0  0  0  0  0
   27.9377  -21.0274  -10.8443 C   0  0  2  0  0  0  0  0  0  0  0  0
   29.3666  -20.9236  -10.8632 N   0  0  0  0  0  0  0  0  0  0  0  0
   27.3472  -20.6726  -12.1529 C   0  0  0  0  0  0  0  0  0  0  0  0
   27.4900  -19.5164  -12.6130 O   0  0  0  0  0  0  0  0  0  0  0  0
   26.6037  -21.5877  -12.9488 N   0  0  0  0  0  0  0  0  0  0  0  0
   25.9439  -21.2269  -14.2031 C   0  0  1  0  0  0  0  0  0  0  0  0
   26.4684  -22.0303  -15.3306 C   0  0  0  0  0  0  0  0  0  0  0  0
   25.8351  -21.7348  -16.6405 C   0  0  0  0  0  0  0  0  0  0  0  0
   26.3839  -22.5659  -17.7260 C   0  0  0  0  0  0  0  0  0  0  0  0
   26.8525  -23.7173  -17.6276 O   0  0  0  0  0  0  0  0  0  0  0  0
   24.4936  -21.1475  -14.1274 C   0  0  0  0  0  0  0  0  0  0  0  0
   23.8836  -22.1401  -13.5696 O   0  0  0  0  0  0  0  0  0  0  0  0
   26.3904  -22.0244  -19.0186 O   0  0  0  0  0  0  0  0  0  0  0  0
   23.6318  -20.1180  -14.5866 N   0  0  0  0  0  0  0  0  0  0  0  0
   24.0273  -18.9659  -15.3248 C   0  0  0  0  0  0  0  0  0  0  0  0
   22.7282  -18.2289  -15.6506 C   0  0  0  0  0  0  0  0  0  0  0  0
   21.8084  -18.6652  -14.4985 C   0  0  0  0  0  0  0  0  0  0  0  0
   22.2100  -20.0999  -14.3820 C   0  0  1  0  0  0  0  0  0  0  0  0
   21.4884  -20.9603  -15.3479 C   0  0  0  0  0  0  0  0  0  0  0  0
   20.2632  -21.1308  -15.2128 O   0  0  0  0  0  0  0  0  0  0  0  0
   22.1719  -21.5529  -16.3690 O   0  0  0  0  0  0  0  0  0  0  0  0
  2  3  1  0
  2  1  1  0
  4  3  1  0
  5  7  1  0
  5  4  1  0
  5  6  1  6
  7  8  2  0
  9 10  1  0
  9  7  1  0
 10 11  1  6
 11 12  1  0
 12 13  1  0
 13 14  2  0
 15 18  1  0
 15 10  1  0
 16 15  2  0
 17 13  1  0
 18 19  1  0
 19 20  1  0
 21 20  1  0
 22 21  1  0
 22 18  1  0
 22 23  1  6
 24 23  2  0
 25 23  1  0
M  END
$$$$
