MEP.pdb
     RDKit          3D

 25 25  0  0  1  0  0  0  0  0999 V2000
   29.1704  -17.9498  -15.2117 C   0  0  0  0  0  0  0  0  0  0  0  0
   28.7676  -19.5914  -15.8508 S   0  0  0  0  0  0  0  0  0  0  0  0
   27.1571  -20.0874  -15.1856 C   0  0  0  0  0  0  0  0  0  0  0  0
   26.8879  -19.3763  -13.8586 C   0  0  0  0  0  0  0  0  0  0  0  0
   27.2965  -20.2806  -12.7532 C   0  0  2  0  0  0  0  0  0  0  0  0
   26.9410  -21.6407  -13.0297 N   0  0  0  0  0  0  0  0  0  0  0  0
   26.8249  -19.8537  -11.4181 C   0  0  0  0  0  0  0  0  0  0  0  0
   26.8013  -18.6373  -11.1202 O   0  0  0  0  0  0  0  0  0  0  0  0
   26.3822  -20.7633  -10.4178 N   0  0  0  0  0  0  0  0  0  0  0  0
   25.9809  -20.3602   -9.0705 C   0  0  1  0  0  0  0  0  0  0  0  0
   24.6031  -20.8102   -8.7686 C   0  0  0  0  0  0  0  0  0  0  0  0
   23.5640  -20.2488   -9.6682 C   0  0  0  0  0  0  0  0  0  0  0  0
   22.2122  -20.7213   -9.3228 C   0  0  0  0  0  0  0  0  0  0  0  0
   21.8736  -21.3479   -8.2991 O   0  0  0  0  0  0  0  0  0  0  0  0
   26.9607  -20.6422   -8.0334 C   0  0  0  0  0  0  0  0  0  0  0  0
   27.3679  -21.8638   -7.9325 O   0  0  0  0  0  0  0  0  0  0  0  0
   21.1777  -20.4483  -10.2281 O   0  0  0  0  0  0  0  0  0  0  0  0
   27.5472  -19.7535   -7.0954 N   0  0  0  0  0  0  0  0  0  0  0  0
   27.3191  -18.3494   -7.0205 C   0  0  0  0  0  0  0  0  0  0  0  0
   28.1036  -17.8772   -5.7964 C   0  0  0  0  0  0  0  0  0  0  0  0
   29.2276  -18.9223   -5.7067 C   0  0  0  0  0  0  0  0  0  0  0  0
   28.4583  -20.1540   -6.0595 C   0  0  1  0  0  0  0  0  0  0  0  0
   27.7626  -20.7311   -4.8861 C   0  0  0  0  0  0  0  0  0  0  0  0
   26.5188  -20.7669   -4.8738 O   0  0  0  0  0  0  0  0  0  0  0  0
   28.4897  -21.2142   -3.8378 O   0  0  0  0  0  0  0  0  0  0  0  0
  2  3  1  0
  2  1  1  0
  4  3  1  0
  5  7  1  0
  5  4  1  0
  5  6  1  6
  7  8  2  0
  9 10  1  0
  9  7  1  0
 10 11  1  1
 11 12  1  0
 12 13  1  0
 13 14  2  0
 15 18  1  0
 15 10  1  0
 16 15  2  0
 17 13  1  0
 18 19  1  0
 19 20  1  0
 21 20  1  0
 22 21  1  0
 22 18  1  0
 22 23  1  1
 24 23  2  0
 25 23  1  0
M  END
$$$$
