MEP.pdb
     RDKit          3D

 25 25  0  0  1  0  0  0  0  0999 V2000
   19.8313  -22.7362  -10.9491 C   0  0  0  0  0  0  0  0  0  0  0  0
   21.2373  -22.1025  -10.0073 S   0  0  0  0  0  0  0  0  0  0  0  0
   21.6603  -20.4594  -10.6426 C   0  0  0  0  0  0  0  0  0  0  0  0
   22.8349  -19.8722   -9.8586 C   0  0  0  0  0  0  0  0  0  0  0  0
   23.9954  -20.7887  -10.0006 C   0  0  2  0  0  0  0  0  0  0  0  0
   24.5344  -21.1538   -8.7243 N   0  0  0  0  0  0  0  0  0  0  0  0
   25.0466  -20.2945  -10.9160 C   0  0  0  0  0  0  0  0  0  0  0  0
   25.8812  -19.4507  -10.5159 O   0  0  0  0  0  0  0  0  0  0  0  0
   25.1761  -20.7288  -12.2645 N   0  0  0  0  0  0  0  0  0  0  0  0
   26.1495  -20.1790  -13.2073 C   0  0  1  0  0  0  0  0  0  0  0  0
   27.1339  -21.2065  -13.6158 C   0  0  0  0  0  0  0  0  0  0  0  0
   26.6065  -22.2166  -14.5676 C   0  0  0  0  0  0  0  0  0  0  0  0
   27.4107  -22.2965  -15.7992 C   0  0  0  0  0  0  0  0  0  0  0  0
   27.1673  -22.9810  -16.8127 O   0  0  0  0  0  0  0  0  0  0  0  0
   25.5725  -19.4119  -14.3000 C   0  0  0  0  0  0  0  0  0  0  0  0
   24.4578  -19.8427  -14.7901 O   0  0  0  0  0  0  0  0  0  0  0  0
   28.5811  -21.5281  -15.8615 O   0  0  0  0  0  0  0  0  0  0  0  0
   26.0652  -18.2347  -14.9206 N   0  0  0  0  0  0  0  0  0  0  0  0
   27.3148  -17.6078  -14.6477 C   0  0  0  0  0  0  0  0  0  0  0  0
   27.4071  -16.4439  -15.6345 C   0  0  0  0  0  0  0  0  0  0  0  0
   25.9271  -16.1194  -15.8951 C   0  0  0  0  0  0  0  0  0  0  0  0
   25.3677  -17.5044  -15.9422 C   0  0  1  0  0  0  0  0  0  0  0  0
   25.5180  -18.1204  -17.2808 C   0  0  0  0  0  0  0  0  0  0  0  0
   26.2893  -19.0866  -17.4222 O   0  0  0  0  0  0  0  0  0  0  0  0
   24.8128  -17.6238  -18.3378 O   0  0  0  0  0  0  0  0  0  0  0  0
  2  3  1  0
  2  1  1  0
  4  3  1  0
  5  7  1  0
  5  4  1  0
  5  6  1  1
  7  8  2  0
  9 10  1  0
  9  7  1  0
 10 11  1  6
 11 12  1  0
 12 13  1  0
 13 14  2  0
 15 18  1  0
 15 10  1  0
 16 15  2  0
 17 13  1  0
 18 19  1  0
 19 20  1  0
 21 20  1  0
 22 21  1  0
 22 18  1  0
 22 23  1  6
 24 23  2  0
 25 23  1  0
M  END
$$$$
