MEP.pdb
     RDKit          3D

 25 25  0  0  1  0  0  0  0  0999 V2000
   24.7949  -13.1209  -16.3424 C   0  0  0  0  0  0  0  0  0  0  0  0
   26.3120  -13.3946  -17.2852 S   0  0  0  0  0  0  0  0  0  0  0  0
   27.3604  -14.5494  -16.3635 C   0  0  0  0  0  0  0  0  0  0  0  0
   26.5292  -15.3176  -15.3349 C   0  0  0  0  0  0  0  0  0  0  0  0
   26.2521  -16.6726  -15.8768 C   0  0  2  0  0  0  0  0  0  0  0  0
   25.5590  -16.6050  -17.1290 N   0  0  0  0  0  0  0  0  0  0  0  0
   25.5717  -17.5764  -14.9243 C   0  0  0  0  0  0  0  0  0  0  0  0
   26.0895  -17.8186  -13.8098 O   0  0  0  0  0  0  0  0  0  0  0  0
   24.3277  -18.2092  -15.1999 N   0  0  0  0  0  0  0  0  0  0  0  0
   23.6802  -19.1604  -14.2973 C   0  0  1  0  0  0  0  0  0  0  0  0
   22.2642  -19.3721  -14.6738 C   0  0  0  0  0  0  0  0  0  0  0  0
   21.5058  -20.2441  -13.7416 C   0  0  0  0  0  0  0  0  0  0  0  0
   20.1578  -19.7211  -13.4601 C   0  0  0  0  0  0  0  0  0  0  0  0
   19.5098  -19.8438  -12.4017 O   0  0  0  0  0  0  0  0  0  0  0  0
   24.4383  -20.3764  -14.0483 C   0  0  0  0  0  0  0  0  0  0  0  0
   24.8231  -21.0459  -15.0837 O   0  0  0  0  0  0  0  0  0  0  0  0
   19.5136  -19.0044  -14.4777 O   0  0  0  0  0  0  0  0  0  0  0  0
   24.8253  -20.9479  -12.8085 N   0  0  0  0  0  0  0  0  0  0  0  0
   24.4924  -20.4454  -11.5179 C   0  0  0  0  0  0  0  0  0  0  0  0
   25.0639  -21.4615  -10.5289 C   0  0  0  0  0  0  0  0  0  0  0  0
   26.2339  -22.0659  -11.3222 C   0  0  0  0  0  0  0  0  0  0  0  0
   25.6083  -22.1450  -12.6771 C   0  0  1  0  0  0  0  0  0  0  0  0
   24.7972  -23.3729  -12.8450 C   0  0  0  0  0  0  0  0  0  0  0  0
   23.5598  -23.2766  -12.9342 O   0  0  0  0  0  0  0  0  0  0  0  0
   25.4129  -24.5891  -12.8996 O   0  0  0  0  0  0  0  0  0  0  0  0
  2  3  1  0
  2  1  1  0
  4  3  1  0
  5  7  1  0
  5  4  1  0
  5  6  1  6
  7  8  2  0
  9 10  1  0
  9  7  1  0
 10 11  1  6
 11 12  1  0
 12 13  1  0
 13 14  2  0
 15 18  1  0
 15 10  1  0
 16 15  2  0
 17 13  1  0
 18 19  1  0
 19 20  1  0
 21 20  1  0
 22 21  1  0
 22 18  1  0
 22 23  1  1
 24 23  2  0
 25 23  1  0
M  END
$$$$
