MEP.pdb
     RDKit          3D

 25 25  0  0  1  0  0  0  0  0999 V2000
   28.7113  -19.7066   -6.4851 C   0  0  0  0  0  0  0  0  0  0  0  0
   27.0135  -19.9539   -5.9177 S   0  0  0  0  0  0  0  0  0  0  0  0
   25.9708  -20.2979   -7.3588 C   0  0  0  0  0  0  0  0  0  0  0  0
   26.6763  -19.8589   -8.6428 C   0  0  0  0  0  0  0  0  0  0  0  0
   25.7748  -20.1388   -9.7898 C   0  0  2  0  0  0  0  0  0  0  0  0
   25.3620  -21.5107   -9.8096 N   0  0  0  0  0  0  0  0  0  0  0  0
   26.3133  -19.7118  -11.0993 C   0  0  0  0  0  0  0  0  0  0  0  0
   26.7660  -18.5530  -11.2440 O   0  0  0  0  0  0  0  0  0  0  0  0
   26.3519  -20.5583  -12.2421 N   0  0  0  0  0  0  0  0  0  0  0  0
   26.8091  -20.1246  -13.5618 C   0  0  1  0  0  0  0  0  0  0  0  0
   27.3470  -21.2636  -14.3396 C   0  0  0  0  0  0  0  0  0  0  0  0
   27.8746  -20.8971  -15.6781 C   0  0  0  0  0  0  0  0  0  0  0  0
   28.4414  -22.0550  -16.3909 C   0  0  0  0  0  0  0  0  0  0  0  0
   28.9287  -23.0848  -15.8840 O   0  0  0  0  0  0  0  0  0  0  0  0
   25.8729  -19.2761  -14.2820 C   0  0  0  0  0  0  0  0  0  0  0  0
   24.6488  -19.6832  -14.3480 O   0  0  0  0  0  0  0  0  0  0  0  0
   28.4440  -22.0175  -17.7919 O   0  0  0  0  0  0  0  0  0  0  0  0
   26.1118  -18.0404  -14.9376 N   0  0  0  0  0  0  0  0  0  0  0  0
   27.3740  -17.3923  -15.0624 C   0  0  0  0  0  0  0  0  0  0  0  0
   27.1107  -16.1570  -15.9236 C   0  0  0  0  0  0  0  0  0  0  0  0
   25.6297  -15.8656  -15.6312 C   0  0  0  0  0  0  0  0  0  0  0  0
   25.0985  -17.2620  -15.5939 C   0  0  1  0  0  0  0  0  0  0  0  0
   24.7804  -17.7731  -16.9473 C   0  0  0  0  0  0  0  0  0  0  0  0
   25.4881  -18.6701  -17.4401 O   0  0  0  0  0  0  0  0  0  0  0  0
   23.7208  -17.2570  -17.6343 O   0  0  0  0  0  0  0  0  0  0  0  0
  2  3  1  0
  2  1  1  0
  4  3  1  0
  5  7  1  0
  5  4  1  0
  5  6  1  6
  7  8  2  0
  9 10  1  0
  9  7  1  0
 10 11  1  6
 11 12  1  0
 12 13  1  0
 13 14  2  0
 15 18  1  0
 15 10  1  0
 16 15  2  0
 17 13  1  0
 18 19  1  0
 19 20  1  0
 21 20  1  0
 22 21  1  0
 22 18  1  0
 22 23  1  6
 24 23  2  0
 25 23  1  0
M  END
$$$$
