MEP.pdb
     RDKit          3D

 25 25  0  0  1  0  0  0  0  0999 V2000
   13.6859  -25.5847    4.1954 C   0  0  0  0  0  0  0  0  0  0  0  0
   13.9814  -25.5751    2.4127 S   0  0  0  0  0  0  0  0  0  0  0  0
   14.1032  -23.8540    1.8601 C   0  0  0  0  0  0  0  0  0  0  0  0
   15.2575  -23.1471    2.5722 C   0  0  0  0  0  0  0  0  0  0  0  0
   15.3124  -21.7427    2.0913 C   0  0  2  0  0  0  0  0  0  0  0  0
   15.5212  -21.6811    0.6751 N   0  0  0  0  0  0  0  0  0  0  0  0
   16.2754  -20.8913    2.8226 C   0  0  0  0  0  0  0  0  0  0  0  0
   17.5033  -20.9996    2.6009 O   0  0  0  0  0  0  0  0  0  0  0  0
   15.8858  -19.9263    3.7927 N   0  0  0  0  0  0  0  0  0  0  0  0
   16.8281  -19.0791    4.5227 C   0  0  1  0  0  0  0  0  0  0  0  0
   16.1724  -17.8391    4.9962 C   0  0  0  0  0  0  0  0  0  0  0  0
   17.0247  -16.9880    5.8643 C   0  0  0  0  0  0  0  0  0  0  0  0
   16.2979  -15.8172    6.3848 C   0  0  0  0  0  0  0  0  0  0  0  0
   15.1101  -15.5098    6.1620 O   0  0  0  0  0  0  0  0  0  0  0  0
   17.6233  -19.7741    5.5226 C   0  0  0  0  0  0  0  0  0  0  0  0
   17.0460  -20.7378    6.1602 O   0  0  0  0  0  0  0  0  0  0  0  0
   16.9972  -14.9391    7.2239 O   0  0  0  0  0  0  0  0  0  0  0  0
   18.9690  -19.5439    5.9095 N   0  0  0  0  0  0  0  0  0  0  0  0
   19.8169  -18.5147    5.4087 C   0  0  0  0  0  0  0  0  0  0  0  0
   21.1167  -18.6393    6.2037 C   0  0  0  0  0  0  0  0  0  0  0  0
   21.1245  -20.1289    6.5840 C   0  0  0  0  0  0  0  0  0  0  0  0
   19.6745  -20.3205    6.8907 C   0  0  1  0  0  0  0  0  0  0  0  0
   19.3408  -19.9189    8.2768 C   0  0  0  0  0  0  0  0  0  0  0  0
   18.6515  -18.9002    8.4653 O   0  0  0  0  0  0  0  0  0  0  0  0
   19.7907  -20.6667    9.3254 O   0  0  0  0  0  0  0  0  0  0  0  0
  2  3  1  0
  2  1  1  0
  4  3  1  0
  5  7  1  0
  5  4  1  0
  5  6  1  6
  7  8  2  0
  9 10  1  0
  9  7  1  0
 10 11  1  1
 11 12  1  0
 12 13  1  0
 13 14  2  0
 15 18  1  0
 15 10  1  0
 16 15  2  0
 17 13  1  0
 18 19  1  0
 19 20  1  0
 21 20  1  0
 22 21  1  0
 22 18  1  0
 22 23  1  1
 24 23  2  0
 25 23  1  0
M  END
$$$$
