NKL.pdb
     RDKit          3D

 26 25  0  0  1  0  0  0  0  0999 V2000
   25.8243  -21.3091   -7.8276 N   0  0  0  0  0  0  0  0  0  0  0  0
   25.7921  -19.9085   -8.0401 C   0  0  0  0  0  0  0  0  0  0  0  0
   25.9665  -19.1095   -7.0942 O   0  0  0  0  0  0  0  0  0  0  0  0
   25.5501  -19.3984   -9.3919 C   0  0  0  0  0  0  0  0  0  0  0  0
   25.4092  -20.5376  -10.3475 C   0  0  2  0  0  0  0  0  0  0  0  0
   26.0476  -21.7330   -9.9100 N   0  0  0  0  0  0  0  0  0  0  0  0
   26.0891  -20.1037  -11.6334 C   0  0  0  0  0  0  0  0  0  0  0  0
   26.7186  -19.0331  -11.6021 O   0  0  0  0  0  0  0  0  0  0  0  0
   26.0024  -20.8855  -12.7970 N   0  0  0  0  0  0  0  0  0  0  0  0
   26.6305  -20.5803  -14.0463 C   0  0  1  0  0  0  0  0  0  0  0  0
   27.0175  -21.7949  -14.8640 C   0  0  0  0  0  0  0  0  0  0  0  0
   27.7230  -21.4486  -16.1505 C   0  0  0  0  0  0  0  0  0  0  0  0
   28.0719  -22.6980  -16.9388 C   0  0  0  0  0  0  0  0  0  0  0  0
   28.7344  -22.3652  -18.2612 C   0  0  0  0  0  0  0  0  0  0  0  0
   29.1056  -23.6244  -18.8909 N   0  0  0  0  0  0  0  0  0  0  0  0
   25.9159  -19.5445  -14.7850 C   0  0  0  0  0  0  0  0  0  0  0  0
   24.6339  -19.5098  -14.7077 O   0  0  0  0  0  0  0  0  0  0  0  0
   24.1246  -14.7662  -15.4996 C   0  0  0  0  0  0  0  0  0  0  0  0
   25.5118  -14.9138  -16.0666 C   0  0  1  0  0  0  0  0  0  0  0  0
   26.3546  -13.7177  -15.6240 C   0  0  0  0  0  0  0  0  0  0  0  0
   26.1730  -16.1356  -15.5731 C   0  0  0  0  0  0  0  0  0  0  0  0
   25.7289  -17.4498  -16.1050 C   0  0  2  0  0  0  0  0  0  0  0  0
   26.5023  -18.5596  -15.5901 N   0  0  0  0  0  0  0  0  0  0  0  0
   25.6323  -17.5824  -17.5646 C   0  0  0  0  0  0  0  0  0  0  0  0
   26.6481  -17.8477  -18.2589 O   0  0  0  0  0  0  0  0  0  0  0  0
   24.4417  -17.4293  -18.2607 O   0  0  0  0  0  0  0  0  0  0  0  0
  2  3  2  0
  2  1  1  0
  4  2  1  0
  5  4  1  0
  5  6  1  1
  7  5  1  0
  7  8  2  0
  9  7  1  0
 10  9  1  0
 11 12  1  0
 10 11  1  6
 12 13  1  0
 13 14  1  0
 14 15  1  0
 16 10  1  0
 17 16  2  0
 19 18  1  1
 19 21  1  0
 20 19  1  0
 22 21  1  6
 22 23  1  0
 22 24  1  0
 23 16  1  0
 24 26  1  0
 25 24  2  0
M  END
$$$$
