NKL.pdb
     RDKit          3D

 26 25  0  0  1  0  0  0  0  0999 V2000
   28.4521  -22.2667  -17.4326 N   0  0  0  0  0  0  0  0  0  0  0  0
   27.9769  -22.0966  -16.1085 C   0  0  0  0  0  0  0  0  0  0  0  0
   28.2324  -22.9380  -15.2196 O   0  0  0  0  0  0  0  0  0  0  0  0
   27.1749  -20.9138  -15.7860 C   0  0  0  0  0  0  0  0  0  0  0  0
   26.9865  -20.0781  -17.0095 C   0  0  2  0  0  0  0  0  0  0  0  0
   28.0858  -19.2170  -17.2883 N   0  0  0  0  0  0  0  0  0  0  0  0
   25.7768  -19.2001  -16.7455 C   0  0  0  0  0  0  0  0  0  0  0  0
   25.9522  -18.2049  -16.0229 O   0  0  0  0  0  0  0  0  0  0  0  0
   24.5235  -19.5100  -17.2987 N   0  0  0  0  0  0  0  0  0  0  0  0
   23.3238  -18.7548  -17.1016 C   0  0  1  0  0  0  0  0  0  0  0  0
   22.6938  -18.2388  -18.3785 C   0  0  0  0  0  0  0  0  0  0  0  0
   23.5800  -17.2850  -19.1386 C   0  0  0  0  0  0  0  0  0  0  0  0
   22.9233  -16.8379  -20.4321 C   0  0  0  0  0  0  0  0  0  0  0  0
   23.8028  -15.8790  -21.2103 C   0  0  0  0  0  0  0  0  0  0  0  0
   23.1238  -15.5864  -22.4646 N   0  0  0  0  0  0  0  0  0  0  0  0
   22.4008  -19.4143  -16.1839 C   0  0  0  0  0  0  0  0  0  0  0  0
   22.6520  -20.6217  -15.8237 O   0  0  0  0  0  0  0  0  0  0  0  0
   20.8566  -21.8653  -12.1991 C   0  0  0  0  0  0  0  0  0  0  0  0
   20.7118  -20.3664  -12.1902 C   0  0  1  0  0  0  0  0  0  0  0  0
   21.4095  -19.8115  -10.9484 C   0  0  0  0  0  0  0  0  0  0  0  0
   21.3443  -19.7527  -13.3721 C   0  0  0  0  0  0  0  0  0  0  0  0
   20.5108  -19.5017  -14.5759 C   0  0  2  0  0  0  0  0  0  0  0  0
   21.2391  -18.8488  -15.6428 N   0  0  0  0  0  0  0  0  0  0  0  0
   19.2399  -18.7935  -14.3736 C   0  0  0  0  0  0  0  0  0  0  0  0
   18.2833  -19.3416  -13.7665 O   0  0  0  0  0  0  0  0  0  0  0  0
   19.0138  -17.5014  -14.8263 O   0  0  0  0  0  0  0  0  0  0  0  0
  2  3  2  0
  2  1  1  0
  4  2  1  0
  5  4  1  0
  5  6  1  1
  7  5  1  0
  7  8  2  0
  9  7  1  0
 10  9  1  0
 11 12  1  0
 10 11  1  6
 12 13  1  0
 13 14  1  0
 14 15  1  0
 16 10  1  0
 17 16  2  0
 19 18  1  6
 19 21  1  0
 20 19  1  0
 22 21  1  1
 22 23  1  0
 22 24  1  0
 23 16  1  0
 24 26  1  0
 25 24  2  0
M  END
$$$$
