NKL.pdb
     RDKit          3D

 26 25  0  0  1  0  0  0  0  0999 V2000
   27.1184  -22.2043  -10.8267 N   0  0  0  0  0  0  0  0  0  0  0  0
   27.4446  -21.0134  -11.5219 C   0  0  0  0  0  0  0  0  0  0  0  0
   28.5090  -20.4011  -11.2860 O   0  0  0  0  0  0  0  0  0  0  0  0
   26.5144  -20.4996  -12.5303 C   0  0  0  0  0  0  0  0  0  0  0  0
   25.2912  -21.3553  -12.5765 C   0  0  2  0  0  0  0  0  0  0  0  0
   25.5564  -22.7144  -12.9086 N   0  0  0  0  0  0  0  0  0  0  0  0
   24.4102  -20.7832  -13.6722 C   0  0  0  0  0  0  0  0  0  0  0  0
   24.8868  -20.7564  -14.8193 O   0  0  0  0  0  0  0  0  0  0  0  0
   23.1186  -20.3097  -13.3888 N   0  0  0  0  0  0  0  0  0  0  0  0
   22.2117  -19.7578  -14.3487 C   0  0  1  0  0  0  0  0  0  0  0  0
   20.7494  -19.9983  -14.0366 C   0  0  0  0  0  0  0  0  0  0  0  0
   20.3381  -21.4418  -14.1784 C   0  0  0  0  0  0  0  0  0  0  0  0
   18.8955  -21.6460  -13.7526 C   0  0  0  0  0  0  0  0  0  0  0  0
   18.4072  -23.0470  -14.0643 C   0  0  0  0  0  0  0  0  0  0  0  0
   17.0045  -23.1144  -13.6799 N   0  0  0  0  0  0  0  0  0  0  0  0
   22.5472  -18.3812  -14.6973 C   0  0  0  0  0  0  0  0  0  0  0  0
   22.9391  -17.5901  -13.7638 O   0  0  0  0  0  0  0  0  0  0  0  0
   25.7159  -14.6009  -15.1031 C   0  0  0  0  0  0  0  0  0  0  0  0
   25.5189  -15.5411  -16.2628 C   0  0  1  0  0  0  0  0  0  0  0  0
   26.8759  -16.1189  -16.6646 C   0  0  0  0  0  0  0  0  0  0  0  0
   24.6395  -16.6688  -15.9043 C   0  0  0  0  0  0  0  0  0  0  0  0
   23.2120  -16.6162  -16.3122 C   0  0  2  0  0  0  0  0  0  0  0  0
   22.4833  -17.8218  -15.9799 N   0  0  0  0  0  0  0  0  0  0  0  0
   22.9286  -16.2671  -17.7106 C   0  0  0  0  0  0  0  0  0  0  0  0
   22.7955  -17.1611  -18.5864 O   0  0  0  0  0  0  0  0  0  0  0  0
   22.7899  -14.9582  -18.1501 O   0  0  0  0  0  0  0  0  0  0  0  0
  2  3  2  0
  2  1  1  0
  4  2  1  0
  5  4  1  0
  5  6  1  6
  7  5  1  0
  7  8  2  0
  9  7  1  0
 10  9  1  0
 11 12  1  0
 10 11  1  1
 12 13  1  0
 13 14  1  0
 14 15  1  0
 16 10  1  0
 17 16  2  0
 19 18  1  1
 19 21  1  0
 20 19  1  0
 22 21  1  6
 22 23  1  0
 22 24  1  0
 23 16  1  0
 24 26  1  0
 25 24  2  0
M  END
$$$$
