NKL.pdb
     RDKit          3D

 26 25  0  0  1  0  0  0  0  0999 V2000
   16.5283  -18.5786  -17.7175 N   0  0  0  0  0  0  0  0  0  0  0  0
   16.6679  -18.3150  -16.3323 C   0  0  0  0  0  0  0  0  0  0  0  0
   16.3053  -19.1527  -15.4777 O   0  0  0  0  0  0  0  0  0  0  0  0
   17.2469  -17.0391  -15.9047 C   0  0  0  0  0  0  0  0  0  0  0  0
   17.5910  -16.2112  -17.0993 C   0  0  2  0  0  0  0  0  0  0  0  0
   18.1905  -16.9538  -18.1561 N   0  0  0  0  0  0  0  0  0  0  0  0
   18.6075  -15.1859  -16.6306 C   0  0  0  0  0  0  0  0  0  0  0  0
   18.2624  -14.4373  -15.7012 O   0  0  0  0  0  0  0  0  0  0  0  0
   19.8754  -15.0986  -17.2286 N   0  0  0  0  0  0  0  0  0  0  0  0
   20.8620  -14.1049  -16.9324 C   0  0  1  0  0  0  0  0  0  0  0  0
   22.2810  -14.5145  -17.2674 C   0  0  0  0  0  0  0  0  0  0  0  0
   23.3168  -13.5345  -16.7779 C   0  0  0  0  0  0  0  0  0  0  0  0
   24.7204  -14.0073  -17.1103 C   0  0  0  0  0  0  0  0  0  0  0  0
   25.7783  -13.0955  -16.5206 C   0  0  0  0  0  0  0  0  0  0  0  0
   27.0746  -13.6999  -16.7932 N   0  0  0  0  0  0  0  0  0  0  0  0
   20.4748  -12.7823  -17.4118 C   0  0  0  0  0  0  0  0  0  0  0  0
   19.9614  -12.6813  -18.5852 O   0  0  0  0  0  0  0  0  0  0  0  0
   16.9932   -8.7339  -16.6808 C   0  0  0  0  0  0  0  0  0  0  0  0
   17.7346   -9.3558  -17.8346 C   0  0  1  0  0  0  0  0  0  0  0  0
   18.7127   -8.3278  -18.4032 C   0  0  0  0  0  0  0  0  0  0  0  0
   18.5164  -10.5306  -17.4077 C   0  0  0  0  0  0  0  0  0  0  0  0
   19.9710  -10.3644  -17.1559 C   0  0  2  0  0  0  0  0  0  0  0  0
   20.6100  -11.5817  -16.7031 N   0  0  0  0  0  0  0  0  0  0  0  0
   20.3750   -9.2649  -16.2696 C   0  0  0  0  0  0  0  0  0  0  0  0
   20.7806   -9.4923  -15.1000 O   0  0  0  0  0  0  0  0  0  0  0  0
   20.3392   -7.9320  -16.6536 O   0  0  0  0  0  0  0  0  0  0  0  0
  2  3  2  0
  2  1  1  0
  4  2  1  0
  5  4  1  0
  5  6  1  6
  7  5  1  0
  7  8  2  0
  9  7  1  0
 10  9  1  0
 11 12  1  0
 10 11  1  6
 12 13  1  0
 13 14  1  0
 14 15  1  0
 16 10  1  0
 17 16  2  0
 19 18  1  1
 19 21  1  0
 20 19  1  0
 22 21  1  1
 22 23  1  0
 22 24  1  0
 23 16  1  0
 24 26  1  0
 25 24  2  0
M  END
$$$$
