NKL.pdb
     RDKit          3D

 26 25  0  0  1  0  0  0  0  0999 V2000
   22.2816  -17.8889  -17.4765 N   0  0  0  0  0  0  0  0  0  0  0  0
   21.1812  -17.0089  -17.3260 C   0  0  0  0  0  0  0  0  0  0  0  0
   20.0232  -17.4491  -17.1566 O   0  0  0  0  0  0  0  0  0  0  0  0
   21.4138  -15.5632  -17.3711 C   0  0  0  0  0  0  0  0  0  0  0  0
   20.2727  -14.8857  -18.0564 C   0  0  2  0  0  0  0  0  0  0  0  0
   20.1755  -15.1924  -19.4436 N   0  0  0  0  0  0  0  0  0  0  0  0
   20.5272  -13.3940  -17.9374 C   0  0  0  0  0  0  0  0  0  0  0  0
   21.6595  -12.9907  -18.2516 O   0  0  0  0  0  0  0  0  0  0  0  0
   19.5206  -12.5218  -17.4916 N   0  0  0  0  0  0  0  0  0  0  0  0
   19.6530  -11.1021  -17.3670 C   0  0  1  0  0  0  0  0  0  0  0  0
   18.3437  -10.3681  -17.1658 C   0  0  0  0  0  0  0  0  0  0  0  0
   17.2110  -10.9315  -17.9858 C   0  0  0  0  0  0  0  0  0  0  0  0
   16.1376  -11.5346  -17.0981 C   0  0  0  0  0  0  0  0  0  0  0  0
   14.9324  -11.9889  -17.8978 C   0  0  0  0  0  0  0  0  0  0  0  0
   14.7658  -11.0546  -19.0021 N   0  0  0  0  0  0  0  0  0  0  0  0
   20.7169  -10.7259  -16.4420 C   0  0  0  0  0  0  0  0  0  0  0  0
   20.6929  -11.2074  -15.2511 O   0  0  0  0  0  0  0  0  0  0  0  0
   25.5145  -10.7304  -14.3108 C   0  0  0  0  0  0  0  0  0  0  0  0
   25.3444   -9.6847  -15.3809 C   0  0  1  0  0  0  0  0  0  0  0  0
   26.5908   -9.6782  -16.2659 C   0  0  0  0  0  0  0  0  0  0  0  0
   24.1837   -9.9737  -16.2429 C   0  0  0  0  0  0  0  0  0  0  0  0
   22.8276   -9.6127  -15.7555 C   0  0  2  0  0  0  0  0  0  0  0  0
   21.7885   -9.8708  -16.7295 N   0  0  0  0  0  0  0  0  0  0  0  0
   22.6469   -8.2548  -15.2254 C   0  0  0  0  0  0  0  0  0  0  0  0
   22.9186   -7.9870  -14.0260 O   0  0  0  0  0  0  0  0  0  0  0  0
   22.1767   -7.1994  -15.9939 O   0  0  0  0  0  0  0  0  0  0  0  0
  2  3  2  0
  2  1  1  0
  4  2  1  0
  5  4  1  0
  5  6  1  6
  7  5  1  0
  7  8  2  0
  9  7  1  0
 10  9  1  0
 11 12  1  0
 10 11  1  1
 12 13  1  0
 13 14  1  0
 14 15  1  0
 16 10  1  0
 17 16  2  0
 19 18  1  1
 19 21  1  0
 20 19  1  0
 22 21  1  6
 22 23  1  0
 22 24  1  0
 23 16  1  0
 24 26  1  0
 25 24  2  0
M  END
$$$$
