NKL.pdb
     RDKit          3D

 26 25  0  0  1  0  0  0  0  0999 V2000
   28.5025  -15.7167  -21.4720 N   0  0  0  0  0  0  0  0  0  0  0  0
   27.3065  -15.4643  -22.1888 C   0  0  0  0  0  0  0  0  0  0  0  0
   27.3348  -14.9471  -23.3268 O   0  0  0  0  0  0  0  0  0  0  0  0
   26.0224  -15.8181  -21.5789 C   0  0  0  0  0  0  0  0  0  0  0  0
   26.2489  -16.4279  -20.2345 C   0  0  2  0  0  0  0  0  0  0  0  0
   26.0003  -17.8294  -20.1932 N   0  0  0  0  0  0  0  0  0  0  0  0
   25.2621  -15.7632  -19.2917 C   0  0  0  0  0  0  0  0  0  0  0  0
   24.0916  -15.6505  -19.6924 O   0  0  0  0  0  0  0  0  0  0  0  0
   25.6670  -15.3019  -18.0284 N   0  0  0  0  0  0  0  0  0  0  0  0
   24.8039  -14.7216  -17.0451 C   0  0  1  0  0  0  0  0  0  0  0  0
   25.3849  -14.6865  -15.6469 C   0  0  0  0  0  0  0  0  0  0  0  0
   25.9820  -16.0018  -15.2151 C   0  0  0  0  0  0  0  0  0  0  0  0
   24.9366  -17.1023  -15.2047 C   0  0  0  0  0  0  0  0  0  0  0  0
   25.5273  -18.4389  -14.8008 C   0  0  0  0  0  0  0  0  0  0  0  0
   24.4765  -19.4377  -14.9365 N   0  0  0  0  0  0  0  0  0  0  0  0
   24.2169  -13.4650  -17.4983 C   0  0  0  0  0  0  0  0  0  0  0  0
   24.9896  -12.4523  -17.6661 O   0  0  0  0  0  0  0  0  0  0  0  0
   22.8326   -9.6863  -20.5845 C   0  0  0  0  0  0  0  0  0  0  0  0
   21.6666  -10.5523  -20.1870 C   0  0  1  0  0  0  0  0  0  0  0  0
   20.8232  -10.8430  -21.4284 C   0  0  0  0  0  0  0  0  0  0  0  0
   22.1131  -11.8446  -19.6354 C   0  0  0  0  0  0  0  0  0  0  0  0
   22.3757  -11.9434  -18.1766 C   0  0  2  0  0  0  0  0  0  0  0  0
   22.8614  -13.2466  -17.7756 N   0  0  0  0  0  0  0  0  0  0  0  0
   21.2865  -11.5503  -17.2729 C   0  0  0  0  0  0  0  0  0  0  0  0
   20.8009  -10.3897  -17.3114 O   0  0  0  0  0  0  0  0  0  0  0  0
   20.7310  -12.4124  -16.3382 O   0  0  0  0  0  0  0  0  0  0  0  0
  2  3  2  0
  2  1  1  0
  4  2  1  0
  5  4  1  0
  5  6  1  6
  7  5  1  0
  7  8  2  0
  9  7  1  0
 10  9  1  0
 11 12  1  0
 10 11  1  1
 12 13  1  0
 13 14  1  0
 14 15  1  0
 16 10  1  0
 17 16  2  0
 19 18  1  6
 19 21  1  0
 20 19  1  0
 22 21  1  6
 22 23  1  0
 22 24  1  0
 23 16  1  0
 24 26  1  0
 25 24  2  0
M  END
$$$$
