NKL.pdb
     RDKit          3D

 26 25  0  0  1  0  0  0  0  0999 V2000
   29.1407  -20.1831  -18.2858 N   0  0  0  0  0  0  0  0  0  0  0  0
   28.2564  -21.2622  -18.5336 C   0  0  0  0  0  0  0  0  0  0  0  0
   28.3595  -21.9543  -19.5699 O   0  0  0  0  0  0  0  0  0  0  0  0
   27.2089  -21.5639  -17.5549 C   0  0  0  0  0  0  0  0  0  0  0  0
   27.2572  -20.5744  -16.4371 C   0  0  2  0  0  0  0  0  0  0  0  0
   28.4956  -20.5661  -15.7341 N   0  0  0  0  0  0  0  0  0  0  0  0
   26.1785  -20.9883  -15.4527 C   0  0  0  0  0  0  0  0  0  0  0  0
   25.2066  -21.6102  -15.9133 O   0  0  0  0  0  0  0  0  0  0  0  0
   26.2867  -20.6764  -14.0875 N   0  0  0  0  0  0  0  0  0  0  0  0
   25.2723  -20.9066  -13.1044 C   0  0  1  0  0  0  0  0  0  0  0  0
   25.7215  -20.6732  -11.6771 C   0  0  0  0  0  0  0  0  0  0  0  0
   24.6512  -20.9711  -10.6579 C   0  0  0  0  0  0  0  0  0  0  0  0
   25.1357  -20.6743   -9.2502 C   0  0  0  0  0  0  0  0  0  0  0  0
   24.0661  -20.9560   -8.2134 C   0  0  0  0  0  0  0  0  0  0  0  0
   24.6696  -20.7632   -6.9024 N   0  0  0  0  0  0  0  0  0  0  0  0
   24.0052  -20.2768  -13.4606 C   0  0  0  0  0  0  0  0  0  0  0  0
   24.0307  -19.1182  -14.0154 O   0  0  0  0  0  0  0  0  0  0  0  0
   20.9585  -19.5529  -17.6449 C   0  0  0  0  0  0  0  0  0  0  0  0
   20.5935  -19.6777  -16.1893 C   0  0  1  0  0  0  0  0  0  0  0  0
   19.4358  -20.6669  -16.0549 C   0  0  0  0  0  0  0  0  0  0  0  0
   21.7194  -20.1936  -15.3894 C   0  0  0  0  0  0  0  0  0  0  0  0
   21.5640  -20.2806  -13.9146 C   0  0  2  0  0  0  0  0  0  0  0  0
   22.7319  -20.8224  -13.2531 N   0  0  0  0  0  0  0  0  0  0  0  0
   20.3732  -20.9750  -13.4074 C   0  0  0  0  0  0  0  0  0  0  0  0
   20.3536  -22.2285  -13.2956 O   0  0  0  0  0  0  0  0  0  0  0  0
   19.2164  -20.3111  -13.0244 O   0  0  0  0  0  0  0  0  0  0  0  0
  2  3  2  0
  2  1  1  0
  4  2  1  0
  5  4  1  0
  5  6  1  1
  7  5  1  0
  7  8  2  0
  9  7  1  0
 10  9  1  0
 11 12  1  0
 10 11  1  1
 12 13  1  0
 13 14  1  0
 14 15  1  0
 16 10  1  0
 17 16  2  0
 19 18  1  6
 19 21  1  0
 20 19  1  0
 22 21  1  6
 22 23  1  0
 22 24  1  0
 23 16  1  0
 24 26  1  0
 25 24  2  0
M  END
$$$$
