NKL.pdb
     RDKit          3D

 26 25  0  0  1  0  0  0  0  0999 V2000
   13.3657  -10.4335  -16.7807 N   0  0  0  0  0  0  0  0  0  0  0  0
   13.6663   -9.1788  -16.1948 C   0  0  0  0  0  0  0  0  0  0  0  0
   12.8480   -8.2344  -16.2400 O   0  0  0  0  0  0  0  0  0  0  0  0
   14.9579   -8.9948  -15.5285 C   0  0  0  0  0  0  0  0  0  0  0  0
   15.7618  -10.2502  -15.6223 C   0  0  2  0  0  0  0  0  0  0  0  0
   15.3791  -11.2459  -14.6789 N   0  0  0  0  0  0  0  0  0  0  0  0
   17.1973   -9.8626  -15.3171 C   0  0  0  0  0  0  0  0  0  0  0  0
   17.5337   -9.8513  -14.1211 O   0  0  0  0  0  0  0  0  0  0  0  0
   18.0928   -9.5344  -16.3480 N   0  0  0  0  0  0  0  0  0  0  0  0
   19.4528   -9.1283  -16.1632 C   0  0  1  0  0  0  0  0  0  0  0  0
   20.3093   -9.2291  -17.4080 C   0  0  0  0  0  0  0  0  0  0  0  0
   21.7499   -8.8510  -17.1739 C   0  0  0  0  0  0  0  0  0  0  0  0
   22.5481   -8.9041  -18.4640 C   0  0  0  0  0  0  0  0  0  0  0  0
   24.0111   -8.5776  -18.2371 C   0  0  0  0  0  0  0  0  0  0  0  0
   24.6886   -8.7025  -19.5198 N   0  0  0  0  0  0  0  0  0  0  0  0
   19.5582   -7.8622  -15.4456 C   0  0  0  0  0  0  0  0  0  0  0  0
   18.6262   -6.9911  -15.5984 O   0  0  0  0  0  0  0  0  0  0  0  0
   20.5149   -5.7810  -10.4609 C   0  0  0  0  0  0  0  0  0  0  0  0
   19.3409   -5.8218  -11.4029 C   0  0  1  0  0  0  0  0  0  0  0  0
   19.1747   -4.4435  -12.0429 C   0  0  0  0  0  0  0  0  0  0  0  0
   19.5490   -6.7981  -12.4879 C   0  0  0  0  0  0  0  0  0  0  0  0
   20.4358   -6.4259  -13.6202 C   0  0  2  0  0  0  0  0  0  0  0  0
   20.5997   -7.4921  -14.5852 N   0  0  0  0  0  0  0  0  0  0  0  0
   21.7613   -5.8901  -13.2833 C   0  0  0  0  0  0  0  0  0  0  0  0
   21.8866   -4.7442  -12.7778 O   0  0  0  0  0  0  0  0  0  0  0  0
   22.9377   -6.5953  -13.4933 O   0  0  0  0  0  0  0  0  0  0  0  0
  2  3  2  0
  2  1  1  0
  4  2  1  0
  5  4  1  0
  5  6  1  1
  7  5  1  0
  7  8  2  0
  9  7  1  0
 10  9  1  0
 11 12  1  0
 10 11  1  6
 12 13  1  0
 13 14  1  0
 14 15  1  0
 16 10  1  0
 17 16  2  0
 19 18  1  1
 19 21  1  0
 20 19  1  0
 22 21  1  1
 22 23  1  0
 22 24  1  0
 23 16  1  0
 24 26  1  0
 25 24  2  0
M  END
$$$$
