AWT.pdb
     RDKit          3D

 27 28  0  0  1  0  0  0  0  0999 V2000
   28.7095  -21.8978  -14.4925 C   0  0  0  0  0  0  0  0  0  0  0  0
   27.3176  -21.4152  -14.7516 C   0  0  2  0  0  0  0  0  0  0  0  0
   27.3474  -20.5186  -15.8860 N   0  0  0  0  0  0  0  0  0  0  0  0
   26.7264  -20.6950  -13.5836 C   0  0  0  0  0  0  0  0  0  0  0  0
   26.9397  -19.4385  -13.4829 O   0  0  0  0  0  0  0  0  0  0  0  0
   25.9568  -21.3868  -12.6244 N   0  0  0  0  0  0  0  0  0  0  0  0
   25.3001  -20.6845  -11.5789 C   0  0  1  0  0  0  0  0  0  0  0  0
   23.8141  -20.9241  -11.5345 C   0  0  0  0  0  0  0  0  0  0  0  0
   23.0995  -20.3565  -12.6820 C   0  0  0  0  0  0  0  0  0  0  0  0
   23.1754  -19.0731  -13.1504 C   0  0  0  0  0  0  0  0  0  0  0  0
   22.3737  -18.9353  -14.2174 N   0  0  0  0  0  0  0  0  0  0  0  0
   21.7656  -20.1226  -14.4593 C   0  0  0  0  0  0  0  0  0  0  0  0
   20.8516  -20.5098  -15.4367 C   0  0  0  0  0  0  0  0  0  0  0  0
   20.3714  -21.7956  -15.4748 C   0  0  0  0  0  0  0  0  0  0  0  0
   20.8141  -22.6883  -14.5268 C   0  0  0  0  0  0  0  0  0  0  0  0
   21.7150  -22.3084  -13.5627 C   0  0  0  0  0  0  0  0  0  0  0  0
   22.2181  -21.0068  -13.5029 C   0  0  0  0  0  0  0  0  0  0  0  0
   25.8342  -21.1405  -10.2437 C   0  0  0  0  0  0  0  0  0  0  0  0
   25.9683  -22.3651   -9.9732 O   0  0  0  0  0  0  0  0  0  0  0  0
   29.0063  -19.6542   -8.1370 C   0  0  0  0  0  0  0  0  0  0  0  0
   27.7306  -19.6882   -7.3682 C   0  0  1  0  0  0  0  0  0  0  0  0
   27.1692  -18.4276   -7.2742 O   0  0  0  0  0  0  0  0  0  0  0  0
   26.6807  -20.6152   -7.9290 C   0  0  2  0  0  0  0  0  0  0  0  0
   26.2074  -20.2145   -9.2383 N   0  0  0  0  0  0  0  0  0  0  0  0
   25.5600  -20.8457   -7.0114 C   0  0  0  0  0  0  0  0  0  0  0  0
   25.6612  -21.3633   -5.7469 O   0  0  0  0  0  0  0  0  0  0  0  0
   24.3876  -20.5450   -7.4078 O   0  0  0  0  0  0  0  0  0  0  0  0
  2  1  1  1
  2  3  1  0
  4  5  2  0
  4  2  1  0
  6  4  1  0
  7  6  1  0
  8  9  1  0
  7  8  1  1
  9 17  1  0
 10  9  2  0
 10 11  1  0
 11 12  1  0
 12 13  1  0
 13 14  2  0
 15 14  1  0
 16 15  2  0
 17 12  2  0
 17 16  1  0
 18  7  1  0
 18 19  2  0
 21 20  1  6
 22 21  1  0
 23 24  1  6
 23 21  1  0
 24 18  1  0
 25 23  1  0
 26 25  1  0
 27 25  2  0
M  END
$$$$
