AWT.pdb
     RDKit          3D

 27 28  0  0  1  0  0  0  0  0999 V2000
   27.5208  -19.9242  -17.1779 C   0  0  0  0  0  0  0  0  0  0  0  0
   28.1528  -20.8835  -16.2199 C   0  0  2  0  0  0  0  0  0  0  0  0
   28.3971  -22.1290  -16.9132 N   0  0  0  0  0  0  0  0  0  0  0  0
   27.2992  -21.1568  -15.0245 C   0  0  0  0  0  0  0  0  0  0  0  0
   26.3716  -22.0294  -15.1365 O   0  0  0  0  0  0  0  0  0  0  0  0
   27.5158  -20.4691  -13.8116 N   0  0  0  0  0  0  0  0  0  0  0  0
   26.7737  -20.8023  -12.6473 C   0  0  1  0  0  0  0  0  0  0  0  0
   27.4107  -20.3217  -11.3702 C   0  0  0  0  0  0  0  0  0  0  0  0
   26.6355  -20.6579  -10.1720 C   0  0  0  0  0  0  0  0  0  0  0  0
   25.5245  -21.4535  -10.1026 C   0  0  0  0  0  0  0  0  0  0  0  0
   25.0979  -21.5213   -8.8323 N   0  0  0  0  0  0  0  0  0  0  0  0
   25.9219  -20.7735   -8.0577 C   0  0  0  0  0  0  0  0  0  0  0  0
   25.9191  -20.5140   -6.6891 C   0  0  0  0  0  0  0  0  0  0  0  0
   26.8789  -19.7081   -6.1282 C   0  0  0  0  0  0  0  0  0  0  0  0
   27.8396  -19.1654   -6.9492 C   0  0  0  0  0  0  0  0  0  0  0  0
   27.8440  -19.4201   -8.2985 C   0  0  0  0  0  0  0  0  0  0  0  0
   26.8788  -20.2364   -8.8926 C   0  0  0  0  0  0  0  0  0  0  0  0
   25.4145  -20.1501  -12.7042 C   0  0  0  0  0  0  0  0  0  0  0  0
   25.2899  -18.9000  -12.8161 O   0  0  0  0  0  0  0  0  0  0  0  0
   23.1945  -20.1979  -15.3963 C   0  0  0  0  0  0  0  0  0  0  0  0
   22.3751  -20.7035  -14.2594 C   0  0  1  0  0  0  0  0  0  0  0  0
   22.2347  -22.0784  -14.3161 O   0  0  0  0  0  0  0  0  0  0  0  0
   22.9099  -20.3550  -12.8924 C   0  0  2  0  0  0  0  0  0  0  0  0
   24.2221  -20.9123  -12.6348 N   0  0  0  0  0  0  0  0  0  0  0  0
   21.9786  -20.6756  -11.8057 C   0  0  0  0  0  0  0  0  0  0  0  0
   20.7931  -20.0346  -11.5594 O   0  0  0  0  0  0  0  0  0  0  0  0
   22.2826  -21.6270  -11.0153 O   0  0  0  0  0  0  0  0  0  0  0  0
  2  1  1  6
  2  3  1  0
  4  5  2  0
  4  2  1  0
  6  4  1  0
  7  6  1  0
  8  9  1  0
  7  8  1  1
  9 17  1  0
 10  9  2  0
 10 11  1  0
 11 12  1  0
 12 13  1  0
 13 14  2  0
 15 14  1  0
 16 15  2  0
 17 12  2  0
 17 16  1  0
 18  7  1  0
 18 19  2  0
 21 20  1  6
 22 21  1  0
 23 24  1  1
 23 21  1  0
 24 18  1  0
 25 23  1  0
 26 25  1  0
 27 25  2  0
M  END
$$$$
