AWT.pdb
     RDKit          3D

 27 28  0  0  1  0  0  0  0  0999 V2000
   27.8478  -19.1579  -15.3211 C   0  0  0  0  0  0  0  0  0  0  0  0
   28.2695  -20.3184  -14.4768 C   0  0  2  0  0  0  0  0  0  0  0  0
   28.7786  -21.3561  -15.3461 N   0  0  0  0  0  0  0  0  0  0  0  0
   27.1504  -20.8794  -13.6610 C   0  0  0  0  0  0  0  0  0  0  0  0
   26.4656  -21.8367  -14.1598 O   0  0  0  0  0  0  0  0  0  0  0  0
   26.8638  -20.3635  -12.3793 N   0  0  0  0  0  0  0  0  0  0  0  0
   25.8474  -20.9445  -11.5751 C   0  0  1  0  0  0  0  0  0  0  0  0
   25.9528  -20.5814  -10.1175 C   0  0  0  0  0  0  0  0  0  0  0  0
   27.2731  -20.8596   -9.5436 C   0  0  0  0  0  0  0  0  0  0  0  0
   28.2577  -21.6451  -10.0779 C   0  0  0  0  0  0  0  0  0  0  0  0
   29.3200  -21.6551   -9.2584 N   0  0  0  0  0  0  0  0  0  0  0  0
   29.0443  -20.8788   -8.1816 C   0  0  0  0  0  0  0  0  0  0  0  0
   29.7997  -20.5599   -7.0555 C   0  0  0  0  0  0  0  0  0  0  0  0
   29.2906  -19.7357   -6.0824 C   0  0  0  0  0  0  0  0  0  0  0  0
   28.0203  -19.2349   -6.2473 C   0  0  0  0  0  0  0  0  0  0  0  0
   27.2742  -19.5482   -7.3566 C   0  0  0  0  0  0  0  0  0  0  0  0
   27.7697  -20.3840   -8.3600 C   0  0  0  0  0  0  0  0  0  0  0  0
   24.4948  -20.4535  -12.0283 C   0  0  0  0  0  0  0  0  0  0  0  0
   24.2324  -19.2218  -12.0977 O   0  0  0  0  0  0  0  0  0  0  0  0
   23.1002  -21.2691  -15.4145 C   0  0  0  0  0  0  0  0  0  0  0  0
   22.0516  -21.5903  -14.4061 C   0  0  1  0  0  0  0  0  0  0  0  0
   21.9595  -22.9545  -14.1970 O   0  0  0  0  0  0  0  0  0  0  0  0
   22.2472  -20.9344  -13.0617 C   0  0  2  0  0  0  0  0  0  0  0  0
   23.4633  -21.3531  -12.3949 N   0  0  0  0  0  0  0  0  0  0  0  0
   21.0867  -21.0699  -12.1753 C   0  0  0  0  0  0  0  0  0  0  0  0
   19.8383  -20.5596  -12.4161 O   0  0  0  0  0  0  0  0  0  0  0  0
   21.2349  -21.7129  -11.0858 O   0  0  0  0  0  0  0  0  0  0  0  0
  2  1  1  6
  2  3  1  0
  4  5  2  0
  4  2  1  0
  6  4  1  0
  7  6  1  0
  8  9  1  0
  7  8  1  1
  9 17  1  0
 10  9  2  0
 10 11  1  0
 11 12  1  0
 12 13  1  0
 13 14  2  0
 15 14  1  0
 16 15  2  0
 17 12  2  0
 17 16  1  0
 18  7  1  0
 18 19  2  0
 21 20  1  6
 22 21  1  0
 23 24  1  1
 23 21  1  0
 24 18  1  0
 25 23  1  0
 26 25  1  0
 27 25  2  0
M  END
$$$$
