AWT.pdb
     RDKit          3D

 27 28  0  0  1  0  0  0  0  0999 V2000
   29.0529  -21.3521  -14.9883 C   0  0  0  0  0  0  0  0  0  0  0  0
   27.8517  -20.4930  -14.7505 C   0  0  2  0  0  0  0  0  0  0  0  0
   28.2985  -19.2036  -14.2715 N   0  0  0  0  0  0  0  0  0  0  0  0
   26.9087  -21.0782  -13.7502 C   0  0  0  0  0  0  0  0  0  0  0  0
   26.3960  -22.2211  -14.0060 O   0  0  0  0  0  0  0  0  0  0  0  0
   26.5979  -20.3852  -12.5611 N   0  0  0  0  0  0  0  0  0  0  0  0
   25.6560  -20.9145  -11.6390 C   0  0  1  0  0  0  0  0  0  0  0  0
   25.8195  -20.3819  -10.2400 C   0  0  0  0  0  0  0  0  0  0  0  0
   27.1045  -20.7371   -9.6296 C   0  0  0  0  0  0  0  0  0  0  0  0
   28.0651  -21.5626  -10.1470 C   0  0  0  0  0  0  0  0  0  0  0  0
   29.0981  -21.6409   -9.2943 N   0  0  0  0  0  0  0  0  0  0  0  0
   28.8268  -20.8702   -8.2124 C   0  0  0  0  0  0  0  0  0  0  0  0
   29.5600  -20.6098   -7.0570 C   0  0  0  0  0  0  0  0  0  0  0  0
   29.0616  -19.7775   -6.0853 C   0  0  0  0  0  0  0  0  0  0  0  0
   27.8243  -19.2097   -6.2811 C   0  0  0  0  0  0  0  0  0  0  0  0
   27.1002  -19.4653   -7.4194 C   0  0  0  0  0  0  0  0  0  0  0  0
   27.5854  -20.3079   -8.4221 C   0  0  0  0  0  0  0  0  0  0  0  0
   24.2583  -20.5396  -12.0651 C   0  0  0  0  0  0  0  0  0  0  0  0
   23.9180  -19.3343  -12.2144 O   0  0  0  0  0  0  0  0  0  0  0  0
   21.7681  -23.5696  -13.9745 C   0  0  0  0  0  0  0  0  0  0  0  0
   21.8509  -22.1077  -14.2493 C   0  0  1  0  0  0  0  0  0  0  0  0
   20.7220  -21.6579  -14.9100 O   0  0  0  0  0  0  0  0  0  0  0  0
   22.0380  -21.2454  -13.0256 C   0  0  2  0  0  0  0  0  0  0  0  0
   23.2697  -21.5233  -12.3155 N   0  0  0  0  0  0  0  0  0  0  0  0
   20.8879  -21.2714  -12.1159 C   0  0  0  0  0  0  0  0  0  0  0  0
   20.9274  -21.6305  -10.7943 O   0  0  0  0  0  0  0  0  0  0  0  0
   19.7494  -20.9349  -12.5773 O   0  0  0  0  0  0  0  0  0  0  0  0
  2  1  1  1
  2  3  1  0
  4  5  2  0
  4  2  1  0
  6  4  1  0
  7  6  1  0
  8  9  1  0
  7  8  1  1
  9 17  1  0
 10  9  2  0
 10 11  1  0
 11 12  1  0
 12 13  1  0
 13 14  2  0
 15 14  1  0
 16 15  2  0
 17 12  2  0
 17 16  1  0
 18  7  1  0
 18 19  2  0
 21 20  1  1
 22 21  1  0
 23 24  1  1
 23 21  1  0
 24 18  1  0
 25 23  1  0
 26 25  1  0
 27 25  2  0
M  END
$$$$
