AWT.pdb
     RDKit          3D

 27 28  0  0  1  0  0  0  0  0999 V2000
   18.0630   -9.8900  -18.0542 C   0  0  0  0  0  0  0  0  0  0  0  0
   19.4214  -10.4160  -18.3941 C   0  0  2  0  0  0  0  0  0  0  0  0
   19.3931  -11.8583  -18.2901 N   0  0  0  0  0  0  0  0  0  0  0  0
   20.4900   -9.8888  -17.4927 C   0  0  0  0  0  0  0  0  0  0  0  0
   20.5817  -10.3836  -16.3175 O   0  0  0  0  0  0  0  0  0  0  0  0
   21.3683   -8.8755  -17.9319 N   0  0  0  0  0  0  0  0  0  0  0  0
   22.3411   -8.3288  -17.0530 C   0  0  1  0  0  0  0  0  0  0  0  0
   23.7031   -8.1845  -17.6786 C   0  0  0  0  0  0  0  0  0  0  0  0
   24.4320   -9.4524  -17.7826 C   0  0  0  0  0  0  0  0  0  0  0  0
   24.4102  -10.3350  -18.8280 C   0  0  0  0  0  0  0  0  0  0  0  0
   25.2062  -11.3793  -18.5521 N   0  0  0  0  0  0  0  0  0  0  0  0
   25.7567  -11.1933  -17.3272 C   0  0  0  0  0  0  0  0  0  0  0  0
   26.6417  -11.9717  -16.5848 C   0  0  0  0  0  0  0  0  0  0  0  0
   27.0621  -11.5614  -15.3437 C   0  0  0  0  0  0  0  0  0  0  0  0
   26.5887  -10.3665  -14.8540 C   0  0  0  0  0  0  0  0  0  0  0  0
   25.7163   -9.5979  -15.5844 C   0  0  0  0  0  0  0  0  0  0  0  0
   25.2741   -9.9934  -16.8489 C   0  0  0  0  0  0  0  0  0  0  0  0
   21.9274   -6.9398  -16.6340 C   0  0  0  0  0  0  0  0  0  0  0  0
   21.6158   -6.0625  -17.4849 O   0  0  0  0  0  0  0  0  0  0  0  0
   19.4916   -6.1139  -13.4817 C   0  0  0  0  0  0  0  0  0  0  0  0
   19.9671   -5.1733  -14.5348 C   0  0  1  0  0  0  0  0  0  0  0  0
   19.6729   -3.8626  -14.2051 O   0  0  0  0  0  0  0  0  0  0  0  0
   21.4450   -5.2497  -14.8281 C   0  0  2  0  0  0  0  0  0  0  0  0
   21.8712   -6.5621  -15.2696 N   0  0  0  0  0  0  0  0  0  0  0  0
   22.2816   -4.7676  -13.7242 C   0  0  0  0  0  0  0  0  0  0  0  0
   22.4905   -3.4529  -13.4003 O   0  0  0  0  0  0  0  0  0  0  0  0
   22.8708   -5.6306  -12.9959 O   0  0  0  0  0  0  0  0  0  0  0  0
  2  1  1  1
  2  3  1  0
  4  5  2  0
  4  2  1  0
  6  4  1  0
  7  6  1  0
  8  9  1  0
  7  8  1  6
  9 17  1  0
 10  9  2  0
 10 11  1  0
 11 12  1  0
 12 13  1  0
 13 14  2  0
 15 14  1  0
 16 15  2  0
 17 12  2  0
 17 16  1  0
 18  7  1  0
 18 19  2  0
 21 20  1  1
 22 21  1  0
 23 24  1  1
 23 21  1  0
 24 18  1  0
 25 23  1  0
 26 25  1  0
 27 25  2  0
M  END
$$$$
