ARQ.pdb
     RDKit          3D

 26 25  0  0  1  0  0  0  0  0999 V2000
   10.1432  -18.0561   17.6458 C   0  0  0  0  0  0  0  0  0  0  0  0
    9.9522  -18.5197   16.1955 C   0  0  2  0  0  0  0  0  0  0  0  0
    9.7034  -19.9447   16.2660 N   0  0  0  0  0  0  0  0  0  0  0  0
   11.1554  -18.2482   15.4032 C   0  0  0  0  0  0  0  0  0  0  0  0
   12.0607  -19.1534   15.3809 O   0  0  0  0  0  0  0  0  0  0  0  0
   15.9229  -13.4979   11.9308 N   0  0  0  0  0  0  0  0  0  0  0  0
   14.7021  -12.7676   11.9784 C   0  0  0  0  0  0  0  0  0  0  0  0
   14.6509  -11.5797   12.4416 N   0  0  0  0  0  0  0  0  0  0  0  0
   13.5193  -13.3922   11.4937 N   0  0  0  0  0  0  0  0  0  0  0  0
   13.5452  -14.7383   10.9605 C   0  0  0  0  0  0  0  0  0  0  0  0
   13.7943  -15.7560   12.0829 C   0  0  0  0  0  0  0  0  0  0  0  0
   12.5343  -15.8113   12.9062 C   0  0  0  0  0  0  0  0  0  0  0  0
   12.5678  -16.8637   13.9711 C   0  0  2  0  0  0  0  0  0  0  0  0
   11.3458  -17.0371   14.6737 N   0  0  0  0  0  0  0  0  0  0  0  0
   13.5989  -16.4170   14.9760 C   0  0  0  0  0  0  0  0  0  0  0  0
   13.2670  -16.0050   16.1292 O   0  0  0  0  0  0  0  0  0  0  0  0
   13.7351  -11.1423   12.6431 N   0  0  0  0  0  0  0  0  0  0  0  0
   16.7215  -20.3217   18.2117 C   0  0  0  0  0  0  0  0  0  0  0  0
   16.2794  -19.0070   18.5041 O   0  0  0  0  0  0  0  0  0  0  0  0
   15.5862  -18.8232   19.5350 C   0  0  0  0  0  0  0  0  0  0  0  0
   16.6344  -17.9048   17.6231 C   0  0  0  0  0  0  0  0  0  0  0  0
   15.6842  -17.5413   16.5601 C   0  0  1  0  0  0  0  0  0  0  0  0
   15.9896  -16.4069   15.6606 N   0  0  0  0  0  0  0  0  0  0  0  0
   14.9471  -16.4670   14.6053 C   0  0  0  0  0  0  0  0  0  0  0  0
   17.3110  -16.2954   15.0701 O   0  0  0  0  0  0  0  0  0  0  0  0
   18.2426  -15.6219   15.5673 O   0  0  0  0  0  0  0  0  0  0  0  0
  2  1  1  1
  2  3  1  0
  4  2  1  0
  5  4  2  0
  6  7  1  0
  7  9  1  0
  7  8  2  0
  9 10  1  0
 10 11  1  0
 11 12  1  0
 13 12  1  6
 13 14  1  0
 14  4  1  0
 15 13  1  0
 15 16  2  0
 17 18  1  0
 18 20  1  0
 19 18  2  0
 20 21  1  0
 22 21  1  1
 22 23  1  0
 23 15  1  0
 24 22  1  0
 25 24  2  0
 26 24  1  0
M  END
$$$$
