ARQ.pdb
     RDKit          3D

 26 25  0  0  1  0  0  0  0  0999 V2000
    8.9737  -20.7788   22.7491 C   0  0  0  0  0  0  0  0  0  0  0  0
    8.8429  -20.1666   21.3480 C   0  0  2  0  0  0  0  0  0  0  0  0
    9.4544  -21.1175   20.4429 N   0  0  0  0  0  0  0  0  0  0  0  0
    9.5359  -18.8765   21.2808 C   0  0  0  0  0  0  0  0  0  0  0  0
   10.7939  -18.8971   21.0432 O   0  0  0  0  0  0  0  0  0  0  0  0
    9.0772  -12.5253   17.7968 N   0  0  0  0  0  0  0  0  0  0  0  0
    7.8268  -13.1148   17.4575 C   0  0  0  0  0  0  0  0  0  0  0  0
    7.5171  -13.3763   16.2475 N   0  0  0  0  0  0  0  0  0  0  0  0
    6.9117  -13.4132   18.5050 N   0  0  0  0  0  0  0  0  0  0  0  0
    7.3758  -13.7490   19.8350 C   0  0  0  0  0  0  0  0  0  0  0  0
    8.4502  -14.8439   19.7685 C   0  0  0  0  0  0  0  0  0  0  0  0
    8.8083  -15.1875   21.1905 C   0  0  0  0  0  0  0  0  0  0  0  0
    9.6259  -16.4364   21.3106 C   0  0  2  0  0  0  0  0  0  0  0  0
    8.8700  -17.6286   21.4670 N   0  0  0  0  0  0  0  0  0  0  0  0
   10.4648  -16.2759   22.5528 C   0  0  0  0  0  0  0  0  0  0  0  0
    9.9371  -16.1824   23.7028 O   0  0  0  0  0  0  0  0  0  0  0  0
    6.6270  -13.8590   16.0344 N   0  0  0  0  0  0  0  0  0  0  0  0
   11.9328  -19.9891   25.5463 C   0  0  0  0  0  0  0  0  0  0  0  0
   12.8708  -19.1118   26.1463 O   0  0  0  0  0  0  0  0  0  0  0  0
   13.4824  -19.4992   27.1724 C   0  0  0  0  0  0  0  0  0  0  0  0
   13.1130  -17.7977   25.5706 C   0  0  0  0  0  0  0  0  0  0  0  0
   12.3386  -17.4161   24.3791 C   0  0  1  0  0  0  0  0  0  0  0  0
   12.7076  -16.1982   23.6243 N   0  0  0  0  0  0  0  0  0  0  0  0
   11.8558  -16.2315   22.4088 C   0  0  0  0  0  0  0  0  0  0  0  0
   14.0964  -15.9667   23.2709 O   0  0  0  0  0  0  0  0  0  0  0  0
   15.0108  -15.7977   24.1098 O   0  0  0  0  0  0  0  0  0  0  0  0
  2  1  1  1
  2  3  1  0
  4  2  1  0
  5  4  2  0
  6  7  1  0
  7  9  1  0
  7  8  2  0
  9 10  1  0
 10 11  1  0
 11 12  1  0
 13 12  1  1
 13 14  1  0
 14  4  1  0
 15 13  1  0
 15 16  2  0
 17 18  1  0
 18 20  1  0
 19 18  2  0
 20 21  1  0
 22 21  1  1
 22 23  1  0
 23 15  1  0
 24 22  1  0
 25 24  2  0
 26 24  1  0
M  END
$$$$
