ARQ.pdb
     RDKit          3D

 26 25  0  0  1  0  0  0  0  0999 V2000
    7.7265  -12.1730   19.4138 C   0  0  0  0  0  0  0  0  0  0  0  0
    8.8981  -13.0082   19.9474 C   0  0  2  0  0  0  0  0  0  0  0  0
    9.4420  -13.7041   18.7997 N   0  0  0  0  0  0  0  0  0  0  0  0
    8.4333  -13.9665   20.9548 C   0  0  0  0  0  0  0  0  0  0  0  0
    8.0215  -13.4925   22.0706 O   0  0  0  0  0  0  0  0  0  0  0  0
   10.9990  -19.7394   20.5128 N   0  0  0  0  0  0  0  0  0  0  0  0
   10.5450  -20.8650   21.2564 C   0  0  0  0  0  0  0  0  0  0  0  0
   11.3580  -21.7321   21.7205 N   0  0  0  0  0  0  0  0  0  0  0  0
    9.1475  -21.0116   21.4785 N   0  0  0  0  0  0  0  0  0  0  0  0
    8.2164  -19.9601   21.1260 C   0  0  0  0  0  0  0  0  0  0  0  0
    8.6661  -18.6207   21.7270 C   0  0  0  0  0  0  0  0  0  0  0  0
    7.6108  -17.6077   21.3679 C   0  0  0  0  0  0  0  0  0  0  0  0
    7.9610  -16.2132   21.7868 C   0  0  2  0  0  0  0  0  0  0  0  0
    8.4250  -15.3764   20.7372 N   0  0  0  0  0  0  0  0  0  0  0  0
    9.0844  -16.3398   22.7841 C   0  0  0  0  0  0  0  0  0  0  0  0
   10.2958  -16.4123   22.4137 O   0  0  0  0  0  0  0  0  0  0  0  0
   10.9979  -22.5598   22.2264 N   0  0  0  0  0  0  0  0  0  0  0  0
    8.7534  -13.2191   27.9269 C   0  0  0  0  0  0  0  0  0  0  0  0
    9.8483  -14.0583   28.2534 O   0  0  0  0  0  0  0  0  0  0  0  0
   10.4433  -13.8705   29.3432 C   0  0  0  0  0  0  0  0  0  0  0  0
   10.2573  -15.1133   27.3387 C   0  0  0  0  0  0  0  0  0  0  0  0
    9.4565  -15.3159   26.1210 C   0  0  1  0  0  0  0  0  0  0  0  0
    9.8510  -16.3600   25.1497 N   0  0  0  0  0  0  0  0  0  0  0  0
    8.7587  -16.3760   24.1442 C   0  0  0  0  0  0  0  0  0  0  0  0
   10.1366  -17.7040   25.6179 O   0  0  0  0  0  0  0  0  0  0  0  0
    9.2698  -18.6003   25.7361 O   0  0  0  0  0  0  0  0  0  0  0  0
  2  1  1  6
  2  3  1  0
  4  2  1  0
  5  4  2  0
  6  7  1  0
  7  9  1  0
  7  8  2  0
  9 10  1  0
 10 11  1  0
 11 12  1  0
 13 12  1  6
 13 14  1  0
 14  4  1  0
 15 13  1  0
 15 16  2  0
 17 18  1  0
 18 20  1  0
 19 18  2  0
 20 21  1  0
 22 21  1  6
 22 23  1  0
 23 15  1  0
 24 22  1  0
 25 24  2  0
 26 24  1  0
M  END
$$$$
