ARQ.pdb
     RDKit          3D

 26 25  0  0  1  0  0  0  0  0999 V2000
   12.0103  -20.1345   14.6839 C   0  0  0  0  0  0  0  0  0  0  0  0
   11.2429  -18.8612   14.3035 C   0  0  2  0  0  0  0  0  0  0  0  0
   11.9331  -18.3126   13.1546 N   0  0  0  0  0  0  0  0  0  0  0  0
   11.2507  -17.9021   15.4121 C   0  0  0  0  0  0  0  0  0  0  0  0
   12.0754  -16.9255   15.3381 O   0  0  0  0  0  0  0  0  0  0  0  0
    7.6938  -12.6051   18.5134 N   0  0  0  0  0  0  0  0  0  0  0  0
    7.6765  -12.8490   19.9157 C   0  0  0  0  0  0  0  0  0  0  0  0
    7.8517  -11.9086   20.7603 N   0  0  0  0  0  0  0  0  0  0  0  0
    7.4573  -14.1793   20.3696 N   0  0  0  0  0  0  0  0  0  0  0  0
    7.5617  -15.3075   19.4679 C   0  0  0  0  0  0  0  0  0  0  0  0
    8.9990  -15.4472   18.9464 C   0  0  0  0  0  0  0  0  0  0  0  0
    9.0448  -16.7150   18.1344 C   0  0  0  0  0  0  0  0  0  0  0  0
   10.3724  -16.9548   17.4844 C   0  0  2  0  0  0  0  0  0  0  0  0
   10.3900  -18.0188   16.5438 N   0  0  0  0  0  0  0  0  0  0  0  0
   11.3259  -17.3249   18.5920 C   0  0  0  0  0  0  0  0  0  0  0  0
   11.0554  -18.2474   19.4200 O   0  0  0  0  0  0  0  0  0  0  0  0
    7.9499  -12.1291   21.7665 N   0  0  0  0  0  0  0  0  0  0  0  0
   16.0266  -13.7130   19.0084 C   0  0  0  0  0  0  0  0  0  0  0  0
   16.1182  -14.2006   20.3362 O   0  0  0  0  0  0  0  0  0  0  0  0
   17.1268  -13.8942   21.0189 C   0  0  0  0  0  0  0  0  0  0  0  0
   15.0564  -15.0311   20.8836 C   0  0  0  0  0  0  0  0  0  0  0  0
   13.8586  -15.2484   20.0571 C   0  0  2  0  0  0  0  0  0  0  0  0
   13.2516  -16.5959   19.9863 N   0  0  0  0  0  0  0  0  0  0  0  0
   12.5308  -16.6205   18.6886 C   0  0  0  0  0  0  0  0  0  0  0  0
   12.3884  -17.0510   21.0610 O   0  0  0  0  0  0  0  0  0  0  0  0
   11.5944  -16.3066   21.6806 O   0  0  0  0  0  0  0  0  0  0  0  0
  2  1  1  1
  2  3  1  0
  4  2  1  0
  5  4  2  0
  6  7  1  0
  7  9  1  0
  7  8  2  0
  9 10  1  0
 10 11  1  0
 11 12  1  0
 13 12  1  1
 13 14  1  0
 14  4  1  0
 15 13  1  0
 15 16  2  0
 17 18  1  0
 18 20  1  0
 19 18  2  0
 20 21  1  0
 22 21  1  6
 22 23  1  0
 23 15  1  0
 24 22  1  0
 25 24  2  0
 26 24  1  0
M  END
$$$$
