ARQ.pdb
     RDKit          3D

 26 25  0  0  1  0  0  0  0  0999 V2000
    7.1012  -19.7366   26.5580 C   0  0  0  0  0  0  0  0  0  0  0  0
    6.4229  -19.6492   25.1843 C   0  0  2  0  0  0  0  0  0  0  0  0
    6.5472  -20.9675   24.5979 N   0  0  0  0  0  0  0  0  0  0  0  0
    7.0868  -18.6493   24.3426 C   0  0  0  0  0  0  0  0  0  0  0  0
    8.0513  -19.0513   23.6027 O   0  0  0  0  0  0  0  0  0  0  0  0
    6.9250  -14.1416   18.1578 N   0  0  0  0  0  0  0  0  0  0  0  0
    7.9714  -13.3794   18.7497 C   0  0  0  0  0  0  0  0  0  0  0  0
    8.7589  -12.6642   18.0450 N   0  0  0  0  0  0  0  0  0  0  0  0
    8.1290  -13.4275   20.1628 N   0  0  0  0  0  0  0  0  0  0  0  0
    7.2979  -14.2843   20.9826 C   0  0  0  0  0  0  0  0  0  0  0  0
    7.6457  -14.1084   22.4677 C   0  0  0  0  0  0  0  0  0  0  0  0
    6.7792  -15.0734   23.2336 C   0  0  0  0  0  0  0  0  0  0  0  0
    7.4512  -16.3829   23.5097 C   0  0  2  0  0  0  0  0  0  0  0  0
    6.7023  -17.2756   24.3216 N   0  0  0  0  0  0  0  0  0  0  0  0
    8.7192  -16.0590   24.2579 C   0  0  0  0  0  0  0  0  0  0  0  0
    8.6971  -15.6782   25.4680 O   0  0  0  0  0  0  0  0  0  0  0  0
    9.5431  -12.1615   18.4955 N   0  0  0  0  0  0  0  0  0  0  0  0
   11.1712  -19.4189   27.1115 C   0  0  0  0  0  0  0  0  0  0  0  0
   10.7100  -18.1584   27.5674 O   0  0  0  0  0  0  0  0  0  0  0  0
   10.3227  -18.0568   28.7577 C   0  0  0  0  0  0  0  0  0  0  0  0
   10.6978  -17.0161   26.6663 C   0  0  0  0  0  0  0  0  0  0  0  0
   11.1746  -17.2217   25.2896 C   0  0  2  0  0  0  0  0  0  0  0  0
   11.2043  -16.0821   24.3464 N   0  0  0  0  0  0  0  0  0  0  0  0
    9.9367  -16.1889   23.5810 C   0  0  0  0  0  0  0  0  0  0  0  0
   12.3337  -15.9237   23.4483 O   0  0  0  0  0  0  0  0  0  0  0  0
   12.3029  -16.2152   22.2307 O   0  0  0  0  0  0  0  0  0  0  0  0
  2  1  1  1
  2  3  1  0
  4  2  1  0
  5  4  2  0
  6  7  1  0
  7  9  1  0
  7  8  2  0
  9 10  1  0
 10 11  1  0
 11 12  1  0
 13 12  1  1
 13 14  1  0
 14  4  1  0
 15 13  1  0
 15 16  2  0
 17 18  1  0
 18 20  1  0
 19 18  2  0
 20 21  1  0
 22 21  1  1
 22 23  1  0
 23 15  1  0
 24 22  1  0
 25 24  2  0
 26 24  1  0
M  END
$$$$
