ARQ.pdb
     RDKit          3D

 26 25  0  0  1  0  0  0  0  0999 V2000
    7.4890  -11.5453   26.3182 C   0  0  0  0  0  0  0  0  0  0  0  0
    6.3124  -12.4596   25.9514 C   0  0  2  0  0  0  0  0  0  0  0  0
    5.5240  -12.5922   27.1590 N   0  0  0  0  0  0  0  0  0  0  0  0
    6.7952  -13.7709   25.5081 C   0  0  0  0  0  0  0  0  0  0  0  0
    6.9686  -14.6672   26.4058 O   0  0  0  0  0  0  0  0  0  0  0  0
   10.1674  -13.6575   19.1432 N   0  0  0  0  0  0  0  0  0  0  0  0
    8.9121  -13.0286   18.9094 C   0  0  0  0  0  0  0  0  0  0  0  0
    8.8341  -11.8216   18.5027 N   0  0  0  0  0  0  0  0  0  0  0  0
    7.7251  -13.7783   19.1396 N   0  0  0  0  0  0  0  0  0  0  0  0
    7.7137  -14.9074   20.0463 C   0  0  0  0  0  0  0  0  0  0  0  0
    7.6613  -14.4258   21.5033 C   0  0  0  0  0  0  0  0  0  0  0  0
    7.6932  -15.6579   22.3690 C   0  0  0  0  0  0  0  0  0  0  0  0
    7.5963  -15.3565   23.8327 C   0  0  2  0  0  0  0  0  0  0  0  0
    7.0717  -14.0734   24.1417 N   0  0  0  0  0  0  0  0  0  0  0  0
    9.0046  -15.4018   24.3688 C   0  0  0  0  0  0  0  0  0  0  0  0
    9.7213  -14.3574   24.4410 O   0  0  0  0  0  0  0  0  0  0  0  0
    7.9109  -11.3608   18.4251 N   0  0  0  0  0  0  0  0  0  0  0  0
    9.8819  -14.3955   28.9354 C   0  0  0  0  0  0  0  0  0  0  0  0
   10.6000  -15.5676   29.2818 O   0  0  0  0  0  0  0  0  0  0  0  0
   11.1860  -15.6053   30.3919 C   0  0  0  0  0  0  0  0  0  0  0  0
   10.6426  -16.6956   28.3638 C   0  0  0  0  0  0  0  0  0  0  0  0
    9.8794  -16.5905   27.1102 C   0  0  1  0  0  0  0  0  0  0  0  0
   10.5871  -16.6645   25.8129 N   0  0  0  0  0  0  0  0  0  0  0  0
    9.5110  -16.6360   24.7906 C   0  0  0  0  0  0  0  0  0  0  0  0
   11.5067  -17.7585   25.5589 O   0  0  0  0  0  0  0  0  0  0  0  0
   12.6629  -17.8230   26.0362 O   0  0  0  0  0  0  0  0  0  0  0  0
  2  1  1  1
  2  3  1  0
  4  2  1  0
  5  4  2  0
  6  7  1  0
  7  9  1  0
  7  8  2  0
  9 10  1  0
 10 11  1  0
 11 12  1  0
 13 12  1  6
 13 14  1  0
 14  4  1  0
 15 13  1  0
 15 16  2  0
 17 18  1  0
 18 20  1  0
 19 18  2  0
 20 21  1  0
 22 21  1  6
 22 23  1  0
 23 15  1  0
 24 22  1  0
 25 24  2  0
 26 24  1  0
M  END
$$$$
