ARQ.pdb
     RDKit          3D

 26 25  0  0  1  0  0  0  0  0999 V2000
    8.0299  -21.4003   23.2066 C   0  0  0  0  0  0  0  0  0  0  0  0
    9.1634  -20.6835   23.9524 C   0  0  2  0  0  0  0  0  0  0  0  0
    8.6453  -20.3933   25.2733 N   0  0  0  0  0  0  0  0  0  0  0  0
    9.5329  -19.4436   23.2631 C   0  0  0  0  0  0  0  0  0  0  0  0
   10.5211  -19.4952   22.4506 O   0  0  0  0  0  0  0  0  0  0  0  0
    8.0497  -14.1232   18.7387 N   0  0  0  0  0  0  0  0  0  0  0  0
    8.1364  -12.8811   19.4285 C   0  0  0  0  0  0  0  0  0  0  0  0
    8.6573  -11.8500   18.8865 N   0  0  0  0  0  0  0  0  0  0  0  0
    7.6250  -12.8048   20.7538 N   0  0  0  0  0  0  0  0  0  0  0  0
    7.2953  -14.0001   21.5018 C   0  0  0  0  0  0  0  0  0  0  0  0
    8.5217  -14.9167   21.6175 C   0  0  0  0  0  0  0  0  0  0  0  0
    8.0902  -16.1207   22.4130 C   0  0  0  0  0  0  0  0  0  0  0  0
    9.1940  -17.1064   22.6420 C   0  0  2  0  0  0  0  0  0  0  0  0
    8.8436  -18.2108   23.4634 N   0  0  0  0  0  0  0  0  0  0  0  0
   10.2922  -16.3557   23.3514 C   0  0  0  0  0  0  0  0  0  0  0  0
   10.8493  -15.3430   22.8279 O   0  0  0  0  0  0  0  0  0  0  0  0
    8.7021  -10.9581   19.4092 N   0  0  0  0  0  0  0  0  0  0  0  0
    9.7365  -13.8014   28.4020 C   0  0  0  0  0  0  0  0  0  0  0  0
    9.8811  -15.2001   28.5817 O   0  0  0  0  0  0  0  0  0  0  0  0
    9.4427  -15.7169   29.6390 C   0  0  0  0  0  0  0  0  0  0  0  0
   10.5196  -16.0060   27.5523 C   0  0  0  0  0  0  0  0  0  0  0  0
   11.0813  -15.3097   26.3842 C   0  0  1  0  0  0  0  0  0  0  0  0
   11.7728  -16.0856   25.3310 N   0  0  0  0  0  0  0  0  0  0  0  0
   10.6890  -16.8051   24.6155 C   0  0  0  0  0  0  0  0  0  0  0  0
   12.8400  -16.9989   25.6969 O   0  0  0  0  0  0  0  0  0  0  0  0
   12.7327  -18.2463   25.6632 O   0  0  0  0  0  0  0  0  0  0  0  0
  2  1  1  6
  2  3  1  0
  4  2  1  0
  5  4  2  0
  6  7  1  0
  7  9  1  0
  7  8  2  0
  9 10  1  0
 10 11  1  0
 11 12  1  0
 13 12  1  1
 13 14  1  0
 14  4  1  0
 15 13  1  0
 15 16  2  0
 17 18  1  0
 18 20  1  0
 19 18  2  0
 20 21  1  0
 22 21  1  6
 22 23  1  0
 23 15  1  0
 24 22  1  0
 25 24  2  0
 26 24  1  0
M  END
$$$$
