CFW.pdb
     RDKit          3D

 32 34  0  0  1  0  0  0  0  0999 V2000
   28.5068  -20.4644  -16.1035 N   0  0  0  0  0  0  0  0  0  0  0  0
   27.9802  -19.8216  -14.9373 C   0  0  1  0  0  0  0  0  0  0  0  0
   27.5432  -18.4082  -15.2369 C   0  0  0  0  0  0  0  0  0  0  0  0
   29.0213  -17.4547  -15.7033 S   0  0  0  0  0  0  0  0  0  0  0  0
   26.9164  -20.6461  -14.3529 C   0  0  0  0  0  0  0  0  0  0  0  0
   26.0898  -21.2140  -15.1063 O   0  0  0  0  0  0  0  0  0  0  0  0
   26.7579  -20.8478  -12.9501 N   0  0  0  0  0  0  0  0  0  0  0  0
   25.6676  -21.6468  -12.3961 C   0  0  1  0  0  0  0  0  0  0  0  0
   26.0421  -22.2737  -11.0911 C   0  0  0  0  0  0  0  0  0  0  0  0
   26.4052  -21.2633  -10.0579 C   0  0  0  0  0  0  0  0  0  0  0  0
   27.7322  -20.9678   -9.8094 C   0  0  0  0  0  0  0  0  0  0  0  0
   28.1043  -20.0368   -8.8615 C   0  0  0  0  0  0  0  0  0  0  0  0
   27.1646  -19.3563   -8.1159 C   0  0  0  0  0  0  0  0  0  0  0  0
   25.8374  -19.6460   -8.3581 C   0  0  0  0  0  0  0  0  0  0  0  0
   25.4714  -20.5789   -9.3086 C   0  0  0  0  0  0  0  0  0  0  0  0
   24.4572  -20.7836  -12.2800 C   0  0  0  0  0  0  0  0  0  0  0  0
   24.5788  -19.6057  -11.8444 O   0  0  0  0  0  0  0  0  0  0  0  0
   23.1784  -21.2315  -12.6382 N   0  0  0  0  0  0  0  0  0  0  0  0
   21.9673  -20.3832  -12.5015 C   0  0  1  0  0  0  0  0  0  0  0  0
   22.1902  -19.2578  -13.4679 C   0  0  0  0  0  0  0  0  0  0  0  0
   22.3747  -19.6070  -14.8731 C   0  0  0  0  0  0  0  0  0  0  0  0
   21.6174  -20.5737  -15.5356 C   0  0  0  0  0  0  0  0  0  0  0  0
   22.0744  -20.6643  -16.7917 N   0  0  0  0  0  0  0  0  0  0  0  0
   23.0792  -19.8036  -16.9514 C   0  0  0  0  0  0  0  0  0  0  0  0
   23.8833  -19.4804  -18.0326 C   0  0  0  0  0  0  0  0  0  0  0  0
   24.8687  -18.5264  -17.9778 C   0  0  0  0  0  0  0  0  0  0  0  0
   25.0497  -17.8683  -16.7746 C   0  0  0  0  0  0  0  0  0  0  0  0
   24.2862  -18.1494  -15.6819 C   0  0  0  0  0  0  0  0  0  0  0  0
   23.2980  -19.1194  -15.7663 C   0  0  0  0  0  0  0  0  0  0  0  0
   20.7651  -21.1450  -12.8291 C   0  0  0  0  0  0  0  0  0  0  0  0
   20.9224  -22.3413  -13.2621 O   0  0  0  0  0  0  0  0  0  0  0  0
   19.4713  -20.7243  -12.7203 O   0  0  0  0  0  0  0  0  0  0  0  0
  2  1  1  6
  3  2  1  0
  4  3  1  0
  5  2  1  0
  6  5  2  0
  7  5  1  0
  8  7  1  0
  8  9  1  1
 10  9  1  0
 11 10  2  0
 12 11  1  0
 13 12  2  0
 13 14  1  0
 14 15  2  0
 15 10  1  0
 16 18  1  0
 16  8  1  0
 17 16  2  0
 19 18  1  0
 19 30  1  0
 19 20  1  6
 21 22  2  0
 21 20  1  0
 23 22  1  0
 24 29  2  0
 24 23  1  0
 25 24  1  0
 26 27  1  0
 26 25  2  0
 27 28  2  0
 28 29  1  0
 29 21  1  0
 30 32  1  0
 31 30  2  0
M  END
$$$$
