CFW.pdb
     RDKit          3D

 32 34  0  0  1  0  0  0  0  0999 V2000
   28.8156  -19.7895  -15.7114 N   0  0  0  0  0  0  0  0  0  0  0  0
   28.3603  -19.2796  -14.4531 C   0  0  1  0  0  0  0  0  0  0  0  0
   27.9413  -17.8336  -14.5635 C   0  0  0  0  0  0  0  0  0  0  0  0
   27.5253  -17.2446  -12.8927 S   0  0  0  0  0  0  0  0  0  0  0  0
   27.3076  -20.1492  -13.9159 C   0  0  0  0  0  0  0  0  0  0  0  0
   26.4993  -20.6992  -14.7016 O   0  0  0  0  0  0  0  0  0  0  0  0
   27.1404  -20.4152  -12.5249 N   0  0  0  0  0  0  0  0  0  0  0  0
   26.1934  -21.4117  -12.0306 C   0  0  1  0  0  0  0  0  0  0  0  0
   26.7169  -22.1316  -10.8290 C   0  0  0  0  0  0  0  0  0  0  0  0
   26.9134  -21.2247   -9.6632 C   0  0  0  0  0  0  0  0  0  0  0  0
   28.1888  -20.8991   -9.2418 C   0  0  0  0  0  0  0  0  0  0  0  0
   28.4075  -20.0614   -8.1675 C   0  0  0  0  0  0  0  0  0  0  0  0
   27.3587  -19.5089   -7.4626 C   0  0  0  0  0  0  0  0  0  0  0  0
   26.0822  -19.8294   -7.8773 C   0  0  0  0  0  0  0  0  0  0  0  0
   25.8699  -20.6685   -8.9536 C   0  0  0  0  0  0  0  0  0  0  0  0
   24.8912  -20.7371  -11.7606 C   0  0  0  0  0  0  0  0  0  0  0  0
   24.8850  -19.6197  -11.1746 O   0  0  0  0  0  0  0  0  0  0  0  0
   23.6628  -21.2988  -12.1344 N   0  0  0  0  0  0  0  0  0  0  0  0
   22.5139  -20.4762  -12.5906 C   0  0  1  0  0  0  0  0  0  0  0  0
   23.0731  -19.6404  -13.7036 C   0  0  0  0  0  0  0  0  0  0  0  0
   22.2638  -18.5198  -14.1726 C   0  0  0  0  0  0  0  0  0  0  0  0
   21.3211  -17.8622  -13.3816 C   0  0  0  0  0  0  0  0  0  0  0  0
   20.7402  -16.9179  -14.1337 N   0  0  0  0  0  0  0  0  0  0  0  0
   21.2707  -16.9488  -15.3558 C   0  0  0  0  0  0  0  0  0  0  0  0
   21.0538  -16.1964  -16.4990 C   0  0  0  0  0  0  0  0  0  0  0  0
   21.7429  -16.3926  -17.6698 C   0  0  0  0  0  0  0  0  0  0  0  0
   22.6953  -17.3956  -17.6861 C   0  0  0  0  0  0  0  0  0  0  0  0
   22.9460  -18.1639  -16.5894 C   0  0  0  0  0  0  0  0  0  0  0  0
   22.2334  -17.9435  -15.4197 C   0  0  0  0  0  0  0  0  0  0  0  0
   21.4215  -21.3283  -13.0528 C   0  0  0  0  0  0  0  0  0  0  0  0
   21.7302  -22.3649  -13.7409 O   0  0  0  0  0  0  0  0  0  0  0  0
   20.0875  -21.1476  -12.8278 O   0  0  0  0  0  0  0  0  0  0  0  0
  2  1  1  6
  3  2  1  0
  4  3  1  0
  5  2  1  0
  6  5  2  0
  7  5  1  0
  8  7  1  0
  8  9  1  1
 10  9  1  0
 11 10  2  0
 12 11  1  0
 13 12  2  0
 13 14  1  0
 14 15  2  0
 15 10  1  0
 16 18  1  0
 16  8  1  0
 17 16  2  0
 19 18  1  0
 19 30  1  0
 19 20  1  6
 21 22  2  0
 21 20  1  0
 23 22  1  0
 24 29  2  0
 24 23  1  0
 25 24  1  0
 26 27  1  0
 26 25  2  0
 27 28  2  0
 28 29  1  0
 29 21  1  0
 30 32  1  0
 31 30  2  0
M  END
$$$$
