CFW.pdb
     RDKit          3D

 32 34  0  0  1  0  0  0  0  0999 V2000
   27.6670  -21.2716  -18.5646 N   0  0  0  0  0  0  0  0  0  0  0  0
   27.3375  -20.1634  -17.7196 C   0  0  1  0  0  0  0  0  0  0  0  0
   26.4177  -19.1919  -18.4185 C   0  0  0  0  0  0  0  0  0  0  0  0
   27.3510  -18.4184  -19.7758 S   0  0  0  0  0  0  0  0  0  0  0  0
   26.8031  -20.6527  -16.4437 C   0  0  0  0  0  0  0  0  0  0  0  0
   25.9729  -21.5930  -16.4410 O   0  0  0  0  0  0  0  0  0  0  0  0
   27.1756  -20.1151  -15.1765 N   0  0  0  0  0  0  0  0  0  0  0  0
   26.5017  -20.4993  -13.9386 C   0  0  1  0  0  0  0  0  0  0  0  0
   27.2795  -20.0891  -12.7291 C   0  0  0  0  0  0  0  0  0  0  0  0
   26.5468  -20.3644  -11.4612 C   0  0  0  0  0  0  0  0  0  0  0  0
   26.0253  -19.3221  -10.7183 C   0  0  0  0  0  0  0  0  0  0  0  0
   25.3401  -19.5406   -9.5408 C   0  0  0  0  0  0  0  0  0  0  0  0
   25.1440  -20.8143   -9.0498 C   0  0  0  0  0  0  0  0  0  0  0  0
   25.6620  -21.8603   -9.7859 C   0  0  0  0  0  0  0  0  0  0  0  0
   26.3469  -21.6350  -10.9640 C   0  0  0  0  0  0  0  0  0  0  0  0
   25.1267  -19.9222  -13.9470 C   0  0  0  0  0  0  0  0  0  0  0  0
   24.9780  -18.6850  -14.1447 O   0  0  0  0  0  0  0  0  0  0  0  0
   23.9825  -20.7051  -13.7423 N   0  0  0  0  0  0  0  0  0  0  0  0
   22.6136  -20.1299  -13.7232 C   0  0  1  0  0  0  0  0  0  0  0  0
   22.4347  -19.5493  -15.0947 C   0  0  0  0  0  0  0  0  0  0  0  0
   21.1317  -18.9745  -15.4148 C   0  0  0  0  0  0  0  0  0  0  0  0
   20.4407  -18.1058  -14.5691 C   0  0  0  0  0  0  0  0  0  0  0  0
   19.2729  -17.8058  -15.1531 N   0  0  0  0  0  0  0  0  0  0  0  0
   19.1961  -18.4411  -16.3221 C   0  0  0  0  0  0  0  0  0  0  0  0
   18.2340  -18.4722  -17.3188 C   0  0  0  0  0  0  0  0  0  0  0  0
   18.3736  -19.1973  -18.4758 C   0  0  0  0  0  0  0  0  0  0  0  0
   19.5396  -19.9249  -18.6330 C   0  0  0  0  0  0  0  0  0  0  0  0
   20.5157  -19.9285  -17.6826 C   0  0  0  0  0  0  0  0  0  0  0  0
   20.3469  -19.1866  -16.5226 C   0  0  0  0  0  0  0  0  0  0  0  0
   21.6233  -21.1661  -13.4429 C   0  0  0  0  0  0  0  0  0  0  0  0
   21.8993  -22.3630  -13.8100 O   0  0  0  0  0  0  0  0  0  0  0  0
   20.4197  -21.0047  -12.8200 O   0  0  0  0  0  0  0  0  0  0  0  0
  2  1  1  6
  3  2  1  0
  4  3  1  0
  5  2  1  0
  6  5  2  0
  7  5  1  0
  8  7  1  0
  8  9  1  1
 10  9  1  0
 11 10  2  0
 12 11  1  0
 13 12  2  0
 13 14  1  0
 14 15  2  0
 15 10  1  0
 16 18  1  0
 16  8  1  0
 17 16  2  0
 19 18  1  0
 19 30  1  0
 19 20  1  6
 21 22  2  0
 21 20  1  0
 23 22  1  0
 24 29  2  0
 24 23  1  0
 25 24  1  0
 26 27  1  0
 26 25  2  0
 27 28  2  0
 28 29  1  0
 29 21  1  0
 30 32  1  0
 31 30  2  0
M  END
$$$$
