CFW.pdb
     RDKit          3D

 32 34  0  0  1  0  0  0  0  0999 V2000
   25.6279  -24.4832  -14.7458 N   0  0  0  0  0  0  0  0  0  0  0  0
   24.6157  -23.8654  -15.5486 C   0  0  1  0  0  0  0  0  0  0  0  0
   23.8625  -24.8858  -16.3672 C   0  0  0  0  0  0  0  0  0  0  0  0
   22.6800  -23.9912  -17.4222 S   0  0  0  0  0  0  0  0  0  0  0  0
   23.7438  -23.0425  -14.7027 C   0  0  0  0  0  0  0  0  0  0  0  0
   23.1502  -23.5680  -13.7307 O   0  0  0  0  0  0  0  0  0  0  0  0
   23.5226  -21.6506  -14.9199 N   0  0  0  0  0  0  0  0  0  0  0  0
   22.6496  -20.8566  -14.0586 C   0  0  1  0  0  0  0  0  0  0  0  0
   23.3965  -19.7648  -13.3612 C   0  0  0  0  0  0  0  0  0  0  0  0
   24.1836  -20.2660  -12.1995 C   0  0  0  0  0  0  0  0  0  0  0  0
   25.4440  -20.7996  -12.3910 C   0  0  0  0  0  0  0  0  0  0  0  0
   26.2010  -21.2714  -11.3383 C   0  0  0  0  0  0  0  0  0  0  0  0
   25.7319  -21.2317  -10.0420 C   0  0  0  0  0  0  0  0  0  0  0  0
   24.4741  -20.7004   -9.8428 C   0  0  0  0  0  0  0  0  0  0  0  0
   23.7213  -20.2296  -10.9008 C   0  0  0  0  0  0  0  0  0  0  0  0
   21.5209  -20.3321  -14.8797 C   0  0  0  0  0  0  0  0  0  0  0  0
   21.7214  -19.3538  -15.6509 O   0  0  0  0  0  0  0  0  0  0  0  0
   20.2346  -20.8862  -14.8293 N   0  0  0  0  0  0  0  0  0  0  0  0
   19.0837  -20.3026  -15.5639 C   0  0  1  0  0  0  0  0  0  0  0  0
   18.7271  -21.3427  -16.5842 C   0  0  0  0  0  0  0  0  0  0  0  0
   18.3623  -22.6676  -16.0920 C   0  0  0  0  0  0  0  0  0  0  0  0
   17.5717  -22.8823  -14.9625 C   0  0  0  0  0  0  0  0  0  0  0  0
   17.4689  -24.2052  -14.7780 N   0  0  0  0  0  0  0  0  0  0  0  0
   18.1539  -24.8316  -15.7343 C   0  0  0  0  0  0  0  0  0  0  0  0
   18.3645  -26.1704  -16.0229 C   0  0  0  0  0  0  0  0  0  0  0  0
   19.1062  -26.6004  -17.0947 C   0  0  0  0  0  0  0  0  0  0  0  0
   19.6608  -25.6328  -17.9130 C   0  0  0  0  0  0  0  0  0  0  0  0
   19.4842  -24.3035  -17.6723 C   0  0  0  0  0  0  0  0  0  0  0  0
   18.7302  -23.8979  -16.5808 C   0  0  0  0  0  0  0  0  0  0  0  0
   17.9728  -20.0370  -14.6537 C   0  0  0  0  0  0  0  0  0  0  0  0
   16.9099  -19.5219  -15.1520 O   0  0  0  0  0  0  0  0  0  0  0  0
   17.9338  -20.2832  -13.3119 O   0  0  0  0  0  0  0  0  0  0  0  0
  2  1  1  1
  3  2  1  0
  4  3  1  0
  5  2  1  0
  6  5  2  0
  7  5  1  0
  8  7  1  0
  8  9  1  6
 10  9  1  0
 11 10  2  0
 12 11  1  0
 13 12  2  0
 13 14  1  0
 14 15  2  0
 15 10  1  0
 16 18  1  0
 16  8  1  0
 17 16  2  0
 19 18  1  0
 19 30  1  0
 19 20  1  6
 21 22  2  0
 21 20  1  0
 23 22  1  0
 24 29  2  0
 24 23  1  0
 25 24  1  0
 26 27  1  0
 26 25  2  0
 27 28  2  0
 28 29  1  0
 29 21  1  0
 30 32  1  0
 31 30  2  0
M  END
$$$$
