CFW.pdb
     RDKit          3D

 32 34  0  0  1  0  0  0  0  0999 V2000
   27.7674  -21.6190  -13.7124 N   0  0  0  0  0  0  0  0  0  0  0  0
   27.9467  -20.4660  -12.8824 C   0  0  1  0  0  0  0  0  0  0  0  0
   27.0996  -19.3095  -13.3552 C   0  0  0  0  0  0  0  0  0  0  0  0
   27.9017  -18.5947  -14.8239 S   0  0  0  0  0  0  0  0  0  0  0  0
   27.7106  -20.8223  -11.4788 C   0  0  0  0  0  0  0  0  0  0  0  0
   26.8194  -21.6578  -11.1945 O   0  0  0  0  0  0  0  0  0  0  0  0
   28.4465  -20.2663  -10.3912 N   0  0  0  0  0  0  0  0  0  0  0  0
   28.0711  -20.4957   -8.9982 C   0  0  1  0  0  0  0  0  0  0  0  0
   29.0823  -19.9377   -8.0483 C   0  0  0  0  0  0  0  0  0  0  0  0
   28.6616  -20.0730   -6.6253 C   0  0  0  0  0  0  0  0  0  0  0  0
   28.0976  -19.0002   -5.9611 C   0  0  0  0  0  0  0  0  0  0  0  0
   27.6954  -19.0906   -4.6444 C   0  0  0  0  0  0  0  0  0  0  0  0
   27.8386  -20.2607   -3.9286 C   0  0  0  0  0  0  0  0  0  0  0  0
   28.4011  -21.3364   -4.5848 C   0  0  0  0  0  0  0  0  0  0  0  0
   28.8018  -21.2395   -5.9031 C   0  0  0  0  0  0  0  0  0  0  0  0
   26.7114  -19.9268   -8.7724 C   0  0  0  0  0  0  0  0  0  0  0  0
   26.4233  -18.8021   -9.2663 O   0  0  0  0  0  0  0  0  0  0  0  0
   25.7315  -20.5964   -8.0269 N   0  0  0  0  0  0  0  0  0  0  0  0
   24.2781  -20.3767   -8.2377 C   0  0  1  0  0  0  0  0  0  0  0  0
   24.0400  -20.7986   -9.6574 C   0  0  0  0  0  0  0  0  0  0  0  0
   22.9309  -20.1685  -10.3672 C   0  0  0  0  0  0  0  0  0  0  0  0
   21.9771  -19.3593   -9.7489 C   0  0  0  0  0  0  0  0  0  0  0  0
   21.0906  -18.9835  -10.6804 N   0  0  0  0  0  0  0  0  0  0  0  0
   21.4398  -19.5150  -11.8516 C   0  0  0  0  0  0  0  0  0  0  0  0
   20.8951  -19.4387  -13.1234 C   0  0  0  0  0  0  0  0  0  0  0  0
   21.4431  -20.0657  -14.2145 C   0  0  0  0  0  0  0  0  0  0  0  0
   22.5950  -20.8041  -14.0111 C   0  0  0  0  0  0  0  0  0  0  0  0
   23.1696  -20.9113  -12.7804 C   0  0  0  0  0  0  0  0  0  0  0  0
   22.5931  -20.2672  -11.6954 C   0  0  0  0  0  0  0  0  0  0  0  0
   23.4949  -21.1758   -7.2991 C   0  0  0  0  0  0  0  0  0  0  0  0
   24.0527  -22.2156   -6.7983 O   0  0  0  0  0  0  0  0  0  0  0  0
   22.2175  -20.9355   -6.8829 O   0  0  0  0  0  0  0  0  0  0  0  0
  2  1  1  6
  3  2  1  0
  4  3  1  0
  5  2  1  0
  6  5  2  0
  7  5  1  0
  8  7  1  0
  8  9  1  1
 10  9  1  0
 11 10  2  0
 12 11  1  0
 13 12  2  0
 13 14  1  0
 14 15  2  0
 15 10  1  0
 16 18  1  0
 16  8  1  0
 17 16  2  0
 19 18  1  0
 19 30  1  0
 19 20  1  6
 21 22  2  0
 21 20  1  0
 23 22  1  0
 24 29  2  0
 24 23  1  0
 25 24  1  0
 26 27  1  0
 26 25  2  0
 27 28  2  0
 28 29  1  0
 29 21  1  0
 30 32  1  0
 31 30  2  0
M  END
$$$$
