CFW.pdb
     RDKit          3D

 32 34  0  0  1  0  0  0  0  0999 V2000
   26.4132  -22.4790  -17.5769 N   0  0  0  0  0  0  0  0  0  0  0  0
   25.9930  -21.5158  -16.6042 C   0  0  1  0  0  0  0  0  0  0  0  0
   24.4880  -21.4435  -16.5146 C   0  0  0  0  0  0  0  0  0  0  0  0
   23.8904  -20.4799  -17.9380 S   0  0  0  0  0  0  0  0  0  0  0  0
   26.6380  -21.7960  -15.3163 C   0  0  0  0  0  0  0  0  0  0  0  0
   26.6464  -22.9686  -14.8713 O   0  0  0  0  0  0  0  0  0  0  0  0
   27.2706  -20.7970  -14.5192 N   0  0  0  0  0  0  0  0  0  0  0  0
   27.8851  -21.1029  -13.2296 C   0  0  1  0  0  0  0  0  0  0  0  0
   29.0767  -20.2405  -12.9605 C   0  0  0  0  0  0  0  0  0  0  0  0
   29.7541  -20.5895  -11.6800 C   0  0  0  0  0  0  0  0  0  0  0  0
   30.5273  -21.7315  -11.5903 C   0  0  0  0  0  0  0  0  0  0  0  0
   31.1697  -22.0842  -10.4213 C   0  0  0  0  0  0  0  0  0  0  0  0
   31.0688  -21.3097   -9.2847 C   0  0  0  0  0  0  0  0  0  0  0  0
   30.2984  -20.1678   -9.3663 C   0  0  0  0  0  0  0  0  0  0  0  0
   29.6578  -19.8202  -10.5395 C   0  0  0  0  0  0  0  0  0  0  0  0
   26.8469  -20.9776  -12.1666 C   0  0  0  0  0  0  0  0  0  0  0  0
   25.8969  -20.1626  -12.3250 O   0  0  0  0  0  0  0  0  0  0  0  0
   26.8837  -21.7350  -10.9880 N   0  0  0  0  0  0  0  0  0  0  0  0
   25.8338  -21.6377   -9.9425 C   0  0  1  0  0  0  0  0  0  0  0  0
   26.5795  -21.7936   -8.6504 C   0  0  0  0  0  0  0  0  0  0  0  0
   26.9038  -20.5768   -7.9122 C   0  0  0  0  0  0  0  0  0  0  0  0
   26.4321  -19.3111   -8.2621 C   0  0  0  0  0  0  0  0  0  0  0  0
   26.9515  -18.4261   -7.4008 N   0  0  0  0  0  0  0  0  0  0  0  0
   27.7243  -19.0719   -6.5279 C   0  0  0  0  0  0  0  0  0  0  0  0
   28.4725  -18.6540   -5.4391 C   0  0  0  0  0  0  0  0  0  0  0  0
   29.1946  -19.5134   -4.6491 C   0  0  0  0  0  0  0  0  0  0  0  0
   29.1588  -20.8574   -4.9744 C   0  0  0  0  0  0  0  0  0  0  0  0
   28.4393  -21.3192   -6.0351 C   0  0  0  0  0  0  0  0  0  0  0  0
   27.7196  -20.4272   -6.8166 C   0  0  0  0  0  0  0  0  0  0  0  0
   25.1493  -20.3497  -10.0181 C   0  0  0  0  0  0  0  0  0  0  0  0
   23.9963  -20.2592   -9.4652 O   0  0  0  0  0  0  0  0  0  0  0  0
   25.6063  -19.2108  -10.6152 O   0  0  0  0  0  0  0  0  0  0  0  0
  2  1  1  6
  3  2  1  0
  4  3  1  0
  5  2  1  0
  6  5  2  0
  7  5  1  0
  8  7  1  0
  8  9  1  1
 10  9  1  0
 11 10  2  0
 12 11  1  0
 13 12  2  0
 13 14  1  0
 14 15  2  0
 15 10  1  0
 16 18  1  0
 16  8  1  0
 17 16  2  0
 19 18  1  0
 19 30  1  0
 19 20  1  1
 21 22  2  0
 21 20  1  0
 23 22  1  0
 24 29  2  0
 24 23  1  0
 25 24  1  0
 26 27  1  0
 26 25  2  0
 27 28  2  0
 28 29  1  0
 29 21  1  0
 30 32  1  0
 31 30  2  0
M  END
$$$$
