NMS.pdb
     RDKit          3D

 23 22  0  0  1  0  0  0  0  0999 V2000
   10.0034  -17.0400   18.1552 N   0  0  0  0  0  0  0  0  0  0  0  0
    9.0477  -16.5711   19.0819 C   0  0  0  0  0  0  0  0  0  0  0  0
    7.8372  -16.8247   18.9054 O   0  0  0  0  0  0  0  0  0  0  0  0
    9.4846  -15.7875   20.2483 C   0  0  0  0  0  0  0  0  0  0  0  0
    9.3147  -16.6061   21.5022 C   0  0  2  0  0  0  0  0  0  0  0  0
    7.9735  -17.1306   21.5743 N   0  0  0  0  0  0  0  0  0  0  0  0
    9.6385  -15.7738   22.6909 C   0  0  0  0  0  0  0  0  0  0  0  0
   10.8257  -15.3823   22.8291 O   0  0  0  0  0  0  0  0  0  0  0  0
    5.8544  -11.5911   25.2165 C   0  0  0  0  0  0  0  0  0  0  0  0
    6.6184  -11.9194   26.8304 S   0  0  0  0  0  0  0  0  0  0  0  0
    7.9019  -13.1603   26.5410 C   0  0  0  0  0  0  0  0  0  0  0  0
    7.7270  -13.9115   25.2749 C   0  0  0  0  0  0  0  0  0  0  0  0
    8.9336  -14.6966   24.8333 C   0  0  2  0  0  0  0  0  0  0  0  0
    8.6439  -15.4413   23.6229 N   0  0  0  0  0  0  0  0  0  0  0  0
    9.4082  -15.6444   25.8780 C   0  0  0  0  0  0  0  0  0  0  0  0
    9.5672  -15.2442   27.0618 O   0  0  0  0  0  0  0  0  0  0  0  0
    9.6433  -20.1422   26.3117 O   0  0  0  0  0  0  0  0  0  0  0  0
    9.1349  -18.9852   26.9151 C   0  0  0  0  0  0  0  0  0  0  0  0
   10.1199  -17.8750   26.6332 C   0  0  2  0  0  0  0  0  0  0  0  0
    9.6922  -17.0049   25.5814 N   0  0  0  0  0  0  0  0  0  0  0  0
   11.4532  -18.4172   26.2604 C   0  0  0  0  0  0  0  0  0  0  0  0
   11.9869  -18.0338   25.0418 O   0  0  0  0  0  0  0  0  0  0  0  0
   12.1049  -19.1923   26.9868 O   0  0  0  0  0  0  0  0  0  0  0  0
  2  1  1  0
  2  3  2  0
  4  2  1  0
  5  4  1  0
  5  6  1  1
  7  5  1  0
  8  7  2  0
 10  9  1  0
 10 11  1  0
 11 12  1  0
 13 12  1  1
 13 14  1  0
 14  7  1  0
 15 13  1  0
 15 20  1  0
 16 15  2  0
 18 17  1  0
 19 18  1  6
 19 20  1  0
 19 21  1  0
 21 23  2  0
 21 22  1  0
M  END
$$$$
