NMS.pdb
     RDKit          3D

 23 22  0  0  1  0  0  0  0  0999 V2000
    6.9157  -13.3512   17.7324 N   0  0  0  0  0  0  0  0  0  0  0  0
    7.4197  -14.6221   18.0828 C   0  0  0  0  0  0  0  0  0  0  0  0
    7.3468  -15.5643   17.2656 O   0  0  0  0  0  0  0  0  0  0  0  0
    8.0270  -14.8272   19.4074 C   0  0  0  0  0  0  0  0  0  0  0  0
    7.8863  -13.5724   20.2301 C   0  0  2  0  0  0  0  0  0  0  0  0
    8.5548  -12.4739   19.5777 N   0  0  0  0  0  0  0  0  0  0  0  0
    8.4272  -13.8057   21.5953 C   0  0  0  0  0  0  0  0  0  0  0  0
    9.6753  -13.7741   21.7467 O   0  0  0  0  0  0  0  0  0  0  0  0
    6.9023  -11.7949   27.9001 C   0  0  0  0  0  0  0  0  0  0  0  0
    6.0951  -11.4249   26.3167 S   0  0  0  0  0  0  0  0  0  0  0  0
    7.1397  -12.1533   25.0324 C   0  0  0  0  0  0  0  0  0  0  0  0
    7.1298  -13.6358   25.0288 C   0  0  0  0  0  0  0  0  0  0  0  0
    8.0509  -14.2721   24.0217 C   0  0  2  0  0  0  0  0  0  0  0  0
    7.5639  -14.0525   22.6733 N   0  0  0  0  0  0  0  0  0  0  0  0
    8.2100  -15.7353   24.2423 C   0  0  0  0  0  0  0  0  0  0  0  0
    7.6679  -16.5511   23.4504 O   0  0  0  0  0  0  0  0  0  0  0  0
   11.6984  -18.1901   23.9432 O   0  0  0  0  0  0  0  0  0  0  0  0
   10.8153  -17.1035   23.9696 C   0  0  0  0  0  0  0  0  0  0  0  0
    9.8533  -17.3484   25.1084 C   0  0  2  0  0  0  0  0  0  0  0  0
    8.9635  -16.2508   25.3314 N   0  0  0  0  0  0  0  0  0  0  0  0
   10.5770  -17.6121   26.3801 C   0  0  0  0  0  0  0  0  0  0  0  0
   11.1951  -18.8423   26.5267 O   0  0  0  0  0  0  0  0  0  0  0  0
   10.6519  -16.7854   27.3098 O   0  0  0  0  0  0  0  0  0  0  0  0
  2  1  1  0
  2  3  2  0
  4  2  1  0
  5  4  1  0
  5  6  1  6
  7  5  1  0
  8  7  2  0
 10  9  1  0
 10 11  1  0
 11 12  1  0
 13 12  1  1
 13 14  1  0
 14  7  1  0
 15 13  1  0
 15 20  1  0
 16 15  2  0
 18 17  1  0
 19 18  1  6
 19 20  1  0
 19 21  1  0
 21 23  2  0
 21 22  1  0
M  END
$$$$
