NMS.pdb
     RDKit          3D

 23 22  0  0  1  0  0  0  0  0999 V2000
    7.8622  -15.2397   17.8087 N   0  0  0  0  0  0  0  0  0  0  0  0
    8.0212  -13.9197   18.2821 C   0  0  0  0  0  0  0  0  0  0  0  0
    7.9861  -12.9645   17.4776 O   0  0  0  0  0  0  0  0  0  0  0  0
    8.2272  -13.6789   19.7191 C   0  0  0  0  0  0  0  0  0  0  0  0
    8.2830  -14.9950   20.4513 C   0  0  2  0  0  0  0  0  0  0  0  0
    6.9851  -15.6230   20.4427 N   0  0  0  0  0  0  0  0  0  0  0  0
    8.7728  -14.7757   21.8380 C   0  0  0  0  0  0  0  0  0  0  0  0
    9.9702  -14.4224   21.9899 O   0  0  0  0  0  0  0  0  0  0  0  0
    6.3893  -10.5721   26.8412 C   0  0  0  0  0  0  0  0  0  0  0  0
    6.2207  -12.3780   26.7629 S   0  0  0  0  0  0  0  0  0  0  0  0
    7.2261  -12.9210   25.3610 C   0  0  0  0  0  0  0  0  0  0  0  0
    7.2972  -14.3948   25.2167 C   0  0  0  0  0  0  0  0  0  0  0  0
    8.3890  -14.8892   24.3051 C   0  0  2  0  0  0  0  0  0  0  0  0
    7.9180  -14.9599   22.9352 N   0  0  0  0  0  0  0  0  0  0  0  0
    8.9014  -16.2276   24.7063 C   0  0  0  0  0  0  0  0  0  0  0  0
    8.1913  -17.2516   24.5221 O   0  0  0  0  0  0  0  0  0  0  0  0
   11.9144  -17.8930   23.7728 O   0  0  0  0  0  0  0  0  0  0  0  0
   11.9659  -18.0693   25.1612 C   0  0  0  0  0  0  0  0  0  0  0  0
   10.6043  -17.6987   25.7007 C   0  0  2  0  0  0  0  0  0  0  0  0
   10.1827  -16.3922   25.2985 N   0  0  0  0  0  0  0  0  0  0  0  0
   10.5803  -17.7464   27.1865 C   0  0  0  0  0  0  0  0  0  0  0  0
   10.8964  -18.9477   27.7978 O   0  0  0  0  0  0  0  0  0  0  0  0
   10.2919  -16.7652   27.8988 O   0  0  0  0  0  0  0  0  0  0  0  0
  2  1  1  0
  2  3  2  0
  4  2  1  0
  5  4  1  0
  5  6  1  1
  7  5  1  0
  8  7  2  0
 10  9  1  0
 10 11  1  0
 11 12  1  0
 13 12  1  1
 13 14  1  0
 14  7  1  0
 15 13  1  0
 15 20  1  0
 16 15  2  0
 18 17  1  0
 19 18  1  1
 19 20  1  0
 19 21  1  0
 21 23  2  0
 21 22  1  0
M  END
$$$$
