NMS.pdb
     RDKit          3D

 23 22  0  0  1  0  0  0  0  0999 V2000
    8.1496  -17.0407   17.6781 N   0  0  0  0  0  0  0  0  0  0  0  0
    7.5033  -16.9972   18.9320 C   0  0  0  0  0  0  0  0  0  0  0  0
    6.2784  -17.2312   19.0062 O   0  0  0  0  0  0  0  0  0  0  0  0
    8.2772  -16.6765   20.1419 C   0  0  0  0  0  0  0  0  0  0  0  0
    7.8375  -15.3421   20.6868 C   0  0  2  0  0  0  0  0  0  0  0  0
    8.1662  -14.2926   19.7542 N   0  0  0  0  0  0  0  0  0  0  0  0
    8.4695  -15.1101   22.0126 C   0  0  0  0  0  0  0  0  0  0  0  0
    9.6398  -14.6503   22.0339 O   0  0  0  0  0  0  0  0  0  0  0  0
    6.6401  -10.5398   26.3488 C   0  0  0  0  0  0  0  0  0  0  0  0
    6.7222  -12.2993   26.7886 S   0  0  0  0  0  0  0  0  0  0  0  0
    7.1373  -13.1838   25.2666 C   0  0  0  0  0  0  0  0  0  0  0  0
    7.3927  -14.6298   25.4709 C   0  0  0  0  0  0  0  0  0  0  0  0
    8.3745  -15.2412   24.5067 C   0  0  2  0  0  0  0  0  0  0  0  0
    7.7734  -15.3983   23.1962 N   0  0  0  0  0  0  0  0  0  0  0  0
    8.8741  -16.5651   24.9676 C   0  0  0  0  0  0  0  0  0  0  0  0
    8.0924  -17.5522   25.0034 O   0  0  0  0  0  0  0  0  0  0  0  0
   12.8650  -17.4740   25.3688 O   0  0  0  0  0  0  0  0  0  0  0  0
   11.9332  -18.5005   25.1703 C   0  0  0  0  0  0  0  0  0  0  0  0
   10.6426  -18.0512   25.8143 C   0  0  2  0  0  0  0  0  0  0  0  0
   10.2222  -16.7564   25.3747 N   0  0  0  0  0  0  0  0  0  0  0  0
   10.7630  -18.0110   27.2956 C   0  0  0  0  0  0  0  0  0  0  0  0
   11.1913  -19.1599   27.9387 O   0  0  0  0  0  0  0  0  0  0  0  0
   10.4990  -17.0016   27.9772 O   0  0  0  0  0  0  0  0  0  0  0  0
  2  1  1  0
  2  3  2  0
  4  2  1  0
  5  4  1  0
  5  6  1  6
  7  5  1  0
  8  7  2  0
 10  9  1  0
 10 11  1  0
 11 12  1  0
 13 12  1  1
 13 14  1  0
 14  7  1  0
 15 13  1  0
 15 20  1  0
 16 15  2  0
 18 17  1  0
 19 18  1  6
 19 20  1  0
 19 21  1  0
 21 23  2  0
 21 22  1  0
M  END
$$$$
