HCL.pdb
     RDKit          3D

 25 25  0  0  1  0  0  0  0  0999 V2000
   21.3485  -12.2235  -17.8872 N   0  0  0  0  0  0  0  0  0  0  0  0
   21.9335  -10.9324  -18.1279 C   0  0  1  0  0  0  0  0  0  0  0  0
   21.7426  -10.6181  -19.5996 C   0  0  0  0  0  0  0  0  0  0  0  0
   22.6652  -11.4758  -20.3678 C   0  0  0  0  0  0  0  0  0  0  0  0
   23.7451  -11.0979  -21.1276 C   0  0  0  0  0  0  0  0  0  0  0  0
   24.3035  -12.2265  -21.6545 N   0  0  0  0  0  0  0  0  0  0  0  0
   23.5882  -13.2793  -21.2325 C   0  0  0  0  0  0  0  0  0  0  0  0
   22.5933  -12.8127  -20.4500 N   0  0  0  0  0  0  0  0  0  0  0  0
   21.2959   -9.9148  -17.2601 C   0  0  0  0  0  0  0  0  0  0  0  0
   20.0482   -9.9310  -17.1252 O   0  0  0  0  0  0  0  0  0  0  0  0
   22.0273   -8.9199  -16.5719 N   0  0  0  0  0  0  0  0  0  0  0  0
   21.3542   -7.9850  -15.7381 C   0  0  1  0  0  0  0  0  0  0  0  0
   21.9640   -7.9030  -14.3411 C   0  0  0  0  0  0  0  0  0  0  0  0
   21.7454   -9.4533  -13.4464 S   0  0  0  0  0  0  0  0  0  0  0  0
   21.2937   -6.6263  -16.3589 C   0  0  0  0  0  0  0  0  0  0  0  0
   22.1376   -6.2550  -17.2143 O   0  0  0  0  0  0  0  0  0  0  0  0
   20.3557   -3.8641  -20.5054 C   0  0  0  0  0  0  0  0  0  0  0  0
   20.0964   -3.5203  -19.0722 C   0  0  1  0  0  0  0  0  0  0  0  0
   18.6409   -3.0365  -18.9882 C   0  0  0  0  0  0  0  0  0  0  0  0
   20.2016   -4.6951  -18.1645 C   0  0  0  0  0  0  0  0  0  0  0  0
   20.1686   -4.3912  -16.6998 C   0  0  2  0  0  0  0  0  0  0  0  0
   20.2828   -5.6862  -16.0160 N   0  0  0  0  0  0  0  0  0  0  0  0
   18.9766   -3.6566  -16.2603 C   0  0  0  0  0  0  0  0  0  0  0  0
   17.8837   -4.2088  -15.9759 O   0  0  0  0  0  0  0  0  0  0  0  0
   19.0265   -2.2764  -16.1419 O   0  0  0  0  0  0  0  0  0  0  0  0
  2  1  1  6
  3  2  1  0
  3  4  1  0
  4  8  1  0
  5  4  2  0
  5  6  1  0
  6  7  1  0
  8  7  2  0
  9  2  1  0
  9 10  2  0
 11  9  1  0
 12 11  1  0
 12 15  1  0
 12 13  1  1
 14 13  1  0
 15 22  1  0
 16 15  2  0
 18 17  1  6
 18 19  1  0
 20 18  1  0
 21 20  1  6
 22 21  1  0
 23 25  1  0
 23 21  1  0
 24 23  2  0
M  END
$$$$
