HCL.pdb
     RDKit          3D

 25 25  0  0  1  0  0  0  0  0999 V2000
   27.9271  -20.3377  -15.6490 N   0  0  0  0  0  0  0  0  0  0  0  0
   27.2689  -19.7363  -14.5212 C   0  0  1  0  0  0  0  0  0  0  0  0
   26.4056  -18.6076  -15.0521 C   0  0  0  0  0  0  0  0  0  0  0  0
   27.3022  -17.5201  -15.4884 C   0  0  0  0  0  0  0  0  0  0  0  0
   27.6452  -16.3760  -14.8104 C   0  0  0  0  0  0  0  0  0  0  0  0
   28.4994  -15.6606  -15.5988 N   0  0  0  0  0  0  0  0  0  0  0  0
   28.6825  -16.3434  -16.7383 C   0  0  0  0  0  0  0  0  0  0  0  0
   27.9500  -17.4737  -16.6620 N   0  0  0  0  0  0  0  0  0  0  0  0
   26.4662  -20.7511  -13.7995 C   0  0  0  0  0  0  0  0  0  0  0  0
   25.9204  -21.6701  -14.4573 O   0  0  0  0  0  0  0  0  0  0  0  0
   26.2831  -20.7360  -12.3979 N   0  0  0  0  0  0  0  0  0  0  0  0
   25.1977  -21.4424  -11.8103 C   0  0  1  0  0  0  0  0  0  0  0  0
   25.3698  -21.6317  -10.3055 C   0  0  0  0  0  0  0  0  0  0  0  0
   25.8103  -20.0781   -9.5029 S   0  0  0  0  0  0  0  0  0  0  0  0
   23.8841  -20.7920  -12.1049 C   0  0  0  0  0  0  0  0  0  0  0  0
   23.7883  -19.5498  -12.2769 O   0  0  0  0  0  0  0  0  0  0  0  0
   21.8485  -20.9192  -16.4645 C   0  0  0  0  0  0  0  0  0  0  0  0
   21.7492  -21.4821  -15.0815 C   0  0  1  0  0  0  0  0  0  0  0  0
   23.0555  -22.2466  -14.8187 C   0  0  0  0  0  0  0  0  0  0  0  0
   21.6589  -20.4313  -14.0314 C   0  0  0  0  0  0  0  0  0  0  0  0
   21.4192  -20.9219  -12.6383 C   0  0  2  0  0  0  0  0  0  0  0  0
   22.6790  -21.5409  -12.2057 N   0  0  0  0  0  0  0  0  0  0  0  0
   20.2927  -21.8536  -12.5098 C   0  0  0  0  0  0  0  0  0  0  0  0
   20.4280  -23.0840  -12.2900 O   0  0  0  0  0  0  0  0  0  0  0  0
   18.9950  -21.3819  -12.6322 O   0  0  0  0  0  0  0  0  0  0  0  0
  2  1  1  6
  3  2  1  0
  3  4  1  0
  4  8  1  0
  5  4  2  0
  5  6  1  0
  6  7  1  0
  8  7  2  0
  9  2  1  0
  9 10  2  0
 11  9  1  0
 12 11  1  0
 12 15  1  0
 12 13  1  1
 14 13  1  0
 15 22  1  0
 16 15  2  0
 18 17  1  6
 18 19  1  0
 20 18  1  0
 21 20  1  6
 22 21  1  0
 23 25  1  0
 23 21  1  0
 24 23  2  0
M  END
$$$$
