HCL.pdb
     RDKit          3D

 25 25  0  0  1  0  0  0  0  0999 V2000
   18.8049  -14.4945  -19.4903 N   0  0  0  0  0  0  0  0  0  0  0  0
   18.6855  -13.7298  -18.2787 C   0  0  1  0  0  0  0  0  0  0  0  0
   19.0899  -14.6363  -17.1316 C   0  0  0  0  0  0  0  0  0  0  0  0
   18.0436  -15.6654  -16.9789 C   0  0  0  0  0  0  0  0  0  0  0  0
   16.7490  -15.5057  -16.5489 C   0  0  0  0  0  0  0  0  0  0  0  0
   16.1464  -16.7303  -16.5669 N   0  0  0  0  0  0  0  0  0  0  0  0
   17.0443  -17.6284  -16.9975 C   0  0  0  0  0  0  0  0  0  0  0  0
   18.1959  -16.9710  -17.2457 N   0  0  0  0  0  0  0  0  0  0  0  0
   19.5393  -12.5213  -18.3531 C   0  0  0  0  0  0  0  0  0  0  0  0
   20.3967  -12.4418  -19.2663 O   0  0  0  0  0  0  0  0  0  0  0  0
   19.4361  -11.4462  -17.4410 N   0  0  0  0  0  0  0  0  0  0  0  0
   20.1966  -10.2615  -17.6423 C   0  0  1  0  0  0  0  0  0  0  0  0
   19.9065   -9.6024  -18.9882 C   0  0  0  0  0  0  0  0  0  0  0  0
   18.1321   -9.5119  -19.2965 S   0  0  0  0  0  0  0  0  0  0  0  0
   20.0044   -9.2798  -16.5312 C   0  0  0  0  0  0  0  0  0  0  0  0
   18.8683   -9.0536  -16.0415 O   0  0  0  0  0  0  0  0  0  0  0  0
   22.9552   -9.7132  -12.2956 C   0  0  0  0  0  0  0  0  0  0  0  0
   21.8034   -9.3508  -13.1796 C   0  0  1  0  0  0  0  0  0  0  0  0
   20.5686   -9.2325  -12.2734 C   0  0  0  0  0  0  0  0  0  0  0  0
   21.9700   -8.0262  -13.8375 C   0  0  0  0  0  0  0  0  0  0  0  0
   20.9108   -7.6524  -14.8260 C   0  0  2  0  0  0  0  0  0  0  0  0
   21.0919   -8.5531  -15.9721 N   0  0  0  0  0  0  0  0  0  0  0  0
   20.9391   -6.2451  -15.2410 C   0  0  0  0  0  0  0  0  0  0  0  0
   21.4318   -5.8491  -16.3276 O   0  0  0  0  0  0  0  0  0  0  0  0
   20.4004   -5.2743  -14.4110 O   0  0  0  0  0  0  0  0  0  0  0  0
  2  1  1  6
  3  2  1  0
  3  4  1  0
  4  8  1  0
  5  4  2  0
  5  6  1  0
  6  7  1  0
  8  7  2  0
  9  2  1  0
  9 10  2  0
 11  9  1  0
 12 11  1  0
 12 15  1  0
 12 13  1  6
 14 13  1  0
 15 22  1  0
 16 15  2  0
 18 17  1  1
 18 19  1  0
 20 18  1  0
 21 20  1  1
 22 21  1  0
 23 25  1  0
 23 21  1  0
 24 23  2  0
M  END
$$$$
