HCL.pdb
     RDKit          3D

 25 25  0  0  1  0  0  0  0  0999 V2000
   26.3531  -20.9594  -17.5449 N   0  0  0  0  0  0  0  0  0  0  0  0
   26.5006  -19.9896  -16.4939 C   0  0  1  0  0  0  0  0  0  0  0  0
   25.1690  -19.2778  -16.3470 C   0  0  0  0  0  0  0  0  0  0  0  0
   25.0040  -18.3843  -17.5094 C   0  0  0  0  0  0  0  0  0  0  0  0
   23.9230  -18.2707  -18.3490 C   0  0  0  0  0  0  0  0  0  0  0  0
   24.2147  -17.3188  -19.2828 N   0  0  0  0  0  0  0  0  0  0  0  0
   25.4462  -16.8527  -19.0296 C   0  0  0  0  0  0  0  0  0  0  0  0
   25.9187  -17.5070  -17.9486 N   0  0  0  0  0  0  0  0  0  0  0  0
   26.9090  -20.6591  -15.2370 C   0  0  0  0  0  0  0  0  0  0  0  0
   26.2489  -21.6488  -14.8368 O   0  0  0  0  0  0  0  0  0  0  0  0
   28.0121  -20.2363  -14.4606 N   0  0  0  0  0  0  0  0  0  0  0  0
   28.2058  -20.7547  -13.1506 C   0  0  1  0  0  0  0  0  0  0  0  0
   29.6327  -20.5528  -12.6473 C   0  0  0  0  0  0  0  0  0  0  0  0
   29.8203  -21.1728  -10.9644 S   0  0  0  0  0  0  0  0  0  0  0  0
   27.2259  -20.1862  -12.1750 C   0  0  0  0  0  0  0  0  0  0  0  0
   27.0800  -18.9447  -12.0359 O   0  0  0  0  0  0  0  0  0  0  0  0
   22.3862  -21.7832  -12.0854 C   0  0  0  0  0  0  0  0  0  0  0  0
   23.6567  -21.0118  -11.9121 C   0  0  1  0  0  0  0  0  0  0  0  0
   23.3189  -19.5360  -12.1724 C   0  0  0  0  0  0  0  0  0  0  0  0
   24.1945  -21.0815  -10.5261 C   0  0  0  0  0  0  0  0  0  0  0  0
   25.5375  -20.4560  -10.3166 C   0  0  2  0  0  0  0  0  0  0  0  0
   26.4106  -21.0160  -11.3565 N   0  0  0  0  0  0  0  0  0  0  0  0
   26.0995  -20.6627   -8.9768 C   0  0  0  0  0  0  0  0  0  0  0  0
   27.0454  -21.4540   -8.7327 O   0  0  0  0  0  0  0  0  0  0  0  0
   25.5807  -19.9612   -7.8996 O   0  0  0  0  0  0  0  0  0  0  0  0
  2  1  1  6
  3  2  1  0
  3  4  1  0
  4  8  1  0
  5  4  2  0
  5  6  1  0
  6  7  1  0
  8  7  2  0
  9  2  1  0
  9 10  2  0
 11  9  1  0
 12 11  1  0
 12 15  1  0
 12 13  1  1
 14 13  1  0
 15 22  1  0
 16 15  2  0
 18 17  1  1
 18 19  1  0
 20 18  1  0
 21 20  1  1
 22 21  1  0
 23 25  1  0
 23 21  1  0
 24 23  2  0
M  END
$$$$
