HCL.pdb
     RDKit          3D

 25 25  0  0  1  0  0  0  0  0999 V2000
   27.5281  -21.9809  -16.2005 N   0  0  0  0  0  0  0  0  0  0  0  0
   27.2716  -20.8742  -15.3194 C   0  0  1  0  0  0  0  0  0  0  0  0
   26.7041  -19.7483  -16.1629 C   0  0  0  0  0  0  0  0  0  0  0  0
   27.8302  -19.0863  -16.8489 C   0  0  0  0  0  0  0  0  0  0  0  0
   28.2461  -19.2435  -18.1484 C   0  0  0  0  0  0  0  0  0  0  0  0
   29.3259  -18.4321  -18.3448 N   0  0  0  0  0  0  0  0  0  0  0  0
   29.5746  -17.7869  -17.1959 C   0  0  0  0  0  0  0  0  0  0  0  0
   28.6592  -18.1915  -16.2913 N   0  0  0  0  0  0  0  0  0  0  0  0
   26.3359  -21.2840  -14.2463 C   0  0  0  0  0  0  0  0  0  0  0  0
   25.4493  -22.1328  -14.5086 O   0  0  0  0  0  0  0  0  0  0  0  0
   26.3921  -20.7637  -12.9331 N   0  0  0  0  0  0  0  0  0  0  0  0
   25.4028  -21.1247  -11.9774 C   0  0  1  0  0  0  0  0  0  0  0  0
   25.8624  -20.8848  -10.5416 C   0  0  0  0  0  0  0  0  0  0  0  0
   24.4757  -20.9808   -9.3927 S   0  0  0  0  0  0  0  0  0  0  0  0
   24.1035  -20.4296  -12.2296 C   0  0  0  0  0  0  0  0  0  0  0  0
   24.0120  -19.1754  -12.2053 O   0  0  0  0  0  0  0  0  0  0  0  0
   20.6396  -20.7281  -16.4425 C   0  0  0  0  0  0  0  0  0  0  0  0
   20.6555  -21.0605  -14.9835 C   0  0  1  0  0  0  0  0  0  0  0  0
   21.2223  -22.4828  -14.8586 C   0  0  0  0  0  0  0  0  0  0  0  0
   21.5588  -20.1777  -14.1962 C   0  0  0  0  0  0  0  0  0  0  0  0
   21.6280  -20.4599  -12.7285 C   0  0  2  0  0  0  0  0  0  0  0  0
   22.9075  -21.1472  -12.5091 N   0  0  0  0  0  0  0  0  0  0  0  0
   20.5023  -21.2451  -12.2089 C   0  0  0  0  0  0  0  0  0  0  0  0
   20.5447  -22.4885  -12.0286 O   0  0  0  0  0  0  0  0  0  0  0  0
   19.3125  -20.6097  -11.8894 O   0  0  0  0  0  0  0  0  0  0  0  0
  2  1  1  6
  3  2  1  0
  3  4  1  0
  4  8  1  0
  5  4  2  0
  5  6  1  0
  6  7  1  0
  8  7  2  0
  9  2  1  0
  9 10  2  0
 11  9  1  0
 12 11  1  0
 12 15  1  0
 12 13  1  1
 14 13  1  0
 15 22  1  0
 16 15  2  0
 18 17  1  6
 18 19  1  0
 20 18  1  0
 21 20  1  6
 22 21  1  0
 23 25  1  0
 23 21  1  0
 24 23  2  0
M  END
$$$$
