HCL.pdb
     RDKit          3D

 25 25  0  0  1  0  0  0  0  0999 V2000
   19.0702  -15.7842  -18.6980 N   0  0  0  0  0  0  0  0  0  0  0  0
   18.9037  -14.9132  -17.5664 C   0  0  1  0  0  0  0  0  0  0  0  0
   19.4378  -15.6463  -16.3505 C   0  0  0  0  0  0  0  0  0  0  0  0
   18.4639  -16.6949  -15.9917 C   0  0  0  0  0  0  0  0  0  0  0  0
   18.5864  -18.0554  -16.1351 C   0  0  0  0  0  0  0  0  0  0  0  0
   17.4399  -18.6317  -15.6698 N   0  0  0  0  0  0  0  0  0  0  0  0
   16.6255  -17.6536  -15.2477 C   0  0  0  0  0  0  0  0  0  0  0  0
   17.2572  -16.4784  -15.4476 N   0  0  0  0  0  0  0  0  0  0  0  0
   19.6183  -13.6361  -17.7975 C   0  0  0  0  0  0  0  0  0  0  0  0
   20.7523  -13.6661  -18.3345 O   0  0  0  0  0  0  0  0  0  0  0  0
   19.0832  -12.3770  -17.4413 N   0  0  0  0  0  0  0  0  0  0  0  0
   19.7712  -11.1824  -17.7904 C   0  0  1  0  0  0  0  0  0  0  0  0
   19.0264  -10.3654  -18.8429 C   0  0  0  0  0  0  0  0  0  0  0  0
   19.1141  -11.1580  -20.4602 S   0  0  0  0  0  0  0  0  0  0  0  0
   20.0676  -10.3388  -16.5922 C   0  0  0  0  0  0  0  0  0  0  0  0
   19.2421  -10.2189  -15.6508 O   0  0  0  0  0  0  0  0  0  0  0  0
   24.6957  -10.7598  -14.1533 C   0  0  0  0  0  0  0  0  0  0  0  0
   23.2479  -10.4934  -14.4223 C   0  0  1  0  0  0  0  0  0  0  0  0
   22.5124  -10.6443  -13.0822 C   0  0  0  0  0  0  0  0  0  0  0  0
   22.9896   -9.1039  -14.8891 C   0  0  0  0  0  0  0  0  0  0  0  0
   21.5770   -8.7994  -15.2771 C   0  0  2  0  0  0  0  0  0  0  0  0
   21.2934   -9.6305  -16.4545 N   0  0  0  0  0  0  0  0  0  0  0  0
   21.3154   -7.3809  -15.5470 C   0  0  0  0  0  0  0  0  0  0  0  0
   21.2295   -6.8963  -16.7038 O   0  0  0  0  0  0  0  0  0  0  0  0
   21.1487   -6.5008  -14.4891 O   0  0  0  0  0  0  0  0  0  0  0  0
  2  1  1  6
  3  2  1  0
  3  4  1  0
  4  8  1  0
  5  4  2  0
  5  6  1  0
  6  7  1  0
  8  7  2  0
  9  2  1  0
  9 10  2  0
 11  9  1  0
 12 11  1  0
 12 15  1  0
 12 13  1  6
 14 13  1  0
 15 22  1  0
 16 15  2  0
 18 17  1  1
 18 19  1  0
 20 18  1  0
 21 20  1  6
 22 21  1  0
 23 25  1  0
 23 21  1  0
 24 23  2  0
M  END
$$$$
