HCL.pdb
     RDKit          3D

 25 25  0  0  1  0  0  0  0  0999 V2000
   18.0896  -11.8676  -16.4098 N   0  0  0  0  0  0  0  0  0  0  0  0
   18.6873  -10.6408  -16.8624 C   0  0  1  0  0  0  0  0  0  0  0  0
   17.7457  -10.0301  -17.8830 C   0  0  0  0  0  0  0  0  0  0  0  0
   17.7402  -10.9040  -19.0718 C   0  0  0  0  0  0  0  0  0  0  0  0
   16.6744  -11.2595  -19.8618 C   0  0  0  0  0  0  0  0  0  0  0  0
   17.1380  -12.0832  -20.8466 N   0  0  0  0  0  0  0  0  0  0  0  0
   18.4588  -12.2354  -20.6727 C   0  0  0  0  0  0  0  0  0  0  0  0
   18.8163  -11.5141  -19.5902 N   0  0  0  0  0  0  0  0  0  0  0  0
   18.9187   -9.7335  -15.7143 C   0  0  0  0  0  0  0  0  0  0  0  0
   18.1393   -9.7898  -14.7321 O   0  0  0  0  0  0  0  0  0  0  0  0
   19.9806   -8.8013  -15.6692 N   0  0  0  0  0  0  0  0  0  0  0  0
   20.2174   -8.0428  -14.4899 C   0  0  1  0  0  0  0  0  0  0  0  0
   20.4859   -8.9237  -13.2725 C   0  0  0  0  0  0  0  0  0  0  0  0
   20.9808   -7.9311  -11.8507 S   0  0  0  0  0  0  0  0  0  0  0  0
   21.3274   -7.0582  -14.6733 C   0  0  0  0  0  0  0  0  0  0  0  0
   22.4471   -7.4055  -15.1288 O   0  0  0  0  0  0  0  0  0  0  0  0
   23.8109   -3.9777  -17.4632 C   0  0  0  0  0  0  0  0  0  0  0  0
   22.3270   -3.8040  -17.3784 C   0  0  1  0  0  0  0  0  0  0  0  0
   21.7691   -4.0596  -18.7866 C   0  0  0  0  0  0  0  0  0  0  0  0
   21.6759   -4.7977  -16.4819 C   0  0  0  0  0  0  0  0  0  0  0  0
   21.9536   -4.6365  -15.0205 C   0  0  2  0  0  0  0  0  0  0  0  0
   21.1760   -5.6828  -14.3437 N   0  0  0  0  0  0  0  0  0  0  0  0
   21.6390   -3.3059  -14.4875 C   0  0  0  0  0  0  0  0  0  0  0  0
   20.5221   -2.9970  -14.0002 O   0  0  0  0  0  0  0  0  0  0  0  0
   22.6058   -2.3127  -14.5077 O   0  0  0  0  0  0  0  0  0  0  0  0
  2  1  1  1
  3  2  1  0
  3  4  1  0
  4  8  1  0
  5  4  2  0
  5  6  1  0
  6  7  1  0
  8  7  2  0
  9  2  1  0
  9 10  2  0
 11  9  1  0
 12 11  1  0
 12 15  1  0
 12 13  1  1
 14 13  1  0
 15 22  1  0
 16 15  2  0
 18 17  1  6
 18 19  1  0
 20 18  1  0
 21 20  1  6
 22 21  1  0
 23 25  1  0
 23 21  1  0
 24 23  2  0
M  END
$$$$
