PYA.pdb
     RDKit          3D

 25 26  0  0  1  0  0  0  0  0999 V2000
    7.3972  -15.0968   20.2856 N   0  0  0  0  0  0  0  0  0  0  0  0
    6.8788  -14.5851   19.0098 C   0  0  0  0  0  0  0  0  0  0  0  0
    7.0270  -13.0624   19.1067 C   0  0  0  0  0  0  0  0  0  0  0  0
    7.7895  -12.8528   20.4237 C   0  0  0  0  0  0  0  0  0  0  0  0
    8.4898  -14.1905   20.5264 C   0  0  1  0  0  0  0  0  0  0  0  0
    9.1875  -14.4124   21.7923 C   0  0  0  0  0  0  0  0  0  0  0  0
   10.4434  -14.3719   21.7966 O   0  0  0  0  0  0  0  0  0  0  0  0
   10.6616  -15.2333   30.3379 O   0  0  0  0  0  0  0  0  0  0  0  0
   10.0221  -15.0677   29.1118 C   0  0  0  0  0  0  0  0  0  0  0  0
    9.3880  -16.0958   28.4617 C   0  0  0  0  0  0  0  0  0  0  0  0
    8.7680  -15.8933   27.2533 C   0  0  0  0  0  0  0  0  0  0  0  0
    8.7568  -14.6571   26.6469 C   0  0  0  0  0  0  0  0  0  0  0  0
    8.0682  -14.4638   25.3242 C   0  0  0  0  0  0  0  0  0  0  0  0
    9.0084  -14.8460   24.2505 C   0  0  2  0  0  0  0  0  0  0  0  0
    8.4103  -14.6626   22.9570 N   0  0  0  0  0  0  0  0  0  0  0  0
    9.5447  -16.2273   24.3436 C   0  0  0  0  0  0  0  0  0  0  0  0
    8.7317  -17.1785   24.2133 O   0  0  0  0  0  0  0  0  0  0  0  0
    9.3847  -13.6167   27.2801 C   0  0  0  0  0  0  0  0  0  0  0  0
   10.0030  -13.8329   28.4919 C   0  0  0  0  0  0  0  0  0  0  0  0
   11.3593  -18.2531   23.0088 C   0  0  0  0  0  0  0  0  0  0  0  0
   11.4056  -17.8492   24.4836 C   0  0  2  0  0  0  0  0  0  0  0  0
   10.9120  -16.5026   24.5693 N   0  0  0  0  0  0  0  0  0  0  0  0
   12.8286  -17.9442   24.9028 C   0  0  0  0  0  0  0  0  0  0  0  0
   13.3729  -19.0755   24.9488 O   0  0  0  0  0  0  0  0  0  0  0  0
   13.4928  -16.7718   25.2254 O   0  0  0  0  0  0  0  0  0  0  0  0
  1  2  1  0
  3  2  1  0
  4  5  1  0
  4  3  1  0
  5  6  1  1
  5  1  1  0
  6  7  2  0
  8  9  1  0
  9 19  2  0
  9 10  1  0
 10 11  2  0
 11 12  1  0
 12 13  1  0
 14 13  1  1
 15  6  1  0
 15 14  1  0
 16 14  1  0
 16 17  2  0
 18 12  2  0
 19 18  1  0
 21 20  1  6
 21 22  1  0
 21 23  1  0
 22 16  1  0
 23 24  2  0
 23 25  1  0
M  END
$$$$
