PYA.pdb
     RDKit          3D

 25 26  0  0  1  0  0  0  0  0999 V2000
    7.8572  -15.3662   18.7400 N   0  0  0  0  0  0  0  0  0  0  0  0
    7.8274  -15.1837   17.2826 C   0  0  0  0  0  0  0  0  0  0  0  0
    8.0906  -13.6890   17.0673 C   0  0  0  0  0  0  0  0  0  0  0  0
    8.4104  -13.1677   18.4766 C   0  0  0  0  0  0  0  0  0  0  0  0
    8.9020  -14.4490   19.1147 C   0  0  1  0  0  0  0  0  0  0  0  0
    9.1333  -14.3570   20.5557 C   0  0  0  0  0  0  0  0  0  0  0  0
   10.2382  -13.9116   20.9556 O   0  0  0  0  0  0  0  0  0  0  0  0
    7.3157  -12.1884   28.6695 O   0  0  0  0  0  0  0  0  0  0  0  0
    7.1945  -12.6280   27.3535 C   0  0  0  0  0  0  0  0  0  0  0  0
    7.5553  -11.8565   26.2781 C   0  0  0  0  0  0  0  0  0  0  0  0
    7.4209  -12.3251   24.9943 C   0  0  0  0  0  0  0  0  0  0  0  0
    6.9213  -13.5816   24.7341 C   0  0  0  0  0  0  0  0  0  0  0  0
    6.7871  -14.0696   23.3181 C   0  0  0  0  0  0  0  0  0  0  0  0
    8.1222  -14.4856   22.8414 C   0  0  2  0  0  0  0  0  0  0  0  0
    8.0959  -14.7756   21.4343 N   0  0  0  0  0  0  0  0  0  0  0  0
    8.7183  -15.6390   23.5616 C   0  0  0  0  0  0  0  0  0  0  0  0
    8.7362  -15.5953   24.8187 O   0  0  0  0  0  0  0  0  0  0  0  0
    6.5550  -14.3681   25.7946 C   0  0  0  0  0  0  0  0  0  0  0  0
    6.6947  -13.8864   27.0776 C   0  0  0  0  0  0  0  0  0  0  0  0
    9.7094  -19.0994   22.7183 C   0  0  0  0  0  0  0  0  0  0  0  0
    9.7575  -17.8810   23.6422 C   0  0  2  0  0  0  0  0  0  0  0  0
    9.2556  -16.7621   22.8935 N   0  0  0  0  0  0  0  0  0  0  0  0
   11.1824  -17.6965   24.0235 C   0  0  0  0  0  0  0  0  0  0  0  0
   11.8057  -16.7014   23.5766 O   0  0  0  0  0  0  0  0  0  0  0  0
   11.7605  -18.6375   24.8601 O   0  0  0  0  0  0  0  0  0  0  0  0
  1  2  1  0
  3  2  1  0
  4  5  1  0
  4  3  1  0
  5  6  1  1
  5  1  1  0
  6  7  2  0
  8  9  1  0
  9 19  2  0
  9 10  1  0
 10 11  2  0
 11 12  1  0
 12 13  1  0
 14 13  1  1
 15  6  1  0
 15 14  1  0
 16 14  1  0
 16 17  2  0
 18 12  2  0
 19 18  1  0
 21 20  1  6
 21 22  1  0
 21 23  1  0
 22 16  1  0
 23 24  2  0
 23 25  1  0
M  END
$$$$
