PYA.pdb
     RDKit          3D

 25 26  0  0  1  0  0  0  0  0999 V2000
    6.9444  -14.9499   19.7915 N   0  0  0  0  0  0  0  0  0  0  0  0
    6.6111  -14.5299   18.4237 C   0  0  0  0  0  0  0  0  0  0  0  0
    7.0480  -13.0627   18.3446 C   0  0  0  0  0  0  0  0  0  0  0  0
    7.7588  -12.8205   19.6848 C   0  0  0  0  0  0  0  0  0  0  0  0
    8.1771  -14.2383   20.0091 C   0  0  1  0  0  0  0  0  0  0  0  0
    8.7431  -14.4110   21.3463 C   0  0  0  0  0  0  0  0  0  0  0  0
    9.9916  -14.3545   21.4779 O   0  0  0  0  0  0  0  0  0  0  0  0
    9.3888  -13.9197   29.9797 O   0  0  0  0  0  0  0  0  0  0  0  0
    8.8746  -13.9441   28.6856 C   0  0  0  0  0  0  0  0  0  0  0  0
    8.9404  -12.8648   27.8414 C   0  0  0  0  0  0  0  0  0  0  0  0
    8.4217  -12.9272   26.5714 C   0  0  0  0  0  0  0  0  0  0  0  0
    7.8175  -14.0691   26.0948 C   0  0  0  0  0  0  0  0  0  0  0  0
    7.2600  -14.1098   24.6989 C   0  0  0  0  0  0  0  0  0  0  0  0
    8.3007  -14.6469   23.7982 C   0  0  2  0  0  0  0  0  0  0  0  0
    7.8528  -14.6339   22.4330 N   0  0  0  0  0  0  0  0  0  0  0  0
    8.7849  -16.0094   24.1351 C   0  0  0  0  0  0  0  0  0  0  0  0
    7.9448  -16.9458   24.1248 O   0  0  0  0  0  0  0  0  0  0  0  0
    7.7415  -15.1584   26.9225 C   0  0  0  0  0  0  0  0  0  0  0  0
    8.2656  -15.0830   28.1942 C   0  0  0  0  0  0  0  0  0  0  0  0
   11.8127  -17.8572   23.8299 C   0  0  0  0  0  0  0  0  0  0  0  0
   10.5651  -17.6341   24.6867 C   0  0  2  0  0  0  0  0  0  0  0  0
   10.1323  -16.2828   24.4605 N   0  0  0  0  0  0  0  0  0  0  0  0
   10.9775  -17.8536   26.0979 C   0  0  0  0  0  0  0  0  0  0  0  0
   11.3619  -18.9979   26.4463 O   0  0  0  0  0  0  0  0  0  0  0  0
   10.9183  -16.7780   26.9692 O   0  0  0  0  0  0  0  0  0  0  0  0
  1  2  1  0
  3  2  1  0
  4  5  1  0
  4  3  1  0
  5  6  1  1
  5  1  1  0
  6  7  2  0
  8  9  1  0
  9 19  2  0
  9 10  1  0
 10 11  2  0
 11 12  1  0
 12 13  1  0
 14 13  1  1
 15  6  1  0
 15 14  1  0
 16 14  1  0
 16 17  2  0
 18 12  2  0
 19 18  1  0
 21 20  1  6
 21 22  1  0
 21 23  1  0
 22 16  1  0
 23 24  2  0
 23 25  1  0
M  END
$$$$
