PYA.pdb
     RDKit          3D

 25 26  0  0  1  0  0  0  0  0999 V2000
    7.0009  -14.7687   20.3955 N   0  0  0  0  0  0  0  0  0  0  0  0
    6.5162  -14.3141   19.0852 C   0  0  0  0  0  0  0  0  0  0  0  0
    7.1072  -12.9103   18.9120 C   0  0  0  0  0  0  0  0  0  0  0  0
    8.0367  -12.7530   20.1250 C   0  0  0  0  0  0  0  0  0  0  0  0
    8.3280  -14.2103   20.4110 C   0  0  1  0  0  0  0  0  0  0  0  0
    9.0657  -14.4475   21.6512 C   0  0  0  0  0  0  0  0  0  0  0  0
   10.3138  -14.3015   21.6404 O   0  0  0  0  0  0  0  0  0  0  0  0
   10.8262  -15.2054   30.1250 O   0  0  0  0  0  0  0  0  0  0  0  0
   10.1681  -15.0044   28.9141 C   0  0  0  0  0  0  0  0  0  0  0  0
   10.1612  -13.7954   28.2661 C   0  0  0  0  0  0  0  0  0  0  0  0
    9.5006  -13.6359   27.0728 C   0  0  0  0  0  0  0  0  0  0  0  0
    8.8214  -14.6769   26.4801 C   0  0  0  0  0  0  0  0  0  0  0  0
    8.1084  -14.4742   25.1718 C   0  0  0  0  0  0  0  0  0  0  0  0
    8.9642  -15.0023   24.0894 C   0  0  2  0  0  0  0  0  0  0  0  0
    8.3344  -14.8313   22.8092 N   0  0  0  0  0  0  0  0  0  0  0  0
    9.3707  -16.4221   24.2423 C   0  0  0  0  0  0  0  0  0  0  0  0
    8.4622  -17.2717   24.4306 O   0  0  0  0  0  0  0  0  0  0  0  0
    8.8161  -15.8929   27.1115 C   0  0  0  0  0  0  0  0  0  0  0  0
    9.4825  -16.0398   28.3081 C   0  0  0  0  0  0  0  0  0  0  0  0
   12.0850  -18.5558   23.2388 C   0  0  0  0  0  0  0  0  0  0  0  0
   11.0531  -18.2321   24.3208 C   0  0  2  0  0  0  0  0  0  0  0  0
   10.7186  -16.8415   24.1841 N   0  0  0  0  0  0  0  0  0  0  0  0
   11.7057  -18.5181   25.6255 C   0  0  0  0  0  0  0  0  0  0  0  0
   12.0193  -19.7034   25.8997 O   0  0  0  0  0  0  0  0  0  0  0  0
   11.9393  -17.4562   26.4842 O   0  0  0  0  0  0  0  0  0  0  0  0
  1  2  1  0
  3  2  1  0
  4  5  1  0
  4  3  1  0
  5  6  1  1
  5  1  1  0
  6  7  2  0
  8  9  1  0
  9 19  2  0
  9 10  1  0
 10 11  2  0
 11 12  1  0
 12 13  1  0
 14 13  1  1
 15  6  1  0
 15 14  1  0
 16 14  1  0
 16 17  2  0
 18 12  2  0
 19 18  1  0
 21 20  1  6
 21 22  1  0
 21 23  1  0
 22 16  1  0
 23 24  2  0
 23 25  1  0
M  END
$$$$
