QDI.pdb
     RDKit          3D

 26 25  0  0  1  0  0  0  0  0999 V2000
    7.4421  -15.1219   15.6631 N   0  0  0  0  0  0  0  0  0  0  0  0
    8.1754  -14.0316   16.2305 C   0  0  0  0  0  0  0  0  0  0  0  0
    9.3629  -13.8649   15.8685 O   0  0  0  0  0  0  0  0  0  0  0  0
    7.5807  -13.1151   17.2109 C   0  0  0  0  0  0  0  0  0  0  0  0
    7.4624  -13.6945   18.5728 C   0  0  0  0  0  0  0  0  0  0  0  0
    8.7189  -13.6645   19.3716 C   0  0  2  0  0  0  0  0  0  0  0  0
    9.7028  -14.4510   18.6371 N   0  0  0  0  0  0  0  0  0  0  0  0
    8.4841  -14.4081   20.6722 C   0  0  0  0  0  0  0  0  0  0  0  0
    7.5419  -14.0727   21.4074 O   0  0  0  0  0  0  0  0  0  0  0  0
    9.3238  -15.4763   21.0560 N   0  0  0  0  0  0  0  0  0  0  0  0
    9.3565  -16.2278   22.2614 C   0  0  1  0  0  0  0  0  0  0  0  0
   10.2919  -17.4304   22.2680 C   0  0  0  0  0  0  0  0  0  0  0  0
   10.0515  -18.2419   21.0660 C   0  0  0  0  0  0  0  0  0  0  0  0
    8.9522  -18.7982   20.8846 O   0  0  0  0  0  0  0  0  0  0  0  0
    9.5206  -15.4874   23.5003 C   0  0  0  0  0  0  0  0  0  0  0  0
   10.5935  -14.8053   23.6987 O   0  0  0  0  0  0  0  0  0  0  0  0
   11.1095  -18.3526   20.1526 O   0  0  0  0  0  0  0  0  0  0  0  0
    6.6861  -11.7187   27.2372 C   0  0  0  0  0  0  0  0  0  0  0  0
    7.8059  -12.6975   27.0549 C   0  0  0  0  0  0  0  0  0  0  0  0
    7.6341  -13.6199   25.8907 C   0  0  2  0  0  0  0  0  0  0  0  0
    6.3229  -14.3303   25.9551 C   0  0  0  0  0  0  0  0  0  0  0  0
    8.7655  -14.6157   25.7402 C   0  0  2  0  0  0  0  0  0  0  0  0
    8.5739  -15.4401   24.5566 N   0  0  0  0  0  0  0  0  0  0  0  0
    8.7483  -15.4688   26.9516 C   0  0  0  0  0  0  0  0  0  0  0  0
    9.2902  -15.0981   28.1725 O   0  0  0  0  0  0  0  0  0  0  0  0
    8.2108  -16.6000   26.8757 O   0  0  0  0  0  0  0  0  0  0  0  0
  2  1  1  0
  3  2  2  0
  4  2  1  0
  5  4  1  0
  6  5  1  0
  6  8  1  0
  6  7  1  6
  8  9  2  0
 10  8  1  0
 10 11  1  0
 11 15  1  0
 11 12  1  6
 13 12  1  0
 14 13  2  0
 15 16  2  0
 17 13  1  0
 19 18  1  0
 19 20  1  0
 20 22  1  0
 20 21  1  1
 22 24  1  0
 22 23  1  6
 23 15  1  0
 24 26  2  0
 24 25  1  0
M  END
$$$$
