QDI.pdb
     RDKit          3D

 26 25  0  0  1  0  0  0  0  0999 V2000
    6.9799  -20.4564   28.3365 N   0  0  0  0  0  0  0  0  0  0  0  0
    7.7223  -19.4564   27.6315 C   0  0  0  0  0  0  0  0  0  0  0  0
    8.3808  -18.6267   28.3002 O   0  0  0  0  0  0  0  0  0  0  0  0
    7.7337  -19.3788   26.1657 C   0  0  0  0  0  0  0  0  0  0  0  0
    6.3822  -19.4477   25.5548 C   0  0  0  0  0  0  0  0  0  0  0  0
    6.3590  -19.2681   24.0766 C   0  0  2  0  0  0  0  0  0  0  0  0
    6.6827  -20.5634   23.4906 N   0  0  0  0  0  0  0  0  0  0  0  0
    7.4937  -18.3421   23.6832 C   0  0  0  0  0  0  0  0  0  0  0  0
    8.6667  -18.6851   23.9004 O   0  0  0  0  0  0  0  0  0  0  0  0
    7.2314  -17.0959   23.0735 N   0  0  0  0  0  0  0  0  0  0  0  0
    8.1289  -16.1020   22.5989 C   0  0  1  0  0  0  0  0  0  0  0  0
    7.6303  -15.2623   21.4293 C   0  0  0  0  0  0  0  0  0  0  0  0
    7.5458  -16.1030   20.2264 C   0  0  0  0  0  0  0  0  0  0  0  0
    8.4833  -16.8608   19.9138 O   0  0  0  0  0  0  0  0  0  0  0  0
    8.7369  -15.2299   23.5888 C   0  0  0  0  0  0  0  0  0  0  0  0
    9.7105  -14.4603   23.2491 O   0  0  0  0  0  0  0  0  0  0  0  0
    6.3726  -16.0056   19.4648 O   0  0  0  0  0  0  0  0  0  0  0  0
    5.9681  -11.8825   26.1330 C   0  0  0  0  0  0  0  0  0  0  0  0
    7.1558  -12.5771   25.5395 C   0  0  0  0  0  0  0  0  0  0  0  0
    8.0013  -13.3084   26.5326 C   0  0  2  0  0  0  0  0  0  0  0  0
    8.6943  -12.3592   27.4528 C   0  0  0  0  0  0  0  0  0  0  0  0
    9.0028  -14.2481   25.8936 C   0  0  2  0  0  0  0  0  0  0  0  0
    8.3455  -15.1396   24.9500 N   0  0  0  0  0  0  0  0  0  0  0  0
    9.6069  -15.0396   26.9911 C   0  0  0  0  0  0  0  0  0  0  0  0
   10.6021  -14.5690   27.8336 O   0  0  0  0  0  0  0  0  0  0  0  0
    9.1970  -16.2109   27.1760 O   0  0  0  0  0  0  0  0  0  0  0  0
  2  1  1  0
  3  2  2  0
  4  2  1  0
  5  4  1  0
  6  5  1  0
  6  8  1  0
  6  7  1  6
  8  9  2  0
 10  8  1  0
 10 11  1  0
 11 15  1  0
 11 12  1  6
 13 12  1  0
 14 13  2  0
 15 16  2  0
 17 13  1  0
 19 18  1  0
 19 20  1  0
 20 22  1  0
 20 21  1  6
 22 24  1  0
 22 23  1  6
 23 15  1  0
 24 26  2  0
 24 25  1  0
M  END
$$$$
