QDI.pdb
     RDKit          3D

 26 25  0  0  1  0  0  0  0  0999 V2000
    8.5821  -12.3554   17.8571 N   0  0  0  0  0  0  0  0  0  0  0  0
    7.9362  -13.4463   17.1931 C   0  0  0  0  0  0  0  0  0  0  0  0
    8.1613  -13.6129   15.9722 O   0  0  0  0  0  0  0  0  0  0  0  0
    7.0306  -14.3636   17.8952 C   0  0  0  0  0  0  0  0  0  0  0  0
    7.0868  -14.2409   19.3738 C   0  0  0  0  0  0  0  0  0  0  0  0
    8.4333  -14.4752   19.9655 C   0  0  2  0  0  0  0  0  0  0  0  0
    9.0664  -15.5197   19.1692 N   0  0  0  0  0  0  0  0  0  0  0  0
    8.2574  -15.0632   21.3523 C   0  0  0  0  0  0  0  0  0  0  0  0
    7.4895  -14.5130   22.1574 O   0  0  0  0  0  0  0  0  0  0  0  0
    8.9564  -16.2279   21.7376 N   0  0  0  0  0  0  0  0  0  0  0  0
    9.0699  -16.8485   23.0106 C   0  0  1  0  0  0  0  0  0  0  0  0
    9.8502  -18.1567   23.0435 C   0  0  0  0  0  0  0  0  0  0  0  0
    9.7432  -18.7551   24.3819 C   0  0  0  0  0  0  0  0  0  0  0  0
    8.8609  -18.3798   25.1767 O   0  0  0  0  0  0  0  0  0  0  0  0
    9.4913  -16.0122   24.1211 C   0  0  0  0  0  0  0  0  0  0  0  0
   10.6712  -15.4989   24.1213 O   0  0  0  0  0  0  0  0  0  0  0  0
   10.6726  -19.7531   24.7075 O   0  0  0  0  0  0  0  0  0  0  0  0
    6.0220  -12.4613   26.2460 C   0  0  0  0  0  0  0  0  0  0  0  0
    7.2096  -13.2258   25.7455 C   0  0  0  0  0  0  0  0  0  0  0  0
    7.9654  -13.9553   26.8097 C   0  0  2  0  0  0  0  0  0  0  0  0
    8.4215  -13.0226   27.8821 C   0  0  0  0  0  0  0  0  0  0  0  0
    9.1352  -14.7556   26.2754 C   0  0  2  0  0  0  0  0  0  0  0  0
    8.6959  -15.6920   25.2520 N   0  0  0  0  0  0  0  0  0  0  0  0
    9.7036  -15.5004   27.4234 C   0  0  0  0  0  0  0  0  0  0  0  0
   10.7855  -15.0666   28.1739 O   0  0  0  0  0  0  0  0  0  0  0  0
    9.1779  -16.5939   27.7429 O   0  0  0  0  0  0  0  0  0  0  0  0
  2  1  1  0
  3  2  2  0
  4  2  1  0
  5  4  1  0
  6  5  1  0
  6  8  1  0
  6  7  1  6
  8  9  2  0
 10  8  1  0
 10 11  1  0
 11 15  1  0
 11 12  1  6
 13 12  1  0
 14 13  2  0
 15 16  2  0
 17 13  1  0
 19 18  1  0
 19 20  1  0
 20 22  1  0
 20 21  1  1
 22 24  1  0
 22 23  1  6
 23 15  1  0
 24 26  2  0
 24 25  1  0
M  END
$$$$
