QDI.pdb
     RDKit          3D

 26 25  0  0  1  0  0  0  0  0999 V2000
    8.6236  -12.1594   19.2835 N   0  0  0  0  0  0  0  0  0  0  0  0
    7.6687  -13.2182   19.4078 C   0  0  0  0  0  0  0  0  0  0  0  0
    6.4545  -12.9382   19.2798 O   0  0  0  0  0  0  0  0  0  0  0  0
    8.0688  -14.6048   19.6762 C   0  0  0  0  0  0  0  0  0  0  0  0
    9.5367  -14.7871   19.8047 C   0  0  0  0  0  0  0  0  0  0  0  0
    9.9589  -16.1552   20.2147 C   0  0  2  0  0  0  0  0  0  0  0  0
    9.2156  -17.0922   19.3806 N   0  0  0  0  0  0  0  0  0  0  0  0
    9.4871  -16.4027   21.6345 C   0  0  0  0  0  0  0  0  0  0  0  0
    8.3155  -16.1355   21.9453 O   0  0  0  0  0  0  0  0  0  0  0  0
   10.3642  -16.9331   22.6055 N   0  0  0  0  0  0  0  0  0  0  0  0
   10.1551  -17.1846   23.9882 C   0  0  1  0  0  0  0  0  0  0  0  0
   10.8950  -18.3861   24.5629 C   0  0  0  0  0  0  0  0  0  0  0  0
   10.6696  -19.5556   23.7013 C   0  0  0  0  0  0  0  0  0  0  0  0
    9.5154  -19.9656   23.4760 O   0  0  0  0  0  0  0  0  0  0  0  0
   10.2935  -16.0587   24.8956 C   0  0  0  0  0  0  0  0  0  0  0  0
   11.3565  -15.3348   24.8565 O   0  0  0  0  0  0  0  0  0  0  0  0
   11.8054  -20.1723   23.1578 O   0  0  0  0  0  0  0  0  0  0  0  0
    6.5474  -12.4064   25.9212 C   0  0  0  0  0  0  0  0  0  0  0  0
    7.8083  -13.1991   25.7572 C   0  0  0  0  0  0  0  0  0  0  0  0
    8.3597  -13.7500   27.0332 C   0  0  2  0  0  0  0  0  0  0  0  0
    8.6438  -12.6599   28.0124 C   0  0  0  0  0  0  0  0  0  0  0  0
    9.5888  -14.6127   26.8344 C   0  0  2  0  0  0  0  0  0  0  0  0
    9.3310  -15.6624   25.8603 N   0  0  0  0  0  0  0  0  0  0  0  0
    9.9035  -15.2181   28.1499 C   0  0  0  0  0  0  0  0  0  0  0  0
   10.7028  -14.6191   29.1111 O   0  0  0  0  0  0  0  0  0  0  0  0
    9.4195  -16.3441   28.4182 O   0  0  0  0  0  0  0  0  0  0  0  0
  2  1  1  0
  3  2  2  0
  4  2  1  0
  5  4  1  0
  6  5  1  0
  6  8  1  0
  6  7  1  6
  8  9  2  0
 10  8  1  0
 10 11  1  0
 11 15  1  0
 11 12  1  1
 13 12  1  0
 14 13  2  0
 15 16  2  0
 17 13  1  0
 19 18  1  0
 19 20  1  0
 20 22  1  0
 20 21  1  1
 22 24  1  0
 22 23  1  6
 23 15  1  0
 24 26  2  0
 24 25  1  0
M  END
$$$$
