QDI.pdb
     RDKit          3D

 26 25  0  0  1  0  0  0  0  0999 V2000
    7.4851  -15.8499   16.9735 N   0  0  0  0  0  0  0  0  0  0  0  0
    7.8475  -14.4930   16.6983 C   0  0  0  0  0  0  0  0  0  0  0  0
    8.4716  -14.2501   15.6397 O   0  0  0  0  0  0  0  0  0  0  0  0
    7.5108  -13.3932   17.6103 C   0  0  0  0  0  0  0  0  0  0  0  0
    7.3320  -13.8219   19.0205 C   0  0  0  0  0  0  0  0  0  0  0  0
    8.4916  -13.5328   19.9091 C   0  0  2  0  0  0  0  0  0  0  0  0
    9.6766  -14.0509   19.2359 N   0  0  0  0  0  0  0  0  0  0  0  0
    8.3463  -14.3517   21.1772 C   0  0  0  0  0  0  0  0  0  0  0  0
    7.3677  -14.1649   21.9175 O   0  0  0  0  0  0  0  0  0  0  0  0
    9.3103  -15.3230   21.5248 N   0  0  0  0  0  0  0  0  0  0  0  0
    9.3922  -16.1636   22.6673 C   0  0  1  0  0  0  0  0  0  0  0  0
   10.3213  -17.3646   22.5417 C   0  0  0  0  0  0  0  0  0  0  0  0
   10.0197  -18.0867   21.2973 C   0  0  0  0  0  0  0  0  0  0  0  0
   10.8554  -18.1403   20.3755 O   0  0  0  0  0  0  0  0  0  0  0  0
    9.6138  -15.5195   23.9503 C   0  0  0  0  0  0  0  0  0  0  0  0
   10.7639  -15.0079   24.2171 O   0  0  0  0  0  0  0  0  0  0  0  0
    8.7620  -18.6999   21.2078 O   0  0  0  0  0  0  0  0  0  0  0  0
    6.2090  -12.0042   25.7928 C   0  0  0  0  0  0  0  0  0  0  0  0
    7.3879  -12.8760   25.4837 C   0  0  0  0  0  0  0  0  0  0  0  0
    7.8002  -13.7746   26.6054 C   0  0  2  0  0  0  0  0  0  0  0  0
    8.1579  -12.9878   27.8223 C   0  0  0  0  0  0  0  0  0  0  0  0
    8.9274  -14.7172   26.2377 C   0  0  2  0  0  0  0  0  0  0  0  0
    8.6458  -15.3935   24.9805 N   0  0  0  0  0  0  0  0  0  0  0  0
    9.0252  -15.7135   27.3302 C   0  0  0  0  0  0  0  0  0  0  0  0
    9.8035  -15.5498   28.4656 O   0  0  0  0  0  0  0  0  0  0  0  0
    8.3645  -16.7753   27.2286 O   0  0  0  0  0  0  0  0  0  0  0  0
  2  1  1  0
  3  2  2  0
  4  2  1  0
  5  4  1  0
  6  5  1  0
  6  8  1  0
  6  7  1  6
  8  9  2  0
 10  8  1  0
 10 11  1  0
 11 15  1  0
 11 12  1  6
 13 12  1  0
 14 13  2  0
 15 16  2  0
 17 13  1  0
 19 18  1  0
 19 20  1  0
 20 22  1  0
 20 21  1  1
 22 24  1  0
 22 23  1  6
 23 15  1  0
 24 26  2  0
 24 25  1  0
M  END
$$$$
