MQI.pdb
     RDKit          3D

 26 25  0  0  1  0  0  0  0  0999 V2000
   26.1258  -14.0713  -16.2851 C   0  0  0  0  0  0  0  0  0  0  0  0
   27.2399  -14.9282  -17.4476 S   0  0  0  0  0  0  0  0  0  0  0  0
   27.7709  -16.5247  -16.7564 C   0  0  0  0  0  0  0  0  0  0  0  0
   26.8055  -16.8705  -15.6458 C   0  0  0  0  0  0  0  0  0  0  0  0
   27.2619  -18.1231  -14.8955 C   0  0  2  0  0  0  0  0  0  0  0  0
   27.2455  -19.1954  -15.8695 N   0  0  0  0  0  0  0  0  0  0  0  0
   26.2471  -18.3645  -13.8386 C   0  0  0  0  0  0  0  0  0  0  0  0
   25.0686  -17.9785  -14.0366 O   0  0  0  0  0  0  0  0  0  0  0  0
   24.9805  -23.2732  -14.4325 N   0  0  0  0  0  0  0  0  0  0  0  0
   24.2040  -23.2215  -13.2428 C   0  0  0  0  0  0  0  0  0  0  0  0
   23.4164  -24.1676  -13.0123 O   0  0  0  0  0  0  0  0  0  0  0  0
   24.3714  -22.0617  -12.3542 C   0  0  0  0  0  0  0  0  0  0  0  0
   25.4043  -21.1100  -12.9501 C   0  0  0  0  0  0  0  0  0  0  0  0
   25.6550  -19.9455  -11.9914 C   0  0  2  0  0  0  0  0  0  0  0  0
   26.5573  -19.0146  -12.6140 N   0  0  0  0  0  0  0  0  0  0  0  0
   26.1495  -20.4559  -10.7014 C   0  0  0  0  0  0  0  0  0  0  0  0
   27.1688  -21.2020  -10.7010 O   0  0  0  0  0  0  0  0  0  0  0  0
   27.8409  -17.8537   -6.6597 C   0  0  0  0  0  0  0  0  0  0  0  0
   27.5828  -18.9977   -7.6010 C   0  0  0  0  0  0  0  0  0  0  0  0
   26.4828  -19.9042   -7.1833 C   0  0  2  0  0  0  0  0  0  0  0  0
   26.8329  -20.6813   -5.9172 C   0  0  0  0  0  0  0  0  0  0  0  0
   25.9407  -20.8294   -8.2044 C   0  0  2  0  0  0  0  0  0  0  0  0
   25.5628  -20.1716   -9.4438 N   0  0  0  0  0  0  0  0  0  0  0  0
   24.8501  -21.6785   -7.7167 C   0  0  0  0  0  0  0  0  0  0  0  0
   23.6629  -21.3449   -7.8900 O   0  0  0  0  0  0  0  0  0  0  0  0
   25.1327  -22.8565   -7.0586 O   0  0  0  0  0  0  0  0  0  0  0  0
  2  1  1  0
  3  2  1  0
  4  5  1  0
  4  3  1  0
  5  7  1  0
  5  6  1  6
  7  8  2  0
 10 12  1  0
 10  9  1  0
 11 10  2  0
 13 12  1  0
 14 13  1  6
 15 14  1  0
 15  7  1  0
 16 14  1  0
 16 17  2  0
 19 18  1  0
 19 20  1  0
 20 22  1  0
 20 21  1  1
 22 23  1  6
 22 24  1  0
 23 16  1  0
 24 25  2  0
 24 26  1  0
M  END
$$$$
