MQI.pdb
     RDKit          3D

 26 25  0  0  1  0  0  0  0  0999 V2000
   19.7695  -18.3815  -10.6300 C   0  0  0  0  0  0  0  0  0  0  0  0
   19.3172  -19.3830  -12.0857 S   0  0  0  0  0  0  0  0  0  0  0  0
   20.8118  -19.9748  -12.9371 C   0  0  0  0  0  0  0  0  0  0  0  0
   21.7441  -20.5115  -11.8752 C   0  0  0  0  0  0  0  0  0  0  0  0
   23.1124  -20.8496  -12.4700 C   0  0  2  0  0  0  0  0  0  0  0  0
   22.9129  -22.0419  -13.2684 N   0  0  0  0  0  0  0  0  0  0  0  0
   24.0039  -21.1381  -11.3180 C   0  0  0  0  0  0  0  0  0  0  0  0
   23.6671  -22.0351  -10.5063 O   0  0  0  0  0  0  0  0  0  0  0  0
   29.9182  -21.1776  -12.2481 N   0  0  0  0  0  0  0  0  0  0  0  0
   29.9142  -21.6959  -10.9244 C   0  0  0  0  0  0  0  0  0  0  0  0
   30.9879  -22.1499  -10.4667 O   0  0  0  0  0  0  0  0  0  0  0  0
   28.6511  -21.6682  -10.1717 C   0  0  0  0  0  0  0  0  0  0  0  0
   27.5614  -21.0341  -11.0309 C   0  0  0  0  0  0  0  0  0  0  0  0
   26.2550  -20.9529  -10.2405 C   0  0  2  0  0  0  0  0  0  0  0  0
   25.2216  -20.4395  -11.0989 N   0  0  0  0  0  0  0  0  0  0  0  0
   26.4535  -20.1436   -9.0261 C   0  0  0  0  0  0  0  0  0  0  0  0
   25.9705  -18.9768   -8.9955 O   0  0  0  0  0  0  0  0  0  0  0  0
   28.4048  -20.3778   -3.0861 C   0  0  0  0  0  0  0  0  0  0  0  0
   27.5669  -19.7693   -4.1765 C   0  0  0  0  0  0  0  0  0  0  0  0
   27.5767  -20.5236   -5.4560 C   0  0  2  0  0  0  0  0  0  0  0  0
   28.8120  -21.4105   -5.5865 C   0  0  0  0  0  0  0  0  0  0  0  0
   27.3832  -19.7485   -6.7027 C   0  0  2  0  0  0  0  0  0  0  0  0
   27.1539  -20.5778   -7.8738 N   0  0  0  0  0  0  0  0  0  0  0  0
   28.4414  -18.7685   -6.9628 C   0  0  0  0  0  0  0  0  0  0  0  0
   28.5485  -17.7502   -6.2538 O   0  0  0  0  0  0  0  0  0  0  0  0
   29.3281  -18.9673   -7.9996 O   0  0  0  0  0  0  0  0  0  0  0  0
  2  1  1  0
  3  2  1  0
  4  5  1  0
  4  3  1  0
  5  7  1  0
  5  6  1  6
  7  8  2  0
 10 12  1  0
 10  9  1  0
 11 10  2  0
 13 12  1  0
 14 13  1  6
 15 14  1  0
 15  7  1  0
 16 14  1  0
 16 17  2  0
 19 18  1  0
 19 20  1  0
 20 22  1  0
 20 21  1  6
 22 23  1  6
 22 24  1  0
 23 16  1  0
 24 25  2  0
 24 26  1  0
M  END
$$$$
