MQI.pdb
     RDKit          3D

 26 25  0  0  1  0  0  0  0  0999 V2000
   32.8623  -21.2990  -10.4269 C   0  0  0  0  0  0  0  0  0  0  0  0
   33.0221  -22.7588  -11.5087 S   0  0  0  0  0  0  0  0  0  0  0  0
   32.0301  -22.5410  -13.0178 C   0  0  0  0  0  0  0  0  0  0  0  0
   30.8136  -21.7293  -12.6357 C   0  0  0  0  0  0  0  0  0  0  0  0
   29.9109  -21.4944  -13.8482 C   0  0  2  0  0  0  0  0  0  0  0  0
   30.6653  -20.6412  -14.7435 N   0  0  0  0  0  0  0  0  0  0  0  0
   28.7114  -20.7826  -13.3386 C   0  0  0  0  0  0  0  0  0  0  0  0
   28.7869  -19.5457  -13.1353 O   0  0  0  0  0  0  0  0  0  0  0  0
   22.9698  -21.2852  -14.9516 N   0  0  0  0  0  0  0  0  0  0  0  0
   22.8026  -20.3945  -13.8564 C   0  0  0  0  0  0  0  0  0  0  0  0
   21.6865  -19.8455  -13.7092 O   0  0  0  0  0  0  0  0  0  0  0  0
   23.9484  -20.1707  -12.9621 C   0  0  0  0  0  0  0  0  0  0  0  0
   25.1505  -20.9618  -13.4688 C   0  0  0  0  0  0  0  0  0  0  0  0
   26.3422  -20.7565  -12.5330 C   0  0  2  0  0  0  0  0  0  0  0  0
   27.4833  -21.4457  -13.0727 N   0  0  0  0  0  0  0  0  0  0  0  0
   25.9916  -21.1956  -11.1716 C   0  0  0  0  0  0  0  0  0  0  0  0
   25.8632  -22.4332  -10.9534 O   0  0  0  0  0  0  0  0  0  0  0  0
   27.8541  -18.6540   -6.6580 C   0  0  0  0  0  0  0  0  0  0  0  0
   27.3983  -19.6896   -7.6485 C   0  0  0  0  0  0  0  0  0  0  0  0
   25.9337  -19.9364   -7.6533 C   0  0  2  0  0  0  0  0  0  0  0  0
   25.4386  -20.4610   -6.3082 C   0  0  0  0  0  0  0  0  0  0  0  0
   25.3894  -20.7726   -8.7474 C   0  0  2  0  0  0  0  0  0  0  0  0
   25.7843  -20.3260  -10.0727 N   0  0  0  0  0  0  0  0  0  0  0  0
   23.9386  -20.9687   -8.6792 C   0  0  0  0  0  0  0  0  0  0  0  0
   23.1706  -20.2433   -9.3386 O   0  0  0  0  0  0  0  0  0  0  0  0
   23.4121  -21.9608   -7.8797 O   0  0  0  0  0  0  0  0  0  0  0  0
  2  1  1  0
  3  2  1  0
  4  5  1  0
  4  3  1  0
  5  7  1  0
  5  6  1  6
  7  8  2  0
 10 12  1  0
 10  9  1  0
 11 10  2  0
 13 12  1  0
 14 13  1  6
 15 14  1  0
 15  7  1  0
 16 14  1  0
 16 17  2  0
 19 18  1  0
 19 20  1  0
 20 22  1  0
 20 21  1  1
 22 23  1  6
 22 24  1  0
 23 16  1  0
 24 25  2  0
 24 26  1  0
M  END
$$$$
