MQI.pdb
     RDKit          3D

 26 25  0  0  1  0  0  0  0  0999 V2000
   26.6464  -15.6855  -17.9074 C   0  0  0  0  0  0  0  0  0  0  0  0
   26.2653  -16.9849  -19.1294 S   0  0  0  0  0  0  0  0  0  0  0  0
   24.6722  -17.7723  -18.7413 C   0  0  0  0  0  0  0  0  0  0  0  0
   24.4743  -17.6604  -17.2469 C   0  0  0  0  0  0  0  0  0  0  0  0
   24.6985  -19.0106  -16.5637 C   0  0  2  0  0  0  0  0  0  0  0  0
   23.7606  -19.9265  -17.1804 N   0  0  0  0  0  0  0  0  0  0  0  0
   24.3636  -18.8094  -15.1310 C   0  0  0  0  0  0  0  0  0  0  0  0
   24.9891  -17.9335  -14.4841 O   0  0  0  0  0  0  0  0  0  0  0  0
   19.0442  -20.4778  -12.6341 N   0  0  0  0  0  0  0  0  0  0  0  0
   19.4126  -20.0157  -13.9270 C   0  0  0  0  0  0  0  0  0  0  0  0
   18.5417  -20.0282  -14.8269 O   0  0  0  0  0  0  0  0  0  0  0  0
   20.7929  -19.5508  -14.1311 C   0  0  0  0  0  0  0  0  0  0  0  0
   21.5850  -19.7281  -12.8393 C   0  0  0  0  0  0  0  0  0  0  0  0
   23.0532  -19.3715  -13.0744 C   0  0  2  0  0  0  0  0  0  0  0  0
   23.3641  -19.5681  -14.4648 N   0  0  0  0  0  0  0  0  0  0  0  0
   23.9108  -20.1592  -12.1727 C   0  0  0  0  0  0  0  0  0  0  0  0
   24.3329  -21.2809  -12.5720 O   0  0  0  0  0  0  0  0  0  0  0  0
   27.1440  -17.6287   -8.5344 C   0  0  0  0  0  0  0  0  0  0  0  0
   26.7670  -18.6833   -9.5379 C   0  0  0  0  0  0  0  0  0  0  0  0
   25.8941  -19.7596   -9.0035 C   0  0  2  0  0  0  0  0  0  0  0  0
   26.6495  -20.6920   -8.0604 C   0  0  0  0  0  0  0  0  0  0  0  0
   25.1221  -20.5572   -9.9835 C   0  0  2  0  0  0  0  0  0  0  0  0
   24.3044  -19.7514  -10.8745 N   0  0  0  0  0  0  0  0  0  0  0  0
   24.3261  -21.6298   -9.3803 C   0  0  0  0  0  0  0  0  0  0  0  0
   24.8608  -22.7048   -9.0495 O   0  0  0  0  0  0  0  0  0  0  0  0
   22.9738  -21.4557   -9.1759 O   0  0  0  0  0  0  0  0  0  0  0  0
  2  1  1  0
  3  2  1  0
  4  5  1  0
  4  3  1  0
  5  7  1  0
  5  6  1  6
  7  8  2  0
 10 12  1  0
 10  9  1  0
 11 10  2  0
 13 12  1  0
 14 13  1  6
 15 14  1  0
 15  7  1  0
 16 14  1  0
 16 17  2  0
 19 18  1  0
 19 20  1  0
 20 22  1  0
 20 21  1  6
 22 23  1  1
 22 24  1  0
 23 16  1  0
 24 25  2  0
 24 26  1  0
M  END
$$$$
