MQI.pdb
     RDKit          3D

 26 25  0  0  1  0  0  0  0  0999 V2000
   27.3771  -15.9706  -15.8408 C   0  0  0  0  0  0  0  0  0  0  0  0
   28.3145  -16.8537  -17.1324 S   0  0  0  0  0  0  0  0  0  0  0  0
   28.7331  -18.5338  -16.5749 C   0  0  0  0  0  0  0  0  0  0  0  0
   27.4539  -19.1683  -16.0791 C   0  0  0  0  0  0  0  0  0  0  0  0
   27.7316  -20.5303  -15.4403 C   0  0  2  0  0  0  0  0  0  0  0  0
   28.0238  -21.4297  -16.5377 N   0  0  0  0  0  0  0  0  0  0  0  0
   26.4743  -20.9314  -14.7594 C   0  0  0  0  0  0  0  0  0  0  0  0
   25.6152  -21.5740  -15.4120 O   0  0  0  0  0  0  0  0  0  0  0  0
   25.2066  -20.4956   -8.6141 N   0  0  0  0  0  0  0  0  0  0  0  0
   23.9968  -21.0668   -9.0947 C   0  0  0  0  0  0  0  0  0  0  0  0
   23.1215  -21.3833   -8.2566 O   0  0  0  0  0  0  0  0  0  0  0  0
   23.8447  -21.2520  -10.5457 C   0  0  0  0  0  0  0  0  0  0  0  0
   25.1113  -20.7805  -11.2536 C   0  0  0  0  0  0  0  0  0  0  0  0
   24.9640  -20.9650  -12.7643 C   0  0  2  0  0  0  0  0  0  0  0  0
   26.2062  -20.6170  -13.4000 N   0  0  0  0  0  0  0  0  0  0  0  0
   23.8214  -20.1767  -13.2564 C   0  0  0  0  0  0  0  0  0  0  0  0
   23.8935  -18.9166  -13.2044 O   0  0  0  0  0  0  0  0  0  0  0  0
   20.5029  -19.2104  -18.0130 C   0  0  0  0  0  0  0  0  0  0  0  0
   20.4072  -19.2457  -16.5127 C   0  0  0  0  0  0  0  0  0  0  0  0
   21.4990  -19.9972  -15.8422 C   0  0  2  0  0  0  0  0  0  0  0  0
   21.5584  -21.4508  -16.3035 C   0  0  0  0  0  0  0  0  0  0  0  0
   21.5553  -19.9386  -14.3638 C   0  0  2  0  0  0  0  0  0  0  0  0
   22.6314  -20.7292  -13.7906 N   0  0  0  0  0  0  0  0  0  0  0  0
   20.2813  -20.2479  -13.7085 C   0  0  0  0  0  0  0  0  0  0  0  0
   19.2847  -19.5234  -13.8895 O   0  0  0  0  0  0  0  0  0  0  0  0
   20.1779  -21.3467  -12.8823 O   0  0  0  0  0  0  0  0  0  0  0  0
  2  1  1  0
  3  2  1  0
  4  5  1  0
  4  3  1  0
  5  7  1  0
  5  6  1  6
  7  8  2  0
 10 12  1  0
 10  9  1  0
 11 10  2  0
 13 12  1  0
 14 13  1  1
 15 14  1  0
 15  7  1  0
 16 14  1  0
 16 17  2  0
 19 18  1  0
 19 20  1  0
 20 22  1  0
 20 21  1  1
 22 23  1  1
 22 24  1  0
 23 16  1  0
 24 25  2  0
 24 26  1  0
M  END
$$$$
