MQI.pdb
     RDKit          3D

 26 25  0  0  1  0  0  0  0  0999 V2000
   27.5863  -14.4561  -15.7860 C   0  0  0  0  0  0  0  0  0  0  0  0
   27.9777  -16.0094  -16.6583 S   0  0  0  0  0  0  0  0  0  0  0  0
   26.4536  -16.9329  -17.0231 C   0  0  0  0  0  0  0  0  0  0  0  0
   25.8557  -17.3438  -15.6970 C   0  0  0  0  0  0  0  0  0  0  0  0
   26.7753  -18.3210  -14.9625 C   0  0  2  0  0  0  0  0  0  0  0  0
   27.0925  -19.3611  -15.9198 N   0  0  0  0  0  0  0  0  0  0  0  0
   25.9775  -18.8740  -13.8387 C   0  0  0  0  0  0  0  0  0  0  0  0
   24.9830  -18.2251  -13.4304 O   0  0  0  0  0  0  0  0  0  0  0  0
   24.3761  -24.5257  -13.3082 N   0  0  0  0  0  0  0  0  0  0  0  0
   23.8198  -23.4731  -14.0850 C   0  0  0  0  0  0  0  0  0  0  0  0
   23.0493  -23.7782  -15.0240 O   0  0  0  0  0  0  0  0  0  0  0  0
   24.1814  -22.0899  -13.7403 C   0  0  0  0  0  0  0  0  0  0  0  0
   25.1038  -22.0936  -12.5251 C   0  0  0  0  0  0  0  0  0  0  0  0
   25.4862  -20.6599  -12.1560 C   0  0  2  0  0  0  0  0  0  0  0  0
   26.2953  -20.1071  -13.2086 N   0  0  0  0  0  0  0  0  0  0  0  0
   26.1532  -20.6414  -10.8430 C   0  0  0  0  0  0  0  0  0  0  0  0
   27.3368  -21.0756  -10.7638 O   0  0  0  0  0  0  0  0  0  0  0  0
   28.3552  -17.9577   -7.1361 C   0  0  0  0  0  0  0  0  0  0  0  0
   27.8216  -19.0900   -7.9694 C   0  0  0  0  0  0  0  0  0  0  0  0
   26.5669  -19.6965   -7.4555 C   0  0  2  0  0  0  0  0  0  0  0  0
   26.7459  -20.2794   -6.0563 C   0  0  0  0  0  0  0  0  0  0  0  0
   25.8832  -20.6815   -8.3243 C   0  0  2  0  0  0  0  0  0  0  0  0
   25.5625  -20.1684   -9.6455 N   0  0  0  0  0  0  0  0  0  0  0  0
   24.7044  -21.2981   -7.7093 C   0  0  0  0  0  0  0  0  0  0  0  0
   23.5613  -21.0293   -8.1238 O   0  0  0  0  0  0  0  0  0  0  0  0
   24.8539  -22.1822   -6.6621 O   0  0  0  0  0  0  0  0  0  0  0  0
  2  1  1  0
  3  2  1  0
  4  5  1  0
  4  3  1  0
  5  7  1  0
  5  6  1  6
  7  8  2  0
 10 12  1  0
 10  9  1  0
 11 10  2  0
 13 12  1  0
 14 13  1  6
 15 14  1  0
 15  7  1  0
 16 14  1  0
 16 17  2  0
 19 18  1  0
 19 20  1  0
 20 22  1  0
 20 21  1  1
 22 23  1  6
 22 24  1  0
 23 16  1  0
 24 25  2  0
 24 26  1  0
M  END
$$$$
