MQI.pdb
     RDKit          3D

 26 25  0  0  1  0  0  0  0  0999 V2000
   16.7096  -15.5135  -14.8214 C   0  0  0  0  0  0  0  0  0  0  0  0
   14.9247  -15.1836  -15.0010 S   0  0  0  0  0  0  0  0  0  0  0  0
   14.6386  -13.4240  -15.3626 C   0  0  0  0  0  0  0  0  0  0  0  0
   15.3357  -12.6299  -14.2817 C   0  0  0  0  0  0  0  0  0  0  0  0
   15.2235  -11.1279  -14.5491 C   0  0  2  0  0  0  0  0  0  0  0  0
   16.0295  -10.8743  -15.7259 N   0  0  0  0  0  0  0  0  0  0  0  0
   15.8078  -10.4522  -13.3628 C   0  0  0  0  0  0  0  0  0  0  0  0
   15.3901  -10.7710  -12.2223 O   0  0  0  0  0  0  0  0  0  0  0  0
   20.4032   -7.3131  -14.6053 N   0  0  0  0  0  0  0  0  0  0  0  0
   20.6356   -8.6515  -14.1864 C   0  0  0  0  0  0  0  0  0  0  0  0
   21.5780   -9.2803  -14.7203 O   0  0  0  0  0  0  0  0  0  0  0  0
   19.7569   -9.2178  -13.1519 C   0  0  0  0  0  0  0  0  0  0  0  0
   18.7267   -8.1735  -12.7330 C   0  0  0  0  0  0  0  0  0  0  0  0
   17.4282   -8.8617  -12.3107 C   0  0  2  0  0  0  0  0  0  0  0  0
   16.8200   -9.4607  -13.4680 N   0  0  0  0  0  0  0  0  0  0  0  0
   16.5487   -7.8970  -11.6287 C   0  0  0  0  0  0  0  0  0  0  0  0
   15.8611   -7.1069  -12.3348 O   0  0  0  0  0  0  0  0  0  0  0  0
   12.4157   -8.8253   -8.8245 C   0  0  0  0  0  0  0  0  0  0  0  0
   13.4668   -8.1268   -9.6422 C   0  0  0  0  0  0  0  0  0  0  0  0
   14.4306   -7.3210   -8.8498 C   0  0  2  0  0  0  0  0  0  0  0  0
   13.7373   -6.2099   -8.0661 C   0  0  0  0  0  0  0  0  0  0  0  0
   15.6052   -6.7714   -9.5645 C   0  0  2  0  0  0  0  0  0  0  0  0
   16.4121   -7.7846  -10.2232 N   0  0  0  0  0  0  0  0  0  0  0  0
   16.4450   -5.8967   -8.7413 C   0  0  0  0  0  0  0  0  0  0  0  0
   17.5195   -6.3130   -8.2690 O   0  0  0  0  0  0  0  0  0  0  0  0
   16.0485   -4.6020   -8.4820 O   0  0  0  0  0  0  0  0  0  0  0  0
  2  1  1  0
  3  2  1  0
  4  5  1  0
  4  3  1  0
  5  7  1  0
  5  6  1  6
  7  8  2  0
 10 12  1  0
 10  9  1  0
 11 10  2  0
 13 12  1  0
 14 13  1  6
 15 14  1  0
 15  7  1  0
 16 14  1  0
 16 17  2  0
 19 18  1  0
 19 20  1  0
 20 22  1  0
 20 21  1  6
 22 23  1  1
 22 24  1  0
 23 16  1  0
 24 25  2  0
 24 26  1  0
M  END
$$$$
