MQI.pdb
     RDKit          3D

 26 25  0  0  1  0  0  0  0  0999 V2000
   27.5484  -17.6648   -8.8221 C   0  0  0  0  0  0  0  0  0  0  0  0
   28.9875  -18.7855   -8.8228 S   0  0  0  0  0  0  0  0  0  0  0  0
   28.4824  -20.4653   -9.3045 C   0  0  0  0  0  0  0  0  0  0  0  0
   27.2741  -20.3251  -10.2018 C   0  0  0  0  0  0  0  0  0  0  0  0
   26.6711  -21.6936  -10.5237 C   0  0  2  0  0  0  0  0  0  0  0  0
   27.6529  -22.3759  -11.3419 N   0  0  0  0  0  0  0  0  0  0  0  0
   25.4367  -21.4278  -11.3054 C   0  0  0  0  0  0  0  0  0  0  0  0
   25.4779  -21.5486  -12.5546 O   0  0  0  0  0  0  0  0  0  0  0  0
   20.5331  -22.6221   -7.4474 N   0  0  0  0  0  0  0  0  0  0  0  0
   20.5731  -21.7871   -8.5972 C   0  0  0  0  0  0  0  0  0  0  0  0
   19.7132  -20.8821   -8.6978 O   0  0  0  0  0  0  0  0  0  0  0  0
   21.6205  -22.0350   -9.5994 C   0  0  0  0  0  0  0  0  0  0  0  0
   21.8254  -20.7794  -10.4414 C   0  0  0  0  0  0  0  0  0  0  0  0
   22.9752  -20.9936  -11.4264 C   0  0  2  0  0  0  0  0  0  0  0  0
   24.2127  -21.0429  -10.6953 N   0  0  0  0  0  0  0  0  0  0  0  0
   22.9539  -19.9425  -12.4578 C   0  0  0  0  0  0  0  0  0  0  0  0
   23.4303  -18.8084  -12.1703 O   0  0  0  0  0  0  0  0  0  0  0  0
   24.5310  -18.7631  -18.0633 C   0  0  0  0  0  0  0  0  0  0  0  0
   23.4953  -18.4317  -17.0245 C   0  0  0  0  0  0  0  0  0  0  0  0
   23.4160  -19.4004  -15.9014 C   0  0  2  0  0  0  0  0  0  0  0  0
   23.1657  -20.8239  -16.3916 C   0  0  0  0  0  0  0  0  0  0  0  0
   22.4860  -19.0817  -14.7941 C   0  0  2  0  0  0  0  0  0  0  0  0
   22.4334  -20.1064  -13.7651 N   0  0  0  0  0  0  0  0  0  0  0  0
   21.1353  -18.7250  -15.2375 C   0  0  0  0  0  0  0  0  0  0  0  0
   20.9504  -17.7321  -15.9661 O   0  0  0  0  0  0  0  0  0  0  0  0
   20.0556  -19.4886  -14.8476 O   0  0  0  0  0  0  0  0  0  0  0  0
  2  1  1  0
  3  2  1  0
  4  5  1  0
  4  3  1  0
  5  7  1  0
  5  6  1  6
  7  8  2  0
 10 12  1  0
 10  9  1  0
 11 10  2  0
 13 12  1  0
 14 13  1  1
 15 14  1  0
 15  7  1  0
 16 14  1  0
 16 17  2  0
 19 18  1  0
 19 20  1  0
 20 22  1  0
 20 21  1  6
 22 23  1  1
 22 24  1  0
 23 16  1  0
 24 25  2  0
 24 26  1  0
M  END
$$$$
