MQI.pdb
     RDKit          3D

 26 25  0  0  1  0  0  0  0  0999 V2000
   21.4341  -31.8174  -11.1969 C   0  0  0  0  0  0  0  0  0  0  0  0
   20.4047  -31.9056  -12.7001 S   0  0  0  0  0  0  0  0  0  0  0  0
   20.6206  -30.4049  -13.7051 C   0  0  0  0  0  0  0  0  0  0  0  0
   20.9202  -29.2714  -12.7511 C   0  0  0  0  0  0  0  0  0  0  0  0
   20.8232  -27.9198  -13.4611 C   0  0  2  0  0  0  0  0  0  0  0  0
   22.1559  -27.6348  -13.9526 N   0  0  0  0  0  0  0  0  0  0  0  0
   20.4301  -26.9345  -12.4220 C   0  0  0  0  0  0  0  0  0  0  0  0
   21.2804  -26.5946  -11.5627 O   0  0  0  0  0  0  0  0  0  0  0  0
   16.3756  -22.3879  -13.0861 N   0  0  0  0  0  0  0  0  0  0  0  0
   16.7423  -22.1761  -11.7291 C   0  0  0  0  0  0  0  0  0  0  0  0
   16.3160  -21.1463  -11.1579 O   0  0  0  0  0  0  0  0  0  0  0  0
   17.5994  -23.1776  -11.0769 C   0  0  0  0  0  0  0  0  0  0  0  0
   17.9597  -24.2688  -12.0805 C   0  0  0  0  0  0  0  0  0  0  0  0
   18.7793  -25.3608  -11.3920 C   0  0  2  0  0  0  0  0  0  0  0  0
   19.1311  -26.3619  -12.3626 N   0  0  0  0  0  0  0  0  0  0  0  0
   18.0290  -25.9035  -10.2468 C   0  0  0  0  0  0  0  0  0  0  0  0
   17.2600  -26.8863  -10.4432 O   0  0  0  0  0  0  0  0  0  0  0  0
   18.4510  -26.5429   -4.1017 C   0  0  0  0  0  0  0  0  0  0  0  0
   17.5834  -26.5718   -5.3296 C   0  0  0  0  0  0  0  0  0  0  0  0
   18.2240  -26.0199   -6.5508 C   0  0  2  0  0  0  0  0  0  0  0  0
   18.8299  -24.6409   -6.3044 C   0  0  0  0  0  0  0  0  0  0  0  0
   17.4148  -25.9966   -7.7907 C   0  0  2  0  0  0  0  0  0  0  0  0
   18.1034  -25.4023   -8.9239 N   0  0  0  0  0  0  0  0  0  0  0  0
   16.0870  -25.3996   -7.6218 C   0  0  0  0  0  0  0  0  0  0  0  0
   15.2267  -25.9596   -6.9167 O   0  0  0  0  0  0  0  0  0  0  0  0
   15.7796  -24.2098   -8.2467 O   0  0  0  0  0  0  0  0  0  0  0  0
  2  1  1  0
  3  2  1  0
  4  5  1  0
  4  3  1  0
  5  7  1  0
  5  6  1  1
  7  8  2  0
 10 12  1  0
 10  9  1  0
 11 10  2  0
 13 12  1  0
 14 13  1  6
 15 14  1  0
 15  7  1  0
 16 14  1  0
 16 17  2  0
 19 18  1  0
 19 20  1  0
 20 22  1  0
 20 21  1  1
 22 23  1  6
 22 24  1  0
 23 16  1  0
 24 25  2  0
 24 26  1  0
M  END
$$$$
