MQI.pdb
     RDKit          3D

 26 25  0  0  1  0  0  0  0  0999 V2000
   24.0976   -9.4811  -23.9861 C   0  0  0  0  0  0  0  0  0  0  0  0
   22.4674  -10.1389  -24.4725 S   0  0  0  0  0  0  0  0  0  0  0  0
   21.8003  -11.2114  -23.1635 C   0  0  0  0  0  0  0  0  0  0  0  0
   21.0640  -10.3188  -22.1909 C   0  0  0  0  0  0  0  0  0  0  0  0
   21.5049  -10.5972  -20.7527 C   0  0  2  0  0  0  0  0  0  0  0  0
   21.4721  -12.0375  -20.6008 N   0  0  0  0  0  0  0  0  0  0  0  0
   20.4888   -9.9585  -19.8781 C   0  0  0  0  0  0  0  0  0  0  0  0
   20.3660   -8.7092  -19.9116 O   0  0  0  0  0  0  0  0  0  0  0  0
   16.2399  -12.9080  -16.2878 N   0  0  0  0  0  0  0  0  0  0  0  0
   15.9101  -11.5502  -16.0263 C   0  0  0  0  0  0  0  0  0  0  0  0
   14.9178  -11.3148  -15.2995 O   0  0  0  0  0  0  0  0  0  0  0  0
   16.7527  -10.5034  -16.6240 C   0  0  0  0  0  0  0  0  0  0  0  0
   17.8585  -11.1521  -17.4512 C   0  0  0  0  0  0  0  0  0  0  0  0
   18.7082  -10.0732  -18.1235 C   0  0  2  0  0  0  0  0  0  0  0  0
   19.6514  -10.7050  -19.0064 N   0  0  0  0  0  0  0  0  0  0  0  0
   19.3489   -9.2299  -17.1000 C   0  0  0  0  0  0  0  0  0  0  0  0
   18.6101   -8.5797  -16.3081 O   0  0  0  0  0  0  0  0  0  0  0  0
   23.3815  -11.4485  -14.4096 C   0  0  0  0  0  0  0  0  0  0  0  0
   22.1831  -10.6600  -14.8606 C   0  0  0  0  0  0  0  0  0  0  0  0
   22.4661   -9.2384  -15.1846 C   0  0  2  0  0  0  0  0  0  0  0  0
   23.0509   -8.4865  -13.9920 C   0  0  0  0  0  0  0  0  0  0  0  0
   21.3682   -8.4471  -15.7854 C   0  0  2  0  0  0  0  0  0  0  0  0
   20.7485   -9.0890  -16.9325 N   0  0  0  0  0  0  0  0  0  0  0  0
   21.7378   -7.0651  -16.1038 C   0  0  0  0  0  0  0  0  0  0  0  0
   22.1217   -6.7609  -17.2488 O   0  0  0  0  0  0  0  0  0  0  0  0
   21.6642   -6.0888  -15.1332 O   0  0  0  0  0  0  0  0  0  0  0  0
  2  1  1  0
  3  2  1  0
  4  5  1  0
  4  3  1  0
  5  7  1  0
  5  6  1  6
  7  8  2  0
 10 12  1  0
 10  9  1  0
 11 10  2  0
 13 12  1  0
 14 13  1  1
 15 14  1  0
 15  7  1  0
 16 14  1  0
 16 17  2  0
 19 18  1  0
 19 20  1  0
 20 22  1  0
 20 21  1  1
 22 23  1  6
 22 24  1  0
 23 16  1  0
 24 25  2  0
 24 26  1  0
M  END
$$$$
