MQI.pdb
     RDKit          3D

 26 25  0  0  1  0  0  0  0  0999 V2000
   29.5291  -19.0596  -12.4774 C   0  0  0  0  0  0  0  0  0  0  0  0
   29.7363  -20.5989  -11.5211 S   0  0  0  0  0  0  0  0  0  0  0  0
   28.1357  -21.1538  -10.8586 C   0  0  0  0  0  0  0  0  0  0  0  0
   27.1433  -21.1057  -11.9977 C   0  0  0  0  0  0  0  0  0  0  0  0
   25.7301  -21.4220  -11.5047 C   0  0  2  0  0  0  0  0  0  0  0  0
   25.7590  -22.8080  -11.0839 N   0  0  0  0  0  0  0  0  0  0  0  0
   24.8357  -21.2529  -12.6779 C   0  0  0  0  0  0  0  0  0  0  0  0
   24.9444  -22.0551  -13.6380 O   0  0  0  0  0  0  0  0  0  0  0  0
   20.0367  -21.2070  -14.9186 N   0  0  0  0  0  0  0  0  0  0  0  0
   20.1918  -21.5991  -13.5610 C   0  0  0  0  0  0  0  0  0  0  0  0
   19.6085  -22.6392  -13.1784 O   0  0  0  0  0  0  0  0  0  0  0  0
   21.0270  -20.7614  -12.6873 C   0  0  0  0  0  0  0  0  0  0  0  0
   21.6439  -19.6311  -13.5056 C   0  0  0  0  0  0  0  0  0  0  0  0
   23.0625  -20.0100  -13.9323 C   0  0  2  0  0  0  0  0  0  0  0  0
   23.8629  -20.2203  -12.7562 N   0  0  0  0  0  0  0  0  0  0  0  0
   23.6096  -18.9761  -14.8272 C   0  0  0  0  0  0  0  0  0  0  0  0
   23.8619  -17.8360  -14.3453 O   0  0  0  0  0  0  0  0  0  0  0  0
   28.1333  -19.1444  -17.3054 C   0  0  0  0  0  0  0  0  0  0  0  0
   26.8078  -18.8219  -16.6728 C   0  0  0  0  0  0  0  0  0  0  0  0
   25.7407  -18.4440  -17.6344 C   0  0  2  0  0  0  0  0  0  0  0  0
   26.1871  -17.3253  -18.5719 C   0  0  0  0  0  0  0  0  0  0  0  0
   24.4057  -18.1274  -17.0776 C   0  0  2  0  0  0  0  0  0  0  0  0
   23.8784  -19.1632  -16.2055 N   0  0  0  0  0  0  0  0  0  0  0  0
   23.4149  -17.7499  -18.0894 C   0  0  0  0  0  0  0  0  0  0  0  0
   22.8049  -18.6235  -18.7341 O   0  0  0  0  0  0  0  0  0  0  0  0
   23.1515  -16.4193  -18.3363 O   0  0  0  0  0  0  0  0  0  0  0  0
  2  1  1  0
  3  2  1  0
  4  5  1  0
  4  3  1  0
  5  7  1  0
  5  6  1  6
  7  8  2  0
 10 12  1  0
 10  9  1  0
 11 10  2  0
 13 12  1  0
 14 13  1  1
 15 14  1  0
 15  7  1  0
 16 14  1  0
 16 17  2  0
 19 18  1  0
 19 20  1  0
 20 22  1  0
 20 21  1  1
 22 23  1  6
 22 24  1  0
 23 16  1  0
 24 25  2  0
 24 26  1  0
M  END
$$$$
