IRE.pdb
     RDKit          3D

 29 28  0  0  1  0  0  0  0  0999 V2000
    6.8938  -10.8183   27.5792 C   0  0  0  0  0  0  0  0  0  0  0  0
    6.1901  -11.8596   26.7474 C   0  0  0  0  0  0  0  0  0  0  0  0
    7.1511  -12.9535   26.3184 C   0  0  2  0  0  0  0  0  0  0  0  0
    8.2787  -12.2847   25.6095 C   0  0  0  0  0  0  0  0  0  0  0  0
    6.3473  -13.9138   25.4694 C   0  0  2  0  0  0  0  0  0  0  0  0
    5.3557  -14.4738   26.4110 N   0  0  0  0  0  0  0  0  0  0  0  0
    7.1181  -15.0764   24.9890 C   0  0  0  0  0  0  0  0  0  0  0  0
    7.3971  -16.0862   25.7065 O   0  0  0  0  0  0  0  0  0  0  0  0
    8.2227  -19.6163   18.3775 N   0  0  0  0  0  0  0  0  0  0  0  0
    9.3035  -18.7426   18.0248 C   0  0  0  0  0  0  0  0  0  0  0  0
   10.2992  -19.2546   17.3804 N   0  0  0  0  0  0  0  0  0  0  0  0
    9.2678  -17.3641   18.3780 N   0  0  0  0  0  0  0  0  0  0  0  0
    8.2682  -16.9504   19.3157 C   0  0  0  0  0  0  0  0  0  0  0  0
    8.7009  -17.1936   20.7693 C   0  0  0  0  0  0  0  0  0  0  0  0
    8.0704  -16.1373   21.6008 C   0  0  0  0  0  0  0  0  0  0  0  0
    8.2872  -16.2537   23.0917 C   0  0  2  0  0  0  0  0  0  0  0  0
    7.5836  -15.0901   23.6544 N   0  0  0  0  0  0  0  0  0  0  0  0
    9.6843  -16.2807   23.5180 C   0  0  0  0  0  0  0  0  0  0  0  0
   10.3316  -15.1771   23.4282 O   0  0  0  0  0  0  0  0  0  0  0  0
   11.1436  -18.7099   17.1258 N   0  0  0  0  0  0  0  0  0  0  0  0
   10.3569  -17.3980   24.0111 C   0  0  2  0  0  0  0  0  0  0  0  0
   11.7767  -17.3101   24.4174 C   0  0  0  0  0  0  0  0  0  0  0  0
   11.9063  -18.3040   25.5140 C   0  0  0  0  0  0  0  0  0  0  0  0
   11.1882  -17.9187   26.7506 C   0  0  0  0  0  0  0  0  0  0  0  0
   11.3403  -18.9459   27.7957 O   0  0  0  0  0  0  0  0  0  0  0  0
   12.4736  -19.4860   27.9670 C   0  0  0  0  0  0  0  0  0  0  0  0
   12.5909  -17.4111   23.2272 O   0  0  0  0  0  0  0  0  0  0  0  0
   13.7644  -16.6718   23.1010 O   0  0  0  0  0  0  0  0  0  0  0  0
   10.2669  -19.3354   28.5983 O   0  0  0  0  0  0  0  0  0  0  0  0
  1  2  1  0
  3  4  1  6
  3  2  1  0
  5  6  1  1
  5  3  1  0
  7  5  1  0
  8  7  2  0
  9 10  1  0
 10 12  1  0
 11 10  2  0
 12 13  1  0
 13 14  1  0
 14 15  1  0
 16 15  1  6
 16 18  1  0
 16 17  1  0
 17  7  1  0
 18 19  2  0
 20 21  1  0
 20 18  1  0
 22 23  1  0
 21 22  1  1
 24 25  2  0
 24 23  1  0
 26 27  1  0
 26 21  1  0
 28 24  1  0
 29 26  2  0
M  END
$$$$
