IRE.pdb
     RDKit          3D

 29 28  0  0  1  0  0  0  0  0999 V2000
    6.4239  -11.7747   28.1333 C   0  0  0  0  0  0  0  0  0  0  0  0
    5.8531  -12.7360   27.1228 C   0  0  0  0  0  0  0  0  0  0  0  0
    6.9568  -13.3984   26.3182 C   0  0  2  0  0  0  0  0  0  0  0  0
    7.7794  -12.3036   25.7299 C   0  0  0  0  0  0  0  0  0  0  0  0
    6.2676  -14.2886   25.3074 C   0  0  2  0  0  0  0  0  0  0  0  0
    5.6014  -15.3149   26.1357 N   0  0  0  0  0  0  0  0  0  0  0  0
    7.1959  -15.0394   24.4407 C   0  0  0  0  0  0  0  0  0  0  0  0
    7.6924  -16.1678   24.7451 O   0  0  0  0  0  0  0  0  0  0  0  0
    8.1671  -12.7683   16.6393 N   0  0  0  0  0  0  0  0  0  0  0  0
    8.2857  -14.1707   16.3649 C   0  0  0  0  0  0  0  0  0  0  0  0
    8.0158  -14.5695   15.1662 N   0  0  0  0  0  0  0  0  0  0  0  0
    8.6868  -15.0789   17.3850 N   0  0  0  0  0  0  0  0  0  0  0  0
    9.0244  -14.5271   18.6622 C   0  0  0  0  0  0  0  0  0  0  0  0
    8.1057  -15.0457   19.7788 C   0  0  0  0  0  0  0  0  0  0  0  0
    8.4932  -14.3467   21.0302 C   0  0  0  0  0  0  0  0  0  0  0  0
    8.4922  -15.1895   22.2844 C   0  0  2  0  0  0  0  0  0  0  0  0
    7.5687  -14.4908   23.1925 N   0  0  0  0  0  0  0  0  0  0  0  0
    9.7996  -15.3804   22.9079 C   0  0  0  0  0  0  0  0  0  0  0  0
   10.3566  -14.3356   23.4011 O   0  0  0  0  0  0  0  0  0  0  0  0
    7.9890  -15.5709   14.8997 N   0  0  0  0  0  0  0  0  0  0  0  0
   10.4766  -16.5950   23.0091 C   0  0  2  0  0  0  0  0  0  0  0  0
   11.8104  -16.6689   23.6449 C   0  0  0  0  0  0  0  0  0  0  0  0
   11.7145  -17.8325   24.5637 C   0  0  0  0  0  0  0  0  0  0  0  0
   10.6853  -17.6725   25.6165 C   0  0  0  0  0  0  0  0  0  0  0  0
   10.7015  -18.8097   26.5529 O   0  0  0  0  0  0  0  0  0  0  0  0
   11.7932  -19.1334   27.1086 C   0  0  0  0  0  0  0  0  0  0  0  0
   12.8081  -16.6319   22.5994 O   0  0  0  0  0  0  0  0  0  0  0  0
   14.1576  -16.4767   22.9068 O   0  0  0  0  0  0  0  0  0  0  0  0
    9.5445  -19.5355   26.8404 O   0  0  0  0  0  0  0  0  0  0  0  0
  1  2  1  0
  3  4  1  6
  3  2  1  0
  5  6  1  1
  5  3  1  0
  7  5  1  0
  8  7  2  0
  9 10  1  0
 10 12  1  0
 11 10  2  0
 12 13  1  0
 13 14  1  0
 14 15  1  0
 16 15  1  6
 16 18  1  0
 16 17  1  0
 17  7  1  0
 18 19  2  0
 20 21  1  0
 20 18  1  0
 22 23  1  0
 21 22  1  1
 24 25  2  0
 24 23  1  0
 26 27  1  0
 26 21  1  0
 28 24  1  0
 29 26  2  0
M  END
$$$$
