IRE.pdb
     RDKit          3D

 29 28  0  0  1  0  0  0  0  0999 V2000
    7.2053  -11.6612   27.9712 C   0  0  0  0  0  0  0  0  0  0  0  0
    6.4315  -12.6911   27.1890 C   0  0  0  0  0  0  0  0  0  0  0  0
    7.3374  -13.4355   26.2249 C   0  0  2  0  0  0  0  0  0  0  0  0
    8.0508  -12.4047   25.4188 C   0  0  0  0  0  0  0  0  0  0  0  0
    6.4406  -14.3569   25.4274 C   0  0  2  0  0  0  0  0  0  0  0  0
    6.0314  -15.3862   26.4054 N   0  0  0  0  0  0  0  0  0  0  0  0
    7.1412  -15.0983   24.3616 C   0  0  0  0  0  0  0  0  0  0  0  0
    7.6922  -16.2298   24.5311 O   0  0  0  0  0  0  0  0  0  0  0  0
    8.1979  -13.2308   16.3463 N   0  0  0  0  0  0  0  0  0  0  0  0
    8.7971  -14.5302   16.4383 C   0  0  0  0  0  0  0  0  0  0  0  0
    9.8326  -14.7637   15.7021 N   0  0  0  0  0  0  0  0  0  0  0  0
    8.2605  -15.5171   17.3126 N   0  0  0  0  0  0  0  0  0  0  0  0
    7.5865  -15.0579   18.4893 C   0  0  0  0  0  0  0  0  0  0  0  0
    8.5685  -14.6079   19.5814 C   0  0  0  0  0  0  0  0  0  0  0  0
    7.7683  -14.2863   20.7901 C   0  0  0  0  0  0  0  0  0  0  0  0
    8.0344  -15.1441   22.0053 C   0  0  2  0  0  0  0  0  0  0  0  0
    7.2161  -14.5365   23.0668 N   0  0  0  0  0  0  0  0  0  0  0  0
    9.4357  -15.2360   22.4085 C   0  0  0  0  0  0  0  0  0  0  0  0
   10.0089  -14.1377   22.7405 O   0  0  0  0  0  0  0  0  0  0  0  0
   10.3413  -15.6668   15.7179 N   0  0  0  0  0  0  0  0  0  0  0  0
   10.1854  -16.4102   22.4621 C   0  0  2  0  0  0  0  0  0  0  0  0
   11.6384  -16.3701   22.7375 C   0  0  0  0  0  0  0  0  0  0  0  0
   11.9227  -17.6710   23.3963 C   0  0  0  0  0  0  0  0  0  0  0  0
   11.1652  -17.8770   24.6520 C   0  0  0  0  0  0  0  0  0  0  0  0
   11.4366  -19.2071   25.2245 O   0  0  0  0  0  0  0  0  0  0  0  0
   12.1568  -19.2943   26.2633 C   0  0  0  0  0  0  0  0  0  0  0  0
   12.3160  -15.9952   21.5168 O   0  0  0  0  0  0  0  0  0  0  0  0
   13.6073  -15.4745   21.5489 O   0  0  0  0  0  0  0  0  0  0  0  0
   10.9191  -20.3689   24.6496 O   0  0  0  0  0  0  0  0  0  0  0  0
  1  2  1  0
  3  4  1  6
  3  2  1  0
  5  6  1  1
  5  3  1  0
  7  5  1  0
  8  7  2  0
  9 10  1  0
 10 12  1  0
 11 10  2  0
 12 13  1  0
 13 14  1  0
 14 15  1  0
 16 15  1  6
 16 18  1  0
 16 17  1  0
 17  7  1  0
 18 19  2  0
 20 21  1  0
 20 18  1  0
 22 23  1  0
 21 22  1  6
 24 25  2  0
 24 23  1  0
 26 27  1  0
 26 21  1  0
 28 24  1  0
 29 26  2  0
M  END
$$$$
