IRE.pdb
     RDKit          3D

 29 28  0  0  1  0  0  0  0  0999 V2000
    6.3799  -11.8770   28.0351 C   0  0  0  0  0  0  0  0  0  0  0  0
    5.8882  -12.9363   27.0825 C   0  0  0  0  0  0  0  0  0  0  0  0
    7.0059  -13.4088   26.1705 C   0  0  2  0  0  0  0  0  0  0  0  0
    7.5770  -12.1946   25.5219 C   0  0  0  0  0  0  0  0  0  0  0  0
    6.3818  -14.4042   25.2171 C   0  0  2  0  0  0  0  0  0  0  0  0
    6.0287  -15.5491   26.0820 N   0  0  0  0  0  0  0  0  0  0  0  0
    7.3242  -14.9518   24.2229 C   0  0  0  0  0  0  0  0  0  0  0  0
    8.1074  -15.9249   24.4509 O   0  0  0  0  0  0  0  0  0  0  0  0
    9.7169  -15.0503   17.3272 N   0  0  0  0  0  0  0  0  0  0  0  0
    8.6334  -14.4971   16.5683 C   0  0  0  0  0  0  0  0  0  0  0  0
    8.4516  -14.9476   15.3713 N   0  0  0  0  0  0  0  0  0  0  0  0
    7.7967  -13.4891   17.1254 N   0  0  0  0  0  0  0  0  0  0  0  0
    8.0264  -13.1230   18.4903 C   0  0  0  0  0  0  0  0  0  0  0  0
    8.1285  -14.3491   19.4100 C   0  0  0  0  0  0  0  0  0  0  0  0
    8.2354  -13.8484   20.8038 C   0  0  0  0  0  0  0  0  0  0  0  0
    8.2626  -14.9045   21.8842 C   0  0  2  0  0  0  0  0  0  0  0  0
    7.3759  -14.3760   22.9330 N   0  0  0  0  0  0  0  0  0  0  0  0
    9.5861  -15.2135   22.4204 C   0  0  0  0  0  0  0  0  0  0  0  0
   10.1258  -14.3184   23.1637 O   0  0  0  0  0  0  0  0  0  0  0  0
    7.6828  -14.6197   14.7581 N   0  0  0  0  0  0  0  0  0  0  0  0
   10.2953  -16.3918   22.1915 C   0  0  2  0  0  0  0  0  0  0  0  0
   11.6167  -16.6152   22.8180 C   0  0  0  0  0  0  0  0  0  0  0  0
   11.4160  -17.8070   23.6821 C   0  0  0  0  0  0  0  0  0  0  0  0
   12.6743  -18.3513   24.2420 C   0  0  0  0  0  0  0  0  0  0  0  0
   12.4167  -19.5438   25.0678 O   0  0  0  0  0  0  0  0  0  0  0  0
   11.6561  -19.4412   26.0760 C   0  0  0  0  0  0  0  0  0  0  0  0
   12.6142  -16.6194   21.7717 O   0  0  0  0  0  0  0  0  0  0  0  0
   13.6145  -15.6510   21.7360 O   0  0  0  0  0  0  0  0  0  0  0  0
   12.9899  -20.7797   24.7646 O   0  0  0  0  0  0  0  0  0  0  0  0
  1  2  1  0
  3  4  1  6
  3  2  1  0
  5  6  1  1
  5  3  1  0
  7  5  1  0
  8  7  2  0
  9 10  1  0
 10 12  1  0
 11 10  2  0
 12 13  1  0
 13 14  1  0
 14 15  1  0
 16 15  1  6
 16 18  1  0
 16 17  1  0
 17  7  1  0
 18 19  2  0
 20 21  1  0
 20 18  1  0
 22 23  1  0
 21 22  1  1
 24 25  2  0
 24 23  1  0
 26 27  1  0
 26 21  1  0
 28 24  1  0
 29 26  2  0
M  END
$$$$
