IRE.pdb
     RDKit          3D

 29 28  0  0  1  0  0  0  0  0999 V2000
    8.3460  -12.2139   26.9951 C   0  0  0  0  0  0  0  0  0  0  0  0
    7.7792  -13.5797   26.7041 C   0  0  0  0  0  0  0  0  0  0  0  0
    6.6997  -13.5052   25.6396 C   0  0  2  0  0  0  0  0  0  0  0  0
    5.6345  -12.6056   26.1664 C   0  0  0  0  0  0  0  0  0  0  0  0
    6.2589  -14.9297   25.3835 C   0  0  2  0  0  0  0  0  0  0  0  0
    6.1056  -15.5015   26.7373 N   0  0  0  0  0  0  0  0  0  0  0  0
    7.2843  -15.7645   24.7292 C   0  0  0  0  0  0  0  0  0  0  0  0
    8.0617  -16.5503   25.3541 O   0  0  0  0  0  0  0  0  0  0  0  0
    7.3603  -13.5874   16.7243 N   0  0  0  0  0  0  0  0  0  0  0  0
    8.5669  -13.4787   17.4913 C   0  0  0  0  0  0  0  0  0  0  0  0
    9.0584  -12.2970   17.6667 N   0  0  0  0  0  0  0  0  0  0  0  0
    9.1897  -14.6381   18.0336 N   0  0  0  0  0  0  0  0  0  0  0  0
    8.4098  -15.4530   18.9152 C   0  0  0  0  0  0  0  0  0  0  0  0
    8.9648  -15.4529   20.3475 C   0  0  0  0  0  0  0  0  0  0  0  0
    8.0968  -16.3443   21.1580 C   0  0  0  0  0  0  0  0  0  0  0  0
    8.4641  -16.4739   22.6180 C   0  0  2  0  0  0  0  0  0  0  0  0
    7.4281  -15.7036   23.3243 N   0  0  0  0  0  0  0  0  0  0  0  0
    9.8016  -16.0019   22.9684 C   0  0  0  0  0  0  0  0  0  0  0  0
    9.9478  -14.7333   23.0879 O   0  0  0  0  0  0  0  0  0  0  0  0
    9.9510  -12.1280   18.1660 N   0  0  0  0  0  0  0  0  0  0  0  0
   10.9144  -16.8141   23.1828 C   0  0  2  0  0  0  0  0  0  0  0  0
   12.2198  -16.2279   23.5580 C   0  0  0  0  0  0  0  0  0  0  0  0
   12.4975  -16.7849   24.9071 C   0  0  0  0  0  0  0  0  0  0  0  0
   12.9874  -18.1822   24.8816 C   0  0  0  0  0  0  0  0  0  0  0  0
   12.9383  -18.7873   26.2239 O   0  0  0  0  0  0  0  0  0  0  0  0
   13.9603  -18.7142   26.9694 C   0  0  0  0  0  0  0  0  0  0  0  0
   13.1398  -16.4449   22.4642 O   0  0  0  0  0  0  0  0  0  0  0  0
   12.6713  -16.6665   21.1716 O   0  0  0  0  0  0  0  0  0  0  0  0
   11.7945  -19.4368   26.6908 O   0  0  0  0  0  0  0  0  0  0  0  0
  1  2  1  0
  3  4  1  1
  3  2  1  0
  5  6  1  1
  5  3  1  0
  7  5  1  0
  8  7  2  0
  9 10  1  0
 10 12  1  0
 11 10  2  0
 12 13  1  0
 13 14  1  0
 14 15  1  0
 16 15  1  6
 16 18  1  0
 16 17  1  0
 17  7  1  0
 18 19  2  0
 20 21  1  0
 20 18  1  0
 22 23  1  0
 21 22  1  6
 24 25  2  0
 24 23  1  0
 26 27  1  0
 26 21  1  0
 28 24  1  0
 29 26  2  0
M  END
$$$$
