IRE.pdb
     RDKit          3D

 29 28  0  0  1  0  0  0  0  0999 V2000
    6.5604  -11.5252   27.2848 C   0  0  0  0  0  0  0  0  0  0  0  0
    6.1173  -12.5344   26.2569 C   0  0  0  0  0  0  0  0  0  0  0  0
    7.2631  -13.4493   25.8639 C   0  0  2  0  0  0  0  0  0  0  0  0
    8.3072  -12.5898   25.2376 C   0  0  0  0  0  0  0  0  0  0  0  0
    6.6715  -14.4990   24.9488 C   0  0  2  0  0  0  0  0  0  0  0  0
    5.6458  -15.1585   25.7832 N   0  0  0  0  0  0  0  0  0  0  0  0
    7.6147  -15.5724   24.5817 C   0  0  0  0  0  0  0  0  0  0  0  0
    8.0164  -16.4679   25.3874 O   0  0  0  0  0  0  0  0  0  0  0  0
    6.3498  -13.7907   18.8835 N   0  0  0  0  0  0  0  0  0  0  0  0
    7.6808  -13.5327   18.4170 C   0  0  0  0  0  0  0  0  0  0  0  0
    7.9171  -12.3742   17.8965 N   0  0  0  0  0  0  0  0  0  0  0  0
    8.6949  -14.5254   18.5292 N   0  0  0  0  0  0  0  0  0  0  0  0
    8.3577  -15.7364   19.2143 C   0  0  0  0  0  0  0  0  0  0  0  0
    8.2586  -15.5346   20.7338 C   0  0  0  0  0  0  0  0  0  0  0  0
    9.2600  -16.4310   21.3650 C   0  0  0  0  0  0  0  0  0  0  0  0
    9.1400  -16.6048   22.8612 C   0  0  2  0  0  0  0  0  0  0  0  0
    8.1138  -15.6284   23.2604 N   0  0  0  0  0  0  0  0  0  0  0  0
   10.3768  -16.4055   23.6129 C   0  0  0  0  0  0  0  0  0  0  0  0
   10.7521  -15.1913   23.7861 O   0  0  0  0  0  0  0  0  0  0  0  0
    8.8135  -12.1390   17.4321 N   0  0  0  0  0  0  0  0  0  0  0  0
   11.1672  -17.4200   24.1513 C   0  0  1  0  0  0  0  0  0  0  0  0
   12.4369  -17.1059   24.8426 C   0  0  0  0  0  0  0  0  0  0  0  0
   12.2371  -17.6134   26.2245 C   0  0  0  0  0  0  0  0  0  0  0  0
   12.1722  -19.0905   26.3094 C   0  0  0  0  0  0  0  0  0  0  0  0
   12.1084  -19.5402   27.7109 O   0  0  0  0  0  0  0  0  0  0  0  0
   13.0586  -19.2449   28.4954 C   0  0  0  0  0  0  0  0  0  0  0  0
   13.5250  -17.5936   24.0253 O   0  0  0  0  0  0  0  0  0  0  0  0
   14.8486  -17.4169   24.4207 O   0  0  0  0  0  0  0  0  0  0  0  0
   11.0279  -20.2815   28.1915 O   0  0  0  0  0  0  0  0  0  0  0  0
  1  2  1  0
  3  4  1  6
  3  2  1  0
  5  6  1  1
  5  3  1  0
  7  5  1  0
  8  7  2  0
  9 10  1  0
 10 12  1  0
 11 10  2  0
 12 13  1  0
 13 14  1  0
 14 15  1  0
 16 15  1  6
 16 18  1  0
 16 17  1  0
 17  7  1  0
 18 19  2  0
 20 21  1  0
 20 18  1  0
 22 23  1  0
 21 22  1  6
 24 25  2  0
 24 23  1  0
 26 27  1  0
 26 21  1  0
 28 24  1  0
 29 26  2  0
M  END
$$$$
