IRE.pdb
     RDKit          3D

 29 28  0  0  1  0  0  0  0  0999 V2000
    6.6906  -12.0058   28.3254 C   0  0  0  0  0  0  0  0  0  0  0  0
    6.0052  -13.0608   27.4956 C   0  0  0  0  0  0  0  0  0  0  0  0
    6.9602  -13.6577   26.4778 C   0  0  2  0  0  0  0  0  0  0  0  0
    7.4485  -12.5323   25.6314 C   0  0  0  0  0  0  0  0  0  0  0  0
    6.1779  -14.7184   25.7347 C   0  0  2  0  0  0  0  0  0  0  0  0
    5.8551  -15.7151   26.7767 N   0  0  0  0  0  0  0  0  0  0  0  0
    6.9717  -15.4551   24.7329 C   0  0  0  0  0  0  0  0  0  0  0  0
    7.7964  -16.3764   25.0216 O   0  0  0  0  0  0  0  0  0  0  0  0
    8.7691  -12.2916   17.3882 N   0  0  0  0  0  0  0  0  0  0  0  0
    8.3512  -13.6382   17.1277 C   0  0  0  0  0  0  0  0  0  0  0  0
    7.4659  -13.8207   16.2047 N   0  0  0  0  0  0  0  0  0  0  0  0
    8.8994  -14.7245   17.8663 N   0  0  0  0  0  0  0  0  0  0  0  0
    8.0484  -15.3673   18.8215 C   0  0  0  0  0  0  0  0  0  0  0  0
    7.9519  -14.5778   20.1356 C   0  0  0  0  0  0  0  0  0  0  0  0
    7.0122  -15.3093   21.0226 C   0  0  0  0  0  0  0  0  0  0  0  0
    7.5937  -15.8246   22.3186 C   0  0  2  0  0  0  0  0  0  0  0  0
    6.8220  -15.1344   23.3644 N   0  0  0  0  0  0  0  0  0  0  0  0
    9.0276  -15.6029   22.4899 C   0  0  0  0  0  0  0  0  0  0  0  0
    9.3835  -14.4344   22.8808 O   0  0  0  0  0  0  0  0  0  0  0  0
    7.0767  -14.7538   15.9759 N   0  0  0  0  0  0  0  0  0  0  0  0
   10.0240  -16.5524   22.2670 C   0  0  2  0  0  0  0  0  0  0  0  0
   11.3788  -16.3773   22.8350 C   0  0  0  0  0  0  0  0  0  0  0  0
   11.3924  -17.2607   24.0295 C   0  0  0  0  0  0  0  0  0  0  0  0
   12.7264  -17.3821   24.6611 C   0  0  0  0  0  0  0  0  0  0  0  0
   12.6975  -18.3334   25.7857 O   0  0  0  0  0  0  0  0  0  0  0  0
   11.6243  -18.9594   26.0344 C   0  0  0  0  0  0  0  0  0  0  0  0
   12.3387  -16.5589   21.7695 O   0  0  0  0  0  0  0  0  0  0  0  0
   13.6331  -16.0575   21.8826 O   0  0  0  0  0  0  0  0  0  0  0  0
   13.8226  -18.5594   26.5801 O   0  0  0  0  0  0  0  0  0  0  0  0
  1  2  1  0
  3  4  1  6
  3  2  1  0
  5  6  1  1
  5  3  1  0
  7  5  1  0
  8  7  2  0
  9 10  1  0
 10 12  1  0
 11 10  2  0
 12 13  1  0
 13 14  1  0
 14 15  1  0
 16 15  1  6
 16 18  1  0
 16 17  1  0
 17  7  1  0
 18 19  2  0
 20 21  1  0
 20 18  1  0
 22 23  1  0
 21 22  1  1
 24 25  2  0
 24 23  1  0
 26 27  1  0
 26 21  1  0
 28 24  1  0
 29 26  2  0
M  END
$$$$
