THK.pdb
     RDKit          3D

 27 27  0  0  1  0  0  0  0  0999 V2000
    8.8428  -16.5797   17.6941 C   0  0  0  0  0  0  0  0  0  0  0  0
    8.9310  -15.2142   17.0475 C   0  0  1  0  0  0  0  0  0  0  0  0
    8.5783  -15.2403   15.7075 O   0  0  0  0  0  0  0  0  0  0  0  0
    8.0717  -14.1943   17.7553 C   0  0  2  0  0  0  0  0  0  0  0  0
    8.0499  -12.9187   17.1025 N   0  0  0  0  0  0  0  0  0  0  0  0
    8.4084  -14.0898   19.1985 C   0  0  0  0  0  0  0  0  0  0  0  0
    9.5190  -13.5745   19.5001 O   0  0  0  0  0  0  0  0  0  0  0  0
    7.5781  -14.5235   20.2340 N   0  0  0  0  0  0  0  0  0  0  0  0
    8.0084  -14.4827   21.6793 C   0  0  1  0  0  0  0  0  0  0  0  0
    6.7527  -14.7018   22.4236 C   0  0  0  0  0  0  0  0  0  0  0  0
    6.7775  -15.0343   23.8310 C   0  0  0  0  0  0  0  0  0  0  0  0
    7.2542  -14.0647   24.7471 C   0  0  0  0  0  0  0  0  0  0  0  0
    7.1943  -14.5616   25.9679 N   0  0  0  0  0  0  0  0  0  0  0  0
    6.7030  -15.8026   25.8838 C   0  0  0  0  0  0  0  0  0  0  0  0
    6.4580  -16.0697   24.5901 N   0  0  0  0  0  0  0  0  0  0  0  0
    8.9938  -15.5761   21.8567 C   0  0  0  0  0  0  0  0  0  0  0  0
    8.7718  -16.6666   21.2083 O   0  0  0  0  0  0  0  0  0  0  0  0
   10.1465  -15.5567   22.6487 N   0  0  0  0  0  0  0  0  0  0  0  0
   10.9505  -16.7650   22.9001 C   0  0  1  0  0  0  0  0  0  0  0  0
   12.3902  -16.3362   22.7815 C   0  0  0  0  0  0  0  0  0  0  0  0
   13.3905  -17.4027   23.0841 C   0  0  0  0  0  0  0  0  0  0  0  0
   14.8187  -16.9270   22.9286 C   0  0  0  0  0  0  0  0  0  0  0  0
   15.7810  -18.0383   23.2572 C   0  0  0  0  0  0  0  0  0  0  0  0
   17.1309  -17.6110   22.9239 N   0  0  0  0  0  0  0  0  0  0  0  0
   10.6463  -17.3010   24.2407 C   0  0  0  0  0  0  0  0  0  0  0  0
   10.9193  -18.5880   24.6499 O   0  0  0  0  0  0  0  0  0  0  0  0
   10.0954  -16.5457   25.0890 O   0  0  0  0  0  0  0  0  0  0  0  0
  2  1  1  1
  2  3  1  0
  4  2  1  0
  4  5  1  6
  6  7  2  0
  6  4  1  0
  8  6  1  0
  9  8  1  0
  9 10  1  1
 11 10  1  0
 12 11  2  0
 13 14  1  0
 13 12  1  0
 14 15  2  0
 15 11  1  0
 16  9  1  0
 17 16  2  0
 18 16  1  0
 19 18  1  0
 19 20  1  1
 21 22  1  0
 21 20  1  0
 23 24  1  0
 23 22  1  0
 25 26  1  0
 25 19  1  0
 27 25  2  0
M  END
$$$$
