THK.pdb
     RDKit          3D

 27 27  0  0  1  0  0  0  0  0999 V2000
    8.7717  -16.6739   17.3743 C   0  0  0  0  0  0  0  0  0  0  0  0
    8.9497  -15.2348   16.9412 C   0  0  1  0  0  0  0  0  0  0  0  0
    8.7233  -15.0593   15.5852 O   0  0  0  0  0  0  0  0  0  0  0  0
    8.0506  -14.2955   17.7085 C   0  0  2  0  0  0  0  0  0  0  0  0
    8.0445  -12.9611   17.1858 N   0  0  0  0  0  0  0  0  0  0  0  0
    8.3232  -14.3342   19.1684 C   0  0  0  0  0  0  0  0  0  0  0  0
    9.3529  -13.7360   19.5831 O   0  0  0  0  0  0  0  0  0  0  0  0
    7.5166  -14.9867   20.1029 N   0  0  0  0  0  0  0  0  0  0  0  0
    7.8592  -15.0258   21.5715 C   0  0  1  0  0  0  0  0  0  0  0  0
    6.6709  -15.6450   22.1907 C   0  0  0  0  0  0  0  0  0  0  0  0
    6.6772  -16.0193   23.5878 C   0  0  0  0  0  0  0  0  0  0  0  0
    7.6482  -15.4378   24.4397 C   0  0  0  0  0  0  0  0  0  0  0  0
    7.4833  -15.9073   25.6616 N   0  0  0  0  0  0  0  0  0  0  0  0
    6.4550  -16.7620   25.6392 C   0  0  0  0  0  0  0  0  0  0  0  0
    5.9825  -16.8165   24.3827 N   0  0  0  0  0  0  0  0  0  0  0  0
    9.0837  -15.8521   21.6969 C   0  0  0  0  0  0  0  0  0  0  0  0
    9.1024  -16.9624   21.0445 O   0  0  0  0  0  0  0  0  0  0  0  0
   10.2298  -15.5593   22.4433 N   0  0  0  0  0  0  0  0  0  0  0  0
   11.3065  -16.5425   22.6525 C   0  0  1  0  0  0  0  0  0  0  0  0
   12.5793  -15.7441   22.7670 C   0  0  0  0  0  0  0  0  0  0  0  0
   13.7426  -16.3051   22.0176 C   0  0  0  0  0  0  0  0  0  0  0  0
   13.5395  -17.7505   21.6178 C   0  0  0  0  0  0  0  0  0  0  0  0
   14.7047  -18.2366   20.7962 C   0  0  0  0  0  0  0  0  0  0  0  0
   14.4369  -19.5953   20.3506 N   0  0  0  0  0  0  0  0  0  0  0  0
   11.0397  -17.3278   23.8728 C   0  0  0  0  0  0  0  0  0  0  0  0
   10.4314  -16.8324   25.0054 O   0  0  0  0  0  0  0  0  0  0  0  0
   11.3860  -18.5413   23.9050 O   0  0  0  0  0  0  0  0  0  0  0  0
  2  1  1  1
  2  3  1  0
  4  2  1  0
  4  5  1  6
  6  7  2  0
  6  4  1  0
  8  6  1  0
  9  8  1  0
  9 10  1  1
 11 10  1  0
 12 11  2  0
 13 14  1  0
 13 12  1  0
 14 15  2  0
 15 11  1  0
 16  9  1  0
 17 16  2  0
 18 16  1  0
 19 18  1  0
 19 20  1  1
 21 22  1  0
 21 20  1  0
 23 24  1  0
 23 22  1  0
 25 26  1  0
 25 19  1  0
 27 25  2  0
M  END
$$$$
