THK.pdb
     RDKit          3D

 27 27  0  0  1  0  0  0  0  0999 V2000
    8.9755  -20.4289   17.4051 C   0  0  0  0  0  0  0  0  0  0  0  0
    9.9625  -20.2874   16.2666 C   0  0  1  0  0  0  0  0  0  0  0  0
    9.7860  -21.2556   15.2909 O   0  0  0  0  0  0  0  0  0  0  0  0
    9.8894  -18.9261   15.6177 C   0  0  2  0  0  0  0  0  0  0  0  0
   10.7415  -18.7961   14.4727 N   0  0  0  0  0  0  0  0  0  0  0  0
   10.0864  -17.8304   16.6015 C   0  0  0  0  0  0  0  0  0  0  0  0
   11.2713  -17.5493   16.9285 O   0  0  0  0  0  0  0  0  0  0  0  0
    9.0490  -17.0981   17.1823 N   0  0  0  0  0  0  0  0  0  0  0  0
    9.2988  -16.0505   18.2387 C   0  0  1  0  0  0  0  0  0  0  0  0
    8.0517  -15.2610   18.2491 C   0  0  0  0  0  0  0  0  0  0  0  0
    7.7696  -14.3410   19.3289 C   0  0  0  0  0  0  0  0  0  0  0  0
    8.4228  -13.0841   19.3349 C   0  0  0  0  0  0  0  0  0  0  0  0
    8.0307  -12.4017   20.3939 N   0  0  0  0  0  0  0  0  0  0  0  0
    7.1578  -13.1563   21.0700 C   0  0  0  0  0  0  0  0  0  0  0  0
    7.0132  -14.3198   20.4140 N   0  0  0  0  0  0  0  0  0  0  0  0
    9.5419  -16.7798   19.5063 C   0  0  0  0  0  0  0  0  0  0  0  0
    8.9042  -17.8868   19.6690 O   0  0  0  0  0  0  0  0  0  0  0  0
   10.3937  -16.4029   20.5498 N   0  0  0  0  0  0  0  0  0  0  0  0
   10.4471  -17.1349   21.8269 C   0  0  1  0  0  0  0  0  0  0  0  0
   11.8743  -17.5930   21.9818 C   0  0  0  0  0  0  0  0  0  0  0  0
   12.1675  -18.3160   23.2550 C   0  0  0  0  0  0  0  0  0  0  0  0
   13.5705  -18.8817   23.2973 C   0  0  0  0  0  0  0  0  0  0  0  0
   13.8427  -19.5108   24.6387 C   0  0  0  0  0  0  0  0  0  0  0  0
   15.1304  -20.1860   24.5935 N   0  0  0  0  0  0  0  0  0  0  0  0
   10.0324  -16.2490   22.9315 C   0  0  0  0  0  0  0  0  0  0  0  0
    9.5940  -16.6853   24.1628 O   0  0  0  0  0  0  0  0  0  0  0  0
   10.0720  -14.9991   22.7588 O   0  0  0  0  0  0  0  0  0  0  0  0
  2  1  1  1
  2  3  1  0
  4  2  1  0
  4  5  1  6
  6  7  2  0
  6  4  1  0
  8  6  1  0
  9  8  1  0
  9 10  1  1
 11 10  1  0
 12 11  2  0
 13 14  1  0
 13 12  1  0
 14 15  2  0
 15 11  1  0
 16  9  1  0
 17 16  2  0
 18 16  1  0
 19 18  1  0
 19 20  1  1
 21 22  1  0
 21 20  1  0
 23 24  1  0
 23 22  1  0
 25 26  1  0
 25 19  1  0
 27 25  2  0
M  END
$$$$
