THK.pdb
     RDKit          3D

 27 27  0  0  1  0  0  0  0  0999 V2000
    8.5035  -18.6986   18.6600 C   0  0  0  0  0  0  0  0  0  0  0  0
    8.8286  -18.0845   20.0044 C   0  0  1  0  0  0  0  0  0  0  0  0
    9.7490  -18.8346   20.7192 O   0  0  0  0  0  0  0  0  0  0  0  0
    9.3501  -16.6738   19.8730 C   0  0  2  0  0  0  0  0  0  0  0  0
   10.5441  -16.5805   19.0858 N   0  0  0  0  0  0  0  0  0  0  0  0
    9.4848  -16.0061   21.1934 C   0  0  0  0  0  0  0  0  0  0  0  0
   10.6441  -15.9093   21.6798 O   0  0  0  0  0  0  0  0  0  0  0  0
    8.4158  -15.4829   21.9236 N   0  0  0  0  0  0  0  0  0  0  0  0
    8.6160  -14.7463   23.2248 C   0  0  1  0  0  0  0  0  0  0  0  0
    7.3221  -14.0716   23.4465 C   0  0  0  0  0  0  0  0  0  0  0  0
    7.0720  -13.3381   24.6678 C   0  0  0  0  0  0  0  0  0  0  0  0
    6.0044  -13.7544   25.5006 C   0  0  0  0  0  0  0  0  0  0  0  0
    5.9469  -12.9612   26.5533 N   0  0  0  0  0  0  0  0  0  0  0  0
    6.9239  -12.0551   26.4402 C   0  0  0  0  0  0  0  0  0  0  0  0
    7.5905  -12.2976   25.2992 N   0  0  0  0  0  0  0  0  0  0  0  0
    8.9246  -15.7739   24.2478 C   0  0  0  0  0  0  0  0  0  0  0  0
    8.2969  -16.8944   24.1509 O   0  0  0  0  0  0  0  0  0  0  0  0
    9.8286  -15.6666   25.3098 N   0  0  0  0  0  0  0  0  0  0  0  0
   10.0054  -16.7376   26.3055 C   0  0  1  0  0  0  0  0  0  0  0  0
   10.4839  -16.0587   27.5628 C   0  0  0  0  0  0  0  0  0  0  0  0
   10.6798  -16.9668   28.7318 C   0  0  0  0  0  0  0  0  0  0  0  0
   11.2617  -16.2560   29.9344 C   0  0  0  0  0  0  0  0  0  0  0  0
   11.4088  -17.2121   31.0891 C   0  0  0  0  0  0  0  0  0  0  0  0
   11.9700  -16.4997   32.2264 N   0  0  0  0  0  0  0  0  0  0  0  0
    8.7272  -17.4440   26.5159 C   0  0  0  0  0  0  0  0  0  0  0  0
    7.4889  -16.8398   26.5131 O   0  0  0  0  0  0  0  0  0  0  0  0
    8.7449  -18.6902   26.7162 O   0  0  0  0  0  0  0  0  0  0  0  0
  2  1  1  6
  2  3  1  0
  4  2  1  0
  4  5  1  1
  6  7  2  0
  6  4  1  0
  8  6  1  0
  9  8  1  0
  9 10  1  1
 11 10  1  0
 12 11  2  0
 13 14  1  0
 13 12  1  0
 14 15  2  0
 15 11  1  0
 16  9  1  0
 17 16  2  0
 18 16  1  0
 19 18  1  0
 19 20  1  1
 21 22  1  0
 21 20  1  0
 23 24  1  0
 23 22  1  0
 25 26  1  0
 25 19  1  0
 27 25  2  0
M  END
$$$$
