THK.pdb
     RDKit          3D

 27 27  0  0  1  0  0  0  0  0999 V2000
    3.9433  -18.0303   22.2340 C   0  0  0  0  0  0  0  0  0  0  0  0
    4.5229  -18.9602   21.1901 C   0  0  1  0  0  0  0  0  0  0  0  0
    3.5418  -19.6195   20.4667 O   0  0  0  0  0  0  0  0  0  0  0  0
    5.4316  -18.2357   20.2263 C   0  0  2  0  0  0  0  0  0  0  0  0
    5.8668  -19.0529   19.1324 N   0  0  0  0  0  0  0  0  0  0  0  0
    6.5612  -17.5680   20.9230 C   0  0  0  0  0  0  0  0  0  0  0  0
    7.6479  -18.2019   21.0073 O   0  0  0  0  0  0  0  0  0  0  0  0
    6.4950  -16.2919   21.4860 N   0  0  0  0  0  0  0  0  0  0  0  0
    7.6983  -15.6225   22.1023 C   0  0  1  0  0  0  0  0  0  0  0  0
    7.5092  -14.1955   21.7758 C   0  0  0  0  0  0  0  0  0  0  0  0
    7.9176  -13.6722   20.4907 C   0  0  0  0  0  0  0  0  0  0  0  0
    6.9624  -12.9777   19.7084 C   0  0  0  0  0  0  0  0  0  0  0  0
    7.5316  -12.5857   18.5845 N   0  0  0  0  0  0  0  0  0  0  0  0
    8.8052  -12.9930   18.6038 C   0  0  0  0  0  0  0  0  0  0  0  0
    9.0193  -13.6451   19.7588 N   0  0  0  0  0  0  0  0  0  0  0  0
    7.6385  -15.9043   23.5566 C   0  0  0  0  0  0  0  0  0  0  0  0
    6.5466  -15.5900   24.1631 O   0  0  0  0  0  0  0  0  0  0  0  0
    8.6368  -16.4805   24.3490 N   0  0  0  0  0  0  0  0  0  0  0  0
    8.4328  -16.7853   25.7756 C   0  0  1  0  0  0  0  0  0  0  0  0
    8.2010  -18.2722   25.8520 C   0  0  0  0  0  0  0  0  0  0  0  0
    8.0422  -18.8133   27.2346 C   0  0  0  0  0  0  0  0  0  0  0  0
    7.7625  -20.3004   27.2529 C   0  0  0  0  0  0  0  0  0  0  0  0
    7.6998  -20.8055   28.6706 C   0  0  0  0  0  0  0  0  0  0  0  0
    7.4203  -22.2330   28.6538 N   0  0  0  0  0  0  0  0  0  0  0  0
    9.6183  -16.3742   26.5518 C   0  0  0  0  0  0  0  0  0  0  0  0
   10.8166  -15.9771   25.9997 O   0  0  0  0  0  0  0  0  0  0  0  0
    9.5542  -16.3804   27.8125 O   0  0  0  0  0  0  0  0  0  0  0  0
  2  1  1  1
  2  3  1  0
  4  2  1  0
  4  5  1  6
  6  7  2  0
  6  4  1  0
  8  6  1  0
  9  8  1  0
  9 10  1  1
 11 10  1  0
 12 11  2  0
 13 14  1  0
 13 12  1  0
 14 15  2  0
 15 11  1  0
 16  9  1  0
 17 16  2  0
 18 16  1  0
 19 18  1  0
 19 20  1  6
 21 22  1  0
 21 20  1  0
 23 24  1  0
 23 22  1  0
 25 26  1  0
 25 19  1  0
 27 25  2  0
M  END
$$$$
