THK.pdb
     RDKit          3D

 27 27  0  0  1  0  0  0  0  0999 V2000
    7.0612  -18.2068   20.6571 C   0  0  0  0  0  0  0  0  0  0  0  0
    8.2394  -17.8737   19.7675 C   0  0  1  0  0  0  0  0  0  0  0  0
    8.0700  -18.3350   18.4716 O   0  0  0  0  0  0  0  0  0  0  0  0
    8.5149  -16.3900   19.7219 C   0  0  2  0  0  0  0  0  0  0  0  0
    9.5081  -16.0260   18.7550 N   0  0  0  0  0  0  0  0  0  0  0  0
    8.8031  -15.8368   21.0703 C   0  0  0  0  0  0  0  0  0  0  0  0
    9.9649  -16.0045   21.5308 O   0  0  0  0  0  0  0  0  0  0  0  0
    7.8748  -15.1481   21.8535 N   0  0  0  0  0  0  0  0  0  0  0  0
    8.2201  -14.6065   23.2185 C   0  0  1  0  0  0  0  0  0  0  0  0
    7.0010  -13.8800   23.6244 C   0  0  0  0  0  0  0  0  0  0  0  0
    6.9413  -13.1900   24.8942 C   0  0  0  0  0  0  0  0  0  0  0  0
    8.0943  -13.1863   25.7171 C   0  0  0  0  0  0  0  0  0  0  0  0
    7.8330  -12.5092   26.8189 N   0  0  0  0  0  0  0  0  0  0  0  0
    6.5696  -12.0768   26.7467 C   0  0  0  0  0  0  0  0  0  0  0  0
    6.0488  -12.4961   25.5814 N   0  0  0  0  0  0  0  0  0  0  0  0
    8.5161  -15.7798   24.0750 C   0  0  0  0  0  0  0  0  0  0  0  0
    7.6929  -16.7681   24.0081 O   0  0  0  0  0  0  0  0  0  0  0  0
    9.5966  -15.9389   24.9490 N   0  0  0  0  0  0  0  0  0  0  0  0
    9.8583  -17.2041   25.6563 C   0  0  1  0  0  0  0  0  0  0  0  0
   11.1424  -17.7424   25.0799 C   0  0  0  0  0  0  0  0  0  0  0  0
   11.6679  -18.9678   25.7521 C   0  0  0  0  0  0  0  0  0  0  0  0
   12.9097  -19.5158   25.0829 C   0  0  0  0  0  0  0  0  0  0  0  0
   13.3528  -20.7870   25.7588 C   0  0  0  0  0  0  0  0  0  0  0  0
   14.5202  -21.3103   25.0664 N   0  0  0  0  0  0  0  0  0  0  0  0
    9.9696  -16.9554   27.1064 C   0  0  0  0  0  0  0  0  0  0  0  0
    9.7898  -17.9125   28.0811 O   0  0  0  0  0  0  0  0  0  0  0  0
   10.2469  -15.7905   27.5059 O   0  0  0  0  0  0  0  0  0  0  0  0
  2  1  1  1
  2  3  1  0
  4  2  1  0
  4  5  1  6
  6  7  2  0
  6  4  1  0
  8  6  1  0
  9  8  1  0
  9 10  1  1
 11 10  1  0
 12 11  2  0
 13 14  1  0
 13 12  1  0
 14 15  2  0
 15 11  1  0
 16  9  1  0
 17 16  2  0
 18 16  1  0
 19 18  1  0
 19 20  1  6
 21 22  1  0
 21 20  1  0
 23 24  1  0
 23 22  1  0
 25 26  1  0
 25 19  1  0
 27 25  2  0
M  END
$$$$
