HER.pdb
     RDKit          3D

 31 31  0  0  1  0  0  0  0  0999 V2000
   10.2012  -15.8676   17.2135 N   0  0  0  0  0  0  0  0  0  0  0  0
   10.9056  -14.8169   17.8980 C   0  0  1  0  0  0  0  0  0  0  0  0
   10.1636  -14.3288   19.1218 C   0  0  0  0  0  0  0  0  0  0  0  0
    8.8750  -13.6732   18.7914 C   0  0  0  0  0  0  0  0  0  0  0  0
    8.2554  -13.5347   17.5708 C   0  0  0  0  0  0  0  0  0  0  0  0
    7.0967  -12.8700   17.7087 N   0  0  0  0  0  0  0  0  0  0  0  0
    6.9652  -12.5758   19.0300 C   0  0  0  0  0  0  0  0  0  0  0  0
    8.0400  -13.0621   19.6796 N   0  0  0  0  0  0  0  0  0  0  0  0
   12.2075  -15.3634   18.4025 C   0  0  0  0  0  0  0  0  0  0  0  0
   12.3933  -16.5506   18.7134 O   0  0  0  0  0  0  0  0  0  0  0  0
   13.2940  -14.4595   18.5306 N   0  0  0  0  0  0  0  0  0  0  0  0
   14.6094  -14.8972   18.9508 C   0  0  1  0  0  0  0  0  0  0  0  0
   15.7105  -14.1803   18.2790 C   0  0  0  0  0  0  0  0  0  0  0  0
   15.9327  -14.3658   16.8408 C   0  0  0  0  0  0  0  0  0  0  0  0
   17.1640  -13.9239   16.2196 C   0  0  0  0  0  0  0  0  0  0  0  0
   17.5172  -12.7375   16.1135 O   0  0  0  0  0  0  0  0  0  0  0  0
   14.6548  -15.0473   20.4069 C   0  0  0  0  0  0  0  0  0  0  0  0
   14.2656  -14.1026   21.1811 O   0  0  0  0  0  0  0  0  0  0  0  0
   18.0924  -14.8476   15.6658 O   0  0  0  0  0  0  0  0  0  0  0  0
   10.6049  -20.8969   24.4087 N   0  0  0  0  0  0  0  0  0  0  0  0
   11.9962  -20.7363   24.5943 C   0  0  0  0  0  0  0  0  0  0  0  0
   12.7227  -21.7688   24.8326 N   0  0  0  0  0  0  0  0  0  0  0  0
   12.6002  -19.4481   24.5215 N   0  0  0  0  0  0  0  0  0  0  0  0
   14.0253  -19.3300   24.6947 C   0  0  0  0  0  0  0  0  0  0  0  0
   14.5304  -17.9615   24.3728 C   0  0  0  0  0  0  0  0  0  0  0  0
   14.4936  -17.6148   22.9492 C   0  0  0  0  0  0  0  0  0  0  0  0
   15.0903  -16.3233   22.5523 C   0  0  2  0  0  0  0  0  0  0  0  0
   15.1145  -16.2222   21.0671 N   0  0  0  0  0  0  0  0  0  0  0  0
   16.4119  -15.9555   23.0348 C   0  0  0  0  0  0  0  0  0  0  0  0
   16.6674  -15.7203   24.3741 O   0  0  0  0  0  0  0  0  0  0  0  0
   17.4350  -15.8167   22.2729 O   0  0  0  0  0  0  0  0  0  0  0  0
  2  1  1  1
  2  9  1  0
  3  2  1  0
  3  4  1  0
  4  5  2  0
  4  8  1  0
  5  6  1  0
  6  7  1  0
  8  7  2  0
  9 10  2  0
 11  9  1  0
 11 12  1  0
 12 17  1  0
 12 13  1  1
 13 14  1  0
 15 19  1  0
 15 14  1  0
 16 15  2  0
 17 18  2  0
 20 21  1  0
 21 22  2  0
 23 21  1  0
 23 24  1  0
 24 25  1  0
 25 26  1  0
 27 26  1  6
 27 29  1  0
 28 27  1  0
 28 17  1  0
 29 31  2  0
 29 30  1  0
M  END
$$$$
