HER.pdb
     RDKit          3D

 31 31  0  0  1  0  0  0  0  0999 V2000
   10.7355  -16.9834   17.5391 N   0  0  0  0  0  0  0  0  0  0  0  0
    9.9879  -17.7982   18.4588 C   0  0  1  0  0  0  0  0  0  0  0  0
    9.0450  -18.7462   17.7527 C   0  0  0  0  0  0  0  0  0  0  0  0
    8.4139  -18.1444   16.5531 C   0  0  0  0  0  0  0  0  0  0  0  0
    8.6166  -16.9053   15.9905 C   0  0  0  0  0  0  0  0  0  0  0  0
    7.8390  -16.7525   14.9063 N   0  0  0  0  0  0  0  0  0  0  0  0
    7.1270  -17.9026   14.7659 C   0  0  0  0  0  0  0  0  0  0  0  0
    7.4766  -18.7396   15.7612 N   0  0  0  0  0  0  0  0  0  0  0  0
   10.9465  -18.6671   19.2166 C   0  0  0  0  0  0  0  0  0  0  0  0
   10.6066  -19.5146   20.0573 O   0  0  0  0  0  0  0  0  0  0  0  0
   12.3311  -18.5051   18.9509 N   0  0  0  0  0  0  0  0  0  0  0  0
   13.3273  -19.3993   19.5042 C   0  0  1  0  0  0  0  0  0  0  0  0
   14.5164  -19.5595   18.6451 C   0  0  0  0  0  0  0  0  0  0  0  0
   15.6254  -20.4135   19.0845 C   0  0  0  0  0  0  0  0  0  0  0  0
   16.8297  -20.5298   18.2887 C   0  0  0  0  0  0  0  0  0  0  0  0
   17.0015  -21.3620   17.3822 O   0  0  0  0  0  0  0  0  0  0  0  0
   13.5228  -19.1241   20.9293 C   0  0  0  0  0  0  0  0  0  0  0  0
   13.7136  -17.9288   21.3514 O   0  0  0  0  0  0  0  0  0  0  0  0
   17.9436  -19.6700   18.4928 O   0  0  0  0  0  0  0  0  0  0  0  0
   10.8203  -22.8593   28.5586 N   0  0  0  0  0  0  0  0  0  0  0  0
   11.4476  -21.6293   28.8576 C   0  0  0  0  0  0  0  0  0  0  0  0
   11.2096  -21.0588   29.9839 N   0  0  0  0  0  0  0  0  0  0  0  0
   12.3365  -21.0163   27.9283 N   0  0  0  0  0  0  0  0  0  0  0  0
   12.0582  -21.1178   26.5186 C   0  0  0  0  0  0  0  0  0  0  0  0
   13.0425  -20.3653   25.6842 C   0  0  0  0  0  0  0  0  0  0  0  0
   12.8461  -20.4974   24.2377 C   0  0  0  0  0  0  0  0  0  0  0  0
   13.7987  -19.7893   23.3586 C   0  0  2  0  0  0  0  0  0  0  0  0
   13.5111  -20.1291   21.9380 N   0  0  0  0  0  0  0  0  0  0  0  0
   15.2298  -19.9473   23.5627 C   0  0  0  0  0  0  0  0  0  0  0  0
   16.0346  -20.6087   22.6521 O   0  0  0  0  0  0  0  0  0  0  0  0
   15.8568  -19.4980   24.5881 O   0  0  0  0  0  0  0  0  0  0  0  0
  2  1  1  6
  2  9  1  0
  3  2  1  0
  3  4  1  0
  4  5  2  0
  4  8  1  0
  5  6  1  0
  6  7  1  0
  8  7  2  0
  9 10  2  0
 11  9  1  0
 11 12  1  0
 12 17  1  0
 12 13  1  6
 13 14  1  0
 15 19  1  0
 15 14  1  0
 16 15  2  0
 17 18  2  0
 20 21  1  0
 21 22  2  0
 23 21  1  0
 23 24  1  0
 24 25  1  0
 25 26  1  0
 27 26  1  1
 27 29  1  0
 28 27  1  0
 28 17  1  0
 29 31  2  0
 29 30  1  0
M  END
$$$$
