HER.pdb
     RDKit          3D

 31 31  0  0  1  0  0  0  0  0999 V2000
    8.1203  -17.2148   19.2583 N   0  0  0  0  0  0  0  0  0  0  0  0
    9.1147  -16.6361   20.1214 C   0  0  1  0  0  0  0  0  0  0  0  0
    8.6819  -15.3009   20.6840 C   0  0  0  0  0  0  0  0  0  0  0  0
    8.4268  -14.2874   19.6318 C   0  0  0  0  0  0  0  0  0  0  0  0
    8.6242  -14.3731   18.2729 C   0  0  0  0  0  0  0  0  0  0  0  0
    8.2655  -13.2248   17.6762 N   0  0  0  0  0  0  0  0  0  0  0  0
    7.8319  -12.3887   18.6573 C   0  0  0  0  0  0  0  0  0  0  0  0
    7.9309  -13.0334   19.8354 N   0  0  0  0  0  0  0  0  0  0  0  0
    9.3018  -17.5355   21.3063 C   0  0  0  0  0  0  0  0  0  0  0  0
    8.3728  -17.9845   21.9963 O   0  0  0  0  0  0  0  0  0  0  0  0
   10.6297  -17.8932   21.6567 N   0  0  0  0  0  0  0  0  0  0  0  0
   10.9193  -18.7497   22.7884 C   0  0  1  0  0  0  0  0  0  0  0  0
   12.1093  -19.6003   22.5932 C   0  0  0  0  0  0  0  0  0  0  0  0
   12.5325  -20.5194   23.6556 C   0  0  0  0  0  0  0  0  0  0  0  0
   13.8135  -21.1912   23.5856 C   0  0  0  0  0  0  0  0  0  0  0  0
   14.1033  -22.0789   22.7660 O   0  0  0  0  0  0  0  0  0  0  0  0
   10.7898  -18.0005   24.0400 C   0  0  0  0  0  0  0  0  0  0  0  0
   11.4536  -16.9214   24.2360 O   0  0  0  0  0  0  0  0  0  0  0  0
   14.8714  -20.8735   24.4809 O   0  0  0  0  0  0  0  0  0  0  0  0
    5.4366  -12.7490   26.6465 N   0  0  0  0  0  0  0  0  0  0  0  0
    6.5743  -12.4045   25.8831 C   0  0  0  0  0  0  0  0  0  0  0  0
    6.5844  -11.2960   25.2337 N   0  0  0  0  0  0  0  0  0  0  0  0
    7.7053  -13.2688   25.8245 N   0  0  0  0  0  0  0  0  0  0  0  0
    7.5357  -14.6683   26.1206 C   0  0  0  0  0  0  0  0  0  0  0  0
    8.8325  -15.4091   26.1508 C   0  0  0  0  0  0  0  0  0  0  0  0
    8.7192  -16.8271   26.5041 C   0  0  0  0  0  0  0  0  0  0  0  0
    9.9420  -17.6491   26.4018 C   0  0  2  0  0  0  0  0  0  0  0  0
    9.9362  -18.3906   25.1109 N   0  0  0  0  0  0  0  0  0  0  0  0
   10.2646  -18.6037   27.4503 C   0  0  0  0  0  0  0  0  0  0  0  0
   10.6032  -18.2042   28.7309 O   0  0  0  0  0  0  0  0  0  0  0  0
   10.2663  -19.8755   27.2795 O   0  0  0  0  0  0  0  0  0  0  0  0
  2  1  1  6
  2  9  1  0
  3  2  1  0
  3  4  1  0
  4  5  2  0
  4  8  1  0
  5  6  1  0
  6  7  1  0
  8  7  2  0
  9 10  2  0
 11  9  1  0
 11 12  1  0
 12 17  1  0
 12 13  1  6
 13 14  1  0
 15 19  1  0
 15 14  1  0
 16 15  2  0
 17 18  2  0
 20 21  1  0
 21 22  2  0
 23 21  1  0
 23 24  1  0
 24 25  1  0
 25 26  1  0
 27 26  1  1
 27 29  1  0
 28 27  1  0
 28 17  1  0
 29 31  2  0
 29 30  1  0
M  END
$$$$
