HER.pdb
     RDKit          3D

 31 31  0  0  1  0  0  0  0  0999 V2000
    8.3734  -15.2870   16.8413 N   0  0  0  0  0  0  0  0  0  0  0  0
    9.7209  -14.7894   16.9145 C   0  0  1  0  0  0  0  0  0  0  0  0
    9.7902  -13.4010   17.5095 C   0  0  0  0  0  0  0  0  0  0  0  0
    8.8199  -13.1974   18.6125 C   0  0  0  0  0  0  0  0  0  0  0  0
    7.9000  -14.0756   19.1373 C   0  0  0  0  0  0  0  0  0  0  0  0
    7.2111  -13.4910   20.1308 N   0  0  0  0  0  0  0  0  0  0  0  0
    7.6894  -12.2235   20.2503 C   0  0  0  0  0  0  0  0  0  0  0  0
    8.6597  -12.0504   19.3326 N   0  0  0  0  0  0  0  0  0  0  0  0
   10.5060  -15.6688   17.8409 C   0  0  0  0  0  0  0  0  0  0  0  0
   10.0004  -16.5027   18.6087 O   0  0  0  0  0  0  0  0  0  0  0  0
   11.9188  -15.5342   17.8348 N   0  0  0  0  0  0  0  0  0  0  0  0
   12.7781  -16.4414   18.5675 C   0  0  1  0  0  0  0  0  0  0  0  0
   13.8068  -17.0848   17.7275 C   0  0  0  0  0  0  0  0  0  0  0  0
   14.8809  -16.2762   17.1403 C   0  0  0  0  0  0  0  0  0  0  0  0
   15.8891  -16.8853   16.2978 C   0  0  0  0  0  0  0  0  0  0  0  0
   17.0996  -16.9433   16.5716 O   0  0  0  0  0  0  0  0  0  0  0  0
   13.1854  -15.8410   19.8396 C   0  0  0  0  0  0  0  0  0  0  0  0
   13.3636  -14.5759   19.9462 O   0  0  0  0  0  0  0  0  0  0  0  0
   15.5565  -17.4829   15.0512 O   0  0  0  0  0  0  0  0  0  0  0  0
   10.5629  -19.5346   26.9114 N   0  0  0  0  0  0  0  0  0  0  0  0
   11.6926  -20.2032   26.3895 C   0  0  0  0  0  0  0  0  0  0  0  0
   11.9968  -21.3684   26.8371 N   0  0  0  0  0  0  0  0  0  0  0  0
   12.4955  -19.6025   25.3775 N   0  0  0  0  0  0  0  0  0  0  0  0
   12.2148  -18.2500   24.9689 C   0  0  0  0  0  0  0  0  0  0  0  0
   13.1015  -17.7910   23.8578 C   0  0  0  0  0  0  0  0  0  0  0  0
   12.8305  -16.4320   23.3803 C   0  0  0  0  0  0  0  0  0  0  0  0
   13.7088  -15.9010   22.3181 C   0  0  2  0  0  0  0  0  0  0  0  0
   13.4048  -16.5872   21.0323 N   0  0  0  0  0  0  0  0  0  0  0  0
   15.1524  -15.9223   22.4919 C   0  0  0  0  0  0  0  0  0  0  0  0
   15.7882  -15.1685   23.4623 O   0  0  0  0  0  0  0  0  0  0  0  0
   15.9462  -16.6266   21.7705 O   0  0  0  0  0  0  0  0  0  0  0  0
  2  1  1  1
  2  9  1  0
  3  2  1  0
  3  4  1  0
  4  5  2  0
  4  8  1  0
  5  6  1  0
  6  7  1  0
  8  7  2  0
  9 10  2  0
 11  9  1  0
 11 12  1  0
 12 17  1  0
 12 13  1  6
 13 14  1  0
 15 19  1  0
 15 14  1  0
 16 15  2  0
 17 18  2  0
 20 21  1  0
 21 22  2  0
 23 21  1  0
 23 24  1  0
 24 25  1  0
 25 26  1  0
 27 26  1  1
 27 29  1  0
 28 27  1  0
 28 17  1  0
 29 31  2  0
 29 30  1  0
M  END
$$$$
