HER.pdb
     RDKit          3D

 31 31  0  0  1  0  0  0  0  0999 V2000
   13.1723  -21.7729   19.3877 N   0  0  0  0  0  0  0  0  0  0  0  0
   12.5751  -20.5153   19.7489 C   0  0  1  0  0  0  0  0  0  0  0  0
   11.1588  -20.3823   19.2363 C   0  0  0  0  0  0  0  0  0  0  0  0
   11.0761  -20.4156   17.7559 C   0  0  0  0  0  0  0  0  0  0  0  0
   11.7440  -21.2222   16.8635 C   0  0  0  0  0  0  0  0  0  0  0  0
   11.3809  -20.9260   15.6050 N   0  0  0  0  0  0  0  0  0  0  0  0
   10.4700  -19.9191   15.6835 C   0  0  0  0  0  0  0  0  0  0  0  0
   10.2890  -19.6141   16.9826 N   0  0  0  0  0  0  0  0  0  0  0  0
   12.4753  -20.4447   21.2433 C   0  0  0  0  0  0  0  0  0  0  0  0
   11.9338  -19.5165   21.8643 O   0  0  0  0  0  0  0  0  0  0  0  0
   13.0384  -21.5117   21.9906 N   0  0  0  0  0  0  0  0  0  0  0  0
   12.9736  -21.5520   23.4371 C   0  0  1  0  0  0  0  0  0  0  0  0
   12.3142  -22.7629   23.9631 C   0  0  0  0  0  0  0  0  0  0  0  0
   12.1814  -22.9514   25.4119 C   0  0  0  0  0  0  0  0  0  0  0  0
   11.4689  -24.0930   25.9470 C   0  0  0  0  0  0  0  0  0  0  0  0
   10.3110  -24.0577   26.3961 O   0  0  0  0  0  0  0  0  0  0  0  0
   14.2554  -21.1433   24.0156 C   0  0  0  0  0  0  0  0  0  0  0  0
   15.2132  -21.9831   24.1597 O   0  0  0  0  0  0  0  0  0  0  0  0
   12.0626  -25.3840   25.9998 O   0  0  0  0  0  0  0  0  0  0  0  0
   13.7216  -21.8480   32.2489 N   0  0  0  0  0  0  0  0  0  0  0  0
   13.2070  -21.5525   30.9669 C   0  0  0  0  0  0  0  0  0  0  0  0
   12.6882  -22.4948   30.2644 N   0  0  0  0  0  0  0  0  0  0  0  0
   13.2572  -20.2275   30.4459 N   0  0  0  0  0  0  0  0  0  0  0  0
   12.9142  -20.0025   29.0650 C   0  0  0  0  0  0  0  0  0  0  0  0
   14.1173  -19.8751   28.1889 C   0  0  0  0  0  0  0  0  0  0  0  0
   13.8221  -19.7418   26.7594 C   0  0  0  0  0  0  0  0  0  0  0  0
   14.9675  -19.5447   25.8480 C   0  0  2  0  0  0  0  0  0  0  0  0
   14.5413  -19.8170   24.4478 N   0  0  0  0  0  0  0  0  0  0  0  0
   16.2079  -20.2693   26.0739 C   0  0  0  0  0  0  0  0  0  0  0  0
   16.2751  -21.6500   26.0151 O   0  0  0  0  0  0  0  0  0  0  0  0
   17.3255  -19.7004   26.3459 O   0  0  0  0  0  0  0  0  0  0  0  0
  2  1  1  1
  2  9  1  0
  3  2  1  0
  3  4  1  0
  4  5  2  0
  4  8  1  0
  5  6  1  0
  6  7  1  0
  8  7  2  0
  9 10  2  0
 11  9  1  0
 11 12  1  0
 12 17  1  0
 12 13  1  6
 13 14  1  0
 15 19  1  0
 15 14  1  0
 16 15  2  0
 17 18  2  0
 20 21  1  0
 21 22  2  0
 23 21  1  0
 23 24  1  0
 24 25  1  0
 25 26  1  0
 27 26  1  1
 27 29  1  0
 28 27  1  0
 28 17  1  0
 29 31  2  0
 29 30  1  0
M  END
$$$$
