HER.pdb
     RDKit          3D

 31 31  0  0  1  0  0  0  0  0999 V2000
    7.8035  -17.2573   19.7163 N   0  0  0  0  0  0  0  0  0  0  0  0
    8.8512  -16.4592   20.2944 C   0  0  1  0  0  0  0  0  0  0  0  0
    8.3949  -15.0531   20.6121 C   0  0  0  0  0  0  0  0  0  0  0  0
    8.1166  -14.2491   19.3974 C   0  0  0  0  0  0  0  0  0  0  0  0
    8.2416  -14.5993   18.0727 C   0  0  0  0  0  0  0  0  0  0  0  0
    7.8871  -13.5723   17.2834 N   0  0  0  0  0  0  0  0  0  0  0  0
    7.5294  -12.5486   18.1041 C   0  0  0  0  0  0  0  0  0  0  0  0
    7.6693  -12.9609   19.3785 N   0  0  0  0  0  0  0  0  0  0  0  0
    9.2453  -17.0657   21.6077 C   0  0  0  0  0  0  0  0  0  0  0  0
    8.4458  -17.5683   22.4132 O   0  0  0  0  0  0  0  0  0  0  0  0
   10.6235  -17.0618   21.9461 N   0  0  0  0  0  0  0  0  0  0  0  0
   11.1051  -17.5935   23.2046 C   0  0  1  0  0  0  0  0  0  0  0  0
   12.4837  -18.1152   23.1339 C   0  0  0  0  0  0  0  0  0  0  0  0
   13.1161  -18.6728   24.3345 C   0  0  0  0  0  0  0  0  0  0  0  0
   14.4893  -19.1318   24.3018 C   0  0  0  0  0  0  0  0  0  0  0  0
   15.4603  -18.4913   24.7385 O   0  0  0  0  0  0  0  0  0  0  0  0
   10.7500  -16.6956   24.3056 C   0  0  0  0  0  0  0  0  0  0  0  0
   11.1011  -15.4627   24.2925 O   0  0  0  0  0  0  0  0  0  0  0  0
   14.8402  -20.3936   23.7480 O   0  0  0  0  0  0  0  0  0  0  0  0
    5.7264  -12.4138   26.4248 N   0  0  0  0  0  0  0  0  0  0  0  0
    6.8693  -12.5165   25.6007 C   0  0  0  0  0  0  0  0  0  0  0  0
    6.8148  -12.0838   24.3922 N   0  0  0  0  0  0  0  0  0  0  0  0
    8.0761  -13.0928   26.0918 N   0  0  0  0  0  0  0  0  0  0  0  0
    8.1438  -13.5146   27.4674 C   0  0  0  0  0  0  0  0  0  0  0  0
    7.7901  -14.9552   27.6434 C   0  0  0  0  0  0  0  0  0  0  0  0
    8.2703  -15.8380   26.5764 C   0  0  0  0  0  0  0  0  0  0  0  0
    9.7148  -16.1453   26.5519 C   0  0  2  0  0  0  0  0  0  0  0  0
   10.0012  -17.1010   25.4469 N   0  0  0  0  0  0  0  0  0  0  0  0
   10.3691  -16.6534   27.7471 C   0  0  0  0  0  0  0  0  0  0  0  0
   10.6805  -15.8366   28.8195 O   0  0  0  0  0  0  0  0  0  0  0  0
   10.7106  -17.8801   27.9050 O   0  0  0  0  0  0  0  0  0  0  0  0
  2  1  1  1
  2  9  1  0
  3  2  1  0
  3  4  1  0
  4  5  2  0
  4  8  1  0
  5  6  1  0
  6  7  1  0
  8  7  2  0
  9 10  2  0
 11  9  1  0
 11 12  1  0
 12 17  1  0
 12 13  1  6
 13 14  1  0
 15 19  1  0
 15 14  1  0
 16 15  2  0
 17 18  2  0
 20 21  1  0
 21 22  2  0
 23 21  1  0
 23 24  1  0
 24 25  1  0
 25 26  1  0
 27 26  1  1
 27 29  1  0
 28 27  1  0
 28 17  1  0
 29 31  2  0
 29 30  1  0
M  END
$$$$
