HER.pdb
     RDKit          3D

 31 31  0  0  1  0  0  0  0  0999 V2000
    7.5448  -17.0324   19.4153 N   0  0  0  0  0  0  0  0  0  0  0  0
    8.8431  -16.5700   19.8270 C   0  0  1  0  0  0  0  0  0  0  0  0
    8.8620  -15.0846   20.1097 C   0  0  0  0  0  0  0  0  0  0  0  0
    8.5618  -14.2657   18.9102 C   0  0  0  0  0  0  0  0  0  0  0  0
    7.6182  -13.2785   18.7427 C   0  0  0  0  0  0  0  0  0  0  0  0
    7.6744  -12.7867   17.4944 N   0  0  0  0  0  0  0  0  0  0  0  0
    8.6630  -13.4612   16.8484 C   0  0  0  0  0  0  0  0  0  0  0  0
    9.1957  -14.3525   17.7059 N   0  0  0  0  0  0  0  0  0  0  0  0
    9.1993  -17.2353   21.1225 C   0  0  0  0  0  0  0  0  0  0  0  0
    8.3691  -17.6380   21.9527 O   0  0  0  0  0  0  0  0  0  0  0  0
   10.5770  -17.4134   21.4127 N   0  0  0  0  0  0  0  0  0  0  0  0
   11.0261  -18.1570   22.5718 C   0  0  1  0  0  0  0  0  0  0  0  0
   12.3189  -18.8391   22.3687 C   0  0  0  0  0  0  0  0  0  0  0  0
   12.9074  -19.6281   23.4566 C   0  0  0  0  0  0  0  0  0  0  0  0
   14.1461  -20.3518   23.2591 C   0  0  0  0  0  0  0  0  0  0  0  0
   14.7025  -21.0513   24.1221 O   0  0  0  0  0  0  0  0  0  0  0  0
   10.8331  -17.3669   23.7897 C   0  0  0  0  0  0  0  0  0  0  0  0
   11.2777  -16.1677   23.8767 O   0  0  0  0  0  0  0  0  0  0  0  0
   14.8416  -20.3140   22.0194 O   0  0  0  0  0  0  0  0  0  0  0  0
    4.8798  -12.8701   26.4187 N   0  0  0  0  0  0  0  0  0  0  0  0
    6.1125  -12.1803   26.4095 C   0  0  0  0  0  0  0  0  0  0  0  0
    6.1163  -10.8973   26.4757 N   0  0  0  0  0  0  0  0  0  0  0  0
    7.3463  -12.8878   26.3269 N   0  0  0  0  0  0  0  0  0  0  0  0
    7.3307  -14.3282   26.3205 C   0  0  0  0  0  0  0  0  0  0  0  0
    8.7016  -14.9160   26.2384 C   0  0  0  0  0  0  0  0  0  0  0  0
    8.7417  -16.3810   26.2619 C   0  0  0  0  0  0  0  0  0  0  0  0
   10.0698  -17.0223   26.1811 C   0  0  2  0  0  0  0  0  0  0  0  0
   10.1497  -17.8459   24.9434 N   0  0  0  0  0  0  0  0  0  0  0  0
   10.5472  -17.8438   27.2819 C   0  0  0  0  0  0  0  0  0  0  0  0
   10.8674  -17.3069   28.5162 O   0  0  0  0  0  0  0  0  0  0  0  0
   10.7128  -19.1138   27.2030 O   0  0  0  0  0  0  0  0  0  0  0  0
  2  1  1  1
  2  9  1  0
  3  2  1  0
  3  4  1  0
  4  5  2  0
  4  8  1  0
  5  6  1  0
  6  7  1  0
  8  7  2  0
  9 10  2  0
 11  9  1  0
 11 12  1  0
 12 17  1  0
 12 13  1  6
 13 14  1  0
 15 19  1  0
 15 14  1  0
 16 15  2  0
 17 18  2  0
 20 21  1  0
 21 22  2  0
 23 21  1  0
 23 24  1  0
 24 25  1  0
 25 26  1  0
 27 26  1  1
 27 29  1  0
 28 27  1  0
 28 17  1  0
 29 31  2  0
 29 30  1  0
M  END
$$$$
