HER.pdb
     RDKit          3D

 31 31  0  0  1  0  0  0  0  0999 V2000
    8.1867  -17.5394   17.9748 N   0  0  0  0  0  0  0  0  0  0  0  0
    9.2106  -16.7009   18.5381 C   0  0  1  0  0  0  0  0  0  0  0  0
    8.6766  -15.3560   18.9767 C   0  0  0  0  0  0  0  0  0  0  0  0
    8.3390  -14.4701   17.8363 C   0  0  0  0  0  0  0  0  0  0  0  0
    8.3991  -14.7264   16.4858 C   0  0  0  0  0  0  0  0  0  0  0  0
    8.0062  -13.6481   15.7885 N   0  0  0  0  0  0  0  0  0  0  0  0
    7.6890  -12.6855   16.6954 C   0  0  0  0  0  0  0  0  0  0  0  0
    7.8911  -13.1853   17.9294 N   0  0  0  0  0  0  0  0  0  0  0  0
    9.7350  -17.3555   19.7809 C   0  0  0  0  0  0  0  0  0  0  0  0
    9.0204  -17.8888   20.6444 O   0  0  0  0  0  0  0  0  0  0  0  0
   11.1405  -17.3627   19.9769 N   0  0  0  0  0  0  0  0  0  0  0  0
   11.7470  -17.9485   21.1547 C   0  0  1  0  0  0  0  0  0  0  0  0
   13.1435  -18.3774   20.9459 C   0  0  0  0  0  0  0  0  0  0  0  0
   13.9072  -18.9473   22.0614 C   0  0  0  0  0  0  0  0  0  0  0  0
   15.3037  -19.2950   21.9005 C   0  0  0  0  0  0  0  0  0  0  0  0
   15.9822  -19.0498   20.8888 O   0  0  0  0  0  0  0  0  0  0  0  0
   11.4272  -17.1523   22.3415 C   0  0  0  0  0  0  0  0  0  0  0  0
   11.7303  -15.9082   22.4039 O   0  0  0  0  0  0  0  0  0  0  0  0
   16.0273  -19.9662   22.9241 O   0  0  0  0  0  0  0  0  0  0  0  0
    7.4649  -12.5841   27.6390 N   0  0  0  0  0  0  0  0  0  0  0  0
    6.7148  -12.7059   26.4480 C   0  0  0  0  0  0  0  0  0  0  0  0
    5.4410  -12.5435   26.4872 N   0  0  0  0  0  0  0  0  0  0  0  0
    7.3517  -13.0064   25.2096 N   0  0  0  0  0  0  0  0  0  0  0  0
    7.4988  -14.3829   24.8114 C   0  0  0  0  0  0  0  0  0  0  0  0
    8.8907  -14.8898   25.0041 C   0  0  0  0  0  0  0  0  0  0  0  0
    9.1071  -16.2688   24.5571 C   0  0  0  0  0  0  0  0  0  0  0  0
   10.4781  -16.8074   24.6654 C   0  0  2  0  0  0  0  0  0  0  0  0
   10.7662  -17.6740   23.4897 N   0  0  0  0  0  0  0  0  0  0  0  0
   10.8777  -17.5415   25.8554 C   0  0  0  0  0  0  0  0  0  0  0  0
   11.0636  -16.9188   27.0768 O   0  0  0  0  0  0  0  0  0  0  0  0
   11.0916  -18.8066   25.8732 O   0  0  0  0  0  0  0  0  0  0  0  0
  2  1  1  1
  2  9  1  0
  3  2  1  0
  3  4  1  0
  4  5  2  0
  4  8  1  0
  5  6  1  0
  6  7  1  0
  8  7  2  0
  9 10  2  0
 11  9  1  0
 11 12  1  0
 12 17  1  0
 12 13  1  6
 13 14  1  0
 15 19  1  0
 15 14  1  0
 16 15  2  0
 17 18  2  0
 20 21  1  0
 21 22  2  0
 23 21  1  0
 23 24  1  0
 24 25  1  0
 25 26  1  0
 27 26  1  1
 27 29  1  0
 28 27  1  0
 28 17  1  0
 29 31  2  0
 29 30  1  0
M  END
$$$$
