MDE.pdb
     RDKit          3D

 26 25  0  0  1  0  0  0  0  0999 V2000
    8.0100  -11.8875   26.8289 C   0  0  0  0  0  0  0  0  0  0  0  0
    6.6763  -13.0565   26.8943 S   0  0  0  0  0  0  0  0  0  0  0  0
    6.8286  -14.5376   25.9438 C   0  0  0  0  0  0  0  0  0  0  0  0
    6.6449  -14.4096   24.4836 C   0  0  0  0  0  0  0  0  0  0  0  0
    6.6081  -15.6668   23.7258 C   0  0  2  0  0  0  0  0  0  0  0  0
    5.7580  -16.6639   24.2758 N   0  0  0  0  0  0  0  0  0  0  0  0
    7.9888  -16.2185   23.5717 C   0  0  0  0  0  0  0  0  0  0  0  0
    8.3047  -17.2362   24.2107 O   0  0  0  0  0  0  0  0  0  0  0  0
    8.9150  -15.6011   22.7212 N   0  0  0  0  0  0  0  0  0  0  0  0
   10.1511  -16.3530   22.3780 C   0  0  1  0  0  0  0  0  0  0  0  0
   10.6775  -15.7438   21.1123 C   0  0  0  0  0  0  0  0  0  0  0  0
   11.8641  -16.2619   20.5096 C   0  0  0  0  0  0  0  0  0  0  0  0
   13.0533  -16.1654   20.8582 O   0  0  0  0  0  0  0  0  0  0  0  0
   11.0296  -16.1993   23.5575 C   0  0  0  0  0  0  0  0  0  0  0  0
   10.4734  -15.8596   24.6657 O   0  0  0  0  0  0  0  0  0  0  0  0
   11.7068  -17.0215   19.3100 O   0  0  0  0  0  0  0  0  0  0  0  0
   12.4135  -16.3832   23.6300 N   0  0  0  0  0  0  0  0  0  0  0  0
   13.1065  -16.4936   24.9108 C   0  0  1  0  0  0  0  0  0  0  0  0
   12.5489  -17.6887   25.6253 C   0  0  0  0  0  0  0  0  0  0  0  0
   11.5278  -17.2857   26.6533 C   0  0  0  0  0  0  0  0  0  0  0  0
   11.6152  -18.2268   27.7952 C   0  0  0  0  0  0  0  0  0  0  0  0
   12.3814  -19.2083   27.7367 O   0  0  0  0  0  0  0  0  0  0  0  0
   14.5596  -16.6233   24.7312 C   0  0  0  0  0  0  0  0  0  0  0  0
   15.1101  -16.7526   23.4749 O   0  0  0  0  0  0  0  0  0  0  0  0
   10.8657  -18.0513   28.9392 O   0  0  0  0  0  0  0  0  0  0  0  0
   15.3069  -16.6167   25.7293 O   0  0  0  0  0  0  0  0  0  0  0  0
  2  1  1  0
  3  2  1  0
  4  3  1  0
  4  5  1  0
  5  6  1  1
  5  7  1  0
  7  8  2  0
  9  7  1  0
  9 10  1  0
 11 12  1  0
 10 11  1  6
 12 16  1  0
 13 12  2  0
 14 10  1  0
 14 15  2  0
 17 14  1  0
 18 17  1  0
 18 23  1  0
 18 19  1  6
 20 19  1  0
 20 21  1  0
 21 25  1  0
 22 21  2  0
 23 24  1  0
 26 23  2  0
M  END
$$$$
