MDE.pdb
     RDKit          3D

 26 25  0  0  1  0  0  0  0  0999 V2000
    8.1446  -11.8682   26.6710 C   0  0  0  0  0  0  0  0  0  0  0  0
    6.5764  -12.6971   26.6133 S   0  0  0  0  0  0  0  0  0  0  0  0
    6.5308  -14.3334   25.9494 C   0  0  0  0  0  0  0  0  0  0  0  0
    6.7630  -14.4656   24.4965 C   0  0  0  0  0  0  0  0  0  0  0  0
    6.6033  -15.8144   23.9382 C   0  0  2  0  0  0  0  0  0  0  0  0
    5.8456  -16.7033   24.7476 N   0  0  0  0  0  0  0  0  0  0  0  0
    7.9409  -16.4176   23.6527 C   0  0  0  0  0  0  0  0  0  0  0  0
    8.2991  -17.4185   24.2960 O   0  0  0  0  0  0  0  0  0  0  0  0
    8.7802  -15.8666   22.6758 N   0  0  0  0  0  0  0  0  0  0  0  0
    9.9953  -16.6329   22.2920 C   0  0  1  0  0  0  0  0  0  0  0  0
   10.5444  -15.9663   21.0655 C   0  0  0  0  0  0  0  0  0  0  0  0
   10.0474  -16.3235   19.7751 C   0  0  0  0  0  0  0  0  0  0  0  0
   10.0272  -15.6788   18.7125 O   0  0  0  0  0  0  0  0  0  0  0  0
   10.8731  -16.5744   23.4806 C   0  0  0  0  0  0  0  0  0  0  0  0
   11.0423  -15.4252   24.0317 O   0  0  0  0  0  0  0  0  0  0  0  0
    9.4721  -17.6236   19.6358 O   0  0  0  0  0  0  0  0  0  0  0  0
   11.5540  -17.6262   24.1007 N   0  0  0  0  0  0  0  0  0  0  0  0
   12.2862  -17.4353   25.3497 C   0  0  1  0  0  0  0  0  0  0  0  0
   11.5179  -18.1291   26.4351 C   0  0  0  0  0  0  0  0  0  0  0  0
   12.2816  -18.1330   27.7307 C   0  0  0  0  0  0  0  0  0  0  0  0
   11.4873  -18.8715   28.7412 C   0  0  0  0  0  0  0  0  0  0  0  0
   10.3914  -19.3750   28.4260 O   0  0  0  0  0  0  0  0  0  0  0  0
   13.6557  -17.9617   25.2608 C   0  0  0  0  0  0  0  0  0  0  0  0
   14.6310  -17.5536   26.1441 O   0  0  0  0  0  0  0  0  0  0  0  0
   11.9260  -19.0233   30.0395 O   0  0  0  0  0  0  0  0  0  0  0  0
   13.9411  -18.7898   24.3734 O   0  0  0  0  0  0  0  0  0  0  0  0
  2  1  1  0
  3  2  1  0
  4  3  1  0
  4  5  1  0
  5  6  1  1
  5  7  1  0
  7  8  2  0
  9  7  1  0
  9 10  1  0
 11 12  1  0
 10 11  1  6
 12 16  1  0
 13 12  2  0
 14 10  1  0
 14 15  2  0
 17 14  1  0
 18 17  1  0
 18 23  1  0
 18 19  1  1
 20 19  1  0
 20 21  1  0
 21 25  1  0
 22 21  2  0
 23 24  1  0
 26 23  2  0
M  END
$$$$
