MDE.pdb
     RDKit          3D

 26 25  0  0  1  0  0  0  0  0999 V2000
    7.5962  -12.2085   22.4232 C   0  0  0  0  0  0  0  0  0  0  0  0
    7.2662  -12.2499   20.6799 S   0  0  0  0  0  0  0  0  0  0  0  0
    7.5658  -13.7625   19.8182 C   0  0  0  0  0  0  0  0  0  0  0  0
    8.3367  -14.7951   20.5407 C   0  0  0  0  0  0  0  0  0  0  0  0
    8.5164  -16.0732   19.8404 C   0  0  2  0  0  0  0  0  0  0  0  0
    7.3065  -16.7120   19.4563 N   0  0  0  0  0  0  0  0  0  0  0  0
    9.3317  -17.0092   20.6733 C   0  0  0  0  0  0  0  0  0  0  0  0
    8.7655  -17.9598   21.2387 O   0  0  0  0  0  0  0  0  0  0  0  0
   10.7124  -16.8213   20.8166 N   0  0  0  0  0  0  0  0  0  0  0  0
   11.4699  -17.8213   21.6150 C   0  0  1  0  0  0  0  0  0  0  0  0
   12.9159  -17.6343   21.2625 C   0  0  0  0  0  0  0  0  0  0  0  0
   13.8982  -18.5368   21.7729 C   0  0  0  0  0  0  0  0  0  0  0  0
   15.1394  -18.4885   21.7247 O   0  0  0  0  0  0  0  0  0  0  0  0
   11.1266  -17.5234   23.0222 C   0  0  0  0  0  0  0  0  0  0  0  0
   11.3930  -16.3429   23.4561 O   0  0  0  0  0  0  0  0  0  0  0  0
   13.4233  -19.6968   22.4582 O   0  0  0  0  0  0  0  0  0  0  0  0
   10.5336  -18.3719   23.9618 N   0  0  0  0  0  0  0  0  0  0  0  0
   10.3434  -17.9640   25.3511 C   0  0  1  0  0  0  0  0  0  0  0  0
    8.8924  -18.1495   25.6824 C   0  0  0  0  0  0  0  0  0  0  0  0
    8.0095  -17.4262   24.7029 C   0  0  0  0  0  0  0  0  0  0  0  0
    6.5966  -17.7339   25.0289 C   0  0  0  0  0  0  0  0  0  0  0  0
    5.7578  -17.8535   24.1146 O   0  0  0  0  0  0  0  0  0  0  0  0
   11.1916  -18.7421   26.2652 C   0  0  0  0  0  0  0  0  0  0  0  0
   12.0377  -19.7192   25.7886 O   0  0  0  0  0  0  0  0  0  0  0  0
    6.1708  -17.8953   26.3304 O   0  0  0  0  0  0  0  0  0  0  0  0
   11.1459  -18.5162   27.4907 O   0  0  0  0  0  0  0  0  0  0  0  0
  2  1  1  0
  3  2  1  0
  4  3  1  0
  4  5  1  0
  5  6  1  1
  5  7  1  0
  7  8  2  0
  9  7  1  0
  9 10  1  0
 11 12  1  0
 10 11  1  1
 12 16  1  0
 13 12  2  0
 14 10  1  0
 14 15  2  0
 17 14  1  0
 18 17  1  0
 18 23  1  0
 18 19  1  1
 20 19  1  0
 20 21  1  0
 21 25  1  0
 22 21  2  0
 23 24  1  0
 26 23  2  0
M  END
$$$$
