MDE.pdb
     RDKit          3D

 26 25  0  0  1  0  0  0  0  0999 V2000
    6.7301  -11.5225   27.7254 C   0  0  0  0  0  0  0  0  0  0  0  0
    7.1513  -12.3947   26.2382 S   0  0  0  0  0  0  0  0  0  0  0  0
    6.1497  -13.7751   25.7785 C   0  0  0  0  0  0  0  0  0  0  0  0
    6.8412  -14.9095   25.1325 C   0  0  0  0  0  0  0  0  0  0  0  0
    8.0737  -14.5829   24.4041 C   0  0  2  0  0  0  0  0  0  0  0  0
    7.8798  -13.7943   23.2379 N   0  0  0  0  0  0  0  0  0  0  0  0
    8.8083  -15.8339   24.0435 C   0  0  0  0  0  0  0  0  0  0  0  0
    8.7572  -16.8054   24.8165 O   0  0  0  0  0  0  0  0  0  0  0  0
    9.5435  -15.9140   22.8538 N   0  0  0  0  0  0  0  0  0  0  0  0
   10.2754  -17.1777   22.5738 C   0  0  1  0  0  0  0  0  0  0  0  0
   10.7779  -17.0706   21.1645 C   0  0  0  0  0  0  0  0  0  0  0  0
   11.4960  -18.1567   20.5775 C   0  0  0  0  0  0  0  0  0  0  0  0
   11.8260  -19.2560   21.0545 O   0  0  0  0  0  0  0  0  0  0  0  0
   11.3291  -17.2443   23.6092 C   0  0  0  0  0  0  0  0  0  0  0  0
   11.6096  -16.1567   24.2347 O   0  0  0  0  0  0  0  0  0  0  0  0
   11.9237  -17.9985   19.2237 O   0  0  0  0  0  0  0  0  0  0  0  0
   12.0731  -18.3579   24.0101 N   0  0  0  0  0  0  0  0  0  0  0  0
   12.7271  -18.4142   25.3147 C   0  0  1  0  0  0  0  0  0  0  0  0
   11.6637  -18.6591   26.3436 C   0  0  0  0  0  0  0  0  0  0  0  0
   12.2619  -18.9262   27.6974 C   0  0  0  0  0  0  0  0  0  0  0  0
   11.1592  -19.0687   28.6777 C   0  0  0  0  0  0  0  0  0  0  0  0
    9.9750  -18.9585   28.3041 O   0  0  0  0  0  0  0  0  0  0  0  0
   13.7520  -19.4669   25.3619 C   0  0  0  0  0  0  0  0  0  0  0  0
   13.8582  -20.3990   24.3531 O   0  0  0  0  0  0  0  0  0  0  0  0
   11.4019  -19.3232   30.0109 O   0  0  0  0  0  0  0  0  0  0  0  0
   14.5377  -19.5188   26.3287 O   0  0  0  0  0  0  0  0  0  0  0  0
  2  1  1  0
  3  2  1  0
  4  3  1  0
  4  5  1  0
  5  6  1  6
  5  7  1  0
  7  8  2  0
  9  7  1  0
  9 10  1  0
 11 12  1  0
 10 11  1  6
 12 16  1  0
 13 12  2  0
 14 10  1  0
 14 15  2  0
 17 14  1  0
 18 17  1  0
 18 23  1  0
 18 19  1  1
 20 19  1  0
 20 21  1  0
 21 25  1  0
 22 21  2  0
 23 24  1  0
 26 23  2  0
M  END
$$$$
