MDE.pdb
     RDKit          3D

 26 25  0  0  1  0  0  0  0  0999 V2000
    7.0941  -12.3366   27.8571 C   0  0  0  0  0  0  0  0  0  0  0  0
    7.2302  -12.0343   26.1136 S   0  0  0  0  0  0  0  0  0  0  0  0
    6.2340  -13.0069   25.0264 C   0  0  0  0  0  0  0  0  0  0  0  0
    6.7273  -14.3633   24.7113 C   0  0  0  0  0  0  0  0  0  0  0  0
    8.1756  -14.4908   24.5049 C   0  0  2  0  0  0  0  0  0  0  0  0
    8.6957  -13.6886   23.4536 N   0  0  0  0  0  0  0  0  0  0  0  0
    8.5403  -15.9209   24.2679 C   0  0  0  0  0  0  0  0  0  0  0  0
    8.0767  -16.7928   25.0221 O   0  0  0  0  0  0  0  0  0  0  0  0
    9.3906  -16.2770   23.2131 N   0  0  0  0  0  0  0  0  0  0  0  0
    9.8071  -17.7005   23.1074 C   0  0  1  0  0  0  0  0  0  0  0  0
   10.4452  -17.8541   21.7586 C   0  0  0  0  0  0  0  0  0  0  0  0
   10.9999  -19.1113   21.3696 C   0  0  0  0  0  0  0  0  0  0  0  0
   11.9073  -19.3767   20.5626 O   0  0  0  0  0  0  0  0  0  0  0  0
   10.7135  -17.9178   24.2555 C   0  0  0  0  0  0  0  0  0  0  0  0
   11.8225  -17.2675   24.2614 O   0  0  0  0  0  0  0  0  0  0  0  0
   10.4548  -20.2811   21.9821 O   0  0  0  0  0  0  0  0  0  0  0  0
   10.5179  -18.7505   25.3612 N   0  0  0  0  0  0  0  0  0  0  0  0
   11.5364  -18.9022   26.3968 C   0  0  1  0  0  0  0  0  0  0  0  0
   11.7073  -17.5688   27.0620 C   0  0  0  0  0  0  0  0  0  0  0  0
   10.5622  -17.2680   27.9895 C   0  0  0  0  0  0  0  0  0  0  0  0
   10.8683  -16.0163   28.7221 C   0  0  0  0  0  0  0  0  0  0  0  0
   11.9662  -15.4497   28.5563 O   0  0  0  0  0  0  0  0  0  0  0  0
   11.1626  -19.9312   27.3777 C   0  0  0  0  0  0  0  0  0  0  0  0
   12.0486  -20.3384   28.3508 O   0  0  0  0  0  0  0  0  0  0  0  0
    9.9656  -15.4474   29.5954 O   0  0  0  0  0  0  0  0  0  0  0  0
   10.0272  -20.4444   27.3299 O   0  0  0  0  0  0  0  0  0  0  0  0
  2  1  1  0
  3  2  1  0
  4  3  1  0
  4  5  1  0
  5  6  1  6
  5  7  1  0
  7  8  2  0
  9  7  1  0
  9 10  1  0
 11 12  1  0
 10 11  1  6
 12 16  1  0
 13 12  2  0
 14 10  1  0
 14 15  2  0
 17 14  1  0
 18 17  1  0
 18 23  1  0
 18 19  1  1
 20 19  1  0
 20 21  1  0
 21 25  1  0
 22 21  2  0
 23 24  1  0
 26 23  2  0
M  END
$$$$
