HPW.pdb
     RDKit          3D

 32 35  0  0  1  0  0  0  0  0999 V2000
   26.2752  -21.7700  -17.1190 N   0  0  0  0  0  0  0  0  0  0  0  0
   26.9756  -20.8430  -16.2097 C   0  0  1  0  0  0  0  0  0  0  0  0
   26.0606  -19.6120  -16.1905 C   0  0  0  0  0  0  0  0  0  0  0  0
   24.7210  -19.9539  -15.6487 C   0  0  0  0  0  0  0  0  0  0  0  0
   23.6189  -20.4311  -16.3535 C   0  0  0  0  0  0  0  0  0  0  0  0
   22.6054  -20.6204  -15.5282 N   0  0  0  0  0  0  0  0  0  0  0  0
   23.0106  -20.2784  -14.2865 C   0  0  0  0  0  0  0  0  0  0  0  0
   24.2910  -19.8783  -14.3779 N   0  0  0  0  0  0  0  0  0  0  0  0
   27.0455  -21.4394  -14.8386 C   0  0  0  0  0  0  0  0  0  0  0  0
   26.4951  -22.5997  -14.7445 O   0  0  0  0  0  0  0  0  0  0  0  0
   27.6443  -20.8276  -13.7258 N   0  0  0  0  0  0  0  0  0  0  0  0
   28.1483  -19.4846  -13.6811 C   0  0  0  0  0  0  0  0  0  0  0  0
   29.4079  -19.6380  -12.8149 C   0  0  0  0  0  0  0  0  0  0  0  0
   29.3386  -21.0230  -12.2268 C   0  0  0  0  0  0  0  0  0  0  0  0
   27.8934  -21.3985  -12.4499 C   0  0  1  0  0  0  0  0  0  0  0  0
   27.0835  -20.8382  -11.3361 C   0  0  0  0  0  0  0  0  0  0  0  0
   26.4056  -19.8131  -11.5991 O   0  0  0  0  0  0  0  0  0  0  0  0
   27.0213  -21.3625  -10.0275 N   0  0  0  0  0  0  0  0  0  0  0  0
   25.7138  -21.4925   -9.3757 C   0  0  1  0  0  0  0  0  0  0  0  0
   25.8384  -21.3722   -7.9025 C   0  0  0  0  0  0  0  0  0  0  0  0
   26.7000  -20.2668   -7.4546 C   0  0  0  0  0  0  0  0  0  0  0  0
   26.7589  -18.9829   -8.0098 C   0  0  0  0  0  0  0  0  0  0  0  0
   27.6918  -18.2787   -7.3588 N   0  0  0  0  0  0  0  0  0  0  0  0
   28.2556  -19.0229   -6.4015 C   0  0  0  0  0  0  0  0  0  0  0  0
   29.2404  -18.7369   -5.4642 C   0  0  0  0  0  0  0  0  0  0  0  0
   29.6332  -19.6894   -4.5558 C   0  0  0  0  0  0  0  0  0  0  0  0
   29.0247  -20.9142   -4.6094 C   0  0  0  0  0  0  0  0  0  0  0  0
   28.0500  -21.2262   -5.5234 C   0  0  0  0  0  0  0  0  0  0  0  0
   27.6535  -20.2592   -6.4446 C   0  0  0  0  0  0  0  0  0  0  0  0
   24.6818  -20.6384   -9.9550 C   0  0  0  0  0  0  0  0  0  0  0  0
   24.9791  -19.6807  -10.9167 O   0  0  0  0  0  0  0  0  0  0  0  0
   23.4572  -20.6998   -9.6252 O   0  0  0  0  0  0  0  0  0  0  0  0
  2  1  1  6
  3  2  1  0
  4  3  1  0
  4  5  2  0
  6  5  1  0
  7  6  1  0
  8  7  2  0
  8  4  1  0
  9 11  1  0
  9  2  1  0
 10  9  2  0
 11 15  1  0
 12 11  1  0
 12 13  1  0
 13 14  1  0
 15 14  1  0
 15 16  1  1
 16 18  1  0
 17 16  2  0
 18 19  1  0
 19 20  1  1
 21 20  1  0
 22 21  2  0
 23 22  1  0
 24 23  1  0
 24 29  2  0
 25 24  1  0
 26 25  2  0
 26 27  1  0
 27 28  2  0
 28 29  1  0
 29 21  1  0
 30 31  1  0
 30 19  1  0
 32 30  2  0
M  END
$$$$
