HPW.pdb
     RDKit          3D

 32 35  0  0  1  0  0  0  0  0999 V2000
   21.0441  -14.5845  -17.3636 N   0  0  0  0  0  0  0  0  0  0  0  0
   22.0106  -13.4731  -17.4475 C   0  0  1  0  0  0  0  0  0  0  0  0
   21.8345  -12.9624  -18.8832 C   0  0  0  0  0  0  0  0  0  0  0  0
   22.1638  -14.0232  -19.8687 C   0  0  0  0  0  0  0  0  0  0  0  0
   23.4294  -14.4434  -20.2695 C   0  0  0  0  0  0  0  0  0  0  0  0
   23.3199  -15.4104  -21.1624 N   0  0  0  0  0  0  0  0  0  0  0  0
   22.0053  -15.6427  -21.3648 C   0  0  0  0  0  0  0  0  0  0  0  0
   21.3217  -14.7960  -20.5751 N   0  0  0  0  0  0  0  0  0  0  0  0
   21.6263  -12.3975  -16.4801 C   0  0  0  0  0  0  0  0  0  0  0  0
   20.3590  -12.3134  -16.2681 O   0  0  0  0  0  0  0  0  0  0  0  0
   22.5285  -11.5339  -15.8387 N   0  0  0  0  0  0  0  0  0  0  0  0
   23.9584  -11.5869  -15.9493 C   0  0  0  0  0  0  0  0  0  0  0  0
   24.4088  -11.2361  -14.5229 C   0  0  0  0  0  0  0  0  0  0  0  0
   23.1753  -10.7499  -13.8081 C   0  0  0  0  0  0  0  0  0  0  0  0
   22.2283  -10.4683  -14.9497 C   0  0  1  0  0  0  0  0  0  0  0  0
   22.5139   -9.1065  -15.4738 C   0  0  0  0  0  0  0  0  0  0  0  0
   23.3228   -9.0355  -16.4330 O   0  0  0  0  0  0  0  0  0  0  0  0
   21.9541   -7.9082  -14.9820 N   0  0  0  0  0  0  0  0  0  0  0  0
   21.1431   -7.0812  -15.8819 C   0  0  1  0  0  0  0  0  0  0  0  0
   20.1710   -7.9098  -16.6359 C   0  0  0  0  0  0  0  0  0  0  0  0
   19.2909   -7.1462  -17.5343 C   0  0  0  0  0  0  0  0  0  0  0  0
   19.4805   -5.8248  -17.9563 C   0  0  0  0  0  0  0  0  0  0  0  0
   18.4468   -5.4709  -18.7285 N   0  0  0  0  0  0  0  0  0  0  0  0
   17.5813   -6.4837  -18.8437 C   0  0  0  0  0  0  0  0  0  0  0  0
   16.3873   -6.6078  -19.5432 C   0  0  0  0  0  0  0  0  0  0  0  0
   15.6856   -7.7883  -19.5167 C   0  0  0  0  0  0  0  0  0  0  0  0
   16.2017   -8.8231  -18.7846 C   0  0  0  0  0  0  0  0  0  0  0  0
   17.3775   -8.7305  -18.0833 C   0  0  0  0  0  0  0  0  0  0  0  0
   18.0874   -7.5320  -18.1106 C   0  0  0  0  0  0  0  0  0  0  0  0
   20.5509   -5.9156  -15.2332 C   0  0  0  0  0  0  0  0  0  0  0  0
   20.7999   -4.6238  -15.6802 O   0  0  0  0  0  0  0  0  0  0  0  0
   19.7826   -5.9916  -14.2252 O   0  0  0  0  0  0  0  0  0  0  0  0
  2  1  1  6
  3  2  1  0
  4  3  1  0
  4  5  2  0
  6  5  1  0
  7  6  1  0
  8  7  2  0
  8  4  1  0
  9 11  1  0
  9  2  1  0
 10  9  2  0
 11 15  1  0
 12 11  1  0
 12 13  1  0
 13 14  1  0
 15 14  1  0
 15 16  1  6
 16 18  1  0
 17 16  2  0
 18 19  1  0
 19 20  1  1
 21 20  1  0
 22 21  2  0
 23 22  1  0
 24 23  1  0
 24 29  2  0
 25 24  1  0
 26 25  2  0
 26 27  1  0
 27 28  2  0
 28 29  1  0
 29 21  1  0
 30 31  1  0
 30 19  1  0
 32 30  2  0
M  END
$$$$
