HPW.pdb
     RDKit          3D

 32 35  0  0  1  0  0  0  0  0999 V2000
   29.9349  -18.0148  -18.4091 N   0  0  0  0  0  0  0  0  0  0  0  0
   28.6892  -18.7335  -18.0801 C   0  0  1  0  0  0  0  0  0  0  0  0
   29.0372  -20.1963  -18.3839 C   0  0  0  0  0  0  0  0  0  0  0  0
   29.1314  -20.4271  -19.8477 C   0  0  0  0  0  0  0  0  0  0  0  0
   28.6657  -19.6006  -20.8671 C   0  0  0  0  0  0  0  0  0  0  0  0
   28.9341  -20.1413  -22.0418 N   0  0  0  0  0  0  0  0  0  0  0  0
   29.5695  -21.3127  -21.8251 C   0  0  0  0  0  0  0  0  0  0  0  0
   29.6804  -21.4692  -20.4942 N   0  0  0  0  0  0  0  0  0  0  0  0
   28.3897  -18.5800  -16.6216 C   0  0  0  0  0  0  0  0  0  0  0  0
   29.4354  -18.4242  -15.8866 O   0  0  0  0  0  0  0  0  0  0  0  0
   27.1033  -18.5990  -16.0592 N   0  0  0  0  0  0  0  0  0  0  0  0
   25.8833  -18.8506  -16.7719 C   0  0  0  0  0  0  0  0  0  0  0  0
   24.9033  -17.8818  -16.0925 C   0  0  0  0  0  0  0  0  0  0  0  0
   25.6135  -17.3673  -14.8679 C   0  0  0  0  0  0  0  0  0  0  0  0
   26.7426  -18.3566  -14.7075 C   0  0  1  0  0  0  0  0  0  0  0  0
   26.2308  -19.5397  -13.9666 C   0  0  0  0  0  0  0  0  0  0  0  0
   25.5079  -20.3361  -14.6167 O   0  0  0  0  0  0  0  0  0  0  0  0
   26.4914  -19.8294  -12.6103 N   0  0  0  0  0  0  0  0  0  0  0  0
   26.0079  -21.0951  -12.0486 C   0  0  1  0  0  0  0  0  0  0  0  0
   26.8886  -21.5613  -10.9498 C   0  0  0  0  0  0  0  0  0  0  0  0
   26.6501  -20.8983   -9.6582 C   0  0  0  0  0  0  0  0  0  0  0  0
   25.4151  -20.4592   -9.1660 C   0  0  0  0  0  0  0  0  0  0  0  0
   25.6132  -19.8682   -7.9821 N   0  0  0  0  0  0  0  0  0  0  0  0
   26.9108  -19.8907   -7.6599 C   0  0  0  0  0  0  0  0  0  0  0  0
   27.5969  -19.4290   -6.5435 C   0  0  0  0  0  0  0  0  0  0  0  0
   28.9560  -19.6005   -6.4428 C   0  0  0  0  0  0  0  0  0  0  0  0
   29.5988  -20.2355   -7.4707 C   0  0  0  0  0  0  0  0  0  0  0  0
   28.9487  -20.7017   -8.5856 C   0  0  0  0  0  0  0  0  0  0  0  0
   27.5703  -20.5260   -8.6866 C   0  0  0  0  0  0  0  0  0  0  0  0
   24.5893  -21.0811  -11.7060 C   0  0  0  0  0  0  0  0  0  0  0  0
   23.8477  -22.2522  -11.6105 O   0  0  0  0  0  0  0  0  0  0  0  0
   23.9353  -20.0165  -11.4799 O   0  0  0  0  0  0  0  0  0  0  0  0
  2  1  1  1
  3  2  1  0
  4  3  1  0
  4  5  2  0
  6  5  1  0
  7  6  1  0
  8  7  2  0
  8  4  1  0
  9 11  1  0
  9  2  1  0
 10  9  2  0
 11 15  1  0
 12 11  1  0
 12 13  1  0
 13 14  1  0
 15 14  1  0
 15 16  1  6
 16 18  1  0
 17 16  2  0
 18 19  1  0
 19 20  1  1
 21 20  1  0
 22 21  2  0
 23 22  1  0
 24 23  1  0
 24 29  2  0
 25 24  1  0
 26 25  2  0
 26 27  1  0
 27 28  2  0
 28 29  1  0
 29 21  1  0
 30 31  1  0
 30 19  1  0
 32 30  2  0
M  END
$$$$
