HPW.pdb
     RDKit          3D

 32 35  0  0  1  0  0  0  0  0999 V2000
   25.4516  -19.2562  -19.1268 N   0  0  0  0  0  0  0  0  0  0  0  0
   25.8310  -18.7937  -17.7782 C   0  0  1  0  0  0  0  0  0  0  0  0
   24.6379  -17.9270  -17.3559 C   0  0  0  0  0  0  0  0  0  0  0  0
   24.5347  -16.7142  -18.2064 C   0  0  0  0  0  0  0  0  0  0  0  0
   25.3327  -15.5742  -18.1562 C   0  0  0  0  0  0  0  0  0  0  0  0
   24.9369  -14.7080  -19.0713 N   0  0  0  0  0  0  0  0  0  0  0  0
   23.8899  -15.2487  -19.7305 C   0  0  0  0  0  0  0  0  0  0  0  0
   23.6608  -16.4607  -19.1951 N   0  0  0  0  0  0  0  0  0  0  0  0
   25.9504  -19.9684  -16.8582 C   0  0  0  0  0  0  0  0  0  0  0  0
   25.1261  -20.9226  -17.1190 O   0  0  0  0  0  0  0  0  0  0  0  0
   26.8608  -20.0661  -15.7938 N   0  0  0  0  0  0  0  0  0  0  0  0
   27.7153  -19.0124  -15.3256 C   0  0  0  0  0  0  0  0  0  0  0  0
   29.0035  -19.7708  -14.9711 C   0  0  0  0  0  0  0  0  0  0  0  0
   28.6489  -21.2338  -15.0224 C   0  0  0  0  0  0  0  0  0  0  0  0
   27.1398  -21.2035  -14.9910 C   0  0  1  0  0  0  0  0  0  0  0  0
   26.6999  -21.1022  -13.5744 C   0  0  0  0  0  0  0  0  0  0  0  0
   27.1669  -20.1418  -12.9118 O   0  0  0  0  0  0  0  0  0  0  0  0
   25.8127  -21.9898  -12.9293 N   0  0  0  0  0  0  0  0  0  0  0  0
   24.7540  -21.4406  -12.0755 C   0  0  1  0  0  0  0  0  0  0  0  0
   25.1840  -20.1685  -11.4453 C   0  0  0  0  0  0  0  0  0  0  0  0
   25.5545  -20.2890  -10.0265 C   0  0  0  0  0  0  0  0  0  0  0  0
   24.6879  -20.1917   -8.9311 C   0  0  0  0  0  0  0  0  0  0  0  0
   25.4048  -20.3107   -7.8078 N   0  0  0  0  0  0  0  0  0  0  0  0
   26.6994  -20.4823   -8.0957 C   0  0  0  0  0  0  0  0  0  0  0  0
   27.8124  -20.6690   -7.2854 C   0  0  0  0  0  0  0  0  0  0  0  0
   29.0550  -20.8496   -7.8421 C   0  0  0  0  0  0  0  0  0  0  0  0
   29.1524  -20.8388   -9.2072 C   0  0  0  0  0  0  0  0  0  0  0  0
   28.0719  -20.6563  -10.0331 C   0  0  0  0  0  0  0  0  0  0  0  0
   26.8124  -20.4722   -9.4667 C   0  0  0  0  0  0  0  0  0  0  0  0
   23.4514  -21.3674  -12.7297 C   0  0  0  0  0  0  0  0  0  0  0  0
   22.2706  -21.6107  -12.0390 O   0  0  0  0  0  0  0  0  0  0  0  0
   23.3014  -21.0877  -13.9591 O   0  0  0  0  0  0  0  0  0  0  0  0
  2  1  1  6
  3  2  1  0
  4  3  1  0
  4  5  2  0
  6  5  1  0
  7  6  1  0
  8  7  2  0
  8  4  1  0
  9 11  1  0
  9  2  1  0
 10  9  2  0
 11 15  1  0
 12 11  1  0
 12 13  1  0
 13 14  1  0
 15 14  1  0
 15 16  1  1
 16 18  1  0
 17 16  2  0
 18 19  1  0
 19 20  1  6
 21 20  1  0
 22 21  2  0
 23 22  1  0
 24 23  1  0
 24 29  2  0
 25 24  1  0
 26 25  2  0
 26 27  1  0
 27 28  2  0
 28 29  1  0
 29 21  1  0
 30 31  1  0
 30 19  1  0
 32 30  2  0
M  END
$$$$
