HPW.pdb
     RDKit          3D

 32 35  0  0  1  0  0  0  0  0999 V2000
   22.0854  -19.0509  -16.2411 N   0  0  0  0  0  0  0  0  0  0  0  0
   23.5090  -19.1414  -15.8646 C   0  0  1  0  0  0  0  0  0  0  0  0
   23.9643  -17.6766  -15.8587 C   0  0  0  0  0  0  0  0  0  0  0  0
   25.4412  -17.5796  -15.7387 C   0  0  0  0  0  0  0  0  0  0  0  0
   26.1712  -17.0303  -14.6878 C   0  0  0  0  0  0  0  0  0  0  0  0
   27.4640  -17.1274  -14.9398 N   0  0  0  0  0  0  0  0  0  0  0  0
   27.6099  -17.7307  -16.1389 C   0  0  0  0  0  0  0  0  0  0  0  0
   26.3778  -17.9969  -16.6070 N   0  0  0  0  0  0  0  0  0  0  0  0
   23.6299  -19.7114  -14.4859 C   0  0  0  0  0  0  0  0  0  0  0  0
   22.6008  -19.5009  -13.7410 O   0  0  0  0  0  0  0  0  0  0  0  0
   24.7435  -20.4171  -14.0030 N   0  0  0  0  0  0  0  0  0  0  0  0
   26.0244  -20.4977  -14.6451 C   0  0  0  0  0  0  0  0  0  0  0  0
   26.4403  -21.9493  -14.3615 C   0  0  0  0  0  0  0  0  0  0  0  0
   25.4591  -22.4687  -13.3435 C   0  0  0  0  0  0  0  0  0  0  0  0
   24.8305  -21.1993  -12.8212 C   0  0  1  0  0  0  0  0  0  0  0  0
   25.7068  -20.6430  -11.7566 C   0  0  0  0  0  0  0  0  0  0  0  0
   26.6608  -19.9201  -12.1395 O   0  0  0  0  0  0  0  0  0  0  0  0
   25.5500  -20.8636  -10.3717 N   0  0  0  0  0  0  0  0  0  0  0  0
   26.5087  -20.2563   -9.4425 C   0  0  1  0  0  0  0  0  0  0  0  0
   25.8661  -19.9438   -8.1426 C   0  0  0  0  0  0  0  0  0  0  0  0
   26.7535  -19.2888   -7.1688 C   0  0  0  0  0  0  0  0  0  0  0  0
   27.2008  -17.9629   -7.2142 C   0  0  0  0  0  0  0  0  0  0  0  0
   28.0245  -17.7548   -6.1807 N   0  0  0  0  0  0  0  0  0  0  0  0
   28.1490  -18.8683   -5.4507 C   0  0  0  0  0  0  0  0  0  0  0  0
   28.8642  -19.1418   -4.2915 C   0  0  0  0  0  0  0  0  0  0  0  0
   28.8033  -20.3867   -3.7144 C   0  0  0  0  0  0  0  0  0  0  0  0
   28.0210  -21.3340   -4.3176 C   0  0  0  0  0  0  0  0  0  0  0  0
   27.3039  -21.0940   -5.4626 C   0  0  0  0  0  0  0  0  0  0  0  0
   27.3678  -19.8309   -6.0471 C   0  0  0  0  0  0  0  0  0  0  0  0
   27.7597  -20.9981   -9.3222 C   0  0  0  0  0  0  0  0  0  0  0  0
   28.9859  -20.3533   -9.2161 O   0  0  0  0  0  0  0  0  0  0  0  0
   27.8222  -22.2663   -9.3124 O   0  0  0  0  0  0  0  0  0  0  0  0
  2  1  1  1
  3  2  1  0
  4  3  1  0
  4  5  2  0
  6  5  1  0
  7  6  1  0
  8  7  2  0
  8  4  1  0
  9 11  1  0
  9  2  1  0
 10  9  2  0
 11 15  1  0
 12 11  1  0
 12 13  1  0
 13 14  1  0
 15 14  1  0
 15 16  1  1
 16 18  1  0
 17 16  2  0
 18 19  1  0
 19 20  1  1
 21 20  1  0
 22 21  2  0
 23 22  1  0
 24 23  1  0
 24 29  2  0
 25 24  1  0
 26 25  2  0
 26 27  1  0
 27 28  2  0
 28 29  1  0
 29 21  1  0
 30 31  1  0
 30 19  1  0
 32 30  2  0
M  END
$$$$
