HPW.pdb
     RDKit          3D

 32 35  0  0  1  0  0  0  0  0999 V2000
   25.6000  -18.8783  -16.7787 N   0  0  0  0  0  0  0  0  0  0  0  0
   26.3023  -18.6589  -15.4999 C   0  0  1  0  0  0  0  0  0  0  0  0
   25.3118  -17.8061  -14.6972 C   0  0  0  0  0  0  0  0  0  0  0  0
   25.1229  -16.4754  -15.3286 C   0  0  0  0  0  0  0  0  0  0  0  0
   26.0272  -15.4170  -15.3604 C   0  0  0  0  0  0  0  0  0  0  0  0
   25.5024  -14.3972  -16.0153 N   0  0  0  0  0  0  0  0  0  0  0  0
   24.2653  -14.7554  -16.4205 C   0  0  0  0  0  0  0  0  0  0  0  0
   24.0527  -16.0138  -15.9971 N   0  0  0  0  0  0  0  0  0  0  0  0
   26.5122  -19.9702  -14.8094 C   0  0  0  0  0  0  0  0  0  0  0  0
   25.7764  -20.9242  -15.2640 O   0  0  0  0  0  0  0  0  0  0  0  0
   27.4155  -20.1886  -13.7570 N   0  0  0  0  0  0  0  0  0  0  0  0
   28.1996  -19.1785  -13.1055 C   0  0  0  0  0  0  0  0  0  0  0  0
   29.5276  -19.9088  -12.8535 C   0  0  0  0  0  0  0  0  0  0  0  0
   29.2629  -21.3615  -13.1506 C   0  0  0  0  0  0  0  0  0  0  0  0
   27.7544  -21.4244  -13.1455 C   0  0  1  0  0  0  0  0  0  0  0  0
   27.2942  -21.5832  -11.7406 C   0  0  0  0  0  0  0  0  0  0  0  0
   28.1806  -21.5197  -10.8519 O   0  0  0  0  0  0  0  0  0  0  0  0
   25.9588  -21.7970  -11.3379 N   0  0  0  0  0  0  0  0  0  0  0  0
   25.6325  -21.7556   -9.9085 C   0  0  1  0  0  0  0  0  0  0  0  0
   26.8635  -21.7284   -9.0815 C   0  0  0  0  0  0  0  0  0  0  0  0
   26.8876  -20.6660   -8.0639 C   0  0  0  0  0  0  0  0  0  0  0  0
   25.8502  -19.7722   -7.7723 C   0  0  0  0  0  0  0  0  0  0  0  0
   26.2674  -18.9298   -6.8203 N   0  0  0  0  0  0  0  0  0  0  0  0
   27.5240  -19.2146   -6.4624 C   0  0  0  0  0  0  0  0  0  0  0  0
   28.3703  -18.6467   -5.5183 C   0  0  0  0  0  0  0  0  0  0  0  0
   29.6328  -19.1515   -5.3234 C   0  0  0  0  0  0  0  0  0  0  0  0
   30.0188  -20.2212   -6.0850 C   0  0  0  0  0  0  0  0  0  0  0  0
   29.2059  -20.8028   -7.0250 C   0  0  0  0  0  0  0  0  0  0  0  0
   27.9261  -20.2888   -7.2221 C   0  0  0  0  0  0  0  0  0  0  0  0
   24.6601  -20.7252   -9.5583 C   0  0  0  0  0  0  0  0  0  0  0  0
   23.6961  -20.9309   -8.5790 O   0  0  0  0  0  0  0  0  0  0  0  0
   24.6175  -19.5856  -10.1165 O   0  0  0  0  0  0  0  0  0  0  0  0
  2  1  1  6
  3  2  1  0
  4  3  1  0
  4  5  2  0
  6  5  1  0
  7  6  1  0
  8  7  2  0
  8  4  1  0
  9 11  1  0
  9  2  1  0
 10  9  2  0
 11 15  1  0
 12 11  1  0
 12 13  1  0
 13 14  1  0
 15 14  1  0
 15 16  1  1
 16 18  1  0
 17 16  2  0
 18 19  1  0
 19 20  1  1
 21 20  1  0
 22 21  2  0
 23 22  1  0
 24 23  1  0
 24 29  2  0
 25 24  1  0
 26 25  2  0
 26 27  1  0
 27 28  2  0
 28 29  1  0
 29 21  1  0
 30 31  1  0
 30 19  1  0
 32 30  2  0
M  END
$$$$
