HPW.pdb
     RDKit          3D

 32 35  0  0  1  0  0  0  0  0999 V2000
   23.3222  -20.1664  -15.9596 N   0  0  0  0  0  0  0  0  0  0  0  0
   24.2201  -19.4596  -15.0265 C   0  0  1  0  0  0  0  0  0  0  0  0
   23.2594  -18.5892  -14.2065 C   0  0  0  0  0  0  0  0  0  0  0  0
   22.7187  -17.4762  -15.0272 C   0  0  0  0  0  0  0  0  0  0  0  0
   23.0446  -17.1584  -16.3432 C   0  0  0  0  0  0  0  0  0  0  0  0
   22.3564  -16.1010  -16.7338 N   0  0  0  0  0  0  0  0  0  0  0  0
   21.5780  -15.7075  -15.7032 C   0  0  0  0  0  0  0  0  0  0  0  0
   21.8095  -16.5494  -14.6807 N   0  0  0  0  0  0  0  0  0  0  0  0
   24.8933  -20.4497  -14.1283 C   0  0  0  0  0  0  0  0  0  0  0  0
   24.2086  -21.5212  -13.9251 O   0  0  0  0  0  0  0  0  0  0  0  0
   26.1539  -20.2707  -13.5368 N   0  0  0  0  0  0  0  0  0  0  0  0
   26.9576  -19.0849  -13.6251 C   0  0  0  0  0  0  0  0  0  0  0  0
   28.3779  -19.6612  -13.7316 C   0  0  0  0  0  0  0  0  0  0  0  0
   28.2528  -21.1289  -13.4171 C   0  0  0  0  0  0  0  0  0  0  0  0
   26.8928  -21.2068  -12.7661 C   0  0  1  0  0  0  0  0  0  0  0  0
   27.0394  -20.8665  -11.3262 C   0  0  0  0  0  0  0  0  0  0  0  0
   27.2771  -19.6618  -11.0584 O   0  0  0  0  0  0  0  0  0  0  0  0
   26.9340  -21.7804  -10.2563 N   0  0  0  0  0  0  0  0  0  0  0  0
   26.7490  -21.2636   -8.8961 C   0  0  1  0  0  0  0  0  0  0  0  0
   27.4522  -19.9699   -8.7174 C   0  0  0  0  0  0  0  0  0  0  0  0
   27.5818  -19.5380   -7.3169 C   0  0  0  0  0  0  0  0  0  0  0  0
   26.9445  -18.4414   -6.7240 C   0  0  0  0  0  0  0  0  0  0  0  0
   27.3488  -18.3492   -5.4520 N   0  0  0  0  0  0  0  0  0  0  0  0
   28.2187  -19.3238   -5.1664 C   0  0  0  0  0  0  0  0  0  0  0  0
   28.8898  -19.6536   -3.9954 C   0  0  0  0  0  0  0  0  0  0  0  0
   29.7277  -20.7413   -3.9572 C   0  0  0  0  0  0  0  0  0  0  0  0
   29.8733  -21.4774   -5.1018 C   0  0  0  0  0  0  0  0  0  0  0  0
   29.2246  -21.1763   -6.2728 C   0  0  0  0  0  0  0  0  0  0  0  0
   28.3758  -20.0721   -6.3100 C   0  0  0  0  0  0  0  0  0  0  0  0
   25.3566  -21.2468   -8.4592 C   0  0  0  0  0  0  0  0  0  0  0  0
   24.3520  -20.6847   -9.2372 O   0  0  0  0  0  0  0  0  0  0  0  0
   24.9655  -21.7298   -7.3519 O   0  0  0  0  0  0  0  0  0  0  0  0
  2  1  1  6
  3  2  1  0
  4  3  1  0
  4  5  2  0
  6  5  1  0
  7  6  1  0
  8  7  2  0
  8  4  1  0
  9 11  1  0
  9  2  1  0
 10  9  2  0
 11 15  1  0
 12 11  1  0
 12 13  1  0
 13 14  1  0
 15 14  1  0
 15 16  1  1
 16 18  1  0
 17 16  2  0
 18 19  1  0
 19 20  1  6
 21 20  1  0
 22 21  2  0
 23 22  1  0
 24 23  1  0
 24 29  2  0
 25 24  1  0
 26 25  2  0
 26 27  1  0
 27 28  2  0
 28 29  1  0
 29 21  1  0
 30 31  1  0
 30 19  1  0
 32 30  2  0
M  END
$$$$
