HPW.pdb
     RDKit          3D

 32 35  0  0  1  0  0  0  0  0999 V2000
   23.9463  -19.2727  -18.2005 N   0  0  0  0  0  0  0  0  0  0  0  0
   24.7654  -18.6269  -17.1572 C   0  0  1  0  0  0  0  0  0  0  0  0
   23.8760  -17.4732  -16.6768 C   0  0  0  0  0  0  0  0  0  0  0  0
   23.6979  -16.4586  -17.7463 C   0  0  0  0  0  0  0  0  0  0  0  0
   24.6349  -15.5346  -18.2016 C   0  0  0  0  0  0  0  0  0  0  0  0
   24.1097  -14.7997  -19.1651 N   0  0  0  0  0  0  0  0  0  0  0  0
   22.8403  -15.2159  -19.3607 C   0  0  0  0  0  0  0  0  0  0  0  0
   22.6085  -16.2186  -18.4953 N   0  0  0  0  0  0  0  0  0  0  0  0
   24.9959  -19.5868  -16.0320 C   0  0  0  0  0  0  0  0  0  0  0  0
   24.0205  -20.4037  -15.8336 O   0  0  0  0  0  0  0  0  0  0  0  0
   26.1522  -19.6300  -15.2368 N   0  0  0  0  0  0  0  0  0  0  0  0
   27.2405  -18.6962  -15.2932 C   0  0  0  0  0  0  0  0  0  0  0  0
   28.4604  -19.6040  -15.0737 C   0  0  0  0  0  0  0  0  0  0  0  0
   27.9102  -20.9377  -14.6409 C   0  0  0  0  0  0  0  0  0  0  0  0
   26.4929  -20.5932  -14.2509 C   0  0  1  0  0  0  0  0  0  0  0  0
   26.4980  -20.0924  -12.8510 C   0  0  0  0  0  0  0  0  0  0  0  0
   27.1183  -19.0192  -12.6439 O   0  0  0  0  0  0  0  0  0  0  0  0
   25.8693  -20.7224  -11.7560 N   0  0  0  0  0  0  0  0  0  0  0  0
   25.9833  -20.1153  -10.4257 C   0  0  1  0  0  0  0  0  0  0  0  0
   24.7396  -19.3941  -10.0606 C   0  0  0  0  0  0  0  0  0  0  0  0
   23.5976  -20.2700   -9.7552 C   0  0  0  0  0  0  0  0  0  0  0  0
   23.2442  -20.7637   -8.4936 C   0  0  0  0  0  0  0  0  0  0  0  0
   22.1768  -21.5588   -8.6301 N   0  0  0  0  0  0  0  0  0  0  0  0
   21.8008  -21.6204   -9.9118 C   0  0  0  0  0  0  0  0  0  0  0  0
   20.7560  -22.2864  -10.5405 C   0  0  0  0  0  0  0  0  0  0  0  0
   20.5687  -22.1634  -11.8957 C   0  0  0  0  0  0  0  0  0  0  0  0
   21.4393  -21.3700  -12.5926 C   0  0  0  0  0  0  0  0  0  0  0  0
   22.4802  -20.7006  -12.0000 C   0  0  0  0  0  0  0  0  0  0  0  0
   22.6693  -20.8273  -10.6255 C   0  0  0  0  0  0  0  0  0  0  0  0
   26.4570  -21.0375   -9.3985 C   0  0  0  0  0  0  0  0  0  0  0  0
   26.8234  -20.5978   -8.1324 O   0  0  0  0  0  0  0  0  0  0  0  0
   26.5748  -22.2883   -9.5826 O   0  0  0  0  0  0  0  0  0  0  0  0
  2  1  1  6
  3  2  1  0
  4  3  1  0
  4  5  2  0
  6  5  1  0
  7  6  1  0
  8  7  2  0
  8  4  1  0
  9 11  1  0
  9  2  1  0
 10  9  2  0
 11 15  1  0
 12 11  1  0
 12 13  1  0
 13 14  1  0
 15 14  1  0
 15 16  1  1
 16 18  1  0
 17 16  2  0
 18 19  1  0
 19 20  1  1
 21 20  1  0
 22 21  2  0
 23 22  1  0
 24 23  1  0
 24 29  2  0
 25 24  1  0
 26 25  2  0
 26 27  1  0
 27 28  2  0
 28 29  1  0
 29 21  1  0
 30 31  1  0
 30 19  1  0
 32 30  2  0
M  END
$$$$
