HPW.pdb
     RDKit          3D

 32 35  0  0  1  0  0  0  0  0999 V2000
   28.1220  -21.6307  -17.1402 N   0  0  0  0  0  0  0  0  0  0  0  0
   28.3926  -20.7211  -16.0106 C   0  0  1  0  0  0  0  0  0  0  0  0
   27.3786  -19.5893  -16.2207 C   0  0  0  0  0  0  0  0  0  0  0  0
   27.7335  -18.7716  -17.4083 C   0  0  0  0  0  0  0  0  0  0  0  0
   29.0027  -18.5539  -17.9381 C   0  0  0  0  0  0  0  0  0  0  0  0
   28.9186  -17.7719  -18.9990 N   0  0  0  0  0  0  0  0  0  0  0  0
   27.6175  -17.4637  -19.1866 C   0  0  0  0  0  0  0  0  0  0  0  0
   26.9160  -18.0762  -18.2167 N   0  0  0  0  0  0  0  0  0  0  0  0
   28.1043  -21.4217  -14.7197 C   0  0  0  0  0  0  0  0  0  0  0  0
   27.3150  -22.4322  -14.8382 O   0  0  0  0  0  0  0  0  0  0  0  0
   28.6223  -21.0479  -13.4695 N   0  0  0  0  0  0  0  0  0  0  0  0
   29.4939  -19.9342  -13.2252 C   0  0  0  0  0  0  0  0  0  0  0  0
   30.4417  -20.4914  -12.1520 C   0  0  0  0  0  0  0  0  0  0  0  0
   29.8326  -21.7922  -11.6983 C   0  0  0  0  0  0  0  0  0  0  0  0
   28.4191  -21.6878  -12.2184 C   0  0  1  0  0  0  0  0  0  0  0  0
   27.6114  -20.9171  -11.2365 C   0  0  0  0  0  0  0  0  0  0  0  0
   28.0594  -19.7903  -10.9066 O   0  0  0  0  0  0  0  0  0  0  0  0
   26.3999  -21.3501  -10.6566 N   0  0  0  0  0  0  0  0  0  0  0  0
   25.6567  -20.4277   -9.7917 C   0  0  1  0  0  0  0  0  0  0  0  0
   25.2803  -19.1951  -10.5261 C   0  0  0  0  0  0  0  0  0  0  0  0
   24.5686  -19.4358  -11.7911 C   0  0  0  0  0  0  0  0  0  0  0  0
   23.5736  -20.3952  -12.0142 C   0  0  0  0  0  0  0  0  0  0  0  0
   23.2041  -20.3361  -13.2987 N   0  0  0  0  0  0  0  0  0  0  0  0
   23.8975  -19.3905  -13.9414 C   0  0  0  0  0  0  0  0  0  0  0  0
   23.8597  -18.9461  -15.2572 C   0  0  0  0  0  0  0  0  0  0  0  0
   24.6763  -17.9210  -15.6685 C   0  0  0  0  0  0  0  0  0  0  0  0
   25.5167  -17.3622  -14.7441 C   0  0  0  0  0  0  0  0  0  0  0  0
   25.5770  -17.7798  -13.4384 C   0  0  0  0  0  0  0  0  0  0  0  0
   24.7487  -18.8204  -13.0233 C   0  0  0  0  0  0  0  0  0  0  0  0
   24.5480  -21.0555   -9.0799 C   0  0  0  0  0  0  0  0  0  0  0  0
   24.1817  -22.3753   -9.3134 O   0  0  0  0  0  0  0  0  0  0  0  0
   23.8424  -20.4522   -8.2136 O   0  0  0  0  0  0  0  0  0  0  0  0
  2  1  1  6
  3  2  1  0
  4  3  1  0
  4  5  2  0
  6  5  1  0
  7  6  1  0
  8  7  2  0
  8  4  1  0
  9 11  1  0
  9  2  1  0
 10  9  2  0
 11 15  1  0
 12 11  1  0
 12 13  1  0
 13 14  1  0
 15 14  1  0
 15 16  1  1
 16 18  1  0
 17 16  2  0
 18 19  1  0
 19 20  1  6
 21 20  1  0
 22 21  2  0
 23 22  1  0
 24 23  1  0
 24 29  2  0
 25 24  1  0
 26 25  2  0
 26 27  1  0
 27 28  2  0
 28 29  1  0
 29 21  1  0
 30 31  1  0
 30 19  1  0
 32 30  2  0
M  END
$$$$
