NKC.pdb
     RDKit          3D

 24 23  0  0  1  0  0  0  0  0999 V2000
    2.8025  -18.9661   22.1845 N   0  0  0  0  0  0  0  0  0  0  0  0
    3.9458  -19.6356   22.6759 C   0  0  0  0  0  0  0  0  0  0  0  0
    3.8289  -20.8045   23.0873 O   0  0  0  0  0  0  0  0  0  0  0  0
    5.2590  -18.9728   22.7060 C   0  0  0  0  0  0  0  0  0  0  0  0
    5.4994  -18.3109   21.3872 C   0  0  2  0  0  0  0  0  0  0  0  0
    5.6228  -19.3526   20.3848 N   0  0  0  0  0  0  0  0  0  0  0  0
    6.7201  -17.4694   21.3731 C   0  0  0  0  0  0  0  0  0  0  0  0
    7.8519  -18.0050   21.2476 O   0  0  0  0  0  0  0  0  0  0  0  0
    6.6828  -16.0555   21.4965 N   0  0  0  0  0  0  0  0  0  0  0  0
    7.8512  -15.2010   21.5769 C   0  0  1  0  0  0  0  0  0  0  0  0
    7.3869  -13.7684   21.4606 C   0  0  0  0  0  0  0  0  0  0  0  0
    6.9981  -13.3934   20.0522 C   0  0  0  0  0  0  0  0  0  0  0  0
    8.1866  -13.3852   19.1158 C   0  0  0  0  0  0  0  0  0  0  0  0
    7.6733  -13.0437   17.7283 C   0  0  0  0  0  0  0  0  0  0  0  0
    8.7576  -13.1643   16.7741 N   0  0  0  0  0  0  0  0  0  0  0  0
    8.4838  -15.4368   22.9145 C   0  0  0  0  0  0  0  0  0  0  0  0
    7.8603  -15.0259   23.9115 O   0  0  0  0  0  0  0  0  0  0  0  0
    9.7237  -16.0897   23.0600 N   0  0  0  0  0  0  0  0  0  0  0  0
   10.3875  -16.2152   24.3362 C   0  0  1  0  0  0  0  0  0  0  0  0
   10.0019  -17.5838   24.9098 C   0  0  0  0  0  0  0  0  0  0  0  0
   10.9146  -17.8695   26.4583 S   0  0  0  0  0  0  0  0  0  0  0  0
   11.8624  -16.2510   24.1081 C   0  0  0  0  0  0  0  0  0  0  0  0
   12.7729  -16.0486   25.1263 O   0  0  0  0  0  0  0  0  0  0  0  0
   12.3366  -16.4723   22.9523 O   0  0  0  0  0  0  0  0  0  0  0  0
  2  3  2  0
  2  1  1  0
  4  2  1  0
  5  4  1  0
  5  6  1  6
  7  8  2  0
  7  5  1  0
  9  7  1  0
 10 11  1  1
 10  9  1  0
 11 12  1  0
 13 12  1  0
 13 14  1  0
 14 15  1  0
 16 10  1  0
 17 16  2  0
 18 16  1  0
 19 20  1  6
 19 18  1  0
 20 21  1  0
 22 23  1  0
 22 19  1  0
 24 22  2  0
M  END
$$$$
