NKC.pdb
     RDKit          3D

 24 23  0  0  1  0  0  0  0  0999 V2000
    8.7548  -13.3823   14.6168 N   0  0  0  0  0  0  0  0  0  0  0  0
    7.4316  -13.7904   14.8989 C   0  0  0  0  0  0  0  0  0  0  0  0
    6.5536  -13.6285   14.0316 O   0  0  0  0  0  0  0  0  0  0  0  0
    7.0845  -14.3983   16.1928 C   0  0  0  0  0  0  0  0  0  0  0  0
    8.2736  -14.3297   17.0964 C   0  0  2  0  0  0  0  0  0  0  0  0
    9.3695  -15.0169   16.4392 N   0  0  0  0  0  0  0  0  0  0  0  0
    8.0323  -14.9472   18.4227 C   0  0  0  0  0  0  0  0  0  0  0  0
    7.0881  -14.5357   19.1456 O   0  0  0  0  0  0  0  0  0  0  0  0
    8.8280  -16.0048   18.9366 N   0  0  0  0  0  0  0  0  0  0  0  0
    8.5857  -16.6875   20.1923 C   0  0  1  0  0  0  0  0  0  0  0  0
    9.1062  -18.0993   20.0607 C   0  0  0  0  0  0  0  0  0  0  0  0
    8.2551  -18.9528   19.1538 C   0  0  0  0  0  0  0  0  0  0  0  0
    8.8383  -20.3353   18.9594 C   0  0  0  0  0  0  0  0  0  0  0  0
    7.9364  -21.0803   17.9915 C   0  0  0  0  0  0  0  0  0  0  0  0
    8.5339  -22.3610   17.6701 N   0  0  0  0  0  0  0  0  0  0  0  0
    9.3437  -15.9496   21.2535 C   0  0  0  0  0  0  0  0  0  0  0  0
   10.4903  -15.5624   20.9589 O   0  0  0  0  0  0  0  0  0  0  0  0
    8.8040  -15.6953   22.5298 N   0  0  0  0  0  0  0  0  0  0  0  0
    9.5785  -15.1003   23.5933 C   0  0  1  0  0  0  0  0  0  0  0  0
    8.6797  -14.0633   24.2769 C   0  0  0  0  0  0  0  0  0  0  0  0
    7.0709  -14.8201   24.6659 S   0  0  0  0  0  0  0  0  0  0  0  0
    9.8723  -16.1472   24.6161 C   0  0  0  0  0  0  0  0  0  0  0  0
   10.7671  -15.9422   25.6477 O   0  0  0  0  0  0  0  0  0  0  0  0
    9.3006  -17.2789   24.5713 O   0  0  0  0  0  0  0  0  0  0  0  0
  2  3  2  0
  2  1  1  0
  4  2  1  0
  5  4  1  0
  5  6  1  6
  7  8  2  0
  7  5  1  0
  9  7  1  0
 10 11  1  6
 10  9  1  0
 11 12  1  0
 13 12  1  0
 13 14  1  0
 14 15  1  0
 16 10  1  0
 17 16  2  0
 18 16  1  0
 19 20  1  1
 19 18  1  0
 20 21  1  0
 22 23  1  0
 22 19  1  0
 24 22  2  0
M  END
$$$$
