NKC.pdb
     RDKit          3D

 24 23  0  0  1  0  0  0  0  0999 V2000
    9.7846  -20.6874   17.3743 N   0  0  0  0  0  0  0  0  0  0  0  0
   10.1742  -22.0445   17.4330 C   0  0  0  0  0  0  0  0  0  0  0  0
   10.0572  -22.7493   16.4138 O   0  0  0  0  0  0  0  0  0  0  0  0
   10.7111  -22.6270   18.6727 C   0  0  0  0  0  0  0  0  0  0  0  0
   10.7606  -21.5670   19.7259 C   0  0  2  0  0  0  0  0  0  0  0  0
   11.3085  -20.3672   19.1214 N   0  0  0  0  0  0  0  0  0  0  0  0
   11.5875  -21.9484   20.8960 C   0  0  0  0  0  0  0  0  0  0  0  0
   11.3159  -22.9917   21.5450 O   0  0  0  0  0  0  0  0  0  0  0  0
   12.6983  -21.1820   21.3372 N   0  0  0  0  0  0  0  0  0  0  0  0
   13.5454  -21.5250   22.4625 C   0  0  1  0  0  0  0  0  0  0  0  0
   14.9564  -21.1036   22.1264 C   0  0  0  0  0  0  0  0  0  0  0  0
   15.7372  -22.1865   21.4242 C   0  0  0  0  0  0  0  0  0  0  0  0
   17.1517  -21.7540   21.1054 C   0  0  0  0  0  0  0  0  0  0  0  0
   17.8407  -22.9169   20.4139 C   0  0  0  0  0  0  0  0  0  0  0  0
   19.2325  -22.5820   20.1872 N   0  0  0  0  0  0  0  0  0  0  0  0
   13.0417  -20.7599   23.6482 C   0  0  0  0  0  0  0  0  0  0  0  0
   13.1483  -19.5196   23.6035 O   0  0  0  0  0  0  0  0  0  0  0  0
   12.4713  -21.3931   24.7701 N   0  0  0  0  0  0  0  0  0  0  0  0
   11.9212  -20.6523   25.8807 C   0  0  1  0  0  0  0  0  0  0  0  0
   10.4629  -21.0984   26.0393 C   0  0  0  0  0  0  0  0  0  0  0  0
    9.4783  -20.4516   24.6521 S   0  0  0  0  0  0  0  0  0  0  0  0
   12.6289  -21.0637   27.1291 C   0  0  0  0  0  0  0  0  0  0  0  0
   12.4118  -20.4398   28.3417 O   0  0  0  0  0  0  0  0  0  0  0  0
   13.4673  -22.0159   27.1178 O   0  0  0  0  0  0  0  0  0  0  0  0
  2  3  2  0
  2  1  1  0
  4  2  1  0
  5  4  1  0
  5  6  1  6
  7  8  2  0
  7  5  1  0
  9  7  1  0
 10 11  1  6
 10  9  1  0
 11 12  1  0
 13 12  1  0
 13 14  1  0
 14 15  1  0
 16 10  1  0
 17 16  2  0
 18 16  1  0
 19 20  1  1
 19 18  1  0
 20 21  1  0
 22 23  1  0
 22 19  1  0
 24 22  2  0
M  END
$$$$
