NKC.pdb
     RDKit          3D

 24 23  0  0  1  0  0  0  0  0999 V2000
   -0.0340  -27.3318   30.9292 N   0  0  0  0  0  0  0  0  0  0  0  0
    0.4427  -26.4013   29.9784 C   0  0  0  0  0  0  0  0  0  0  0  0
    1.6682  -26.1999   29.8947 O   0  0  0  0  0  0  0  0  0  0  0  0
   -0.4842  -25.6757   29.0959 C   0  0  0  0  0  0  0  0  0  0  0  0
   -1.8868  -26.0565   29.4461 C   0  0  2  0  0  0  0  0  0  0  0  0
   -2.1687  -27.3342   28.8191 N   0  0  0  0  0  0  0  0  0  0  0  0
   -2.8888  -25.0590   28.9993 C   0  0  0  0  0  0  0  0  0  0  0  0
   -2.8396  -23.8794   29.4348 O   0  0  0  0  0  0  0  0  0  0  0  0
   -3.9284  -25.3683   28.0830 N   0  0  0  0  0  0  0  0  0  0  0  0
   -4.8899  -24.4126   27.5695 C   0  0  1  0  0  0  0  0  0  0  0  0
   -5.4852  -24.9870   26.3058 C   0  0  0  0  0  0  0  0  0  0  0  0
   -5.2283  -24.1246   25.0952 C   0  0  0  0  0  0  0  0  0  0  0  0
   -5.7042  -24.7797   23.8171 C   0  0  0  0  0  0  0  0  0  0  0  0
   -5.2867  -23.8867   22.6624 C   0  0  0  0  0  0  0  0  0  0  0  0
   -5.5511  -24.5681   21.4108 N   0  0  0  0  0  0  0  0  0  0  0  0
   -5.9502  -24.2427   28.6145 C   0  0  0  0  0  0  0  0  0  0  0  0
   -6.4614  -25.2829   29.0708 O   0  0  0  0  0  0  0  0  0  0  0  0
   -6.3639  -22.9765   29.0731 N   0  0  0  0  0  0  0  0  0  0  0  0
   -7.3853  -22.8139   30.0807 C   0  0  1  0  0  0  0  0  0  0  0  0
   -6.9790  -21.6121   30.9417 C   0  0  0  0  0  0  0  0  0  0  0  0
   -5.4461  -22.0034   31.8414 S   0  0  0  0  0  0  0  0  0  0  0  0
   -8.6658  -22.4414   29.4096 C   0  0  0  0  0  0  0  0  0  0  0  0
   -9.8486  -22.2901   30.1061 O   0  0  0  0  0  0  0  0  0  0  0  0
   -8.7112  -22.2481   28.1565 O   0  0  0  0  0  0  0  0  0  0  0  0
  2  3  2  0
  2  1  1  0
  4  2  1  0
  5  4  1  0
  5  6  1  6
  7  8  2  0
  7  5  1  0
  9  7  1  0
 10 11  1  6
 10  9  1  0
 11 12  1  0
 13 12  1  0
 13 14  1  0
 14 15  1  0
 16 10  1  0
 17 16  2  0
 18 16  1  0
 19 20  1  1
 19 18  1  0
 20 21  1  0
 22 23  1  0
 22 19  1  0
 24 22  2  0
M  END
$$$$
