NKC.pdb
     RDKit          3D

 24 23  0  0  1  0  0  0  0  0999 V2000
    8.1898  -12.2799   17.7415 N   0  0  0  0  0  0  0  0  0  0  0  0
    7.8714  -13.6349   17.9860 C   0  0  0  0  0  0  0  0  0  0  0  0
    8.1027  -14.4774   17.0995 O   0  0  0  0  0  0  0  0  0  0  0  0
    7.2757  -14.0558   19.2637 C   0  0  0  0  0  0  0  0  0  0  0  0
    8.3668  -14.4923   20.1879 C   0  0  2  0  0  0  0  0  0  0  0  0
    9.0039  -15.6569   19.6023 N   0  0  0  0  0  0  0  0  0  0  0  0
    7.8773  -14.8317   21.5458 C   0  0  0  0  0  0  0  0  0  0  0  0
    7.1747  -14.0068   22.1856 O   0  0  0  0  0  0  0  0  0  0  0  0
    8.1646  -16.0682   22.1817 N   0  0  0  0  0  0  0  0  0  0  0  0
    7.7189  -16.4382   23.5107 C   0  0  1  0  0  0  0  0  0  0  0  0
    7.7519  -17.9451   23.6082 C   0  0  0  0  0  0  0  0  0  0  0  0
    6.5448  -18.5970   22.9810 C   0  0  0  0  0  0  0  0  0  0  0  0
    6.6791  -20.1027   22.9165 C   0  0  0  0  0  0  0  0  0  0  0  0
    5.4558  -20.6406   22.1959 C   0  0  0  0  0  0  0  0  0  0  0  0
    5.5288  -22.0872   22.1440 N   0  0  0  0  0  0  0  0  0  0  0  0
    8.6799  -15.8317   24.4872 C   0  0  0  0  0  0  0  0  0  0  0  0
    9.8929  -15.9531   24.2314 O   0  0  0  0  0  0  0  0  0  0  0  0
    8.2533  -15.1524   25.6454 N   0  0  0  0  0  0  0  0  0  0  0  0
    9.1791  -14.6431   26.6295 C   0  0  1  0  0  0  0  0  0  0  0  0
    8.4815  -13.4781   27.3413 C   0  0  0  0  0  0  0  0  0  0  0  0
    9.5820  -12.8088   28.6271 S   0  0  0  0  0  0  0  0  0  0  0  0
    9.4078  -15.6959   27.6629 C   0  0  0  0  0  0  0  0  0  0  0  0
   10.5677  -15.7592   28.4096 O   0  0  0  0  0  0  0  0  0  0  0  0
    8.5299  -16.5824   27.8937 O   0  0  0  0  0  0  0  0  0  0  0  0
  2  3  2  0
  2  1  1  0
  4  2  1  0
  5  4  1  0
  5  6  1  6
  7  8  2  0
  7  5  1  0
  9  7  1  0
 10 11  1  6
 10  9  1  0
 11 12  1  0
 13 12  1  0
 13 14  1  0
 14 15  1  0
 16 10  1  0
 17 16  2  0
 18 16  1  0
 19 20  1  1
 19 18  1  0
 20 21  1  0
 22 23  1  0
 22 19  1  0
 24 22  2  0
M  END
$$$$
