NKC.pdb
     RDKit          3D

 24 23  0  0  1  0  0  0  0  0999 V2000
   10.2459  -19.8410   18.0228 N   0  0  0  0  0  0  0  0  0  0  0  0
   10.0950  -19.8795   19.4274 C   0  0  0  0  0  0  0  0  0  0  0  0
    9.8750  -20.9731   19.9797 O   0  0  0  0  0  0  0  0  0  0  0  0
   10.1941  -18.6540   20.2352 C   0  0  0  0  0  0  0  0  0  0  0  0
   10.2911  -17.4756   19.3203 C   0  0  2  0  0  0  0  0  0  0  0  0
   11.5688  -17.5494   18.6368 N   0  0  0  0  0  0  0  0  0  0  0  0
   10.1890  -16.1781   20.0307 C   0  0  0  0  0  0  0  0  0  0  0  0
   11.2309  -15.5937   20.4261 O   0  0  0  0  0  0  0  0  0  0  0  0
    8.9484  -15.5410   20.2971 N   0  0  0  0  0  0  0  0  0  0  0  0
    8.7961  -14.3027   21.0354 C   0  0  1  0  0  0  0  0  0  0  0  0
    7.4221  -13.7509   20.7372 C   0  0  0  0  0  0  0  0  0  0  0  0
    7.3762  -12.9620   19.4523 C   0  0  0  0  0  0  0  0  0  0  0  0
    7.6498  -13.8276   18.2419 C   0  0  0  0  0  0  0  0  0  0  0  0
    7.5632  -12.9381   17.0145 C   0  0  0  0  0  0  0  0  0  0  0  0
    7.7030  -13.7518   15.8232 N   0  0  0  0  0  0  0  0  0  0  0  0
    8.9197  -14.6345   22.4912 C   0  0  0  0  0  0  0  0  0  0  0  0
    8.5408  -13.7661   23.2999 O   0  0  0  0  0  0  0  0  0  0  0  0
    9.4368  -15.8638   22.9454 N   0  0  0  0  0  0  0  0  0  0  0  0
    9.5570  -16.1821   24.3487 C   0  0  1  0  0  0  0  0  0  0  0  0
    8.1339  -16.3440   24.8955 C   0  0  0  0  0  0  0  0  0  0  0  0
    8.2091  -16.9899   26.5954 S   0  0  0  0  0  0  0  0  0  0  0  0
   10.2175  -17.5141   24.4834 C   0  0  0  0  0  0  0  0  0  0  0  0
   10.4010  -18.3603   23.4076 O   0  0  0  0  0  0  0  0  0  0  0  0
   10.6392  -17.9202   25.6090 O   0  0  0  0  0  0  0  0  0  0  0  0
  2  3  2  0
  2  1  1  0
  4  2  1  0
  5  4  1  0
  5  6  1  1
  7  8  2  0
  7  5  1  0
  9  7  1  0
 10 11  1  1
 10  9  1  0
 11 12  1  0
 13 12  1  0
 13 14  1  0
 14 15  1  0
 16 10  1  0
 17 16  2  0
 18 16  1  0
 19 20  1  6
 19 18  1  0
 20 21  1  0
 22 23  1  0
 22 19  1  0
 24 22  2  0
M  END
$$$$
