SSA.pdb
     RDKit          3D

 18 17  0  0  1  0  0  0  0  0999 V2000
   23.6535  -36.7440  -11.3719 O   0  0  0  0  0  0  0  0  0  0  0  0
   23.0724  -35.5048  -11.5491 C   0  0  0  0  0  0  0  0  0  0  0  0
   24.1293  -34.5452  -12.0974 C   0  0  2  0  0  0  0  0  0  0  0  0
   25.2259  -35.3509  -12.5867 N   0  0  0  0  0  0  0  0  0  0  0  0
   24.6074  -33.7536  -10.9287 C   0  0  0  0  0  0  0  0  0  0  0  0
   25.7973  -33.9072  -10.4992 O   0  0  0  0  0  0  0  0  0  0  0  0
   23.0184  -30.1505   -9.6928 O   0  0  0  0  0  0  0  0  0  0  0  0
   23.2796  -31.0625   -8.6855 C   0  0  0  0  0  0  0  0  0  0  0  0
   24.3117  -32.0910   -9.1319 C   0  0  2  0  0  0  0  0  0  0  0  0
   23.7934  -32.8239  -10.2600 N   0  0  0  0  0  0  0  0  0  0  0  0
   24.6310  -33.0185   -8.0169 C   0  0  0  0  0  0  0  0  0  0  0  0
   23.9047  -33.9951   -7.7132 O   0  0  0  0  0  0  0  0  0  0  0  0
   27.5011  -33.3659   -5.5338 C   0  0  0  0  0  0  0  0  0  0  0  0
   26.1487  -33.7032   -6.1151 C   0  0  2  0  0  0  0  0  0  0  0  0
   25.8136  -32.8240   -7.2270 N   0  0  0  0  0  0  0  0  0  0  0  0
   25.0980  -33.6682   -5.0701 C   0  0  0  0  0  0  0  0  0  0  0  0
   24.1754  -32.8281   -5.1329 O   0  0  0  0  0  0  0  0  0  0  0  0
   25.1400  -34.5600   -4.0333 O   0  0  0  0  0  0  0  0  0  0  0  0
  1  2  1  0
  3  2  1  0
  3  4  1  1
  5  3  1  0
  6  5  2  0
  8  7  1  0
  9  8  1  1
  9 10  1  0
 10  5  1  0
 11  9  1  0
 11 15  1  0
 12 11  2  0
 14 15  1  0
 14 13  1  1
 16 14  1  0
 16 18  1  0
 17 16  2  0
M  END
$$$$
