SSA.pdb
     RDKit          3D

 18 17  0  0  1  0  0  0  0  0999 V2000
   17.7355   -9.2890  -17.9803 O   0  0  0  0  0  0  0  0  0  0  0  0
   17.1999  -10.0633  -16.9711 C   0  0  0  0  0  0  0  0  0  0  0  0
   18.3088  -10.3964  -15.9722 C   0  0  2  0  0  0  0  0  0  0  0  0
   17.7381  -11.2774  -14.9775 N   0  0  0  0  0  0  0  0  0  0  0  0
   18.6666   -9.1078  -15.3146 C   0  0  0  0  0  0  0  0  0  0  0  0
   17.7936   -8.4756  -14.6348 O   0  0  0  0  0  0  0  0  0  0  0  0
   21.3389   -8.1163  -12.7185 O   0  0  0  0  0  0  0  0  0  0  0  0
   21.5564   -7.4953  -13.9357 C   0  0  0  0  0  0  0  0  0  0  0  0
   20.2510   -7.3203  -14.7023 C   0  0  2  0  0  0  0  0  0  0  0  0
   19.9486   -8.5404  -15.4082 N   0  0  0  0  0  0  0  0  0  0  0  0
   20.3609   -6.1868  -15.6556 C   0  0  0  0  0  0  0  0  0  0  0  0
   20.9562   -6.2766  -16.7560 O   0  0  0  0  0  0  0  0  0  0  0  0
   19.0054   -2.6317  -15.7936 C   0  0  0  0  0  0  0  0  0  0  0  0
   19.8891   -3.7728  -16.2381 C   0  0  2  0  0  0  0  0  0  0  0  0
   19.7737   -4.9151  -15.3417 N   0  0  0  0  0  0  0  0  0  0  0  0
   21.2991   -3.3335  -16.3658 C   0  0  0  0  0  0  0  0  0  0  0  0
   22.0488   -3.3250  -15.3664 O   0  0  0  0  0  0  0  0  0  0  0  0
   21.7800   -2.9361  -17.5835 O   0  0  0  0  0  0  0  0  0  0  0  0
  1  2  1  0
  3  2  1  0
  3  4  1  1
  5  3  1  0
  6  5  2  0
  8  7  1  0
  9  8  1  6
  9 10  1  0
 10  5  1  0
 11  9  1  0
 11 15  1  0
 12 11  2  0
 14 15  1  0
 14 13  1  1
 16 14  1  0
 16 18  1  0
 17 16  2  0
M  END
$$$$
