SSA.pdb
     RDKit          3D

 18 17  0  0  1  0  0  0  0  0999 V2000
   25.2526  -12.7089  -16.2803 O   0  0  0  0  0  0  0  0  0  0  0  0
   24.6399  -11.4994  -16.5380 C   0  0  0  0  0  0  0  0  0  0  0  0
   23.1980  -11.7665  -16.9715 C   0  0  2  0  0  0  0  0  0  0  0  0
   23.2451  -12.2722  -18.3255 N   0  0  0  0  0  0  0  0  0  0  0  0
   22.5231  -10.4378  -16.9852 C   0  0  0  0  0  0  0  0  0  0  0  0
   22.4804   -9.7560  -18.0610 O   0  0  0  0  0  0  0  0  0  0  0  0
   19.7952   -9.4800  -14.1692 O   0  0  0  0  0  0  0  0  0  0  0  0
   19.7664   -8.8685  -15.4101 C   0  0  0  0  0  0  0  0  0  0  0  0
   21.1762   -8.6523  -15.9470 C   0  0  2  0  0  0  0  0  0  0  0  0
   21.9166   -9.8850  -15.8447 N   0  0  0  0  0  0  0  0  0  0  0  0
   21.8587   -7.5759  -15.1846 C   0  0  0  0  0  0  0  0  0  0  0  0
   22.5056   -7.7912  -14.1316 O   0  0  0  0  0  0  0  0  0  0  0  0
   22.3861   -3.8358  -15.6812 C   0  0  0  0  0  0  0  0  0  0  0  0
   22.4493   -5.1335  -14.9113 C   0  0  2  0  0  0  0  0  0  0  0  0
   21.8000   -6.2156  -15.6387 N   0  0  0  0  0  0  0  0  0  0  0  0
   21.8685   -4.9757  -13.5567 C   0  0  0  0  0  0  0  0  0  0  0  0
   20.7043   -5.3635  -13.3218 O   0  0  0  0  0  0  0  0  0  0  0  0
   22.6114   -4.4030  -12.5606 O   0  0  0  0  0  0  0  0  0  0  0  0
  1  2  1  0
  3  2  1  0
  3  4  1  6
  5  3  1  0
  6  5  2  0
  8  7  1  0
  9  8  1  1
  9 10  1  0
 10  5  1  0
 11  9  1  0
 11 15  1  0
 12 11  2  0
 14 15  1  0
 14 13  1  6
 16 14  1  0
 16 18  1  0
 17 16  2  0
M  END
$$$$
