SSA.pdb
     RDKit          3D

 18 17  0  0  1  0  0  0  0  0999 V2000
   16.9756  -11.6654  -16.8896 O   0  0  0  0  0  0  0  0  0  0  0  0
   16.9129  -11.8061  -15.5181 C   0  0  0  0  0  0  0  0  0  0  0  0
   16.6782  -10.4284  -14.8974 C   0  0  2  0  0  0  0  0  0  0  0  0
   15.5159   -9.8604  -15.5436 N   0  0  0  0  0  0  0  0  0  0  0  0
   17.8695   -9.6093  -15.2596 C   0  0  0  0  0  0  0  0  0  0  0  0
   19.0333   -9.9841  -14.9007 O   0  0  0  0  0  0  0  0  0  0  0  0
   17.6102   -6.0892  -17.5176 O   0  0  0  0  0  0  0  0  0  0  0  0
   18.7052   -6.9243  -17.6531 C   0  0  0  0  0  0  0  0  0  0  0  0
   18.9663   -7.6983  -16.3666 C   0  0  2  0  0  0  0  0  0  0  0  0
   17.7724   -8.4156  -15.9944 N   0  0  0  0  0  0  0  0  0  0  0  0
   19.3704   -6.7704  -15.2797 C   0  0  0  0  0  0  0  0  0  0  0  0
   18.5428   -6.1694  -14.5535 O   0  0  0  0  0  0  0  0  0  0  0  0
   22.5984   -5.9328  -13.5063 C   0  0  0  0  0  0  0  0  0  0  0  0
   21.1920   -5.6193  -13.9585 C   0  0  2  0  0  0  0  0  0  0  0  0
   20.7594   -6.5230  -15.0158 N   0  0  0  0  0  0  0  0  0  0  0  0
   21.0741   -4.2040  -14.3831 C   0  0  0  0  0  0  0  0  0  0  0  0
   20.9721   -3.9167  -15.5948 O   0  0  0  0  0  0  0  0  0  0  0  0
   21.0771   -3.2094  -13.4436 O   0  0  0  0  0  0  0  0  0  0  0  0
  1  2  1  0
  3  2  1  0
  3  4  1  6
  5  3  1  0
  6  5  2  0
  8  7  1  0
  9  8  1  6
  9 10  1  0
 10  5  1  0
 11  9  1  0
 11 15  1  0
 12 11  2  0
 14 15  1  0
 14 13  1  6
 16 14  1  0
 16 18  1  0
 17 16  2  0
M  END
$$$$
