SSA.pdb
     RDKit          3D

 18 17  0  0  1  0  0  0  0  0999 V2000
   15.1111  -11.8978   -9.9912 O   0  0  0  0  0  0  0  0  0  0  0  0
   15.2513  -10.6870  -10.6386 C   0  0  0  0  0  0  0  0  0  0  0  0
   14.9252   -9.5660   -9.6509 C   0  0  2  0  0  0  0  0  0  0  0  0
   13.4855   -9.4346   -9.6131 N   0  0  0  0  0  0  0  0  0  0  0  0
   15.4992   -8.3232  -10.2400 C   0  0  0  0  0  0  0  0  0  0  0  0
   14.8392   -7.6671  -11.1105 O   0  0  0  0  0  0  0  0  0  0  0  0
   17.5458   -4.2696   -9.8927 O   0  0  0  0  0  0  0  0  0  0  0  0
   17.1239   -5.4861   -9.3860 C   0  0  0  0  0  0  0  0  0  0  0  0
   17.2377   -6.5855  -10.4352 C   0  0  2  0  0  0  0  0  0  0  0  0
   16.7618   -7.8259   -9.8756 N   0  0  0  0  0  0  0  0  0  0  0  0
   18.6469   -6.7282  -10.8817 C   0  0  0  0  0  0  0  0  0  0  0  0
   19.5732   -7.0814  -10.1130 O   0  0  0  0  0  0  0  0  0  0  0  0
   20.3818   -6.7873  -14.2478 C   0  0  0  0  0  0  0  0  0  0  0  0
   20.3582   -6.6826  -12.7413 C   0  0  2  0  0  0  0  0  0  0  0  0
   19.0071   -6.4598  -12.2450 N   0  0  0  0  0  0  0  0  0  0  0  0
   21.2831   -5.6253  -12.2682 C   0  0  0  0  0  0  0  0  0  0  0  0
   22.5051   -5.8609  -12.1581 O   0  0  0  0  0  0  0  0  0  0  0  0
   20.7953   -4.3869  -11.9512 O   0  0  0  0  0  0  0  0  0  0  0  0
  1  2  1  0
  3  2  1  0
  3  4  1  6
  5  3  1  0
  6  5  2  0
  8  7  1  0
  9  8  1  1
  9 10  1  0
 10  5  1  0
 11  9  1  0
 11 15  1  0
 12 11  2  0
 14 15  1  0
 14 13  1  6
 16 14  1  0
 16 18  1  0
 17 16  2  0
M  END
$$$$
