SSA.pdb
     RDKit          3D

 18 17  0  0  1  0  0  0  0  0999 V2000
   16.2032  -10.1721  -17.7701 O   0  0  0  0  0  0  0  0  0  0  0  0
   17.0006   -9.7325  -16.7329 C   0  0  0  0  0  0  0  0  0  0  0  0
   17.9816  -10.8470  -16.3667 C   0  0  2  0  0  0  0  0  0  0  0  0
   17.2974  -11.7365  -15.4547 N   0  0  0  0  0  0  0  0  0  0  0  0
   19.0976  -10.1841  -15.6344 C   0  0  0  0  0  0  0  0  0  0  0  0
   19.0550  -10.0828  -14.3648 O   0  0  0  0  0  0  0  0  0  0  0  0
   22.6220   -9.0417  -17.5165 O   0  0  0  0  0  0  0  0  0  0  0  0
   22.6236   -9.3986  -16.1797 C   0  0  0  0  0  0  0  0  0  0  0  0
   21.2908   -9.0628  -15.5215 C   0  0  2  0  0  0  0  0  0  0  0  0
   20.2217   -9.6522  -16.2883 N   0  0  0  0  0  0  0  0  0  0  0  0
   21.1140   -7.5907  -15.4369 C   0  0  0  0  0  0  0  0  0  0  0  0
   20.5137   -6.9246  -16.3140 O   0  0  0  0  0  0  0  0  0  0  0  0
   21.8943   -4.8915  -12.8800 C   0  0  0  0  0  0  0  0  0  0  0  0
   21.6182   -5.4041  -14.2734 C   0  0  2  0  0  0  0  0  0  0  0  0
   21.6382   -6.8598  -14.3182 N   0  0  0  0  0  0  0  0  0  0  0  0
   22.5714   -4.8258  -15.2503 C   0  0  0  0  0  0  0  0  0  0  0  0
   22.5288   -3.6080  -15.5261 O   0  0  0  0  0  0  0  0  0  0  0  0
   23.5009   -5.6299  -15.8514 O   0  0  0  0  0  0  0  0  0  0  0  0
  1  2  1  0
  3  2  1  0
  3  4  1  1
  5  3  1  0
  6  5  2  0
  8  7  1  0
  9  8  1  6
  9 10  1  0
 10  5  1  0
 11  9  1  0
 11 15  1  0
 12 11  2  0
 14 15  1  0
 14 13  1  1
 16 14  1  0
 16 18  1  0
 17 16  2  0
M  END
$$$$
