SSA.pdb
     RDKit          3D

 18 17  0  0  1  0  0  0  0  0999 V2000
   16.3890  -11.9671  -11.9160 O   0  0  0  0  0  0  0  0  0  0  0  0
   16.4170  -10.5972  -12.0820 C   0  0  0  0  0  0  0  0  0  0  0  0
   15.8036   -9.9439  -10.8429 C   0  0  2  0  0  0  0  0  0  0  0  0
   14.3950  -10.2712  -10.8396 N   0  0  0  0  0  0  0  0  0  0  0  0
   15.9481   -8.4741  -11.0426 C   0  0  0  0  0  0  0  0  0  0  0  0
   15.2388   -7.8772  -11.9170 O   0  0  0  0  0  0  0  0  0  0  0  0
   17.4417   -6.2273   -8.1675 O   0  0  0  0  0  0  0  0  0  0  0  0
   16.7570   -5.5588   -9.1669 C   0  0  0  0  0  0  0  0  0  0  0  0
   16.9120   -6.2687  -10.5064 C   0  0  2  0  0  0  0  0  0  0  0  0
   16.8484   -7.6938  -10.2978 N   0  0  0  0  0  0  0  0  0  0  0  0
   18.2028   -5.8975  -11.1403 C   0  0  0  0  0  0  0  0  0  0  0  0
   18.4817   -4.7232  -11.4819 O   0  0  0  0  0  0  0  0  0  0  0  0
   21.4795   -7.6668  -11.8702 C   0  0  0  0  0  0  0  0  0  0  0  0
   20.4484   -6.5829  -12.0765 C   0  0  2  0  0  0  0  0  0  0  0  0
   19.2024   -6.8967  -11.3904 N   0  0  0  0  0  0  0  0  0  0  0  0
   20.2171   -6.3381  -13.5200 C   0  0  0  0  0  0  0  0  0  0  0  0
   19.1599   -6.7240  -14.0625 O   0  0  0  0  0  0  0  0  0  0  0  0
   21.1660   -5.6870  -14.2601 O   0  0  0  0  0  0  0  0  0  0  0  0
  1  2  1  0
  3  2  1  0
  3  4  1  6
  5  3  1  0
  6  5  2  0
  8  7  1  0
  9  8  1  1
  9 10  1  0
 10  5  1  0
 11  9  1  0
 11 15  1  0
 12 11  2  0
 14 15  1  0
 14 13  1  6
 16 14  1  0
 16 18  1  0
 17 16  2  0
M  END
$$$$
