SSA.pdb
     RDKit          3D

 18 17  0  0  1  0  0  0  0  0999 V2000
   14.8544   -9.1741  -12.6935 O   0  0  0  0  0  0  0  0  0  0  0  0
   15.7638   -8.1489  -12.5292 C   0  0  0  0  0  0  0  0  0  0  0  0
   16.8786   -8.6311  -11.6002 C   0  0  2  0  0  0  0  0  0  0  0  0
   16.3587   -8.5909  -10.2513 N   0  0  0  0  0  0  0  0  0  0  0  0
   17.9713   -7.6245  -11.7170 C   0  0  0  0  0  0  0  0  0  0  0  0
   18.0567   -6.6757  -10.8705 O   0  0  0  0  0  0  0  0  0  0  0  0
   22.3901   -6.5777  -13.1043 O   0  0  0  0  0  0  0  0  0  0  0  0
   21.3285   -7.4608  -13.0151 C   0  0  0  0  0  0  0  0  0  0  0  0
   20.0230   -6.7224  -12.7452 C   0  0  2  0  0  0  0  0  0  0  0  0
   18.9358   -7.6691  -12.7378 N   0  0  0  0  0  0  0  0  0  0  0  0
   19.7948   -5.6832  -13.7813 C   0  0  0  0  0  0  0  0  0  0  0  0
   19.3441   -5.9453  -14.9222 O   0  0  0  0  0  0  0  0  0  0  0  0
   19.2478   -2.0589  -14.0048 C   0  0  0  0  0  0  0  0  0  0  0  0
   19.9748   -3.2750  -14.5277 C   0  0  2  0  0  0  0  0  0  0  0  0
   20.0902   -4.3059  -13.5052 N   0  0  0  0  0  0  0  0  0  0  0  0
   21.3049   -2.9065  -15.0682 C   0  0  0  0  0  0  0  0  0  0  0  0
   22.3461   -3.3069  -14.5055 O   0  0  0  0  0  0  0  0  0  0  0  0
   21.3914   -2.1247  -16.1878 O   0  0  0  0  0  0  0  0  0  0  0  0
  1  2  1  0
  3  2  1  0
  3  4  1  1
  5  3  1  0
  6  5  2  0
  8  7  1  0
  9  8  1  6
  9 10  1  0
 10  5  1  0
 11  9  1  0
 11 15  1  0
 12 11  2  0
 14 15  1  0
 14 13  1  1
 16 14  1  0
 16 18  1  0
 17 16  2  0
M  END
$$$$
