SSA.pdb
     RDKit          3D

 18 17  0  0  1  0  0  0  0  0999 V2000
   16.0376  -12.4493  -11.0111 O   0  0  0  0  0  0  0  0  0  0  0  0
   16.2761  -11.1670  -11.4624 C   0  0  0  0  0  0  0  0  0  0  0  0
   15.5839  -10.1822  -10.5192 C   0  0  2  0  0  0  0  0  0  0  0  0
   14.1586  -10.3432  -10.7036 N   0  0  0  0  0  0  0  0  0  0  0  0
   15.9723   -8.8231  -10.9914 C   0  0  0  0  0  0  0  0  0  0  0  0
   15.4124   -8.3221  -12.0207 O   0  0  0  0  0  0  0  0  0  0  0  0
   17.8847   -6.1491   -8.6376 O   0  0  0  0  0  0  0  0  0  0  0  0
   17.2545   -5.7135   -9.7899 C   0  0  0  0  0  0  0  0  0  0  0  0
   17.3306   -6.7677  -10.8877 C   0  0  2  0  0  0  0  0  0  0  0  0
   16.9482   -8.0469  -10.3439 N   0  0  0  0  0  0  0  0  0  0  0  0
   18.7060   -6.8342  -11.4442 C   0  0  0  0  0  0  0  0  0  0  0  0
   19.6481   -7.4257  -10.8646 O   0  0  0  0  0  0  0  0  0  0  0  0
   20.2628   -5.9818  -14.7946 C   0  0  0  0  0  0  0  0  0  0  0  0
   20.3167   -6.3500  -13.3310 C   0  0  2  0  0  0  0  0  0  0  0  0
   19.0126   -6.2068  -12.6983 N   0  0  0  0  0  0  0  0  0  0  0  0
   21.3460   -5.5539  -12.6210 C   0  0  0  0  0  0  0  0  0  0  0  0
   22.5589   -5.8065  -12.7819 O   0  0  0  0  0  0  0  0  0  0  0  0
   20.9648   -4.5389  -11.7864 O   0  0  0  0  0  0  0  0  0  0  0  0
  1  2  1  0
  3  2  1  0
  3  4  1  6
  5  3  1  0
  6  5  2  0
  8  7  1  0
  9  8  1  1
  9 10  1  0
 10  5  1  0
 11  9  1  0
 11 15  1  0
 12 11  2  0
 14 15  1  0
 14 13  1  6
 16 14  1  0
 16 18  1  0
 17 16  2  0
M  END
$$$$
