SSA.pdb
     RDKit          3D

 18 17  0  0  1  0  0  0  0  0999 V2000
   13.5207   -7.0424   -9.7549 O   0  0  0  0  0  0  0  0  0  0  0  0
   14.7689   -7.1594  -10.3322 C   0  0  0  0  0  0  0  0  0  0  0  0
   14.9696   -8.6113  -10.7682 C   0  0  2  0  0  0  0  0  0  0  0  0
   15.0165   -9.4160   -9.5676 N   0  0  0  0  0  0  0  0  0  0  0  0
   16.3073   -8.6594  -11.4235 C   0  0  0  0  0  0  0  0  0  0  0  0
   17.2765   -9.2558  -10.8499 O   0  0  0  0  0  0  0  0  0  0  0  0
   16.7416   -7.8150  -15.4068 O   0  0  0  0  0  0  0  0  0  0  0  0
   17.6015   -8.6879  -14.7637 C   0  0  0  0  0  0  0  0  0  0  0  0
   17.8339   -8.2627  -13.3189 C   0  0  2  0  0  0  0  0  0  0  0  0
   16.5606   -8.0664  -12.6718 N   0  0  0  0  0  0  0  0  0  0  0  0
   18.6344   -7.0126  -13.2718 C   0  0  0  0  0  0  0  0  0  0  0  0
   18.1219   -5.8711  -13.3594 O   0  0  0  0  0  0  0  0  0  0  0  0
   22.3117   -6.1836  -12.7248 C   0  0  0  0  0  0  0  0  0  0  0  0
   20.8774   -5.8643  -13.0734 C   0  0  2  0  0  0  0  0  0  0  0  0
   20.0607   -7.0695  -13.1202 N   0  0  0  0  0  0  0  0  0  0  0  0
   20.7957   -5.1131  -14.3486 C   0  0  0  0  0  0  0  0  0  0  0  0
   20.5008   -5.7036  -15.4094 O   0  0  0  0  0  0  0  0  0  0  0  0
   21.0445   -3.7677  -14.3626 O   0  0  0  0  0  0  0  0  0  0  0  0
  1  2  1  0
  3  2  1  0
  3  4  1  1
  5  3  1  0
  6  5  2  0
  8  7  1  0
  9  8  1  6
  9 10  1  0
 10  5  1  0
 11  9  1  0
 11 15  1  0
 12 11  2  0
 14 15  1  0
 14 13  1  6
 16 14  1  0
 16 18  1  0
 17 16  2  0
M  END
$$$$
