QQI.pdb
     RDKit          3D

 27 26  0  0  1  0  0  0  0  0999 V2000
   12.7190  -11.6136  -15.1942 N   0  0  0  0  0  0  0  0  0  0  0  0
   13.3730  -12.7626  -15.6977 C   0  0  0  0  0  0  0  0  0  0  0  0
   12.8648  -13.8872  -15.4661 O   0  0  0  0  0  0  0  0  0  0  0  0
   14.6143  -12.6879  -16.4748 C   0  0  0  0  0  0  0  0  0  0  0  0
   15.0707  -11.2760  -16.7225 C   0  0  0  0  0  0  0  0  0  0  0  0
   16.1960  -10.9747  -15.7810 C   0  0  2  0  0  0  0  0  0  0  0  0
   15.7937  -10.9736  -14.3958 N   0  0  0  0  0  0  0  0  0  0  0  0
   16.8909   -9.7032  -16.1059 C   0  0  0  0  0  0  0  0  0  0  0  0
   17.5377   -9.6048  -17.2038 O   0  0  0  0  0  0  0  0  0  0  0  0
   15.0895   -3.8788  -15.5348 N   0  0  0  0  0  0  0  0  0  0  0  0
   14.9566   -4.8230  -14.5098 C   0  0  0  0  0  0  0  0  0  0  0  0
   14.1021   -4.5678  -13.5916 O   0  0  0  0  0  0  0  0  0  0  0  0
   15.7492   -6.0827  -14.4441 C   0  0  0  0  0  0  0  0  0  0  0  0
   16.6000   -6.1776  -15.6608 C   0  0  0  0  0  0  0  0  0  0  0  0
   17.5285   -7.3704  -15.6506 C   0  0  2  0  0  0  0  0  0  0  0  0
   16.8767   -8.5809  -15.2577 N   0  0  0  0  0  0  0  0  0  0  0  0
   18.6460   -7.0129  -14.7101 C   0  0  0  0  0  0  0  0  0  0  0  0
   18.5200   -7.3244  -13.5010 O   0  0  0  0  0  0  0  0  0  0  0  0
   23.3702   -8.7298  -13.3346 C   0  0  0  0  0  0  0  0  0  0  0  0
   23.2910   -7.5150  -14.1923 C   0  0  0  0  0  0  0  0  0  0  0  0
   22.0385   -7.3120  -14.9594 C   0  0  2  0  0  0  0  0  0  0  0  0
   22.2359   -7.2108  -16.4421 C   0  0  0  0  0  0  0  0  0  0  0  0
   21.0709   -6.3815  -14.3458 C   0  0  2  0  0  0  0  0  0  0  0  0
   19.8100   -6.3533  -15.1238 N   0  0  0  0  0  0  0  0  0  0  0  0
   21.4547   -4.9865  -14.1687 C   0  0  0  0  0  0  0  0  0  0  0  0
   22.2448   -4.5616  -13.1135 O   0  0  0  0  0  0  0  0  0  0  0  0
   21.0813   -4.1090  -14.9717 O   0  0  0  0  0  0  0  0  0  0  0  0
  2  1  1  0
  3  2  2  0
  4  2  1  0
  5  4  1  0
  6  8  1  0
  6  5  1  0
  6  7  1  1
  8 16  1  0
  8  9  2  0
 11 10  1  0
 11 13  1  0
 12 11  2  0
 14 13  1  0
 15 14  1  1
 16 15  1  0
 17 24  1  0
 17 15  1  0
 18 17  2  0
 19 20  1  0
 21 20  1  0
 21 22  1  6
 23 21  1  0
 23 24  1  6
 25 23  1  0
 26 25  1  0
 27 25  2  0
M  END
$$$$
