QQI.pdb
     RDKit          3D

 27 26  0  0  1  0  0  0  0  0999 V2000
   19.3702  -20.3172  -13.4207 N   0  0  0  0  0  0  0  0  0  0  0  0
   19.6856  -21.2102  -14.4716 C   0  0  0  0  0  0  0  0  0  0  0  0
   18.8957  -22.1578  -14.7059 O   0  0  0  0  0  0  0  0  0  0  0  0
   20.8934  -21.0699  -15.2914 C   0  0  0  0  0  0  0  0  0  0  0  0
   21.7228  -19.8716  -14.9189 C   0  0  0  0  0  0  0  0  0  0  0  0
   21.5627  -18.8384  -15.9915 C   0  0  2  0  0  0  0  0  0  0  0  0
   22.3886  -19.0866  -17.1478 N   0  0  0  0  0  0  0  0  0  0  0  0
   21.7898  -17.4571  -15.4959 C   0  0  0  0  0  0  0  0  0  0  0  0
   21.0464  -16.9947  -14.5649 O   0  0  0  0  0  0  0  0  0  0  0  0
   27.1244  -14.3606  -15.1509 N   0  0  0  0  0  0  0  0  0  0  0  0
   26.4823  -14.1636  -16.3792 C   0  0  0  0  0  0  0  0  0  0  0  0
   27.1983  -13.7258  -17.3456 O   0  0  0  0  0  0  0  0  0  0  0  0
   25.0349  -14.4357  -16.6037 C   0  0  0  0  0  0  0  0  0  0  0  0
   24.4351  -14.9185  -15.3307 C   0  0  0  0  0  0  0  0  0  0  0  0
   22.9792  -15.3030  -15.4629 C   0  0  2  0  0  0  0  0  0  0  0  0
   22.7955  -16.6141  -16.0031 N   0  0  0  0  0  0  0  0  0  0  0  0
   22.3545  -14.2514  -16.3377 C   0  0  0  0  0  0  0  0  0  0  0  0
   22.5356  -14.3330  -17.5767 O   0  0  0  0  0  0  0  0  0  0  0  0
   17.2688  -11.8837  -17.7690 C   0  0  0  0  0  0  0  0  0  0  0  0
   18.5032  -11.4040  -17.0879 C   0  0  0  0  0  0  0  0  0  0  0  0
   19.3632  -12.4299  -16.4504 C   0  0  2  0  0  0  0  0  0  0  0  0
   18.9448  -12.8046  -15.0603 C   0  0  0  0  0  0  0  0  0  0  0  0
   20.8103  -12.2772  -16.6978 C   0  0  2  0  0  0  0  0  0  0  0  0
   21.5866  -13.1953  -15.8315 N   0  0  0  0  0  0  0  0  0  0  0  0
   21.4172  -10.9636  -16.5219 C   0  0  0  0  0  0  0  0  0  0  0  0
   22.4275  -10.7290  -15.6041 O   0  0  0  0  0  0  0  0  0  0  0  0
   21.0451   -9.9864  -17.2006 O   0  0  0  0  0  0  0  0  0  0  0  0
  2  1  1  0
  3  2  2  0
  4  2  1  0
  5  4  1  0
  6  8  1  0
  6  5  1  0
  6  7  1  6
  8 16  1  0
  8  9  2  0
 11 10  1  0
 11 13  1  0
 12 11  2  0
 14 13  1  0
 15 14  1  6
 16 15  1  0
 17 24  1  0
 17 15  1  0
 18 17  2  0
 19 20  1  0
 21 20  1  0
 21 22  1  1
 23 21  1  0
 23 24  1  1
 25 23  1  0
 26 25  1  0
 27 25  2  0
M  END
$$$$
