QQI.pdb
     RDKit          3D

 27 26  0  0  1  0  0  0  0  0999 V2000
   27.5769  -21.2666  -19.0009 N   0  0  0  0  0  0  0  0  0  0  0  0
   28.8672  -20.8733  -18.5748 C   0  0  0  0  0  0  0  0  0  0  0  0
   29.6756  -20.4479  -19.4364 O   0  0  0  0  0  0  0  0  0  0  0  0
   29.2916  -20.9440  -17.1729 C   0  0  0  0  0  0  0  0  0  0  0  0
   28.2448  -21.5360  -16.2693 C   0  0  0  0  0  0  0  0  0  0  0  0
   27.1372  -20.5390  -16.1181 C   0  0  2  0  0  0  0  0  0  0  0  0
   27.6017  -19.2253  -15.7451 N   0  0  0  0  0  0  0  0  0  0  0  0
   26.0847  -20.9898  -15.1725 C   0  0  0  0  0  0  0  0  0  0  0  0
   25.5586  -22.1446  -15.3238 O   0  0  0  0  0  0  0  0  0  0  0  0
   24.5493  -20.4096   -9.0336 N   0  0  0  0  0  0  0  0  0  0  0  0
   25.4651  -21.3025   -9.6026 C   0  0  0  0  0  0  0  0  0  0  0  0
   26.1136  -22.0599   -8.8001 O   0  0  0  0  0  0  0  0  0  0  0  0
   25.7110  -21.4060  -11.0683 C   0  0  0  0  0  0  0  0  0  0  0  0
   24.8978  -20.3730  -11.7647 C   0  0  0  0  0  0  0  0  0  0  0  0
   24.6228  -20.7041  -13.2137 C   0  0  2  0  0  0  0  0  0  0  0  0
   25.6263  -20.2027  -14.1004 N   0  0  0  0  0  0  0  0  0  0  0  0
   23.2716  -20.1190  -13.5194 C   0  0  0  0  0  0  0  0  0  0  0  0
   23.1465  -18.8712  -13.4732 O   0  0  0  0  0  0  0  0  0  0  0  0
   21.3702  -20.7729  -17.8362 C   0  0  0  0  0  0  0  0  0  0  0  0
   21.3667  -20.0688  -16.5239 C   0  0  0  0  0  0  0  0  0  0  0  0
   20.4081  -20.5531  -15.5018 C   0  0  2  0  0  0  0  0  0  0  0  0
   18.9694  -20.3035  -15.8418 C   0  0  0  0  0  0  0  0  0  0  0  0
   20.8161  -20.3261  -14.1016 C   0  0  2  0  0  0  0  0  0  0  0  0
   22.1583  -20.9015  -13.8502 N   0  0  0  0  0  0  0  0  0  0  0  0
   19.9649  -20.8324  -13.0320 C   0  0  0  0  0  0  0  0  0  0  0  0
   19.0593  -20.0285  -12.3598 O   0  0  0  0  0  0  0  0  0  0  0  0
   20.0199  -22.0257  -12.6756 O   0  0  0  0  0  0  0  0  0  0  0  0
  2  1  1  0
  3  2  2  0
  4  2  1  0
  5  4  1  0
  6  8  1  0
  6  5  1  0
  6  7  1  1
  8 16  1  0
  8  9  2  0
 11 10  1  0
 11 13  1  0
 12 11  2  0
 14 13  1  0
 15 14  1  1
 16 15  1  0
 17 24  1  0
 17 15  1  0
 18 17  2  0
 19 20  1  0
 21 20  1  0
 21 22  1  6
 23 21  1  0
 23 24  1  6
 25 23  1  0
 26 25  1  0
 27 25  2  0
M  END
$$$$
