QQI.pdb
     RDKit          3D

 27 26  0  0  1  0  0  0  0  0999 V2000
   29.4074  -19.5191  -12.8311 N   0  0  0  0  0  0  0  0  0  0  0  0
   29.5354  -20.1022  -11.5486 C   0  0  0  0  0  0  0  0  0  0  0  0
   30.4181  -19.6547  -10.7757 O   0  0  0  0  0  0  0  0  0  0  0  0
   28.6802  -21.2027  -11.0925 C   0  0  0  0  0  0  0  0  0  0  0  0
   27.6493  -21.6088  -12.1100 C   0  0  0  0  0  0  0  0  0  0  0  0
   26.3384  -20.9990  -11.7188 C   0  0  2  0  0  0  0  0  0  0  0  0
   25.7991  -21.5450  -10.4974 N   0  0  0  0  0  0  0  0  0  0  0  0
   25.3230  -21.0798  -12.7994 C   0  0  0  0  0  0  0  0  0  0  0  0
   25.1623  -22.1809  -13.4280 O   0  0  0  0  0  0  0  0  0  0  0  0
   20.0341  -22.2757  -13.8153 N   0  0  0  0  0  0  0  0  0  0  0  0
   20.6068  -21.6872  -12.6816 C   0  0  0  0  0  0  0  0  0  0  0  0
   19.9374  -21.7513  -11.5925 O   0  0  0  0  0  0  0  0  0  0  0  0
   21.9315  -21.0055  -12.6890 C   0  0  0  0  0  0  0  0  0  0  0  0
   22.5022  -21.0823  -14.0607 C   0  0  0  0  0  0  0  0  0  0  0  0
   23.6303  -20.1038  -14.2955 C   0  0  2  0  0  0  0  0  0  0  0  0
   24.5138  -19.9926  -13.1767 N   0  0  0  0  0  0  0  0  0  0  0  0
   22.9738  -18.7892  -14.6152 C   0  0  0  0  0  0  0  0  0  0  0  0
   22.3119  -18.2263  -13.7098 O   0  0  0  0  0  0  0  0  0  0  0  0
   26.6644  -15.8807  -16.4184 C   0  0  0  0  0  0  0  0  0  0  0  0
   25.3798  -16.3524  -15.8309 C   0  0  0  0  0  0  0  0  0  0  0  0
   24.1517  -16.1340  -16.6325 C   0  0  2  0  0  0  0  0  0  0  0  0
   24.0474  -14.7655  -17.2360 C   0  0  0  0  0  0  0  0  0  0  0  0
   22.9192  -16.7119  -16.0620 C   0  0  2  0  0  0  0  0  0  0  0  0
   23.0697  -18.1735  -15.8693 N   0  0  0  0  0  0  0  0  0  0  0  0
   21.6640  -16.5377  -16.7825 C   0  0  0  0  0  0  0  0  0  0  0  0
   21.2298  -17.4335  -17.7455 O   0  0  0  0  0  0  0  0  0  0  0  0
   20.9222  -15.5616  -16.5567 O   0  0  0  0  0  0  0  0  0  0  0  0
  2  1  1  0
  3  2  2  0
  4  2  1  0
  5  4  1  0
  6  8  1  0
  6  5  1  0
  6  7  1  1
  8 16  1  0
  8  9  2  0
 11 10  1  0
 11 13  1  0
 12 11  2  0
 14 13  1  0
 15 14  1  1
 16 15  1  0
 17 24  1  0
 17 15  1  0
 18 17  2  0
 19 20  1  0
 21 20  1  0
 21 22  1  1
 23 21  1  0
 23 24  1  6
 25 23  1  0
 26 25  1  0
 27 25  2  0
M  END
$$$$
