QQI.pdb
     RDKit          3D

 27 26  0  0  1  0  0  0  0  0999 V2000
   29.8244  -23.5666  -16.1237 N   0  0  0  0  0  0  0  0  0  0  0  0
   30.1567  -22.7065  -17.1966 C   0  0  0  0  0  0  0  0  0  0  0  0
   31.0794  -23.0530  -17.9746 O   0  0  0  0  0  0  0  0  0  0  0  0
   29.4669  -21.4338  -17.4312 C   0  0  0  0  0  0  0  0  0  0  0  0
   28.4178  -21.1323  -16.3962 C   0  0  0  0  0  0  0  0  0  0  0  0
   27.1454  -21.8070  -16.8076 C   0  0  2  0  0  0  0  0  0  0  0  0
   26.7797  -21.5440  -18.1779 N   0  0  0  0  0  0  0  0  0  0  0  0
   26.0077  -21.4821  -15.9102 C   0  0  0  0  0  0  0  0  0  0  0  0
   26.1500  -21.6083  -14.6464 O   0  0  0  0  0  0  0  0  0  0  0  0
   21.9851  -16.8655  -16.2372 N   0  0  0  0  0  0  0  0  0  0  0  0
   21.5877  -17.5677  -15.0932 C   0  0  0  0  0  0  0  0  0  0  0  0
   20.7629  -16.9821  -14.3090 O   0  0  0  0  0  0  0  0  0  0  0  0
   22.0728  -18.9358  -14.7580 C   0  0  0  0  0  0  0  0  0  0  0  0
   23.1455  -19.3124  -15.7176 C   0  0  0  0  0  0  0  0  0  0  0  0
   23.7229  -20.6857  -15.4614 C   0  0  2  0  0  0  0  0  0  0  0  0
   24.7599  -21.0351  -16.3818 N   0  0  0  0  0  0  0  0  0  0  0  0
   22.5641  -21.6405  -15.5446 C   0  0  0  0  0  0  0  0  0  0  0  0
   22.1031  -21.9090  -16.6804 O   0  0  0  0  0  0  0  0  0  0  0  0
   22.6747  -26.5403  -14.5963 C   0  0  0  0  0  0  0  0  0  0  0  0
   22.2465  -25.1615  -14.9617 C   0  0  0  0  0  0  0  0  0  0  0  0
   21.2219  -24.5236  -14.1005 C   0  0  2  0  0  0  0  0  0  0  0  0
   20.1271  -25.4486  -13.6603 C   0  0  0  0  0  0  0  0  0  0  0  0
   20.8273  -23.1589  -14.5008 C   0  0  2  0  0  0  0  0  0  0  0  0
   21.9841  -22.2365  -14.4178 N   0  0  0  0  0  0  0  0  0  0  0  0
   19.7469  -22.5003  -13.7770 C   0  0  0  0  0  0  0  0  0  0  0  0
   19.9809  -21.5960  -12.7545 O   0  0  0  0  0  0  0  0  0  0  0  0
   18.5532  -22.7290  -14.0543 O   0  0  0  0  0  0  0  0  0  0  0  0
  2  1  1  0
  3  2  2  0
  4  2  1  0
  5  4  1  0
  6  8  1  0
  6  5  1  0
  6  7  1  6
  8 16  1  0
  8  9  2  0
 11 10  1  0
 11 13  1  0
 12 11  2  0
 14 13  1  0
 15 14  1  6
 16 15  1  0
 17 24  1  0
 17 15  1  0
 18 17  2  0
 19 20  1  0
 21 20  1  0
 21 22  1  6
 23 21  1  0
 23 24  1  1
 25 23  1  0
 26 25  1  0
 27 25  2  0
M  END
$$$$
