HRF.pdb
     RDKit          3D

 33 34  0  0  1  0  0  0  0  0999 V2000
   26.3107  -25.6853  -16.8983 N   0  0  0  0  0  0  0  0  0  0  0  0
   25.3261  -24.7402  -16.4277 C   0  0  1  0  0  0  0  0  0  0  0  0
   24.1116  -25.5166  -15.9679 C   0  0  0  0  0  0  0  0  0  0  0  0
   23.2990  -25.8915  -17.1514 C   0  0  0  0  0  0  0  0  0  0  0  0
   23.1838  -27.1230  -17.7612 C   0  0  0  0  0  0  0  0  0  0  0  0
   22.3404  -27.0121  -18.8023 N   0  0  0  0  0  0  0  0  0  0  0  0
   21.9198  -25.7420  -18.8660 C   0  0  0  0  0  0  0  0  0  0  0  0
   22.5015  -25.0679  -17.8662 N   0  0  0  0  0  0  0  0  0  0  0  0
   25.8574  -23.8780  -15.3245 C   0  0  0  0  0  0  0  0  0  0  0  0
   26.4119  -24.4611  -14.3729 O   0  0  0  0  0  0  0  0  0  0  0  0
   27.1940  -18.7987  -17.6966 N   0  0  0  0  0  0  0  0  0  0  0  0
   28.4350  -18.3216  -17.1616 C   0  0  0  0  0  0  0  0  0  0  0  0
   29.4881  -18.2545  -17.8954 N   0  0  0  0  0  0  0  0  0  0  0  0
   28.4856  -17.9183  -15.8100 N   0  0  0  0  0  0  0  0  0  0  0  0
   27.2861  -17.8970  -15.0209 C   0  0  0  0  0  0  0  0  0  0  0  0
   27.0903  -19.1888  -14.2681 C   0  0  0  0  0  0  0  0  0  0  0  0
   26.5092  -20.2291  -15.1709 C   0  0  0  0  0  0  0  0  0  0  0  0
   26.3356  -21.5519  -14.4993 C   0  0  2  0  0  0  0  0  0  0  0  0
   25.6939  -22.4873  -15.4409 N   0  0  0  0  0  0  0  0  0  0  0  0
   25.4492  -21.4752  -13.3281 C   0  0  0  0  0  0  0  0  0  0  0  0
   24.2196  -21.1589  -13.5437 O   0  0  0  0  0  0  0  0  0  0  0  0
   30.3781  -17.9491  -17.4485 N   0  0  0  0  0  0  0  0  0  0  0  0
   25.8244  -21.7228  -11.9878 C   0  0  2  0  0  0  0  0  0  0  0  0
   24.8541  -21.6057  -10.8982 C   0  0  0  0  0  0  0  0  0  0  0  0
   25.5126  -22.0251   -9.6040 C   0  0  0  0  0  0  0  0  0  0  0  0
   26.4311  -21.0146   -9.0772 C   0  0  0  0  0  0  0  0  0  0  0  0
   27.7703  -20.9383   -9.4298 C   0  0  0  0  0  0  0  0  0  0  0  0
   28.6204  -19.9784   -8.9271 C   0  0  0  0  0  0  0  0  0  0  0  0
   28.0938  -19.0616   -8.0336 C   0  0  0  0  0  0  0  0  0  0  0  0
   26.7729  -19.0862   -7.6454 C   0  0  0  0  0  0  0  0  0  0  0  0
   25.9562  -20.0626   -8.1716 C   0  0  0  0  0  0  0  0  0  0  0  0
   24.2688  -20.2517  -10.8536 O   0  0  0  0  0  0  0  0  0  0  0  0
   23.1189  -20.0315  -10.3377 O   0  0  0  0  0  0  0  0  0  0  0  0
  2  1  1  1
  2  3  1  0
  3  4  1  0
  4  8  1  0
  5  6  1  0
  5  4  2  0
  6  7  1  0
  7  8  2  0
  9  2  1  0
  9 10  2  0
 11 12  1  0
 12 14  1  0
 13 12  2  0
 14 15  1  0
 16 17  1  0
 16 15  1  0
 18 19  1  0
 18 17  1  6
 19  9  1  0
 20 18  1  0
 21 20  2  0
 22 20  1  0
 23 24  1  1
 23 22  1  0
 24 25  1  0
 25 30  2  0
 26 27  2  0
 26 25  1  0
 27 28  1  0
 28 29  2  0
 30 29  1  0
 31 33  1  0
 31 23  1  0
 32 31  2  0
M  END
$$$$
