HRF.pdb
     RDKit          3D

 33 34  0  0  1  0  0  0  0  0999 V2000
   26.1816  -18.8020  -15.8411 N   0  0  0  0  0  0  0  0  0  0  0  0
   27.0157  -18.7615  -14.6635 C   0  0  1  0  0  0  0  0  0  0  0  0
   28.0361  -17.6597  -14.8482 C   0  0  0  0  0  0  0  0  0  0  0  0
   28.7688  -17.8851  -16.1186 C   0  0  0  0  0  0  0  0  0  0  0  0
   29.3426  -19.0486  -16.5863 C   0  0  0  0  0  0  0  0  0  0  0  0
   29.9038  -18.8025  -17.7830 N   0  0  0  0  0  0  0  0  0  0  0  0
   29.6993  -17.5132  -18.0833 C   0  0  0  0  0  0  0  0  0  0  0  0
   29.0127  -16.9623  -17.0746 N   0  0  0  0  0  0  0  0  0  0  0  0
   26.2161  -18.5447  -13.4160 C   0  0  0  0  0  0  0  0  0  0  0  0
   26.0882  -17.3674  -13.0279 O   0  0  0  0  0  0  0  0  0  0  0  0
   20.2622  -22.4110  -12.3854 N   0  0  0  0  0  0  0  0  0  0  0  0
   20.1030  -22.1335  -10.9884 C   0  0  0  0  0  0  0  0  0  0  0  0
   19.3656  -22.8808  -10.2467 N   0  0  0  0  0  0  0  0  0  0  0  0
   20.7751  -21.0243  -10.4318 N   0  0  0  0  0  0  0  0  0  0  0  0
   22.1895  -21.0870  -10.1921 C   0  0  0  0  0  0  0  0  0  0  0  0
   22.9695  -21.1899  -11.4785 C   0  0  0  0  0  0  0  0  0  0  0  0
   23.4217  -19.8344  -11.9176 C   0  0  0  0  0  0  0  0  0  0  0  0
   24.8457  -19.5530  -11.5651 C   0  0  2  0  0  0  0  0  0  0  0  0
   25.6732  -19.6735  -12.7793 N   0  0  0  0  0  0  0  0  0  0  0  0
   25.3876  -20.5223  -10.6007 C   0  0  0  0  0  0  0  0  0  0  0  0
   25.6210  -21.7122  -11.0344 O   0  0  0  0  0  0  0  0  0  0  0  0
   19.2760  -22.6343   -9.2385 N   0  0  0  0  0  0  0  0  0  0  0  0
   25.6804  -20.2637   -9.2421 C   0  0  2  0  0  0  0  0  0  0  0  0
   26.2498  -21.3018   -8.3815 C   0  0  0  0  0  0  0  0  0  0  0  0
   27.6830  -20.9451   -8.0603 C   0  0  0  0  0  0  0  0  0  0  0  0
   27.8322  -20.3020   -6.7540 C   0  0  0  0  0  0  0  0  0  0  0  0
   28.1149  -20.9953   -5.5865 C   0  0  0  0  0  0  0  0  0  0  0  0
   28.2556  -20.3739   -4.3655 C   0  0  0  0  0  0  0  0  0  0  0  0
   28.1040  -18.9986   -4.3260 C   0  0  0  0  0  0  0  0  0  0  0  0
   27.8230  -18.2556   -5.4509 C   0  0  0  0  0  0  0  0  0  0  0  0
   27.6902  -18.9158   -6.6525 C   0  0  0  0  0  0  0  0  0  0  0  0
   25.4109  -21.5179   -7.1867 O   0  0  0  0  0  0  0  0  0  0  0  0
   24.3457  -20.8401   -6.9800 O   0  0  0  0  0  0  0  0  0  0  0  0
  2  1  1  6
  2  3  1  0
  3  4  1  0
  4  8  1  0
  5  6  1  0
  5  4  2  0
  6  7  1  0
  7  8  2  0
  9  2  1  0
  9 10  2  0
 11 12  1  0
 12 14  1  0
 13 12  2  0
 14 15  1  0
 16 17  1  0
 16 15  1  0
 18 19  1  0
 18 17  1  6
 19  9  1  0
 20 18  1  0
 21 20  2  0
 22 20  1  0
 23 24  1  6
 23 22  1  0
 24 25  1  0
 25 30  2  0
 26 27  2  0
 26 25  1  0
 27 28  1  0
 28 29  2  0
 30 29  1  0
 31 33  1  0
 31 23  1  0
 32 31  2  0
M  END
$$$$
