HRF.pdb
     RDKit          3D

 33 34  0  0  1  0  0  0  0  0999 V2000
   22.2266  -21.8006  -15.2355 N   0  0  0  0  0  0  0  0  0  0  0  0
   22.4921  -20.8855  -14.1509 C   0  0  1  0  0  0  0  0  0  0  0  0
   21.3665  -21.0075  -13.1471 C   0  0  0  0  0  0  0  0  0  0  0  0
   20.1175  -20.4833  -13.7528 C   0  0  0  0  0  0  0  0  0  0  0  0
   19.9597  -19.7861  -14.9322 C   0  0  0  0  0  0  0  0  0  0  0  0
   18.6551  -19.5061  -15.0969 N   0  0  0  0  0  0  0  0  0  0  0  0
   17.9846  -20.0084  -14.0517 C   0  0  0  0  0  0  0  0  0  0  0  0
   18.8723  -20.5984  -13.2416 N   0  0  0  0  0  0  0  0  0  0  0  0
   23.8159  -21.1512  -13.5031 C   0  0  0  0  0  0  0  0  0  0  0  0
   24.0679  -22.3345  -13.2042 O   0  0  0  0  0  0  0  0  0  0  0  0
   26.8929  -22.6565  -16.0619 N   0  0  0  0  0  0  0  0  0  0  0  0
   27.9850  -21.9065  -16.6084 C   0  0  0  0  0  0  0  0  0  0  0  0
   28.2640  -21.9643  -17.8618 N   0  0  0  0  0  0  0  0  0  0  0  0
   28.7530  -21.0933  -15.7476 N   0  0  0  0  0  0  0  0  0  0  0  0
   28.2509  -20.7478  -14.4475 C   0  0  0  0  0  0  0  0  0  0  0  0
   27.4542  -19.4679  -14.4790 C   0  0  0  0  0  0  0  0  0  0  0  0
   26.9094  -19.1656  -13.1200 C   0  0  0  0  0  0  0  0  0  0  0  0
   25.9769  -20.2193  -12.6188 C   0  0  2  0  0  0  0  0  0  0  0  0
   24.6698  -20.0576  -13.2813 N   0  0  0  0  0  0  0  0  0  0  0  0
   25.7227  -20.1037  -11.1747 C   0  0  0  0  0  0  0  0  0  0  0  0
   24.4980  -20.1922  -10.7865 O   0  0  0  0  0  0  0  0  0  0  0  0
   29.0855  -21.4243  -18.2062 N   0  0  0  0  0  0  0  0  0  0  0  0
   26.7024  -19.9095  -10.1743 C   0  0  1  0  0  0  0  0  0  0  0  0
   26.4990  -20.4048   -8.8120 C   0  0  0  0  0  0  0  0  0  0  0  0
   27.1148  -21.7797   -8.6898 C   0  0  0  0  0  0  0  0  0  0  0  0
   28.5779  -21.7550   -8.7248 C   0  0  0  0  0  0  0  0  0  0  0  0
   29.3649  -21.4230   -7.6321 C   0  0  0  0  0  0  0  0  0  0  0  0
   30.7412  -21.4082   -7.6812 C   0  0  0  0  0  0  0  0  0  0  0  0
   31.3424  -21.7421   -8.8825 C   0  0  0  0  0  0  0  0  0  0  0  0
   30.6149  -22.0805  -10.0016 C   0  0  0  0  0  0  0  0  0  0  0  0
   29.2405  -22.0831   -9.9102 C   0  0  0  0  0  0  0  0  0  0  0  0
   27.0034  -19.4390   -7.8166 O   0  0  0  0  0  0  0  0  0  0  0  0
   27.7681  -18.4681   -8.1475 O   0  0  0  0  0  0  0  0  0  0  0  0
  2  1  1  6
  2  3  1  0
  3  4  1  0
  4  8  1  0
  5  6  1  0
  5  4  2  0
  6  7  1  0
  7  8  2  0
  9  2  1  0
  9 10  2  0
 11 12  1  0
 12 14  1  0
 13 12  2  0
 14 15  1  0
 16 17  1  0
 16 15  1  0
 18 19  1  0
 18 17  1  6
 19  9  1  0
 20 18  1  0
 21 20  2  0
 22 20  1  0
 23 24  1  6
 23 22  1  0
 24 25  1  0
 25 30  2  0
 26 27  2  0
 26 25  1  0
 27 28  1  0
 28 29  2  0
 30 29  1  0
 31 33  1  0
 31 23  1  0
 32 31  2  0
M  END
$$$$
