HRF.pdb
     RDKit          3D

 33 34  0  0  1  0  0  0  0  0999 V2000
   21.1487  -20.9508  -14.3099 N   0  0  0  0  0  0  0  0  0  0  0  0
   21.9931  -20.0610  -13.5487 C   0  0  1  0  0  0  0  0  0  0  0  0
   21.1768  -19.5043  -12.4028 C   0  0  0  0  0  0  0  0  0  0  0  0
   20.1467  -18.5835  -12.9436 C   0  0  0  0  0  0  0  0  0  0  0  0
   18.7737  -18.6870  -12.8658 C   0  0  0  0  0  0  0  0  0  0  0  0
   18.2250  -17.6319  -13.4929 N   0  0  0  0  0  0  0  0  0  0  0  0
   19.2161  -16.8644  -13.9649 C   0  0  0  0  0  0  0  0  0  0  0  0
   20.3762  -17.4431  -13.6306 N   0  0  0  0  0  0  0  0  0  0  0  0
   23.2229  -20.7497  -13.0427 C   0  0  0  0  0  0  0  0  0  0  0  0
   23.0566  -21.8330  -12.4497 O   0  0  0  0  0  0  0  0  0  0  0  0
   30.1092  -22.6909  -16.4325 N   0  0  0  0  0  0  0  0  0  0  0  0
   28.7536  -22.9648  -16.0565 C   0  0  0  0  0  0  0  0  0  0  0  0
   28.0417  -23.8055  -16.7187 N   0  0  0  0  0  0  0  0  0  0  0  0
   28.2075  -22.2989  -14.9383 N   0  0  0  0  0  0  0  0  0  0  0  0
   28.9700  -21.2884  -14.2604 C   0  0  0  0  0  0  0  0  0  0  0  0
   28.1905  -20.6659  -13.1296 C   0  0  0  0  0  0  0  0  0  0  0  0
   26.8535  -20.2069  -13.6158 C   0  0  0  0  0  0  0  0  0  0  0  0
   25.7236  -20.7219  -12.7856 C   0  0  2  0  0  0  0  0  0  0  0  0
   24.4634  -20.1304  -13.2710 N   0  0  0  0  0  0  0  0  0  0  0  0
   25.8424  -20.3329  -11.3721 C   0  0  0  0  0  0  0  0  0  0  0  0
   25.5548  -19.1136  -11.0739 O   0  0  0  0  0  0  0  0  0  0  0  0
   27.0600  -23.9666  -16.4098 N   0  0  0  0  0  0  0  0  0  0  0  0
   26.2386  -21.1786  -10.3109 C   0  0  2  0  0  0  0  0  0  0  0  0
   26.5394  -20.6361   -8.9851 C   0  0  0  0  0  0  0  0  0  0  0  0
   27.3153  -21.6651   -8.1954 C   0  0  0  0  0  0  0  0  0  0  0  0
   27.7460  -21.1737   -6.8856 C   0  0  0  0  0  0  0  0  0  0  0  0
   26.9879  -21.3034   -5.7314 C   0  0  0  0  0  0  0  0  0  0  0  0
   27.4100  -20.8382   -4.5057 C   0  0  0  0  0  0  0  0  0  0  0  0
   28.6463  -20.2183   -4.4475 C   0  0  0  0  0  0  0  0  0  0  0  0
   29.4443  -20.0599   -5.5585 C   0  0  0  0  0  0  0  0  0  0  0  0
   28.9850  -20.5395   -6.7654 C   0  0  0  0  0  0  0  0  0  0  0  0
   27.2215  -19.3315   -9.0892 O   0  0  0  0  0  0  0  0  0  0  0  0
   28.1791  -19.1360   -9.9148 O   0  0  0  0  0  0  0  0  0  0  0  0
  2  1  1  1
  2  3  1  0
  3  4  1  0
  4  8  1  0
  5  6  1  0
  5  4  2  0
  6  7  1  0
  7  8  2  0
  9  2  1  0
  9 10  2  0
 11 12  1  0
 12 14  1  0
 13 12  2  0
 14 15  1  0
 16 17  1  0
 16 15  1  0
 18 19  1  0
 18 17  1  6
 19  9  1  0
 20 18  1  0
 21 20  2  0
 22 20  1  0
 23 24  1  1
 23 22  1  0
 24 25  1  0
 25 30  2  0
 26 27  2  0
 26 25  1  0
 27 28  1  0
 28 29  2  0
 30 29  1  0
 31 33  1  0
 31 23  1  0
 32 31  2  0
M  END
$$$$
