HRF.pdb
     RDKit          3D

 33 34  0  0  1  0  0  0  0  0999 V2000
   19.5001  -29.7258  -12.5017 N   0  0  0  0  0  0  0  0  0  0  0  0
   19.7433  -29.6742  -11.0796 C   0  0  1  0  0  0  0  0  0  0  0  0
   18.5521  -29.0114  -10.4230 C   0  0  0  0  0  0  0  0  0  0  0  0
   18.5398  -27.5715  -10.7811 C   0  0  0  0  0  0  0  0  0  0  0  0
   17.8398  -26.9412  -11.7883 C   0  0  0  0  0  0  0  0  0  0  0  0
   18.1234  -25.6275  -11.7544 N   0  0  0  0  0  0  0  0  0  0  0  0
   18.9848  -25.4116  -10.7516 C   0  0  0  0  0  0  0  0  0  0  0  0
   19.2338  -26.5894  -10.1657 N   0  0  0  0  0  0  0  0  0  0  0  0
   19.9831  -31.0344  -10.5010 C   0  0  0  0  0  0  0  0  0  0  0  0
   19.1536  -31.9201  -10.7846 O   0  0  0  0  0  0  0  0  0  0  0  0
   24.7053  -37.0668   -8.6177 N   0  0  0  0  0  0  0  0  0  0  0  0
   23.4489  -37.4374   -9.1992 C   0  0  0  0  0  0  0  0  0  0  0  0
   23.3730  -38.3970  -10.0510 N   0  0  0  0  0  0  0  0  0  0  0  0
   22.2864  -36.7337   -8.8181 N   0  0  0  0  0  0  0  0  0  0  0  0
   21.9591  -35.4884   -9.4537 C   0  0  0  0  0  0  0  0  0  0  0  0
   23.0052  -34.4351   -9.1895 C   0  0  0  0  0  0  0  0  0  0  0  0
   22.5832  -33.1288   -9.7813 C   0  0  0  0  0  0  0  0  0  0  0  0
   21.4249  -32.5130   -9.0671 C   0  0  2  0  0  0  0  0  0  0  0  0
   21.1152  -31.2121   -9.6879 N   0  0  0  0  0  0  0  0  0  0  0  0
   21.7205  -32.2338   -7.6536 C   0  0  0  0  0  0  0  0  0  0  0  0
   22.5801  -31.3071   -7.4069 O   0  0  0  0  0  0  0  0  0  0  0  0
   22.4530  -38.5774  -10.5050 N   0  0  0  0  0  0  0  0  0  0  0  0
   21.1419  -32.8874   -6.5417 C   0  0  2  0  0  0  0  0  0  0  0  0
   21.5443  -32.5515   -5.1750 C   0  0  0  0  0  0  0  0  0  0  0  0
   20.7234  -31.3773   -4.6935 C   0  0  0  0  0  0  0  0  0  0  0  0
   19.2943  -31.6798   -4.6005 C   0  0  0  0  0  0  0  0  0  0  0  0
   18.3569  -31.2426   -5.5245 C   0  0  0  0  0  0  0  0  0  0  0  0
   17.0157  -31.5394   -5.4239 C   0  0  0  0  0  0  0  0  0  0  0  0
   16.6093  -32.3076   -4.3466 C   0  0  0  0  0  0  0  0  0  0  0  0
   17.4924  -32.7708   -3.3969 C   0  0  0  0  0  0  0  0  0  0  0  0
   18.8252  -32.4516   -3.5346 C   0  0  0  0  0  0  0  0  0  0  0  0
   21.4630  -33.7325   -4.2937 O   0  0  0  0  0  0  0  0  0  0  0  0
   21.8055  -33.6789   -3.0622 O   0  0  0  0  0  0  0  0  0  0  0  0
  2  1  1  6
  2  3  1  0
  3  4  1  0
  4  8  1  0
  5  6  1  0
  5  4  2  0
  6  7  1  0
  7  8  2  0
  9  2  1  0
  9 10  2  0
 11 12  1  0
 12 14  1  0
 13 12  2  0
 14 15  1  0
 16 17  1  0
 16 15  1  0
 18 19  1  0
 18 17  1  6
 19  9  1  0
 20 18  1  0
 21 20  2  0
 22 20  1  0
 23 24  1  6
 23 22  1  0
 24 25  1  0
 25 30  2  0
 26 27  2  0
 26 25  1  0
 27 28  1  0
 28 29  2  0
 30 29  1  0
 31 33  1  0
 31 23  1  0
 32 31  2  0
M  END
$$$$
