HRF.pdb
     RDKit          3D

 33 34  0  0  1  0  0  0  0  0999 V2000
   18.2774  -20.3258  -16.2456 N   0  0  0  0  0  0  0  0  0  0  0  0
   18.7681  -19.7449  -15.0184 C   0  0  1  0  0  0  0  0  0  0  0  0
   17.6155  -19.6682  -14.0411 C   0  0  0  0  0  0  0  0  0  0  0  0
   16.5364  -18.8360  -14.6282 C   0  0  0  0  0  0  0  0  0  0  0  0
   16.4446  -17.4612  -14.6858 C   0  0  0  0  0  0  0  0  0  0  0  0
   15.2984  -17.1307  -15.3060 N   0  0  0  0  0  0  0  0  0  0  0  0
   14.6637  -18.2615  -15.6416 C   0  0  0  0  0  0  0  0  0  0  0  0
   15.4155  -19.2901  -15.2302 N   0  0  0  0  0  0  0  0  0  0  0  0
   19.9057  -20.5293  -14.4412 C   0  0  0  0  0  0  0  0  0  0  0  0
   20.2526  -20.2439  -13.2788 O   0  0  0  0  0  0  0  0  0  0  0  0
   26.3841  -25.5712  -15.3223 N   0  0  0  0  0  0  0  0  0  0  0  0
   25.4315  -26.3116  -16.0959 C   0  0  0  0  0  0  0  0  0  0  0  0
   25.5606  -27.5792  -16.2651 N   0  0  0  0  0  0  0  0  0  0  0  0
   24.3387  -25.6272  -16.6697 N   0  0  0  0  0  0  0  0  0  0  0  0
   23.9544  -24.3378  -16.1681 C   0  0  0  0  0  0  0  0  0  0  0  0
   22.8701  -24.4450  -15.1257 C   0  0  0  0  0  0  0  0  0  0  0  0
   21.6998  -23.5977  -15.5094 C   0  0  0  0  0  0  0  0  0  0  0  0
   21.6665  -22.2899  -14.7886 C   0  0  2  0  0  0  0  0  0  0  0  0
   20.4941  -21.5208  -15.2444 N   0  0  0  0  0  0  0  0  0  0  0  0
   22.8431  -21.4572  -15.0811 C   0  0  0  0  0  0  0  0  0  0  0  0
   22.8208  -20.7743  -16.1727 O   0  0  0  0  0  0  0  0  0  0  0  0
   24.8209  -28.0798  -16.8011 N   0  0  0  0  0  0  0  0  0  0  0  0
   23.9938  -21.3350  -14.2690 C   0  0  2  0  0  0  0  0  0  0  0  0
   25.0772  -20.4184  -14.6278 C   0  0  0  0  0  0  0  0  0  0  0  0
   25.3843  -19.5303  -13.4440 C   0  0  0  0  0  0  0  0  0  0  0  0
   25.6387  -20.2842  -12.2154 C   0  0  0  0  0  0  0  0  0  0  0  0
   24.6843  -20.4874  -11.2298 C   0  0  0  0  0  0  0  0  0  0  0  0
   24.9394  -21.2027  -10.0808 C   0  0  0  0  0  0  0  0  0  0  0  0
   26.2090  -21.7317   -9.9248 C   0  0  0  0  0  0  0  0  0  0  0  0
   27.1983  -21.5639  -10.8679 C   0  0  0  0  0  0  0  0  0  0  0  0
   26.9019  -20.8418  -12.0029 C   0  0  0  0  0  0  0  0  0  0  0  0
   26.2500  -21.1574  -15.1342 O   0  0  0  0  0  0  0  0  0  0  0  0
   26.3355  -22.4305  -15.0413 O   0  0  0  0  0  0  0  0  0  0  0  0
  2  1  1  6
  2  3  1  0
  3  4  1  0
  4  8  1  0
  5  6  1  0
  5  4  2  0
  6  7  1  0
  7  8  2  0
  9  2  1  0
  9 10  2  0
 11 12  1  0
 12 14  1  0
 13 12  2  0
 14 15  1  0
 16 17  1  0
 16 15  1  0
 18 19  1  0
 18 17  1  6
 19  9  1  0
 20 18  1  0
 21 20  2  0
 22 20  1  0
 23 24  1  1
 23 22  1  0
 24 25  1  0
 25 30  2  0
 26 27  2  0
 26 25  1  0
 27 28  1  0
 28 29  2  0
 30 29  1  0
 31 33  1  0
 31 23  1  0
 32 31  2  0
M  END
$$$$
