HRF.pdb
     RDKit          3D

 33 34  0  0  1  0  0  0  0  0999 V2000
   16.1296  -24.9177   -8.2407 N   0  0  0  0  0  0  0  0  0  0  0  0
   17.1721  -25.7095   -7.6321 C   0  0  1  0  0  0  0  0  0  0  0  0
   18.4064  -24.8436   -7.5051 C   0  0  0  0  0  0  0  0  0  0  0  0
   18.8996  -24.5003   -8.8617 C   0  0  0  0  0  0  0  0  0  0  0  0
   19.5275  -25.3146   -9.7807 C   0  0  0  0  0  0  0  0  0  0  0  0
   19.8030  -24.5920  -10.8806 N   0  0  0  0  0  0  0  0  0  0  0  0
   19.3653  -23.3421  -10.6800 C   0  0  0  0  0  0  0  0  0  0  0  0
   18.8197  -23.2909   -9.4584 N   0  0  0  0  0  0  0  0  0  0  0  0
   16.7602  -26.2504   -6.2978 C   0  0  0  0  0  0  0  0  0  0  0  0
   16.3666  -25.4230   -5.4531 O   0  0  0  0  0  0  0  0  0  0  0  0
   16.2872  -34.6937   -4.8518 N   0  0  0  0  0  0  0  0  0  0  0  0
   17.2589  -33.8637   -4.2029 C   0  0  0  0  0  0  0  0  0  0  0  0
   18.4103  -34.3297   -3.8726 N   0  0  0  0  0  0  0  0  0  0  0  0
   16.9352  -32.5165   -3.9340 N   0  0  0  0  0  0  0  0  0  0  0  0
   15.6413  -32.0038   -4.2872 C   0  0  0  0  0  0  0  0  0  0  0  0
   15.5440  -30.5188   -4.0439 C   0  0  0  0  0  0  0  0  0  0  0  0
   16.2174  -29.7697   -5.1485 C   0  0  0  0  0  0  0  0  0  0  0  0
   16.2180  -28.2916   -4.9339 C   0  0  2  0  0  0  0  0  0  0  0  0
   16.8465  -27.6384   -6.0966 N   0  0  0  0  0  0  0  0  0  0  0  0
   17.0117  -27.8947   -3.7610 C   0  0  0  0  0  0  0  0  0  0  0  0
   18.2934  -27.9310   -3.8814 O   0  0  0  0  0  0  0  0  0  0  0  0
   19.0765  -33.6918   -3.3885 N   0  0  0  0  0  0  0  0  0  0  0  0
   16.4942  -27.4718   -2.5153 C   0  0  2  0  0  0  0  0  0  0  0  0
   17.3845  -27.1182   -1.4086 C   0  0  0  0  0  0  0  0  0  0  0  0
   16.7220  -26.0550   -0.5628 C   0  0  0  0  0  0  0  0  0  0  0  0
   15.7763  -26.6059    0.4091 C   0  0  0  0  0  0  0  0  0  0  0  0
   16.1635  -27.2861    1.5541 C   0  0  0  0  0  0  0  0  0  0  0  0
   15.2602  -27.7953    2.4605 C   0  0  0  0  0  0  0  0  0  0  0  0
   13.9143  -27.6082    2.1967 C   0  0  0  0  0  0  0  0  0  0  0  0
   13.4684  -26.9416    1.0774 C   0  0  0  0  0  0  0  0  0  0  0  0
   14.4047  -26.4478    0.1959 C   0  0  0  0  0  0  0  0  0  0  0  0
   17.7844  -28.3173   -0.6468 O   0  0  0  0  0  0  0  0  0  0  0  0
   17.1753  -29.4344   -0.7805 O   0  0  0  0  0  0  0  0  0  0  0  0
  2  1  1  1
  2  3  1  0
  3  4  1  0
  4  8  1  0
  5  6  1  0
  5  4  2  0
  6  7  1  0
  7  8  2  0
  9  2  1  0
  9 10  2  0
 11 12  1  0
 12 14  1  0
 13 12  2  0
 14 15  1  0
 16 17  1  0
 16 15  1  0
 18 19  1  0
 18 17  1  6
 19  9  1  0
 20 18  1  0
 21 20  2  0
 22 20  1  0
 23 24  1  6
 23 22  1  0
 24 25  1  0
 25 30  2  0
 26 27  2  0
 26 25  1  0
 27 28  1  0
 28 29  2  0
 30 29  1  0
 31 33  1  0
 31 23  1  0
 32 31  2  0
M  END
$$$$
