VWF.pdb
     RDKit          3D

 33 35  0  0  1  0  0  0  0  0999 V2000
    7.9946  -19.2570   20.0111 C   0  0  0  0  0  0  0  0  0  0  0  0
    7.3203  -18.0075   19.4846 C   0  0  2  0  0  0  0  0  0  0  0  0
    6.7103  -18.2542   18.1448 C   0  0  0  0  0  0  0  0  0  0  0  0
    8.3680  -16.9091   19.4483 C   0  0  2  0  0  0  0  0  0  0  0  0
    9.4777  -17.2094   18.5968 N   0  0  0  0  0  0  0  0  0  0  0  0
    8.8454  -16.5513   20.7911 C   0  0  0  0  0  0  0  0  0  0  0  0
    9.8920  -17.0472   21.2363 O   0  0  0  0  0  0  0  0  0  0  0  0
    8.0694  -15.6198   21.5669 N   0  0  0  0  0  0  0  0  0  0  0  0
    8.4403  -15.3243   22.9238 C   0  0  1  0  0  0  0  0  0  0  0  0
    7.7730  -14.1552   23.5376 C   0  0  0  0  0  0  0  0  0  0  0  0
    7.9829  -13.9462   24.9716 C   0  0  0  0  0  0  0  0  0  0  0  0
    8.7815  -14.5854   25.8897 C   0  0  0  0  0  0  0  0  0  0  0  0
    8.6207  -13.9964   27.1121 N   0  0  0  0  0  0  0  0  0  0  0  0
    7.7340  -12.9944   26.9843 C   0  0  0  0  0  0  0  0  0  0  0  0
    7.2409  -12.1041   27.9233 C   0  0  0  0  0  0  0  0  0  0  0  0
    6.3324  -11.1681   27.5107 C   0  0  0  0  0  0  0  0  0  0  0  0
    5.8908  -11.0732   26.2128 C   0  0  0  0  0  0  0  0  0  0  0  0
    6.4029  -11.9751   25.3062 C   0  0  0  0  0  0  0  0  0  0  0  0
    7.3203  -12.9364   25.6741 C   0  0  0  0  0  0  0  0  0  0  0  0
    8.2887  -16.5576   23.7777 C   0  0  0  0  0  0  0  0  0  0  0  0
    7.2238  -17.1724   23.7307 O   0  0  0  0  0  0  0  0  0  0  0  0
    9.3585  -16.9763   24.6062 N   0  0  0  0  0  0  0  0  0  0  0  0
    9.3028  -18.1021   25.5178 C   0  0  1  0  0  0  0  0  0  0  0  0
    9.0275  -19.3276   24.7156 C   0  0  0  0  0  0  0  0  0  0  0  0
   10.1338  -19.5902   23.7713 C   0  0  0  0  0  0  0  0  0  0  0  0
   10.1420  -20.6441   22.8715 C   0  0  0  0  0  0  0  0  0  0  0  0
   11.2007  -20.8529   22.0146 C   0  0  0  0  0  0  0  0  0  0  0  0
   12.2881  -19.9912   22.0479 C   0  0  0  0  0  0  0  0  0  0  0  0
   12.3193  -18.9299   22.9281 C   0  0  0  0  0  0  0  0  0  0  0  0
   11.2445  -18.7596   23.7629 C   0  0  0  0  0  0  0  0  0  0  0  0
   10.4834  -18.1660   26.3946 C   0  0  0  0  0  0  0  0  0  0  0  0
   11.4559  -17.3776   26.2785 O   0  0  0  0  0  0  0  0  0  0  0  0
   10.5937  -19.1051   27.4096 O   0  0  0  0  0  0  0  0  0  0  0  0
  2  1  1  6
  2  3  1  0
  4  2  1  0
  4  5  1  6
  6  7  2  0
  6  4  1  0
  8  6  1  0
  9  8  1  0
 10 11  1  0
  9 10  1  1
 11 19  1  0
 12 13  1  0
 12 11  2  0
 13 14  1  0
 14 19  2  0
 14 15  1  0
 15 16  2  0
 16 17  1  0
 18 17  2  0
 19 18  1  0
 20 22  1  0
 20  9  1  0
 21 20  2  0
 23 22  1  0
 23 31  1  0
 24 25  1  0
 23 24  1  6
 25 30  1  0
 26 25  2  0
 26 27  1  0
 27 28  2  0
 28 29  1  0
 30 29  2  0
 31 33  1  0
 32 31  2  0
M  END
$$$$
