VWF.pdb
     RDKit          3D

 33 35  0  0  1  0  0  0  0  0999 V2000
    8.8009  -21.0201   21.3339 C   0  0  0  0  0  0  0  0  0  0  0  0
    9.2150  -19.7265   22.0034 C   0  0  2  0  0  0  0  0  0  0  0  0
    8.7080  -19.6652   23.4061 C   0  0  0  0  0  0  0  0  0  0  0  0
    8.6891  -18.5865   21.1494 C   0  0  2  0  0  0  0  0  0  0  0  0
    8.9827  -18.7364   19.7572 N   0  0  0  0  0  0  0  0  0  0  0  0
    9.1536  -17.2759   21.6242 C   0  0  0  0  0  0  0  0  0  0  0  0
   10.2988  -16.8819   21.3543 O   0  0  0  0  0  0  0  0  0  0  0  0
    8.2503  -16.4723   22.4053 N   0  0  0  0  0  0  0  0  0  0  0  0
    8.6643  -15.1842   22.8906 C   0  0  1  0  0  0  0  0  0  0  0  0
    7.9555  -14.0183   22.3190 C   0  0  0  0  0  0  0  0  0  0  0  0
    7.8223  -13.9694   20.8616 C   0  0  0  0  0  0  0  0  0  0  0  0
    6.7675  -14.2387   20.0223 C   0  0  0  0  0  0  0  0  0  0  0  0
    7.1579  -14.0305   18.7295 N   0  0  0  0  0  0  0  0  0  0  0  0
    8.4420  -13.6334   18.7351 C   0  0  0  0  0  0  0  0  0  0  0  0
    9.2852  -13.3000   17.6885 C   0  0  0  0  0  0  0  0  0  0  0  0
   10.5660  -12.9227   17.9866 C   0  0  0  0  0  0  0  0  0  0  0  0
   11.0493  -12.8604   19.2716 C   0  0  0  0  0  0  0  0  0  0  0  0
   10.1824  -13.1990   20.2872 C   0  0  0  0  0  0  0  0  0  0  0  0
    8.8827  -13.5854   20.0368 C   0  0  0  0  0  0  0  0  0  0  0  0
    8.6280  -15.1677   24.3979 C   0  0  0  0  0  0  0  0  0  0  0  0
    8.2114  -14.1556   24.9602 O   0  0  0  0  0  0  0  0  0  0  0  0
    9.0700  -16.2997   25.1254 N   0  0  0  0  0  0  0  0  0  0  0  0
    9.0310  -16.4177   26.5698 C   0  0  1  0  0  0  0  0  0  0  0  0
    7.6804  -15.9851   27.0281 C   0  0  0  0  0  0  0  0  0  0  0  0
    7.5779  -14.5107   27.0251 C   0  0  0  0  0  0  0  0  0  0  0  0
    6.4401  -13.8204   26.6385 C   0  0  0  0  0  0  0  0  0  0  0  0
    6.3945  -12.4433   26.6456 C   0  0  0  0  0  0  0  0  0  0  0  0
    7.5108  -11.7237   27.0483 C   0  0  0  0  0  0  0  0  0  0  0  0
    8.6630  -12.3721   27.4410 C   0  0  0  0  0  0  0  0  0  0  0  0
    8.6644  -13.7435   27.4183 C   0  0  0  0  0  0  0  0  0  0  0  0
    9.4654  -17.7464   27.0306 C   0  0  0  0  0  0  0  0  0  0  0  0
    9.5150  -18.0577   28.2478 O   0  0  0  0  0  0  0  0  0  0  0  0
    9.8470  -18.7422   26.1434 O   0  0  0  0  0  0  0  0  0  0  0  0
  2  1  1  6
  2  3  1  0
  4  2  1  0
  4  5  1  6
  6  7  2  0
  6  4  1  0
  8  6  1  0
  9  8  1  0
 10 11  1  0
  9 10  1  6
 11 19  1  0
 12 13  1  0
 12 11  2  0
 13 14  1  0
 14 19  2  0
 14 15  1  0
 15 16  2  0
 16 17  1  0
 18 17  2  0
 19 18  1  0
 20 22  1  0
 20  9  1  0
 21 20  2  0
 23 22  1  0
 23 31  1  0
 24 25  1  0
 23 24  1  6
 25 30  1  0
 26 25  2  0
 26 27  1  0
 27 28  2  0
 28 29  1  0
 30 29  2  0
 31 33  1  0
 32 31  2  0
M  END
$$$$
