VWF.pdb
     RDKit          3D

 33 35  0  0  1  0  0  0  0  0999 V2000
    9.0956  -17.5878   19.0941 C   0  0  0  0  0  0  0  0  0  0  0  0
    7.6834  -17.4669   19.6270 C   0  0  2  0  0  0  0  0  0  0  0  0
    6.6845  -17.8348   18.5805 C   0  0  0  0  0  0  0  0  0  0  0  0
    7.5057  -16.0412   20.1185 C   0  0  2  0  0  0  0  0  0  0  0  0
    7.5629  -15.0675   19.0719 N   0  0  0  0  0  0  0  0  0  0  0  0
    8.4606  -15.6961   21.1806 C   0  0  0  0  0  0  0  0  0  0  0  0
    9.4203  -14.9472   20.9408 O   0  0  0  0  0  0  0  0  0  0  0  0
    8.2524  -16.2489   22.4932 N   0  0  0  0  0  0  0  0  0  0  0  0
    9.2101  -16.0103   23.5381 C   0  0  1  0  0  0  0  0  0  0  0  0
    8.6972  -16.1114   24.9221 C   0  0  0  0  0  0  0  0  0  0  0  0
    7.5111  -15.3187   25.2519 C   0  0  0  0  0  0  0  0  0  0  0  0
    6.1663  -15.5822   25.1439 C   0  0  0  0  0  0  0  0  0  0  0  0
    5.4597  -14.5060   25.6013 N   0  0  0  0  0  0  0  0  0  0  0  0
    6.3336  -13.5649   25.9979 C   0  0  0  0  0  0  0  0  0  0  0  0
    6.1189  -12.3061   26.5333 C   0  0  0  0  0  0  0  0  0  0  0  0
    7.2104  -11.5461   26.8537 C   0  0  0  0  0  0  0  0  0  0  0  0
    8.5028  -11.9749   26.6686 C   0  0  0  0  0  0  0  0  0  0  0  0
    8.6783  -13.2323   26.1339 C   0  0  0  0  0  0  0  0  0  0  0  0
    7.6098  -14.0353   25.7952 C   0  0  0  0  0  0  0  0  0  0  0  0
   10.4217  -16.8839   23.3332 C   0  0  0  0  0  0  0  0  0  0  0  0
   10.2985  -17.9021   22.6533 O   0  0  0  0  0  0  0  0  0  0  0  0
   11.6585  -16.5217   23.9208 N   0  0  0  0  0  0  0  0  0  0  0  0
   12.8849  -17.2845   23.7958 C   0  0  1  0  0  0  0  0  0  0  0  0
   13.1220  -17.5360   22.3461 C   0  0  0  0  0  0  0  0  0  0  0  0
   13.3788  -16.2669   21.6335 C   0  0  0  0  0  0  0  0  0  0  0  0
   14.5945  -15.6023   21.6617 C   0  0  0  0  0  0  0  0  0  0  0  0
   14.7842  -14.4164   20.9863 C   0  0  0  0  0  0  0  0  0  0  0  0
   13.7373  -13.8685   20.2582 C   0  0  0  0  0  0  0  0  0  0  0  0
   12.5115  -14.4982   20.2040 C   0  0  0  0  0  0  0  0  0  0  0  0
   12.3668  -15.6763   20.8912 C   0  0  0  0  0  0  0  0  0  0  0  0
   14.0021  -16.6639   24.5262 C   0  0  0  0  0  0  0  0  0  0  0  0
   13.8734  -15.5987   25.1817 O   0  0  0  0  0  0  0  0  0  0  0  0
   15.2721  -17.2220   24.5367 O   0  0  0  0  0  0  0  0  0  0  0  0
  2  1  1  6
  2  3  1  0
  4  2  1  0
  4  5  1  6
  6  7  2  0
  6  4  1  0
  8  6  1  0
  9  8  1  0
 10 11  1  0
  9 10  1  1
 11 19  1  0
 12 13  1  0
 12 11  2  0
 13 14  1  0
 14 19  2  0
 14 15  1  0
 15 16  2  0
 16 17  1  0
 18 17  2  0
 19 18  1  0
 20 22  1  0
 20  9  1  0
 21 20  2  0
 23 22  1  0
 23 31  1  0
 24 25  1  0
 23 24  1  6
 25 30  1  0
 26 25  2  0
 26 27  1  0
 27 28  2  0
 28 29  1  0
 30 29  2  0
 31 33  1  0
 32 31  2  0
M  END
$$$$
