VWF.pdb
     RDKit          3D

 33 35  0  0  1  0  0  0  0  0999 V2000
   11.7890  -18.2589   14.1257 C   0  0  0  0  0  0  0  0  0  0  0  0
   12.1519  -17.6356   15.4572 C   0  0  2  0  0  0  0  0  0  0  0  0
   12.9257  -18.5930   16.3016 C   0  0  0  0  0  0  0  0  0  0  0  0
   10.8576  -17.1977   16.1196 C   0  0  2  0  0  0  0  0  0  0  0  0
   10.0181  -16.4151   15.2655 N   0  0  0  0  0  0  0  0  0  0  0  0
   11.0927  -16.4869   17.3839 C   0  0  0  0  0  0  0  0  0  0  0  0
   11.6268  -15.3670   17.3828 O   0  0  0  0  0  0  0  0  0  0  0  0
   10.6910  -17.1234   18.6108 N   0  0  0  0  0  0  0  0  0  0  0  0
   10.8792  -16.4527   19.8681 C   0  0  1  0  0  0  0  0  0  0  0  0
    9.7379  -16.5062   20.8079 C   0  0  0  0  0  0  0  0  0  0  0  0
    8.5017  -15.8406   20.3921 C   0  0  0  0  0  0  0  0  0  0  0  0
    7.2317  -16.3136   20.1626 C   0  0  0  0  0  0  0  0  0  0  0  0
    6.4242  -15.2735   19.7978 N   0  0  0  0  0  0  0  0  0  0  0  0
    7.1607  -14.1492   19.7926 C   0  0  0  0  0  0  0  0  0  0  0  0
    6.8073  -12.8435   19.4961 C   0  0  0  0  0  0  0  0  0  0  0  0
    7.7749  -11.8794   19.5739 C   0  0  0  0  0  0  0  0  0  0  0  0
    9.0742  -12.1485   19.9315 C   0  0  0  0  0  0  0  0  0  0  0  0
    9.3894  -13.4582   20.2196 C   0  0  0  0  0  0  0  0  0  0  0  0
    8.4491  -14.4646   20.1552 C   0  0  0  0  0  0  0  0  0  0  0  0
   12.1529  -16.9299   20.5188 C   0  0  0  0  0  0  0  0  0  0  0  0
   12.4448  -18.1217   20.4251 O   0  0  0  0  0  0  0  0  0  0  0  0
   12.9743  -16.0110   21.2165 N   0  0  0  0  0  0  0  0  0  0  0  0
   14.1816  -16.3665   21.9362 C   0  0  1  0  0  0  0  0  0  0  0  0
   15.1228  -15.2143   21.8486 C   0  0  0  0  0  0  0  0  0  0  0  0
   15.4847  -14.9444   20.4412 C   0  0  0  0  0  0  0  0  0  0  0  0
   16.4304  -15.6733   19.7377 C   0  0  0  0  0  0  0  0  0  0  0  0
   16.7396  -15.3793   18.4276 C   0  0  0  0  0  0  0  0  0  0  0  0
   16.0924  -14.3296   17.7908 C   0  0  0  0  0  0  0  0  0  0  0  0
   15.1446  -13.5795   18.4550 C   0  0  0  0  0  0  0  0  0  0  0  0
   14.8681  -13.9069   19.7579 C   0  0  0  0  0  0  0  0  0  0  0  0
   13.8951  -16.8538   23.2952 C   0  0  0  0  0  0  0  0  0  0  0  0
   12.7393  -16.8385   23.7900 O   0  0  0  0  0  0  0  0  0  0  0  0
   14.8897  -17.3645   24.1165 O   0  0  0  0  0  0  0  0  0  0  0  0
  2  1  1  6
  2  3  1  0
  4  2  1  0
  4  5  1  6
  6  7  2  0
  6  4  1  0
  8  6  1  0
  9  8  1  0
 10 11  1  0
  9 10  1  1
 11 19  1  0
 12 13  1  0
 12 11  2  0
 13 14  1  0
 14 19  2  0
 14 15  1  0
 15 16  2  0
 16 17  1  0
 18 17  2  0
 19 18  1  0
 20 22  1  0
 20  9  1  0
 21 20  2  0
 23 22  1  0
 23 31  1  0
 24 25  1  0
 23 24  1  1
 25 30  1  0
 26 25  2  0
 26 27  1  0
 27 28  2  0
 28 29  1  0
 30 29  2  0
 31 33  1  0
 32 31  2  0
M  END
$$$$
