VWF.pdb
     RDKit          3D

 33 35  0  0  1  0  0  0  0  0999 V2000
   10.7061  -20.1571   23.1980 C   0  0  0  0  0  0  0  0  0  0  0  0
    9.2198  -20.1159   22.9113 C   0  0  2  0  0  0  0  0  0  0  0  0
    8.6774  -21.4913   22.7057 C   0  0  0  0  0  0  0  0  0  0  0  0
    9.0179  -19.2281   21.6961 C   0  0  2  0  0  0  0  0  0  0  0  0
    9.6141  -19.7501   20.5050 N   0  0  0  0  0  0  0  0  0  0  0  0
    9.4789  -17.8527   21.9294 C   0  0  0  0  0  0  0  0  0  0  0  0
   10.5346  -17.4505   21.4163 O   0  0  0  0  0  0  0  0  0  0  0  0
    8.6785  -16.9957   22.7642 N   0  0  0  0  0  0  0  0  0  0  0  0
    9.1019  -15.6487   23.0334 C   0  0  1  0  0  0  0  0  0  0  0  0
    8.1189  -14.5870   22.7249 C   0  0  0  0  0  0  0  0  0  0  0  0
    7.4722  -14.6399   21.4122 C   0  0  0  0  0  0  0  0  0  0  0  0
    6.4004  -15.3598   20.9403 C   0  0  0  0  0  0  0  0  0  0  0  0
    6.1862  -15.0390   19.6296 N   0  0  0  0  0  0  0  0  0  0  0  0
    7.1036  -14.1278   19.2627 C   0  0  0  0  0  0  0  0  0  0  0  0
    7.3052  -13.4923   18.0489 C   0  0  0  0  0  0  0  0  0  0  0  0
    8.3313  -12.5924   17.9541 C   0  0  0  0  0  0  0  0  0  0  0  0
    9.1655  -12.2933   19.0044 C   0  0  0  0  0  0  0  0  0  0  0  0
    8.9351  -12.9444   20.1963 C   0  0  0  0  0  0  0  0  0  0  0  0
    7.9139  -13.8593   20.3409 C   0  0  0  0  0  0  0  0  0  0  0  0
    9.6029  -15.5419   24.4515 C   0  0  0  0  0  0  0  0  0  0  0  0
   10.3074  -14.5782   24.7502 O   0  0  0  0  0  0  0  0  0  0  0  0
    9.2597  -16.5394   25.3966 N   0  0  0  0  0  0  0  0  0  0  0  0
    9.5704  -16.4759   26.8112 C   0  0  1  0  0  0  0  0  0  0  0  0
    8.3068  -16.1814   27.5447 C   0  0  0  0  0  0  0  0  0  0  0  0
    7.7910  -14.8462   27.1763 C   0  0  0  0  0  0  0  0  0  0  0  0
    6.5976  -14.6429   26.5018 C   0  0  0  0  0  0  0  0  0  0  0  0
    6.1611  -13.3780   26.1732 C   0  0  0  0  0  0  0  0  0  0  0  0
    6.9297  -12.2765   26.5230 C   0  0  0  0  0  0  0  0  0  0  0  0
    8.1235  -12.4352   27.1950 C   0  0  0  0  0  0  0  0  0  0  0  0
    8.5198  -13.7119   27.5019 C   0  0  0  0  0  0  0  0  0  0  0  0
   10.3128  -17.6609   27.2707 C   0  0  0  0  0  0  0  0  0  0  0  0
   10.6574  -17.8209   28.4693 O   0  0  0  0  0  0  0  0  0  0  0  0
   10.6778  -18.6801   26.4031 O   0  0  0  0  0  0  0  0  0  0  0  0
  2  1  1  6
  2  3  1  0
  4  2  1  0
  4  5  1  6
  6  7  2  0
  6  4  1  0
  8  6  1  0
  9  8  1  0
 10 11  1  0
  9 10  1  1
 11 19  1  0
 12 13  1  0
 12 11  2  0
 13 14  1  0
 14 19  2  0
 14 15  1  0
 15 16  2  0
 16 17  1  0
 18 17  2  0
 19 18  1  0
 20 22  1  0
 20  9  1  0
 21 20  2  0
 23 22  1  0
 23 31  1  0
 24 25  1  0
 23 24  1  1
 25 30  1  0
 26 25  2  0
 26 27  1  0
 27 28  2  0
 28 29  1  0
 30 29  2  0
 31 33  1  0
 32 31  2  0
M  END
$$$$
