VWF.pdb
     RDKit          3D

 33 35  0  0  1  0  0  0  0  0999 V2000
   12.3073  -19.8033   19.6558 C   0  0  0  0  0  0  0  0  0  0  0  0
   12.1938  -18.8137   20.7963 C   0  0  2  0  0  0  0  0  0  0  0  0
   12.5921  -19.4424   22.0903 C   0  0  0  0  0  0  0  0  0  0  0  0
   10.7619  -18.3089   20.8165 C   0  0  2  0  0  0  0  0  0  0  0  0
   10.2657  -17.9535   19.5226 N   0  0  0  0  0  0  0  0  0  0  0  0
   10.5800  -17.1896   21.7509 C   0  0  0  0  0  0  0  0  0  0  0  0
   11.0423  -16.0696   21.4839 O   0  0  0  0  0  0  0  0  0  0  0  0
    9.8589  -17.4297   22.9732 N   0  0  0  0  0  0  0  0  0  0  0  0
    9.4989  -16.3314   23.8276 C   0  0  1  0  0  0  0  0  0  0  0  0
    8.0500  -16.0671   23.9670 C   0  0  0  0  0  0  0  0  0  0  0  0
    7.5021  -14.9438   23.2041 C   0  0  0  0  0  0  0  0  0  0  0  0
    7.1556  -14.8092   21.8807 C   0  0  0  0  0  0  0  0  0  0  0  0
    6.6764  -13.5474   21.6680 N   0  0  0  0  0  0  0  0  0  0  0  0
    6.7129  -12.8800   22.8341 C   0  0  0  0  0  0  0  0  0  0  0  0
    6.3375  -11.5828   23.1404 C   0  0  0  0  0  0  0  0  0  0  0  0
    6.4838  -11.1564   24.4321 C   0  0  0  0  0  0  0  0  0  0  0  0
    6.9837  -11.9546   25.4329 C   0  0  0  0  0  0  0  0  0  0  0  0
    7.3466  -13.2389   25.0916 C   0  0  0  0  0  0  0  0  0  0  0  0
    7.2181  -13.7141   23.8037 C   0  0  0  0  0  0  0  0  0  0  0  0
   10.1633  -16.4877   25.1721 C   0  0  0  0  0  0  0  0  0  0  0  0
    9.7887  -15.7656   26.0954 O   0  0  0  0  0  0  0  0  0  0  0  0
   11.1915  -17.4468   25.3421 N   0  0  0  0  0  0  0  0  0  0  0  0
   11.9705  -17.6138   26.5534 C   0  0  1  0  0  0  0  0  0  0  0  0
   11.0214  -17.7075   27.6987 C   0  0  0  0  0  0  0  0  0  0  0  0
   10.5559  -16.3632   28.0994 C   0  0  0  0  0  0  0  0  0  0  0  0
   10.8976  -15.7574   29.2980 C   0  0  0  0  0  0  0  0  0  0  0  0
   10.4325  -14.5039   29.6312 C   0  0  0  0  0  0  0  0  0  0  0  0
    9.6017  -13.8258   28.7502 C   0  0  0  0  0  0  0  0  0  0  0  0
    9.2380  -14.3930   27.5468 C   0  0  0  0  0  0  0  0  0  0  0  0
    9.7238  -15.6422   27.2559 C   0  0  0  0  0  0  0  0  0  0  0  0
   12.9441  -18.7119   26.4407 C   0  0  0  0  0  0  0  0  0  0  0  0
   12.9037  -19.5597   25.5131 O   0  0  0  0  0  0  0  0  0  0  0  0
   13.9729  -18.8773   27.3566 O   0  0  0  0  0  0  0  0  0  0  0  0
  2  1  1  6
  2  3  1  0
  4  2  1  0
  4  5  1  6
  6  7  2  0
  6  4  1  0
  8  6  1  0
  9  8  1  0
 10 11  1  0
  9 10  1  1
 11 19  1  0
 12 13  1  0
 12 11  2  0
 13 14  1  0
 14 19  2  0
 14 15  1  0
 15 16  2  0
 16 17  1  0
 18 17  2  0
 19 18  1  0
 20 22  1  0
 20  9  1  0
 21 20  2  0
 23 22  1  0
 23 31  1  0
 24 25  1  0
 23 24  1  1
 25 30  1  0
 26 25  2  0
 26 27  1  0
 27 28  2  0
 28 29  1  0
 30 29  2  0
 31 33  1  0
 32 31  2  0
M  END
$$$$
