VWF.pdb
     RDKit          3D

 33 35  0  0  1  0  0  0  0  0999 V2000
   12.8057  -18.8489   21.6365 C   0  0  0  0  0  0  0  0  0  0  0  0
   11.5424  -19.3086   20.9396 C   0  0  2  0  0  0  0  0  0  0  0  0
   11.8360  -20.4057   19.9709 C   0  0  0  0  0  0  0  0  0  0  0  0
   10.9290  -18.0934   20.2668 C   0  0  2  0  0  0  0  0  0  0  0  0
   11.7780  -17.5007   19.2796 N   0  0  0  0  0  0  0  0  0  0  0  0
   10.4998  -17.0776   21.2378 C   0  0  0  0  0  0  0  0  0  0  0  0
   11.2175  -16.0932   21.4729 O   0  0  0  0  0  0  0  0  0  0  0  0
    9.2360  -17.2582   21.9026 N   0  0  0  0  0  0  0  0  0  0  0  0
    8.7823  -16.2937   22.8670 C   0  0  1  0  0  0  0  0  0  0  0  0
    7.3748  -16.4264   23.3029 C   0  0  0  0  0  0  0  0  0  0  0  0
    6.9466  -15.5970   24.4311 C   0  0  0  0  0  0  0  0  0  0  0  0
    6.4495  -15.9143   25.6728 C   0  0  0  0  0  0  0  0  0  0  0  0
    6.2096  -14.7629   26.3681 N   0  0  0  0  0  0  0  0  0  0  0  0
    6.5465  -13.7211   25.5885 C   0  0  0  0  0  0  0  0  0  0  0  0
    6.4917  -12.3593   25.8334 C   0  0  0  0  0  0  0  0  0  0  0  0
    6.9060  -11.5085   24.8453 C   0  0  0  0  0  0  0  0  0  0  0  0
    7.3717  -11.9439   23.6279 C   0  0  0  0  0  0  0  0  0  0  0  0
    7.4123  -13.3050   23.4196 C   0  0  0  0  0  0  0  0  0  0  0  0
    7.0055  -14.2018   24.3847 C   0  0  0  0  0  0  0  0  0  0  0  0
    9.7241  -16.2628   24.0441 C   0  0  0  0  0  0  0  0  0  0  0  0
   10.1095  -15.1685   24.4541 O   0  0  0  0  0  0  0  0  0  0  0  0
   10.1418  -17.4760   24.6437 N   0  0  0  0  0  0  0  0  0  0  0  0
   10.6439  -17.5955   25.9985 C   0  0  1  0  0  0  0  0  0  0  0  0
    9.5433  -17.2177   26.9296 C   0  0  0  0  0  0  0  0  0  0  0  0
    9.8271  -15.9157   27.5689 C   0  0  0  0  0  0  0  0  0  0  0  0
   10.6315  -15.7681   28.6876 C   0  0  0  0  0  0  0  0  0  0  0  0
   10.8613  -14.5328   29.2531 C   0  0  0  0  0  0  0  0  0  0  0  0
   10.2766  -13.4049   28.6942 C   0  0  0  0  0  0  0  0  0  0  0  0
    9.4697  -13.5082   27.5805 C   0  0  0  0  0  0  0  0  0  0  0  0
    9.2680  -14.7570   27.0506 C   0  0  0  0  0  0  0  0  0  0  0  0
   11.2673  -18.9057   26.2464 C   0  0  0  0  0  0  0  0  0  0  0  0
   11.8376  -19.1894   27.3304 O   0  0  0  0  0  0  0  0  0  0  0  0
   11.2612  -19.9134   25.2930 O   0  0  0  0  0  0  0  0  0  0  0  0
  2  1  1  6
  2  3  1  0
  4  2  1  0
  4  5  1  6
  6  7  2  0
  6  4  1  0
  8  6  1  0
  9  8  1  0
 10 11  1  0
  9 10  1  1
 11 19  1  0
 12 13  1  0
 12 11  2  0
 13 14  1  0
 14 19  2  0
 14 15  1  0
 15 16  2  0
 16 17  1  0
 18 17  2  0
 19 18  1  0
 20 22  1  0
 20  9  1  0
 21 20  2  0
 23 22  1  0
 23 31  1  0
 24 25  1  0
 23 24  1  1
 25 30  1  0
 26 25  2  0
 26 27  1  0
 27 28  2  0
 28 29  1  0
 30 29  2  0
 31 33  1  0
 32 31  2  0
M  END
$$$$
