PFF.pdb
     RDKit          3D

 30 32  0  0  1  0  0  0  0  0999 V2000
    9.6383  -17.2403   19.4167 N   0  0  0  0  0  0  0  0  0  0  0  0
   10.1486  -17.4190   18.0683 C   0  0  0  0  0  0  0  0  0  0  0  0
   11.1114  -16.2655   17.8982 C   0  0  0  0  0  0  0  0  0  0  0  0
   11.4063  -15.7727   19.3196 C   0  0  0  0  0  0  0  0  0  0  0  0
   10.8208  -16.8868   20.1432 C   0  0  1  0  0  0  0  0  0  0  0  0
   10.5299  -16.3858   21.5089 C   0  0  0  0  0  0  0  0  0  0  0  0
   11.4724  -16.1263   22.3001 O   0  0  0  0  0  0  0  0  0  0  0  0
    9.2110  -16.1738   21.9948 N   0  0  0  0  0  0  0  0  0  0  0  0
    8.9033  -15.5685   23.2725 C   0  0  1  0  0  0  0  0  0  0  0  0
    7.6406  -14.7326   23.2091 C   0  0  0  0  0  0  0  0  0  0  0  0
    7.4308  -13.9461   24.4397 C   0  0  0  0  0  0  0  0  0  0  0  0
    6.6092  -14.4442   25.4288 C   0  0  0  0  0  0  0  0  0  0  0  0
    6.3810  -13.7464   26.5987 C   0  0  0  0  0  0  0  0  0  0  0  0
    6.9676  -12.5204   26.8243 C   0  0  0  0  0  0  0  0  0  0  0  0
    7.7933  -12.0079   25.8428 C   0  0  0  0  0  0  0  0  0  0  0  0
    8.0148  -12.7194   24.6708 C   0  0  0  0  0  0  0  0  0  0  0  0
    8.6521  -16.6463   24.2536 C   0  0  0  0  0  0  0  0  0  0  0  0
    8.0717  -17.6862   23.8668 O   0  0  0  0  0  0  0  0  0  0  0  0
    9.0313  -16.5745   25.6179 N   0  0  0  0  0  0  0  0  0  0  0  0
    9.1141  -17.7538   26.4934 C   0  0  1  0  0  0  0  0  0  0  0  0
    9.6180  -17.3819   27.8430 C   0  0  0  0  0  0  0  0  0  0  0  0
    9.8213  -15.9289   27.9456 C   0  0  0  0  0  0  0  0  0  0  0  0
    8.8435  -15.1371   28.5218 C   0  0  0  0  0  0  0  0  0  0  0  0
    9.0359  -13.7802   28.6458 C   0  0  0  0  0  0  0  0  0  0  0  0
   10.1883  -13.1601   28.2104 C   0  0  0  0  0  0  0  0  0  0  0  0
   11.1610  -13.9286   27.6403 C   0  0  0  0  0  0  0  0  0  0  0  0
   10.9621  -15.3031   27.5167 C   0  0  0  0  0  0  0  0  0  0  0  0
    7.7739  -18.3508   26.5811 C   0  0  0  0  0  0  0  0  0  0  0  0
    6.7252  -17.7601   25.8745 O   0  0  0  0  0  0  0  0  0  0  0  0
    7.5560  -19.3661   27.2682 O   0  0  0  0  0  0  0  0  0  0  0  0
  1  5  1  0
  2  1  1  0
  2  3  1  0
  3  4  1  0
  5  6  1  1
  5  4  1  0
  6  7  2  0
  8  9  1  0
  8  6  1  0
 10 11  1  0
  9 10  1  6
 11 16  2  0
 12 13  2  0
 12 11  1  0
 13 14  1  0
 14 15  2  0
 16 15  1  0
 17 18  2  0
 17  9  1  0
 19 17  1  0
 20 19  1  0
 20 28  1  0
 20 21  1  1
 22 21  1  0
 23 22  2  0
 24 23  1  0
 25 24  2  0
 25 26  1  0
 26 27  2  0
 27 22  1  0
 28 29  1  0
 30 28  2  0
M  END
$$$$
