PFF.pdb
     RDKit          3D

 30 32  0  0  1  0  0  0  0  0999 V2000
    8.0087  -15.5020   18.3814 N   0  0  0  0  0  0  0  0  0  0  0  0
    7.8808  -15.0755   16.9986 C   0  0  0  0  0  0  0  0  0  0  0  0
    8.0491  -13.5748   17.0738 C   0  0  0  0  0  0  0  0  0  0  0  0
    8.6994  -13.3092   18.4364 C   0  0  0  0  0  0  0  0  0  0  0  0
    9.1005  -14.6998   18.8456 C   0  0  1  0  0  0  0  0  0  0  0  0
    9.2657  -14.7485   20.3191 C   0  0  0  0  0  0  0  0  0  0  0  0
   10.3327  -14.3445   20.8483 O   0  0  0  0  0  0  0  0  0  0  0  0
    8.2621  -15.2387   21.1983 N   0  0  0  0  0  0  0  0  0  0  0  0
    8.1978  -14.9301   22.6105 C   0  0  1  0  0  0  0  0  0  0  0  0
    6.7666  -14.8236   23.0980 C   0  0  0  0  0  0  0  0  0  0  0  0
    6.6761  -14.1823   24.4238 C   0  0  0  0  0  0  0  0  0  0  0  0
    6.8628  -12.8201   24.5301 C   0  0  0  0  0  0  0  0  0  0  0  0
    6.7882  -12.1730   25.7481 C   0  0  0  0  0  0  0  0  0  0  0  0
    6.5233  -12.8658   26.9091 C   0  0  0  0  0  0  0  0  0  0  0  0
    6.3340  -14.2310   26.8190 C   0  0  0  0  0  0  0  0  0  0  0  0
    6.4116  -14.8700   25.5883 C   0  0  0  0  0  0  0  0  0  0  0  0
    8.8225  -16.0404   23.3618 C   0  0  0  0  0  0  0  0  0  0  0  0
    8.6027  -17.2154   22.9890 O   0  0  0  0  0  0  0  0  0  0  0  0
    9.6627  -15.8551   24.4887 N   0  0  0  0  0  0  0  0  0  0  0  0
   10.4656  -16.9364   25.0805 C   0  0  1  0  0  0  0  0  0  0  0  0
   11.6242  -16.3884   25.8361 C   0  0  0  0  0  0  0  0  0  0  0  0
   11.1718  -15.5239   26.9366 C   0  0  0  0  0  0  0  0  0  0  0  0
   11.0460  -16.0447   28.2125 C   0  0  0  0  0  0  0  0  0  0  0  0
   10.6485  -15.2371   29.2535 C   0  0  0  0  0  0  0  0  0  0  0  0
   10.3632  -13.8995   29.0763 C   0  0  0  0  0  0  0  0  0  0  0  0
   10.4831  -13.3725   27.8235 C   0  0  0  0  0  0  0  0  0  0  0  0
   10.8862  -14.1941   26.7716 C   0  0  0  0  0  0  0  0  0  0  0  0
    9.5909  -17.7233   25.9614 C   0  0  0  0  0  0  0  0  0  0  0  0
    8.2506  -17.3540   26.0850 O   0  0  0  0  0  0  0  0  0  0  0  0
   10.0179  -18.7060   26.5957 O   0  0  0  0  0  0  0  0  0  0  0  0
  1  5  1  0
  2  1  1  0
  2  3  1  0
  3  4  1  0
  5  6  1  1
  5  4  1  0
  6  7  2  0
  8  9  1  0
  8  6  1  0
 10 11  1  0
  9 10  1  1
 11 16  2  0
 12 13  2  0
 12 11  1  0
 13 14  1  0
 14 15  2  0
 16 15  1  0
 17 18  2  0
 17  9  1  0
 19 17  1  0
 20 19  1  0
 20 28  1  0
 20 21  1  1
 22 21  1  0
 23 22  2  0
 24 23  1  0
 25 24  2  0
 25 26  1  0
 26 27  2  0
 27 22  1  0
 28 29  1  0
 30 28  2  0
M  END
$$$$
