PFF.pdb
     RDKit          3D

 30 32  0  0  1  0  0  0  0  0999 V2000
    8.3977  -18.0339   18.9309 N   0  0  0  0  0  0  0  0  0  0  0  0
    8.4054  -18.3042   17.5035 C   0  0  0  0  0  0  0  0  0  0  0  0
    8.7265  -16.9599   16.8903 C   0  0  0  0  0  0  0  0  0  0  0  0
    9.3117  -16.1237   18.0340 C   0  0  0  0  0  0  0  0  0  0  0  0
    9.5360  -17.1781   19.0828 C   0  0  1  0  0  0  0  0  0  0  0  0
    9.5995  -16.5353   20.4183 C   0  0  0  0  0  0  0  0  0  0  0  0
   10.6722  -16.0142   20.8175 O   0  0  0  0  0  0  0  0  0  0  0  0
    8.4890  -16.4694   21.3031 N   0  0  0  0  0  0  0  0  0  0  0  0
    8.4568  -15.6694   22.5084 C   0  0  1  0  0  0  0  0  0  0  0  0
    7.0642  -15.1466   22.7990 C   0  0  0  0  0  0  0  0  0  0  0  0
    7.0094  -14.3770   24.0567 C   0  0  0  0  0  0  0  0  0  0  0  0
    6.4476  -14.9518   25.1772 C   0  0  0  0  0  0  0  0  0  0  0  0
    6.3726  -14.2729   26.3777 C   0  0  0  0  0  0  0  0  0  0  0  0
    6.8582  -12.9897   26.5034 C   0  0  0  0  0  0  0  0  0  0  0  0
    7.4240  -12.4003   25.3898 C   0  0  0  0  0  0  0  0  0  0  0  0
    7.4934  -13.0934   24.1883 C   0  0  0  0  0  0  0  0  0  0  0  0
    8.8369  -16.5278   23.6511 C   0  0  0  0  0  0  0  0  0  0  0  0
    8.4518  -17.7193   23.6605 O   0  0  0  0  0  0  0  0  0  0  0  0
    9.6176  -16.0812   24.7471 N   0  0  0  0  0  0  0  0  0  0  0  0
   10.4667  -16.9763   25.5483 C   0  0  1  0  0  0  0  0  0  0  0  0
   11.4777  -16.2038   26.3194 C   0  0  0  0  0  0  0  0  0  0  0  0
   10.8288  -15.3363   27.3141 C   0  0  0  0  0  0  0  0  0  0  0  0
   10.3990  -14.0728   26.9480 C   0  0  0  0  0  0  0  0  0  0  0  0
    9.7674  -13.2641   27.8649 C   0  0  0  0  0  0  0  0  0  0  0  0
    9.5386  -13.6674   29.1637 C   0  0  0  0  0  0  0  0  0  0  0  0
    9.9570  -14.9108   29.5386 C   0  0  0  0  0  0  0  0  0  0  0  0
   10.5964  -15.7272   28.6065 C   0  0  0  0  0  0  0  0  0  0  0  0
    9.5958  -17.7444   26.4493 C   0  0  0  0  0  0  0  0  0  0  0  0
    8.2165  -17.5387   26.3912 O   0  0  0  0  0  0  0  0  0  0  0  0
   10.0598  -18.5694   27.2584 O   0  0  0  0  0  0  0  0  0  0  0  0
  1  5  1  0
  2  1  1  0
  2  3  1  0
  3  4  1  0
  5  6  1  1
  5  4  1  0
  6  7  2  0
  8  9  1  0
  8  6  1  0
 10 11  1  0
  9 10  1  1
 11 16  2  0
 12 13  2  0
 12 11  1  0
 13 14  1  0
 14 15  2  0
 16 15  1  0
 17 18  2  0
 17  9  1  0
 19 17  1  0
 20 19  1  0
 20 28  1  0
 20 21  1  1
 22 21  1  0
 23 22  2  0
 24 23  1  0
 25 24  2  0
 25 26  1  0
 26 27  2  0
 27 22  1  0
 28 29  1  0
 30 28  2  0
M  END
$$$$
