PFF.pdb
     RDKit          3D

 30 32  0  0  1  0  0  0  0  0999 V2000
    7.6326  -15.9964   19.7174 N   0  0  0  0  0  0  0  0  0  0  0  0
    7.3970  -15.9056   18.2868 C   0  0  0  0  0  0  0  0  0  0  0  0
    7.4651  -14.4206   18.0102 C   0  0  0  0  0  0  0  0  0  0  0  0
    8.1720  -13.8150   19.2283 C   0  0  0  0  0  0  0  0  0  0  0  0
    8.6909  -15.0510   19.9103 C   0  0  1  0  0  0  0  0  0  0  0  0
    8.9427  -14.7519   21.3414 C   0  0  0  0  0  0  0  0  0  0  0  0
   10.0191  -14.2037   21.6917 O   0  0  0  0  0  0  0  0  0  0  0  0
    8.0145  -15.0556   22.3742 N   0  0  0  0  0  0  0  0  0  0  0  0
    8.1512  -14.6133   23.7452 C   0  0  1  0  0  0  0  0  0  0  0  0
    6.8094  -14.2725   24.3622 C   0  0  0  0  0  0  0  0  0  0  0  0
    6.9517  -13.5890   25.6621 C   0  0  0  0  0  0  0  0  0  0  0  0
    6.9301  -12.2110   25.7074 C   0  0  0  0  0  0  0  0  0  0  0  0
    7.0594  -11.5245   26.8990 C   0  0  0  0  0  0  0  0  0  0  0  0
    7.2155  -12.1924   28.0939 C   0  0  0  0  0  0  0  0  0  0  0  0
    7.2391  -13.5731   28.0650 C   0  0  0  0  0  0  0  0  0  0  0  0
    7.1081  -14.2517   26.8603 C   0  0  0  0  0  0  0  0  0  0  0  0
    8.7169  -15.7237   24.5417 C   0  0  0  0  0  0  0  0  0  0  0  0
    8.1725  -16.8493   24.4730 O   0  0  0  0  0  0  0  0  0  0  0  0
    9.8480  -15.5914   25.3863 N   0  0  0  0  0  0  0  0  0  0  0  0
   10.3937  -16.7029   26.1806 C   0  0  1  0  0  0  0  0  0  0  0  0
   11.8329  -16.9220   25.8733 C   0  0  0  0  0  0  0  0  0  0  0  0
   12.0173  -17.3000   24.4641 C   0  0  0  0  0  0  0  0  0  0  0  0
   12.2816  -16.3237   23.5196 C   0  0  0  0  0  0  0  0  0  0  0  0
   12.4814  -16.6707   22.2030 C   0  0  0  0  0  0  0  0  0  0  0  0
   12.4285  -17.9802   21.7735 C   0  0  0  0  0  0  0  0  0  0  0  0
   12.1689  -18.9532   22.6940 C   0  0  0  0  0  0  0  0  0  0  0  0
   11.9671  -18.5975   24.0270 C   0  0  0  0  0  0  0  0  0  0  0  0
   10.2048  -16.3821   27.6025 C   0  0  0  0  0  0  0  0  0  0  0  0
   10.6078  -17.3116   28.5625 O   0  0  0  0  0  0  0  0  0  0  0  0
    9.6960  -15.3054   27.9661 O   0  0  0  0  0  0  0  0  0  0  0  0
  1  5  1  0
  2  1  1  0
  2  3  1  0
  3  4  1  0
  5  6  1  1
  5  4  1  0
  6  7  2  0
  8  9  1  0
  8  6  1  0
 10 11  1  0
  9 10  1  1
 11 16  2  0
 12 13  2  0
 12 11  1  0
 13 14  1  0
 14 15  2  0
 16 15  1  0
 17 18  2  0
 17  9  1  0
 19 17  1  0
 20 19  1  0
 20 28  1  0
 20 21  1  1
 22 21  1  0
 23 22  2  0
 24 23  1  0
 25 24  2  0
 25 26  1  0
 26 27  2  0
 27 22  1  0
 28 29  1  0
 30 28  2  0
M  END
$$$$
