PFF.pdb
     RDKit          3D

 30 32  0  0  1  0  0  0  0  0999 V2000
    7.0711  -15.9635   21.1271 N   0  0  0  0  0  0  0  0  0  0  0  0
    6.3914  -15.6875   19.8732 C   0  0  0  0  0  0  0  0  0  0  0  0
    6.6643  -14.2190   19.6381 C   0  0  0  0  0  0  0  0  0  0  0  0
    7.8479  -13.8771   20.5505 C   0  0  0  0  0  0  0  0  0  0  0  0
    8.3020  -15.2490   20.9676 C   0  0  1  0  0  0  0  0  0  0  0  0
    9.0764  -15.1465   22.2288 C   0  0  0  0  0  0  0  0  0  0  0  0
   10.2095  -14.6009   22.2311 O   0  0  0  0  0  0  0  0  0  0  0  0
    8.6031  -15.6418   23.4742 N   0  0  0  0  0  0  0  0  0  0  0  0
    9.3097  -15.4952   24.7284 C   0  0  1  0  0  0  0  0  0  0  0  0
    8.3775  -15.0989   25.8559 C   0  0  0  0  0  0  0  0  0  0  0  0
    9.1084  -14.7864   27.0990 C   0  0  0  0  0  0  0  0  0  0  0  0
    9.4422  -13.4776   27.3763 C   0  0  0  0  0  0  0  0  0  0  0  0
   10.1258  -13.1338   28.5262 C   0  0  0  0  0  0  0  0  0  0  0  0
   10.5024  -14.0889   29.4449 C   0  0  0  0  0  0  0  0  0  0  0  0
   10.1752  -15.4046   29.1813 C   0  0  0  0  0  0  0  0  0  0  0  0
    9.4876  -15.7374   28.0215 C   0  0  0  0  0  0  0  0  0  0  0  0
    9.8899  -16.8051   25.0955 C   0  0  0  0  0  0  0  0  0  0  0  0
    9.1221  -17.7855   25.2272 O   0  0  0  0  0  0  0  0  0  0  0  0
   11.2746  -17.0218   25.3097 N   0  0  0  0  0  0  0  0  0  0  0  0
   11.8403  -18.3362   25.6506 C   0  0  1  0  0  0  0  0  0  0  0  0
   13.0458  -18.6276   24.8287 C   0  0  0  0  0  0  0  0  0  0  0  0
   12.7515  -18.4822   23.3951 C   0  0  0  0  0  0  0  0  0  0  0  0
   12.1520  -19.5229   22.7076 C   0  0  0  0  0  0  0  0  0  0  0  0
   11.8491  -19.3864   21.3722 C   0  0  0  0  0  0  0  0  0  0  0  0
   12.1234  -18.2300   20.6724 C   0  0  0  0  0  0  0  0  0  0  0  0
   12.7143  -17.1957   21.3377 C   0  0  0  0  0  0  0  0  0  0  0  0
   13.0195  -17.3381   22.6908 C   0  0  0  0  0  0  0  0  0  0  0  0
   12.1715  -18.3318   27.0826 C   0  0  0  0  0  0  0  0  0  0  0  0
   11.9671  -17.1634   27.8182 O   0  0  0  0  0  0  0  0  0  0  0  0
   12.6278  -19.3422   27.6495 O   0  0  0  0  0  0  0  0  0  0  0  0
  1  5  1  0
  2  1  1  0
  2  3  1  0
  3  4  1  0
  5  6  1  1
  5  4  1  0
  6  7  2  0
  8  9  1  0
  8  6  1  0
 10 11  1  0
  9 10  1  1
 11 16  2  0
 12 13  2  0
 12 11  1  0
 13 14  1  0
 14 15  2  0
 16 15  1  0
 17 18  2  0
 17  9  1  0
 19 17  1  0
 20 19  1  0
 20 28  1  0
 20 21  1  6
 22 21  1  0
 23 22  2  0
 24 23  1  0
 25 24  2  0
 25 26  1  0
 26 27  2  0
 27 22  1  0
 28 29  1  0
 30 28  2  0
M  END
$$$$
