PFF.pdb
     RDKit          3D

 30 32  0  0  1  0  0  0  0  0999 V2000
    7.1188  -18.7755   21.1733 N   0  0  0  0  0  0  0  0  0  0  0  0
    6.3116  -19.6461   20.3360 C   0  0  0  0  0  0  0  0  0  0  0  0
    6.3120  -18.9476   18.9949 C   0  0  0  0  0  0  0  0  0  0  0  0
    7.4838  -17.9610   19.0538 C   0  0  0  0  0  0  0  0  0  0  0  0
    8.1946  -18.4243   20.2957 C   0  0  1  0  0  0  0  0  0  0  0  0
    9.0309  -17.3182   20.8232 C   0  0  0  0  0  0  0  0  0  0  0  0
   10.1032  -17.0066   20.2447 O   0  0  0  0  0  0  0  0  0  0  0  0
    8.6853  -16.5647   21.9778 N   0  0  0  0  0  0  0  0  0  0  0  0
    9.3924  -15.3813   22.4173 C   0  0  1  0  0  0  0  0  0  0  0  0
    8.4788  -14.1739   22.4866 C   0  0  0  0  0  0  0  0  0  0  0  0
    7.9068  -13.9848   23.8335 C   0  0  0  0  0  0  0  0  0  0  0  0
    8.0716  -12.7750   24.4744 C   0  0  0  0  0  0  0  0  0  0  0  0
    7.5554  -12.5485   25.7354 C   0  0  0  0  0  0  0  0  0  0  0  0
    6.8528  -13.5263   26.4050 C   0  0  0  0  0  0  0  0  0  0  0  0
    6.6793  -14.7438   25.7761 C   0  0  0  0  0  0  0  0  0  0  0  0
    7.2033  -14.9590   24.5080 C   0  0  0  0  0  0  0  0  0  0  0  0
    9.8927  -15.6165   23.7891 C   0  0  0  0  0  0  0  0  0  0  0  0
   10.7092  -14.8024   24.2776 O   0  0  0  0  0  0  0  0  0  0  0  0
    9.5015  -16.7169   24.5929 N   0  0  0  0  0  0  0  0  0  0  0  0
   10.2959  -17.2051   25.7308 C   0  0  1  0  0  0  0  0  0  0  0  0
    9.5214  -17.1189   26.9982 C   0  0  0  0  0  0  0  0  0  0  0  0
    9.7000  -15.8049   27.6343 C   0  0  0  0  0  0  0  0  0  0  0  0
    8.7762  -14.7999   27.4066 C   0  0  0  0  0  0  0  0  0  0  0  0
    8.9208  -13.5756   28.0181 C   0  0  0  0  0  0  0  0  0  0  0  0
    9.9713  -13.2999   28.8681 C   0  0  0  0  0  0  0  0  0  0  0  0
   10.8896  -14.2816   29.1018 C   0  0  0  0  0  0  0  0  0  0  0  0
   10.7393  -15.5207   28.4804 C   0  0  0  0  0  0  0  0  0  0  0  0
   10.6877  -18.5937   25.4501 C   0  0  0  0  0  0  0  0  0  0  0  0
   11.5486  -19.2434   26.3360 O   0  0  0  0  0  0  0  0  0  0  0  0
   10.2703  -19.1985   24.4449 O   0  0  0  0  0  0  0  0  0  0  0  0
  1  5  1  0
  2  1  1  0
  2  3  1  0
  3  4  1  0
  5  6  1  1
  5  4  1  0
  6  7  2  0
  8  9  1  0
  8  6  1  0
 10 11  1  0
  9 10  1  1
 11 16  2  0
 12 13  2  0
 12 11  1  0
 13 14  1  0
 14 15  2  0
 16 15  1  0
 17 18  2  0
 17  9  1  0
 19 17  1  0
 20 19  1  0
 20 28  1  0
 20 21  1  1
 22 21  1  0
 23 22  2  0
 24 23  1  0
 25 24  2  0
 25 26  1  0
 26 27  2  0
 27 22  1  0
 28 29  1  0
 30 28  2  0
M  END
$$$$
