PFF.pdb
     RDKit          3D

 30 32  0  0  1  0  0  0  0  0999 V2000
    8.4498  -17.8239   18.9546 N   0  0  0  0  0  0  0  0  0  0  0  0
    8.4922  -17.9929   17.5124 C   0  0  0  0  0  0  0  0  0  0  0  0
    8.7596  -16.5957   16.9999 C   0  0  0  0  0  0  0  0  0  0  0  0
    9.2875  -15.8159   18.2096 C   0  0  0  0  0  0  0  0  0  0  0  0
    9.5445  -16.9300   19.1868 C   0  0  1  0  0  0  0  0  0  0  0  0
    9.5572  -16.3802   20.5646 C   0  0  0  0  0  0  0  0  0  0  0  0
   10.5815  -15.7956   21.0013 O   0  0  0  0  0  0  0  0  0  0  0  0
    8.4494  -16.4756   21.4501 N   0  0  0  0  0  0  0  0  0  0  0  0
    8.3346  -15.7385   22.6899 C   0  0  1  0  0  0  0  0  0  0  0  0
    6.9003  -15.3414   22.9770 C   0  0  0  0  0  0  0  0  0  0  0  0
    6.7828  -14.5238   24.1996 C   0  0  0  0  0  0  0  0  0  0  0  0
    6.2924  -15.0988   25.3531 C   0  0  0  0  0  0  0  0  0  0  0  0
    6.1632  -14.3759   26.5229 C   0  0  0  0  0  0  0  0  0  0  0  0
    6.5207  -13.0467   26.5835 C   0  0  0  0  0  0  0  0  0  0  0  0
    7.0137  -12.4564   25.4363 C   0  0  0  0  0  0  0  0  0  0  0  0
    7.1387  -13.1941   24.2662 C   0  0  0  0  0  0  0  0  0  0  0  0
    8.7636  -16.6175   23.7993 C   0  0  0  0  0  0  0  0  0  0  0  0
    8.2890  -17.7743   23.8660 O   0  0  0  0  0  0  0  0  0  0  0  0
    9.6877  -16.2278   24.8015 N   0  0  0  0  0  0  0  0  0  0  0  0
   10.3947  -17.1890   25.6620 C   0  0  1  0  0  0  0  0  0  0  0  0
   11.6030  -16.5709   26.2716 C   0  0  0  0  0  0  0  0  0  0  0  0
   11.2338  -15.4468   27.1451 C   0  0  0  0  0  0  0  0  0  0  0  0
   11.1352  -15.6418   28.5116 C   0  0  0  0  0  0  0  0  0  0  0  0
   10.8159  -14.5900   29.3395 C   0  0  0  0  0  0  0  0  0  0  0  0
   10.5844  -13.3196   28.8552 C   0  0  0  0  0  0  0  0  0  0  0  0
   10.6783  -13.1127   27.5098 C   0  0  0  0  0  0  0  0  0  0  0  0
   11.0022  -14.1811   26.6745 C   0  0  0  0  0  0  0  0  0  0  0  0
    9.4592  -17.6445   26.7001 C   0  0  0  0  0  0  0  0  0  0  0  0
    9.8607  -18.6581   27.5715 O   0  0  0  0  0  0  0  0  0  0  0  0
    8.3233  -17.1482   26.8175 O   0  0  0  0  0  0  0  0  0  0  0  0
  1  5  1  0
  2  1  1  0
  2  3  1  0
  3  4  1  0
  5  6  1  1
  5  4  1  0
  6  7  2  0
  8  9  1  0
  8  6  1  0
 10 11  1  0
  9 10  1  1
 11 16  2  0
 12 13  2  0
 12 11  1  0
 13 14  1  0
 14 15  2  0
 16 15  1  0
 17 18  2  0
 17  9  1  0
 19 17  1  0
 20 19  1  0
 20 28  1  0
 20 21  1  1
 22 21  1  0
 23 22  2  0
 24 23  1  0
 25 24  2  0
 25 26  1  0
 26 27  2  0
 27 22  1  0
 28 29  1  0
 30 28  2  0
M  END
$$$$
