PQW.pdb
     RDKit          3D

 31 33  0  0  1  0  0  0  0  0999 V2000
    7.4670  -14.7813   19.4346 N   0  0  0  0  0  0  0  0  0  0  0  0
    6.9104  -13.4391   19.1547 C   0  0  0  0  0  0  0  0  0  0  0  0
    8.1787  -12.6226   19.2924 C   0  0  0  0  0  0  0  0  0  0  0  0
    9.1387  -13.4181   18.4435 C   0  0  0  0  0  0  0  0  0  0  0  0
    8.6817  -14.8369   18.6812 C   0  0  1  0  0  0  0  0  0  0  0  0
    9.7801  -15.5912   19.3090 C   0  0  0  0  0  0  0  0  0  0  0  0
   10.4728  -16.4128   18.6120 O   0  0  0  0  0  0  0  0  0  0  0  0
   14.8737  -15.2956   19.1740 N   0  0  0  0  0  0  0  0  0  0  0  0
   13.6773  -14.5281   19.1458 C   0  0  0  0  0  0  0  0  0  0  0  0
   13.4393  -13.8352   18.1551 O   0  0  0  0  0  0  0  0  0  0  0  0
   12.7757  -14.6015   20.3098 C   0  0  0  0  0  0  0  0  0  0  0  0
   12.5679  -16.0028   20.7294 C   0  0  0  0  0  0  0  0  0  0  0  0
   11.2133  -16.3601   21.2438 C   0  0  2  0  0  0  0  0  0  0  0  0
   10.1709  -15.5003   20.6712 N   0  0  0  0  0  0  0  0  0  0  0  0
   11.2001  -16.1062   22.7166 C   0  0  0  0  0  0  0  0  0  0  0  0
   11.9412  -15.2057   23.1760 O   0  0  0  0  0  0  0  0  0  0  0  0
   10.4094  -16.8123   23.6258 N   0  0  0  0  0  0  0  0  0  0  0  0
   10.2395  -16.4184   25.0444 C   0  0  1  0  0  0  0  0  0  0  0  0
    9.9051  -14.9763   25.0796 C   0  0  0  0  0  0  0  0  0  0  0  0
    8.5062  -14.6212   25.3596 C   0  0  0  0  0  0  0  0  0  0  0  0
    7.4100  -15.4767   25.1779 C   0  0  0  0  0  0  0  0  0  0  0  0
    6.2758  -14.8357   25.4956 N   0  0  0  0  0  0  0  0  0  0  0  0
    6.6184  -13.6027   25.8733 C   0  0  0  0  0  0  0  0  0  0  0  0
    5.8406  -12.5367   26.3146 C   0  0  0  0  0  0  0  0  0  0  0  0
    6.4278  -11.3514   26.6689 C   0  0  0  0  0  0  0  0  0  0  0  0
    7.7879  -11.1573   26.6085 C   0  0  0  0  0  0  0  0  0  0  0  0
    8.5495  -12.2094   26.1729 C   0  0  0  0  0  0  0  0  0  0  0  0
    7.9748  -13.4110   25.8111 C   0  0  0  0  0  0  0  0  0  0  0  0
    9.2751  -17.3612   25.6210 C   0  0  0  0  0  0  0  0  0  0  0  0
    8.5598  -18.1269   24.8769 O   0  0  0  0  0  0  0  0  0  0  0  0
    9.0312  -17.5373   26.9781 O   0  0  0  0  0  0  0  0  0  0  0  0
  1  5  1  0
  2  1  1  0
  2  3  1  0
  3  4  1  0
  5  4  1  0
  6  7  2  0
  5  6  1  1
  8  9  1  0
  9 11  1  0
 10  9  2  0
 11 12  1  0
 13 12  1  6
 13 14  1  0
 14  6  1  0
 15 17  1  0
 15 13  1  0
 16 15  2  0
 18 17  1  0
 18 29  1  0
 18 19  1  6
 20 28  1  0
 20 19  1  0
 21 20  2  0
 22 21  1  0
 22 23  1  0
 23 28  2  0
 24 23  1  0
 24 25  2  0
 25 26  1  0
 27 26  2  0
 28 27  1  0
 29 31  1  0
 30 29  2  0
M  END
$$$$
