PQW.pdb
     RDKit          3D

 31 33  0  0  1  0  0  0  0  0999 V2000
    9.3175  -14.5092   18.2982 N   0  0  0  0  0  0  0  0  0  0  0  0
    8.7798  -13.6349   17.2324 C   0  0  0  0  0  0  0  0  0  0  0  0
    7.4133  -13.3539   17.8225 C   0  0  0  0  0  0  0  0  0  0  0  0
    7.7726  -12.9701   19.2362 C   0  0  0  0  0  0  0  0  0  0  0  0
    8.9610  -13.8563   19.5201 C   0  0  1  0  0  0  0  0  0  0  0  0
    8.6289  -14.7523   20.6411 C   0  0  0  0  0  0  0  0  0  0  0  0
    8.2154  -14.2635   21.7505 O   0  0  0  0  0  0  0  0  0  0  0  0
    7.9525  -21.0405   21.3017 N   0  0  0  0  0  0  0  0  0  0  0  0
    8.0396  -20.3292   20.0738 C   0  0  0  0  0  0  0  0  0  0  0  0
    7.8014  -20.9271   19.0230 O   0  0  0  0  0  0  0  0  0  0  0  0
    8.4114  -18.9035   20.1201 C   0  0  0  0  0  0  0  0  0  0  0  0
    8.5739  -18.4451   21.5151 C   0  0  0  0  0  0  0  0  0  0  0  0
    8.3548  -16.9926   21.7788 C   0  0  2  0  0  0  0  0  0  0  0  0
    8.7237  -16.1690   20.6214 N   0  0  0  0  0  0  0  0  0  0  0  0
    9.2691  -16.5847   22.8885 C   0  0  0  0  0  0  0  0  0  0  0  0
   10.1768  -15.7560   22.6430 O   0  0  0  0  0  0  0  0  0  0  0  0
    9.1796  -17.0700   24.1950 N   0  0  0  0  0  0  0  0  0  0  0  0
    9.9809  -16.5404   25.3238 C   0  0  1  0  0  0  0  0  0  0  0  0
    9.6374  -15.1101   25.4943 C   0  0  0  0  0  0  0  0  0  0  0  0
    8.2359  -14.7916   25.8036 C   0  0  0  0  0  0  0  0  0  0  0  0
    7.1597  -15.6775   25.6507 C   0  0  0  0  0  0  0  0  0  0  0  0
    6.0157  -15.0658   25.9904 N   0  0  0  0  0  0  0  0  0  0  0  0
    6.3328  -13.8218   26.3541 C   0  0  0  0  0  0  0  0  0  0  0  0
    5.5362  -12.7748   26.8071 C   0  0  0  0  0  0  0  0  0  0  0  0
    6.0986  -11.5720   27.1423 C   0  0  0  0  0  0  0  0  0  0  0  0
    7.4512  -11.3414   27.0506 C   0  0  0  0  0  0  0  0  0  0  0  0
    8.2314  -12.3749   26.6035 C   0  0  0  0  0  0  0  0  0  0  0  0
    7.6818  -13.5937   26.2607 C   0  0  0  0  0  0  0  0  0  0  0  0
    9.7448  -17.4429   26.4556 C   0  0  0  0  0  0  0  0  0  0  0  0
    8.8502  -18.3640   26.4028 O   0  0  0  0  0  0  0  0  0  0  0  0
   10.4300  -17.4174   27.6648 O   0  0  0  0  0  0  0  0  0  0  0  0
  1  5  1  0
  2  1  1  0
  2  3  1  0
  3  4  1  0
  5  4  1  0
  6  7  2  0
  5  6  1  1
  8  9  1  0
  9 11  1  0
 10  9  2  0
 11 12  1  0
 13 12  1  6
 13 14  1  0
 14  6  1  0
 15 17  1  0
 15 13  1  0
 16 15  2  0
 18 17  1  0
 18 29  1  0
 18 19  1  1
 20 28  1  0
 20 19  1  0
 21 20  2  0
 22 21  1  0
 22 23  1  0
 23 28  2  0
 24 23  1  0
 24 25  2  0
 25 26  1  0
 27 26  2  0
 28 27  1  0
 29 31  1  0
 30 29  2  0
M  END
$$$$
