PQW.pdb
     RDKit          3D

 31 33  0  0  1  0  0  0  0  0999 V2000
    9.2019  -14.2304   19.0147 N   0  0  0  0  0  0  0  0  0  0  0  0
    8.3478  -13.3933   18.1434 C   0  0  0  0  0  0  0  0  0  0  0  0
    7.0573  -13.4685   18.9329 C   0  0  0  0  0  0  0  0  0  0  0  0
    7.5417  -13.1538   20.3261 C   0  0  0  0  0  0  0  0  0  0  0  0
    8.9110  -13.7887   20.3438 C   0  0  1  0  0  0  0  0  0  0  0  0
    8.9352  -14.8380   21.3773 C   0  0  0  0  0  0  0  0  0  0  0  0
    8.0064  -14.8909   22.2578 O   0  0  0  0  0  0  0  0  0  0  0  0
   11.3864  -21.0061   21.2546 N   0  0  0  0  0  0  0  0  0  0  0  0
   11.5933  -19.7630   20.5963 C   0  0  0  0  0  0  0  0  0  0  0  0
   12.5967  -19.6220   19.8952 O   0  0  0  0  0  0  0  0  0  0  0  0
   10.5902  -18.6996   20.7859 C   0  0  0  0  0  0  0  0  0  0  0  0
   10.7231  -18.0800   22.1205 C   0  0  0  0  0  0  0  0  0  0  0  0
    9.7844  -16.9660   22.4446 C   0  0  2  0  0  0  0  0  0  0  0  0
    9.9274  -15.8455   21.5076 N   0  0  0  0  0  0  0  0  0  0  0  0
   10.1530  -16.4324   23.7911 C   0  0  0  0  0  0  0  0  0  0  0  0
   11.0513  -15.5613   23.8651 O   0  0  0  0  0  0  0  0  0  0  0  0
    9.5581  -16.8435   24.9859 N   0  0  0  0  0  0  0  0  0  0  0  0
    9.9620  -16.3393   26.3198 C   0  0  1  0  0  0  0  0  0  0  0  0
    8.7353  -16.1619   27.1301 C   0  0  0  0  0  0  0  0  0  0  0  0
    7.6506  -15.3673   26.5355 C   0  0  0  0  0  0  0  0  0  0  0  0
    6.5573  -15.8992   25.8368 C   0  0  0  0  0  0  0  0  0  0  0  0
    5.7707  -14.9052   25.3992 N   0  0  0  0  0  0  0  0  0  0  0  0
    6.3300  -13.7617   25.7989 C   0  0  0  0  0  0  0  0  0  0  0  0
    5.9241  -12.4416   25.6288 C   0  0  0  0  0  0  0  0  0  0  0  0
    6.6660  -11.4165   26.1523 C   0  0  0  0  0  0  0  0  0  0  0  0
    7.8260  -11.6338   26.8583 C   0  0  0  0  0  0  0  0  0  0  0  0
    8.2219  -12.9349   27.0226 C   0  0  0  0  0  0  0  0  0  0  0  0
    7.4870  -13.9806   26.5016 C   0  0  0  0  0  0  0  0  0  0  0  0
   10.9856  -17.2646   26.8172 C   0  0  0  0  0  0  0  0  0  0  0  0
   11.2658  -18.3524   26.1928 O   0  0  0  0  0  0  0  0  0  0  0  0
   11.7454  -17.0851   27.9673 O   0  0  0  0  0  0  0  0  0  0  0  0
  1  5  1  0
  2  1  1  0
  2  3  1  0
  3  4  1  0
  5  4  1  0
  6  7  2  0
  5  6  1  1
  8  9  1  0
  9 11  1  0
 10  9  2  0
 11 12  1  0
 13 12  1  6
 13 14  1  0
 14  6  1  0
 15 17  1  0
 15 13  1  0
 16 15  2  0
 18 17  1  0
 18 29  1  0
 18 19  1  1
 20 28  1  0
 20 19  1  0
 21 20  2  0
 22 21  1  0
 22 23  1  0
 23 28  2  0
 24 23  1  0
 24 25  2  0
 25 26  1  0
 27 26  2  0
 28 27  1  0
 29 31  1  0
 30 29  2  0
M  END
$$$$
