PQW.pdb
     RDKit          3D

 31 33  0  0  1  0  0  0  0  0999 V2000
    9.2856  -14.0531   18.7501 N   0  0  0  0  0  0  0  0  0  0  0  0
    8.6234  -13.2502   17.6983 C   0  0  0  0  0  0  0  0  0  0  0  0
    7.1794  -13.5430   18.0498 C   0  0  0  0  0  0  0  0  0  0  0  0
    7.1786  -13.2941   19.5373 C   0  0  0  0  0  0  0  0  0  0  0  0
    8.5540  -13.7637   19.9448 C   0  0  1  0  0  0  0  0  0  0  0  0
    8.4130  -14.8875   20.8866 C   0  0  0  0  0  0  0  0  0  0  0  0
    7.6684  -14.7657   21.9217 O   0  0  0  0  0  0  0  0  0  0  0  0
   10.6623  -20.7220   20.4212 N   0  0  0  0  0  0  0  0  0  0  0  0
    9.9972  -20.8437   21.6719 C   0  0  0  0  0  0  0  0  0  0  0  0
    9.9513  -21.9487   22.2151 O   0  0  0  0  0  0  0  0  0  0  0  0
    9.3936  -19.6342   22.2599 C   0  0  0  0  0  0  0  0  0  0  0  0
    9.5574  -18.4723   21.3621 C   0  0  0  0  0  0  0  0  0  0  0  0
    8.9219  -17.1920   21.7914 C   0  0  2  0  0  0  0  0  0  0  0  0
    9.0463  -16.1525   20.7630 N   0  0  0  0  0  0  0  0  0  0  0  0
    9.6664  -16.6879   22.9853 C   0  0  0  0  0  0  0  0  0  0  0  0
   10.5354  -15.8002   22.8186 O   0  0  0  0  0  0  0  0  0  0  0  0
    9.4573  -17.1444   24.2885 N   0  0  0  0  0  0  0  0  0  0  0  0
   10.0646  -16.5158   25.4855 C   0  0  1  0  0  0  0  0  0  0  0  0
    9.7418  -15.0709   25.4542 C   0  0  0  0  0  0  0  0  0  0  0  0
    8.3257  -14.6993   25.5875 C   0  0  0  0  0  0  0  0  0  0  0  0
    7.2452  -15.5650   25.3647 C   0  0  0  0  0  0  0  0  0  0  0  0
    6.0909  -14.9056   25.5408 N   0  0  0  0  0  0  0  0  0  0  0  0
    6.4055  -13.6510   25.8685 C   0  0  0  0  0  0  0  0  0  0  0  0
    5.5976  -12.5595   26.1718 C   0  0  0  0  0  0  0  0  0  0  0  0
    6.1578  -11.3539   26.5008 C   0  0  0  0  0  0  0  0  0  0  0  0
    7.5189  -11.1636   26.5476 C   0  0  0  0  0  0  0  0  0  0  0  0
    8.3102  -12.2408   26.2478 C   0  0  0  0  0  0  0  0  0  0  0  0
    7.7631  -13.4631   25.9135 C   0  0  0  0  0  0  0  0  0  0  0  0
    9.6053  -17.2970   26.6388 C   0  0  0  0  0  0  0  0  0  0  0  0
    8.6781  -18.1795   26.5239 O   0  0  0  0  0  0  0  0  0  0  0  0
   10.0962  -17.1877   27.9347 O   0  0  0  0  0  0  0  0  0  0  0  0
  1  5  1  0
  2  1  1  0
  2  3  1  0
  3  4  1  0
  5  4  1  0
  6  7  2  0
  5  6  1  1
  8  9  1  0
  9 11  1  0
 10  9  2  0
 11 12  1  0
 13 12  1  6
 13 14  1  0
 14  6  1  0
 15 17  1  0
 15 13  1  0
 16 15  2  0
 18 17  1  0
 18 29  1  0
 18 19  1  1
 20 28  1  0
 20 19  1  0
 21 20  2  0
 22 21  1  0
 22 23  1  0
 23 28  2  0
 24 23  1  0
 24 25  2  0
 25 26  1  0
 27 26  2  0
 28 27  1  0
 29 31  1  0
 30 29  2  0
M  END
$$$$
