PQW.pdb
     RDKit          3D

 31 33  0  0  1  0  0  0  0  0999 V2000
    7.7064  -14.1196   20.9046 N   0  0  0  0  0  0  0  0  0  0  0  0
    7.0540  -13.2100   19.9370 C   0  0  0  0  0  0  0  0  0  0  0  0
    8.0329  -13.3429   18.7888 C   0  0  0  0  0  0  0  0  0  0  0  0
    8.1777  -14.8412   18.6928 C   0  0  0  0  0  0  0  0  0  0  0  0
    8.0702  -15.2699   20.1360 C   0  0  1  0  0  0  0  0  0  0  0  0
    9.3298  -15.9221   20.5333 C   0  0  0  0  0  0  0  0  0  0  0  0
    9.6875  -17.0178   19.9743 O   0  0  0  0  0  0  0  0  0  0  0  0
   15.1685  -14.3687   21.2151 N   0  0  0  0  0  0  0  0  0  0  0  0
   14.4271  -14.5947   20.0232 C   0  0  0  0  0  0  0  0  0  0  0  0
   14.9224  -14.2649   18.9442 O   0  0  0  0  0  0  0  0  0  0  0  0
   13.0960  -15.2173   20.1390 C   0  0  0  0  0  0  0  0  0  0  0  0
   12.6793  -15.3141   21.5531 C   0  0  0  0  0  0  0  0  0  0  0  0
   11.4770  -16.1478   21.8476 C   0  0  2  0  0  0  0  0  0  0  0  0
   10.2331  -15.4421   21.5183 N   0  0  0  0  0  0  0  0  0  0  0  0
   11.4388  -16.3936   23.3213 C   0  0  0  0  0  0  0  0  0  0  0  0
   12.3616  -17.0640   23.8410 O   0  0  0  0  0  0  0  0  0  0  0  0
   10.4332  -15.9220   24.1679 N   0  0  0  0  0  0  0  0  0  0  0  0
   10.4535  -16.0915   25.6401 C   0  0  1  0  0  0  0  0  0  0  0  0
    9.9198  -14.8514   26.2486 C   0  0  0  0  0  0  0  0  0  0  0  0
    8.4772  -14.6051   26.1080 C   0  0  0  0  0  0  0  0  0  0  0  0
    7.5385  -15.5579   25.6870 C   0  0  0  0  0  0  0  0  0  0  0  0
    6.3188  -15.0029   25.6370 N   0  0  0  0  0  0  0  0  0  0  0  0
    6.4548  -13.7300   26.0135 C   0  0  0  0  0  0  0  0  0  0  0  0
    5.5120  -12.7162   26.1527 C   0  0  0  0  0  0  0  0  0  0  0  0
    5.8921  -11.4710   26.5774 C   0  0  0  0  0  0  0  0  0  0  0  0
    7.1976  -11.1645   26.8821 C   0  0  0  0  0  0  0  0  0  0  0  0
    8.1223  -12.1656   26.7430 C   0  0  0  0  0  0  0  0  0  0  0  0
    7.7574  -13.4263   26.3157 C   0  0  0  0  0  0  0  0  0  0  0  0
    9.7535  -17.3498   25.9196 C   0  0  0  0  0  0  0  0  0  0  0  0
    9.6494  -17.8072   27.1161 O   0  0  0  0  0  0  0  0  0  0  0  0
    9.1418  -18.1609   24.9709 O   0  0  0  0  0  0  0  0  0  0  0  0
  1  5  1  0
  2  1  1  0
  2  3  1  0
  3  4  1  0
  5  4  1  0
  6  7  2  0
  5  6  1  1
  8  9  1  0
  9 11  1  0
 10  9  2  0
 11 12  1  0
 13 12  1  1
 13 14  1  0
 14  6  1  0
 15 17  1  0
 15 13  1  0
 16 15  2  0
 18 17  1  0
 18 29  1  0
 18 19  1  1
 20 28  1  0
 20 19  1  0
 21 20  2  0
 22 21  1  0
 22 23  1  0
 23 28  2  0
 24 23  1  0
 24 25  2  0
 25 26  1  0
 27 26  2  0
 28 27  1  0
 29 31  1  0
 30 29  2  0
M  END
$$$$
