PQW.pdb
     RDKit          3D

 31 33  0  0  1  0  0  0  0  0999 V2000
    9.2458  -14.1099   18.5126 N   0  0  0  0  0  0  0  0  0  0  0  0
    8.4654  -13.2941   17.5562 C   0  0  0  0  0  0  0  0  0  0  0  0
    7.0877  -13.4740   18.1594 C   0  0  0  0  0  0  0  0  0  0  0  0
    7.3590  -13.1816   19.6140 C   0  0  0  0  0  0  0  0  0  0  0  0
    8.7510  -13.7344   19.8011 C   0  0  1  0  0  0  0  0  0  0  0  0
    8.7024  -14.8171   20.7988 C   0  0  0  0  0  0  0  0  0  0  0  0
    7.9948  -14.6804   21.8578 O   0  0  0  0  0  0  0  0  0  0  0  0
    9.8062  -21.0386   21.0880 N   0  0  0  0  0  0  0  0  0  0  0  0
    9.6094  -20.3194   19.8775 C   0  0  0  0  0  0  0  0  0  0  0  0
    9.3938  -20.9494   18.8407 O   0  0  0  0  0  0  0  0  0  0  0  0
    9.6722  -18.8474   19.9244 C   0  0  0  0  0  0  0  0  0  0  0  0
    9.9191  -18.3728   21.3016 C   0  0  0  0  0  0  0  0  0  0  0  0
    9.2358  -17.1118   21.7142 C   0  0  2  0  0  0  0  0  0  0  0  0
    9.3905  -16.0558   20.7069 N   0  0  0  0  0  0  0  0  0  0  0  0
    9.9079  -16.6093   22.9510 C   0  0  0  0  0  0  0  0  0  0  0  0
   10.7539  -15.6910   22.8422 O   0  0  0  0  0  0  0  0  0  0  0  0
    9.6545  -17.0995   24.2340 N   0  0  0  0  0  0  0  0  0  0  0  0
   10.2118  -16.4963   25.4677 C   0  0  1  0  0  0  0  0  0  0  0  0
    9.8354  -15.0642   25.4845 C   0  0  0  0  0  0  0  0  0  0  0  0
    8.4164  -14.7486   25.7044 C   0  0  0  0  0  0  0  0  0  0  0  0
    7.3503  -15.6185   25.4341 C   0  0  0  0  0  0  0  0  0  0  0  0
    6.1874  -15.0133   25.7161 N   0  0  0  0  0  0  0  0  0  0  0  0
    6.4827  -13.7890   26.1568 C   0  0  0  0  0  0  0  0  0  0  0  0
    5.6598  -12.7567   26.5964 C   0  0  0  0  0  0  0  0  0  0  0  0
    6.2016  -11.5742   27.0248 C   0  0  0  0  0  0  0  0  0  0  0  0
    7.5583  -11.3505   27.0425 C   0  0  0  0  0  0  0  0  0  0  0  0
    8.3645  -12.3693   26.6082 C   0  0  0  0  0  0  0  0  0  0  0  0
    7.8359  -13.5676   26.1725 C   0  0  0  0  0  0  0  0  0  0  0  0
    9.7577  -17.3386   26.5794 C   0  0  0  0  0  0  0  0  0  0  0  0
    8.9353  -18.3083   26.3928 O   0  0  0  0  0  0  0  0  0  0  0  0
   10.1462  -17.2012   27.9070 O   0  0  0  0  0  0  0  0  0  0  0  0
  1  5  1  0
  2  1  1  0
  2  3  1  0
  3  4  1  0
  5  4  1  0
  6  7  2  0
  5  6  1  1
  8  9  1  0
  9 11  1  0
 10  9  2  0
 11 12  1  0
 13 12  1  6
 13 14  1  0
 14  6  1  0
 15 17  1  0
 15 13  1  0
 16 15  2  0
 18 17  1  0
 18 29  1  0
 18 19  1  1
 20 28  1  0
 20 19  1  0
 21 20  2  0
 22 21  1  0
 22 23  1  0
 23 28  2  0
 24 23  1  0
 24 25  2  0
 25 26  1  0
 27 26  2  0
 28 27  1  0
 29 31  1  0
 30 29  2  0
M  END
$$$$
