PQW.pdb
     RDKit          3D

 31 33  0  0  1  0  0  0  0  0999 V2000
    9.4270  -13.9196   19.5839 N   0  0  0  0  0  0  0  0  0  0  0  0
    8.9742  -13.1330   18.4153 C   0  0  0  0  0  0  0  0  0  0  0  0
    7.5479  -13.6355   18.3291 C   0  0  0  0  0  0  0  0  0  0  0  0
    7.0973  -13.5004   19.7621 C   0  0  0  0  0  0  0  0  0  0  0  0
    8.3581  -13.8171   20.5291 C   0  0  1  0  0  0  0  0  0  0  0  0
    8.1255  -15.0168   21.3516 C   0  0  0  0  0  0  0  0  0  0  0  0
    7.0816  -15.0943   22.0898 O   0  0  0  0  0  0  0  0  0  0  0  0
    9.7584  -20.9383   20.3234 N   0  0  0  0  0  0  0  0  0  0  0  0
    8.8923  -20.9187   21.4506 C   0  0  0  0  0  0  0  0  0  0  0  0
    8.0553  -21.8149   21.5722 O   0  0  0  0  0  0  0  0  0  0  0  0
    9.0410  -19.8215   22.4238 C   0  0  0  0  0  0  0  0  0  0  0  0
    9.3561  -18.5495   21.7415 C   0  0  0  0  0  0  0  0  0  0  0  0
    8.6497  -17.3285   22.2288 C   0  0  2  0  0  0  0  0  0  0  0  0
    8.9775  -16.1510   21.4165 N   0  0  0  0  0  0  0  0  0  0  0  0
    9.1428  -17.0331   23.6084 C   0  0  0  0  0  0  0  0  0  0  0  0
    9.0575  -17.9298   24.4800 O   0  0  0  0  0  0  0  0  0  0  0  0
    9.6980  -15.8118   23.9966 N   0  0  0  0  0  0  0  0  0  0  0  0
   10.2123  -15.5406   25.3599 C   0  0  1  0  0  0  0  0  0  0  0  0
    9.1368  -15.8643   26.3250 C   0  0  0  0  0  0  0  0  0  0  0  0
    7.8666  -15.1386   26.1785 C   0  0  0  0  0  0  0  0  0  0  0  0
    6.6637  -15.7088   25.7376 C   0  0  0  0  0  0  0  0  0  0  0  0
    5.7074  -14.7701   25.6875 N   0  0  0  0  0  0  0  0  0  0  0  0
    6.2656  -13.6245   26.0832 C   0  0  0  0  0  0  0  0  0  0  0  0
    5.7240  -12.3513   26.2307 C   0  0  0  0  0  0  0  0  0  0  0  0
    6.5016  -11.3156   26.6759 C   0  0  0  0  0  0  0  0  0  0  0  0
    7.8298  -11.4768   26.9935 C   0  0  0  0  0  0  0  0  0  0  0  0
    8.3587  -12.7319   26.8462 C   0  0  0  0  0  0  0  0  0  0  0  0
    7.5902  -13.7873   26.3983 C   0  0  0  0  0  0  0  0  0  0  0  0
   11.4799  -16.2696   25.4745 C   0  0  0  0  0  0  0  0  0  0  0  0
   12.1531  -16.2750   26.5692 O   0  0  0  0  0  0  0  0  0  0  0  0
   12.0778  -17.0126   24.4633 O   0  0  0  0  0  0  0  0  0  0  0  0
  1  5  1  0
  2  1  1  0
  2  3  1  0
  3  4  1  0
  5  4  1  0
  6  7  2  0
  5  6  1  6
  8  9  1  0
  9 11  1  0
 10  9  2  0
 11 12  1  0
 13 12  1  6
 13 14  1  0
 14  6  1  0
 15 17  1  0
 15 13  1  0
 16 15  2  0
 18 17  1  0
 18 29  1  0
 18 19  1  1
 20 28  1  0
 20 19  1  0
 21 20  2  0
 22 21  1  0
 22 23  1  0
 23 28  2  0
 24 23  1  0
 24 25  2  0
 25 26  1  0
 27 26  2  0
 28 27  1  0
 29 31  1  0
 30 29  2  0
M  END
$$$$
