PQW.pdb
     RDKit          3D

 31 33  0  0  1  0  0  0  0  0999 V2000
    9.2192  -13.6538   19.2639 N   0  0  0  0  0  0  0  0  0  0  0  0
    8.3493  -12.9849   18.2714 C   0  0  0  0  0  0  0  0  0  0  0  0
    7.0142  -13.5559   18.7025 C   0  0  0  0  0  0  0  0  0  0  0  0
    7.0592  -13.3261   20.1925 C   0  0  0  0  0  0  0  0  0  0  0  0
    8.5224  -13.5234   20.5064 C   0  0  1  0  0  0  0  0  0  0  0  0
    8.6610  -14.6621   21.4305 C   0  0  0  0  0  0  0  0  0  0  0  0
    7.9082  -14.7435   22.4636 O   0  0  0  0  0  0  0  0  0  0  0  0
   12.1579  -19.8113   20.6946 N   0  0  0  0  0  0  0  0  0  0  0  0
   11.3978  -20.2245   21.8227 C   0  0  0  0  0  0  0  0  0  0  0  0
   11.5616  -21.3630   22.2646 O   0  0  0  0  0  0  0  0  0  0  0  0
   10.4471  -19.2638   22.4112 C   0  0  0  0  0  0  0  0  0  0  0  0
   10.4811  -17.9763   21.6873 C   0  0  0  0  0  0  0  0  0  0  0  0
    9.5605  -16.9054   22.1701 C   0  0  2  0  0  0  0  0  0  0  0  0
    9.5859  -15.7306   21.2910 N   0  0  0  0  0  0  0  0  0  0  0  0
   10.0558  -16.4403   23.5013 C   0  0  0  0  0  0  0  0  0  0  0  0
   10.9407  -15.5532   23.5348 O   0  0  0  0  0  0  0  0  0  0  0  0
    9.5945  -16.9329   24.7240 N   0  0  0  0  0  0  0  0  0  0  0  0
   10.0130  -16.3898   26.0380 C   0  0  1  0  0  0  0  0  0  0  0  0
    8.8031  -16.2549   26.8811 C   0  0  0  0  0  0  0  0  0  0  0  0
    7.6913  -15.4643   26.3331 C   0  0  0  0  0  0  0  0  0  0  0  0
    6.5724  -16.0000   25.6794 C   0  0  0  0  0  0  0  0  0  0  0  0
    5.7640  -15.0090   25.2762 N   0  0  0  0  0  0  0  0  0  0  0  0
    6.3344  -13.8635   25.6542 C   0  0  0  0  0  0  0  0  0  0  0  0
    5.9161  -12.5451   25.5031 C   0  0  0  0  0  0  0  0  0  0  0  0
    6.6745  -11.5173   25.9970 C   0  0  0  0  0  0  0  0  0  0  0  0
    7.8636  -11.7305   26.6541 C   0  0  0  0  0  0  0  0  0  0  0  0
    8.2716  -13.0300   26.7999 C   0  0  0  0  0  0  0  0  0  0  0  0
    7.5204  -14.0783   26.3081 C   0  0  0  0  0  0  0  0  0  0  0  0
   11.0914  -17.2600   26.5188 C   0  0  0  0  0  0  0  0  0  0  0  0
   11.3715  -18.3675   25.9301 O   0  0  0  0  0  0  0  0  0  0  0  0
   11.9071  -17.0038   27.6148 O   0  0  0  0  0  0  0  0  0  0  0  0
  1  5  1  0
  2  1  1  0
  2  3  1  0
  3  4  1  0
  5  4  1  0
  6  7  2  0
  5  6  1  1
  8  9  1  0
  9 11  1  0
 10  9  2  0
 11 12  1  0
 13 12  1  6
 13 14  1  0
 14  6  1  0
 15 17  1  0
 15 13  1  0
 16 15  2  0
 18 17  1  0
 18 29  1  0
 18 19  1  1
 20 28  1  0
 20 19  1  0
 21 20  2  0
 22 21  1  0
 22 23  1  0
 23 28  2  0
 24 23  1  0
 24 25  2  0
 25 26  1  0
 27 26  2  0
 28 27  1  0
 29 31  1  0
 30 29  2  0
M  END
$$$$
