PQW.pdb
     RDKit          3D

 31 33  0  0  1  0  0  0  0  0999 V2000
    8.9925  -14.2768   18.3939 N   0  0  0  0  0  0  0  0  0  0  0  0
    8.2615  -13.3621   17.4892 C   0  0  0  0  0  0  0  0  0  0  0  0
    6.9547  -13.2702   18.2495 C   0  0  0  0  0  0  0  0  0  0  0  0
    7.4430  -12.9880   19.6483 C   0  0  0  0  0  0  0  0  0  0  0  0
    8.7274  -13.7786   19.7084 C   0  0  1  0  0  0  0  0  0  0  0  0
    8.6059  -14.8035   20.7594 C   0  0  0  0  0  0  0  0  0  0  0  0
    8.2608  -14.4660   21.9459 O   0  0  0  0  0  0  0  0  0  0  0  0
    9.7531  -20.9747   20.4643 N   0  0  0  0  0  0  0  0  0  0  0  0
    9.0563  -20.2487   19.4600 C   0  0  0  0  0  0  0  0  0  0  0  0
    8.8937  -20.7698   18.3552 O   0  0  0  0  0  0  0  0  0  0  0  0
    8.5593  -18.9015   19.7933 C   0  0  0  0  0  0  0  0  0  0  0  0
    8.8500  -18.5649   21.2022 C   0  0  0  0  0  0  0  0  0  0  0  0
    8.5442  -17.1716   21.6408 C   0  0  2  0  0  0  0  0  0  0  0  0
    8.8428  -16.1932   20.5885 N   0  0  0  0  0  0  0  0  0  0  0  0
    9.4479  -16.8419   22.7847 C   0  0  0  0  0  0  0  0  0  0  0  0
   10.5187  -16.2354   22.5467 O   0  0  0  0  0  0  0  0  0  0  0  0
    9.1772  -17.1677   24.1155 N   0  0  0  0  0  0  0  0  0  0  0  0
    9.9667  -16.6585   25.2619 C   0  0  1  0  0  0  0  0  0  0  0  0
    9.7679  -15.1930   25.3365 C   0  0  0  0  0  0  0  0  0  0  0  0
    8.3952  -14.7150   25.5572 C   0  0  0  0  0  0  0  0  0  0  0  0
    7.2431  -15.5068   25.4471 C   0  0  0  0  0  0  0  0  0  0  0  0
    6.1542  -14.7596   25.6803 N   0  0  0  0  0  0  0  0  0  0  0  0
    6.5797  -13.5209   25.9351 C   0  0  0  0  0  0  0  0  0  0  0  0
    5.8752  -12.3638   26.2531 C   0  0  0  0  0  0  0  0  0  0  0  0
    6.5415  -11.1918   26.4934 C   0  0  0  0  0  0  0  0  0  0  0  0
    7.9123  -11.0995   26.4342 C   0  0  0  0  0  0  0  0  0  0  0  0
    8.6015  -12.2410   26.1203 C   0  0  0  0  0  0  0  0  0  0  0  0
    7.9466  -13.4309   25.8745 C   0  0  0  0  0  0  0  0  0  0  0  0
    9.5741  -17.4646   26.4227 C   0  0  0  0  0  0  0  0  0  0  0  0
    8.6494  -18.3531   26.3396 O   0  0  0  0  0  0  0  0  0  0  0  0
   10.1307  -17.3744   27.6932 O   0  0  0  0  0  0  0  0  0  0  0  0
  1  5  1  0
  2  1  1  0
  2  3  1  0
  3  4  1  0
  5  4  1  0
  6  7  2  0
  5  6  1  1
  8  9  1  0
  9 11  1  0
 10  9  2  0
 11 12  1  0
 13 12  1  6
 13 14  1  0
 14  6  1  0
 15 17  1  0
 15 13  1  0
 16 15  2  0
 18 17  1  0
 18 29  1  0
 18 19  1  1
 20 28  1  0
 20 19  1  0
 21 20  2  0
 22 21  1  0
 22 23  1  0
 23 28  2  0
 24 23  1  0
 24 25  2  0
 25 26  1  0
 27 26  2  0
 28 27  1  0
 29 31  1  0
 30 29  2  0
M  END
$$$$
