PQW.pdb
     RDKit          3D

 31 33  0  0  1  0  0  0  0  0999 V2000
    9.0181  -15.5054   17.9965 N   0  0  0  0  0  0  0  0  0  0  0  0
    9.1301  -15.0594   16.5901 C   0  0  0  0  0  0  0  0  0  0  0  0
    8.1960  -13.8682   16.6436 C   0  0  0  0  0  0  0  0  0  0  0  0
    8.6902  -13.1573   17.8785 C   0  0  0  0  0  0  0  0  0  0  0  0
    9.1045  -14.3040   18.7682 C   0  0  1  0  0  0  0  0  0  0  0  0
    8.2828  -14.2783   19.9905 C   0  0  0  0  0  0  0  0  0  0  0  0
    8.1980  -13.2036   20.6824 O   0  0  0  0  0  0  0  0  0  0  0  0
    4.6359  -18.2132   20.1961 N   0  0  0  0  0  0  0  0  0  0  0  0
    5.7450  -18.6911   20.9463 C   0  0  0  0  0  0  0  0  0  0  0  0
    6.0845  -19.8689   20.8196 O   0  0  0  0  0  0  0  0  0  0  0  0
    6.4379  -17.7475   21.8421 C   0  0  0  0  0  0  0  0  0  0  0  0
    5.7726  -16.4284   21.8365 C   0  0  0  0  0  0  0  0  0  0  0  0
    6.6472  -15.2314   21.6653 C   0  0  2  0  0  0  0  0  0  0  0  0
    7.5392  -15.3716   20.5084 N   0  0  0  0  0  0  0  0  0  0  0  0
    7.5333  -15.1352   22.8651 C   0  0  0  0  0  0  0  0  0  0  0  0
    7.0661  -14.6383   23.9167 O   0  0  0  0  0  0  0  0  0  0  0  0
    8.8615  -15.5661   22.8940 N   0  0  0  0  0  0  0  0  0  0  0  0
    9.7452  -15.4223   24.0751 C   0  0  1  0  0  0  0  0  0  0  0  0
    9.0628  -16.0444   25.2327 C   0  0  0  0  0  0  0  0  0  0  0  0
    7.8428  -15.3862   25.7223 C   0  0  0  0  0  0  0  0  0  0  0  0
    6.5754  -15.9839   25.7755 C   0  0  0  0  0  0  0  0  0  0  0  0
    5.6772  -15.1041   26.2417 N   0  0  0  0  0  0  0  0  0  0  0  0
    6.3349  -13.9691   26.4860 C   0  0  0  0  0  0  0  0  0  0  0  0
    5.8912  -12.7504   26.9899 C   0  0  0  0  0  0  0  0  0  0  0  0
    6.7699  -11.7160   27.1730 C   0  0  0  0  0  0  0  0  0  0  0  0
    8.1078  -11.8259   26.8748 C   0  0  0  0  0  0  0  0  0  0  0  0
    8.5398  -13.0274   26.3785 C   0  0  0  0  0  0  0  0  0  0  0  0
    7.6685  -14.0805   26.1869 C   0  0  0  0  0  0  0  0  0  0  0  0
   11.0520  -15.9580   23.6794 C   0  0  0  0  0  0  0  0  0  0  0  0
   11.2014  -16.6235   22.5902 O   0  0  0  0  0  0  0  0  0  0  0  0
   12.2339  -15.8143   24.3968 O   0  0  0  0  0  0  0  0  0  0  0  0
  1  5  1  0
  2  1  1  0
  2  3  1  0
  3  4  1  0
  5  4  1  0
  6  7  2  0
  5  6  1  1
  8  9  1  0
  9 11  1  0
 10  9  2  0
 11 12  1  0
 13 12  1  1
 13 14  1  0
 14  6  1  0
 15 17  1  0
 15 13  1  0
 16 15  2  0
 18 17  1  0
 18 29  1  0
 18 19  1  1
 20 28  1  0
 20 19  1  0
 21 20  2  0
 22 21  1  0
 22 23  1  0
 23 28  2  0
 24 23  1  0
 24 25  2  0
 25 26  1  0
 27 26  2  0
 28 27  1  0
 29 31  1  0
 30 29  2  0
M  END
$$$$
