PQW.pdb
     RDKit          3D

 31 33  0  0  1  0  0  0  0  0999 V2000
    9.5630  -14.4109   18.2341 N   0  0  0  0  0  0  0  0  0  0  0  0
    9.0792  -13.5440   17.1369 C   0  0  0  0  0  0  0  0  0  0  0  0
    7.6213  -13.4470   17.5362 C   0  0  0  0  0  0  0  0  0  0  0  0
    7.7357  -13.1038   19.0004 C   0  0  0  0  0  0  0  0  0  0  0  0
    8.9685  -13.8687   19.4168 C   0  0  1  0  0  0  0  0  0  0  0  0
    8.5917  -14.8555   20.4434 C   0  0  0  0  0  0  0  0  0  0  0  0
    7.9644  -14.4780   21.4945 O   0  0  0  0  0  0  0  0  0  0  0  0
    9.1466  -21.0960   20.3226 N   0  0  0  0  0  0  0  0  0  0  0  0
    8.7016  -20.9483   21.6649 C   0  0  0  0  0  0  0  0  0  0  0  0
    8.4817  -21.9605   22.3324 O   0  0  0  0  0  0  0  0  0  0  0  0
    8.5261  -19.5837   22.1939 C   0  0  0  0  0  0  0  0  0  0  0  0
    8.8318  -18.5731   21.1604 C   0  0  0  0  0  0  0  0  0  0  0  0
    8.5604  -17.1475   21.5084 C   0  0  2  0  0  0  0  0  0  0  0  0
    8.8638  -16.2481   20.3890 N   0  0  0  0  0  0  0  0  0  0  0  0
    9.4866  -16.7612   22.6159 C   0  0  0  0  0  0  0  0  0  0  0  0
   10.6323  -16.3466   22.3216 O   0  0  0  0  0  0  0  0  0  0  0  0
    9.1585  -16.8320   23.9715 N   0  0  0  0  0  0  0  0  0  0  0  0
   10.0385  -16.3354   25.0558 C   0  0  1  0  0  0  0  0  0  0  0  0
    9.6379  -14.9439   25.3660 C   0  0  0  0  0  0  0  0  0  0  0  0
    8.2695  -14.7371   25.8620 C   0  0  0  0  0  0  0  0  0  0  0  0
    7.3039  -15.7452   25.9951 C   0  0  0  0  0  0  0  0  0  0  0  0
    6.1553  -15.2181   26.4435 N   0  0  0  0  0  0  0  0  0  0  0  0
    6.3627  -13.9092   26.5993 C   0  0  0  0  0  0  0  0  0  0  0  0
    5.5163  -12.9008   27.0497 C   0  0  0  0  0  0  0  0  0  0  0  0
    5.9651  -11.6102   27.1420 C   0  0  0  0  0  0  0  0  0  0  0  0
    7.2483  -11.2516   26.8017 C   0  0  0  0  0  0  0  0  0  0  0  0
    8.0777  -12.2476   26.3584 C   0  0  0  0  0  0  0  0  0  0  0  0
    7.6424  -13.5536   26.2584 C   0  0  0  0  0  0  0  0  0  0  0  0
    9.9642  -17.3277   26.1335 C   0  0  0  0  0  0  0  0  0  0  0  0
    9.1358  -18.3089   26.0848 O   0  0  0  0  0  0  0  0  0  0  0  0
   10.7465  -17.3312   27.2825 O   0  0  0  0  0  0  0  0  0  0  0  0
  1  5  1  0
  2  1  1  0
  2  3  1  0
  3  4  1  0
  5  4  1  0
  6  7  2  0
  5  6  1  1
  8  9  1  0
  9 11  1  0
 10  9  2  0
 11 12  1  0
 13 12  1  6
 13 14  1  0
 14  6  1  0
 15 17  1  0
 15 13  1  0
 16 15  2  0
 18 17  1  0
 18 29  1  0
 18 19  1  1
 20 28  1  0
 20 19  1  0
 21 20  2  0
 22 21  1  0
 22 23  1  0
 23 28  2  0
 24 23  1  0
 24 25  2  0
 25 26  1  0
 27 26  2  0
 28 27  1  0
 29 31  1  0
 30 29  2  0
M  END
$$$$
