PQW.pdb
     RDKit          3D

 31 33  0  0  1  0  0  0  0  0999 V2000
    9.2823  -14.2752   19.1044 N   0  0  0  0  0  0  0  0  0  0  0  0
    8.5812  -13.4958   18.0601 C   0  0  0  0  0  0  0  0  0  0  0  0
    7.1734  -13.5690   18.6141 C   0  0  0  0  0  0  0  0  0  0  0  0
    7.3999  -13.1852   20.0550 C   0  0  0  0  0  0  0  0  0  0  0  0
    8.7549  -13.7857   20.3407 C   0  0  1  0  0  0  0  0  0  0  0  0
    8.6140  -14.7903   21.4088 C   0  0  0  0  0  0  0  0  0  0  0  0
    7.9478  -14.5110   22.4666 O   0  0  0  0  0  0  0  0  0  0  0  0
   10.3943  -20.8821   21.6750 N   0  0  0  0  0  0  0  0  0  0  0  0
   10.8186  -19.8882   20.7511 C   0  0  0  0  0  0  0  0  0  0  0  0
   11.5571  -20.2181   19.8214 O   0  0  0  0  0  0  0  0  0  0  0  0
   10.3499  -18.5052   20.9524 C   0  0  0  0  0  0  0  0  0  0  0  0
    9.4659  -18.4137   22.1326 C   0  0  0  0  0  0  0  0  0  0  0  0
    8.9250  -17.0638   22.4684 C   0  0  2  0  0  0  0  0  0  0  0  0
    9.1656  -16.0987   21.3894 N   0  0  0  0  0  0  0  0  0  0  0  0
    9.6718  -16.5532   23.6581 C   0  0  0  0  0  0  0  0  0  0  0  0
   10.7613  -15.9618   23.4730 O   0  0  0  0  0  0  0  0  0  0  0  0
    9.2331  -16.6924   24.9767 N   0  0  0  0  0  0  0  0  0  0  0  0
   10.0435  -16.3064   26.1561 C   0  0  1  0  0  0  0  0  0  0  0  0
    9.2275  -15.3951   26.9906 C   0  0  0  0  0  0  0  0  0  0  0  0
    7.9865  -14.8766   26.3970 C   0  0  0  0  0  0  0  0  0  0  0  0
    6.9682  -15.6692   25.8480 C   0  0  0  0  0  0  0  0  0  0  0  0
    5.9931  -14.8856   25.3648 N   0  0  0  0  0  0  0  0  0  0  0  0
    6.3606  -13.6230   25.5909 C   0  0  0  0  0  0  0  0  0  0  0  0
    5.7163  -12.4228   25.3072 C   0  0  0  0  0  0  0  0  0  0  0  0
    6.2913  -11.2295   25.6550 C   0  0  0  0  0  0  0  0  0  0  0  0
    7.5094  -11.1571   26.2892 C   0  0  0  0  0  0  0  0  0  0  0  0
    8.1401  -12.3412   26.5658 C   0  0  0  0  0  0  0  0  0  0  0  0
    7.5759  -13.5531   26.2222 C   0  0  0  0  0  0  0  0  0  0  0  0
   10.5114  -17.5577   26.7617 C   0  0  0  0  0  0  0  0  0  0  0  0
   11.3301  -17.5575   27.7523 O   0  0  0  0  0  0  0  0  0  0  0  0
   10.1407  -18.8361   26.3611 O   0  0  0  0  0  0  0  0  0  0  0  0
  1  5  1  0
  2  1  1  0
  2  3  1  0
  3  4  1  0
  5  4  1  0
  6  7  2  0
  5  6  1  1
  8  9  1  0
  9 11  1  0
 10  9  2  0
 11 12  1  0
 13 12  1  6
 13 14  1  0
 14  6  1  0
 15 17  1  0
 15 13  1  0
 16 15  2  0
 18 17  1  0
 18 29  1  0
 18 19  1  1
 20 28  1  0
 20 19  1  0
 21 20  2  0
 22 21  1  0
 22 23  1  0
 23 28  2  0
 24 23  1  0
 24 25  2  0
 25 26  1  0
 27 26  2  0
 28 27  1  0
 29 31  1  0
 30 29  2  0
M  END
$$$$
