PQW.pdb
     RDKit          3D

 31 33  0  0  1  0  0  0  0  0999 V2000
    9.4037  -14.5751   17.9369 N   0  0  0  0  0  0  0  0  0  0  0  0
    8.9266  -13.7084   16.8367 C   0  0  0  0  0  0  0  0  0  0  0  0
    7.5606  -13.3552   17.3878 C   0  0  0  0  0  0  0  0  0  0  0  0
    7.9047  -12.9487   18.7989 C   0  0  0  0  0  0  0  0  0  0  0  0
    9.0484  -13.8754   19.1329 C   0  0  1  0  0  0  0  0  0  0  0  0
    8.6545  -14.7264   20.2689 C   0  0  0  0  0  0  0  0  0  0  0  0
    8.3505  -14.1931   21.3931 O   0  0  0  0  0  0  0  0  0  0  0  0
    8.3618  -21.1143   20.2735 N   0  0  0  0  0  0  0  0  0  0  0  0
    9.5268  -20.3935   20.6537 C   0  0  0  0  0  0  0  0  0  0  0  0
   10.5167  -21.0218   21.0326 O   0  0  0  0  0  0  0  0  0  0  0  0
    9.4918  -18.9220   20.5738 C   0  0  0  0  0  0  0  0  0  0  0  0
    8.2506  -18.3898   21.1731 C   0  0  0  0  0  0  0  0  0  0  0  0
    8.2036  -16.9218   21.4374 C   0  0  2  0  0  0  0  0  0  0  0  0
    8.5728  -16.1440   20.2489 N   0  0  0  0  0  0  0  0  0  0  0  0
    9.2322  -16.6093   22.4757 C   0  0  0  0  0  0  0  0  0  0  0  0
   10.3448  -16.1685   22.1032 O   0  0  0  0  0  0  0  0  0  0  0  0
    9.0355  -16.7775   23.8481 N   0  0  0  0  0  0  0  0  0  0  0  0
   10.0012  -16.3243   24.8771 C   0  0  1  0  0  0  0  0  0  0  0  0
    9.6470  -14.9367   25.2540 C   0  0  0  0  0  0  0  0  0  0  0  0
    8.2763  -14.7028   25.7313 C   0  0  0  0  0  0  0  0  0  0  0  0
    7.2487  -15.6569   25.7173 C   0  0  0  0  0  0  0  0  0  0  0  0
    6.1179  -15.1138   26.1912 N   0  0  0  0  0  0  0  0  0  0  0  0
    6.3965  -13.8473   26.5055 C   0  0  0  0  0  0  0  0  0  0  0  0
    5.5956  -12.8464   27.0466 C   0  0  0  0  0  0  0  0  0  0  0  0
    6.1163  -11.6059   27.3027 C   0  0  0  0  0  0  0  0  0  0  0  0
    7.4299  -11.2919   27.0440 C   0  0  0  0  0  0  0  0  0  0  0  0
    8.2144  -12.2802   26.5108 C   0  0  0  0  0  0  0  0  0  0  0  0
    7.7065  -13.5360   26.2456 C   0  0  0  0  0  0  0  0  0  0  0  0
    9.9909  -17.3456   25.9298 C   0  0  0  0  0  0  0  0  0  0  0  0
   10.7556  -17.2549   26.9587 O   0  0  0  0  0  0  0  0  0  0  0  0
    9.1879  -18.4801   25.9458 O   0  0  0  0  0  0  0  0  0  0  0  0
  1  5  1  0
  2  1  1  0
  2  3  1  0
  3  4  1  0
  5  4  1  0
  6  7  2  0
  5  6  1  1
  8  9  1  0
  9 11  1  0
 10  9  2  0
 11 12  1  0
 13 12  1  6
 13 14  1  0
 14  6  1  0
 15 17  1  0
 15 13  1  0
 16 15  2  0
 18 17  1  0
 18 29  1  0
 18 19  1  1
 20 28  1  0
 20 19  1  0
 21 20  2  0
 22 21  1  0
 22 23  1  0
 23 28  2  0
 24 23  1  0
 24 25  2  0
 25 26  1  0
 27 26  2  0
 28 27  1  0
 29 31  1  0
 30 29  2  0
M  END
$$$$
