ASS.pdb
     RDKit          3D

 18 17  0  0  1  0  0  0  0  0999 V2000
    7.9432  -17.0356   15.4005 C   0  0  0  0  0  0  0  0  0  0  0  0
    8.6342  -15.7226   15.2278 C   0  0  2  0  0  0  0  0  0  0  0  0
    9.7471  -15.8387   14.2818 N   0  0  0  0  0  0  0  0  0  0  0  0
    9.1916  -15.2596   16.5296 C   0  0  0  0  0  0  0  0  0  0  0  0
   10.3802  -15.5372   16.8615 O   0  0  0  0  0  0  0  0  0  0  0  0
    6.7956  -13.6092   19.5705 O   0  0  0  0  0  0  0  0  0  0  0  0
    8.0254  -13.0184   19.2872 C   0  0  0  0  0  0  0  0  0  0  0  0
    8.9796  -14.0699   18.7275 C   0  0  2  0  0  0  0  0  0  0  0  0
    8.4289  -14.4949   17.4504 N   0  0  0  0  0  0  0  0  0  0  0  0
    9.0161  -15.2052   19.6931 C   0  0  0  0  0  0  0  0  0  0  0  0
    8.2883  -16.2039   19.4970 O   0  0  0  0  0  0  0  0  0  0  0  0
   11.2800  -18.4654   21.4078 O   0  0  0  0  0  0  0  0  0  0  0  0
   10.8487  -17.3822   20.6836 C   0  0  0  0  0  0  0  0  0  0  0  0
   10.2605  -16.3071   21.5681 C   0  0  2  0  0  0  0  0  0  0  0  0
    9.8765  -15.1364   20.8214 N   0  0  0  0  0  0  0  0  0  0  0  0
   11.1638  -15.9533   22.6852 C   0  0  0  0  0  0  0  0  0  0  0  0
   11.7177  -14.8323   22.7635 O   0  0  0  0  0  0  0  0  0  0  0  0
   11.3985  -16.8962   23.6699 O   0  0  0  0  0  0  0  0  0  0  0  0
  2  1  1  1
  2  3  1  0
  4  2  1  0
  4  5  2  0
  6  7  1  0
  8  7  1  1
  8  9  1  0
  9  4  1  0
 10  8  1  0
 11 10  2  0
 12 13  1  0
 14 13  1  6
 14 15  1  0
 14 16  1  0
 15 10  1  0
 16 18  1  0
 17 16  2  0
M  END
$$$$
