ASS.pdb
     RDKit          3D

 18 17  0  0  1  0  0  0  0  0999 V2000
    4.0220  -18.5430   22.4395 C   0  0  0  0  0  0  0  0  0  0  0  0
    4.4333  -18.1524   21.0576 C   0  0  2  0  0  0  0  0  0  0  0  0
    4.4072  -19.3091   20.1585 N   0  0  0  0  0  0  0  0  0  0  0  0
    5.8233  -17.6162   21.0670 C   0  0  0  0  0  0  0  0  0  0  0  0
    6.8189  -18.3946   21.0133 O   0  0  0  0  0  0  0  0  0  0  0  0
    6.6991  -13.6096   21.9479 O   0  0  0  0  0  0  0  0  0  0  0  0
    7.3634  -14.2129   20.8820 C   0  0  0  0  0  0  0  0  0  0  0  0
    7.4599  -15.7164   21.1263 C   0  0  2  0  0  0  0  0  0  0  0  0
    6.0976  -16.2254   21.1356 N   0  0  0  0  0  0  0  0  0  0  0  0
    8.1097  -15.9169   22.4530 C   0  0  0  0  0  0  0  0  0  0  0  0
    7.4013  -16.1612   23.4549 O   0  0  0  0  0  0  0  0  0  0  0  0
   10.7042  -18.7454   24.4289 O   0  0  0  0  0  0  0  0  0  0  0  0
    9.9689  -18.0445   23.5060 C   0  0  0  0  0  0  0  0  0  0  0  0
   10.2676  -16.5636   23.5499 C   0  0  2  0  0  0  0  0  0  0  0  0
    9.5235  -15.8276   22.5599 N   0  0  0  0  0  0  0  0  0  0  0  0
   11.7171  -16.2876   23.4401 C   0  0  0  0  0  0  0  0  0  0  0  0
   12.2082  -15.6930   22.4528 O   0  0  0  0  0  0  0  0  0  0  0  0
   12.5487  -16.7028   24.4647 O   0  0  0  0  0  0  0  0  0  0  0  0
  2  1  1  1
  2  3  1  0
  4  2  1  0
  4  5  2  0
  6  7  1  0
  8  7  1  1
  8  9  1  0
  9  4  1  0
 10  8  1  0
 11 10  2  0
 12 13  1  0
 14 13  1  6
 14 15  1  0
 14 16  1  0
 15 10  1  0
 16 18  1  0
 17 16  2  0
M  END
$$$$
