ASS.pdb
     RDKit          3D

 18 17  0  0  1  0  0  0  0  0999 V2000
   -0.0917  -25.6676   28.0860 C   0  0  0  0  0  0  0  0  0  0  0  0
   -1.4966  -25.6552   27.5787 C   0  0  2  0  0  0  0  0  0  0  0  0
   -1.5236  -25.5233   26.1196 N   0  0  0  0  0  0  0  0  0  0  0  0
   -2.2405  -24.4991   28.1527 C   0  0  0  0  0  0  0  0  0  0  0  0
   -2.3988  -24.3858   29.4025 O   0  0  0  0  0  0  0  0  0  0  0  0
   -4.1638  -21.8354   25.6726 O   0  0  0  0  0  0  0  0  0  0  0  0
   -3.6172  -21.2908   26.8328 C   0  0  0  0  0  0  0  0  0  0  0  0
   -3.5384  -22.3662   27.9130 C   0  0  2  0  0  0  0  0  0  0  0  0
   -2.8015  -23.4806   27.3387 N   0  0  0  0  0  0  0  0  0  0  0  0
   -4.9334  -22.7705   28.2495 C   0  0  0  0  0  0  0  0  0  0  0  0
   -5.5384  -23.5732   27.5046 O   0  0  0  0  0  0  0  0  0  0  0  0
   -6.2689  -24.8646   30.4946 O   0  0  0  0  0  0  0  0  0  0  0  0
   -6.8228  -23.6862   30.9286 C   0  0  0  0  0  0  0  0  0  0  0  0
   -6.8706  -22.6455   29.8337 C   0  0  2  0  0  0  0  0  0  0  0  0
   -5.5550  -22.2382   29.4107 N   0  0  0  0  0  0  0  0  0  0  0  0
   -7.6923  -21.4761   30.2166 C   0  0  0  0  0  0  0  0  0  0  0  0
   -8.9160  -21.5758   30.4660 O   0  0  0  0  0  0  0  0  0  0  0  0
   -7.0817  -20.2375   30.2994 O   0  0  0  0  0  0  0  0  0  0  0  0
  2  1  1  1
  2  3  1  0
  4  2  1  0
  4  5  2  0
  6  7  1  0
  8  7  1  6
  8  9  1  0
  9  4  1  0
 10  8  1  0
 11 10  2  0
 12 13  1  0
 14 13  1  1
 14 15  1  0
 14 16  1  0
 15 10  1  0
 16 18  1  0
 17 16  2  0
M  END
$$$$
