ASS.pdb
     RDKit          3D

 18 17  0  0  1  0  0  0  0  0999 V2000
    7.3852  -15.2714   18.0855 C   0  0  0  0  0  0  0  0  0  0  0  0
    7.5067  -13.9041   18.6746 C   0  0  2  0  0  0  0  0  0  0  0  0
    8.1093  -12.9743   17.7159 N   0  0  0  0  0  0  0  0  0  0  0  0
    8.3791  -13.9399   19.8818 C   0  0  0  0  0  0  0  0  0  0  0  0
    9.6053  -13.6388   19.8049 O   0  0  0  0  0  0  0  0  0  0  0  0
    6.8554  -15.0708   23.5800 O   0  0  0  0  0  0  0  0  0  0  0  0
    7.8468  -14.0924   23.5418 C   0  0  0  0  0  0  0  0  0  0  0  0
    8.7480  -14.3263   22.3325 C   0  0  2  0  0  0  0  0  0  0  0  0
    7.8866  -14.3081   21.1609 N   0  0  0  0  0  0  0  0  0  0  0  0
    9.3882  -15.6624   22.4989 C   0  0  0  0  0  0  0  0  0  0  0  0
    8.8154  -16.6798   22.0495 O   0  0  0  0  0  0  0  0  0  0  0  0
   13.5214  -16.0743   23.2301 O   0  0  0  0  0  0  0  0  0  0  0  0
   12.6878  -17.0153   22.6794 C   0  0  0  0  0  0  0  0  0  0  0  0
   11.3247  -17.0164   23.3324 C   0  0  2  0  0  0  0  0  0  0  0  0
   10.6390  -15.7604   23.1652 N   0  0  0  0  0  0  0  0  0  0  0  0
   11.3949  -17.3986   24.7600 C   0  0  0  0  0  0  0  0  0  0  0  0
   10.9546  -16.6580   25.6695 O   0  0  0  0  0  0  0  0  0  0  0  0
   11.9662  -18.6141   25.0918 O   0  0  0  0  0  0  0  0  0  0  0  0
  2  1  1  6
  2  3  1  0
  4  2  1  0
  4  5  2  0
  6  7  1  0
  8  7  1  1
  8  9  1  0
  9  4  1  0
 10  8  1  0
 11 10  2  0
 12 13  1  0
 14 13  1  1
 14 15  1  0
 14 16  1  0
 15 10  1  0
 16 18  1  0
 17 16  2  0
M  END
$$$$
