ASS.pdb
     RDKit          3D

 18 17  0  0  1  0  0  0  0  0999 V2000
    8.0331  -19.1400   17.4121 C   0  0  0  0  0  0  0  0  0  0  0  0
    7.8123  -17.6866   17.1469 C   0  0  2  0  0  0  0  0  0  0  0  0
    8.4102  -17.2925   15.8685 N   0  0  0  0  0  0  0  0  0  0  0  0
    8.4467  -16.8664   18.2166 C   0  0  0  0  0  0  0  0  0  0  0  0
    9.6802  -16.5891   18.1757 O   0  0  0  0  0  0  0  0  0  0  0  0
    6.3640  -15.8083   21.6747 O   0  0  0  0  0  0  0  0  0  0  0  0
    7.2335  -14.8682   21.1254 C   0  0  0  0  0  0  0  0  0  0  0  0
    8.3497  -15.5853   20.3708 C   0  0  2  0  0  0  0  0  0  0  0  0
    7.7106  -16.3615   19.3201 N   0  0  0  0  0  0  0  0  0  0  0  0
    9.0475  -16.4782   21.3396 C   0  0  0  0  0  0  0  0  0  0  0  0
    8.5737  -17.6097   21.5856 O   0  0  0  0  0  0  0  0  0  0  0  0
   12.7086  -15.2169   23.1332 O   0  0  0  0  0  0  0  0  0  0  0  0
   12.4776  -16.5361   22.8329 C   0  0  0  0  0  0  0  0  0  0  0  0
   11.0043  -16.8725   22.8542 C   0  0  2  0  0  0  0  0  0  0  0  0
   10.2400  -16.0310   21.9691 N   0  0  0  0  0  0  0  0  0  0  0  0
   10.4496  -16.8449   24.2256 C   0  0  0  0  0  0  0  0  0  0  0  0
    9.4972  -16.0956   24.5432 O   0  0  0  0  0  0  0  0  0  0  0  0
   11.0066  -17.6763   25.1809 O   0  0  0  0  0  0  0  0  0  0  0  0
  2  1  1  1
  2  3  1  0
  4  2  1  0
  4  5  2  0
  6  7  1  0
  8  7  1  1
  8  9  1  0
  9  4  1  0
 10  8  1  0
 11 10  2  0
 12 13  1  0
 14 13  1  1
 14 15  1  0
 14 16  1  0
 15 10  1  0
 16 18  1  0
 17 16  2  0
M  END
$$$$
