ASS.pdb
     RDKit          3D

 18 17  0  0  1  0  0  0  0  0999 V2000
   -1.9155  -27.4728   27.0754 C   0  0  0  0  0  0  0  0  0  0  0  0
   -1.9012  -26.4150   26.0208 C   0  0  2  0  0  0  0  0  0  0  0  0
   -0.6066  -25.7296   25.9863 N   0  0  0  0  0  0  0  0  0  0  0  0
   -2.9482  -25.3933   26.3029 C   0  0  0  0  0  0  0  0  0  0  0  0
   -2.6871  -24.3740   27.0050 O   0  0  0  0  0  0  0  0  0  0  0  0
   -7.0023  -25.9785   25.4659 O   0  0  0  0  0  0  0  0  0  0  0  0
   -6.4246  -24.7748   25.0673 C   0  0  0  0  0  0  0  0  0  0  0  0
   -5.2483  -24.4457   25.9825 C   0  0  2  0  0  0  0  0  0  0  0  0
   -4.2725  -25.5094   25.8058 N   0  0  0  0  0  0  0  0  0  0  0  0
   -5.7593  -24.4224   27.3828 C   0  0  0  0  0  0  0  0  0  0  0  0
   -5.7233  -25.4680   28.0689 O   0  0  0  0  0  0  0  0  0  0  0  0
   -6.2087  -22.6721   31.5362 O   0  0  0  0  0  0  0  0  0  0  0  0
   -5.7408  -22.6693   30.2459 C   0  0  0  0  0  0  0  0  0  0  0  0
   -6.7926  -23.1247   29.2608 C   0  0  2  0  0  0  0  0  0  0  0  0
   -6.2796  -23.2134   27.9174 N   0  0  0  0  0  0  0  0  0  0  0  0
   -8.0043  -22.2772   29.3129 C   0  0  0  0  0  0  0  0  0  0  0  0
   -8.3469  -21.5465   28.3545 O   0  0  0  0  0  0  0  0  0  0  0  0
   -8.7773  -22.2985   30.4600 O   0  0  0  0  0  0  0  0  0  0  0  0
  2  1  1  1
  2  3  1  0
  4  2  1  0
  4  5  2  0
  6  7  1  0
  8  7  1  6
  8  9  1  0
  9  4  1  0
 10  8  1  0
 11 10  2  0
 12 13  1  0
 14 13  1  1
 14 15  1  0
 14 16  1  0
 15 10  1  0
 16 18  1  0
 17 16  2  0
M  END
$$$$
