ASS.pdb
     RDKit          3D

 18 17  0  0  1  0  0  0  0  0999 V2000
   -0.7366  -25.4879   28.5913 C   0  0  0  0  0  0  0  0  0  0  0  0
   -1.2481  -26.0276   29.8868 C   0  0  2  0  0  0  0  0  0  0  0  0
   -0.8797  -27.4367   30.0472 N   0  0  0  0  0  0  0  0  0  0  0  0
   -2.7347  -25.9396   29.9295 C   0  0  0  0  0  0  0  0  0  0  0  0
   -3.4474  -26.6124   29.1299 O   0  0  0  0  0  0  0  0  0  0  0  0
   -4.5257  -24.4545   33.1984 O   0  0  0  0  0  0  0  0  0  0  0  0
   -5.2497  -25.3167   32.3776 C   0  0  0  0  0  0  0  0  0  0  0  0
   -4.8698  -25.0724   30.9198 C   0  0  2  0  0  0  0  0  0  0  0  0
   -3.4174  -25.1087   30.8559 N   0  0  0  0  0  0  0  0  0  0  0  0
   -5.3835  -23.7254   30.5396 C   0  0  0  0  0  0  0  0  0  0  0  0
   -4.7201  -22.7071   30.8365 O   0  0  0  0  0  0  0  0  0  0  0  0
   -7.4361  -23.1532   27.1569 O   0  0  0  0  0  0  0  0  0  0  0  0
   -8.0528  -22.5061   28.1983 C   0  0  0  0  0  0  0  0  0  0  0  0
   -7.1382  -22.3535   29.3918 C   0  0  2  0  0  0  0  0  0  0  0  0
   -6.6186  -23.6182   29.8459 N   0  0  0  0  0  0  0  0  0  0  0  0
   -7.7892  -21.6175   30.4980 C   0  0  0  0  0  0  0  0  0  0  0  0
   -8.3865  -22.2067   31.4284 O   0  0  0  0  0  0  0  0  0  0  0  0
   -7.7315  -20.2353   30.4967 O   0  0  0  0  0  0  0  0  0  0  0  0
  2  1  1  6
  2  3  1  0
  4  2  1  0
  4  5  2  0
  6  7  1  0
  8  7  1  1
  8  9  1  0
  9  4  1  0
 10  8  1  0
 11 10  2  0
 12 13  1  0
 14 13  1  6
 14 15  1  0
 14 16  1  0
 15 10  1  0
 16 18  1  0
 17 16  2  0
M  END
$$$$
