ASS.pdb
     RDKit          3D

 18 17  0  0  1  0  0  0  0  0999 V2000
    7.1646  -19.2759   18.0464 C   0  0  0  0  0  0  0  0  0  0  0  0
    7.5590  -17.9291   17.5347 C   0  0  2  0  0  0  0  0  0  0  0  0
    8.4132  -18.0503   16.3503 N   0  0  0  0  0  0  0  0  0  0  0  0
    8.3272  -17.1886   18.5744 C   0  0  0  0  0  0  0  0  0  0  0  0
    9.5784  -17.3378   18.6855 O   0  0  0  0  0  0  0  0  0  0  0  0
    6.4686  -15.0275   21.6457 O   0  0  0  0  0  0  0  0  0  0  0  0
    7.5531  -14.4454   20.9926 C   0  0  0  0  0  0  0  0  0  0  0  0
    8.4738  -15.5392   20.4583 C   0  0  2  0  0  0  0  0  0  0  0  0
    7.7039  -16.2910   19.4802 N   0  0  0  0  0  0  0  0  0  0  0  0
    8.8596  -16.4055   21.6086 C   0  0  0  0  0  0  0  0  0  0  0  0
    8.0173  -17.1906   22.0978 O   0  0  0  0  0  0  0  0  0  0  0  0
   12.3765  -18.1350   21.9481 O   0  0  0  0  0  0  0  0  0  0  0  0
   11.3097  -18.4059   22.7681 C   0  0  0  0  0  0  0  0  0  0  0  0
   10.6181  -17.1451   23.2332 C   0  0  2  0  0  0  0  0  0  0  0  0
   10.1779  -16.3268   22.1322 N   0  0  0  0  0  0  0  0  0  0  0  0
   11.4564  -16.3677   24.1723 C   0  0  0  0  0  0  0  0  0  0  0  0
   11.8405  -15.2035   23.9140 O   0  0  0  0  0  0  0  0  0  0  0  0
   11.8231  -16.9528   25.3711 O   0  0  0  0  0  0  0  0  0  0  0  0
  2  1  1  1
  2  3  1  0
  4  2  1  0
  4  5  2  0
  6  7  1  0
  8  7  1  1
  8  9  1  0
  9  4  1  0
 10  8  1  0
 11 10  2  0
 12 13  1  0
 14 13  1  6
 14 15  1  0
 14 16  1  0
 15 10  1  0
 16 18  1  0
 17 16  2  0
M  END
$$$$
