ASS.pdb
     RDKit          3D

 18 17  0  0  1  0  0  0  0  0999 V2000
    6.7610  -14.5757   19.9223 C   0  0  0  0  0  0  0  0  0  0  0  0
    7.3731  -13.3021   20.4065 C   0  0  2  0  0  0  0  0  0  0  0  0
    8.3347  -12.7813   19.4313 N   0  0  0  0  0  0  0  0  0  0  0  0
    8.1036  -13.5356   21.6839 C   0  0  0  0  0  0  0  0  0  0  0  0
    9.3475  -13.7652   21.6870 O   0  0  0  0  0  0  0  0  0  0  0  0
    6.0318  -13.9995   25.2326 O   0  0  0  0  0  0  0  0  0  0  0  0
    7.2648  -13.3569   25.3226 C   0  0  0  0  0  0  0  0  0  0  0  0
    8.1629  -13.8133   24.1760 C   0  0  2  0  0  0  0  0  0  0  0  0
    7.4510  -13.5127   22.9440 N   0  0  0  0  0  0  0  0  0  0  0  0
    8.3706  -15.2822   24.3232 C   0  0  0  0  0  0  0  0  0  0  0  0
    7.5897  -16.0749   23.7513 O   0  0  0  0  0  0  0  0  0  0  0  0
   11.7149  -17.0389   23.7897 O   0  0  0  0  0  0  0  0  0  0  0  0
   10.4996  -17.6538   23.9595 C   0  0  0  0  0  0  0  0  0  0  0  0
    9.7823  -17.1599   25.1947 C   0  0  2  0  0  0  0  0  0  0  0  0
    9.4522  -15.7601   25.1106 N   0  0  0  0  0  0  0  0  0  0  0  0
   10.5407  -17.4546   26.4306 C   0  0  0  0  0  0  0  0  0  0  0  0
   10.9021  -18.6166   26.7283 O   0  0  0  0  0  0  0  0  0  0  0  0
   10.8562  -16.4077   27.2782 O   0  0  0  0  0  0  0  0  0  0  0  0
  2  1  1  6
  2  3  1  0
  4  2  1  0
  4  5  2  0
  6  7  1  0
  8  7  1  1
  8  9  1  0
  9  4  1  0
 10  8  1  0
 11 10  2  0
 12 13  1  0
 14 13  1  6
 14 15  1  0
 14 16  1  0
 15 10  1  0
 16 18  1  0
 17 16  2  0
M  END
$$$$
