ASS.pdb
     RDKit          3D

 18 17  0  0  1  0  0  0  0  0999 V2000
    8.0695  -11.9945   19.6983 C   0  0  0  0  0  0  0  0  0  0  0  0
    8.0763  -13.1228   18.7194 C   0  0  2  0  0  0  0  0  0  0  0  0
    6.7981  -13.8388   18.7393 N   0  0  0  0  0  0  0  0  0  0  0  0
    9.1481  -14.0979   19.0659 C   0  0  0  0  0  0  0  0  0  0  0  0
    8.9083  -15.0840   19.8210 O   0  0  0  0  0  0  0  0  0  0  0  0
   13.4607  -15.9046   17.8930 O   0  0  0  0  0  0  0  0  0  0  0  0
   12.4961  -14.9149   17.7154 C   0  0  0  0  0  0  0  0  0  0  0  0
   11.4908  -14.9707   18.8624 C   0  0  2  0  0  0  0  0  0  0  0  0
   10.4735  -13.9723   18.5740 N   0  0  0  0  0  0  0  0  0  0  0  0
   12.2208  -14.6361   20.1185 C   0  0  0  0  0  0  0  0  0  0  0  0
   12.5749  -13.4547   20.3287 O   0  0  0  0  0  0  0  0  0  0  0  0
   12.0114  -17.0540   23.4988 O   0  0  0  0  0  0  0  0  0  0  0  0
   12.4500  -15.7535   23.5069 C   0  0  0  0  0  0  0  0  0  0  0  0
   13.2464  -15.4163   22.2674 C   0  0  2  0  0  0  0  0  0  0  0  0
   12.5035  -15.6635   21.0580 N   0  0  0  0  0  0  0  0  0  0  0  0
   14.5520  -16.1120   22.2417 C   0  0  0  0  0  0  0  0  0  0  0  0
   14.8264  -16.9803   21.3813 O   0  0  0  0  0  0  0  0  0  0  0  0
   15.4934  -15.7871   23.2019 O   0  0  0  0  0  0  0  0  0  0  0  0
  2  1  1  1
  2  3  1  0
  4  2  1  0
  4  5  2  0
  6  7  1  0
  8  7  1  6
  8  9  1  0
  9  4  1  0
 10  8  1  0
 11 10  2  0
 12 13  1  0
 14 13  1  1
 14 15  1  0
 14 16  1  0
 15 10  1  0
 16 18  1  0
 17 16  2  0
M  END
$$$$
