LFR.pdb
     RDKit          3D

 31 31  0  0  1  0  0  0  0  0999 V2000
    7.9520  -12.1853   18.2319 C   0  0  0  0  0  0  0  0  0  0  0  0
    7.9155  -13.6845   18.5343 C   0  0  1  0  0  0  0  0  0  0  0  0
    7.4933  -14.3947   17.2823 C   0  0  0  0  0  0  0  0  0  0  0  0
    9.2513  -14.1277   19.0711 C   0  0  0  0  0  0  0  0  0  0  0  0
    9.0903  -15.3435   19.9466 C   0  0  2  0  0  0  0  0  0  0  0  0
    7.8097  -15.9836   19.7275 N   0  0  0  0  0  0  0  0  0  0  0  0
    9.2550  -15.0179   21.3871 C   0  0  0  0  0  0  0  0  0  0  0  0
   10.3826  -14.6371   21.8317 O   0  0  0  0  0  0  0  0  0  0  0  0
    8.2007  -15.1089   22.3263 N   0  0  0  0  0  0  0  0  0  0  0  0
    8.2958  -14.6776   23.7117 C   0  0  1  0  0  0  0  0  0  0  0  0
    7.1278  -13.9317   24.2008 C   0  0  0  0  0  0  0  0  0  0  0  0
    7.1955  -13.4056   25.5767 C   0  0  0  0  0  0  0  0  0  0  0  0
    6.3507  -13.8722   26.5537 C   0  0  0  0  0  0  0  0  0  0  0  0
    6.3952  -13.3515   27.8427 C   0  0  0  0  0  0  0  0  0  0  0  0
    7.2785  -12.3543   28.1971 C   0  0  0  0  0  0  0  0  0  0  0  0
    8.1311  -11.8773   27.2266 C   0  0  0  0  0  0  0  0  0  0  0  0
    8.0803  -12.3985   25.9517 C   0  0  0  0  0  0  0  0  0  0  0  0
    8.5976  -15.8484   24.5408 C   0  0  0  0  0  0  0  0  0  0  0  0
    7.7200  -16.7935   24.6076 O   0  0  0  0  0  0  0  0  0  0  0  0
   10.1993  -18.6380   20.9932 N   0  0  0  0  0  0  0  0  0  0  0  0
   11.2213  -19.6210   21.1788 C   0  0  0  0  0  0  0  0  0  0  0  0
   11.3582  -20.5842   20.3369 N   0  0  0  0  0  0  0  0  0  0  0  0
   12.0895  -19.5289   22.3015 N   0  0  0  0  0  0  0  0  0  0  0  0
   12.0141  -18.4839   23.2755 C   0  0  0  0  0  0  0  0  0  0  0  0
   10.8140  -18.5896   24.1599 C   0  0  0  0  0  0  0  0  0  0  0  0
   11.0559  -18.1604   25.5867 C   0  0  0  0  0  0  0  0  0  0  0  0
    9.9453  -17.2734   26.1101 C   0  0  2  0  0  0  0  0  0  0  0  0
    9.7632  -16.0976   25.2992 N   0  0  0  0  0  0  0  0  0  0  0  0
   10.0896  -17.0651   27.5490 C   0  0  0  0  0  0  0  0  0  0  0  0
    9.9802  -15.8332   28.1277 O   0  0  0  0  0  0  0  0  0  0  0  0
   10.3253  -18.0412   28.3246 O   0  0  0  0  0  0  0  0  0  0  0  0
  2  1  1  6
  3  2  1  0
  4  2  1  0
  5  4  1  0
  5  6  1  1
  7  8  2  0
  7  5  1  0
  9  7  1  0
 10 18  1  0
 10  9  1  0
 10 11  1  1
 12 13  2  0
 12 11  1  0
 14 13  1  0
 15 14  2  0
 16 15  1  0
 16 17  2  0
 17 12  1  0
 18 28  1  0
 19 18  2  0
 20 21  1  0
 21 22  2  0
 23 21  1  0
 23 24  1  0
 24 25  1  0
 25 26  1  0
 27 26  1  6
 27 29  1  0
 28 27  1  0
 29 31  2  0
 29 30  1  0
M  END
$$$$
