LFR.pdb
     RDKit          3D

 31 31  0  0  1  0  0  0  0  0999 V2000
    7.8084  -12.1329   18.9606 C   0  0  0  0  0  0  0  0  0  0  0  0
    7.5536  -13.3424   19.8621 C   0  0  1  0  0  0  0  0  0  0  0  0
    6.0747  -13.5914   19.8880 C   0  0  0  0  0  0  0  0  0  0  0  0
    8.3657  -14.5159   19.3800 C   0  0  0  0  0  0  0  0  0  0  0  0
    8.1981  -15.6900   20.3095 C   0  0  2  0  0  0  0  0  0  0  0  0
    6.8342  -16.1770   20.3011 N   0  0  0  0  0  0  0  0  0  0  0  0
    8.6119  -15.3635   21.6988 C   0  0  0  0  0  0  0  0  0  0  0  0
    9.8228  -15.0768   21.9547 O   0  0  0  0  0  0  0  0  0  0  0  0
    7.7128  -15.3520   22.7913 N   0  0  0  0  0  0  0  0  0  0  0  0
    8.0854  -15.0230   24.1579 C   0  0  1  0  0  0  0  0  0  0  0  0
    6.9896  -14.4876   24.9777 C   0  0  0  0  0  0  0  0  0  0  0  0
    7.3347  -14.0087   26.3291 C   0  0  0  0  0  0  0  0  0  0  0  0
    7.2746  -12.6729   26.6418 C   0  0  0  0  0  0  0  0  0  0  0  0
    7.6311  -12.2206   27.9079 C   0  0  0  0  0  0  0  0  0  0  0  0
    8.0568  -13.0807   28.8973 C   0  0  0  0  0  0  0  0  0  0  0  0
    8.1219  -14.4230   28.5966 C   0  0  0  0  0  0  0  0  0  0  0  0
    7.7670  -14.8629   27.3395 C   0  0  0  0  0  0  0  0  0  0  0  0
    8.7107  -16.2027   24.7634 C   0  0  0  0  0  0  0  0  0  0  0  0
    8.1259  -17.3455   24.6222 O   0  0  0  0  0  0  0  0  0  0  0  0
   14.7748  -18.1914   20.5974 N   0  0  0  0  0  0  0  0  0  0  0  0
   15.0211  -19.2802   21.4914 C   0  0  0  0  0  0  0  0  0  0  0  0
   16.1132  -19.9553   21.4090 N   0  0  0  0  0  0  0  0  0  0  0  0
   14.0507  -19.6146   22.4758 N   0  0  0  0  0  0  0  0  0  0  0  0
   12.7333  -19.0579   22.5085 C   0  0  0  0  0  0  0  0  0  0  0  0
   12.2479  -18.7767   23.8936 C   0  0  0  0  0  0  0  0  0  0  0  0
   11.3470  -17.5703   24.0015 C   0  0  0  0  0  0  0  0  0  0  0  0
   10.8419  -17.3620   25.4142 C   0  0  2  0  0  0  0  0  0  0  0  0
    9.9137  -16.2648   25.5015 N   0  0  0  0  0  0  0  0  0  0  0  0
   11.9538  -17.3610   26.3621 C   0  0  0  0  0  0  0  0  0  0  0  0
   12.7717  -18.4405   26.5361 O   0  0  0  0  0  0  0  0  0  0  0  0
   12.2021  -16.3369   27.0686 O   0  0  0  0  0  0  0  0  0  0  0  0
  2  1  1  6
  3  2  1  0
  4  2  1  0
  5  4  1  0
  5  6  1  1
  7  8  2  0
  7  5  1  0
  9  7  1  0
 10 18  1  0
 10  9  1  0
 10 11  1  1
 12 13  2  0
 12 11  1  0
 14 13  1  0
 15 14  2  0
 16 15  1  0
 16 17  2  0
 17 12  1  0
 18 28  1  0
 19 18  2  0
 20 21  1  0
 21 22  2  0
 23 21  1  0
 23 24  1  0
 24 25  1  0
 25 26  1  0
 27 26  1  6
 27 29  1  0
 28 27  1  0
 29 31  2  0
 29 30  1  0
M  END
$$$$
