LFR.pdb
     RDKit          3D

 31 31  0  0  1  0  0  0  0  0999 V2000
    8.4093  -11.9477   19.2626 C   0  0  0  0  0  0  0  0  0  0  0  0
    7.9028  -13.3868   19.3763 C   0  0  1  0  0  0  0  0  0  0  0  0
    6.7011  -13.5213   18.4886 C   0  0  0  0  0  0  0  0  0  0  0  0
    9.0178  -14.3456   19.0499 C   0  0  0  0  0  0  0  0  0  0  0  0
    8.9010  -15.5937   19.8861 C   0  0  2  0  0  0  0  0  0  0  0  0
    7.6137  -16.2313   19.7025 N   0  0  0  0  0  0  0  0  0  0  0  0
    9.1310  -15.3207   21.3286 C   0  0  0  0  0  0  0  0  0  0  0  0
   10.2883  -14.9986   21.7418 O   0  0  0  0  0  0  0  0  0  0  0  0
    8.1087  -15.4003   22.3036 N   0  0  0  0  0  0  0  0  0  0  0  0
    8.2898  -15.0823   23.7109 C   0  0  1  0  0  0  0  0  0  0  0  0
    7.1024  -14.5179   24.3673 C   0  0  0  0  0  0  0  0  0  0  0  0
    7.2809  -13.9767   25.7274 C   0  0  0  0  0  0  0  0  0  0  0  0
    6.4388  -14.3416   26.7490 C   0  0  0  0  0  0  0  0  0  0  0  0
    6.5900  -13.8051   28.0233 C   0  0  0  0  0  0  0  0  0  0  0  0
    7.5800  -12.8924   28.3184 C   0  0  0  0  0  0  0  0  0  0  0  0
    8.4310  -12.5177   27.3027 C   0  0  0  0  0  0  0  0  0  0  0  0
    8.2742  -13.0540   26.0428 C   0  0  0  0  0  0  0  0  0  0  0  0
    8.7898  -16.2789   24.3947 C   0  0  0  0  0  0  0  0  0  0  0  0
    8.0854  -17.3595   24.3308 O   0  0  0  0  0  0  0  0  0  0  0  0
   12.8352  -21.0374   27.7521 N   0  0  0  0  0  0  0  0  0  0  0  0
   13.6208  -21.7472   26.7907 C   0  0  0  0  0  0  0  0  0  0  0  0
   13.9678  -22.9670   27.0070 N   0  0  0  0  0  0  0  0  0  0  0  0
   14.0179  -21.0969   25.5898 N   0  0  0  0  0  0  0  0  0  0  0  0
   13.6816  -19.7425   25.2756 C   0  0  0  0  0  0  0  0  0  0  0  0
   12.2943  -19.3702   25.6881 C   0  0  0  0  0  0  0  0  0  0  0  0
   11.8446  -18.0152   25.1980 C   0  0  0  0  0  0  0  0  0  0  0  0
   10.4447  -17.6764   25.6666 C   0  0  2  0  0  0  0  0  0  0  0  0
    9.9846  -16.4199   25.1353 N   0  0  0  0  0  0  0  0  0  0  0  0
   10.3275  -17.8633   27.1110 C   0  0  0  0  0  0  0  0  0  0  0  0
   10.1986  -19.0958   27.6843 O   0  0  0  0  0  0  0  0  0  0  0  0
   10.3427  -16.8671   27.8966 O   0  0  0  0  0  0  0  0  0  0  0  0
  2  1  1  6
  3  2  1  0
  4  2  1  0
  5  4  1  0
  5  6  1  1
  7  8  2  0
  7  5  1  0
  9  7  1  0
 10 18  1  0
 10  9  1  0
 10 11  1  1
 12 13  2  0
 12 11  1  0
 14 13  1  0
 15 14  2  0
 16 15  1  0
 16 17  2  0
 17 12  1  0
 18 28  1  0
 19 18  2  0
 20 21  1  0
 21 22  2  0
 23 21  1  0
 23 24  1  0
 24 25  1  0
 25 26  1  0
 27 26  1  1
 27 29  1  0
 28 27  1  0
 29 31  2  0
 29 30  1  0
M  END
$$$$
