LFR.pdb
     RDKit          3D

 31 31  0  0  1  0  0  0  0  0999 V2000
    7.1803  -12.6949   17.8315 C   0  0  0  0  0  0  0  0  0  0  0  0
    7.5469  -14.1577   18.0893 C   0  0  1  0  0  0  0  0  0  0  0  0
    7.5849  -14.8611   16.7649 C   0  0  0  0  0  0  0  0  0  0  0  0
    8.8389  -14.2298   18.8603 C   0  0  0  0  0  0  0  0  0  0  0  0
    8.8167  -15.3929   19.8181 C   0  0  2  0  0  0  0  0  0  0  0  0
    7.5796  -16.1384   19.7116 N   0  0  0  0  0  0  0  0  0  0  0  0
    9.0293  -14.9606   21.2238 C   0  0  0  0  0  0  0  0  0  0  0  0
   10.1083  -14.3790   21.5576 O   0  0  0  0  0  0  0  0  0  0  0  0
    8.0746  -15.1631   22.2482 N   0  0  0  0  0  0  0  0  0  0  0  0
    8.2412  -14.7235   23.6243 C   0  0  1  0  0  0  0  0  0  0  0  0
    7.0281  -14.1661   24.2385 C   0  0  0  0  0  0  0  0  0  0  0  0
    7.1767  -13.5305   25.5609 C   0  0  0  0  0  0  0  0  0  0  0  0
    7.1346  -12.1646   25.6968 C   0  0  0  0  0  0  0  0  0  0  0  0
    7.3068  -11.5665   26.9407 C   0  0  0  0  0  0  0  0  0  0  0  0
    7.5255  -12.3069   28.0827 C   0  0  0  0  0  0  0  0  0  0  0  0
    7.5703  -13.6778   27.9601 C   0  0  0  0  0  0  0  0  0  0  0  0
    7.3989  -14.2624   26.7238 C   0  0  0  0  0  0  0  0  0  0  0  0
    8.7996  -15.8349   24.4003 C   0  0  0  0  0  0  0  0  0  0  0  0
    8.0748  -16.8910   24.5655 O   0  0  0  0  0  0  0  0  0  0  0  0
   14.4559  -13.7965   22.2654 N   0  0  0  0  0  0  0  0  0  0  0  0
   13.5202  -14.4976   21.4419 C   0  0  0  0  0  0  0  0  0  0  0  0
   13.0637  -13.9549   20.3685 N   0  0  0  0  0  0  0  0  0  0  0  0
   13.0952  -15.8025   21.8155 N   0  0  0  0  0  0  0  0  0  0  0  0
   13.2291  -16.3290   23.1388 C   0  0  0  0  0  0  0  0  0  0  0  0
   12.0848  -17.2009   23.5434 C   0  0  0  0  0  0  0  0  0  0  0  0
   11.9872  -17.4452   25.0298 C   0  0  0  0  0  0  0  0  0  0  0  0
   10.6077  -17.1288   25.5691 C   0  0  2  0  0  0  0  0  0  0  0  0
   10.0720  -15.9155   25.0090 N   0  0  0  0  0  0  0  0  0  0  0  0
   10.5861  -17.2476   27.0253 C   0  0  0  0  0  0  0  0  0  0  0  0
   10.0950  -16.2643   27.8354 O   0  0  0  0  0  0  0  0  0  0  0  0
   11.0310  -18.2892   27.5971 O   0  0  0  0  0  0  0  0  0  0  0  0
  2  1  1  6
  3  2  1  0
  4  2  1  0
  5  4  1  0
  5  6  1  1
  7  8  2  0
  7  5  1  0
  9  7  1  0
 10 18  1  0
 10  9  1  0
 10 11  1  1
 12 13  2  0
 12 11  1  0
 14 13  1  0
 15 14  2  0
 16 15  1  0
 16 17  2  0
 17 12  1  0
 18 28  1  0
 19 18  2  0
 20 21  1  0
 21 22  2  0
 23 21  1  0
 23 24  1  0
 24 25  1  0
 25 26  1  0
 27 26  1  1
 27 29  1  0
 28 27  1  0
 29 31  2  0
 29 30  1  0
M  END
$$$$
