QLE.pdb
     RDKit          3D

 27 26  0  0  1  0  0  0  0  0999 V2000
   16.4280  -21.1436    1.8145 N   0  0  0  0  0  0  0  0  0  0  0  0
   15.1009  -20.6517    1.8463 C   0  0  0  0  0  0  0  0  0  0  0  0
   14.1638  -21.2960    1.3233 O   0  0  0  0  0  0  0  0  0  0  0  0
   14.8188  -19.3655    2.5025 C   0  0  0  0  0  0  0  0  0  0  0  0
   16.1011  -18.7386    3.0134 C   0  0  0  0  0  0  0  0  0  0  0  0
   15.7855  -18.1603    4.3790 C   0  0  2  0  0  0  0  0  0  0  0  0
   14.6072  -17.3415    4.2954 N   0  0  0  0  0  0  0  0  0  0  0  0
   16.9566  -17.3831    4.8491 C   0  0  0  0  0  0  0  0  0  0  0  0
   18.0590  -18.0193    4.9133 O   0  0  0  0  0  0  0  0  0  0  0  0
   20.5248  -13.4394    5.7749 C   0  0  0  0  0  0  0  0  0  0  0  0
   19.1174  -13.0732    6.1764 C   0  0  1  0  0  0  0  0  0  0  0  0
   18.9287  -11.6179    5.7124 C   0  0  0  0  0  0  0  0  0  0  0  0
   18.0650  -13.8636    5.4935 C   0  0  0  0  0  0  0  0  0  0  0  0
   18.1048  -15.3477    5.7559 C   0  0  2  0  0  0  0  0  0  0  0  0
   16.9306  -16.0163    5.2213 N   0  0  0  0  0  0  0  0  0  0  0  0
   18.2037  -15.6303    7.2094 C   0  0  0  0  0  0  0  0  0  0  0  0
   17.2030  -15.4755    7.9831 O   0  0  0  0  0  0  0  0  0  0  0  0
   19.3802  -16.0816    7.8384 N   0  0  0  0  0  0  0  0  0  0  0  0
   19.4060  -16.4490    9.2640 C   0  0  1  0  0  0  0  0  0  0  0  0
   19.5406  -17.9171    9.4262 C   0  0  0  0  0  0  0  0  0  0  0  0
   19.6252  -18.3129   10.8717 C   0  0  0  0  0  0  0  0  0  0  0  0
   19.7761  -19.7582   11.0911 C   0  0  0  0  0  0  0  0  0  0  0  0
   19.8842  -20.5297   10.1120 O   0  0  0  0  0  0  0  0  0  0  0  0
   20.5961  -15.7539    9.8076 C   0  0  0  0  0  0  0  0  0  0  0  0
   21.6469  -15.5551    9.0905 O   0  0  0  0  0  0  0  0  0  0  0  0
   19.7996  -20.2753   12.3796 O   0  0  0  0  0  0  0  0  0  0  0  0
   20.6581  -15.2765   11.1000 O   0  0  0  0  0  0  0  0  0  0  0  0
  2  1  1  0
  2  3  2  0
  4  2  1  0
  5  4  1  0
  6  8  1  0
  6  5  1  0
  6  7  1  6
  8 15  1  0
  9  8  2  0
 11 10  1  6
 12 11  1  0
 14 13  1  1
 13 11  1  0
 14 16  1  0
 15 14  1  0
 16 18  1  0
 17 16  2  0
 18 19  1  0
 19 24  1  0
 19 20  1  6
 21 20  1  0
 22 23  2  0
 22 21  1  0
 24 25  2  0
 24 27  1  0
 26 22  1  0
M  END
$$$$
