QLE.pdb
     RDKit          3D

 27 26  0  0  1  0  0  0  0  0999 V2000
   19.5564  -25.7665   -9.0168 N   0  0  0  0  0  0  0  0  0  0  0  0
   18.1908  -25.6678   -9.3773 C   0  0  0  0  0  0  0  0  0  0  0  0
   17.7067  -24.5829   -9.7713 O   0  0  0  0  0  0  0  0  0  0  0  0
   17.3285  -26.8564   -9.2875 C   0  0  0  0  0  0  0  0  0  0  0  0
   16.5616  -26.8573   -7.9796 C   0  0  0  0  0  0  0  0  0  0  0  0
   17.2474  -27.8641   -7.0770 C   0  0  2  0  0  0  0  0  0  0  0  0
   16.8040  -29.1904   -7.4094 N   0  0  0  0  0  0  0  0  0  0  0  0
   16.9417  -27.5251   -5.6670 C   0  0  0  0  0  0  0  0  0  0  0  0
   15.7458  -27.7470   -5.2864 O   0  0  0  0  0  0  0  0  0  0  0  0
   20.4658  -27.8436   -1.3216 C   0  0  0  0  0  0  0  0  0  0  0  0
   19.3096  -27.8682   -2.2903 C   0  0  1  0  0  0  0  0  0  0  0  0
   18.2774  -28.8240   -1.6659 C   0  0  0  0  0  0  0  0  0  0  0  0
   18.6213  -26.5644   -2.4489 C   0  0  0  0  0  0  0  0  0  0  0  0
   17.4601  -26.5643   -3.4104 C   0  0  2  0  0  0  0  0  0  0  0  0
   17.8676  -26.9853   -4.7402 N   0  0  0  0  0  0  0  0  0  0  0  0
   16.8389  -25.2194   -3.4971 C   0  0  0  0  0  0  0  0  0  0  0  0
   17.1874  -24.3863   -4.3963 O   0  0  0  0  0  0  0  0  0  0  0  0
   15.8387  -24.7635   -2.6166 N   0  0  0  0  0  0  0  0  0  0  0  0
   15.0595  -23.5447   -2.8915 C   0  0  1  0  0  0  0  0  0  0  0  0
   14.3307  -23.6655   -4.1777 C   0  0  0  0  0  0  0  0  0  0  0  0
   13.3985  -22.5103   -4.4010 C   0  0  0  0  0  0  0  0  0  0  0  0
   12.6469  -22.5799   -5.6619 C   0  0  0  0  0  0  0  0  0  0  0  0
   12.7397  -23.5945   -6.3882 O   0  0  0  0  0  0  0  0  0  0  0  0
   14.1073  -23.4470   -1.7608 C   0  0  0  0  0  0  0  0  0  0  0  0
   13.5420  -24.4913   -1.2631 O   0  0  0  0  0  0  0  0  0  0  0  0
   11.8328  -21.5256   -6.0544 O   0  0  0  0  0  0  0  0  0  0  0  0
   13.7677  -22.2477   -1.1704 O   0  0  0  0  0  0  0  0  0  0  0  0
  2  1  1  0
  2  3  2  0
  4  2  1  0
  5  4  1  0
  6  8  1  0
  6  5  1  0
  6  7  1  6
  8 15  1  0
  9  8  2  0
 11 10  1  1
 12 11  1  0
 14 13  1  1
 13 11  1  0
 14 16  1  0
 15 14  1  0
 16 18  1  0
 17 16  2  0
 18 19  1  0
 19 24  1  0
 19 20  1  6
 21 20  1  0
 22 23  2  0
 22 21  1  0
 24 25  2  0
 24 27  1  0
 26 22  1  0
M  END
$$$$
