QLE.pdb
     RDKit          3D

 27 26  0  0  1  0  0  0  0  0999 V2000
   26.1569  -17.4923  -16.8752 N   0  0  0  0  0  0  0  0  0  0  0  0
   27.0567  -18.1350  -17.7594 C   0  0  0  0  0  0  0  0  0  0  0  0
   27.8990  -17.4766  -18.4102 O   0  0  0  0  0  0  0  0  0  0  0  0
   27.0009  -19.5968  -17.9161 C   0  0  0  0  0  0  0  0  0  0  0  0
   25.9282  -20.1854  -17.0209 C   0  0  0  0  0  0  0  0  0  0  0  0
   26.5864  -20.4649  -15.6840 C   0  0  2  0  0  0  0  0  0  0  0  0
   27.5961  -21.4750  -15.8453 N   0  0  0  0  0  0  0  0  0  0  0  0
   25.5436  -20.8865  -14.7189 C   0  0  0  0  0  0  0  0  0  0  0  0
   24.6204  -21.6312  -15.1850 O   0  0  0  0  0  0  0  0  0  0  0  0
   27.1152  -21.2531  -11.0572 C   0  0  0  0  0  0  0  0  0  0  0  0
   25.7606  -21.4011  -10.4099 C   0  0  1  0  0  0  0  0  0  0  0  0
   25.9305  -20.8502   -8.9829 C   0  0  0  0  0  0  0  0  0  0  0  0
   24.6929  -20.5887  -11.0413 C   0  0  0  0  0  0  0  0  0  0  0  0
   24.4066  -20.9152  -12.4850 C   0  0  2  0  0  0  0  0  0  0  0  0
   25.5077  -20.5253  -13.3493 N   0  0  0  0  0  0  0  0  0  0  0  0
   23.1663  -20.2449  -12.9482 C   0  0  0  0  0  0  0  0  0  0  0  0
   23.1960  -19.0773  -13.4578 O   0  0  0  0  0  0  0  0  0  0  0  0
   21.8868  -20.8277  -12.8657 N   0  0  0  0  0  0  0  0  0  0  0  0
   20.7362  -20.2817  -13.6047 C   0  0  1  0  0  0  0  0  0  0  0  0
   20.9905  -20.3058  -15.0658 C   0  0  0  0  0  0  0  0  0  0  0  0
   20.0884  -21.2753  -15.7727 C   0  0  0  0  0  0  0  0  0  0  0  0
   19.5294  -20.7664  -17.0330 C   0  0  0  0  0  0  0  0  0  0  0  0
   20.2952  -20.4112  -17.9565 O   0  0  0  0  0  0  0  0  0  0  0  0
   19.6093  -21.1784  -13.2575 C   0  0  0  0  0  0  0  0  0  0  0  0
   18.4045  -20.7370  -13.1505 O   0  0  0  0  0  0  0  0  0  0  0  0
   18.1546  -20.6764  -17.2069 O   0  0  0  0  0  0  0  0  0  0  0  0
   19.7708  -22.5292  -13.0307 O   0  0  0  0  0  0  0  0  0  0  0  0
  2  1  1  0
  2  3  2  0
  4  2  1  0
  5  4  1  0
  6  8  1  0
  6  5  1  0
  6  7  1  6
  8 15  1  0
  9  8  2  0
 11 10  1  6
 12 11  1  0
 14 13  1  1
 13 11  1  0
 14 16  1  0
 15 14  1  0
 16 18  1  0
 17 16  2  0
 18 19  1  0
 19 24  1  0
 19 20  1  6
 21 20  1  0
 22 23  2  0
 22 21  1  0
 24 25  2  0
 24 27  1  0
 26 22  1  0
M  END
$$$$
