QLE.pdb
     RDKit          3D

 27 26  0  0  1  0  0  0  0  0999 V2000
   17.2944  -11.3386  -19.4739 N   0  0  0  0  0  0  0  0  0  0  0  0
   17.1132  -12.6049  -18.8673 C   0  0  0  0  0  0  0  0  0  0  0  0
   17.2000  -13.6577  -19.5387 O   0  0  0  0  0  0  0  0  0  0  0  0
   16.8184  -12.6850  -17.4281 C   0  0  0  0  0  0  0  0  0  0  0  0
   16.7462  -11.2965  -16.8237 C   0  0  0  0  0  0  0  0  0  0  0  0
   16.5440  -11.4839  -15.3328 C   0  0  2  0  0  0  0  0  0  0  0  0
   15.5218  -12.4684  -15.1048 N   0  0  0  0  0  0  0  0  0  0  0  0
   16.1850  -10.1771  -14.7330 C   0  0  0  0  0  0  0  0  0  0  0  0
   14.9869   -9.7863  -14.9230 O   0  0  0  0  0  0  0  0  0  0  0  0
   16.1292   -8.4769   -9.6820 C   0  0  0  0  0  0  0  0  0  0  0  0
   15.8942   -8.6301  -11.1643 C   0  0  1  0  0  0  0  0  0  0  0  0
   14.5328   -7.9636  -11.4304 C   0  0  0  0  0  0  0  0  0  0  0  0
   16.8769   -7.9141  -12.0130 C   0  0  0  0  0  0  0  0  0  0  0  0
   16.6594   -8.0473  -13.4989 C   0  0  2  0  0  0  0  0  0  0  0  0
   17.0633   -9.3567  -13.9826 N   0  0  0  0  0  0  0  0  0  0  0  0
   17.4071   -7.0039  -14.2436 C   0  0  0  0  0  0  0  0  0  0  0  0
   18.6666   -7.0894  -14.4172 O   0  0  0  0  0  0  0  0  0  0  0  0
   16.8032   -5.8627  -14.8060 N   0  0  0  0  0  0  0  0  0  0  0  0
   17.5623   -4.9123  -15.6360 C   0  0  1  0  0  0  0  0  0  0  0  0
   16.6512   -4.1320  -16.5084 C   0  0  0  0  0  0  0  0  0  0  0  0
   16.8872   -4.4222  -17.9622 C   0  0  0  0  0  0  0  0  0  0  0  0
   15.6572   -4.5677  -18.7531 C   0  0  0  0  0  0  0  0  0  0  0  0
   14.5416   -4.4538  -18.1981 O   0  0  0  0  0  0  0  0  0  0  0  0
   18.2389   -4.0238  -14.6627 C   0  0  0  0  0  0  0  0  0  0  0  0
   18.0261   -4.1241  -13.3968 O   0  0  0  0  0  0  0  0  0  0  0  0
   15.7238   -4.8314  -20.1149 O   0  0  0  0  0  0  0  0  0  0  0  0
   19.1327   -3.0436  -15.0404 O   0  0  0  0  0  0  0  0  0  0  0  0
  2  1  1  0
  2  3  2  0
  4  2  1  0
  5  4  1  0
  6  8  1  0
  6  5  1  0
  6  7  1  6
  8 15  1  0
  9  8  2  0
 11 10  1  1
 12 11  1  0
 14 13  1  1
 13 11  1  0
 14 16  1  0
 15 14  1  0
 16 18  1  0
 17 16  2  0
 18 19  1  0
 19 24  1  0
 19 20  1  6
 21 20  1  0
 22 23  2  0
 22 21  1  0
 24 25  2  0
 24 27  1  0
 26 22  1  0
M  END
$$$$
