QLE.pdb
     RDKit          3D

 27 26  0  0  1  0  0  0  0  0999 V2000
   14.7661   -8.9714  -16.9511 N   0  0  0  0  0  0  0  0  0  0  0  0
   14.5242  -10.0922  -17.7816 C   0  0  0  0  0  0  0  0  0  0  0  0
   13.5144  -10.1394  -18.5195 O   0  0  0  0  0  0  0  0  0  0  0  0
   15.4723  -11.2172  -17.7772 C   0  0  0  0  0  0  0  0  0  0  0  0
   16.5773  -10.9752  -16.7678 C   0  0  0  0  0  0  0  0  0  0  0  0
   17.6987  -10.2782  -17.5131 C   0  0  2  0  0  0  0  0  0  0  0  0
   18.1322  -11.0996  -18.6100 N   0  0  0  0  0  0  0  0  0  0  0  0
   18.8049  -10.0080  -16.5645 C   0  0  0  0  0  0  0  0  0  0  0  0
   18.4813   -9.4129  -15.4850 O   0  0  0  0  0  0  0  0  0  0  0  0
   23.4663  -10.7321  -13.7967 C   0  0  0  0  0  0  0  0  0  0  0  0
   23.6288  -10.3036  -15.2341 C   0  0  1  0  0  0  0  0  0  0  0  0
   24.8525  -11.0796  -15.7529 C   0  0  0  0  0  0  0  0  0  0  0  0
   22.4967  -10.6829  -16.1134 C   0  0  0  0  0  0  0  0  0  0  0  0
   21.2091   -9.9415  -15.8579 C   0  0  2  0  0  0  0  0  0  0  0  0
   20.1614  -10.3590  -16.7743 N   0  0  0  0  0  0  0  0  0  0  0  0
   21.4038   -8.4754  -15.9803 C   0  0  0  0  0  0  0  0  0  0  0  0
   21.7018   -7.9385  -17.0969 O   0  0  0  0  0  0  0  0  0  0  0  0
   21.2787   -7.5789  -14.9014 N   0  0  0  0  0  0  0  0  0  0  0  0
   21.4712   -6.1289  -15.0710 C   0  0  1  0  0  0  0  0  0  0  0  0
   20.1727   -5.4494  -15.2996 C   0  0  0  0  0  0  0  0  0  0  0  0
   20.3426   -3.9690  -15.4808 C   0  0  0  0  0  0  0  0  0  0  0  0
   19.0941   -3.2530  -15.7783 C   0  0  0  0  0  0  0  0  0  0  0  0
   18.0306   -3.8929  -15.9364 O   0  0  0  0  0  0  0  0  0  0  0  0
   22.0759   -5.6804  -13.7951 C   0  0  0  0  0  0  0  0  0  0  0  0
   22.6686   -4.5419  -13.6933 O   0  0  0  0  0  0  0  0  0  0  0  0
   19.0858   -1.8686  -15.8857 O   0  0  0  0  0  0  0  0  0  0  0  0
   22.0438   -6.4400  -12.6444 O   0  0  0  0  0  0  0  0  0  0  0  0
  2  1  1  0
  2  3  2  0
  4  2  1  0
  5  4  1  0
  6  8  1  0
  6  5  1  0
  6  7  1  6
  8 15  1  0
  9  8  2  0
 11 10  1  1
 12 11  1  0
 14 13  1  6
 13 11  1  0
 14 16  1  0
 15 14  1  0
 16 18  1  0
 17 16  2  0
 18 19  1  0
 19 24  1  0
 19 20  1  1
 21 20  1  0
 22 23  2  0
 22 21  1  0
 24 25  2  0
 24 27  1  0
 26 22  1  0
M  END
$$$$
