QLE.pdb
     RDKit          3D

 27 26  0  0  1  0  0  0  0  0999 V2000
   26.1452  -33.2453   -3.8297 N   0  0  0  0  0  0  0  0  0  0  0  0
   24.7800  -32.8760   -3.8945 C   0  0  0  0  0  0  0  0  0  0  0  0
   24.1737  -32.8448   -4.9891 O   0  0  0  0  0  0  0  0  0  0  0  0
   24.0637  -32.5236   -2.6587 C   0  0  0  0  0  0  0  0  0  0  0  0
   24.9802  -32.6571   -1.4583 C   0  0  0  0  0  0  0  0  0  0  0  0
   24.1880  -32.1847   -0.2549 C   0  0  2  0  0  0  0  0  0  0  0  0
   23.7771  -30.8217   -0.4529 N   0  0  0  0  0  0  0  0  0  0  0  0
   25.0302  -32.3293    0.9560 C   0  0  0  0  0  0  0  0  0  0  0  0
   25.8802  -31.4015    1.1584 O   0  0  0  0  0  0  0  0  0  0  0  0
   23.4008  -32.4411    5.9215 C   0  0  0  0  0  0  0  0  0  0  0  0
   24.3565  -32.2865    4.7645 C   0  0  1  0  0  0  0  0  0  0  0  0
   25.5000  -31.4051    5.2978 C   0  0  0  0  0  0  0  0  0  0  0  0
   24.9853  -33.5542    4.3214 C   0  0  0  0  0  0  0  0  0  0  0  0
   25.8008  -33.4587    3.0570 C   0  0  2  0  0  0  0  0  0  0  0  0
   24.9535  -33.4025    1.8778 N   0  0  0  0  0  0  0  0  0  0  0  0
   26.7290  -34.6099    2.9322 C   0  0  0  0  0  0  0  0  0  0  0  0
   26.3505  -35.7121    2.4166 O   0  0  0  0  0  0  0  0  0  0  0  0
   28.0700  -34.5812    3.3615 N   0  0  0  0  0  0  0  0  0  0  0  0
   28.9640  -35.7389    3.1923 C   0  0  1  0  0  0  0  0  0  0  0  0
   30.3782  -35.3471    3.4081 C   0  0  0  0  0  0  0  0  0  0  0  0
   31.3009  -36.5290    3.3388 C   0  0  0  0  0  0  0  0  0  0  0  0
   32.7200  -36.1756    3.1931 C   0  0  0  0  0  0  0  0  0  0  0  0
   33.0554  -34.9756    3.0796 O   0  0  0  0  0  0  0  0  0  0  0  0
   28.5269  -36.7032    4.2285 C   0  0  0  0  0  0  0  0  0  0  0  0
   28.0927  -36.3101    5.3752 O   0  0  0  0  0  0  0  0  0  0  0  0
   33.6935  -37.1657    3.1802 O   0  0  0  0  0  0  0  0  0  0  0  0
   28.5525  -38.0689    4.0378 O   0  0  0  0  0  0  0  0  0  0  0  0
  2  1  1  0
  2  3  2  0
  4  2  1  0
  5  4  1  0
  6  8  1  0
  6  5  1  0
  6  7  1  6
  8 15  1  0
  9  8  2  0
 11 10  1  1
 12 11  1  0
 14 13  1  1
 13 11  1  0
 14 16  1  0
 15 14  1  0
 16 18  1  0
 17 16  2  0
 18 19  1  0
 19 24  1  0
 19 20  1  1
 21 20  1  0
 22 23  2  0
 22 21  1  0
 24 25  2  0
 24 27  1  0
 26 22  1  0
M  END
$$$$
