QLE.pdb
     RDKit          3D

 27 26  0  0  1  0  0  0  0  0999 V2000
   22.2195  -16.2725  -15.4239 N   0  0  0  0  0  0  0  0  0  0  0  0
   22.3318  -16.4229  -16.8272 C   0  0  0  0  0  0  0  0  0  0  0  0
   22.5694  -15.4380  -17.5622 O   0  0  0  0  0  0  0  0  0  0  0  0
   22.1667  -17.7546  -17.4302 C   0  0  0  0  0  0  0  0  0  0  0  0
   21.9369  -18.7986  -16.3551 C   0  0  0  0  0  0  0  0  0  0  0  0
   23.3037  -19.3280  -15.9675 C   0  0  2  0  0  0  0  0  0  0  0  0
   23.8725  -20.0499  -17.0726 N   0  0  0  0  0  0  0  0  0  0  0  0
   23.1585  -20.1901  -14.7707 C   0  0  0  0  0  0  0  0  0  0  0  0
   22.5510  -21.2960  -14.9502 O   0  0  0  0  0  0  0  0  0  0  0  0
   26.0190  -21.7666  -11.5717 C   0  0  0  0  0  0  0  0  0  0  0  0
   24.9729  -21.3156  -10.5826 C   0  0  1  0  0  0  0  0  0  0  0  0
   25.7588  -20.6753   -9.4245 C   0  0  0  0  0  0  0  0  0  0  0  0
   24.0641  -20.2625  -11.0962 C   0  0  0  0  0  0  0  0  0  0  0  0
   23.2545  -20.6484  -12.3081 C   0  0  2  0  0  0  0  0  0  0  0  0
   23.6382  -19.8733  -13.4758 N   0  0  0  0  0  0  0  0  0  0  0  0
   21.8028  -20.4653  -12.0607 C   0  0  0  0  0  0  0  0  0  0  0  0
   21.2977  -19.3045  -11.9147 O   0  0  0  0  0  0  0  0  0  0  0  0
   20.8863  -21.5307  -11.9692 N   0  0  0  0  0  0  0  0  0  0  0  0
   19.4476  -21.3007  -11.7560 C   0  0  1  0  0  0  0  0  0  0  0  0
   18.6791  -21.5986  -12.9891 C   0  0  0  0  0  0  0  0  0  0  0  0
   18.7965  -23.0420  -13.3842 C   0  0  0  0  0  0  0  0  0  0  0  0
   17.9923  -23.4111  -14.5576 C   0  0  0  0  0  0  0  0  0  0  0  0
   17.2294  -22.5687  -15.0808 O   0  0  0  0  0  0  0  0  0  0  0  0
   19.0758  -22.2389  -10.6715 C   0  0  0  0  0  0  0  0  0  0  0  0
   17.9177  -22.1961  -10.1103 O   0  0  0  0  0  0  0  0  0  0  0  0
   18.0729  -24.6906  -15.0911 O   0  0  0  0  0  0  0  0  0  0  0  0
   19.9318  -23.2107  -10.1970 O   0  0  0  0  0  0  0  0  0  0  0  0
  2  1  1  0
  2  3  2  0
  4  2  1  0
  5  4  1  0
  6  8  1  0
  6  5  1  0
  6  7  1  6
  8 15  1  0
  9  8  2  0
 11 10  1  6
 12 11  1  0
 14 13  1  1
 13 11  1  0
 14 16  1  0
 15 14  1  0
 16 18  1  0
 17 16  2  0
 18 19  1  0
 19 24  1  0
 19 20  1  6
 21 20  1  0
 22 23  2  0
 22 21  1  0
 24 25  2  0
 24 27  1  0
 26 22  1  0
M  END
$$$$
