QLE.pdb
     RDKit          3D

 27 26  0  0  1  0  0  0  0  0999 V2000
   26.8080  -19.9423  -19.1662 N   0  0  0  0  0  0  0  0  0  0  0  0
   28.0337  -20.6326  -19.0062 C   0  0  0  0  0  0  0  0  0  0  0  0
   28.9680  -20.4820  -19.8253 O   0  0  0  0  0  0  0  0  0  0  0  0
   28.2119  -21.5399  -17.8618 C   0  0  0  0  0  0  0  0  0  0  0  0
   26.9032  -21.7176  -17.1173 C   0  0  0  0  0  0  0  0  0  0  0  0
   26.8139  -20.5775  -16.1219 C   0  0  2  0  0  0  0  0  0  0  0  0
   28.1366  -20.1297  -15.7815 N   0  0  0  0  0  0  0  0  0  0  0  0
   26.0731  -21.0460  -14.9267 C   0  0  0  0  0  0  0  0  0  0  0  0
   25.0858  -21.8203  -15.1504 O   0  0  0  0  0  0  0  0  0  0  0  0
   24.8785  -22.1032   -9.6096 C   0  0  0  0  0  0  0  0  0  0  0  0
   25.1131  -20.6687  -10.0137 C   0  0  1  0  0  0  0  0  0  0  0  0
   25.8299  -20.0216   -8.8153 C   0  0  0  0  0  0  0  0  0  0  0  0
   26.0207  -20.5047  -11.1748 C   0  0  0  0  0  0  0  0  0  0  0  0
   25.4590  -20.9595  -12.4979 C   0  0  2  0  0  0  0  0  0  0  0  0
   26.3830  -20.6985  -13.5886 N   0  0  0  0  0  0  0  0  0  0  0  0
   24.1663  -20.2906  -12.7875 C   0  0  0  0  0  0  0  0  0  0  0  0
   24.1001  -19.0318  -12.9746 O   0  0  0  0  0  0  0  0  0  0  0  0
   22.9375  -20.9728  -12.8775 N   0  0  0  0  0  0  0  0  0  0  0  0
   21.6785  -20.2683  -13.1717 C   0  0  1  0  0  0  0  0  0  0  0  0
   20.9978  -20.8746  -14.3418 C   0  0  0  0  0  0  0  0  0  0  0  0
   19.6873  -20.2034  -14.6339 C   0  0  0  0  0  0  0  0  0  0  0  0
   18.9479  -20.7931  -15.7587 C   0  0  0  0  0  0  0  0  0  0  0  0
   19.4131  -21.7882  -16.3577 O   0  0  0  0  0  0  0  0  0  0  0  0
   20.8606  -20.4378  -11.9482 C   0  0  0  0  0  0  0  0  0  0  0  0
   20.8786  -21.5331  -11.2714 O   0  0  0  0  0  0  0  0  0  0  0  0
   17.7341  -20.2529  -16.1628 O   0  0  0  0  0  0  0  0  0  0  0  0
   20.0375  -19.4469  -11.4554 O   0  0  0  0  0  0  0  0  0  0  0  0
  2  1  1  0
  2  3  2  0
  4  2  1  0
  5  4  1  0
  6  8  1  0
  6  5  1  0
  6  7  1  1
  8 15  1  0
  9  8  2  0
 11 10  1  1
 12 11  1  0
 14 13  1  1
 13 11  1  0
 14 16  1  0
 15 14  1  0
 16 18  1  0
 17 16  2  0
 18 19  1  0
 19 24  1  0
 19 20  1  6
 21 20  1  0
 22 23  2  0
 22 21  1  0
 24 25  2  0
 24 27  1  0
 26 22  1  0
M  END
$$$$
