QLE.pdb
     RDKit          3D

 27 26  0  0  1  0  0  0  0  0999 V2000
   16.7842  -21.9827    2.4942 N   0  0  0  0  0  0  0  0  0  0  0  0
   15.7456  -21.3798    1.7443 C   0  0  0  0  0  0  0  0  0  0  0  0
   14.8279  -22.0703    1.2465 O   0  0  0  0  0  0  0  0  0  0  0  0
   15.7447  -19.9219    1.5468 C   0  0  0  0  0  0  0  0  0  0  0  0
   16.8816  -19.2817    2.3189 C   0  0  0  0  0  0  0  0  0  0  0  0
   16.3057  -18.8408    3.6503 C   0  0  2  0  0  0  0  0  0  0  0  0
   14.9882  -18.3017    3.4511 N   0  0  0  0  0  0  0  0  0  0  0  0
   17.2172  -17.8414    4.2559 C   0  0  0  0  0  0  0  0  0  0  0  0
   18.4331  -18.2011    4.3847 O   0  0  0  0  0  0  0  0  0  0  0  0
   19.9126  -13.3945    5.3134 C   0  0  0  0  0  0  0  0  0  0  0  0
   18.4442  -13.2414    5.6241 C   0  0  1  0  0  0  0  0  0  0  0  0
   18.0530  -11.8618    5.0653 C   0  0  0  0  0  0  0  0  0  0  0  0
   17.5720  -14.2261    4.9398 C   0  0  0  0  0  0  0  0  0  0  0  0
   17.7688  -15.6601    5.3612 C   0  0  2  0  0  0  0  0  0  0  0  0
   16.8351  -16.5475    4.6887 N   0  0  0  0  0  0  0  0  0  0  0  0
   17.6101  -15.8119    6.8289 C   0  0  0  0  0  0  0  0  0  0  0  0
   16.4587  -15.7977    7.3748 O   0  0  0  0  0  0  0  0  0  0  0  0
   18.6898  -15.9801    7.7173 N   0  0  0  0  0  0  0  0  0  0  0  0
   18.4846  -16.1380    9.1669 C   0  0  1  0  0  0  0  0  0  0  0  0
   19.2682  -17.2850    9.6869 C   0  0  0  0  0  0  0  0  0  0  0  0
   18.6475  -18.5996    9.3127 C   0  0  0  0  0  0  0  0  0  0  0  0
   18.5878  -19.5709   10.4140 C   0  0  0  0  0  0  0  0  0  0  0  0
   19.6334  -20.1365   10.8041 O   0  0  0  0  0  0  0  0  0  0  0  0
   18.9700  -14.8673    9.7536 C   0  0  0  0  0  0  0  0  0  0  0  0
   19.6341  -14.0127    9.0560 O   0  0  0  0  0  0  0  0  0  0  0  0
   17.3769  -19.8663   11.0262 O   0  0  0  0  0  0  0  0  0  0  0  0
   18.7446  -14.5161   11.0682 O   0  0  0  0  0  0  0  0  0  0  0  0
  2  1  1  0
  2  3  2  0
  4  2  1  0
  5  4  1  0
  6  8  1  0
  6  5  1  0
  6  7  1  6
  8 15  1  0
  9  8  2  0
 11 10  1  6
 12 11  1  0
 14 13  1  1
 13 11  1  0
 14 16  1  0
 15 14  1  0
 16 18  1  0
 17 16  2  0
 18 19  1  0
 19 24  1  0
 19 20  1  1
 21 20  1  0
 22 23  2  0
 22 21  1  0
 24 25  2  0
 24 27  1  0
 26 22  1  0
M  END
$$$$
