QLE.pdb
     RDKit          3D

 27 26  0  0  1  0  0  0  0  0999 V2000
   27.8714  -18.4706  -16.4948 N   0  0  0  0  0  0  0  0  0  0  0  0
   27.2008  -19.6802  -16.7972 C   0  0  0  0  0  0  0  0  0  0  0  0
   26.0573  -19.6714  -17.3061 O   0  0  0  0  0  0  0  0  0  0  0  0
   27.8564  -20.9654  -16.5091 C   0  0  0  0  0  0  0  0  0  0  0  0
   27.0839  -21.7293  -15.4516 C   0  0  0  0  0  0  0  0  0  0  0  0
   26.8416  -20.7616  -14.3099 C   0  0  2  0  0  0  0  0  0  0  0  0
   28.1001  -20.2727  -13.8167 N   0  0  0  0  0  0  0  0  0  0  0  0
   26.0749  -21.4583  -13.2500 C   0  0  0  0  0  0  0  0  0  0  0  0
   25.2569  -22.3507  -13.6482 O   0  0  0  0  0  0  0  0  0  0  0  0
   25.1288  -19.2410   -8.2907 C   0  0  0  0  0  0  0  0  0  0  0  0
   26.0881  -20.0675   -9.1107 C   0  0  1  0  0  0  0  0  0  0  0  0
   27.2874  -20.3356   -8.1841 C   0  0  0  0  0  0  0  0  0  0  0  0
   25.5636  -21.3982   -9.5018 C   0  0  0  0  0  0  0  0  0  0  0  0
   25.1130  -21.5145  -10.9358 C   0  0  2  0  0  0  0  0  0  0  0  0
   26.1896  -21.2036  -11.8609 N   0  0  0  0  0  0  0  0  0  0  0  0
   23.9645  -20.6154  -11.2091 C   0  0  0  0  0  0  0  0  0  0  0  0
   23.8346  -19.5040  -10.5992 O   0  0  0  0  0  0  0  0  0  0  0  0
   22.9493  -20.9072  -12.1406 N   0  0  0  0  0  0  0  0  0  0  0  0
   21.8442  -19.9702  -12.4031 C   0  0  1  0  0  0  0  0  0  0  0  0
   21.5633  -19.8826  -13.8569 C   0  0  0  0  0  0  0  0  0  0  0  0
   21.1215  -21.2021  -14.4198 C   0  0  0  0  0  0  0  0  0  0  0  0
   20.8028  -21.1670  -15.8540 C   0  0  0  0  0  0  0  0  0  0  0  0
   20.8638  -20.0855  -16.4802 O   0  0  0  0  0  0  0  0  0  0  0  0
   20.6855  -20.5476  -11.6829 C   0  0  0  0  0  0  0  0  0  0  0  0
   19.6099  -19.8688  -11.4820 O   0  0  0  0  0  0  0  0  0  0  0  0
   20.4333  -22.3276  -16.5210 O   0  0  0  0  0  0  0  0  0  0  0  0
   20.6786  -21.8347  -11.1874 O   0  0  0  0  0  0  0  0  0  0  0  0
  2  1  1  0
  2  3  2  0
  4  2  1  0
  5  4  1  0
  6  8  1  0
  6  5  1  0
  6  7  1  1
  8 15  1  0
  9  8  2  0
 11 10  1  1
 12 11  1  0
 14 13  1  1
 13 11  1  0
 14 16  1  0
 15 14  1  0
 16 18  1  0
 17 16  2  0
 18 19  1  0
 19 24  1  0
 19 20  1  6
 21 20  1  0
 22 23  2  0
 22 21  1  0
 24 25  2  0
 24 27  1  0
 26 22  1  0
M  END
$$$$
