AFQ.pdb
     RDKit          3D

 26 26  0  0  1  0  0  0  0  0999 V2000
   35.2022  -24.7674  -22.7331 C   0  0  0  0  0  0  0  0  0  0  0  0
   36.3692  -24.4258  -21.8185 C   0  0  2  0  0  0  0  0  0  0  0  0
   37.5747  -24.7954  -22.5285 N   0  0  0  0  0  0  0  0  0  0  0  0
   36.2920  -25.2649  -20.5938 C   0  0  0  0  0  0  0  0  0  0  0  0
   36.7844  -26.4214  -20.5425 O   0  0  0  0  0  0  0  0  0  0  0  0
   35.6523  -24.7575  -19.4585 N   0  0  0  0  0  0  0  0  0  0  0  0
   35.6428  -25.5213  -18.2062 C   0  0  1  0  0  0  0  0  0  0  0  0
   35.5734  -24.5741  -17.0434 C   0  0  0  0  0  0  0  0  0  0  0  0
   35.4260  -25.2584  -15.7557 C   0  0  0  0  0  0  0  0  0  0  0  0
   36.4826  -25.6741  -14.9738 C   0  0  0  0  0  0  0  0  0  0  0  0
   36.3185  -26.2837  -13.7478 C   0  0  0  0  0  0  0  0  0  0  0  0
   35.0561  -26.5053  -13.2467 C   0  0  0  0  0  0  0  0  0  0  0  0
   33.9763  -26.1022  -14.0024 C   0  0  0  0  0  0  0  0  0  0  0  0
   34.1446  -25.4928  -15.2280 C   0  0  0  0  0  0  0  0  0  0  0  0
   34.5217  -26.4820  -18.2923 C   0  0  0  0  0  0  0  0  0  0  0  0
   33.3428  -26.0445  -18.4971 O   0  0  0  0  0  0  0  0  0  0  0  0
   30.9108  -28.5709  -21.0090 N   0  0  0  0  0  0  0  0  0  0  0  0
   30.9016  -29.8292  -20.3309 C   0  0  0  0  0  0  0  0  0  0  0  0
   29.8782  -30.5170  -20.4115 O   0  0  0  0  0  0  0  0  0  0  0  0
   32.0759  -30.2777  -19.5658 C   0  0  0  0  0  0  0  0  0  0  0  0
   33.1964  -29.2969  -19.4985 C   0  0  0  0  0  0  0  0  0  0  0  0
   33.5555  -28.8330  -18.1400 C   0  0  2  0  0  0  0  0  0  0  0  0
   34.6807  -27.8855  -18.1630 N   0  0  0  0  0  0  0  0  0  0  0  0
   33.7251  -29.8813  -17.1172 C   0  0  0  0  0  0  0  0  0  0  0  0
   34.7907  -30.0472  -16.4840 O   0  0  0  0  0  0  0  0  0  0  0  0
   32.6913  -30.7717  -16.7866 O   0  0  0  0  0  0  0  0  0  0  0  0
  2  1  1  6
  3  2  1  0
  4  5  2  0
  4  2  1  0
  6  4  1  0
  7  6  1  0
  7  8  1  1
  8  9  1  0
  9 10  2  0
  9 14  1  0
 10 11  1  0
 11 12  2  0
 13 12  1  0
 14 13  2  0
 15 16  2  0
 15  7  1  0
 18 17  1  0
 19 18  2  0
 20 18  1  0
 22 21  1  6
 21 20  1  0
 22 23  1  0
 23 15  1  0
 24 22  1  0
 25 24  2  0
 26 24  1  0
M  END
$$$$
