AFQ.pdb
     RDKit          3D

 26 26  0  0  1  0  0  0  0  0999 V2000
   23.8036  -20.5510  -12.6698 C   0  0  0  0  0  0  0  0  0  0  0  0
   25.3065  -20.6360  -12.4486 C   0  0  2  0  0  0  0  0  0  0  0  0
   25.7891  -21.7114  -13.2880 N   0  0  0  0  0  0  0  0  0  0  0  0
   25.5717  -21.0133  -11.0354 C   0  0  0  0  0  0  0  0  0  0  0  0
   25.3252  -22.1646  -10.5922 O   0  0  0  0  0  0  0  0  0  0  0  0
   26.1129  -20.0615  -10.1654 N   0  0  0  0  0  0  0  0  0  0  0  0
   26.4064  -20.4100   -8.7710 C   0  0  1  0  0  0  0  0  0  0  0  0
   27.4644  -19.4882   -8.2373 C   0  0  0  0  0  0  0  0  0  0  0  0
   27.7212  -19.6786   -6.8070 C   0  0  0  0  0  0  0  0  0  0  0  0
   27.9782  -20.9000   -6.2218 C   0  0  0  0  0  0  0  0  0  0  0  0
   28.2529  -21.0492   -4.8787 C   0  0  0  0  0  0  0  0  0  0  0  0
   28.2811  -19.9505   -4.0503 C   0  0  0  0  0  0  0  0  0  0  0  0
   28.0286  -18.7131   -4.6022 C   0  0  0  0  0  0  0  0  0  0  0  0
   27.7542  -18.5683   -5.9459 C   0  0  0  0  0  0  0  0  0  0  0  0
   25.1236  -20.3746   -8.0357 C   0  0  0  0  0  0  0  0  0  0  0  0
   24.3324  -19.3919   -8.2133 O   0  0  0  0  0  0  0  0  0  0  0  0
   20.5102  -24.1704   -7.7332 N   0  0  0  0  0  0  0  0  0  0  0  0
   20.1737  -23.2907   -6.6581 C   0  0  0  0  0  0  0  0  0  0  0  0
   19.0469  -23.3956   -6.1620 O   0  0  0  0  0  0  0  0  0  0  0  0
   21.1440  -22.2983   -6.1690 C   0  0  0  0  0  0  0  0  0  0  0  0
   22.4465  -22.2801   -6.8937 C   0  0  0  0  0  0  0  0  0  0  0  0
   23.4539  -21.3319   -6.3684 C   0  0  2  0  0  0  0  0  0  0  0  0
   24.7101  -21.3868   -7.1323 N   0  0  0  0  0  0  0  0  0  0  0  0
   23.6806  -21.3627   -4.9120 C   0  0  0  0  0  0  0  0  0  0  0  0
   24.6995  -21.8690   -4.3931 O   0  0  0  0  0  0  0  0  0  0  0  0
   22.7562  -20.8222   -4.0041 O   0  0  0  0  0  0  0  0  0  0  0  0
  2  1  1  1
  3  2  1  0
  4  5  2  0
  4  2  1  0
  6  4  1  0
  7  6  1  0
  7  8  1  1
  8  9  1  0
  9 10  2  0
  9 14  1  0
 10 11  1  0
 11 12  2  0
 13 12  1  0
 14 13  2  0
 15 16  2  0
 15  7  1  0
 18 17  1  0
 19 18  2  0
 20 18  1  0
 22 21  1  6
 21 20  1  0
 22 23  1  0
 23 15  1  0
 24 22  1  0
 25 24  2  0
 26 24  1  0
M  END
$$$$
