AFQ.pdb
     RDKit          3D

 26 26  0  0  1  0  0  0  0  0999 V2000
   27.0824  -20.9912  -18.7786 C   0  0  0  0  0  0  0  0  0  0  0  0
   28.0703  -21.1149  -17.6281 C   0  0  2  0  0  0  0  0  0  0  0  0
   28.9905  -22.1737  -17.9833 N   0  0  0  0  0  0  0  0  0  0  0  0
   27.3432  -21.5413  -16.4036 C   0  0  0  0  0  0  0  0  0  0  0  0
   27.2144  -22.7525  -16.0890 O   0  0  0  0  0  0  0  0  0  0  0  0
   26.7819  -20.5687  -15.5700 N   0  0  0  0  0  0  0  0  0  0  0  0
   26.1279  -20.9527  -14.3144 C   0  0  1  0  0  0  0  0  0  0  0  0
   26.5562  -20.0171  -13.2211 C   0  0  0  0  0  0  0  0  0  0  0  0
   25.8845  -20.2816  -11.9456 C   0  0  0  0  0  0  0  0  0  0  0  0
   26.4564  -20.9697  -10.8968 C   0  0  0  0  0  0  0  0  0  0  0  0
   25.8172  -21.1744   -9.6922 C   0  0  0  0  0  0  0  0  0  0  0  0
   24.5475  -20.6841   -9.4885 C   0  0  0  0  0  0  0  0  0  0  0  0
   23.9454  -19.9909  -10.5163 C   0  0  0  0  0  0  0  0  0  0  0  0
   24.5880  -19.7883  -11.7195 C   0  0  0  0  0  0  0  0  0  0  0  0
   24.6721  -20.9793  -14.5740 C   0  0  0  0  0  0  0  0  0  0  0  0
   24.1317  -20.0004  -15.1847 O   0  0  0  0  0  0  0  0  0  0  0  0
   21.1897  -25.6314  -16.5700 N   0  0  0  0  0  0  0  0  0  0  0  0
   21.9411  -25.7678  -15.3618 C   0  0  0  0  0  0  0  0  0  0  0  0
   22.2431  -26.9100  -14.9997 O   0  0  0  0  0  0  0  0  0  0  0  0
   22.3343  -24.5815  -14.5848 C   0  0  0  0  0  0  0  0  0  0  0  0
   21.9739  -23.2745  -15.2043 C   0  0  0  0  0  0  0  0  0  0  0  0
   22.3772  -22.0743  -14.4383 C   0  0  2  0  0  0  0  0  0  0  0  0
   23.8256  -22.0478  -14.1821 N   0  0  0  0  0  0  0  0  0  0  0  0
   21.5876  -21.7774  -13.2292 C   0  0  0  0  0  0  0  0  0  0  0  0
   20.3631  -21.5258  -13.2617 O   0  0  0  0  0  0  0  0  0  0  0  0
   22.1662  -21.7553  -11.9502 O   0  0  0  0  0  0  0  0  0  0  0  0
  2  1  1  6
  3  2  1  0
  4  5  2  0
  4  2  1  0
  6  4  1  0
  7  6  1  0
  7  8  1  1
  8  9  1  0
  9 10  2  0
  9 14  1  0
 10 11  1  0
 11 12  2  0
 13 12  1  0
 14 13  2  0
 15 16  2  0
 15  7  1  0
 18 17  1  0
 19 18  2  0
 20 18  1  0
 22 21  1  1
 21 20  1  0
 22 23  1  0
 23 15  1  0
 24 22  1  0
 25 24  2  0
 26 24  1  0
M  END
$$$$
