AFQ.pdb
     RDKit          3D

 26 26  0  0  1  0  0  0  0  0999 V2000
   21.6095  -36.0231   -4.7002 C   0  0  0  0  0  0  0  0  0  0  0  0
   22.1505  -35.0320   -5.7199 C   0  0  2  0  0  0  0  0  0  0  0  0
   21.7017  -35.4862   -7.0185 N   0  0  0  0  0  0  0  0  0  0  0  0
   23.6362  -35.0853   -5.7123 C   0  0  0  0  0  0  0  0  0  0  0  0
   24.2792  -35.9320   -6.3847 O   0  0  0  0  0  0  0  0  0  0  0  0
   24.3477  -34.1666   -4.9342 N   0  0  0  0  0  0  0  0  0  0  0  0
   25.8143  -34.1868   -4.9145 C   0  0  1  0  0  0  0  0  0  0  0  0
   26.3381  -32.8293   -5.2844 C   0  0  0  0  0  0  0  0  0  0  0  0
   26.2006  -32.5324   -6.7130 C   0  0  0  0  0  0  0  0  0  0  0  0
   27.0179  -33.0515   -7.6944 C   0  0  0  0  0  0  0  0  0  0  0  0
   26.8459  -32.7859   -9.0366 C   0  0  0  0  0  0  0  0  0  0  0  0
   25.8213  -31.9684   -9.4562 C   0  0  0  0  0  0  0  0  0  0  0  0
   24.9847  -31.4320   -8.5013 C   0  0  0  0  0  0  0  0  0  0  0  0
   25.1600  -31.7001   -7.1600 C   0  0  0  0  0  0  0  0  0  0  0  0
   26.2236  -34.6670   -3.5769 C   0  0  0  0  0  0  0  0  0  0  0  0
   25.7626  -34.0870   -2.5404 O   0  0  0  0  0  0  0  0  0  0  0  0
   26.0826  -39.6273   -0.9850 N   0  0  0  0  0  0  0  0  0  0  0  0
   27.2342  -39.2609   -0.2217 C   0  0  0  0  0  0  0  0  0  0  0  0
   27.3842  -39.7945    0.8827 O   0  0  0  0  0  0  0  0  0  0  0  0
   28.1993  -38.2802   -0.7436 C   0  0  0  0  0  0  0  0  0  0  0  0
   27.8428  -37.6862   -2.0635 C   0  0  0  0  0  0  0  0  0  0  0  0
   27.5023  -36.2462   -2.0422 C   0  0  2  0  0  0  0  0  0  0  0  0
   27.1101  -35.7552   -3.3724 N   0  0  0  0  0  0  0  0  0  0  0  0
   28.4733  -35.3568   -1.3792 C   0  0  0  0  0  0  0  0  0  0  0  0
   29.3434  -34.7131   -2.0055 O   0  0  0  0  0  0  0  0  0  0  0  0
   28.4854  -35.1754    0.0129 O   0  0  0  0  0  0  0  0  0  0  0  0
  2  1  1  1
  3  2  1  0
  4  5  2  0
  4  2  1  0
  6  4  1  0
  7  6  1  0
  7  8  1  1
  8  9  1  0
  9 10  2  0
  9 14  1  0
 10 11  1  0
 11 12  2  0
 13 12  1  0
 14 13  2  0
 15 16  2  0
 15  7  1  0
 18 17  1  0
 19 18  2  0
 20 18  1  0
 22 21  1  6
 21 20  1  0
 22 23  1  0
 23 15  1  0
 24 22  1  0
 25 24  2  0
 26 24  1  0
M  END
$$$$
