ARS.pdb
     RDKit          3D

 23 22  0  0  1  0  0  0  0  0999 V2000
   11.9628  -23.0444   45.4076 C   0  0  0  0  0  0  0  0  0  0  0  0
   11.5612  -24.4748   45.6689 C   0  0  2  0  0  0  0  0  0  0  0  0
   12.1852  -25.0187   46.8338 N   0  0  0  0  0  0  0  0  0  0  0  0
   11.7441  -25.3346   44.4676 C   0  0  0  0  0  0  0  0  0  0  0  0
   12.8726  -25.7800   44.1364 O   0  0  0  0  0  0  0  0  0  0  0  0
    5.5932  -28.1580   39.0743 N   0  0  0  0  0  0  0  0  0  0  0  0
    6.5776  -27.2183   38.6111 C   0  0  0  0  0  0  0  0  0  0  0  0
    6.2961  -26.4870   37.5937 N   0  0  0  0  0  0  0  0  0  0  0  0
    7.8274  -27.1084   39.2674 N   0  0  0  0  0  0  0  0  0  0  0  0
    8.3527  -28.1987   40.0490 C   0  0  0  0  0  0  0  0  0  0  0  0
    9.7142  -27.8236   40.6404 C   0  0  0  0  0  0  0  0  0  0  0  0
    9.5183  -26.8146   41.7531 C   0  0  0  0  0  0  0  0  0  0  0  0
   10.8253  -26.4565   42.4024 C   0  0  2  0  0  0  0  0  0  0  0  0
   10.6587  -25.7028   43.6250 N   0  0  0  0  0  0  0  0  0  0  0  0
   11.8028  -25.8605   41.4897 C   0  0  0  0  0  0  0  0  0  0  0  0
   11.8793  -24.6147   41.4099 O   0  0  0  0  0  0  0  0  0  0  0  0
    7.0035  -25.7961   37.2704 O   0  0  0  0  0  0  0  0  0  0  0  0
   15.6984  -24.8677   39.7938 C   0  0  0  0  0  0  0  0  0  0  0  0
   14.7409  -25.3395   40.6926 C   0  0  2  0  0  0  0  0  0  0  0  0
   13.7566  -26.1593   39.9410 N   0  0  0  0  0  0  0  0  0  0  0  0
   12.6582  -26.6442   40.6998 C   0  0  0  0  0  0  0  0  0  0  0  0
   14.4932  -27.2760   39.2882 O   0  0  0  0  0  0  0  0  0  0  0  0
   14.3693  -28.4252   39.7870 O   0  0  0  0  0  0  0  0  0  0  0  0
  2  1  1  6
  2  3  1  0
  4  2  1  0
  4  5  2  0
  6  7  1  0
  7  8  2  0
  7  9  1  0
  9 10  1  0
 10 11  1  0
 11 12  1  0
 13 12  1  6
 13 15  1  0
 13 14  1  0
 14  4  1  0
 15 20  1  0
 16 15  2  0
 18 17  1  0
 19 18  1  6
 19 21  1  0
 20 19  1  0
 21 22  2  0
 21 23  1  0
M  END
$$$$
