ARS.pdb
     RDKit          3D

 23 22  0  0  1  0  0  0  0  0999 V2000
    8.0872  -12.3889   19.4849 C   0  0  0  0  0  0  0  0  0  0  0  0
    8.6027  -13.3913   18.4824 C   0  0  2  0  0  0  0  0  0  0  0  0
    7.6727  -13.6441   17.4273 N   0  0  0  0  0  0  0  0  0  0  0  0
    9.0796  -14.6406   19.1364 C   0  0  0  0  0  0  0  0  0  0  0  0
    8.3685  -15.6768   19.1852 O   0  0  0  0  0  0  0  0  0  0  0  0
   14.5557  -14.5723   16.4244 N   0  0  0  0  0  0  0  0  0  0  0  0
   15.4737  -14.5214   17.5297 C   0  0  0  0  0  0  0  0  0  0  0  0
   16.3352  -13.5699   17.5678 N   0  0  0  0  0  0  0  0  0  0  0  0
   15.4226  -15.5030   18.5488 N   0  0  0  0  0  0  0  0  0  0  0  0
   14.2806  -16.3704   18.6861 C   0  0  0  0  0  0  0  0  0  0  0  0
   13.1653  -15.6649   19.4624 C   0  0  0  0  0  0  0  0  0  0  0  0
   11.9707  -16.5891   19.5779 C   0  0  0  0  0  0  0  0  0  0  0  0
   10.8578  -15.9489   20.3587 C   0  0  2  0  0  0  0  0  0  0  0  0
   10.3625  -14.7380   19.7433 N   0  0  0  0  0  0  0  0  0  0  0  0
   11.1425  -15.7919   21.7863 C   0  0  0  0  0  0  0  0  0  0  0  0
   11.9956  -14.9516   22.1473 O   0  0  0  0  0  0  0  0  0  0  0  0
   16.9754  -13.5148   18.3859 O   0  0  0  0  0  0  0  0  0  0  0  0
    8.7866  -17.7240   24.5329 C   0  0  0  0  0  0  0  0  0  0  0  0
    9.5614  -16.6790   25.0377 C   0  0  1  0  0  0  0  0  0  0  0  0
   10.7474  -16.5089   24.1601 N   0  0  0  0  0  0  0  0  0  0  0  0
   10.4876  -16.5560   22.7646 C   0  0  0  0  0  0  0  0  0  0  0  0
   11.7586  -17.5282   24.5530 O   0  0  0  0  0  0  0  0  0  0  0  0
   12.1528  -18.3292   23.6655 O   0  0  0  0  0  0  0  0  0  0  0  0
  2  1  1  1
  2  3  1  0
  4  2  1  0
  4  5  2  0
  6  7  1  0
  7  8  2  0
  7  9  1  0
  9 10  1  0
 10 11  1  0
 11 12  1  0
 13 12  1  6
 13 15  1  0
 13 14  1  0
 14  4  1  0
 15 20  1  0
 16 15  2  0
 18 17  1  0
 19 18  1  6
 19 21  1  0
 20 19  1  0
 21 22  2  0
 21 23  1  0
M  END
$$$$
