ARS.pdb
     RDKit          3D

 23 22  0  0  1  0  0  0  0  0999 V2000
   12.0259  -18.1010   17.3013 C   0  0  0  0  0  0  0  0  0  0  0  0
   11.4488  -18.6835   18.5676 C   0  0  2  0  0  0  0  0  0  0  0  0
   10.2379  -19.4072   18.3397 N   0  0  0  0  0  0  0  0  0  0  0  0
   11.3110  -17.6608   19.6404 C   0  0  0  0  0  0  0  0  0  0  0  0
   12.3073  -17.0537   20.1100 O   0  0  0  0  0  0  0  0  0  0  0  0
    8.7641  -12.5887   17.8224 N   0  0  0  0  0  0  0  0  0  0  0  0
    7.6624  -13.4704   17.5475 C   0  0  0  0  0  0  0  0  0  0  0  0
    7.4593  -13.8378   16.3339 N   0  0  0  0  0  0  0  0  0  0  0  0
    6.8243  -13.9183   18.5972 N   0  0  0  0  0  0  0  0  0  0  0  0
    7.2719  -13.8906   19.9663 C   0  0  0  0  0  0  0  0  0  0  0  0
    8.6466  -14.5530   20.0915 C   0  0  0  0  0  0  0  0  0  0  0  0
    8.6067  -15.5891   21.1958 C   0  0  0  0  0  0  0  0  0  0  0  0
    9.8969  -16.3556   21.2728 C   0  0  2  0  0  0  0  0  0  0  0  0
   10.0500  -17.3098   20.1974 N   0  0  0  0  0  0  0  0  0  0  0  0
   10.1744  -16.9281   22.5916 C   0  0  0  0  0  0  0  0  0  0  0  0
    9.5253  -17.9283   22.9689 O   0  0  0  0  0  0  0  0  0  0  0  0
    6.7217  -14.5477   16.1489 O   0  0  0  0  0  0  0  0  0  0  0  0
   13.7977  -17.0102   24.2290 C   0  0  0  0  0  0  0  0  0  0  0  0
   12.8803  -16.5645   25.1813 C   0  0  2  0  0  0  0  0  0  0  0  0
   11.5141  -16.9139   24.7153 N   0  0  0  0  0  0  0  0  0  0  0  0
   11.1473  -16.3890   23.4475 C   0  0  0  0  0  0  0  0  0  0  0  0
   10.5494  -16.4964   25.7691 O   0  0  0  0  0  0  0  0  0  0  0  0
    9.5802  -15.7738   25.4178 O   0  0  0  0  0  0  0  0  0  0  0  0
  2  1  1  6
  2  3  1  0
  4  2  1  0
  4  5  2  0
  6  7  1  0
  7  8  2  0
  7  9  1  0
  9 10  1  0
 10 11  1  0
 11 12  1  0
 13 12  1  1
 13 15  1  0
 13 14  1  0
 14  4  1  0
 15 20  1  0
 16 15  2  0
 18 17  1  0
 19 18  1  6
 19 21  1  0
 20 19  1  0
 21 22  2  0
 21 23  1  0
M  END
$$$$
