ARS.pdb
     RDKit          3D

 23 22  0  0  1  0  0  0  0  0999 V2000
   10.8938  -21.8034   14.1566 C   0  0  0  0  0  0  0  0  0  0  0  0
   11.0167  -20.4098   14.7209 C   0  0  2  0  0  0  0  0  0  0  0  0
   12.1116  -19.6825   14.1603 N   0  0  0  0  0  0  0  0  0  0  0  0
   11.0317  -20.4093   16.2094 C   0  0  0  0  0  0  0  0  0  0  0  0
   10.9618  -19.3433   16.8730 O   0  0  0  0  0  0  0  0  0  0  0  0
    8.0711  -25.9588   22.4822 N   0  0  0  0  0  0  0  0  0  0  0  0
    8.6858  -24.8597   23.1757 C   0  0  0  0  0  0  0  0  0  0  0  0
    8.5999  -24.8176   24.4562 N   0  0  0  0  0  0  0  0  0  0  0  0
    9.3681  -23.8498   22.4549 N   0  0  0  0  0  0  0  0  0  0  0  0
    9.3581  -23.8318   21.0144 C   0  0  0  0  0  0  0  0  0  0  0  0
   10.2215  -22.6814   20.4894 C   0  0  0  0  0  0  0  0  0  0  0  0
   10.2459  -22.7215   18.9753 C   0  0  0  0  0  0  0  0  0  0  0  0
   11.1183  -21.6344   18.4139 C   0  0  2  0  0  0  0  0  0  0  0  0
   11.1259  -21.6089   16.9683 N   0  0  0  0  0  0  0  0  0  0  0  0
   12.4611  -21.5851   18.9956 C   0  0  0  0  0  0  0  0  0  0  0  0
   13.3174  -22.4153   18.6194 O   0  0  0  0  0  0  0  0  0  0  0  0
    9.1218  -24.0739   24.9628 O   0  0  0  0  0  0  0  0  0  0  0  0
   15.9315  -19.0766   20.9942 C   0  0  0  0  0  0  0  0  0  0  0  0
   14.5790  -19.0632   20.6512 C   0  0  2  0  0  0  0  0  0  0  0  0
   14.1152  -20.4678   20.5190 N   0  0  0  0  0  0  0  0  0  0  0  0
   12.8184  -20.6342   19.9640 C   0  0  0  0  0  0  0  0  0  0  0  0
   14.2130  -21.1110   21.8579 O   0  0  0  0  0  0  0  0  0  0  0  0
   13.1376  -21.3787   22.4550 O   0  0  0  0  0  0  0  0  0  0  0  0
  2  1  1  6
  2  3  1  0
  4  2  1  0
  4  5  2  0
  6  7  1  0
  7  8  2  0
  7  9  1  0
  9 10  1  0
 10 11  1  0
 11 12  1  0
 13 12  1  6
 13 15  1  0
 13 14  1  0
 14  4  1  0
 15 20  1  0
 16 15  2  0
 18 17  1  0
 19 18  1  6
 19 21  1  0
 20 19  1  0
 21 22  2  0
 21 23  1  0
M  END
$$$$
