ARS.pdb
     RDKit          3D

 23 22  0  0  1  0  0  0  0  0999 V2000
    8.6502  -19.9867   19.4983 C   0  0  0  0  0  0  0  0  0  0  0  0
    8.9108  -18.5315   19.1985 C   0  0  2  0  0  0  0  0  0  0  0  0
    9.8306  -18.3467   18.1205 N   0  0  0  0  0  0  0  0  0  0  0  0
    9.2981  -17.7706   20.4179 C   0  0  0  0  0  0  0  0  0  0  0  0
   10.5002  -17.6382   20.7631 O   0  0  0  0  0  0  0  0  0  0  0  0
    5.2970  -12.8772   26.6371 N   0  0  0  0  0  0  0  0  0  0  0  0
    6.6903  -12.5236   26.6193 C   0  0  0  0  0  0  0  0  0  0  0  0
    7.2187  -12.0588   27.6935 N   0  0  0  0  0  0  0  0  0  0  0  0
    7.4555  -12.6866   25.4391 N   0  0  0  0  0  0  0  0  0  0  0  0
    7.0055  -13.5499   24.3772 C   0  0  0  0  0  0  0  0  0  0  0  0
    8.0726  -14.5994   24.0545 C   0  0  0  0  0  0  0  0  0  0  0  0
    7.6519  -15.3838   22.8289 C   0  0  0  0  0  0  0  0  0  0  0  0
    8.6899  -16.4017   22.4487 C   0  0  2  0  0  0  0  0  0  0  0  0
    8.3367  -17.1502   21.2632 N   0  0  0  0  0  0  0  0  0  0  0  0
    9.1254  -17.2541   23.5567 C   0  0  0  0  0  0  0  0  0  0  0  0
    8.3408  -18.1200   24.0023 O   0  0  0  0  0  0  0  0  0  0  0  0
    8.2267  -11.8023   27.6779 O   0  0  0  0  0  0  0  0  0  0  0  0
   13.0742  -17.0616   24.9227 C   0  0  0  0  0  0  0  0  0  0  0  0
   12.3889  -18.2739   25.0113 C   0  0  1  0  0  0  0  0  0  0  0  0
   10.9376  -17.9838   25.1343 N   0  0  0  0  0  0  0  0  0  0  0  0
   10.3977  -17.1298   24.1360 C   0  0  0  0  0  0  0  0  0  0  0  0
   10.6928  -17.4383   26.4975 O   0  0  0  0  0  0  0  0  0  0  0  0
   10.1289  -16.3161   26.5828 O   0  0  0  0  0  0  0  0  0  0  0  0
  2  1  1  1
  2  3  1  0
  4  2  1  0
  4  5  2  0
  6  7  1  0
  7  8  2  0
  7  9  1  0
  9 10  1  0
 10 11  1  0
 11 12  1  0
 13 12  1  1
 13 15  1  0
 13 14  1  0
 14  4  1  0
 15 20  1  0
 16 15  2  0
 18 17  1  0
 19 18  1  6
 19 21  1  0
 20 19  1  0
 21 22  2  0
 21 23  1  0
M  END
$$$$
