ARS.pdb
     RDKit          3D

 23 22  0  0  1  0  0  0  0  0999 V2000
    6.8793  -13.2325   18.6787 C   0  0  0  0  0  0  0  0  0  0  0  0
    8.3250  -13.2379   19.1097 C   0  0  2  0  0  0  0  0  0  0  0  0
    9.2246  -12.9997   18.0251 N   0  0  0  0  0  0  0  0  0  0  0  0
    8.6725  -14.4613   19.8833 C   0  0  0  0  0  0  0  0  0  0  0  0
    7.9066  -14.9287   20.7645 O   0  0  0  0  0  0  0  0  0  0  0  0
   10.0969  -20.3098   17.1623 N   0  0  0  0  0  0  0  0  0  0  0  0
   10.3030  -21.1925   18.2782 C   0  0  0  0  0  0  0  0  0  0  0  0
    9.5683  -22.2414   18.3740 N   0  0  0  0  0  0  0  0  0  0  0  0
   11.2954  -20.9038   19.2459 N   0  0  0  0  0  0  0  0  0  0  0  0
   11.9715  -19.6317   19.2577 C   0  0  0  0  0  0  0  0  0  0  0  0
   11.2667  -18.6618   20.2099 C   0  0  0  0  0  0  0  0  0  0  0  0
   11.0036  -17.3543   19.4917 C   0  0  0  0  0  0  0  0  0  0  0  0
   10.2046  -16.4121   20.3473 C   0  0  2  0  0  0  0  0  0  0  0  0
    9.8866  -15.1726   19.6741 N   0  0  0  0  0  0  0  0  0  0  0  0
   10.7540  -16.2113   21.6895 C   0  0  0  0  0  0  0  0  0  0  0  0
   11.8583  -15.6378   21.8149 O   0  0  0  0  0  0  0  0  0  0  0  0
    9.7503  -22.9029   19.1559 O   0  0  0  0  0  0  0  0  0  0  0  0
    8.6329  -15.3163   24.9021 C   0  0  0  0  0  0  0  0  0  0  0  0
    9.4659  -16.3929   25.2088 C   0  0  2  0  0  0  0  0  0  0  0  0
   10.5318  -16.4692   24.1774 N   0  0  0  0  0  0  0  0  0  0  0  0
   10.0797  -16.6432   22.8422 C   0  0  0  0  0  0  0  0  0  0  0  0
   11.4740  -17.5523   24.5709 O   0  0  0  0  0  0  0  0  0  0  0  0
   11.6822  -18.4736   23.7386 O   0  0  0  0  0  0  0  0  0  0  0  0
  2  1  1  6
  2  3  1  0
  4  2  1  0
  4  5  2  0
  6  7  1  0
  7  8  2  0
  7  9  1  0
  9 10  1  0
 10 11  1  0
 11 12  1  0
 13 12  1  6
 13 15  1  0
 13 14  1  0
 14  4  1  0
 15 20  1  0
 16 15  2  0
 18 17  1  0
 19 18  1  6
 19 21  1  0
 20 19  1  0
 21 22  2  0
 21 23  1  0
M  END
$$$$
