DLT.pdb
     RDKit          3D

 24 23  0  0  1  0  0  0  0  0999 V2000
   10.0201  -16.5564   16.5264 N   0  0  0  0  0  0  0  0  0  0  0  0
   11.2628  -16.7335   17.2052 C   0  0  1  0  0  0  0  0  0  0  0  0
   12.4254  -16.0751   16.4978 C   0  0  0  0  0  0  0  0  0  0  0  0
   12.6225  -16.6725   15.1511 C   0  0  0  0  0  0  0  0  0  0  0  0
   11.8542  -17.5692   14.7468 O   0  0  0  0  0  0  0  0  0  0  0  0
   11.1688  -16.1467   18.5569 C   0  0  0  0  0  0  0  0  0  0  0  0
   12.1645  -16.0218   19.2788 O   0  0  0  0  0  0  0  0  0  0  0  0
   13.6438  -16.2782   14.2906 O   0  0  0  0  0  0  0  0  0  0  0  0
    9.1058  -12.1092   19.5309 C   0  0  0  0  0  0  0  0  0  0  0  0
    8.2158  -13.3188   19.5234 C   0  0  2  0  0  0  0  0  0  0  0  0
    6.7676  -12.8786   19.8110 C   0  0  0  0  0  0  0  0  0  0  0  0
    8.5335  -14.3749   20.5075 C   0  0  0  0  0  0  0  0  0  0  0  0
    9.7967  -15.1448   20.3439 C   0  0  2  0  0  0  0  0  0  0  0  0
    9.9034  -15.7184   19.0319 N   0  0  0  0  0  0  0  0  0  0  0  0
   10.0062  -16.1720   21.3648 C   0  0  0  0  0  0  0  0  0  0  0  0
    9.3556  -17.2328   21.3398 O   0  0  0  0  0  0  0  0  0  0  0  0
   12.7896  -18.9131   23.7012 C   0  0  0  0  0  0  0  0  0  0  0  0
   12.2397  -17.9499   22.6709 C   0  0  1  0  0  0  0  0  0  0  0  0
   11.4708  -18.6944   21.7782 O   0  0  0  0  0  0  0  0  0  0  0  0
   11.2946  -16.9841   23.3678 C   0  0  2  0  0  0  0  0  0  0  0  0
   10.9532  -15.9618   22.3882 N   0  0  0  0  0  0  0  0  0  0  0  0
   11.9011  -16.3834   24.5765 C   0  0  0  0  0  0  0  0  0  0  0  0
   11.8775  -16.9527   25.8293 O   0  0  0  0  0  0  0  0  0  0  0  0
   12.4769  -15.2731   24.4379 O   0  0  0  0  0  0  0  0  0  0  0  0
  2  1  1  6
  2  3  1  0
  3  4  1  0
  4  8  1  0
  5  4  2  0
  6 14  1  0
  6  2  1  0
  7  6  2  0
 10  9  1  1
 10 12  1  0
 11 10  1  0
 13 12  1  1
 13 14  1  0
 15 16  2  0
 15 13  1  0
 18 17  1  1
 19 18  1  0
 20 18  1  0
 20 21  1  6
 21 15  1  0
 22 20  1  0
 23 22  1  0
 24 22  2  0
M  END
$$$$
