DLT.pdb
     RDKit          3D

 24 23  0  0  1  0  0  0  0  0999 V2000
   11.5129  -16.8505   16.3191 N   0  0  0  0  0  0  0  0  0  0  0  0
   10.4352  -17.1621   17.2010 C   0  0  1  0  0  0  0  0  0  0  0  0
   10.3688  -18.6285   17.5632 C   0  0  0  0  0  0  0  0  0  0  0  0
   10.1068  -19.4528   16.3545 C   0  0  0  0  0  0  0  0  0  0  0  0
    8.9586  -19.5006   15.8675 O   0  0  0  0  0  0  0  0  0  0  0  0
   10.5925  -16.3967   18.4539 C   0  0  0  0  0  0  0  0  0  0  0  0
   11.7072  -16.1687   18.9373 O   0  0  0  0  0  0  0  0  0  0  0  0
   11.0967  -20.1957   15.7163 O   0  0  0  0  0  0  0  0  0  0  0  0
    9.2856  -12.1480   19.5517 C   0  0  0  0  0  0  0  0  0  0  0  0
    8.2221  -13.2053   19.6320 C   0  0  2  0  0  0  0  0  0  0  0  0
    6.8842  -12.5438   20.0149 C   0  0  0  0  0  0  0  0  0  0  0  0
    8.4457  -14.2899   20.6109 C   0  0  0  0  0  0  0  0  0  0  0  0
    9.5643  -15.2430   20.3753 C   0  0  2  0  0  0  0  0  0  0  0  0
    9.4334  -15.9145   19.1129 N   0  0  0  0  0  0  0  0  0  0  0  0
    9.7549  -16.2173   21.4504 C   0  0  0  0  0  0  0  0  0  0  0  0
    9.0772  -17.2607   21.4880 O   0  0  0  0  0  0  0  0  0  0  0  0
   10.7723  -18.5537   21.5977 C   0  0  0  0  0  0  0  0  0  0  0  0
   11.7069  -18.1289   22.7102 C   0  0  1  0  0  0  0  0  0  0  0  0
   12.8655  -17.6376   22.1115 O   0  0  0  0  0  0  0  0  0  0  0  0
   11.0712  -16.9683   23.4590 C   0  0  2  0  0  0  0  0  0  0  0  0
   10.7143  -15.9755   22.4550 N   0  0  0  0  0  0  0  0  0  0  0  0
   11.9799  -16.3953   24.4766 C   0  0  0  0  0  0  0  0  0  0  0  0
   12.1273  -16.8805   25.7561 O   0  0  0  0  0  0  0  0  0  0  0  0
   12.6616  -15.3934   24.1376 O   0  0  0  0  0  0  0  0  0  0  0  0
  2  1  1  6
  2  3  1  0
  3  4  1  0
  4  8  1  0
  5  4  2  0
  6 14  1  0
  6  2  1  0
  7  6  2  0
 10  9  1  1
 10 12  1  0
 11 10  1  0
 13 12  1  1
 13 14  1  0
 15 16  2  0
 15 13  1  0
 18 17  1  6
 19 18  1  0
 20 18  1  0
 20 21  1  6
 21 15  1  0
 22 20  1  0
 23 22  1  0
 24 22  2  0
M  END
$$$$
