DLT.pdb
     RDKit          3D

 24 23  0  0  1  0  0  0  0  0999 V2000
   10.0772  -15.5411   20.8037 N   0  0  0  0  0  0  0  0  0  0  0  0
    9.6944  -16.5060   21.7829 C   0  0  1  0  0  0  0  0  0  0  0  0
   10.6120  -17.7069   21.8243 C   0  0  0  0  0  0  0  0  0  0  0  0
   10.6447  -18.3839   20.5014 C   0  0  0  0  0  0  0  0  0  0  0  0
   10.6933  -17.7068   19.4540 O   0  0  0  0  0  0  0  0  0  0  0  0
    9.7143  -15.8793   23.1198 C   0  0  0  0  0  0  0  0  0  0  0  0
   10.7576  -15.7889   23.7766 O   0  0  0  0  0  0  0  0  0  0  0  0
   10.6236  -19.7690   20.3597 O   0  0  0  0  0  0  0  0  0  0  0  0
    5.8113  -12.5730   26.7113 C   0  0  0  0  0  0  0  0  0  0  0  0
    7.1641  -13.1606   26.4283 C   0  0  2  0  0  0  0  0  0  0  0  0
    8.2102  -12.0294   26.4147 C   0  0  0  0  0  0  0  0  0  0  0  0
    7.3129  -13.8809   25.1463 C   0  0  0  0  0  0  0  0  0  0  0  0
    8.5124  -14.7391   24.9461 C   0  0  2  0  0  0  0  0  0  0  0  0
    8.5044  -15.3713   23.6569 N   0  0  0  0  0  0  0  0  0  0  0  0
    8.7157  -15.7356   25.9982 C   0  0  0  0  0  0  0  0  0  0  0  0
    8.1295  -16.8328   25.9542 O   0  0  0  0  0  0  0  0  0  0  0  0
    9.9817  -18.0128   26.1709 C   0  0  0  0  0  0  0  0  0  0  0  0
   10.7763  -17.5001   27.3529 C   0  0  1  0  0  0  0  0  0  0  0  0
   11.9000  -16.8507   26.8451 O   0  0  0  0  0  0  0  0  0  0  0  0
    9.9473  -16.4487   28.0734 C   0  0  2  0  0  0  0  0  0  0  0  0
    9.5832  -15.4541   27.0736 N   0  0  0  0  0  0  0  0  0  0  0  0
   10.6842  -15.8301   29.1975 C   0  0  0  0  0  0  0  0  0  0  0  0
   11.0363  -16.4837   30.3564 O   0  0  0  0  0  0  0  0  0  0  0  0
   11.0071  -14.6201   29.0749 O   0  0  0  0  0  0  0  0  0  0  0  0
  2  1  1  6
  2  3  1  0
  3  4  1  0
  4  8  1  0
  5  4  2  0
  6 14  1  0
  6  2  1  0
  7  6  2  0
 10  9  1  6
 10 12  1  0
 11 10  1  0
 13 12  1  1
 13 14  1  0
 15 16  2  0
 15 13  1  0
 18 17  1  6
 19 18  1  0
 20 18  1  0
 20 21  1  6
 21 15  1  0
 22 20  1  0
 23 22  1  0
 24 22  2  0
M  END
$$$$
