DLT.pdb
     RDKit          3D

 24 23  0  0  1  0  0  0  0  0999 V2000
    8.3940  -15.7728   20.6464 N   0  0  0  0  0  0  0  0  0  0  0  0
    9.5909  -16.2261   21.2776 C   0  0  1  0  0  0  0  0  0  0  0  0
   10.8459  -15.7762   20.5644 C   0  0  0  0  0  0  0  0  0  0  0  0
   10.7948  -16.1575   19.1286 C   0  0  0  0  0  0  0  0  0  0  0  0
    9.7194  -16.5359   18.6205 O   0  0  0  0  0  0  0  0  0  0  0  0
    9.6450  -15.7006   22.6564 C   0  0  0  0  0  0  0  0  0  0  0  0
   10.7112  -15.6201   23.2769 O   0  0  0  0  0  0  0  0  0  0  0  0
   11.9091  -16.1155   18.2947 O   0  0  0  0  0  0  0  0  0  0  0  0
    5.8453  -12.8671   26.6615 C   0  0  0  0  0  0  0  0  0  0  0  0
    7.2072  -13.4041   26.3269 C   0  0  2  0  0  0  0  0  0  0  0  0
    8.2597  -12.3145   26.6076 C   0  0  0  0  0  0  0  0  0  0  0  0
    7.4182  -13.8370   24.9295 C   0  0  0  0  0  0  0  0  0  0  0  0
    8.4630  -14.8596   24.6503 C   0  0  2  0  0  0  0  0  0  0  0  0
    8.4418  -15.2801   23.2776 N   0  0  0  0  0  0  0  0  0  0  0  0
    8.4124  -16.0223   25.5374 C   0  0  0  0  0  0  0  0  0  0  0  0
    7.3366  -16.6111   25.7503 O   0  0  0  0  0  0  0  0  0  0  0  0
    9.6539  -19.0355   24.9456 C   0  0  0  0  0  0  0  0  0  0  0  0
   10.4053  -18.7240   26.2223 C   0  0  1  0  0  0  0  0  0  0  0  0
   11.6172  -18.1409   25.8568 O   0  0  0  0  0  0  0  0  0  0  0  0
    9.6264  -17.6733   26.9976 C   0  0  2  0  0  0  0  0  0  0  0  0
    9.5913  -16.4832   26.1586 N   0  0  0  0  0  0  0  0  0  0  0  0
   10.2388  -17.3812   28.3125 C   0  0  0  0  0  0  0  0  0  0  0  0
   10.2388  -18.2439   29.3848 O   0  0  0  0  0  0  0  0  0  0  0  0
   10.7967  -16.2616   28.4494 O   0  0  0  0  0  0  0  0  0  0  0  0
  2  1  1  6
  2  3  1  0
  3  4  1  0
  4  8  1  0
  5  4  2  0
  6 14  1  0
  6  2  1  0
  7  6  2  0
 10  9  1  6
 10 12  1  0
 11 10  1  0
 13 12  1  1
 13 14  1  0
 15 16  2  0
 15 13  1  0
 18 17  1  6
 19 18  1  0
 20 18  1  0
 20 21  1  6
 21 15  1  0
 22 20  1  0
 23 22  1  0
 24 22  2  0
M  END
$$$$
