DLT.pdb
     RDKit          3D

 24 23  0  0  1  0  0  0  0  0999 V2000
    7.3982  -15.6741   21.5634 N   0  0  0  0  0  0  0  0  0  0  0  0
    8.7821  -15.9725   21.7426 C   0  0  1  0  0  0  0  0  0  0  0  0
    9.6856  -15.1698   20.8340 C   0  0  0  0  0  0  0  0  0  0  0  0
    9.4473  -15.5295   19.4116 C   0  0  0  0  0  0  0  0  0  0  0  0
    9.6711  -14.6956   18.5103 O   0  0  0  0  0  0  0  0  0  0  0  0
    9.1691  -15.6763   23.1364 C   0  0  0  0  0  0  0  0  0  0  0  0
   10.3549  -15.6284   23.4826 O   0  0  0  0  0  0  0  0  0  0  0  0
    8.9755  -16.7784   19.0159 O   0  0  0  0  0  0  0  0  0  0  0  0
    8.1957  -12.0598   25.7154 C   0  0  0  0  0  0  0  0  0  0  0  0
    7.1531  -13.1381   25.6396 C   0  0  2  0  0  0  0  0  0  0  0  0
    5.8935  -12.6729   26.3952 C   0  0  0  0  0  0  0  0  0  0  0  0
    7.5214  -14.4502   26.2117 C   0  0  0  0  0  0  0  0  0  0  0  0
    8.5030  -15.2964   25.4799 C   0  0  2  0  0  0  0  0  0  0  0  0
    8.1513  -15.4421   24.0955 N   0  0  0  0  0  0  0  0  0  0  0  0
    8.7288  -16.6089   26.0864 C   0  0  0  0  0  0  0  0  0  0  0  0
    7.8380  -17.4780   26.0670 O   0  0  0  0  0  0  0  0  0  0  0  0
   11.7494  -20.1465   27.0144 C   0  0  0  0  0  0  0  0  0  0  0  0
   11.4015  -18.7840   26.4542 C   0  0  1  0  0  0  0  0  0  0  0  0
   10.8974  -18.9817   25.1700 O   0  0  0  0  0  0  0  0  0  0  0  0
   10.2732  -18.1934   27.2847 C   0  0  2  0  0  0  0  0  0  0  0  0
    9.9657  -16.8955   26.6997 N   0  0  0  0  0  0  0  0  0  0  0  0
   10.6401  -18.0617   28.7121 C   0  0  0  0  0  0  0  0  0  0  0  0
   10.4683  -19.0463   29.6583 O   0  0  0  0  0  0  0  0  0  0  0  0
   11.1441  -16.9677   29.0762 O   0  0  0  0  0  0  0  0  0  0  0  0
  2  1  1  1
  2  3  1  0
  3  4  1  0
  4  8  1  0
  5  4  2  0
  6 14  1  0
  6  2  1  0
  7  6  2  0
 10  9  1  1
 10 12  1  0
 11 10  1  0
 13 12  1  1
 13 14  1  0
 15 16  2  0
 15 13  1  0
 18 17  1  1
 19 18  1  0
 20 18  1  0
 20 21  1  6
 21 15  1  0
 22 20  1  0
 23 22  1  0
 24 22  2  0
M  END
$$$$
