DLT.pdb
     RDKit          3D

 24 23  0  0  1  0  0  0  0  0999 V2000
    8.6331  -14.5887   20.3756 N   0  0  0  0  0  0  0  0  0  0  0  0
    8.0157  -15.4667   21.3160 C   0  0  1  0  0  0  0  0  0  0  0  0
    8.2747  -16.9273   21.0241 C   0  0  0  0  0  0  0  0  0  0  0  0
    7.6597  -17.3171   19.7282 C   0  0  0  0  0  0  0  0  0  0  0  0
    6.4657  -17.6783   19.6867 O   0  0  0  0  0  0  0  0  0  0  0  0
    8.5370  -15.1794   22.6673 C   0  0  0  0  0  0  0  0  0  0  0  0
    9.7368  -14.9564   22.8642 O   0  0  0  0  0  0  0  0  0  0  0  0
    8.3589  -17.3020   18.5241 O   0  0  0  0  0  0  0  0  0  0  0  0
    8.0590  -11.7950   25.3692 C   0  0  0  0  0  0  0  0  0  0  0  0
    6.9224  -12.7750   25.4264 C   0  0  2  0  0  0  0  0  0  0  0  0
    5.8310  -12.2240   26.3640 C   0  0  0  0  0  0  0  0  0  0  0  0
    7.2474  -14.1308   25.9168 C   0  0  0  0  0  0  0  0  0  0  0  0
    8.1403  -14.9914   25.0937 C   0  0  2  0  0  0  0  0  0  0  0  0
    7.6343  -15.1605   23.7606 N   0  0  0  0  0  0  0  0  0  0  0  0
    8.4334  -16.2935   25.6936 C   0  0  0  0  0  0  0  0  0  0  0  0
    7.5254  -16.9764   26.2018 O   0  0  0  0  0  0  0  0  0  0  0  0
   10.1328  -18.9209   23.9519 C   0  0  0  0  0  0  0  0  0  0  0  0
   10.9550  -18.7870   25.2158 C   0  0  1  0  0  0  0  0  0  0  0  0
   12.0306  -17.9508   24.9224 O   0  0  0  0  0  0  0  0  0  0  0  0
   10.1162  -18.0749   26.2652 C   0  0  2  0  0  0  0  0  0  0  0  0
    9.7559  -16.7826   25.6981 N   0  0  0  0  0  0  0  0  0  0  0  0
   10.8418  -17.9125   27.5444 C   0  0  0  0  0  0  0  0  0  0  0  0
   11.2847  -16.7097   28.0457 O   0  0  0  0  0  0  0  0  0  0  0  0
   11.0646  -18.9546   28.2137 O   0  0  0  0  0  0  0  0  0  0  0  0
  2  1  1  6
  2  3  1  0
  3  4  1  0
  4  8  1  0
  5  4  2  0
  6 14  1  0
  6  2  1  0
  7  6  2  0
 10  9  1  1
 10 12  1  0
 11 10  1  0
 13 12  1  1
 13 14  1  0
 15 16  2  0
 15 13  1  0
 18 17  1  6
 19 18  1  0
 20 18  1  0
 20 21  1  6
 21 15  1  0
 22 20  1  0
 23 22  1  0
 24 22  2  0
M  END
$$$$
