DLT.pdb
     RDKit          3D

 24 23  0  0  1  0  0  0  0  0999 V2000
    8.2364  -14.1574   20.5694 N   0  0  0  0  0  0  0  0  0  0  0  0
    8.2807  -15.4252   21.2230 C   0  0  1  0  0  0  0  0  0  0  0  0
    9.2355  -16.3979   20.5689 C   0  0  0  0  0  0  0  0  0  0  0  0
    8.8490  -16.6361   19.1536 C   0  0  0  0  0  0  0  0  0  0  0  0
    9.7271  -16.7061   18.2693 O   0  0  0  0  0  0  0  0  0  0  0  0
    8.7173  -15.2387   22.6212 C   0  0  0  0  0  0  0  0  0  0  0  0
    9.9049  -15.0518   22.9088 O   0  0  0  0  0  0  0  0  0  0  0  0
    7.5263  -16.7899   18.7461 O   0  0  0  0  0  0  0  0  0  0  0  0
    8.2673  -12.0348   25.8009 C   0  0  0  0  0  0  0  0  0  0  0  0
    7.0748  -12.8974   25.5020 C   0  0  2  0  0  0  0  0  0  0  0  0
    5.8684  -12.3847   26.3117 C   0  0  0  0  0  0  0  0  0  0  0  0
    7.2077  -14.3352   25.8177 C   0  0  0  0  0  0  0  0  0  0  0  0
    8.1625  -15.1542   25.0222 C   0  0  2  0  0  0  0  0  0  0  0  0
    7.7460  -15.2761   23.6535 N   0  0  0  0  0  0  0  0  0  0  0  0
    8.4321  -16.4758   25.5897 C   0  0  0  0  0  0  0  0  0  0  0  0
    7.5165  -17.3089   25.7195 O   0  0  0  0  0  0  0  0  0  0  0  0
   10.3754  -19.0252   24.4084 C   0  0  0  0  0  0  0  0  0  0  0  0
   11.0404  -18.7967   25.7490 C   0  0  1  0  0  0  0  0  0  0  0  0
   12.1128  -17.9325   25.5362 O   0  0  0  0  0  0  0  0  0  0  0  0
   10.0612  -18.0693   26.6566 C   0  0  2  0  0  0  0  0  0  0  0  0
    9.7402  -16.8125   25.9944 N   0  0  0  0  0  0  0  0  0  0  0  0
   10.6200  -17.8337   28.0063 C   0  0  0  0  0  0  0  0  0  0  0  0
   10.8234  -18.8135   28.9511 O   0  0  0  0  0  0  0  0  0  0  0  0
   10.9278  -16.6496   28.3009 O   0  0  0  0  0  0  0  0  0  0  0  0
  2  1  1  6
  2  3  1  0
  3  4  1  0
  4  8  1  0
  5  4  2  0
  6 14  1  0
  6  2  1  0
  7  6  2  0
 10  9  1  1
 10 12  1  0
 11 10  1  0
 13 12  1  1
 13 14  1  0
 15 16  2  0
 15 13  1  0
 18 17  1  6
 19 18  1  0
 20 18  1  0
 20 21  1  6
 21 15  1  0
 22 20  1  0
 23 22  1  0
 24 22  2  0
M  END
$$$$
