RMQ.pdb
     RDKit          3D

 29 28  0  0  1  0  0  0  0  0999 V2000
    8.9722  -12.7092   18.0695 N   0  0  0  0  0  0  0  0  0  0  0  0
    8.4547  -13.5518   17.0266 C   0  0  0  0  0  0  0  0  0  0  0  0
    9.0765  -13.6343   15.8940 N   0  0  0  0  0  0  0  0  0  0  0  0
    7.2698  -14.3073   17.2061 N   0  0  0  0  0  0  0  0  0  0  0  0
    7.0454  -15.1852   18.3282 C   0  0  0  0  0  0  0  0  0  0  0  0
    8.3182  -15.8820   18.7521 C   0  0  0  0  0  0  0  0  0  0  0  0
    8.8534  -15.3955   20.0581 C   0  0  0  0  0  0  0  0  0  0  0  0
    8.5101  -16.3461   21.1589 C   0  0  2  0  0  0  0  0  0  0  0  0
    7.0903  -16.6378   21.2199 N   0  0  0  0  0  0  0  0  0  0  0  0
    9.0054  -15.8326   22.4784 C   0  0  0  0  0  0  0  0  0  0  0  0
   10.2279  -15.6629   22.6126 O   0  0  0  0  0  0  0  0  0  0  0  0
    8.6997  -14.1270   15.0791 C   0  0  0  0  0  0  0  0  0  0  0  0
    5.4538  -12.0614   26.1816 S   0  0  0  0  0  0  0  0  0  0  0  0
    7.0625  -11.9898   27.0580 C   0  0  0  0  0  0  0  0  0  0  0  0
    7.9931  -13.5294   26.7407 C   0  0  0  0  0  0  0  0  0  0  0  0
    7.6826  -14.0385   25.3808 C   0  0  1  0  0  0  0  0  0  0  0  0
    8.6636  -15.0510   24.8460 N   0  0  0  0  0  0  0  0  0  0  0  0
    8.1361  -15.5352   23.5725 C   0  0  0  0  0  0  0  0  0  0  0  0
    8.9275  -16.1473   25.7862 O   0  0  0  0  0  0  0  0  0  0  0  0
    7.9586  -16.6571   26.3968 N   0  0  0  0  0  0  0  0  0  0  0  0
   11.8363  -21.3779   25.3378 C   0  0  0  0  0  0  0  0  0  0  0  0
   12.1239  -21.1622   26.7317 O   0  0  0  0  0  0  0  0  0  0  0  0
   12.5041  -22.1465   27.3697 C   0  0  0  0  0  0  0  0  0  0  0  0
   11.9452  -19.8323   27.2691 C   0  0  0  0  0  0  0  0  0  0  0  0
   11.4894  -18.7189   26.4273 C   0  0  1  0  0  0  0  0  0  0  0  0
   10.4484  -17.8053   26.9624 N   0  0  0  0  0  0  0  0  0  0  0  0
   10.2142  -16.6765   26.0534 C   0  0  0  0  0  0  0  0  0  0  0  0
   10.7171  -17.3151   28.3010 O   0  0  0  0  0  0  0  0  0  0  0  0
   10.3705  -18.0656   29.4364 O   0  0  0  0  0  0  0  0  0  0  0  0
  1  2  1  0
  2  3  2  0
  4  5  1  0
  4  2  1  0
  6  5  1  0
  7  6  1  0
  8 10  1  0
  8  7  1  0
  8  9  1  1
 10 11  2  0
 13 12  1  0
 13 14  1  0
 15 14  1  0
 16 15  1  6
 17 16  1  0
 17 10  1  0
 18 16  1  0
 18 19  2  0
 20 21  1  0
 21 22  2  0
 23 21  1  0
 23 24  1  0
 25 24  1  6
 25 26  1  0
 25 27  1  0
 26 18  1  0
 27 28  1  0
 29 27  2  0
M  END
$$$$
