RMQ.pdb
     RDKit          3D

 29 28  0  0  1  0  0  0  0  0999 V2000
    8.4096  -12.4694   17.4477 N   0  0  0  0  0  0  0  0  0  0  0  0
    8.0566  -13.8273   17.1359 C   0  0  0  0  0  0  0  0  0  0  0  0
    8.6551  -14.4448   16.1680 N   0  0  0  0  0  0  0  0  0  0  0  0
    7.0615  -14.5195   17.8691 N   0  0  0  0  0  0  0  0  0  0  0  0
    6.9845  -15.9575   17.9489 C   0  0  0  0  0  0  0  0  0  0  0  0
    8.1845  -16.5398   18.6605 C   0  0  0  0  0  0  0  0  0  0  0  0
    8.4915  -15.8629   19.9552 C   0  0  0  0  0  0  0  0  0  0  0  0
    8.0182  -16.6862   21.1091 C   0  0  2  0  0  0  0  0  0  0  0  0
    6.9718  -17.6188   20.7353 N   0  0  0  0  0  0  0  0  0  0  0  0
    7.5701  -15.8084   22.2400 C   0  0  0  0  0  0  0  0  0  0  0  0
    6.5799  -15.0832   22.0538 O   0  0  0  0  0  0  0  0  0  0  0  0
    8.5136  -15.4376   15.9604 C   0  0  0  0  0  0  0  0  0  0  0  0
    6.4724  -12.2471   28.2650 S   0  0  0  0  0  0  0  0  0  0  0  0
    7.1669  -12.1376   26.5719 C   0  0  0  0  0  0  0  0  0  0  0  0
    6.9589  -13.7443   25.7278 C   0  0  0  0  0  0  0  0  0  0  0  0
    7.4888  -13.6620   24.3431 C   0  0  1  0  0  0  0  0  0  0  0  0
    8.7025  -14.5169   24.0793 N   0  0  0  0  0  0  0  0  0  0  0  0
    8.2303  -15.7753   23.5067 C   0  0  0  0  0  0  0  0  0  0  0  0
    9.5259  -14.7302   25.2759 O   0  0  0  0  0  0  0  0  0  0  0  0
    9.3616  -13.9686   26.2580 N   0  0  0  0  0  0  0  0  0  0  0  0
    6.7844  -19.2694   25.4101 C   0  0  0  0  0  0  0  0  0  0  0  0
    7.6270  -19.6505   26.5132 O   0  0  0  0  0  0  0  0  0  0  0  0
    7.2868  -20.6579   27.1378 C   0  0  0  0  0  0  0  0  0  0  0  0
    8.7856  -18.8361   26.8021 C   0  0  0  0  0  0  0  0  0  0  0  0
    9.0655  -17.6055   26.0516 C   0  0  1  0  0  0  0  0  0  0  0  0
   10.3522  -16.9048   26.2929 N   0  0  0  0  0  0  0  0  0  0  0  0
   10.5028  -15.7487   25.4007 C   0  0  0  0  0  0  0  0  0  0  0  0
   11.5217  -17.7579   26.1991 O   0  0  0  0  0  0  0  0  0  0  0  0
   12.0213  -18.4375   27.3220 O   0  0  0  0  0  0  0  0  0  0  0  0
  1  2  1  0
  2  3  2  0
  4  5  1  0
  4  2  1  0
  6  5  1  0
  7  6  1  0
  8 10  1  0
  8  7  1  0
  8  9  1  6
 10 11  2  0
 13 12  1  0
 13 14  1  0
 15 14  1  0
 16 15  1  6
 17 16  1  0
 17 10  1  0
 18 16  1  0
 18 19  2  0
 20 21  1  0
 21 22  2  0
 23 21  1  0
 23 24  1  0
 25 24  1  1
 25 26  1  0
 25 27  1  0
 26 18  1  0
 27 28  1  0
 29 27  2  0
M  END
$$$$
