RMQ.pdb
     RDKit          3D

 29 28  0  0  1  0  0  0  0  0999 V2000
    9.3702  -20.1893   18.5585 N   0  0  0  0  0  0  0  0  0  0  0  0
    8.6095  -20.0093   19.7646 C   0  0  0  0  0  0  0  0  0  0  0  0
    8.1484  -21.0401   20.3979 N   0  0  0  0  0  0  0  0  0  0  0  0
    8.3493  -18.7192   20.2890 N   0  0  0  0  0  0  0  0  0  0  0  0
    8.6010  -17.4976   19.5648 C   0  0  0  0  0  0  0  0  0  0  0  0
    8.1135  -16.2878   20.3290 C   0  0  0  0  0  0  0  0  0  0  0  0
    8.3391  -15.0006   19.6073 C   0  0  0  0  0  0  0  0  0  0  0  0
    7.7089  -13.8627   20.3430 C   0  0  2  0  0  0  0  0  0  0  0  0
    7.8878  -12.5935   19.6637 N   0  0  0  0  0  0  0  0  0  0  0  0
    8.2223  -13.7905   21.7506 C   0  0  0  0  0  0  0  0  0  0  0  0
    9.3732  -13.3593   21.9265 O   0  0  0  0  0  0  0  0  0  0  0  0
    7.6330  -20.9749   21.2804 C   0  0  0  0  0  0  0  0  0  0  0  0
    6.4319  -11.6951   27.9256 S   0  0  0  0  0  0  0  0  0  0  0  0
    7.1681  -11.2612   26.3036 C   0  0  0  0  0  0  0  0  0  0  0  0
    6.4078  -12.2902   24.9997 C   0  0  0  0  0  0  0  0  0  0  0  0
    6.8509  -13.7002   25.1437 C   0  0  2  0  0  0  0  0  0  0  0  0
    7.9869  -14.1011   24.2368 N   0  0  0  0  0  0  0  0  0  0  0  0
    7.4482  -14.1933   22.8819 C   0  0  0  0  0  0  0  0  0  0  0  0
    8.6436  -15.3458   24.6550 O   0  0  0  0  0  0  0  0  0  0  0  0
    9.0602  -15.4348   25.8340 N   0  0  0  0  0  0  0  0  0  0  0  0
   10.1273  -20.7006   21.1273 C   0  0  0  0  0  0  0  0  0  0  0  0
   11.2533  -20.2629   21.9100 O   0  0  0  0  0  0  0  0  0  0  0  0
   12.3271  -20.8255   21.6843 C   0  0  0  0  0  0  0  0  0  0  0  0
   11.0428  -19.2179   22.8862 C   0  0  0  0  0  0  0  0  0  0  0  0
    9.7162  -18.6281   23.1056 C   0  0  1  0  0  0  0  0  0  0  0  0
    9.5379  -17.6852   24.2387 N   0  0  0  0  0  0  0  0  0  0  0  0
    8.8402  -16.4665   23.8107 C   0  0  0  0  0  0  0  0  0  0  0  0
   10.7688  -17.3363   24.9225 O   0  0  0  0  0  0  0  0  0  0  0  0
   11.5251  -16.2168   24.5386 O   0  0  0  0  0  0  0  0  0  0  0  0
  1  2  1  0
  2  3  2  0
  4  5  1  0
  4  2  1  0
  6  5  1  0
  7  6  1  0
  8 10  1  0
  8  7  1  0
  8  9  1  6
 10 11  2  0
 13 12  1  0
 13 14  1  0
 15 14  1  0
 16 15  1  6
 17 16  1  0
 17 10  1  0
 18 16  1  0
 18 19  2  0
 20 21  1  0
 21 22  2  0
 23 21  1  0
 23 24  1  0
 25 24  1  1
 25 26  1  0
 25 27  1  0
 26 18  1  0
 27 28  1  0
 29 27  2  0
M  END
$$$$
