RMQ.pdb
     RDKit          3D

 29 28  0  0  1  0  0  0  0  0999 V2000
    7.5731  -12.6727   16.8479 N   0  0  0  0  0  0  0  0  0  0  0  0
    7.6965  -14.0195   16.3615 C   0  0  0  0  0  0  0  0  0  0  0  0
    7.6999  -14.2488   15.0873 N   0  0  0  0  0  0  0  0  0  0  0  0
    7.8196  -15.1174   17.2483 N   0  0  0  0  0  0  0  0  0  0  0  0
    8.7093  -15.1306   18.3834 C   0  0  0  0  0  0  0  0  0  0  0  0
    8.4549  -13.9577   19.3026 C   0  0  0  0  0  0  0  0  0  0  0  0
    7.7268  -14.3307   20.5515 C   0  0  0  0  0  0  0  0  0  0  0  0
    8.5475  -15.2595   21.3863 C   0  0  2  0  0  0  0  0  0  0  0  0
    8.0263  -16.6134   21.3887 N   0  0  0  0  0  0  0  0  0  0  0  0
    8.6814  -14.7380   22.7864 C   0  0  0  0  0  0  0  0  0  0  0  0
    9.4821  -13.8104   22.9854 O   0  0  0  0  0  0  0  0  0  0  0  0
    7.8984  -15.1676   14.6808 C   0  0  0  0  0  0  0  0  0  0  0  0
    6.0767  -10.4917   26.9977 S   0  0  0  0  0  0  0  0  0  0  0  0
    6.8598  -12.1466   27.0926 C   0  0  0  0  0  0  0  0  0  0  0  0
    6.2264  -13.1942   25.7367 C   0  0  0  0  0  0  0  0  0  0  0  0
    6.7749  -14.5686   25.8592 C   0  0  2  0  0  0  0  0  0  0  0  0
    8.1375  -14.7623   25.2434 N   0  0  0  0  0  0  0  0  0  0  0  0
    7.9328  -15.2606   23.8854 C   0  0  0  0  0  0  0  0  0  0  0  0
    9.0032  -15.6485   26.0313 O   0  0  0  0  0  0  0  0  0  0  0  0
    8.9983  -15.5334   27.2797 N   0  0  0  0  0  0  0  0  0  0  0  0
    6.7238  -20.1008   27.6090 C   0  0  0  0  0  0  0  0  0  0  0  0
    8.0408  -20.6518   27.7931 O   0  0  0  0  0  0  0  0  0  0  0  0
    8.1027  -21.7344   28.3801 C   0  0  0  0  0  0  0  0  0  0  0  0
    9.1711  -19.9059   27.2879 C   0  0  0  0  0  0  0  0  0  0  0  0
    9.0022  -18.5937   26.6509 C   0  0  1  0  0  0  0  0  0  0  0  0
   10.2112  -17.8771   26.1720 N   0  0  0  0  0  0  0  0  0  0  0  0
    9.8517  -16.6367   25.4739 C   0  0  0  0  0  0  0  0  0  0  0  0
   11.0872  -18.6781   25.3380 O   0  0  0  0  0  0  0  0  0  0  0  0
   12.0640  -19.5165   25.8997 O   0  0  0  0  0  0  0  0  0  0  0  0
  1  2  1  0
  2  3  2  0
  4  5  1  0
  4  2  1  0
  6  5  1  0
  7  6  1  0
  8 10  1  0
  8  7  1  0
  8  9  1  1
 10 11  2  0
 13 12  1  0
 13 14  1  0
 15 14  1  0
 16 15  1  6
 17 16  1  0
 17 10  1  0
 18 16  1  0
 18 19  2  0
 20 21  1  0
 21 22  2  0
 23 21  1  0
 23 24  1  0
 25 24  1  1
 25 26  1  0
 25 27  1  0
 26 18  1  0
 27 28  1  0
 29 27  2  0
M  END
$$$$
