RMQ.pdb
     RDKit          3D

 29 28  0  0  1  0  0  0  0  0999 V2000
    8.1167  -12.5006   16.4907 N   0  0  0  0  0  0  0  0  0  0  0  0
    8.1131  -13.5745   15.5356 C   0  0  0  0  0  0  0  0  0  0  0  0
    7.5285  -13.4195   14.3908 N   0  0  0  0  0  0  0  0  0  0  0  0
    8.7421  -14.8131   15.8134 N   0  0  0  0  0  0  0  0  0  0  0  0
    8.3530  -15.6802   16.8983 C   0  0  0  0  0  0  0  0  0  0  0  0
    7.7834  -14.8968   18.0590 C   0  0  0  0  0  0  0  0  0  0  0  0
    8.7851  -14.6089   19.1279 C   0  0  0  0  0  0  0  0  0  0  0  0
    8.9089  -15.7671   20.0642 C   0  0  2  0  0  0  0  0  0  0  0  0
    7.7598  -16.6511   20.0111 N   0  0  0  0  0  0  0  0  0  0  0  0
    9.1521  -15.2934   21.4665 C   0  0  0  0  0  0  0  0  0  0  0  0
   10.1194  -14.5409   21.6647 O   0  0  0  0  0  0  0  0  0  0  0  0
    7.5700  -14.1132   13.6385 C   0  0  0  0  0  0  0  0  0  0  0  0
    7.7139  -11.5129   26.6661 S   0  0  0  0  0  0  0  0  0  0  0  0
    6.4122  -12.5331   25.8749 C   0  0  0  0  0  0  0  0  0  0  0  0
    7.0642  -13.2514   24.3271 C   0  0  0  0  0  0  0  0  0  0  0  0
    7.3124  -14.7043   24.5074 C   0  0  2  0  0  0  0  0  0  0  0  0
    8.6103  -15.2009   23.9224 N   0  0  0  0  0  0  0  0  0  0  0  0
    8.3244  -15.6698   22.5685 C   0  0  0  0  0  0  0  0  0  0  0  0
    9.2500  -16.2379   24.7415 O   0  0  0  0  0  0  0  0  0  0  0  0
    8.6739  -17.3449   24.8611 N   0  0  0  0  0  0  0  0  0  0  0  0
   10.8105  -13.9015   29.9394 C   0  0  0  0  0  0  0  0  0  0  0  0
   10.5157  -15.2772   30.2438 O   0  0  0  0  0  0  0  0  0  0  0  0
   10.7118  -15.6332   31.4079 C   0  0  0  0  0  0  0  0  0  0  0  0
   10.0239  -16.1228   29.1797 C   0  0  0  0  0  0  0  0  0  0  0  0
   10.0505  -15.6867   27.7779 C   0  0  1  0  0  0  0  0  0  0  0  0
   10.7314  -16.5495   26.7796 N   0  0  0  0  0  0  0  0  0  0  0  0
   10.4871  -16.0742   25.4122 C   0  0  0  0  0  0  0  0  0  0  0  0
   10.3960  -17.9571   26.8814 O   0  0  0  0  0  0  0  0  0  0  0  0
   11.2508  -18.8664   27.5257 O   0  0  0  0  0  0  0  0  0  0  0  0
  1  2  1  0
  2  3  2  0
  4  5  1  0
  4  2  1  0
  6  5  1  0
  7  6  1  0
  8 10  1  0
  8  7  1  0
  8  9  1  1
 10 11  2  0
 13 12  1  0
 13 14  1  0
 15 14  1  0
 16 15  1  6
 17 16  1  0
 17 10  1  0
 18 16  1  0
 18 19  2  0
 20 21  1  0
 21 22  2  0
 23 21  1  0
 23 24  1  0
 25 24  1  1
 25 26  1  0
 25 27  1  0
 26 18  1  0
 27 28  1  0
 29 27  2  0
M  END
$$$$
