MYE.pdb
     RDKit          3D

 30 30  0  0  1  0  0  0  0  0999 V2000
    7.6685  -12.1321   17.5579 C   0  0  0  0  0  0  0  0  0  0  0  0
    7.0199  -13.7024   16.9883 S   0  0  0  0  0  0  0  0  0  0  0  0
    7.5507  -15.0936   18.0216 C   0  0  0  0  0  0  0  0  0  0  0  0
    8.7882  -14.7500   18.8207 C   0  0  0  0  0  0  0  0  0  0  0  0
    9.2157  -15.8843   19.7241 C   0  0  2  0  0  0  0  0  0  0  0  0
    8.2620  -16.9857   19.6791 N   0  0  0  0  0  0  0  0  0  0  0  0
    9.3751  -15.4558   21.1377 C   0  0  0  0  0  0  0  0  0  0  0  0
   10.4065  -14.8113   21.5129 O   0  0  0  0  0  0  0  0  0  0  0  0
    7.1163  -13.0107   29.4033 O   0  0  0  0  0  0  0  0  0  0  0  0
    7.1190  -13.4715   28.0785 C   0  0  0  0  0  0  0  0  0  0  0  0
    6.9281  -12.6203   27.0262 C   0  0  0  0  0  0  0  0  0  0  0  0
    6.9336  -13.0950   25.7138 C   0  0  0  0  0  0  0  0  0  0  0  0
    7.1296  -14.4242   25.4325 C   0  0  0  0  0  0  0  0  0  0  0  0
    7.1399  -14.9317   24.0714 C   0  0  0  0  0  0  0  0  0  0  0  0
    8.4837  -15.2656   23.5052 C   0  0  2  0  0  0  0  0  0  0  0  0
    8.4017  -15.7361   22.1349 N   0  0  0  0  0  0  0  0  0  0  0  0
    9.3309  -16.1337   24.3115 C   0  0  0  0  0  0  0  0  0  0  0  0
    8.9688  -17.3515   24.4701 O   0  0  0  0  0  0  0  0  0  0  0  0
    7.3210  -15.2747   26.4956 C   0  0  0  0  0  0  0  0  0  0  0  0
    7.3183  -14.8200   27.8039 C   0  0  0  0  0  0  0  0  0  0  0  0
   10.5382  -15.7800   24.9534 N   0  0  0  0  0  0  0  0  0  0  0  0
   11.3381  -16.7641   25.6987 C   0  0  1  0  0  0  0  0  0  0  0  0
   12.7897  -16.5773   25.4022 C   0  0  0  0  0  0  0  0  0  0  0  0
   13.1043  -16.7352   23.9443 C   0  0  0  0  0  0  0  0  0  0  0  0
   14.5627  -16.5241   23.6809 C   0  0  0  0  0  0  0  0  0  0  0  0
   15.3733  -16.2494   24.5945 O   0  0  0  0  0  0  0  0  0  0  0  0
   11.0532  -16.6870   27.1384 C   0  0  0  0  0  0  0  0  0  0  0  0
   11.6711  -17.6194   27.9798 O   0  0  0  0  0  0  0  0  0  0  0  0
   15.0205  -16.6389   22.3812 O   0  0  0  0  0  0  0  0  0  0  0  0
   10.3055  -15.8605   27.6759 O   0  0  0  0  0  0  0  0  0  0  0  0
  2  1  1  0
  3  2  1  0
  4  5  1  0
  4  3  1  0
  5  6  1  1
  7  5  1  0
  7  8  2  0
  9 10  1  0
 10 20  2  0
 10 11  1  0
 11 12  2  0
 12 13  1  0
 13 14  1  0
 15 14  1  1
 15 16  1  0
 16  7  1  0
 17 15  1  0
 18 17  2  0
 19 13  2  0
 20 19  1  0
 21 17  1  0
 22 21  1  0
 22 27  1  0
 22 23  1  1
 24 23  1  0
 25 24  1  0
 26 25  2  0
 27 28  1  0
 29 25  1  0
 30 27  2  0
M  END
$$$$
