MYE.pdb
     RDKit          3D

 30 30  0  0  1  0  0  0  0  0999 V2000
    8.6908  -12.1743   18.1891 C   0  0  0  0  0  0  0  0  0  0  0  0
    6.9285  -12.4990   18.1887 S   0  0  0  0  0  0  0  0  0  0  0  0
    6.4878  -13.9630   19.1621 C   0  0  0  0  0  0  0  0  0  0  0  0
    7.1547  -13.9474   20.5197 C   0  0  0  0  0  0  0  0  0  0  0  0
    7.8598  -15.2498   20.8226 C   0  0  2  0  0  0  0  0  0  0  0  0
    6.9077  -16.3389   21.0011 N   0  0  0  0  0  0  0  0  0  0  0  0
    8.7128  -15.1654   22.0363 C   0  0  0  0  0  0  0  0  0  0  0  0
    9.9135  -14.7498   21.9635 O   0  0  0  0  0  0  0  0  0  0  0  0
   10.8713  -15.0620   30.7303 O   0  0  0  0  0  0  0  0  0  0  0  0
   10.1994  -15.1418   29.5017 C   0  0  0  0  0  0  0  0  0  0  0  0
    9.8198  -16.3434   28.9724 C   0  0  0  0  0  0  0  0  0  0  0  0
    9.1519  -16.4055   27.7485 C   0  0  0  0  0  0  0  0  0  0  0  0
    8.8533  -15.2709   27.0358 C   0  0  0  0  0  0  0  0  0  0  0  0
    8.1569  -15.3205   25.7619 C   0  0  0  0  0  0  0  0  0  0  0  0
    9.0215  -15.3977   24.5436 C   0  0  2  0  0  0  0  0  0  0  0  0
    8.2446  -15.5374   23.3258 N   0  0  0  0  0  0  0  0  0  0  0  0
   10.1168  -16.3570   24.5839 C   0  0  0  0  0  0  0  0  0  0  0  0
    9.8433  -17.5929   24.3909 O   0  0  0  0  0  0  0  0  0  0  0  0
    9.2380  -14.0657   27.5740 C   0  0  0  0  0  0  0  0  0  0  0  0
    9.9016  -13.9866   28.7872 C   0  0  0  0  0  0  0  0  0  0  0  0
   11.4813  -16.0750   24.8145 N   0  0  0  0  0  0  0  0  0  0  0  0
   12.5199  -17.1088   24.6860 C   0  0  1  0  0  0  0  0  0  0  0  0
   13.7086  -16.5573   23.9700 C   0  0  0  0  0  0  0  0  0  0  0  0
   14.8415  -17.5374   23.8955 C   0  0  0  0  0  0  0  0  0  0  0  0
   16.0171  -16.9499   23.1789 C   0  0  0  0  0  0  0  0  0  0  0  0
   16.6365  -15.9540   23.6167 O   0  0  0  0  0  0  0  0  0  0  0  0
   12.8734  -17.6612   26.0012 C   0  0  0  0  0  0  0  0  0  0  0  0
   13.2754  -19.0004   26.0632 O   0  0  0  0  0  0  0  0  0  0  0  0
   16.4252  -17.5342   21.9940 O   0  0  0  0  0  0  0  0  0  0  0  0
   12.8451  -17.0375   27.0696 O   0  0  0  0  0  0  0  0  0  0  0  0
  2  1  1  0
  3  2  1  0
  4  5  1  0
  4  3  1  0
  5  6  1  1
  7  5  1  0
  7  8  2  0
  9 10  1  0
 10 20  2  0
 10 11  1  0
 11 12  2  0
 12 13  1  0
 13 14  1  0
 15 14  1  1
 15 16  1  0
 16  7  1  0
 17 15  1  0
 18 17  2  0
 19 13  2  0
 20 19  1  0
 21 17  1  0
 22 21  1  0
 22 27  1  0
 22 23  1  1
 24 23  1  0
 25 24  1  0
 26 25  2  0
 27 28  1  0
 29 25  1  0
 30 27  2  0
M  END
$$$$
