MYE.pdb
     RDKit          3D

 30 30  0  0  1  0  0  0  0  0999 V2000
    6.8806  -10.5918   26.5818 C   0  0  0  0  0  0  0  0  0  0  0  0
    6.5285  -12.1224   27.4445 S   0  0  0  0  0  0  0  0  0  0  0  0
    5.9529  -13.4338   26.3337 C   0  0  0  0  0  0  0  0  0  0  0  0
    7.1114  -14.1735   25.7022 C   0  0  0  0  0  0  0  0  0  0  0  0
    6.6556  -15.1338   24.6273 C   0  0  2  0  0  0  0  0  0  0  0  0
    5.8296  -16.1983   25.1833 N   0  0  0  0  0  0  0  0  0  0  0  0
    7.7929  -15.7516   23.8977 C   0  0  0  0  0  0  0  0  0  0  0  0
    8.0153  -17.0025   23.9729 O   0  0  0  0  0  0  0  0  0  0  0  0
    6.4002  -13.4376   17.2575 O   0  0  0  0  0  0  0  0  0  0  0  0
    7.3528  -13.7580   18.2359 C   0  0  0  0  0  0  0  0  0  0  0  0
    7.9224  -14.9989   18.2983 C   0  0  0  0  0  0  0  0  0  0  0  0
    8.8690  -15.3017   19.2782 C   0  0  0  0  0  0  0  0  0  0  0  0
    9.2606  -14.3717   20.2090 C   0  0  0  0  0  0  0  0  0  0  0  0
   10.2460  -14.6724   21.2330 C   0  0  0  0  0  0  0  0  0  0  0  0
    9.7885  -15.5654   22.3425 C   0  0  2  0  0  0  0  0  0  0  0  0
    8.6822  -14.9941   23.0879 N   0  0  0  0  0  0  0  0  0  0  0  0
   10.8211  -16.0723   23.2361 C   0  0  0  0  0  0  0  0  0  0  0  0
   11.4490  -15.2319   23.9702 O   0  0  0  0  0  0  0  0  0  0  0  0
    8.6837  -13.1257   20.1404 C   0  0  0  0  0  0  0  0  0  0  0  0
    7.7429  -12.8091   19.1745 C   0  0  0  0  0  0  0  0  0  0  0  0
   11.2190  -17.4183   23.3931 N   0  0  0  0  0  0  0  0  0  0  0  0
   12.2076  -17.8224   24.4047 C   0  0  1  0  0  0  0  0  0  0  0  0
   11.5169  -18.3932   25.5993 C   0  0  0  0  0  0  0  0  0  0  0  0
   12.4766  -18.9611   26.6022 C   0  0  0  0  0  0  0  0  0  0  0  0
   11.7509  -19.5322   27.7804 C   0  0  0  0  0  0  0  0  0  0  0  0
   11.3121  -20.7045   27.7902 O   0  0  0  0  0  0  0  0  0  0  0  0
   13.1881  -18.7564   23.8338 C   0  0  0  0  0  0  0  0  0  0  0  0
   14.4856  -18.7465   24.3586 O   0  0  0  0  0  0  0  0  0  0  0  0
   11.5640  -18.7297   28.8908 O   0  0  0  0  0  0  0  0  0  0  0  0
   12.9628  -19.5586   22.9189 O   0  0  0  0  0  0  0  0  0  0  0  0
  2  1  1  0
  3  2  1  0
  4  5  1  0
  4  3  1  0
  5  6  1  1
  7  5  1  0
  7  8  2  0
  9 10  1  0
 10 20  2  0
 10 11  1  0
 11 12  2  0
 12 13  1  0
 13 14  1  0
 15 14  1  6
 15 16  1  0
 16  7  1  0
 17 15  1  0
 18 17  2  0
 19 13  2  0
 20 19  1  0
 21 17  1  0
 22 21  1  0
 22 27  1  0
 22 23  1  1
 24 23  1  0
 25 24  1  0
 26 25  2  0
 27 28  1  0
 29 25  1  0
 30 27  2  0
M  END
$$$$
