MYE.pdb
     RDKit          3D

 30 30  0  0  1  0  0  0  0  0999 V2000
    9.9376  -20.6435   19.2793 C   0  0  0  0  0  0  0  0  0  0  0  0
    8.2683  -20.1311   18.8767 S   0  0  0  0  0  0  0  0  0  0  0  0
    8.0293  -18.3416   19.0363 C   0  0  0  0  0  0  0  0  0  0  0  0
    8.6684  -17.8074   20.2989 C   0  0  0  0  0  0  0  0  0  0  0  0
    8.4008  -16.3322   20.4922 C   0  0  2  0  0  0  0  0  0  0  0  0
    8.8015  -15.5629   19.3207 N   0  0  0  0  0  0  0  0  0  0  0  0
    9.0990  -15.7789   21.6812 C   0  0  0  0  0  0  0  0  0  0  0  0
   10.2633  -15.2750   21.5796 O   0  0  0  0  0  0  0  0  0  0  0  0
   10.7428  -14.6452   30.4283 O   0  0  0  0  0  0  0  0  0  0  0  0
   10.1387  -14.7873   29.1704 C   0  0  0  0  0  0  0  0  0  0  0  0
    9.6560  -15.9923   28.7424 C   0  0  0  0  0  0  0  0  0  0  0  0
    9.0576  -16.1169   27.4877 C   0  0  0  0  0  0  0  0  0  0  0  0
    8.9321  -15.0421   26.6429 C   0  0  0  0  0  0  0  0  0  0  0  0
    8.3098  -15.1568   25.3353 C   0  0  0  0  0  0  0  0  0  0  0  0
    9.2329  -15.4303   24.1904 C   0  0  2  0  0  0  0  0  0  0  0  0
    8.5167  -15.7805   22.9779 N   0  0  0  0  0  0  0  0  0  0  0  0
   10.3259  -16.3590   24.4448 C   0  0  0  0  0  0  0  0  0  0  0  0
   10.0842  -17.6133   24.3568 O   0  0  0  0  0  0  0  0  0  0  0  0
    9.4198  -13.8332   27.0797 C   0  0  0  0  0  0  0  0  0  0  0  0
   10.0164  -13.6926   28.3218 C   0  0  0  0  0  0  0  0  0  0  0  0
   11.6565  -16.0283   24.7835 N   0  0  0  0  0  0  0  0  0  0  0  0
   12.7201  -17.0433   24.8318 C   0  0  1  0  0  0  0  0  0  0  0  0
   13.9483  -16.5339   24.1521 C   0  0  0  0  0  0  0  0  0  0  0  0
   15.0850  -17.5107   24.2094 C   0  0  0  0  0  0  0  0  0  0  0  0
   16.2844  -16.9862   23.4835 C   0  0  0  0  0  0  0  0  0  0  0  0
   16.8387  -17.6252   22.5606 O   0  0  0  0  0  0  0  0  0  0  0  0
   12.9856  -17.4571   26.2167 C   0  0  0  0  0  0  0  0  0  0  0  0
   13.7539  -18.6091   26.4209 O   0  0  0  0  0  0  0  0  0  0  0  0
   16.7899  -15.7530   23.8519 O   0  0  0  0  0  0  0  0  0  0  0  0
   12.5832  -16.8687   27.2282 O   0  0  0  0  0  0  0  0  0  0  0  0
  2  1  1  0
  3  2  1  0
  4  5  1  0
  4  3  1  0
  5  6  1  6
  7  5  1  0
  7  8  2  0
  9 10  1  0
 10 20  2  0
 10 11  1  0
 11 12  2  0
 12 13  1  0
 13 14  1  0
 15 14  1  1
 15 16  1  0
 16  7  1  0
 17 15  1  0
 18 17  2  0
 19 13  2  0
 20 19  1  0
 21 17  1  0
 22 21  1  0
 22 27  1  0
 22 23  1  1
 24 23  1  0
 25 24  1  0
 26 25  2  0
 27 28  1  0
 29 25  1  0
 30 27  2  0
M  END
$$$$
