MYE.pdb
     RDKit          3D

 30 30  0  0  1  0  0  0  0  0999 V2000
    7.2772  -11.9647   21.4759 C   0  0  0  0  0  0  0  0  0  0  0  0
    7.5768  -12.7370   19.8869 S   0  0  0  0  0  0  0  0  0  0  0  0
    6.7342  -14.3325   19.7158 C   0  0  0  0  0  0  0  0  0  0  0  0
    7.6897  -15.4197   19.2766 C   0  0  0  0  0  0  0  0  0  0  0  0
    7.8218  -16.5138   20.3115 C   0  0  2  0  0  0  0  0  0  0  0  0
    6.5158  -16.9600   20.7804 N   0  0  0  0  0  0  0  0  0  0  0  0
    8.6256  -16.0902   21.4870 C   0  0  0  0  0  0  0  0  0  0  0  0
    9.8292  -15.7000   21.3493 O   0  0  0  0  0  0  0  0  0  0  0  0
   10.7236  -14.2865   30.0105 O   0  0  0  0  0  0  0  0  0  0  0  0
   10.0547  -14.5889   28.8152 C   0  0  0  0  0  0  0  0  0  0  0  0
    9.7434  -15.8763   28.4775 C   0  0  0  0  0  0  0  0  0  0  0  0
    9.0775  -16.1603   27.2842 C   0  0  0  0  0  0  0  0  0  0  0  0
    8.7129  -15.1651   26.4118 C   0  0  0  0  0  0  0  0  0  0  0  0
    8.0178  -15.4460   25.1675 C   0  0  0  0  0  0  0  0  0  0  0  0
    8.8829  -15.7665   23.9900 C   0  0  2  0  0  0  0  0  0  0  0  0
    8.1055  -16.0964   22.8099 N   0  0  0  0  0  0  0  0  0  0  0  0
    9.9460  -16.7377   24.2101 C   0  0  0  0  0  0  0  0  0  0  0  0
    9.6376  -17.9803   24.2071 O   0  0  0  0  0  0  0  0  0  0  0  0
    9.0292  -13.8727   26.7577 C   0  0  0  0  0  0  0  0  0  0  0  0
    9.6897  -13.5738   27.9379 C   0  0  0  0  0  0  0  0  0  0  0  0
   11.3135  -16.4610   24.4296 N   0  0  0  0  0  0  0  0  0  0  0  0
   12.2952  -17.5325   24.6573 C   0  0  1  0  0  0  0  0  0  0  0  0
   13.5924  -17.1892   24.0021 C   0  0  0  0  0  0  0  0  0  0  0  0
   13.7302  -17.8041   22.6410 C   0  0  0  0  0  0  0  0  0  0  0  0
   14.9982  -17.3662   21.9769 C   0  0  0  0  0  0  0  0  0  0  0  0
   15.0329  -16.9980   20.7809 O   0  0  0  0  0  0  0  0  0  0  0  0
   12.4545  -17.7991   26.0938 C   0  0  0  0  0  0  0  0  0  0  0  0
   12.8961  -19.0700   26.4796 O   0  0  0  0  0  0  0  0  0  0  0  0
   16.1656  -17.3720   22.7179 O   0  0  0  0  0  0  0  0  0  0  0  0
   12.2286  -16.9882   27.0007 O   0  0  0  0  0  0  0  0  0  0  0  0
  2  1  1  0
  3  2  1  0
  4  5  1  0
  4  3  1  0
  5  6  1  1
  7  5  1  0
  7  8  2  0
  9 10  1  0
 10 20  2  0
 10 11  1  0
 11 12  2  0
 12 13  1  0
 13 14  1  0
 15 14  1  1
 15 16  1  0
 16  7  1  0
 17 15  1  0
 18 17  2  0
 19 13  2  0
 20 19  1  0
 21 17  1  0
 22 21  1  0
 22 27  1  0
 22 23  1  1
 24 23  1  0
 25 24  1  0
 26 25  2  0
 27 28  1  0
 29 25  1  0
 30 27  2  0
M  END
$$$$
