MYE.pdb
     RDKit          3D

 30 30  0  0  1  0  0  0  0  0999 V2000
    6.4361  -20.5589   20.5639 C   0  0  0  0  0  0  0  0  0  0  0  0
    6.9774  -20.1965   18.8946 S   0  0  0  0  0  0  0  0  0  0  0  0
    8.1040  -18.7788   18.8179 C   0  0  0  0  0  0  0  0  0  0  0  0
    7.3798  -17.4797   19.0931 C   0  0  0  0  0  0  0  0  0  0  0  0
    8.3152  -16.2922   19.0783 C   0  0  2  0  0  0  0  0  0  0  0  0
    9.5681  -16.6129   18.4061 N   0  0  0  0  0  0  0  0  0  0  0  0
    8.6260  -15.7965   20.4440 C   0  0  0  0  0  0  0  0  0  0  0  0
    9.7282  -16.0878   21.0097 O   0  0  0  0  0  0  0  0  0  0  0  0
    7.2653  -12.0530   28.4743 O   0  0  0  0  0  0  0  0  0  0  0  0
    7.1628  -12.4543   27.1342 C   0  0  0  0  0  0  0  0  0  0  0  0
    6.3607  -13.4959   26.7603 C   0  0  0  0  0  0  0  0  0  0  0  0
    6.2699  -13.8828   25.4224 C   0  0  0  0  0  0  0  0  0  0  0  0
    6.9772  -13.2366   24.4392 C   0  0  0  0  0  0  0  0  0  0  0  0
    6.8908  -13.6271   23.0428 C   0  0  0  0  0  0  0  0  0  0  0  0
    7.9437  -14.5733   22.5592 C   0  0  2  0  0  0  0  0  0  0  0  0
    7.7259  -14.9826   21.1841 N   0  0  0  0  0  0  0  0  0  0  0  0
    8.2286  -15.7193   23.4121 C   0  0  0  0  0  0  0  0  0  0  0  0
    7.5564  -16.7926   23.2242 O   0  0  0  0  0  0  0  0  0  0  0  0
    7.7821  -12.1899   24.8223 C   0  0  0  0  0  0  0  0  0  0  0  0
    7.8835  -11.7934   26.1456 C   0  0  0  0  0  0  0  0  0  0  0  0
    9.1868  -15.7868   24.4475 N   0  0  0  0  0  0  0  0  0  0  0  0
    9.6540  -17.0718   24.9898 C   0  0  1  0  0  0  0  0  0  0  0  0
   10.2569  -17.8999   23.9032 C   0  0  0  0  0  0  0  0  0  0  0  0
   10.8709  -19.1674   24.4188 C   0  0  0  0  0  0  0  0  0  0  0  0
   11.4683  -19.9696   23.3051 C   0  0  0  0  0  0  0  0  0  0  0  0
   11.5265  -19.5413   22.1302 O   0  0  0  0  0  0  0  0  0  0  0  0
   10.5862  -16.8603   26.1061 C   0  0  0  0  0  0  0  0  0  0  0  0
   10.9754  -15.5474   26.3953 O   0  0  0  0  0  0  0  0  0  0  0  0
   11.9703  -21.2253   23.5938 O   0  0  0  0  0  0  0  0  0  0  0  0
   11.0620  -17.7528   26.8191 O   0  0  0  0  0  0  0  0  0  0  0  0
  2  1  1  0
  3  2  1  0
  4  5  1  0
  4  3  1  0
  5  6  1  1
  7  5  1  0
  7  8  2  0
  9 10  1  0
 10 20  2  0
 10 11  1  0
 11 12  2  0
 12 13  1  0
 13 14  1  0
 15 14  1  1
 15 16  1  0
 16  7  1  0
 17 15  1  0
 18 17  2  0
 19 13  2  0
 20 19  1  0
 21 17  1  0
 22 21  1  0
 22 27  1  0
 22 23  1  6
 24 23  1  0
 25 24  1  0
 26 25  2  0
 27 28  1  0
 29 25  1  0
 30 27  2  0
M  END
$$$$
