MYE.pdb
     RDKit          3D

 30 30  0  0  1  0  0  0  0  0999 V2000
    6.7099  -19.6973   19.6296 C   0  0  0  0  0  0  0  0  0  0  0  0
    6.9537  -18.6669   18.1840 S   0  0  0  0  0  0  0  0  0  0  0  0
    6.8596  -16.8972   18.5638 C   0  0  0  0  0  0  0  0  0  0  0  0
    7.4082  -16.5958   19.9408 C   0  0  0  0  0  0  0  0  0  0  0  0
    7.3028  -15.1280   20.2869 C   0  0  2  0  0  0  0  0  0  0  0  0
    7.6746  -14.2886   19.1548 N   0  0  0  0  0  0  0  0  0  0  0  0
    8.1508  -14.7557   21.4488 C   0  0  0  0  0  0  0  0  0  0  0  0
    9.3360  -14.3237   21.2809 O   0  0  0  0  0  0  0  0  0  0  0  0
   10.6843  -13.9921   30.0208 O   0  0  0  0  0  0  0  0  0  0  0  0
    9.9568  -14.1169   28.8281 C   0  0  0  0  0  0  0  0  0  0  0  0
    9.7112  -15.3385   28.2662 C   0  0  0  0  0  0  0  0  0  0  0  0
    8.9854  -15.4454   27.0789 C   0  0  0  0  0  0  0  0  0  0  0  0
    8.4946  -14.3363   26.4357 C   0  0  0  0  0  0  0  0  0  0  0  0
    7.7361  -14.4329   25.2007 C   0  0  0  0  0  0  0  0  0  0  0  0
    8.5355  -14.6421   23.9537 C   0  0  2  0  0  0  0  0  0  0  0  0
    7.6946  -14.8588   22.7911 N   0  0  0  0  0  0  0  0  0  0  0  0
    9.6030  -15.6306   24.0246 C   0  0  0  0  0  0  0  0  0  0  0  0
   10.5852  -15.4019   24.8136 O   0  0  0  0  0  0  0  0  0  0  0  0
    8.7453  -13.1109   27.0064 C   0  0  0  0  0  0  0  0  0  0  0  0
    9.4638  -12.9874   28.1841 C   0  0  0  0  0  0  0  0  0  0  0  0
    9.6816  -16.8449   23.3077 N   0  0  0  0  0  0  0  0  0  0  0  0
   10.7944  -17.7879   23.4982 C   0  0  1  0  0  0  0  0  0  0  0  0
   10.4258  -19.1328   22.9639 C   0  0  0  0  0  0  0  0  0  0  0  0
   11.5026  -20.1538   23.1825 C   0  0  0  0  0  0  0  0  0  0  0  0
   10.9182  -21.4990   23.4814 C   0  0  0  0  0  0  0  0  0  0  0  0
   10.2812  -22.1553   22.6265 O   0  0  0  0  0  0  0  0  0  0  0  0
   12.0282  -17.2703   22.8904 C   0  0  0  0  0  0  0  0  0  0  0  0
   13.1890  -17.2580   23.6723 O   0  0  0  0  0  0  0  0  0  0  0  0
   11.0932  -22.0264   24.7476 O   0  0  0  0  0  0  0  0  0  0  0  0
   12.1297  -16.8393   21.7349 O   0  0  0  0  0  0  0  0  0  0  0  0
  2  1  1  0
  3  2  1  0
  4  5  1  0
  4  3  1  0
  5  6  1  6
  7  5  1  0
  7  8  2  0
  9 10  1  0
 10 20  2  0
 10 11  1  0
 11 12  2  0
 12 13  1  0
 13 14  1  0
 15 14  1  1
 15 16  1  0
 16  7  1  0
 17 15  1  0
 18 17  2  0
 19 13  2  0
 20 19  1  0
 21 17  1  0
 22 21  1  0
 22 27  1  0
 22 23  1  6
 24 23  1  0
 25 24  1  0
 26 25  2  0
 27 28  1  0
 29 25  1  0
 30 27  2  0
M  END
$$$$
