VSC.pdb
     RDKit          3D

 20 19  0  0  1  0  0  0  0  0999 V2000
    9.2837  -12.5350   18.8897 C   0  0  0  0  0  0  0  0  0  0  0  0
    9.0750  -13.2425   20.1834 C   0  0  1  0  0  0  0  0  0  0  0  0
    7.7215  -12.8372   20.7374 C   0  0  0  0  0  0  0  0  0  0  0  0
    9.0940  -14.7358   20.0893 C   0  0  2  0  0  0  0  0  0  0  0  0
    8.2327  -15.1326   19.0055 N   0  0  0  0  0  0  0  0  0  0  0  0
    8.7896  -15.4232   21.3512 C   0  0  0  0  0  0  0  0  0  0  0  0
    7.5828  -15.5526   21.6755 O   0  0  0  0  0  0  0  0  0  0  0  0
   11.1610  -18.3052   23.0604 O   0  0  0  0  0  0  0  0  0  0  0  0
    9.8269  -18.1142   23.4165 C   0  0  0  0  0  0  0  0  0  0  0  0
    9.4647  -16.6561   23.4524 C   0  0  2  0  0  0  0  0  0  0  0  0
    9.7516  -15.9567   22.2403 N   0  0  0  0  0  0  0  0  0  0  0  0
   10.1504  -15.9836   24.5867 C   0  0  0  0  0  0  0  0  0  0  0  0
   11.3138  -15.4709   24.4549 O   0  0  0  0  0  0  0  0  0  0  0  0
    9.4890  -15.9108   25.8539 N   0  0  0  0  0  0  0  0  0  0  0  0
   10.1996  -15.3172   26.9560 C   0  0  1  0  0  0  0  0  0  0  0  0
    9.2987  -14.4598   27.8210 C   0  0  0  0  0  0  0  0  0  0  0  0
   10.2149  -13.2170   28.7517 S   0  0  0  0  0  0  0  0  0  0  0  0
   10.7388  -16.3873   27.8194 C   0  0  0  0  0  0  0  0  0  0  0  0
   10.2010  -17.5156   27.8015 O   0  0  0  0  0  0  0  0  0  0  0  0
   11.8242  -16.1912   28.6550 O   0  0  0  0  0  0  0  0  0  0  0  0
  2  1  1  6
  3  2  1  0
  4  5  1  6
  4  2  1  0
  6  4  1  0
  6  7  2  0
  8  9  1  0
 10  9  1  6
 10 11  1  0
 10 12  1  0
 11  6  1  0
 12 13  2  0
 12 14  1  0
 14 15  1  0
 15 18  1  0
 15 16  1  1
 17 16  1  0
 18 19  2  0
 18 20  1  0
M  END
$$$$
