VSC.pdb
     RDKit          3D

 20 19  0  0  1  0  0  0  0  0999 V2000
    8.8448  -13.1758   18.5656 C   0  0  0  0  0  0  0  0  0  0  0  0
    8.5676  -13.5212   19.9875 C   0  0  1  0  0  0  0  0  0  0  0  0
    7.2768  -12.8396   20.4025 C   0  0  0  0  0  0  0  0  0  0  0  0
    8.4101  -14.9849   20.2558 C   0  0  2  0  0  0  0  0  0  0  0  0
    7.5261  -15.5354   19.2613 N   0  0  0  0  0  0  0  0  0  0  0  0
    8.0048  -15.3054   21.6308 C   0  0  0  0  0  0  0  0  0  0  0  0
    6.8430  -14.9912   21.9911 O   0  0  0  0  0  0  0  0  0  0  0  0
    9.6981  -18.3030   23.9435 O   0  0  0  0  0  0  0  0  0  0  0  0
    8.4594  -17.7353   24.2374 C   0  0  0  0  0  0  0  0  0  0  0  0
    8.4352  -16.2644   23.9299 C   0  0  2  0  0  0  0  0  0  0  0  0
    8.8218  -15.9446   22.5923 N   0  0  0  0  0  0  0  0  0  0  0  0
    9.3003  -15.5250   24.8859 C   0  0  0  0  0  0  0  0  0  0  0  0
   10.5169  -15.2474   24.6091 O   0  0  0  0  0  0  0  0  0  0  0  0
    8.7542  -15.1162   26.1442 N   0  0  0  0  0  0  0  0  0  0  0  0
    9.6191  -14.4290   27.0670 C   0  0  1  0  0  0  0  0  0  0  0  0
    8.8848  -13.3602   27.8503 C   0  0  0  0  0  0  0  0  0  0  0  0
    8.0110  -12.1999   26.7824 S   0  0  0  0  0  0  0  0  0  0  0  0
   10.1505  -15.3969   28.0479 C   0  0  0  0  0  0  0  0  0  0  0  0
    9.7445  -16.5789   28.0210 O   0  0  0  0  0  0  0  0  0  0  0  0
   11.0875  -15.0469   29.0040 O   0  0  0  0  0  0  0  0  0  0  0  0
  2  1  1  6
  3  2  1  0
  4  5  1  6
  4  2  1  0
  6  4  1  0
  6  7  2  0
  8  9  1  0
 10  9  1  1
 10 11  1  0
 10 12  1  0
 11  6  1  0
 12 13  2  0
 12 14  1  0
 14 15  1  0
 15 18  1  0
 15 16  1  1
 17 16  1  0
 18 19  2  0
 18 20  1  0
M  END
$$$$
