VSC.pdb
     RDKit          3D

 20 19  0  0  1  0  0  0  0  0999 V2000
    8.3954  -13.2264   18.9777 C   0  0  0  0  0  0  0  0  0  0  0  0
    8.3716  -13.6343   20.4098 C   0  0  1  0  0  0  0  0  0  0  0  0
    7.3330  -12.7938   21.1294 C   0  0  0  0  0  0  0  0  0  0  0  0
    8.0286  -15.0718   20.6446 C   0  0  2  0  0  0  0  0  0  0  0  0
    6.8768  -15.3994   19.8448 N   0  0  0  0  0  0  0  0  0  0  0  0
    7.8705  -15.4302   22.0603 C   0  0  0  0  0  0  0  0  0  0  0  0
    6.7445  -15.2569   22.5898 O   0  0  0  0  0  0  0  0  0  0  0  0
   10.3960  -18.0965   24.1469 O   0  0  0  0  0  0  0  0  0  0  0  0
    9.0724  -17.8177   24.4842 C   0  0  0  0  0  0  0  0  0  0  0  0
    8.7294  -16.3747   24.2423 C   0  0  2  0  0  0  0  0  0  0  0  0
    8.8905  -15.9594   22.8849 N   0  0  0  0  0  0  0  0  0  0  0  0
    9.5394  -15.4982   25.1280 C   0  0  0  0  0  0  0  0  0  0  0  0
   10.6564  -15.0095   24.7443 O   0  0  0  0  0  0  0  0  0  0  0  0
    9.0535  -15.1969   26.4403 N   0  0  0  0  0  0  0  0  0  0  0  0
    9.8843  -14.3996   27.3039 C   0  0  1  0  0  0  0  0  0  0  0  0
    9.1010  -13.3044   27.9982 C   0  0  0  0  0  0  0  0  0  0  0  0
    7.8059  -12.6130   26.9520 S   0  0  0  0  0  0  0  0  0  0  0  0
   10.4547  -15.2604   28.3599 C   0  0  0  0  0  0  0  0  0  0  0  0
   10.1048  -16.4587   28.4263 O   0  0  0  0  0  0  0  0  0  0  0  0
   11.3685  -14.7916   29.2872 O   0  0  0  0  0  0  0  0  0  0  0  0
  2  1  1  6
  3  2  1  0
  4  5  1  6
  4  2  1  0
  6  4  1  0
  6  7  2  0
  8  9  1  0
 10  9  1  6
 10 11  1  0
 10 12  1  0
 11  6  1  0
 12 13  2  0
 12 14  1  0
 14 15  1  0
 15 18  1  0
 15 16  1  1
 17 16  1  0
 18 19  2  0
 18 20  1  0
M  END
$$$$
