VSC.pdb
     RDKit          3D

 20 19  0  0  1  0  0  0  0  0999 V2000
    7.7887  -11.6375   24.9684 C   0  0  0  0  0  0  0  0  0  0  0  0
    6.8494  -12.1862   25.9855 C   0  0  1  0  0  0  0  0  0  0  0  0
    5.7556  -11.1625   26.2280 C   0  0  0  0  0  0  0  0  0  0  0  0
    6.1862  -13.4697   25.5957 C   0  0  2  0  0  0  0  0  0  0  0  0
    5.1471  -13.7516   26.5520 N   0  0  0  0  0  0  0  0  0  0  0  0
    7.1133  -14.5924   25.4014 C   0  0  0  0  0  0  0  0  0  0  0  0
    7.4861  -15.2313   26.4168 O   0  0  0  0  0  0  0  0  0  0  0  0
    9.5367  -15.1705   21.9238 O   0  0  0  0  0  0  0  0  0  0  0  0
    8.9588  -16.2879   22.5242 C   0  0  0  0  0  0  0  0  0  0  0  0
    8.6166  -16.0301   23.9647 C   0  0  2  0  0  0  0  0  0  0  0  0
    7.6262  -15.0180   24.1539 N   0  0  0  0  0  0  0  0  0  0  0  0
    9.8409  -15.6742   24.7284 C   0  0  0  0  0  0  0  0  0  0  0  0
   10.4279  -14.5508   24.5641 O   0  0  0  0  0  0  0  0  0  0  0  0
   10.3713  -16.6142   25.6685 N   0  0  0  0  0  0  0  0  0  0  0  0
   11.0531  -16.1016   26.8279 C   0  0  1  0  0  0  0  0  0  0  0  0
   10.1850  -15.1521   27.6277 C   0  0  0  0  0  0  0  0  0  0  0  0
   10.9852  -14.5976   29.1450 S   0  0  0  0  0  0  0  0  0  0  0  0
   11.4042  -17.2243   27.7212 C   0  0  0  0  0  0  0  0  0  0  0  0
   12.2103  -17.0310   28.6568 O   0  0  0  0  0  0  0  0  0  0  0  0
   10.8732  -18.4924   27.5642 O   0  0  0  0  0  0  0  0  0  0  0  0
  2  1  1  6
  3  2  1  0
  4  5  1  1
  4  2  1  0
  6  4  1  0
  6  7  2  0
  8  9  1  0
 10  9  1  6
 10 11  1  0
 10 12  1  0
 11  6  1  0
 12 13  2  0
 12 14  1  0
 14 15  1  0
 15 18  1  0
 15 16  1  1
 17 16  1  0
 18 19  2  0
 18 20  1  0
M  END
$$$$
