DPD.pdb
     RDKit          3D

 24 24  0  0  1  0  0  0  0  0999 V2000
   10.2060  -15.7321   15.2350 N   0  0  0  0  0  0  0  0  0  0  0  0
    9.0417  -15.5825   16.0860 C   0  0  1  0  0  0  0  0  0  0  0  0
    8.2290  -16.8412   15.9918 C   0  0  0  0  0  0  0  0  0  0  0  0
    7.6377  -17.0197   14.6233 C   0  0  0  0  0  0  0  0  0  0  0  0
    7.3672  -15.9653   13.9851 O   0  0  0  0  0  0  0  0  0  0  0  0
    9.3891  -15.0995   17.4127 C   0  0  0  0  0  0  0  0  0  0  0  0
   10.5847  -15.4152   17.8240 O   0  0  0  0  0  0  0  0  0  0  0  0
    7.4010  -18.2595   14.0884 O   0  0  0  0  0  0  0  0  0  0  0  0
    8.6370  -14.3425   18.3297 N   0  0  0  0  0  0  0  0  0  0  0  0
    7.3567  -13.7002   18.2996 C   0  0  0  0  0  0  0  0  0  0  0  0
    7.7291  -12.3289   18.8937 C   0  0  0  0  0  0  0  0  0  0  0  0
    8.4991  -12.7687   20.1202 C   0  0  0  0  0  0  0  0  0  0  0  0
    9.1257  -14.0577   19.6910 C   0  0  1  0  0  0  0  0  0  0  0  0
    8.8178  -15.1941   20.5969 C   0  0  0  0  0  0  0  0  0  0  0  0
    7.9878  -16.0781   20.2673 O   0  0  0  0  0  0  0  0  0  0  0  0
    9.4452  -15.3359   21.8754 N   0  0  0  0  0  0  0  0  0  0  0  0
   10.0864  -16.5364   22.3134 C   0  0  1  0  0  0  0  0  0  0  0  0
   11.0662  -17.0888   21.3042 C   0  0  0  0  0  0  0  0  0  0  0  0
   11.7214  -18.3162   21.7437 C   0  0  0  0  0  0  0  0  0  0  0  0
   11.1474  -19.4314   21.7390 O   0  0  0  0  0  0  0  0  0  0  0  0
   10.6870  -16.4278   23.6626 C   0  0  0  0  0  0  0  0  0  0  0  0
   11.4580  -15.5061   24.0114 O   0  0  0  0  0  0  0  0  0  0  0  0
   13.0313  -18.2650   22.1874 O   0  0  0  0  0  0  0  0  0  0  0  0
   10.3784  -17.4033   24.5958 O   0  0  0  0  0  0  0  0  0  0  0  0
  2  1  1  6
  2  3  1  0
  3  4  1  0
  4  8  1  0
  5  4  2  0
  6  2  1  0
  7  6  2  0
  9  6  1  0
  9 13  1  0
 10 11  1  0
 10  9  1  0
 11 12  1  0
 12 13  1  0
 14 16  1  0
 13 14  1  1
 15 14  2  0
 17 16  1  0
 17 18  1  6
 19 18  1  0
 19 23  1  0
 20 19  2  0
 21 24  1  0
 21 17  1  0
 22 21  2  0
M  END
$$$$
