DPD.pdb
     RDKit          3D

 24 24  0  0  1  0  0  0  0  0999 V2000
   -0.7962  -23.9410   23.5488 N   0  0  0  0  0  0  0  0  0  0  0  0
   -2.1707  -23.6542   23.1873 C   0  0  1  0  0  0  0  0  0  0  0  0
   -2.8472  -24.9523   22.8542 C   0  0  0  0  0  0  0  0  0  0  0  0
   -2.2203  -25.6155   21.6620 C   0  0  0  0  0  0  0  0  0  0  0  0
   -1.6237  -26.7069   21.8741 O   0  0  0  0  0  0  0  0  0  0  0  0
   -2.8211  -22.7802   24.1503 C   0  0  0  0  0  0  0  0  0  0  0  0
   -2.4449  -22.9386   25.3880 O   0  0  0  0  0  0  0  0  0  0  0  0
   -2.2881  -25.0702   20.4061 O   0  0  0  0  0  0  0  0  0  0  0  0
   -3.7980  -21.7858   23.9597 N   0  0  0  0  0  0  0  0  0  0  0  0
   -4.5292  -21.2908   22.8314 C   0  0  0  0  0  0  0  0  0  0  0  0
   -4.3614  -19.7748   23.0455 C   0  0  0  0  0  0  0  0  0  0  0  0
   -4.7523  -19.6655   24.5035 C   0  0  0  0  0  0  0  0  0  0  0  0
   -4.3136  -20.9755   25.0780 C   0  0  1  0  0  0  0  0  0  0  0  0
   -5.3992  -21.7036   25.7839 C   0  0  0  0  0  0  0  0  0  0  0  0
   -6.0369  -22.6249   25.2150 O   0  0  0  0  0  0  0  0  0  0  0  0
   -5.7675  -21.3946   27.1319 N   0  0  0  0  0  0  0  0  0  0  0  0
   -6.7751  -22.1019   27.8589 C   0  0  1  0  0  0  0  0  0  0  0  0
   -6.7029  -21.8725   29.3507 C   0  0  0  0  0  0  0  0  0  0  0  0
   -7.7064  -22.6195   30.1017 C   0  0  0  0  0  0  0  0  0  0  0  0
   -7.6977  -23.8708   30.1877 O   0  0  0  0  0  0  0  0  0  0  0  0
   -8.1431  -21.8883   27.3338 C   0  0  0  0  0  0  0  0  0  0  0  0
   -8.5053  -20.8545   26.7291 O   0  0  0  0  0  0  0  0  0  0  0  0
   -8.7171  -21.9336   30.7522 O   0  0  0  0  0  0  0  0  0  0  0  0
   -9.0795  -22.8911   27.5220 O   0  0  0  0  0  0  0  0  0  0  0  0
  2  1  1  1
  2  3  1  0
  3  4  1  0
  4  8  1  0
  5  4  2  0
  6  2  1  0
  7  6  2  0
  9  6  1  0
  9 13  1  0
 10 11  1  0
 10  9  1  0
 11 12  1  0
 12 13  1  0
 14 16  1  0
 13 14  1  6
 15 14  2  0
 17 16  1  0
 17 18  1  1
 19 18  1  0
 19 23  1  0
 20 19  2  0
 21 24  1  0
 21 17  1  0
 22 21  2  0
M  END
$$$$
