DPD.pdb
     RDKit          3D

 24 24  0  0  1  0  0  0  0  0999 V2000
    9.9505  -15.8606   15.2540 N   0  0  0  0  0  0  0  0  0  0  0  0
    8.8672  -15.7117   16.2060 C   0  0  1  0  0  0  0  0  0  0  0  0
    8.1138  -17.0089   16.2637 C   0  0  0  0  0  0  0  0  0  0  0  0
    7.5667  -17.3938   14.9195 C   0  0  0  0  0  0  0  0  0  0  0  0
    8.0257  -18.4515   14.4069 O   0  0  0  0  0  0  0  0  0  0  0  0
    9.3155  -15.1335   17.4625 C   0  0  0  0  0  0  0  0  0  0  0  0
   10.5706  -15.3339   17.7505 O   0  0  0  0  0  0  0  0  0  0  0  0
    6.6184  -16.6410   14.2766 O   0  0  0  0  0  0  0  0  0  0  0  0
    8.6076  -14.3889   18.4238 N   0  0  0  0  0  0  0  0  0  0  0  0
    7.2667  -13.8963   18.5336 C   0  0  0  0  0  0  0  0  0  0  0  0
    7.5471  -12.4470   18.9729 C   0  0  0  0  0  0  0  0  0  0  0  0
    8.5223  -12.6940   20.1036 C   0  0  0  0  0  0  0  0  0  0  0  0
    9.2367  -13.9379   19.6783 C   0  0  1  0  0  0  0  0  0  0  0  0
    9.1929  -15.0204   20.6946 C   0  0  0  0  0  0  0  0  0  0  0  0
    8.2941  -15.8982   20.6669 O   0  0  0  0  0  0  0  0  0  0  0  0
   10.1620  -15.1154   21.7435 N   0  0  0  0  0  0  0  0  0  0  0  0
   10.2252  -16.2057   22.6662 C   0  0  1  0  0  0  0  0  0  0  0  0
   11.6094  -16.4273   23.2303 C   0  0  0  0  0  0  0  0  0  0  0  0
   12.6572  -16.4228   22.2148 C   0  0  0  0  0  0  0  0  0  0  0  0
   13.6722  -15.6898   22.2898 O   0  0  0  0  0  0  0  0  0  0  0  0
    9.1996  -16.1385   23.7322 C   0  0  0  0  0  0  0  0  0  0  0  0
    8.5324  -15.1132   23.9954 O   0  0  0  0  0  0  0  0  0  0  0  0
   12.5414  -17.2565   21.1163 O   0  0  0  0  0  0  0  0  0  0  0  0
    8.9630  -17.2769   24.4843 O   0  0  0  0  0  0  0  0  0  0  0  0
  2  1  1  6
  2  3  1  0
  3  4  1  0
  4  8  1  0
  5  4  2  0
  6  2  1  0
  7  6  2  0
  9  6  1  0
  9 13  1  0
 10 11  1  0
 10  9  1  0
 11 12  1  0
 12 13  1  0
 14 16  1  0
 13 14  1  1
 15 14  2  0
 17 16  1  0
 17 18  1  1
 19 18  1  0
 19 23  1  0
 20 19  2  0
 21 24  1  0
 21 17  1  0
 22 21  2  0
M  END
$$$$
