DPD.pdb
     RDKit          3D

 24 24  0  0  1  0  0  0  0  0999 V2000
    8.9151  -17.8799   18.0696 N   0  0  0  0  0  0  0  0  0  0  0  0
    8.0476  -17.3233   19.0892 C   0  0  1  0  0  0  0  0  0  0  0  0
    7.0014  -18.3469   19.4228 C   0  0  0  0  0  0  0  0  0  0  0  0
    6.2707  -18.8142   18.1972 C   0  0  0  0  0  0  0  0  0  0  0  0
    6.6832  -18.3678   17.0915 O   0  0  0  0  0  0  0  0  0  0  0  0
    8.7975  -16.7393   20.1896 C   0  0  0  0  0  0  0  0  0  0  0  0
   10.0653  -17.0394   20.2198 O   0  0  0  0  0  0  0  0  0  0  0  0
    5.2101  -19.6799   18.2677 O   0  0  0  0  0  0  0  0  0  0  0  0
    8.3715  -15.8981   21.2340 N   0  0  0  0  0  0  0  0  0  0  0  0
    7.1105  -15.3551   21.6435 C   0  0  0  0  0  0  0  0  0  0  0  0
    7.5110  -13.8854   21.8706 C   0  0  0  0  0  0  0  0  0  0  0  0
    8.7437  -14.0733   22.7284 C   0  0  0  0  0  0  0  0  0  0  0  0
    9.3097  -15.3696   22.2407 C   0  0  1  0  0  0  0  0  0  0  0  0
    9.5197  -16.3660   23.3223 C   0  0  0  0  0  0  0  0  0  0  0  0
    8.5793  -17.0995   23.7181 O   0  0  0  0  0  0  0  0  0  0  0  0
   10.7898  -16.5373   23.9592 N   0  0  0  0  0  0  0  0  0  0  0  0
   11.0832  -17.6035   24.8655 C   0  0  1  0  0  0  0  0  0  0  0  0
   12.4301  -18.2415   24.6163 C   0  0  0  0  0  0  0  0  0  0  0  0
   12.7527  -19.3041   25.5628 C   0  0  0  0  0  0  0  0  0  0  0  0
   11.8966  -19.8230   26.3185 O   0  0  0  0  0  0  0  0  0  0  0  0
   10.9017  -17.2368   26.2886 C   0  0  0  0  0  0  0  0  0  0  0  0
   10.7366  -16.0638   26.6917 O   0  0  0  0  0  0  0  0  0  0  0  0
   14.0532  -19.7702   25.6427 O   0  0  0  0  0  0  0  0  0  0  0  0
   10.9151  -18.2507   27.2317 O   0  0  0  0  0  0  0  0  0  0  0  0
  2  1  1  6
  2  3  1  0
  3  4  1  0
  4  8  1  0
  5  4  2  0
  6  2  1  0
  7  6  2  0
  9  6  1  0
  9 13  1  0
 10 11  1  0
 10  9  1  0
 11 12  1  0
 12 13  1  0
 14 16  1  0
 13 14  1  1
 15 14  2  0
 17 16  1  0
 17 18  1  1
 19 18  1  0
 19 23  1  0
 20 19  2  0
 21 24  1  0
 21 17  1  0
 22 21  2  0
M  END
$$$$
