DPD.pdb
     RDKit          3D

 24 24  0  0  1  0  0  0  0  0999 V2000
   10.0352  -15.8141   15.0632 N   0  0  0  0  0  0  0  0  0  0  0  0
    8.9907  -15.6343   16.0525 C   0  0  1  0  0  0  0  0  0  0  0  0
    8.2262  -16.9214   16.1646 C   0  0  0  0  0  0  0  0  0  0  0  0
    7.7045  -17.3756   14.8320 C   0  0  0  0  0  0  0  0  0  0  0  0
    6.8885  -16.6055   14.2548 O   0  0  0  0  0  0  0  0  0  0  0  0
    9.4929  -15.0369   17.2794 C   0  0  0  0  0  0  0  0  0  0  0  0
   10.7784  -15.1443   17.4645 O   0  0  0  0  0  0  0  0  0  0  0  0
    8.0897  -18.5631   14.2657 O   0  0  0  0  0  0  0  0  0  0  0  0
    8.8098  -14.3586   18.3054 N   0  0  0  0  0  0  0  0  0  0  0  0
    7.4477  -13.9754   18.5308 C   0  0  0  0  0  0  0  0  0  0  0  0
    7.6480  -12.5117   18.9662 C   0  0  0  0  0  0  0  0  0  0  0  0
    8.7293  -12.6886   20.0103 C   0  0  0  0  0  0  0  0  0  0  0  0
    9.5023  -13.8682   19.5108 C   0  0  1  0  0  0  0  0  0  0  0  0
    9.6278  -14.9585   20.5120 C   0  0  0  0  0  0  0  0  0  0  0  0
    8.7830  -15.8871   20.5670 O   0  0  0  0  0  0  0  0  0  0  0  0
   10.7056  -15.0038   21.4525 N   0  0  0  0  0  0  0  0  0  0  0  0
   10.9335  -16.0991   22.3427 C   0  0  1  0  0  0  0  0  0  0  0  0
   12.3707  -16.2063   22.7971 C   0  0  0  0  0  0  0  0  0  0  0  0
   13.3292  -16.1953   21.6971 C   0  0  0  0  0  0  0  0  0  0  0  0
   13.1629  -16.8576   20.6450 O   0  0  0  0  0  0  0  0  0  0  0  0
    9.9900  -16.1405   23.4832 C   0  0  0  0  0  0  0  0  0  0  0  0
    9.8598  -17.1237   24.2462 O   0  0  0  0  0  0  0  0  0  0  0  0
   14.4754  -15.4271   21.8032 O   0  0  0  0  0  0  0  0  0  0  0  0
    9.2037  -15.0259   23.7218 O   0  0  0  0  0  0  0  0  0  0  0  0
  2  1  1  6
  2  3  1  0
  3  4  1  0
  4  8  1  0
  5  4  2  0
  6  2  1  0
  7  6  2  0
  9  6  1  0
  9 13  1  0
 10 11  1  0
 10  9  1  0
 11 12  1  0
 12 13  1  0
 14 16  1  0
 13 14  1  1
 15 14  2  0
 17 16  1  0
 17 18  1  1
 19 18  1  0
 19 23  1  0
 20 19  2  0
 21 24  1  0
 21 17  1  0
 22 21  2  0
M  END
$$$$
