DPD.pdb
     RDKit          3D

 24 24  0  0  1  0  0  0  0  0999 V2000
    9.5479  -15.5931   14.7555 N   0  0  0  0  0  0  0  0  0  0  0  0
    8.6898  -15.6711   15.9216 C   0  0  1  0  0  0  0  0  0  0  0  0
    8.1993  -17.0843   16.0475 C   0  0  0  0  0  0  0  0  0  0  0  0
    7.4185  -17.5112   14.8383 C   0  0  0  0  0  0  0  0  0  0  0  0
    8.0706  -18.0763   13.9177 O   0  0  0  0  0  0  0  0  0  0  0  0
    9.2969  -15.0590   17.0925 C   0  0  0  0  0  0  0  0  0  0  0  0
   10.5986  -15.1063   17.1329 O   0  0  0  0  0  0  0  0  0  0  0  0
    6.0679  -17.3015   14.7324 O   0  0  0  0  0  0  0  0  0  0  0  0
    8.7012  -14.4211   18.1961 N   0  0  0  0  0  0  0  0  0  0  0  0
    7.3532  -14.1857   18.6205 C   0  0  0  0  0  0  0  0  0  0  0  0
    7.4427  -12.6922   18.9861 C   0  0  0  0  0  0  0  0  0  0  0  0
    8.6824  -12.7030   19.8542 C   0  0  0  0  0  0  0  0  0  0  0  0
    9.5049  -13.8070   19.2683 C   0  0  1  0  0  0  0  0  0  0  0  0
    9.9079  -14.8344   20.2628 C   0  0  0  0  0  0  0  0  0  0  0  0
    9.2198  -15.8713   20.4371 O   0  0  0  0  0  0  0  0  0  0  0  0
   11.0869  -14.6947   21.0620 N   0  0  0  0  0  0  0  0  0  0  0  0
   11.5273  -15.6786   22.0012 C   0  0  1  0  0  0  0  0  0  0  0  0
   12.9770  -15.5164   22.3957 C   0  0  0  0  0  0  0  0  0  0  0  0
   13.8712  -15.3353   21.2571 C   0  0  0  0  0  0  0  0  0  0  0  0
   14.5926  -14.3191   21.1154 O   0  0  0  0  0  0  0  0  0  0  0  0
   10.6448  -15.8042   23.1837 C   0  0  0  0  0  0  0  0  0  0  0  0
    9.7031  -15.0207   23.4383 O   0  0  0  0  0  0  0  0  0  0  0  0
   13.9381  -16.3167   20.2837 O   0  0  0  0  0  0  0  0  0  0  0  0
   10.8734  -16.8505   24.0616 O   0  0  0  0  0  0  0  0  0  0  0  0
  2  1  1  6
  2  3  1  0
  3  4  1  0
  4  8  1  0
  5  4  2  0
  6  2  1  0
  7  6  2  0
  9  6  1  0
  9 13  1  0
 10 11  1  0
 10  9  1  0
 11 12  1  0
 12 13  1  0
 14 16  1  0
 13 14  1  1
 15 14  2  0
 17 16  1  0
 17 18  1  1
 19 18  1  0
 19 23  1  0
 20 19  2  0
 21 24  1  0
 21 17  1  0
 22 21  2  0
M  END
$$$$
