DPD.pdb
     RDKit          3D

 24 24  0  0  1  0  0  0  0  0999 V2000
    8.1288  -14.4699   21.1230 N   0  0  0  0  0  0  0  0  0  0  0  0
    7.5251  -14.9550   22.3487 C   0  0  1  0  0  0  0  0  0  0  0  0
    7.3290  -16.4376   22.2184 C   0  0  0  0  0  0  0  0  0  0  0  0
    6.4464  -16.7810   21.0534 C   0  0  0  0  0  0  0  0  0  0  0  0
    5.3167  -16.2202   21.0186 O   0  0  0  0  0  0  0  0  0  0  0  0
    8.2141  -14.4652   23.5318 C   0  0  0  0  0  0  0  0  0  0  0  0
    9.5143  -14.5426   23.4901 O   0  0  0  0  0  0  0  0  0  0  0  0
    6.8401  -17.6570   20.0751 O   0  0  0  0  0  0  0  0  0  0  0  0
    7.6995  -13.9190   24.7219 N   0  0  0  0  0  0  0  0  0  0  0  0
    6.3849  -13.6547   25.2267 C   0  0  0  0  0  0  0  0  0  0  0  0
    6.5795  -12.2179   25.7462 C   0  0  0  0  0  0  0  0  0  0  0  0
    7.8471  -12.3947   26.5541 C   0  0  0  0  0  0  0  0  0  0  0  0
    8.5781  -13.4731   25.8184 C   0  0  1  0  0  0  0  0  0  0  0  0
    8.9530  -14.6248   26.6787 C   0  0  0  0  0  0  0  0  0  0  0  0
    8.1164  -15.5171   26.9664 O   0  0  0  0  0  0  0  0  0  0  0  0
   10.2714  -14.7724   27.2156 N   0  0  0  0  0  0  0  0  0  0  0  0
   10.6662  -15.8594   28.0564 C   0  0  1  0  0  0  0  0  0  0  0  0
   12.0675  -16.3497   27.7748 C   0  0  0  0  0  0  0  0  0  0  0  0
   12.1082  -17.6888   27.1967 C   0  0  0  0  0  0  0  0  0  0  0  0
   11.0797  -18.3862   27.0261 O   0  0  0  0  0  0  0  0  0  0  0  0
   10.4524  -15.5995   29.4985 C   0  0  0  0  0  0  0  0  0  0  0  0
   10.2933  -14.4582   29.9861 O   0  0  0  0  0  0  0  0  0  0  0  0
   13.3248  -18.2268   26.8152 O   0  0  0  0  0  0  0  0  0  0  0  0
   10.4266  -16.6826   30.3610 O   0  0  0  0  0  0  0  0  0  0  0  0
  2  1  1  6
  2  3  1  0
  3  4  1  0
  4  8  1  0
  5  4  2  0
  6  2  1  0
  7  6  2  0
  9  6  1  0
  9 13  1  0
 10 11  1  0
 10  9  1  0
 11 12  1  0
 12 13  1  0
 14 16  1  0
 13 14  1  1
 15 14  2  0
 17 16  1  0
 17 18  1  1
 19 18  1  0
 19 23  1  0
 20 19  2  0
 21 24  1  0
 21 17  1  0
 22 21  2  0
M  END
$$$$
