DPD.pdb
     RDKit          3D

 24 24  0  0  1  0  0  0  0  0999 V2000
    8.6969  -14.9165   21.3191 N   0  0  0  0  0  0  0  0  0  0  0  0
    7.7452  -14.9573   22.4121 C   0  0  1  0  0  0  0  0  0  0  0  0
    7.0634  -16.2946   22.3888 C   0  0  0  0  0  0  0  0  0  0  0  0
    6.5148  -16.6149   21.0284 C   0  0  0  0  0  0  0  0  0  0  0  0
    6.7838  -15.7969   20.1061 O   0  0  0  0  0  0  0  0  0  0  0  0
    8.3319  -14.5190   23.6683 C   0  0  0  0  0  0  0  0  0  0  0  0
    9.6259  -14.6481   23.7526 O   0  0  0  0  0  0  0  0  0  0  0  0
    5.7604  -17.7350   20.7929 O   0  0  0  0  0  0  0  0  0  0  0  0
    7.7232  -13.9758   24.8146 N   0  0  0  0  0  0  0  0  0  0  0  0
    6.3742  -13.6887   25.2024 C   0  0  0  0  0  0  0  0  0  0  0  0
    6.5509  -12.2628   25.7571 C   0  0  0  0  0  0  0  0  0  0  0  0
    7.7363  -12.4769   26.6734 C   0  0  0  0  0  0  0  0  0  0  0  0
    8.5082  -13.5623   25.9918 C   0  0  1  0  0  0  0  0  0  0  0  0
    8.7798  -14.7320   26.8664 C   0  0  0  0  0  0  0  0  0  0  0  0
    7.9375  -15.6561   26.9915 O   0  0  0  0  0  0  0  0  0  0  0  0
   10.0011  -14.8620   27.6011 N   0  0  0  0  0  0  0  0  0  0  0  0
   10.3907  -16.0564   28.2836 C   0  0  1  0  0  0  0  0  0  0  0  0
   11.5304  -16.7823   27.6073 C   0  0  0  0  0  0  0  0  0  0  0  0
   11.9311  -18.0038   28.2975 C   0  0  0  0  0  0  0  0  0  0  0  0
   11.4453  -19.1278   28.0255 O   0  0  0  0  0  0  0  0  0  0  0  0
   10.6450  -15.8558   29.7286 C   0  0  0  0  0  0  0  0  0  0  0  0
   10.8856  -16.7855   30.5308 O   0  0  0  0  0  0  0  0  0  0  0  0
   12.8860  -17.9368   29.2969 O   0  0  0  0  0  0  0  0  0  0  0  0
   10.6152  -14.5630   30.2242 O   0  0  0  0  0  0  0  0  0  0  0  0
  2  1  1  6
  2  3  1  0
  3  4  1  0
  4  8  1  0
  5  4  2  0
  6  2  1  0
  7  6  2  0
  9  6  1  0
  9 13  1  0
 10 11  1  0
 10  9  1  0
 11 12  1  0
 12 13  1  0
 14 16  1  0
 13 14  1  1
 15 14  2  0
 17 16  1  0
 17 18  1  6
 19 18  1  0
 19 23  1  0
 20 19  2  0
 21 24  1  0
 21 17  1  0
 22 21  2  0
M  END
$$$$
