DPD.pdb
     RDKit          3D

 24 24  0  0  1  0  0  0  0  0999 V2000
    9.6300  -16.5665   15.7002 N   0  0  0  0  0  0  0  0  0  0  0  0
    8.5661  -16.1067   16.5714 C   0  0  1  0  0  0  0  0  0  0  0  0
    7.5645  -17.2161   16.7118 C   0  0  0  0  0  0  0  0  0  0  0  0
    7.0175  -17.6425   15.3801 C   0  0  0  0  0  0  0  0  0  0  0  0
    7.0154  -16.7713   14.4674 O   0  0  0  0  0  0  0  0  0  0  0  0
    9.0774  -15.4990   17.7894 C   0  0  0  0  0  0  0  0  0  0  0  0
   10.2889  -15.8481   18.1190 O   0  0  0  0  0  0  0  0  0  0  0  0
    6.5434  -18.9098   15.1598 O   0  0  0  0  0  0  0  0  0  0  0  0
    8.4702  -14.5900   18.6752 N   0  0  0  0  0  0  0  0  0  0  0  0
    7.1950  -13.9400   18.7390 C   0  0  0  0  0  0  0  0  0  0  0  0
    7.6428  -12.4965   19.0355 C   0  0  0  0  0  0  0  0  0  0  0  0
    8.5981  -12.7430   20.1833 C   0  0  0  0  0  0  0  0  0  0  0  0
    9.1620  -14.0951   19.8792 C   0  0  1  0  0  0  0  0  0  0  0  0
    9.0089  -15.0631   20.9956 C   0  0  0  0  0  0  0  0  0  0  0  0
    8.0349  -15.8560   21.0358 O   0  0  0  0  0  0  0  0  0  0  0  0
    9.9536  -15.1390   22.0680 N   0  0  0  0  0  0  0  0  0  0  0  0
   10.4541  -16.3699   22.5960 C   0  0  1  0  0  0  0  0  0  0  0  0
   10.9614  -17.3116   21.5287 C   0  0  0  0  0  0  0  0  0  0  0  0
   11.4946  -18.5604   22.0627 C   0  0  0  0  0  0  0  0  0  0  0  0
   12.5745  -18.6209   22.6979 O   0  0  0  0  0  0  0  0  0  0  0  0
   11.4405  -16.1885   23.6854 C   0  0  0  0  0  0  0  0  0  0  0  0
   11.3370  -16.7151   24.8158 O   0  0  0  0  0  0  0  0  0  0  0  0
   10.7916  -19.7365   21.8691 O   0  0  0  0  0  0  0  0  0  0  0  0
   12.5443  -15.3887   23.4413 O   0  0  0  0  0  0  0  0  0  0  0  0
  2  1  1  1
  2  3  1  0
  3  4  1  0
  4  8  1  0
  5  4  2  0
  6  2  1  0
  7  6  2  0
  9  6  1  0
  9 13  1  0
 10 11  1  0
 10  9  1  0
 11 12  1  0
 12 13  1  0
 14 16  1  0
 13 14  1  1
 15 14  2  0
 17 16  1  0
 17 18  1  6
 19 18  1  0
 19 23  1  0
 20 19  2  0
 21 24  1  0
 21 17  1  0
 22 21  2  0
M  END
$$$$
