GRG.pdb
     RDKit          3D

 20 19  0  0  1  0  0  0  0  0999 V2000
   13.3977  -22.0019   22.9389 N   0  0  0  0  0  0  0  0  0  0  0  0
   13.4923  -22.7887   24.1467 C   0  0  0  0  0  0  0  0  0  0  0  0
   14.0743  -21.9908   25.2846 C   0  0  0  0  0  0  0  0  0  0  0  0
   14.5715  -20.8586   25.0753 O   0  0  0  0  0  0  0  0  0  0  0  0
   14.9030  -21.0211   33.4398 N   0  0  0  0  0  0  0  0  0  0  0  0
   13.8672  -20.1787   32.9734 C   0  0  0  0  0  0  0  0  0  0  0  0
   12.8548  -19.9216   33.7415 N   0  0  0  0  0  0  0  0  0  0  0  0
   13.9445  -19.6214   31.6691 N   0  0  0  0  0  0  0  0  0  0  0  0
   13.4727  -20.3434   30.5082 C   0  0  0  0  0  0  0  0  0  0  0  0
   14.4418  -21.5153   30.2532 C   0  0  0  0  0  0  0  0  0  0  0  0
   14.0490  -22.2626   29.0282 C   0  0  0  0  0  0  0  0  0  0  0  0
   14.6031  -21.8064   27.7757 C   0  0  2  0  0  0  0  0  0  0  0  0
   14.0737  -22.4908   26.5978 N   0  0  0  0  0  0  0  0  0  0  0  0
   15.9321  -21.3407   27.5398 C   0  0  0  0  0  0  0  0  0  0  0  0
   16.7996  -22.2531   27.2013 O   0  0  0  0  0  0  0  0  0  0  0  0
   12.0128  -19.4153   33.4044 N   0  0  0  0  0  0  0  0  0  0  0  0
   16.4765  -20.0509   27.6103 C   0  0  0  0  0  0  0  0  0  0  0  0
   17.9027  -19.7909   27.3231 C   0  0  0  0  0  0  0  0  0  0  0  0
   18.7087  -19.6998   28.5590 O   0  0  0  0  0  0  0  0  0  0  0  0
   20.0514  -19.4209   28.5324 O   0  0  0  0  0  0  0  0  0  0  0  0
  1  2  1  0
  2  3  1  0
  3 13  1  0
  4  3  2  0
  5  6  1  0
  6  8  1  0
  7  6  2  0
  9  8  1  0
 10  9  1  0
 12 11  1  1
 11 10  1  0
 12 14  1  0
 13 12  1  0
 14 16  1  0
 14 15  2  0
 16 17  1  0
 17 18  1  0
 18 19  1  0
 20 18  2  0
M  END
$$$$
