GRG.pdb
     RDKit          3D

 20 19  0  0  1  0  0  0  0  0999 V2000
    5.2259  -21.0058   22.4886 N   0  0  0  0  0  0  0  0  0  0  0  0
    4.7813  -19.6623   22.7787 C   0  0  0  0  0  0  0  0  0  0  0  0
    5.8757  -18.8393   23.4076 C   0  0  0  0  0  0  0  0  0  0  0  0
    6.8371  -19.3998   23.9859 O   0  0  0  0  0  0  0  0  0  0  0  0
    7.5453  -12.0431   19.2749 N   0  0  0  0  0  0  0  0  0  0  0  0
    8.2147  -13.2744   19.4638 C   0  0  0  0  0  0  0  0  0  0  0  0
    8.2116  -14.1581   18.5151 N   0  0  0  0  0  0  0  0  0  0  0  0
    8.8845  -13.5325   20.6895 N   0  0  0  0  0  0  0  0  0  0  0  0
    8.1653  -13.6219   21.9410 C   0  0  0  0  0  0  0  0  0  0  0  0
    7.7000  -15.0814   22.1167 C   0  0  0  0  0  0  0  0  0  0  0  0
    6.8866  -15.2265   23.3539 C   0  0  0  0  0  0  0  0  0  0  0  0
    6.8358  -16.5378   23.9554 C   0  0  2  0  0  0  0  0  0  0  0  0
    5.8469  -17.4352   23.3613 N   0  0  0  0  0  0  0  0  0  0  0  0
    7.0639  -16.8668   25.3260 C   0  0  0  0  0  0  0  0  0  0  0  0
    6.0463  -16.7026   26.1242 O   0  0  0  0  0  0  0  0  0  0  0  0
    8.6733  -15.0836   18.6128 N   0  0  0  0  0  0  0  0  0  0  0  0
    8.2115  -17.3436   25.9746 C   0  0  0  0  0  0  0  0  0  0  0  0
    8.2454  -17.5637   27.4356 C   0  0  0  0  0  0  0  0  0  0  0  0
    9.5690  -18.0368   27.8935 O   0  0  0  0  0  0  0  0  0  0  0  0
    9.8362  -18.2802   29.2167 O   0  0  0  0  0  0  0  0  0  0  0  0
  1  2  1  0
  2  3  1  0
  3 13  1  0
  4  3  2  0
  5  6  1  0
  6  8  1  0
  7  6  2  0
  9  8  1  0
 10  9  1  0
 12 11  1  1
 11 10  1  0
 12 14  1  0
 13 12  1  0
 14 16  1  0
 14 15  2  0
 16 17  1  0
 17 18  1  0
 18 19  1  0
 20 18  2  0
M  END
$$$$
