GRG.pdb
     RDKit          3D

 20 19  0  0  1  0  0  0  0  0999 V2000
    8.7242  -20.0057   20.2484 N   0  0  0  0  0  0  0  0  0  0  0  0
    7.8229  -18.9712   20.7003 C   0  0  0  0  0  0  0  0  0  0  0  0
    8.5712  -17.7594   21.1923 C   0  0  0  0  0  0  0  0  0  0  0  0
    9.8246  -17.7633   21.2360 O   0  0  0  0  0  0  0  0  0  0  0  0
    8.8261  -15.0098   17.7335 N   0  0  0  0  0  0  0  0  0  0  0  0
    8.0242  -13.8840   17.4346 C   0  0  0  0  0  0  0  0  0  0  0  0
    7.6252  -13.6860   16.2169 N   0  0  0  0  0  0  0  0  0  0  0  0
    7.6622  -12.9808   18.4694 N   0  0  0  0  0  0  0  0  0  0  0  0
    8.1837  -13.1188   19.8113 C   0  0  0  0  0  0  0  0  0  0  0  0
    7.1444  -13.8937   20.6460 C   0  0  0  0  0  0  0  0  0  0  0  0
    7.6835  -14.2027   21.9977 C   0  0  0  0  0  0  0  0  0  0  0  0
    8.5064  -15.3822   22.1218 C   0  0  2  0  0  0  0  0  0  0  0  0
    7.8890  -16.6042   21.6100 N   0  0  0  0  0  0  0  0  0  0  0  0
    9.4356  -15.6792   23.1645 C   0  0  0  0  0  0  0  0  0  0  0  0
    8.9308  -16.2317   24.2319 O   0  0  0  0  0  0  0  0  0  0  0  0
    7.0459  -12.8676   15.9456 N   0  0  0  0  0  0  0  0  0  0  0  0
   10.8204  -15.4761   23.2421 C   0  0  0  0  0  0  0  0  0  0  0  0
   11.6168  -15.9693   24.3852 C   0  0  0  0  0  0  0  0  0  0  0  0
   12.8559  -16.6455   23.9459 O   0  0  0  0  0  0  0  0  0  0  0  0
   14.0240  -16.5579   24.6594 O   0  0  0  0  0  0  0  0  0  0  0  0
  1  2  1  0
  2  3  1  0
  3 13  1  0
  4  3  2  0
  5  6  1  0
  6  8  1  0
  7  6  2  0
  9  8  1  0
 10  9  1  0
 12 11  1  1
 11 10  1  0
 12 14  1  0
 13 12  1  0
 14 16  1  0
 14 15  2  0
 16 17  1  0
 17 18  1  0
 18 19  1  0
 20 18  2  0
M  END
$$$$
