GRG.pdb
     RDKit          3D

 20 19  0  0  1  0  0  0  0  0999 V2000
   13.5335  -17.3665   20.7764 N   0  0  0  0  0  0  0  0  0  0  0  0
   12.0917  -17.2790   20.7706 C   0  0  0  0  0  0  0  0  0  0  0  0
   11.5528  -16.9092   22.1283 C   0  0  0  0  0  0  0  0  0  0  0  0
   12.3130  -16.8802   23.1253 O   0  0  0  0  0  0  0  0  0  0  0  0
    9.1306  -14.2815   18.8944 N   0  0  0  0  0  0  0  0  0  0  0  0
    8.0580  -13.6849   19.5969 C   0  0  0  0  0  0  0  0  0  0  0  0
    7.3248  -12.7913   19.0095 N   0  0  0  0  0  0  0  0  0  0  0  0
    7.7926  -14.0693   20.9384 N   0  0  0  0  0  0  0  0  0  0  0  0
    8.8136  -14.0044   21.9605 C   0  0  0  0  0  0  0  0  0  0  0  0
    8.1617  -14.3817   23.3059 C   0  0  0  0  0  0  0  0  0  0  0  0
    8.2045  -15.8542   23.5139 C   0  0  0  0  0  0  0  0  0  0  0  0
    9.5088  -16.4678   23.5933 C   0  0  2  0  0  0  0  0  0  0  0  0
   10.1964  -16.5897   22.3094 N   0  0  0  0  0  0  0  0  0  0  0  0
    9.9246  -17.4952   24.4934 C   0  0  0  0  0  0  0  0  0  0  0  0
    9.8872  -18.7100   24.0217 O   0  0  0  0  0  0  0  0  0  0  0  0
    6.5277  -12.3237   19.4839 N   0  0  0  0  0  0  0  0  0  0  0  0
   10.3736  -17.4243   25.8195 C   0  0  0  0  0  0  0  0  0  0  0  0
   10.6454  -18.6395   26.6155 C   0  0  0  0  0  0  0  0  0  0  0  0
   10.9613  -18.3196   28.0238 O   0  0  0  0  0  0  0  0  0  0  0  0
   11.1866  -19.2978   28.9586 O   0  0  0  0  0  0  0  0  0  0  0  0
  1  2  1  0
  2  3  1  0
  3 13  1  0
  4  3  2  0
  5  6  1  0
  6  8  1  0
  7  6  2  0
  9  8  1  0
 10  9  1  0
 12 11  1  6
 11 10  1  0
 12 14  1  0
 13 12  1  0
 14 16  1  0
 14 15  2  0
 16 17  1  0
 17 18  1  0
 18 19  1  0
 20 18  2  0
M  END
$$$$
