GRG.pdb
     RDKit          3D

 20 19  0  0  1  0  0  0  0  0999 V2000
    6.1862  -21.3565   23.7502 N   0  0  0  0  0  0  0  0  0  0  0  0
    5.7053  -19.9945   23.7307 C   0  0  0  0  0  0  0  0  0  0  0  0
    6.7891  -19.0179   24.1077 C   0  0  0  0  0  0  0  0  0  0  0  0
    7.9256  -19.4303   24.4411 O   0  0  0  0  0  0  0  0  0  0  0  0
    8.2424  -11.6029   20.0470 N   0  0  0  0  0  0  0  0  0  0  0  0
    8.3146  -12.8847   19.4541 C   0  0  0  0  0  0  0  0  0  0  0  0
    8.6304  -12.9951   18.2015 N   0  0  0  0  0  0  0  0  0  0  0  0
    8.0416  -14.0395   20.2349 N   0  0  0  0  0  0  0  0  0  0  0  0
    7.8913  -13.9640   21.6713 C   0  0  0  0  0  0  0  0  0  0  0  0
    7.5617  -15.3788   22.1881 C   0  0  0  0  0  0  0  0  0  0  0  0
    7.3291  -15.3586   23.6574 C   0  0  0  0  0  0  0  0  0  0  0  0
    7.5454  -16.5937   24.3727 C   0  0  2  0  0  0  0  0  0  0  0  0
    6.5554  -17.6324   24.0945 N   0  0  0  0  0  0  0  0  0  0  0  0
    8.0892  -16.7464   25.6841 C   0  0  0  0  0  0  0  0  0  0  0  0
    7.2311  -16.6819   26.6634 O   0  0  0  0  0  0  0  0  0  0  0  0
    8.6838  -13.9130   17.7181 N   0  0  0  0  0  0  0  0  0  0  0  0
    9.4081  -16.9569   26.1097 C   0  0  0  0  0  0  0  0  0  0  0  0
    9.7506  -17.1045   27.5398 C   0  0  0  0  0  0  0  0  0  0  0  0
    9.9753  -18.5174   27.9122 O   0  0  0  0  0  0  0  0  0  0  0  0
   10.7388  -19.3591   27.1442 O   0  0  0  0  0  0  0  0  0  0  0  0
  1  2  1  0
  2  3  1  0
  3 13  1  0
  4  3  2  0
  5  6  1  0
  6  8  1  0
  7  6  2  0
  9  8  1  0
 10  9  1  0
 12 11  1  1
 11 10  1  0
 12 14  1  0
 13 12  1  0
 14 16  1  0
 14 15  2  0
 16 17  1  0
 17 18  1  0
 18 19  1  0
 20 18  2  0
M  END
$$$$
