YVD.pdb
     RDKit          3D

 28 28  0  0  1  0  0  0  0  0999 V2000
    7.7713  -14.1666   15.4631 O   0  0  0  0  0  0  0  0  0  0  0  0
    7.8891  -14.1039   16.8425 C   0  0  0  0  0  0  0  0  0  0  0  0
    7.4363  -13.0275   17.5623 C   0  0  0  0  0  0  0  0  0  0  0  0
    7.5470  -12.9509   18.9392 C   0  0  0  0  0  0  0  0  0  0  0  0
    8.1459  -14.0266   19.5770 C   0  0  0  0  0  0  0  0  0  0  0  0
    8.2785  -13.9757   21.0382 C   0  0  0  0  0  0  0  0  0  0  0  0
    7.4322  -15.0936   21.6532 C   0  0  2  0  0  0  0  0  0  0  0  0
    6.0646  -14.7106   21.5243 N   0  0  0  0  0  0  0  0  0  0  0  0
    7.7761  -15.1566   23.1368 C   0  0  0  0  0  0  0  0  0  0  0  0
    7.6220  -14.1214   23.8072 O   0  0  0  0  0  0  0  0  0  0  0  0
    8.6087  -15.1172   18.8847 C   0  0  0  0  0  0  0  0  0  0  0  0
    8.4875  -15.1726   17.5075 C   0  0  0  0  0  0  0  0  0  0  0  0
    7.1689  -18.4837   25.3785 C   0  0  0  0  0  0  0  0  0  0  0  0
    7.5965  -17.1195   25.8927 C   0  0  2  0  0  0  0  0  0  0  0  0
    6.3480  -16.2668   25.8863 C   0  0  0  0  0  0  0  0  0  0  0  0
    8.7156  -16.6294   25.0330 C   0  0  2  0  0  0  0  0  0  0  0  0
    8.2438  -16.3388   23.7019 N   0  0  0  0  0  0  0  0  0  0  0  0
    9.9432  -17.4087   25.0198 C   0  0  0  0  0  0  0  0  0  0  0  0
   10.0807  -18.3156   24.1313 O   0  0  0  0  0  0  0  0  0  0  0  0
   11.0214  -17.2490   25.9157 N   0  0  0  0  0  0  0  0  0  0  0  0
   12.1538  -18.1819   25.9166 C   0  0  1  0  0  0  0  0  0  0  0  0
   13.4469  -17.4066   25.8349 C   0  0  0  0  0  0  0  0  0  0  0  0
   14.3167  -17.8049   24.7157 C   0  0  0  0  0  0  0  0  0  0  0  0
   13.9345  -18.7303   23.9372 O   0  0  0  0  0  0  0  0  0  0  0  0
   12.1090  -18.9648   27.1606 C   0  0  0  0  0  0  0  0  0  0  0  0
   11.2120  -18.6630   28.1736 O   0  0  0  0  0  0  0  0  0  0  0  0
   15.5508  -17.2479   24.4243 O   0  0  0  0  0  0  0  0  0  0  0  0
   12.8874  -19.9246   27.3252 O   0  0  0  0  0  0  0  0  0  0  0  0
  2  3  2  0
  2  1  1  0
  4  3  1  0
  5  4  2  0
  6  5  1  0
  7  6  1  0
  7  9  1  0
  7  8  1  1
  9 10  2  0
  9 17  1  0
 11  5  1  0
 11 12  2  0
 12  2  1  0
 14 13  1  6
 14 15  1  0
 16 14  1  0
 16 17  1  6
 18 16  1  0
 18 19  2  0
 20 18  1  0
 21 20  1  0
 21 25  1  0
 21 22  1  1
 23 24  2  0
 23 22  1  0
 25 26  1  0
 27 23  1  0
 28 25  2  0
M  END
$$$$
