YVD.pdb
     RDKit          3D

 28 28  0  0  1  0  0  0  0  0999 V2000
    9.0911  -12.1613   18.2176 O   0  0  0  0  0  0  0  0  0  0  0  0
    8.3752  -12.9409   19.1121 C   0  0  0  0  0  0  0  0  0  0  0  0
    8.2207  -14.2925   18.9363 C   0  0  0  0  0  0  0  0  0  0  0  0
    7.5090  -15.0834   19.8205 C   0  0  0  0  0  0  0  0  0  0  0  0
    6.9461  -14.4438   20.9144 C   0  0  0  0  0  0  0  0  0  0  0  0
    6.1843  -15.2555   21.8716 C   0  0  0  0  0  0  0  0  0  0  0  0
    7.0996  -16.3437   22.4395 C   0  0  2  0  0  0  0  0  0  0  0  0
    6.2976  -17.1841   23.2666 N   0  0  0  0  0  0  0  0  0  0  0  0
    8.1345  -15.6506   23.3180 C   0  0  0  0  0  0  0  0  0  0  0  0
    9.2648  -15.4630   22.8360 O   0  0  0  0  0  0  0  0  0  0  0  0
    7.0832  -13.0936   21.1178 C   0  0  0  0  0  0  0  0  0  0  0  0
    7.7995  -12.3218   20.2202 C   0  0  0  0  0  0  0  0  0  0  0  0
    8.8500  -12.9830   27.3833 C   0  0  0  0  0  0  0  0  0  0  0  0
    7.9193  -13.5601   26.3301 C   0  0  2  0  0  0  0  0  0  0  0  0
    6.6439  -13.9181   27.0588 C   0  0  0  0  0  0  0  0  0  0  0  0
    8.6215  -14.6978   25.6638 C   0  0  2  0  0  0  0  0  0  0  0  0
    7.8074  -15.2496   24.6094 N   0  0  0  0  0  0  0  0  0  0  0  0
    9.1851  -15.7316   26.5170 C   0  0  0  0  0  0  0  0  0  0  0  0
    8.3876  -16.5126   27.1374 O   0  0  0  0  0  0  0  0  0  0  0  0
   10.5622  -15.9584   26.7241 N   0  0  0  0  0  0  0  0  0  0  0  0
   11.0314  -17.0223   27.6189 C   0  0  1  0  0  0  0  0  0  0  0  0
   12.4547  -17.3852   27.2689 C   0  0  0  0  0  0  0  0  0  0  0  0
   12.6245  -17.8994   25.8997 C   0  0  0  0  0  0  0  0  0  0  0  0
   11.7344  -18.6600   25.4122 O   0  0  0  0  0  0  0  0  0  0  0  0
   10.9586  -16.5305   29.0028 C   0  0  0  0  0  0  0  0  0  0  0  0
   10.9912  -17.3997   30.0822 O   0  0  0  0  0  0  0  0  0  0  0  0
   13.6974  -17.6229   25.0688 O   0  0  0  0  0  0  0  0  0  0  0  0
   10.8653  -15.3081   29.2292 O   0  0  0  0  0  0  0  0  0  0  0  0
  2  3  2  0
  2  1  1  0
  4  3  1  0
  5  4  2  0
  6  5  1  0
  7  6  1  0
  7  9  1  0
  7  8  1  1
  9 10  2  0
  9 17  1  0
 11  5  1  0
 11 12  2  0
 12  2  1  0
 14 13  1  1
 14 15  1  0
 16 14  1  0
 16 17  1  6
 18 16  1  0
 18 19  2  0
 20 18  1  0
 21 20  1  0
 21 25  1  0
 21 22  1  6
 23 24  2  0
 23 22  1  0
 25 26  1  0
 27 23  1  0
 28 25  2  0
M  END
$$$$
