YVD.pdb
     RDKit          3D

 28 28  0  0  1  0  0  0  0  0999 V2000
   11.2852  -14.7432   30.4285 O   0  0  0  0  0  0  0  0  0  0  0  0
   10.3963  -14.6913   29.3667 C   0  0  0  0  0  0  0  0  0  0  0  0
   10.3247  -13.6056   28.5313 C   0  0  0  0  0  0  0  0  0  0  0  0
    9.4426  -13.5395   27.4676 C   0  0  0  0  0  0  0  0  0  0  0  0
    8.6164  -14.6360   27.2742 C   0  0  0  0  0  0  0  0  0  0  0  0
    7.6687  -14.5967   26.1536 C   0  0  0  0  0  0  0  0  0  0  0  0
    7.9964  -15.7367   25.1855 C   0  0  2  0  0  0  0  0  0  0  0  0
    9.4078  -15.7281   24.9817 N   0  0  0  0  0  0  0  0  0  0  0  0
    7.3171  -15.4133   23.8599 C   0  0  0  0  0  0  0  0  0  0  0  0
    6.3631  -14.6169   23.8821 O   0  0  0  0  0  0  0  0  0  0  0  0
    8.6644  -15.7365   28.0926 C   0  0  0  0  0  0  0  0  0  0  0  0
    9.5546  -15.7810   29.1508 C   0  0  0  0  0  0  0  0  0  0  0  0
    7.3218  -13.2177   22.0209 C   0  0  0  0  0  0  0  0  0  0  0  0
    8.2759  -14.1177   21.2540 C   0  0  2  0  0  0  0  0  0  0  0  0
    8.3769  -13.5244   19.8670 C   0  0  0  0  0  0  0  0  0  0  0  0
    7.7505  -15.5145   21.3203 C   0  0  2  0  0  0  0  0  0  0  0  0
    7.7629  -15.9978   22.6787 N   0  0  0  0  0  0  0  0  0  0  0  0
    8.3040  -16.4852   20.3899 C   0  0  0  0  0  0  0  0  0  0  0  0
    8.2608  -16.2259   19.1401 O   0  0  0  0  0  0  0  0  0  0  0  0
    8.9006  -17.7123   20.7489 N   0  0  0  0  0  0  0  0  0  0  0  0
   10.2185  -18.0972   20.2316 C   0  0  1  0  0  0  0  0  0  0  0  0
   10.9831  -16.8597   19.8267 C   0  0  0  0  0  0  0  0  0  0  0  0
   12.3208  -17.1332   19.2756 C   0  0  0  0  0  0  0  0  0  0  0  0
   12.4184  -17.7564   18.1754 O   0  0  0  0  0  0  0  0  0  0  0  0
   10.9411  -18.8164   21.2913 C   0  0  0  0  0  0  0  0  0  0  0  0
   11.8158  -19.8509   20.9968 O   0  0  0  0  0  0  0  0  0  0  0  0
   13.5190  -16.7635   19.8634 O   0  0  0  0  0  0  0  0  0  0  0  0
   10.7759  -18.5025   22.4864 O   0  0  0  0  0  0  0  0  0  0  0  0
  2  3  2  0
  2  1  1  0
  4  3  1  0
  5  4  2  0
  6  5  1  0
  7  6  1  0
  7  9  1  0
  7  8  1  6
  9 10  2  0
  9 17  1  0
 11  5  1  0
 11 12  2  0
 12  2  1  0
 14 13  1  1
 14 15  1  0
 16 14  1  0
 16 17  1  1
 18 16  1  0
 18 19  2  0
 20 18  1  0
 21 20  1  0
 21 25  1  0
 21 22  1  1
 23 24  2  0
 23 22  1  0
 25 26  1  0
 27 23  1  0
 28 25  2  0
M  END
$$$$
