YVD.pdb
     RDKit          3D

 28 28  0  0  1  0  0  0  0  0999 V2000
   10.0863  -13.9912   30.9007 O   0  0  0  0  0  0  0  0  0  0  0  0
    9.9390  -14.4201   29.5911 C   0  0  0  0  0  0  0  0  0  0  0  0
    9.4099  -13.6121   28.6170 C   0  0  0  0  0  0  0  0  0  0  0  0
    9.2568  -14.0263   27.3059 C   0  0  0  0  0  0  0  0  0  0  0  0
    9.6675  -15.3167   27.0081 C   0  0  0  0  0  0  0  0  0  0  0  0
    9.5182  -15.7865   25.6252 C   0  0  0  0  0  0  0  0  0  0  0  0
    8.0275  -15.9384   25.3103 C   0  0  2  0  0  0  0  0  0  0  0  0
    7.5075  -16.9349   26.1879 N   0  0  0  0  0  0  0  0  0  0  0  0
    7.9181  -16.4529   23.8797 C   0  0  0  0  0  0  0  0  0  0  0  0
    7.6677  -17.6599   23.7204 O   0  0  0  0  0  0  0  0  0  0  0  0
   10.2005  -16.1486   27.9605 C   0  0  0  0  0  0  0  0  0  0  0  0
   10.3444  -15.7133   29.2659 C   0  0  0  0  0  0  0  0  0  0  0  0
    8.4879  -13.5020   20.7798 C   0  0  0  0  0  0  0  0  0  0  0  0
    7.5240  -14.6688   20.6465 C   0  0  2  0  0  0  0  0  0  0  0  0
    6.1940  -14.1654   21.1601 C   0  0  0  0  0  0  0  0  0  0  0  0
    8.1002  -15.8333   21.3836 C   0  0  2  0  0  0  0  0  0  0  0  0
    8.0950  -15.5880   22.8044 N   0  0  0  0  0  0  0  0  0  0  0  0
    9.3775  -16.3539   20.9236 C   0  0  0  0  0  0  0  0  0  0  0  0
   10.4423  -15.9672   21.5133 O   0  0  0  0  0  0  0  0  0  0  0  0
    9.5523  -17.2700   19.8648 N   0  0  0  0  0  0  0  0  0  0  0  0
   10.7583  -18.1001   19.7688 C   0  0  1  0  0  0  0  0  0  0  0  0
   10.3642  -19.5552   19.6843 C   0  0  0  0  0  0  0  0  0  0  0  0
   11.5040  -20.4813   19.5783 C   0  0  0  0  0  0  0  0  0  0  0  0
   11.2808  -21.7279   19.5095 O   0  0  0  0  0  0  0  0  0  0  0  0
   11.4995  -17.7039   18.5621 C   0  0  0  0  0  0  0  0  0  0  0  0
   10.8495  -17.4517   17.3639 O   0  0  0  0  0  0  0  0  0  0  0  0
   12.8374  -20.1084   19.5465 O   0  0  0  0  0  0  0  0  0  0  0  0
   12.7401  -17.5873   18.5989 O   0  0  0  0  0  0  0  0  0  0  0  0
  2  3  2  0
  2  1  1  0
  4  3  1  0
  5  4  2  0
  6  5  1  0
  7  6  1  0
  7  9  1  0
  7  8  1  1
  9 10  2  0
  9 17  1  0
 11  5  1  0
 11 12  2  0
 12  2  1  0
 14 13  1  1
 14 15  1  0
 16 14  1  0
 16 17  1  1
 18 16  1  0
 18 19  2  0
 20 18  1  0
 21 20  1  0
 21 25  1  0
 21 22  1  6
 23 24  2  0
 23 22  1  0
 25 26  1  0
 27 23  1  0
 28 25  2  0
M  END
$$$$
