YVD.pdb
     RDKit          3D

 28 28  0  0  1  0  0  0  0  0999 V2000
   10.1453  -14.4348   31.2990 O   0  0  0  0  0  0  0  0  0  0  0  0
    9.9332  -14.7701   29.9711 C   0  0  0  0  0  0  0  0  0  0  0  0
    9.3696  -13.8918   29.0809 C   0  0  0  0  0  0  0  0  0  0  0  0
    9.1518  -14.2123   27.7528 C   0  0  0  0  0  0  0  0  0  0  0  0
    9.5334  -15.4823   27.3477 C   0  0  0  0  0  0  0  0  0  0  0  0
    9.3155  -15.8533   25.9440 C   0  0  0  0  0  0  0  0  0  0  0  0
    7.8804  -16.3617   25.7814 C   0  0  2  0  0  0  0  0  0  0  0  0
    7.8113  -17.6437   26.4020 N   0  0  0  0  0  0  0  0  0  0  0  0
    7.6292  -16.5360   24.2882 C   0  0  0  0  0  0  0  0  0  0  0  0
    7.5049  -17.6953   23.8576 O   0  0  0  0  0  0  0  0  0  0  0  0
   10.0996  -16.3830   28.2143 C   0  0  0  0  0  0  0  0  0  0  0  0
   10.3082  -16.0409   29.5387 C   0  0  0  0  0  0  0  0  0  0  0  0
    7.0418  -13.9447   20.0667 C   0  0  0  0  0  0  0  0  0  0  0  0
    7.0788  -13.9700   21.5854 C   0  0  2  0  0  0  0  0  0  0  0  0
    7.9597  -12.8116   21.9955 C   0  0  0  0  0  0  0  0  0  0  0  0
    7.5493  -15.3209   22.0156 C   0  0  2  0  0  0  0  0  0  0  0  0
    7.5451  -15.4261   23.4536 N   0  0  0  0  0  0  0  0  0  0  0  0
    8.7864  -15.8176   21.4349 C   0  0  0  0  0  0  0  0  0  0  0  0
    8.8612  -15.9335   20.1653 O   0  0  0  0  0  0  0  0  0  0  0  0
    9.9382  -16.1879   22.1608 N   0  0  0  0  0  0  0  0  0  0  0  0
   11.1444  -16.6704   21.4789 C   0  0  1  0  0  0  0  0  0  0  0  0
   12.3237  -15.8136   21.8723 C   0  0  0  0  0  0  0  0  0  0  0  0
   13.5971  -16.2253   21.2583 C   0  0  0  0  0  0  0  0  0  0  0  0
   13.6241  -16.4995   20.0203 O   0  0  0  0  0  0  0  0  0  0  0  0
   11.3758  -18.0668   21.8776 C   0  0  0  0  0  0  0  0  0  0  0  0
   10.5655  -18.6970   22.8093 O   0  0  0  0  0  0  0  0  0  0  0  0
   14.8048  -16.3457   21.9254 O   0  0  0  0  0  0  0  0  0  0  0  0
   12.3166  -18.7136   21.3770 O   0  0  0  0  0  0  0  0  0  0  0  0
  2  3  2  0
  2  1  1  0
  4  3  1  0
  5  4  2  0
  6  5  1  0
  7  6  1  0
  7  9  1  0
  7  8  1  1
  9 10  2  0
  9 17  1  0
 11  5  1  0
 11 12  2  0
 12  2  1  0
 14 13  1  6
 14 15  1  0
 16 14  1  0
 16 17  1  1
 18 16  1  0
 18 19  2  0
 20 18  1  0
 21 20  1  0
 21 25  1  0
 21 22  1  1
 23 24  2  0
 23 22  1  0
 25 26  1  0
 27 23  1  0
 28 25  2  0
M  END
$$$$
