YVD.pdb
     RDKit          3D

 28 28  0  0  1  0  0  0  0  0999 V2000
    6.1273  -10.3250   27.5615 O   0  0  0  0  0  0  0  0  0  0  0  0
    6.5111  -11.5991   27.1741 C   0  0  0  0  0  0  0  0  0  0  0  0
    7.8175  -12.0134   27.2318 C   0  0  0  0  0  0  0  0  0  0  0  0
    8.2155  -13.2818   26.8486 C   0  0  0  0  0  0  0  0  0  0  0  0
    7.2222  -14.1360   26.3945 C   0  0  0  0  0  0  0  0  0  0  0  0
    7.6124  -15.4893   25.9802 C   0  0  0  0  0  0  0  0  0  0  0  0
    6.6256  -15.9886   24.9212 C   0  0  2  0  0  0  0  0  0  0  0  0
    5.9900  -17.1514   25.4479 N   0  0  0  0  0  0  0  0  0  0  0  0
    7.4416  -16.3978   23.7005 C   0  0  0  0  0  0  0  0  0  0  0  0
    7.9259  -17.5424   23.6900 O   0  0  0  0  0  0  0  0  0  0  0  0
    5.9070  -13.7507   26.3253 C   0  0  0  0  0  0  0  0  0  0  0  0
    5.5314  -12.4770   26.7138 C   0  0  0  0  0  0  0  0  0  0  0  0
    8.4907  -13.2330   20.9343 C   0  0  0  0  0  0  0  0  0  0  0  0
    7.9996  -14.5857   20.4472 C   0  0  2  0  0  0  0  0  0  0  0  0
    6.5083  -14.4355   20.2481 C   0  0  0  0  0  0  0  0  0  0  0  0
    8.4156  -15.6170   21.4446 C   0  0  2  0  0  0  0  0  0  0  0  0
    7.6264  -15.5088   22.6464 N   0  0  0  0  0  0  0  0  0  0  0  0
    9.8357  -15.7386   21.7324 C   0  0  0  0  0  0  0  0  0  0  0  0
   10.2813  -15.2479   22.8240 O   0  0  0  0  0  0  0  0  0  0  0  0
   10.7868  -16.3658   20.9001 N   0  0  0  0  0  0  0  0  0  0  0  0
   12.0835  -16.8072   21.4255 C   0  0  1  0  0  0  0  0  0  0  0  0
   11.8649  -17.8150   22.5284 C   0  0  0  0  0  0  0  0  0  0  0  0
   13.1066  -18.3906   23.0714 C   0  0  0  0  0  0  0  0  0  0  0  0
   14.2189  -18.0324   22.5786 O   0  0  0  0  0  0  0  0  0  0  0  0
   12.8471  -17.4157   20.3259 C   0  0  0  0  0  0  0  0  0  0  0  0
   14.2215  -17.2629   20.2281 O   0  0  0  0  0  0  0  0  0  0  0  0
   13.1766  -19.3149   24.1004 O   0  0  0  0  0  0  0  0  0  0  0  0
   12.2622  -18.0871   19.4534 O   0  0  0  0  0  0  0  0  0  0  0  0
  2  3  2  0
  2  1  1  0
  4  3  1  0
  5  4  2  0
  6  5  1  0
  7  6  1  0
  7  9  1  0
  7  8  1  1
  9 10  2  0
  9 17  1  0
 11  5  1  0
 11 12  2  0
 12  2  1  0
 14 13  1  1
 14 15  1  0
 16 14  1  0
 16 17  1  1
 18 16  1  0
 18 19  2  0
 20 18  1  0
 21 20  1  0
 21 25  1  0
 21 22  1  1
 23 24  2  0
 23 22  1  0
 25 26  1  0
 27 23  1  0
 28 25  2  0
M  END
$$$$
