YVD.pdb
     RDKit          3D

 28 28  0  0  1  0  0  0  0  0999 V2000
    8.2809  -12.5921   17.1586 O   0  0  0  0  0  0  0  0  0  0  0  0
    8.1160  -13.0703   18.4488 C   0  0  0  0  0  0  0  0  0  0  0  0
    9.0233  -13.9187   19.0308 C   0  0  0  0  0  0  0  0  0  0  0  0
    8.8721  -14.4042   20.3175 C   0  0  0  0  0  0  0  0  0  0  0  0
    7.7444  -13.9915   21.0107 C   0  0  0  0  0  0  0  0  0  0  0  0
    7.5548  -14.4893   22.3788 C   0  0  0  0  0  0  0  0  0  0  0  0
    7.0715  -15.9408   22.3169 C   0  0  2  0  0  0  0  0  0  0  0  0
    5.6986  -15.9151   21.9323 N   0  0  0  0  0  0  0  0  0  0  0  0
    7.1651  -16.5088   23.7282 C   0  0  0  0  0  0  0  0  0  0  0  0
    6.5020  -15.9493   24.6183 O   0  0  0  0  0  0  0  0  0  0  0  0
    6.8190  -13.1437   20.4557 C   0  0  0  0  0  0  0  0  0  0  0  0
    6.9905  -12.6703   19.1670 C   0  0  0  0  0  0  0  0  0  0  0  0
    6.2098  -19.4111   25.2211 C   0  0  0  0  0  0  0  0  0  0  0  0
    7.7125  -19.5806   25.3673 C   0  0  2  0  0  0  0  0  0  0  0  0
    7.9218  -20.2736   26.6947 C   0  0  0  0  0  0  0  0  0  0  0  0
    8.3462  -18.2342   25.2367 C   0  0  2  0  0  0  0  0  0  0  0  0
    7.9685  -17.6137   23.9912 N   0  0  0  0  0  0  0  0  0  0  0  0
    9.7759  -18.1379   25.4837 C   0  0  0  0  0  0  0  0  0  0  0  0
   10.3796  -17.0596   25.1619 O   0  0  0  0  0  0  0  0  0  0  0  0
   10.5743  -19.1471   26.0624 N   0  0  0  0  0  0  0  0  0  0  0  0
   12.0029  -18.9329   26.3190 C   0  0  1  0  0  0  0  0  0  0  0  0
   12.4570  -17.6712   25.6249 C   0  0  0  0  0  0  0  0  0  0  0  0
   13.8503  -17.7142   25.1510 C   0  0  0  0  0  0  0  0  0  0  0  0
   14.5443  -18.7527   25.3707 O   0  0  0  0  0  0  0  0  0  0  0  0
   12.2006  -18.8127   27.7712 C   0  0  0  0  0  0  0  0  0  0  0  0
   11.1383  -18.5707   28.6285 O   0  0  0  0  0  0  0  0  0  0  0  0
   14.4945  -16.6963   24.4676 O   0  0  0  0  0  0  0  0  0  0  0  0
   13.3417  -18.9282   28.2599 O   0  0  0  0  0  0  0  0  0  0  0  0
  2  3  2  0
  2  1  1  0
  4  3  1  0
  5  4  2  0
  6  5  1  0
  7  6  1  0
  7  9  1  0
  7  8  1  1
  9 10  2  0
  9 17  1  0
 11  5  1  0
 11 12  2  0
 12  2  1  0
 14 13  1  1
 14 15  1  0
 16 14  1  0
 16 17  1  6
 18 16  1  0
 18 19  2  0
 20 18  1  0
 21 20  1  0
 21 25  1  0
 21 22  1  6
 23 24  2  0
 23 22  1  0
 25 26  1  0
 27 23  1  0
 28 25  2  0
M  END
$$$$
