YVD.pdb
     RDKit          3D

 28 28  0  0  1  0  0  0  0  0999 V2000
    6.1484  -10.1506   27.2963 O   0  0  0  0  0  0  0  0  0  0  0  0
    6.5169  -11.4679   27.0738 C   0  0  0  0  0  0  0  0  0  0  0  0
    7.8217  -11.8305   26.8554 C   0  0  0  0  0  0  0  0  0  0  0  0
    8.2046  -13.1410   26.6319 C   0  0  0  0  0  0  0  0  0  0  0  0
    7.1974  -14.0939   26.6373 C   0  0  0  0  0  0  0  0  0  0  0  0
    7.5712  -15.4942   26.4031 C   0  0  0  0  0  0  0  0  0  0  0  0
    6.6414  -16.0855   25.3400 C   0  0  2  0  0  0  0  0  0  0  0  0
    5.9677  -17.1933   25.9338 N   0  0  0  0  0  0  0  0  0  0  0  0
    7.5212  -16.6073   24.2099 C   0  0  0  0  0  0  0  0  0  0  0  0
    7.9747  -17.7593   24.3194 O   0  0  0  0  0  0  0  0  0  0  0  0
    5.8833  -13.7625   26.8529 C   0  0  0  0  0  0  0  0  0  0  0  0
    5.5231  -12.4451   27.0743 C   0  0  0  0  0  0  0  0  0  0  0  0
    8.8239  -13.7838   21.0765 C   0  0  0  0  0  0  0  0  0  0  0  0
    8.2024  -15.1460   20.8188 C   0  0  2  0  0  0  0  0  0  0  0  0
    6.7173  -14.9010   20.6760 C   0  0  0  0  0  0  0  0  0  0  0  0
    8.6007  -16.0563   21.9343 C   0  0  2  0  0  0  0  0  0  0  0  0
    7.7953  -15.8086   23.1043 N   0  0  0  0  0  0  0  0  0  0  0  0
   10.0162  -16.1468   22.2543 C   0  0  0  0  0  0  0  0  0  0  0  0
   10.5429  -15.2213   22.9592 O   0  0  0  0  0  0  0  0  0  0  0  0
   10.8794  -17.1879   21.8519 N   0  0  0  0  0  0  0  0  0  0  0  0
   12.3098  -17.1580   22.1769 C   0  0  1  0  0  0  0  0  0  0  0  0
   12.7597  -18.5350   22.6028 C   0  0  0  0  0  0  0  0  0  0  0  0
   12.3113  -18.9239   23.9502 C   0  0  0  0  0  0  0  0  0  0  0  0
   12.1998  -18.0311   24.8441 O   0  0  0  0  0  0  0  0  0  0  0  0
   13.0489  -16.7301   20.9798 C   0  0  0  0  0  0  0  0  0  0  0  0
   14.3708  -16.3191   21.0541 O   0  0  0  0  0  0  0  0  0  0  0  0
   11.9907  -20.2117   24.3459 O   0  0  0  0  0  0  0  0  0  0  0  0
   12.4905  -16.7305   19.8653 O   0  0  0  0  0  0  0  0  0  0  0  0
  2  3  2  0
  2  1  1  0
  4  3  1  0
  5  4  2  0
  6  5  1  0
  7  6  1  0
  7  9  1  0
  7  8  1  1
  9 10  2  0
  9 17  1  0
 11  5  1  0
 11 12  2  0
 12  2  1  0
 14 13  1  1
 14 15  1  0
 16 14  1  0
 16 17  1  1
 18 16  1  0
 18 19  2  0
 20 18  1  0
 21 20  1  0
 21 25  1  0
 21 22  1  6
 23 24  2  0
 23 22  1  0
 25 26  1  0
 27 23  1  0
 28 25  2  0
M  END
$$$$
