YVD.pdb
     RDKit          3D

 28 28  0  0  1  0  0  0  0  0999 V2000
   10.1394  -13.9734   30.9796 O   0  0  0  0  0  0  0  0  0  0  0  0
   10.0161  -14.5043   29.7054 C   0  0  0  0  0  0  0  0  0  0  0  0
    9.5585  -13.7589   28.6487 C   0  0  0  0  0  0  0  0  0  0  0  0
    9.4301  -14.2751   27.3716 C   0  0  0  0  0  0  0  0  0  0  0  0
    9.7896  -15.6028   27.1971 C   0  0  0  0  0  0  0  0  0  0  0  0
    9.6648  -16.1806   25.8532 C   0  0  0  0  0  0  0  0  0  0  0  0
    8.1810  -16.2685   25.4860 C   0  0  2  0  0  0  0  0  0  0  0  0
    7.6303  -17.3704   26.2045 N   0  0  0  0  0  0  0  0  0  0  0  0
    8.1019  -16.5785   23.9957 C   0  0  0  0  0  0  0  0  0  0  0  0
    7.8873  -17.7570   23.6641 O   0  0  0  0  0  0  0  0  0  0  0  0
   10.2507  -16.3741   28.2342 C   0  0  0  0  0  0  0  0  0  0  0  0
   10.3710  -15.8369   29.5037 C   0  0  0  0  0  0  0  0  0  0  0  0
    6.7010  -13.8319   21.4683 C   0  0  0  0  0  0  0  0  0  0  0  0
    8.0868  -14.2707   21.0265 C   0  0  2  0  0  0  0  0  0  0  0  0
    8.0753  -14.2131   19.5157 C   0  0  0  0  0  0  0  0  0  0  0  0
    8.3581  -15.6155   21.6177 C   0  0  2  0  0  0  0  0  0  0  0  0
    8.2664  -15.5659   23.0558 N   0  0  0  0  0  0  0  0  0  0  0  0
    9.5499  -16.3180   21.1700 C   0  0  0  0  0  0  0  0  0  0  0  0
   10.6920  -15.8674   21.5214 O   0  0  0  0  0  0  0  0  0  0  0  0
    9.5606  -17.4791   20.3685 N   0  0  0  0  0  0  0  0  0  0  0  0
   10.8199  -18.0655   19.8963 C   0  0  1  0  0  0  0  0  0  0  0  0
   10.7859  -19.5619   20.0948 C   0  0  0  0  0  0  0  0  0  0  0  0
   10.7339  -19.9800   21.5056 C   0  0  0  0  0  0  0  0  0  0  0  0
   11.5468  -19.4645   22.3314 O   0  0  0  0  0  0  0  0  0  0  0  0
   10.9741  -17.7461   18.4692 C   0  0  0  0  0  0  0  0  0  0  0  0
   12.2210  -17.5094   17.9114 O   0  0  0  0  0  0  0  0  0  0  0  0
    9.8549  -20.9119   22.0319 O   0  0  0  0  0  0  0  0  0  0  0  0
    9.9726  -17.6825   17.7296 O   0  0  0  0  0  0  0  0  0  0  0  0
  2  3  2  0
  2  1  1  0
  4  3  1  0
  5  4  2  0
  6  5  1  0
  7  6  1  0
  7  9  1  0
  7  8  1  1
  9 10  2  0
  9 17  1  0
 11  5  1  0
 11 12  2  0
 12  2  1  0
 14 13  1  6
 14 15  1  0
 16 14  1  0
 16 17  1  1
 18 16  1  0
 18 19  2  0
 20 18  1  0
 21 20  1  0
 21 25  1  0
 21 22  1  6
 23 24  2  0
 23 22  1  0
 25 26  1  0
 27 23  1  0
 28 25  2  0
M  END
$$$$
