NCN.pdb
     RDKit          3D

 23 22  0  0  1  0  0  0  0  0999 V2000
   22.3964  -21.9443   -8.5325 N   0  0  0  0  0  0  0  0  0  0  0  0
   21.9612  -20.7126   -9.0483 C   0  0  0  0  0  0  0  0  0  0  0  0
   20.9052  -20.1327   -8.6300 O   0  0  0  0  0  0  0  0  0  0  0  0
   22.7466  -20.0540  -10.1153 C   0  0  0  0  0  0  0  0  0  0  0  0
   24.0054  -20.8500  -10.4037 C   0  0  2  0  0  0  0  0  0  0  0  0
   24.9279  -20.7542   -9.3137 N   0  0  0  0  0  0  0  0  0  0  0  0
   24.5802  -20.4522  -11.6983 C   0  0  0  0  0  0  0  0  0  0  0  0
   25.3108  -19.4369  -11.7483 O   0  0  0  0  0  0  0  0  0  0  0  0
   24.3731  -21.1407  -12.9311 N   0  0  0  0  0  0  0  0  0  0  0  0
   24.9854  -20.7106  -14.1542 C   0  0  1  0  0  0  0  0  0  0  0  0
   25.9329  -21.7104  -14.7547 C   0  0  0  0  0  0  0  0  0  0  0  0
   27.0038  -22.5190  -13.5596 S   0  0  0  0  0  0  0  0  0  0  0  0
   23.9499  -20.3362  -15.1482 C   0  0  0  0  0  0  0  0  0  0  0  0
   22.8880  -20.9942  -15.3191 O   0  0  0  0  0  0  0  0  0  0  0  0
   22.3669  -15.6316  -18.6806 N   0  0  0  0  0  0  0  0  0  0  0  0
   22.0565  -16.6914  -17.8066 C   0  0  0  0  0  0  0  0  0  0  0  0
   20.8796  -17.1793  -17.8141 O   0  0  0  0  0  0  0  0  0  0  0  0
   23.0613  -17.2595  -16.8736 C   0  0  0  0  0  0  0  0  0  0  0  0
   23.1007  -18.7911  -16.9383 C   0  0  2  0  0  0  0  0  0  0  0  0
   24.1144  -19.1802  -15.9780 N   0  0  0  0  0  0  0  0  0  0  0  0
   23.4890  -19.1591  -18.3199 C   0  0  0  0  0  0  0  0  0  0  0  0
   22.5843  -19.5067  -19.3009 O   0  0  0  0  0  0  0  0  0  0  0  0
   24.7080  -19.1534  -18.6092 O   0  0  0  0  0  0  0  0  0  0  0  0
  2  1  1  0
  2  4  1  0
  3  2  2  0
  5  4  1  0
  5  7  1  0
  5  6  1  1
  7  8  2  0
  7  9  1  0
  9 10  1  0
 10 13  1  0
 10 11  1  6
 11 12  1  0
 13 20  1  0
 13 14  2  0
 16 17  2  0
 16 15  1  0
 19 18  1  6
 18 16  1  0
 19 21  1  0
 20 19  1  0
 21 22  1  0
 23 21  2  0
M  END
$$$$
