NCN.pdb
     RDKit          3D

 23 22  0  0  1  0  0  0  0  0999 V2000
   16.0810  -11.8692  -17.4695 N   0  0  0  0  0  0  0  0  0  0  0  0
   17.1738  -12.5443  -16.9019 C   0  0  0  0  0  0  0  0  0  0  0  0
   17.4544  -13.7539  -17.1928 O   0  0  0  0  0  0  0  0  0  0  0  0
   18.0381  -11.8387  -15.9300 C   0  0  0  0  0  0  0  0  0  0  0  0
   19.3585  -11.4684  -16.5787 C   0  0  2  0  0  0  0  0  0  0  0  0
   20.1009  -12.6420  -16.9253 N   0  0  0  0  0  0  0  0  0  0  0  0
   20.1050  -10.5299  -15.7264 C   0  0  0  0  0  0  0  0  0  0  0  0
   19.5928  -10.1558  -14.6471 O   0  0  0  0  0  0  0  0  0  0  0  0
   21.3937   -9.9972  -16.0301 N   0  0  0  0  0  0  0  0  0  0  0  0
   22.0571   -9.0698  -15.1609 C   0  0  1  0  0  0  0  0  0  0  0  0
   23.5422   -9.2747  -15.0582 C   0  0  0  0  0  0  0  0  0  0  0  0
   24.0192  -10.8263  -14.2875 S   0  0  0  0  0  0  0  0  0  0  0  0
   21.7673   -7.6748  -15.5737 C   0  0  0  0  0  0  0  0  0  0  0  0
   21.7949   -7.2910  -16.7745 O   0  0  0  0  0  0  0  0  0  0  0  0
   18.3832   -3.2490  -15.3741 N   0  0  0  0  0  0  0  0  0  0  0  0
   19.4287   -3.5567  -14.4820 C   0  0  0  0  0  0  0  0  0  0  0  0
   20.0284   -2.6096  -13.8765 O   0  0  0  0  0  0  0  0  0  0  0  0
   19.8551   -4.9548  -14.2245 C   0  0  0  0  0  0  0  0  0  0  0  0
   21.1326   -5.3142  -14.9928 C   0  0  2  0  0  0  0  0  0  0  0  0
   21.4337   -6.6770  -14.6015 N   0  0  0  0  0  0  0  0  0  0  0  0
   22.1877   -4.3739  -14.5481 C   0  0  0  0  0  0  0  0  0  0  0  0
   22.5368   -3.2338  -15.2411 O   0  0  0  0  0  0  0  0  0  0  0  0
   22.7945   -4.6323  -13.4829 O   0  0  0  0  0  0  0  0  0  0  0  0
  2  1  1  0
  2  4  1  0
  3  2  2  0
  5  4  1  0
  5  7  1  0
  5  6  1  1
  7  8  2  0
  7  9  1  0
  9 10  1  0
 10 13  1  0
 10 11  1  6
 11 12  1  0
 13 20  1  0
 13 14  2  0
 16 17  2  0
 16 15  1  0
 19 18  1  1
 18 16  1  0
 19 21  1  0
 20 19  1  0
 21 22  1  0
 23 21  2  0
M  END
$$$$
