NCN.pdb
     RDKit          3D

 23 22  0  0  1  0  0  0  0  0999 V2000
   23.3784  -15.1087  -20.6312 N   0  0  0  0  0  0  0  0  0  0  0  0
   22.4775  -15.5981  -19.6714 C   0  0  0  0  0  0  0  0  0  0  0  0
   21.9043  -16.7313  -19.7891 O   0  0  0  0  0  0  0  0  0  0  0  0
   22.1735  -14.7798  -18.4768 C   0  0  0  0  0  0  0  0  0  0  0  0
   22.9053  -13.4531  -18.5531 C   0  0  2  0  0  0  0  0  0  0  0  0
   24.3195  -13.6572  -18.6364 N   0  0  0  0  0  0  0  0  0  0  0  0
   22.5012  -12.5781  -17.4416 C   0  0  0  0  0  0  0  0  0  0  0  0
   21.2857  -12.3227  -17.2850 O   0  0  0  0  0  0  0  0  0  0  0  0
   23.3961  -11.9819  -16.5032 N   0  0  0  0  0  0  0  0  0  0  0  0
   22.9362  -11.1092  -15.4628 C   0  0  1  0  0  0  0  0  0  0  0  0
   23.7159  -11.2114  -14.1823 C   0  0  0  0  0  0  0  0  0  0  0  0
   23.5773  -12.8040  -13.3616 S   0  0  0  0  0  0  0  0  0  0  0  0
   22.9225   -9.7029  -15.9346 C   0  0  0  0  0  0  0  0  0  0  0  0
   23.8262   -9.2111  -16.6635 O   0  0  0  0  0  0  0  0  0  0  0  0
   21.4699   -4.9502  -17.2688 N   0  0  0  0  0  0  0  0  0  0  0  0
   20.8147   -6.0628  -17.8315 C   0  0  0  0  0  0  0  0  0  0  0  0
   20.0712   -5.8957  -18.8525 O   0  0  0  0  0  0  0  0  0  0  0  0
   20.9639   -7.4285  -17.2700 C   0  0  0  0  0  0  0  0  0  0  0  0
   21.8392   -7.4372  -16.0109 C   0  0  2  0  0  0  0  0  0  0  0  0
   21.8538   -8.8195  -15.5748 N   0  0  0  0  0  0  0  0  0  0  0  0
   21.1804   -6.5589  -15.0161 C   0  0  0  0  0  0  0  0  0  0  0  0
   21.4010   -5.2002  -14.9315 O   0  0  0  0  0  0  0  0  0  0  0  0
   20.3791   -7.0833  -14.2083 O   0  0  0  0  0  0  0  0  0  0  0  0
  2  1  1  0
  2  4  1  0
  3  2  2  0
  5  4  1  0
  5  7  1  0
  5  6  1  1
  7  8  2  0
  7  9  1  0
  9 10  1  0
 10 13  1  0
 10 11  1  1
 11 12  1  0
 13 20  1  0
 13 14  2  0
 16 17  2  0
 16 15  1  0
 19 18  1  6
 18 16  1  0
 19 21  1  0
 20 19  1  0
 21 22  1  0
 23 21  2  0
M  END
$$$$
