NCN.pdb
     RDKit          3D

 23 22  0  0  1  0  0  0  0  0999 V2000
   18.7931  -13.4467  -20.1480 N   0  0  0  0  0  0  0  0  0  0  0  0
   19.7963  -13.2275  -19.1898 C   0  0  0  0  0  0  0  0  0  0  0  0
   20.8550  -13.9365  -19.1362 O   0  0  0  0  0  0  0  0  0  0  0  0
   19.6311  -12.1388  -18.2015 C   0  0  0  0  0  0  0  0  0  0  0  0
   20.5126  -10.9607  -18.5708 C   0  0  2  0  0  0  0  0  0  0  0  0
   21.8944  -11.3330  -18.5464 N   0  0  0  0  0  0  0  0  0  0  0  0
   20.2007   -9.7994  -17.7231 C   0  0  0  0  0  0  0  0  0  0  0  0
   19.0041   -9.4613  -17.5782 O   0  0  0  0  0  0  0  0  0  0  0  0
   21.1672   -9.0066  -17.0344 N   0  0  0  0  0  0  0  0  0  0  0  0
   20.7919   -7.8874  -16.2207 C   0  0  1  0  0  0  0  0  0  0  0  0
   21.6001   -7.7410  -14.9624 C   0  0  0  0  0  0  0  0  0  0  0  0
   21.2978   -9.0232  -13.7403 S   0  0  0  0  0  0  0  0  0  0  0  0
   20.8513   -6.6315  -17.0079 C   0  0  0  0  0  0  0  0  0  0  0  0
   21.9148   -6.1881  -17.5199 O   0  0  0  0  0  0  0  0  0  0  0  0
   20.4253   -3.7667  -20.5138 N   0  0  0  0  0  0  0  0  0  0  0  0
   19.0937   -4.1700  -20.2949 C   0  0  0  0  0  0  0  0  0  0  0  0
   18.2669   -4.1373  -21.2637 O   0  0  0  0  0  0  0  0  0  0  0  0
   18.6222   -4.6335  -18.9663 C   0  0  0  0  0  0  0  0  0  0  0  0
   19.7329   -4.5708  -17.9109 C   0  0  2  0  0  0  0  0  0  0  0  0
   19.6725   -5.8478  -17.2277 N   0  0  0  0  0  0  0  0  0  0  0  0
   19.4054   -3.4494  -16.9997 C   0  0  0  0  0  0  0  0  0  0  0  0
   18.8766   -3.6199  -15.7375 O   0  0  0  0  0  0  0  0  0  0  0  0
   19.6221   -2.2827  -17.4017 O   0  0  0  0  0  0  0  0  0  0  0  0
  2  1  1  0
  2  4  1  0
  3  2  2  0
  5  4  1  0
  5  7  1  0
  5  6  1  1
  7  8  2  0
  7  9  1  0
  9 10  1  0
 10 13  1  0
 10 11  1  1
 11 12  1  0
 13 20  1  0
 13 14  2  0
 16 17  2  0
 16 15  1  0
 19 18  1  6
 18 16  1  0
 19 21  1  0
 20 19  1  0
 21 22  1  0
 23 21  2  0
M  END
$$$$
