NCN.pdb
     RDKit          3D

 23 22  0  0  1  0  0  0  0  0999 V2000
   18.7179  -11.4055  -20.7254 N   0  0  0  0  0  0  0  0  0  0  0  0
   18.6522  -11.9468  -19.4312 C   0  0  0  0  0  0  0  0  0  0  0  0
   18.8402  -13.1868  -19.2000 O   0  0  0  0  0  0  0  0  0  0  0  0
   18.3548  -11.0577  -18.2865 C   0  0  0  0  0  0  0  0  0  0  0  0
   19.6391  -10.6749  -17.5756 C   0  0  2  0  0  0  0  0  0  0  0  0
   20.3283  -11.8395  -17.1096 N   0  0  0  0  0  0  0  0  0  0  0  0
   19.3674   -9.6890  -16.5180 C   0  0  0  0  0  0  0  0  0  0  0  0
   18.8018   -8.6150  -16.8242 O   0  0  0  0  0  0  0  0  0  0  0  0
   19.6996   -9.8554  -15.1400 N   0  0  0  0  0  0  0  0  0  0  0  0
   19.4639   -8.8250  -14.1713 C   0  0  1  0  0  0  0  0  0  0  0  0
   19.2584   -9.3299  -12.7710 C   0  0  0  0  0  0  0  0  0  0  0  0
   19.2038   -8.0377  -11.5236 S   0  0  0  0  0  0  0  0  0  0  0  0
   20.5654   -7.8316  -14.1933 C   0  0  0  0  0  0  0  0  0  0  0  0
   21.7841   -8.1537  -14.2200 O   0  0  0  0  0  0  0  0  0  0  0  0
   23.5723   -4.4126  -17.1821 N   0  0  0  0  0  0  0  0  0  0  0  0
   23.0637   -4.6522  -15.8909 C   0  0  0  0  0  0  0  0  0  0  0  0
   23.5629   -4.0263  -14.8998 O   0  0  0  0  0  0  0  0  0  0  0  0
   21.9604   -5.6147  -15.6478 C   0  0  0  0  0  0  0  0  0  0  0  0
   21.3508   -5.4457  -14.2509 C   0  0  2  0  0  0  0  0  0  0  0  0
   20.2857   -6.4267  -14.1862 N   0  0  0  0  0  0  0  0  0  0  0  0
   20.8241   -4.0633  -14.1696 C   0  0  0  0  0  0  0  0  0  0  0  0
   21.5318   -3.0059  -13.6378 O   0  0  0  0  0  0  0  0  0  0  0  0
   19.6710   -3.8468  -14.6093 O   0  0  0  0  0  0  0  0  0  0  0  0
  2  1  1  0
  2  4  1  0
  3  2  2  0
  5  4  1  0
  5  7  1  0
  5  6  1  1
  7  8  2  0
  7  9  1  0
  9 10  1  0
 10 13  1  0
 10 11  1  1
 11 12  1  0
 13 20  1  0
 13 14  2  0
 16 17  2  0
 16 15  1  0
 19 18  1  6
 18 16  1  0
 19 21  1  0
 20 19  1  0
 21 22  1  0
 23 21  2  0
M  END
$$$$
