NCN.pdb
     RDKit          3D

 23 22  0  0  1  0  0  0  0  0999 V2000
   23.7301  -10.7023  -18.4151 N   0  0  0  0  0  0  0  0  0  0  0  0
   22.8523   -9.8352  -19.0860 C   0  0  0  0  0  0  0  0  0  0  0  0
   23.0250   -9.4976  -20.3036 O   0  0  0  0  0  0  0  0  0  0  0  0
   21.6820   -9.2867  -18.3658 C   0  0  0  0  0  0  0  0  0  0  0  0
   21.6228   -9.8522  -16.9594 C   0  0  2  0  0  0  0  0  0  0  0  0
   21.1144  -11.1900  -16.9707 N   0  0  0  0  0  0  0  0  0  0  0  0
   20.8768   -8.9464  -16.0719 C   0  0  0  0  0  0  0  0  0  0  0  0
   19.7874   -8.4740  -16.4684 O   0  0  0  0  0  0  0  0  0  0  0  0
   21.2969   -8.5513  -14.7665 N   0  0  0  0  0  0  0  0  0  0  0  0
   20.5520   -7.6121  -13.9799 C   0  0  1  0  0  0  0  0  0  0  0  0
   20.6563   -7.8297  -12.4967 C   0  0  0  0  0  0  0  0  0  0  0  0
   19.3148   -8.8008  -11.7995 S   0  0  0  0  0  0  0  0  0  0  0  0
   20.9513   -6.2234  -14.3157 C   0  0  0  0  0  0  0  0  0  0  0  0
   22.1533   -5.8586  -14.4247 O   0  0  0  0  0  0  0  0  0  0  0  0
   21.0009   -1.4352  -16.1659 N   0  0  0  0  0  0  0  0  0  0  0  0
   20.9721   -2.5929  -16.9674 C   0  0  0  0  0  0  0  0  0  0  0  0
   21.2632   -2.5002  -18.2044 O   0  0  0  0  0  0  0  0  0  0  0  0
   20.6119   -3.9221  -16.4141 C   0  0  0  0  0  0  0  0  0  0  0  0
   20.3387   -3.8594  -14.9065 C   0  0  2  0  0  0  0  0  0  0  0  0
   19.9634   -5.2101  -14.5378 N   0  0  0  0  0  0  0  0  0  0  0  0
   19.2200   -2.9091  -14.7055 C   0  0  0  0  0  0  0  0  0  0  0  0
   19.3952   -1.5801  -14.3818 O   0  0  0  0  0  0  0  0  0  0  0  0
   18.0512   -3.3405  -14.8377 O   0  0  0  0  0  0  0  0  0  0  0  0
  2  1  1  0
  2  4  1  0
  3  2  2  0
  5  4  1  0
  5  7  1  0
  5  6  1  6
  7  8  2  0
  7  9  1  0
  9 10  1  0
 10 13  1  0
 10 11  1  1
 11 12  1  0
 13 20  1  0
 13 14  2  0
 16 17  2  0
 16 15  1  0
 19 18  1  6
 18 16  1  0
 19 21  1  0
 20 19  1  0
 21 22  1  0
 23 21  2  0
M  END
$$$$
