NCN.pdb
     RDKit          3D

 23 22  0  0  1  0  0  0  0  0999 V2000
   26.1530  -14.7902  -15.1440 N   0  0  0  0  0  0  0  0  0  0  0  0
   26.8801  -13.6328  -15.4668 C   0  0  0  0  0  0  0  0  0  0  0  0
   28.0666  -13.4326  -15.0443 O   0  0  0  0  0  0  0  0  0  0  0  0
   26.2589  -12.6012  -16.3266 C   0  0  0  0  0  0  0  0  0  0  0  0
   24.8772  -13.0494  -16.7641 C   0  0  2  0  0  0  0  0  0  0  0  0
   24.9652  -13.9923  -17.8373 N   0  0  0  0  0  0  0  0  0  0  0  0
   24.0320  -11.8851  -17.0712 C   0  0  0  0  0  0  0  0  0  0  0  0
   24.2581  -11.2333  -18.1159 O   0  0  0  0  0  0  0  0  0  0  0  0
   22.9502  -11.4239  -16.2626 N   0  0  0  0  0  0  0  0  0  0  0  0
   22.0841  -10.3623  -16.6851 C   0  0  1  0  0  0  0  0  0  0  0  0
   20.6856  -10.8015  -17.0158 C   0  0  0  0  0  0  0  0  0  0  0  0
   20.5870  -11.9971  -18.3536 S   0  0  0  0  0  0  0  0  0  0  0  0
   22.0473   -9.2865  -15.6643 C   0  0  0  0  0  0  0  0  0  0  0  0
   22.0434   -9.5126  -14.4239 O   0  0  0  0  0  0  0  0  0  0  0  0
   22.1639   -4.4438  -13.6133 N   0  0  0  0  0  0  0  0  0  0  0  0
   22.7878   -4.4750  -14.8756 C   0  0  0  0  0  0  0  0  0  0  0  0
   23.4104   -3.4424  -15.2872 O   0  0  0  0  0  0  0  0  0  0  0  0
   22.7424   -5.6775  -15.7443 C   0  0  0  0  0  0  0  0  0  0  0  0
   22.0179   -6.8465  -15.0660 C   0  0  2  0  0  0  0  0  0  0  0  0
   22.0150   -7.9081  -16.0529 N   0  0  0  0  0  0  0  0  0  0  0  0
   20.6439   -6.3868  -14.7562 C   0  0  0  0  0  0  0  0  0  0  0  0
   20.2703   -5.8627  -13.5366 O   0  0  0  0  0  0  0  0  0  0  0  0
   19.7758   -6.4812  -15.6547 O   0  0  0  0  0  0  0  0  0  0  0  0
  2  1  1  0
  2  4  1  0
  3  2  2  0
  5  4  1  0
  5  7  1  0
  5  6  1  6
  7  8  2  0
  7  9  1  0
  9 10  1  0
 10 13  1  0
 10 11  1  1
 11 12  1  0
 13 20  1  0
 13 14  2  0
 16 17  2  0
 16 15  1  0
 19 18  1  6
 18 16  1  0
 19 21  1  0
 20 19  1  0
 21 22  1  0
 23 21  2  0
M  END
$$$$
