NCN.pdb
     RDKit          3D

 23 22  0  0  1  0  0  0  0  0999 V2000
   22.6838  -12.2510  -21.4251 N   0  0  0  0  0  0  0  0  0  0  0  0
   21.4584  -11.6051  -21.1934 C   0  0  0  0  0  0  0  0  0  0  0  0
   20.5741  -11.4732  -22.1028 O   0  0  0  0  0  0  0  0  0  0  0  0
   21.1709  -11.0532  -19.8510 C   0  0  0  0  0  0  0  0  0  0  0  0
   22.3096  -11.3722  -18.9008 C   0  0  2  0  0  0  0  0  0  0  0  0
   22.4204  -12.7845  -18.6969 N   0  0  0  0  0  0  0  0  0  0  0  0
   22.1678  -10.6065  -17.6526 C   0  0  0  0  0  0  0  0  0  0  0  0
   21.1070  -10.7120  -16.9964 O   0  0  0  0  0  0  0  0  0  0  0  0
   23.1591   -9.7338  -17.1116 N   0  0  0  0  0  0  0  0  0  0  0  0
   22.9758   -9.0580  -15.8604 C   0  0  1  0  0  0  0  0  0  0  0  0
   23.7430   -9.6589  -14.7165 C   0  0  0  0  0  0  0  0  0  0  0  0
   22.7882   -9.8409  -13.2052 S   0  0  0  0  0  0  0  0  0  0  0  0
   23.3131   -7.6197  -15.9943 C   0  0  0  0  0  0  0  0  0  0  0  0
   24.3520   -7.2062  -16.5768 O   0  0  0  0  0  0  0  0  0  0  0  0
   23.3627   -3.1279  -18.7076 N   0  0  0  0  0  0  0  0  0  0  0  0
   22.8150   -3.5162  -17.4695 C   0  0  0  0  0  0  0  0  0  0  0  0
   22.5092   -2.6205  -16.6165 O   0  0  0  0  0  0  0  0  0  0  0  0
   22.5823   -4.9412  -17.1263 C   0  0  0  0  0  0  0  0  0  0  0  0
   22.7413   -5.2013  -15.6235 C   0  0  2  0  0  0  0  0  0  0  0  0
   22.4504   -6.6113  -15.4548 N   0  0  0  0  0  0  0  0  0  0  0  0
   21.7467   -4.3526  -14.9267 C   0  0  0  0  0  0  0  0  0  0  0  0
   22.0662   -3.1814  -14.2725 O   0  0  0  0  0  0  0  0  0  0  0  0
   20.5498   -4.7229  -14.9341 O   0  0  0  0  0  0  0  0  0  0  0  0
  2  1  1  0
  2  4  1  0
  3  2  2  0
  5  4  1  0
  5  7  1  0
  5  6  1  1
  7  8  2  0
  7  9  1  0
  9 10  1  0
 10 13  1  0
 10 11  1  1
 11 12  1  0
 13 20  1  0
 13 14  2  0
 16 17  2  0
 16 15  1  0
 19 18  1  6
 18 16  1  0
 19 21  1  0
 20 19  1  0
 21 22  1  0
 23 21  2  0
M  END
$$$$
