FAP.pdb
     RDKit          3D

 24 25  0  0  1  0  0  0  0  0999 V2000
   27.1882  -18.1285   -7.9574 N   0  0  0  0  0  0  0  0  0  0  0  0
   27.1792  -19.5236   -8.3051 C   0  0  1  0  0  0  0  0  0  0  0  0
   26.7523  -20.3891   -7.1491 C   0  0  0  0  0  0  0  0  0  0  0  0
   27.7661  -20.1926   -6.0660 C   0  0  0  0  0  0  0  0  0  0  0  0
   27.4073  -19.7817   -4.8013 C   0  0  0  0  0  0  0  0  0  0  0  0
   28.3571  -19.6019   -3.8011 C   0  0  0  0  0  0  0  0  0  0  0  0
   29.6930  -19.8389   -4.0757 C   0  0  0  0  0  0  0  0  0  0  0  0
   30.0704  -20.2491   -5.3308 C   0  0  0  0  0  0  0  0  0  0  0  0
   29.1025  -20.4214   -6.3122 C   0  0  0  0  0  0  0  0  0  0  0  0
   26.3549  -19.7291   -9.5169 C   0  0  0  0  0  0  0  0  0  0  0  0
   25.2250  -19.1944   -9.5405 O   0  0  0  0  0  0  0  0  0  0  0  0
   26.8854  -21.5690  -12.8122 C   0  0  0  0  0  0  0  0  0  0  0  0
   26.1351  -20.6908  -11.8655 C   0  0  2  0  0  0  0  0  0  0  0  0
   26.7944  -20.4914  -10.6193 N   0  0  0  0  0  0  0  0  0  0  0  0
   24.6820  -21.0484  -11.7384 C   0  0  0  0  0  0  0  0  0  0  0  0
   24.2688  -21.5795  -10.6828 O   0  0  0  0  0  0  0  0  0  0  0  0
   23.7403  -20.8098  -12.7701 N   0  0  0  0  0  0  0  0  0  0  0  0
   23.9450  -20.2525  -14.0854 C   0  0  0  0  0  0  0  0  0  0  0  0
   22.7036  -19.3824  -14.2629 C   0  0  0  0  0  0  0  0  0  0  0  0
   21.7074  -19.8420  -13.2568 C   0  0  0  0  0  0  0  0  0  0  0  0
   22.3229  -21.0988  -12.6851 C   0  0  1  0  0  0  0  0  0  0  0  0
   21.9327  -22.2334  -13.5509 C   0  0  0  0  0  0  0  0  0  0  0  0
   22.7527  -22.7966  -14.5163 O   0  0  0  0  0  0  0  0  0  0  0  0
   20.7899  -22.7366  -13.4219 O   0  0  0  0  0  0  0  0  0  0  0  0
  2  1  1  1
  2 10  1  0
  3  2  1  0
  4  3  1  0
  5  4  2  0
  6  5  1  0
  7  6  2  0
  7  8  1  0
  8  9  2  0
  9  4  1  0
 10 11  2  0
 13 12  1  1
 13 15  1  0
 14 13  1  0
 14 10  1  0
 15 16  2  0
 15 17  1  0
 17 18  1  0
 17 21  1  0
 18 19  1  0
 20 19  1  0
 20 21  1  0
 21 22  1  6
 22 24  2  0
 22 23  1  0
M  END
$$$$
