FAP.pdb
     RDKit          3D

 24 25  0  0  1  0  0  0  0  0999 V2000
   28.4622  -20.9775   -8.9689 N   0  0  0  0  0  0  0  0  0  0  0  0
   27.0380  -20.7815   -8.9462 C   0  0  1  0  0  0  0  0  0  0  0  0
   26.6447  -19.6107   -8.0846 C   0  0  0  0  0  0  0  0  0  0  0  0
   27.3456  -19.7851   -6.7740 C   0  0  0  0  0  0  0  0  0  0  0  0
   26.9511  -20.7376   -5.8606 C   0  0  0  0  0  0  0  0  0  0  0  0
   27.6092  -20.8920   -4.6449 C   0  0  0  0  0  0  0  0  0  0  0  0
   28.6840  -20.0747   -4.3401 C   0  0  0  0  0  0  0  0  0  0  0  0
   29.0923  -19.1193   -5.2380 C   0  0  0  0  0  0  0  0  0  0  0  0
   28.4183  -18.9851   -6.4453 C   0  0  0  0  0  0  0  0  0  0  0  0
   26.5278  -20.6775  -10.3315 C   0  0  0  0  0  0  0  0  0  0  0  0
   26.8107  -19.6415  -10.9716 O   0  0  0  0  0  0  0  0  0  0  0  0
   25.0011  -22.9768  -12.8743 C   0  0  0  0  0  0  0  0  0  0  0  0
   25.0924  -21.6479  -12.1989 C   0  0  2  0  0  0  0  0  0  0  0  0
   25.7508  -21.6871  -10.9369 N   0  0  0  0  0  0  0  0  0  0  0  0
   23.7963  -20.8892  -12.1891 C   0  0  0  0  0  0  0  0  0  0  0  0
   23.2683  -20.5866  -11.0952 O   0  0  0  0  0  0  0  0  0  0  0  0
   23.1313  -20.4917  -13.3757 N   0  0  0  0  0  0  0  0  0  0  0  0
   23.5231  -20.6804  -14.7517 C   0  0  0  0  0  0  0  0  0  0  0  0
   23.1056  -19.3579  -15.3892 C   0  0  0  0  0  0  0  0  0  0  0  0
   22.1399  -18.7152  -14.4562 C   0  0  0  0  0  0  0  0  0  0  0  0
   21.8673  -19.7848  -13.4234 C   0  0  1  0  0  0  0  0  0  0  0  0
   20.7699  -20.6389  -13.9288 C   0  0  0  0  0  0  0  0  0  0  0  0
   19.4239  -20.3940  -13.7051 O   0  0  0  0  0  0  0  0  0  0  0  0
   21.0500  -21.6571  -14.6073 O   0  0  0  0  0  0  0  0  0  0  0  0
  2  1  1  6
  2 10  1  0
  3  2  1  0
  4  3  1  0
  5  4  2  0
  6  5  1  0
  7  6  2  0
  7  8  1  0
  8  9  2  0
  9  4  1  0
 10 11  2  0
 13 12  1  1
 13 15  1  0
 14 13  1  0
 14 10  1  0
 15 16  2  0
 15 17  1  0
 17 18  1  0
 17 21  1  0
 18 19  1  0
 20 19  1  0
 20 21  1  0
 21 22  1  6
 22 24  2  0
 22 23  1  0
M  END
$$$$
