FAP.pdb
     RDKit          3D

 24 25  0  0  1  0  0  0  0  0999 V2000
   24.9104  -20.5891   -7.8825 N   0  0  0  0  0  0  0  0  0  0  0  0
   26.0538  -20.1294   -8.6231 C   0  0  1  0  0  0  0  0  0  0  0  0
   27.3131  -20.8494   -8.2188 C   0  0  0  0  0  0  0  0  0  0  0  0
   27.7546  -20.2498   -6.9207 C   0  0  0  0  0  0  0  0  0  0  0  0
   27.8731  -21.0050   -5.7750 C   0  0  0  0  0  0  0  0  0  0  0  0
   28.2843  -20.4384   -4.5730 C   0  0  0  0  0  0  0  0  0  0  0  0
   28.5823  -19.0877   -4.5199 C   0  0  0  0  0  0  0  0  0  0  0  0
   28.4701  -18.3181   -5.6518 C   0  0  0  0  0  0  0  0  0  0  0  0
   28.0574  -18.9079   -6.8399 C   0  0  0  0  0  0  0  0  0  0  0  0
   25.7762  -20.2200  -10.0740 C   0  0  0  0  0  0  0  0  0  0  0  0
   25.1307  -21.2130  -10.4744 O   0  0  0  0  0  0  0  0  0  0  0  0
   26.9055  -18.1927  -13.0907 C   0  0  0  0  0  0  0  0  0  0  0  0
   26.1696  -19.3049  -12.4186 C   0  0  2  0  0  0  0  0  0  0  0  0
   26.2072  -19.2439  -10.9965 N   0  0  0  0  0  0  0  0  0  0  0  0
   26.4868  -20.6608  -12.9812 C   0  0  0  0  0  0  0  0  0  0  0  0
   27.2280  -21.4367  -12.3365 O   0  0  0  0  0  0  0  0  0  0  0  0
   25.9796  -21.1130  -14.2248 N   0  0  0  0  0  0  0  0  0  0  0  0
   25.0758  -20.4562  -15.1381 C   0  0  0  0  0  0  0  0  0  0  0  0
   24.2035  -21.6140  -15.6157 C   0  0  0  0  0  0  0  0  0  0  0  0
   24.9355  -22.8686  -15.2896 C   0  0  0  0  0  0  0  0  0  0  0  0
   26.2955  -22.3876  -14.8374 C   0  0  1  0  0  0  0  0  0  0  0  0
   27.1477  -22.2333  -16.0370 C   0  0  0  0  0  0  0  0  0  0  0  0
   27.3926  -21.0247  -16.6703 O   0  0  0  0  0  0  0  0  0  0  0  0
   27.6962  -23.2479  -16.5324 O   0  0  0  0  0  0  0  0  0  0  0  0
  2  1  1  1
  2 10  1  0
  3  2  1  0
  4  3  1  0
  5  4  2  0
  6  5  1  0
  7  6  2  0
  7  8  1  0
  8  9  2  0
  9  4  1  0
 10 11  2  0
 13 12  1  6
 13 15  1  0
 14 13  1  0
 14 10  1  0
 15 16  2  0
 15 17  1  0
 17 18  1  0
 17 21  1  0
 18 19  1  0
 20 19  1  0
 20 21  1  0
 21 22  1  6
 22 24  2  0
 22 23  1  0
M  END
$$$$
