FAP.pdb
     RDKit          3D

 24 25  0  0  1  0  0  0  0  0999 V2000
   25.0213  -20.9195   -7.7260 N   0  0  0  0  0  0  0  0  0  0  0  0
   26.0767  -20.2879   -8.4706 C   0  0  1  0  0  0  0  0  0  0  0  0
   27.4275  -20.8571   -8.1258 C   0  0  0  0  0  0  0  0  0  0  0  0
   27.7953  -20.3108   -6.7820 C   0  0  0  0  0  0  0  0  0  0  0  0
   28.2584  -21.1224   -5.7701 C   0  0  0  0  0  0  0  0  0  0  0  0
   28.5977  -20.6050   -4.5242 C   0  0  0  0  0  0  0  0  0  0  0  0
   28.4697  -19.2469   -4.2895 C   0  0  0  0  0  0  0  0  0  0  0  0
   28.0097  -18.4215   -5.2860 C   0  0  0  0  0  0  0  0  0  0  0  0
   27.6775  -18.9628   -6.5215 C   0  0  0  0  0  0  0  0  0  0  0  0
   25.7734  -20.3539   -9.9176 C   0  0  0  0  0  0  0  0  0  0  0  0
   25.0630  -21.3038  -10.3128 O   0  0  0  0  0  0  0  0  0  0  0  0
   26.8884  -18.3279  -12.9442 C   0  0  0  0  0  0  0  0  0  0  0  0
   26.1457  -19.4293  -12.2619 C   0  0  2  0  0  0  0  0  0  0  0  0
   26.2498  -19.4010  -10.8421 N   0  0  0  0  0  0  0  0  0  0  0  0
   26.3901  -20.7823  -12.8662 C   0  0  0  0  0  0  0  0  0  0  0  0
   27.2343  -21.5459  -12.3453 O   0  0  0  0  0  0  0  0  0  0  0  0
   25.7007  -21.2454  -14.0145 N   0  0  0  0  0  0  0  0  0  0  0  0
   24.6832  -20.5877  -14.7985 C   0  0  0  0  0  0  0  0  0  0  0  0
   23.7337  -21.7379  -15.1231 C   0  0  0  0  0  0  0  0  0  0  0  0
   24.4870  -22.9994  -14.8842 C   0  0  0  0  0  0  0  0  0  0  0  0
   25.9052  -22.5348  -14.6433 C   0  0  1  0  0  0  0  0  0  0  0  0
   26.5757  -22.4142  -15.9567 C   0  0  0  0  0  0  0  0  0  0  0  0
   26.7974  -21.2131  -16.6125 O   0  0  0  0  0  0  0  0  0  0  0  0
   26.9798  -23.4524  -16.5350 O   0  0  0  0  0  0  0  0  0  0  0  0
  2  1  1  1
  2 10  1  0
  3  2  1  0
  4  3  1  0
  5  4  2  0
  6  5  1  0
  7  6  2  0
  7  8  1  0
  8  9  2  0
  9  4  1  0
 10 11  2  0
 13 12  1  6
 13 15  1  0
 14 13  1  0
 14 10  1  0
 15 16  2  0
 15 17  1  0
 17 18  1  0
 17 21  1  0
 18 19  1  0
 20 19  1  0
 20 21  1  0
 21 22  1  6
 22 24  2  0
 22 23  1  0
M  END
$$$$
