FAP.pdb
     RDKit          3D

 24 25  0  0  1  0  0  0  0  0999 V2000
   22.9463  -19.9972  -18.0678 N   0  0  0  0  0  0  0  0  0  0  0  0
   23.4362  -18.9357  -17.2308 C   0  0  1  0  0  0  0  0  0  0  0  0
   22.3157  -18.1182  -16.6445 C   0  0  0  0  0  0  0  0  0  0  0  0
   21.4807  -19.0542  -15.8281 C   0  0  0  0  0  0  0  0  0  0  0  0
   21.6761  -19.2080  -14.4734 C   0  0  0  0  0  0  0  0  0  0  0  0
   20.8948  -20.0806  -13.7230 C   0  0  0  0  0  0  0  0  0  0  0  0
   19.8980  -20.8130  -14.3445 C   0  0  0  0  0  0  0  0  0  0  0  0
   19.6880  -20.6733  -15.6944 C   0  0  0  0  0  0  0  0  0  0  0  0
   20.4819  -19.7952  -16.4213 C   0  0  0  0  0  0  0  0  0  0  0  0
   24.3456  -19.4911  -16.2038 C   0  0  0  0  0  0  0  0  0  0  0  0
   24.0744  -20.6234  -15.7483 O   0  0  0  0  0  0  0  0  0  0  0  0
   27.3971  -18.1343  -14.3682 C   0  0  0  0  0  0  0  0  0  0  0  0
   26.3116  -19.1272  -14.6252 C   0  0  2  0  0  0  0  0  0  0  0  0
   25.4815  -18.7989  -15.7346 N   0  0  0  0  0  0  0  0  0  0  0  0
   25.5539  -19.5214  -13.3899 C   0  0  0  0  0  0  0  0  0  0  0  0
   24.3686  -19.1443  -13.2482 O   0  0  0  0  0  0  0  0  0  0  0  0
   26.1227  -20.3127  -12.3610 N   0  0  0  0  0  0  0  0  0  0  0  0
   27.4374  -20.9021  -12.2804 C   0  0  0  0  0  0  0  0  0  0  0  0
   27.1434  -22.2582  -11.6447 C   0  0  0  0  0  0  0  0  0  0  0  0
   25.7925  -22.1611  -11.0268 C   0  0  0  0  0  0  0  0  0  0  0  0
   25.4486  -20.6931  -11.1360 C   0  0  1  0  0  0  0  0  0  0  0  0
   26.0100  -20.0032   -9.9537 C   0  0  0  0  0  0  0  0  0  0  0  0
   25.4291  -20.0136   -8.6950 O   0  0  0  0  0  0  0  0  0  0  0  0
   27.0815  -19.3600  -10.0721 O   0  0  0  0  0  0  0  0  0  0  0  0
  2  1  1  1
  2 10  1  0
  3  2  1  0
  4  3  1  0
  5  4  2  0
  6  5  1  0
  7  6  2  0
  7  8  1  0
  8  9  2  0
  9  4  1  0
 10 11  2  0
 13 12  1  1
 13 15  1  0
 14 13  1  0
 14 10  1  0
 15 16  2  0
 15 17  1  0
 17 18  1  0
 17 21  1  0
 18 19  1  0
 20 19  1  0
 20 21  1  0
 21 22  1  1
 22 24  2  0
 22 23  1  0
M  END
$$$$
