FAP.pdb
     RDKit          3D

 24 25  0  0  1  0  0  0  0  0999 V2000
   25.5635  -22.5619  -12.7238 N   0  0  0  0  0  0  0  0  0  0  0  0
   25.6743  -21.4518  -11.8167 C   0  0  1  0  0  0  0  0  0  0  0  0
   24.3422  -21.0732  -11.2252 C   0  0  0  0  0  0  0  0  0  0  0  0
   23.4874  -20.5970  -12.3575 C   0  0  0  0  0  0  0  0  0  0  0  0
   22.4714  -21.3696  -12.8752 C   0  0  0  0  0  0  0  0  0  0  0  0
   21.6822  -20.9181  -13.9279 C   0  0  0  0  0  0  0  0  0  0  0  0
   21.9173  -19.6670  -14.4715 C   0  0  0  0  0  0  0  0  0  0  0  0
   22.9258  -18.8820  -13.9689 C   0  0  0  0  0  0  0  0  0  0  0  0
   23.6998  -19.3559  -12.9172 C   0  0  0  0  0  0  0  0  0  0  0  0
   26.6995  -21.7474  -10.7912 C   0  0  0  0  0  0  0  0  0  0  0  0
   26.4548  -22.6697   -9.9834 O   0  0  0  0  0  0  0  0  0  0  0  0
   29.9908  -20.0864   -9.8251 C   0  0  0  0  0  0  0  0  0  0  0  0
   28.7484  -20.8707   -9.5572 C   0  0  2  0  0  0  0  0  0  0  0  0
   27.9150  -21.0376  -10.6996 N   0  0  0  0  0  0  0  0  0  0  0  0
   28.0141  -20.4292   -8.3238 C   0  0  0  0  0  0  0  0  0  0  0  0
   26.8176  -20.0724   -8.4142 O   0  0  0  0  0  0  0  0  0  0  0  0
   28.6178  -20.3970   -7.0420 N   0  0  0  0  0  0  0  0  0  0  0  0
   29.9605  -20.7553   -6.6534 C   0  0  0  0  0  0  0  0  0  0  0  0
   29.7332  -21.4471   -5.3120 C   0  0  0  0  0  0  0  0  0  0  0  0
   28.3763  -21.0499   -4.8463 C   0  0  0  0  0  0  0  0  0  0  0  0
   27.9583  -19.9745   -5.8229 C   0  0  1  0  0  0  0  0  0  0  0  0
   28.4780  -18.6807   -5.3278 C   0  0  0  0  0  0  0  0  0  0  0  0
   29.5995  -18.0440   -5.8364 O   0  0  0  0  0  0  0  0  0  0  0  0
   27.8820  -18.1016   -4.3870 O   0  0  0  0  0  0  0  0  0  0  0  0
  2  1  1  6
  2 10  1  0
  3  2  1  0
  4  3  1  0
  5  4  2  0
  6  5  1  0
  7  6  2  0
  7  8  1  0
  8  9  2  0
  9  4  1  0
 10 11  2  0
 13 12  1  6
 13 15  1  0
 14 13  1  0
 14 10  1  0
 15 16  2  0
 15 17  1  0
 17 18  1  0
 17 21  1  0
 18 19  1  0
 20 19  1  0
 20 21  1  0
 21 22  1  1
 22 24  2  0
 22 23  1  0
M  END
$$$$
