WCS.pdb
     RDKit          3D

 27 28  0  0  1  0  0  0  0  0999 V2000
   24.3453  -20.4753  -16.4855 N   0  0  0  0  0  0  0  0  0  0  0  0
   24.1503  -19.7779  -15.2042 C   0  0  1  0  0  0  0  0  0  0  0  0
   23.8643  -18.3180  -15.5594 C   0  0  0  0  0  0  0  0  0  0  0  0
   25.0438  -17.8745  -16.3809 C   0  0  0  0  0  0  0  0  0  0  0  0
   25.0921  -17.1987  -17.5662 C   0  0  0  0  0  0  0  0  0  0  0  0
   26.4049  -17.0489  -17.9082 N   0  0  0  0  0  0  0  0  0  0  0  0
   27.1742  -17.6096  -16.9717 C   0  0  0  0  0  0  0  0  0  0  0  0
   28.5502  -17.7556  -16.7731 C   0  0  0  0  0  0  0  0  0  0  0  0
   29.0639  -18.3861  -15.6771 C   0  0  0  0  0  0  0  0  0  0  0  0
   28.2258  -18.9115  -14.7049 C   0  0  0  0  0  0  0  0  0  0  0  0
   26.8656  -18.7686  -14.8993 C   0  0  0  0  0  0  0  0  0  0  0  0
   26.3572  -18.1348  -16.0039 C   0  0  0  0  0  0  0  0  0  0  0  0
   23.0938  -20.3748  -14.3916 C   0  0  0  0  0  0  0  0  0  0  0  0
   22.2888  -21.2426  -14.8743 O   0  0  0  0  0  0  0  0  0  0  0  0
   22.8566  -20.0629  -13.0130 N   0  0  0  0  0  0  0  0  0  0  0  0
   21.8070  -20.7067  -12.2676 C   0  0  1  0  0  0  0  0  0  0  0  0
   21.9588  -20.4110  -10.7699 C   0  0  0  0  0  0  0  0  0  0  0  0
   20.7131  -21.4123   -9.9191 S   0  0  0  0  0  0  0  0  0  0  0  0
   20.4437  -20.3041  -12.6702 C   0  0  0  0  0  0  0  0  0  0  0  0
   20.1017  -19.1002  -12.7419 O   0  0  0  0  0  0  0  0  0  0  0  0
   16.5206  -21.1193  -15.2635 O   0  0  0  0  0  0  0  0  0  0  0  0
   17.7701  -21.4931  -14.8140 C   0  0  0  0  0  0  0  0  0  0  0  0
   18.1150  -20.9507  -13.4682 C   0  0  2  0  0  0  0  0  0  0  0  0
   19.4304  -21.2416  -12.9994 N   0  0  0  0  0  0  0  0  0  0  0  0
   17.0814  -21.4064  -12.5106 C   0  0  0  0  0  0  0  0  0  0  0  0
   17.3372  -22.0341  -11.4607 O   0  0  0  0  0  0  0  0  0  0  0  0
   15.7478  -21.1316  -12.7785 O   0  0  0  0  0  0  0  0  0  0  0  0
  2  1  1  6
  3  2  1  0
  4  3  1  0
  5  4  2  0
  6  5  1  0
  7 12  2  0
  7  6  1  0
  8  7  1  0
  9  8  2  0
  9 10  1  0
 10 11  2  0
 11 12  1  0
 12  4  1  0
 13  2  1  0
 14 13  2  0
 15 13  1  0
 16 15  1  0
 16 17  1  1
 17 18  1  0
 19 16  1  0
 20 19  2  0
 22 21  1  0
 23 22  1  6
 23 24  1  0
 24 19  1  0
 25 27  1  0
 25 23  1  0
 26 25  2  0
M  END
$$$$
