WCS.pdb
     RDKit          3D

 27 28  0  0  1  0  0  0  0  0999 V2000
   24.4111  -19.8409  -15.2865 N   0  0  0  0  0  0  0  0  0  0  0  0
   22.9425  -19.7462  -15.3055 C   0  0  1  0  0  0  0  0  0  0  0  0
   22.4903  -20.4779  -16.5701 C   0  0  0  0  0  0  0  0  0  0  0  0
   22.9867  -19.6339  -17.7120 C   0  0  0  0  0  0  0  0  0  0  0  0
   24.1292  -19.7322  -18.4529 C   0  0  0  0  0  0  0  0  0  0  0  0
   24.1240  -18.7169  -19.3651 N   0  0  0  0  0  0  0  0  0  0  0  0
   23.0132  -17.9912  -19.2147 C   0  0  0  0  0  0  0  0  0  0  0  0
   22.4650  -16.8714  -19.8472 C   0  0  0  0  0  0  0  0  0  0  0  0
   21.2648  -16.3399  -19.4734 C   0  0  0  0  0  0  0  0  0  0  0  0
   20.5336  -16.9016  -18.4372 C   0  0  0  0  0  0  0  0  0  0  0  0
   21.0736  -18.0081  -17.8106 C   0  0  0  0  0  0  0  0  0  0  0  0
   22.2808  -18.5355  -18.1913 C   0  0  0  0  0  0  0  0  0  0  0  0
   22.3263  -20.2841  -14.0955 C   0  0  0  0  0  0  0  0  0  0  0  0
   22.7740  -21.3395  -13.5300 O   0  0  0  0  0  0  0  0  0  0  0  0
   21.1940  -19.7045  -13.4353 N   0  0  0  0  0  0  0  0  0  0  0  0
   20.6457  -20.2842  -12.2374 C   0  0  1  0  0  0  0  0  0  0  0  0
   20.5094  -19.2173  -11.1435 C   0  0  0  0  0  0  0  0  0  0  0  0
   19.4792  -17.8992  -11.8361 S   0  0  0  0  0  0  0  0  0  0  0  0
   19.3216  -20.9134  -12.4203 C   0  0  0  0  0  0  0  0  0  0  0  0
   18.5164  -20.5212  -13.2975 O   0  0  0  0  0  0  0  0  0  0  0  0
   17.9447  -23.8589   -9.6518 O   0  0  0  0  0  0  0  0  0  0  0  0
   17.4743  -23.9234  -10.9470 C   0  0  0  0  0  0  0  0  0  0  0  0
   17.5976  -22.6413  -11.6990 C   0  0  2  0  0  0  0  0  0  0  0  0
   18.8672  -21.9956  -11.6223 N   0  0  0  0  0  0  0  0  0  0  0  0
   16.5027  -21.7453  -11.2619 C   0  0  0  0  0  0  0  0  0  0  0  0
   16.6878  -20.6031  -10.7900 O   0  0  0  0  0  0  0  0  0  0  0  0
   15.1903  -22.1825  -11.3735 O   0  0  0  0  0  0  0  0  0  0  0  0
  2  1  1  1
  3  2  1  0
  4  3  1  0
  5  4  2  0
  6  5  1  0
  7 12  2  0
  7  6  1  0
  8  7  1  0
  9  8  2  0
  9 10  1  0
 10 11  2  0
 11 12  1  0
 12  4  1  0
 13  2  1  0
 14 13  2  0
 15 13  1  0
 16 15  1  0
 16 17  1  1
 17 18  1  0
 19 16  1  0
 20 19  2  0
 22 21  1  0
 23 22  1  1
 23 24  1  0
 24 19  1  0
 25 27  1  0
 25 23  1  0
 26 25  2  0
M  END
$$$$
