WCS.pdb
     RDKit          3D

 27 28  0  0  1  0  0  0  0  0999 V2000
   27.8507  -21.3870  -10.3120 N   0  0  0  0  0  0  0  0  0  0  0  0
   26.6231  -20.7635   -9.7921 C   0  0  1  0  0  0  0  0  0  0  0  0
   27.0792  -19.5506   -8.9796 C   0  0  0  0  0  0  0  0  0  0  0  0
   28.1955  -20.0578   -8.1082 C   0  0  0  0  0  0  0  0  0  0  0  0
   29.3302  -20.7434   -8.4341 C   0  0  0  0  0  0  0  0  0  0  0  0
   30.0174  -20.9861   -7.2801 N   0  0  0  0  0  0  0  0  0  0  0  0
   29.3456  -20.4716   -6.2471 C   0  0  0  0  0  0  0  0  0  0  0  0
   29.5515  -20.3968   -4.8664 C   0  0  0  0  0  0  0  0  0  0  0  0
   28.6683  -19.7750   -4.0321 C   0  0  0  0  0  0  0  0  0  0  0  0
   27.5173  -19.1845   -4.5323 C   0  0  0  0  0  0  0  0  0  0  0  0
   27.3117  -19.2575   -5.8964 C   0  0  0  0  0  0  0  0  0  0  0  0
   28.2033  -19.8851   -6.7280 C   0  0  0  0  0  0  0  0  0  0  0  0
   25.6792  -20.4083  -10.8483 C   0  0  0  0  0  0  0  0  0  0  0  0
   25.6858  -19.2500  -11.3889 O   0  0  0  0  0  0  0  0  0  0  0  0
   24.6805  -21.2915  -11.3743 N   0  0  0  0  0  0  0  0  0  0  0  0
   23.9102  -20.9445  -12.5396 C   0  0  1  0  0  0  0  0  0  0  0  0
   24.8018  -20.9485  -13.7881 C   0  0  0  0  0  0  0  0  0  0  0  0
   26.1368  -22.1277  -13.4630 S   0  0  0  0  0  0  0  0  0  0  0  0
   22.7671  -21.8434  -12.7998 C   0  0  0  0  0  0  0  0  0  0  0  0
   22.7657  -23.0399  -12.4256 O   0  0  0  0  0  0  0  0  0  0  0  0
   18.9311  -20.2338  -11.2339 O   0  0  0  0  0  0  0  0  0  0  0  0
   20.2028  -20.3429  -11.7572 C   0  0  0  0  0  0  0  0  0  0  0  0
   20.2951  -21.2526  -12.9355 C   0  0  2  0  0  0  0  0  0  0  0  0
   21.5991  -21.4234  -13.4880 N   0  0  0  0  0  0  0  0  0  0  0  0
   19.3281  -20.7841  -13.9544 C   0  0  0  0  0  0  0  0  0  0  0  0
   18.2476  -21.3610  -14.2022 O   0  0  0  0  0  0  0  0  0  0  0  0
   19.6222  -19.6425  -14.6867 O   0  0  0  0  0  0  0  0  0  0  0  0
  2  1  1  6
  3  2  1  0
  4  3  1  0
  5  4  2  0
  6  5  1  0
  7 12  2  0
  7  6  1  0
  8  7  1  0
  9  8  2  0
  9 10  1  0
 10 11  2  0
 11 12  1  0
 12  4  1  0
 13  2  1  0
 14 13  2  0
 15 13  1  0
 16 15  1  0
 16 17  1  6
 17 18  1  0
 19 16  1  0
 20 19  2  0
 22 21  1  0
 23 22  1  1
 23 24  1  0
 24 19  1  0
 25 27  1  0
 25 23  1  0
 26 25  2  0
M  END
$$$$
