WCS.pdb
     RDKit          3D

 27 28  0  0  1  0  0  0  0  0999 V2000
   28.2790  -21.0399  -15.6822 N   0  0  0  0  0  0  0  0  0  0  0  0
   27.2832  -20.1918  -15.0075 C   0  0  1  0  0  0  0  0  0  0  0  0
   26.4121  -19.6018  -16.1176 C   0  0  0  0  0  0  0  0  0  0  0  0
   27.2351  -18.4946  -16.7172 C   0  0  0  0  0  0  0  0  0  0  0  0
   28.0066  -18.4765  -17.8435 C   0  0  0  0  0  0  0  0  0  0  0  0
   28.5630  -17.2346  -17.9485 N   0  0  0  0  0  0  0  0  0  0  0  0
   28.1605  -16.4800  -16.9230 C   0  0  0  0  0  0  0  0  0  0  0  0
   28.3807  -15.1616  -16.5133 C   0  0  0  0  0  0  0  0  0  0  0  0
   27.8051  -14.6436  -15.3895 C   0  0  0  0  0  0  0  0  0  0  0  0
   26.9666  -15.4185  -14.6019 C   0  0  0  0  0  0  0  0  0  0  0  0
   26.7479  -16.7217  -15.0047 C   0  0  0  0  0  0  0  0  0  0  0  0
   27.3309  -17.2352  -16.1347 C   0  0  0  0  0  0  0  0  0  0  0  0
   26.5037  -20.9205  -14.0103 C   0  0  0  0  0  0  0  0  0  0  0  0
   25.9176  -22.0207  -14.2936 O   0  0  0  0  0  0  0  0  0  0  0  0
   26.3210  -20.4949  -12.6541 N   0  0  0  0  0  0  0  0  0  0  0  0
   25.2193  -20.9714  -11.8598 C   0  0  1  0  0  0  0  0  0  0  0  0
   25.3589  -20.4877  -10.4106 C   0  0  0  0  0  0  0  0  0  0  0  0
   26.9270  -21.1518   -9.7956 S   0  0  0  0  0  0  0  0  0  0  0  0
   23.8915  -20.5478  -12.3500 C   0  0  0  0  0  0  0  0  0  0  0  0
   23.6437  -19.3554  -12.6470 O   0  0  0  0  0  0  0  0  0  0  0  0
   21.0378  -23.4615  -13.6071 O   0  0  0  0  0  0  0  0  0  0  0  0
   21.0278  -22.1640  -14.0755 C   0  0  0  0  0  0  0  0  0  0  0  0
   21.5365  -21.1633  -13.0935 C   0  0  2  0  0  0  0  0  0  0  0  0
   22.8090  -21.4503  -12.5164 N   0  0  0  0  0  0  0  0  0  0  0  0
   20.4981  -20.9693  -12.0557 C   0  0  0  0  0  0  0  0  0  0  0  0
   20.6894  -21.1703  -10.8372 O   0  0  0  0  0  0  0  0  0  0  0  0
   19.2347  -20.5423  -12.4393 O   0  0  0  0  0  0  0  0  0  0  0  0
  2  1  1  6
  3  2  1  0
  4  3  1  0
  5  4  2  0
  6  5  1  0
  7 12  2  0
  7  6  1  0
  8  7  1  0
  9  8  2  0
  9 10  1  0
 10 11  2  0
 11 12  1  0
 12  4  1  0
 13  2  1  0
 14 13  2  0
 15 13  1  0
 16 15  1  0
 16 17  1  1
 17 18  1  0
 19 16  1  0
 20 19  2  0
 22 21  1  0
 23 22  1  6
 23 24  1  0
 24 19  1  0
 25 27  1  0
 25 23  1  0
 26 25  2  0
M  END
$$$$
