WCS.pdb
     RDKit          3D

 27 28  0  0  1  0  0  0  0  0999 V2000
   24.2002  -21.6344  -16.5370 N   0  0  0  0  0  0  0  0  0  0  0  0
   23.2630  -20.5412  -16.2323 C   0  0  1  0  0  0  0  0  0  0  0  0
   22.4872  -20.2803  -17.5243 C   0  0  0  0  0  0  0  0  0  0  0  0
   23.4983  -19.7133  -18.4829 C   0  0  0  0  0  0  0  0  0  0  0  0
   24.3288  -20.3413  -19.3660 C   0  0  0  0  0  0  0  0  0  0  0  0
   25.0676  -19.3833  -19.9979 N   0  0  0  0  0  0  0  0  0  0  0  0
   24.7213  -18.1793  -19.5357 C   0  0  0  0  0  0  0  0  0  0  0  0
   25.1091  -16.8632  -19.8038 C   0  0  0  0  0  0  0  0  0  0  0  0
   24.5512  -15.7957  -19.1620 C   0  0  0  0  0  0  0  0  0  0  0  0
   23.5627  -15.9812  -18.2069 C   0  0  0  0  0  0  0  0  0  0  0  0
   23.1782  -17.2810  -17.9402 C   0  0  0  0  0  0  0  0  0  0  0  0
   23.7445  -18.3484  -18.5885 C   0  0  0  0  0  0  0  0  0  0  0  0
   22.3873  -20.8463  -15.1041 C   0  0  0  0  0  0  0  0  0  0  0  0
   21.7935  -21.9739  -15.0047 O   0  0  0  0  0  0  0  0  0  0  0  0
   22.1117  -19.9451  -14.0243 N   0  0  0  0  0  0  0  0  0  0  0  0
   21.1785  -20.2850  -12.9825 C   0  0  1  0  0  0  0  0  0  0  0  0
   21.3444  -19.3361  -11.7885 C   0  0  0  0  0  0  0  0  0  0  0  0
   20.2757  -19.9732  -10.4730 S   0  0  0  0  0  0  0  0  0  0  0  0
   19.7621  -20.2401  -13.4000 C   0  0  0  0  0  0  0  0  0  0  0  0
   19.2765  -19.2480  -13.9929 O   0  0  0  0  0  0  0  0  0  0  0  0
   17.0447  -23.4796  -12.4810 O   0  0  0  0  0  0  0  0  0  0  0  0
   16.8777  -22.7168  -13.6182 C   0  0  0  0  0  0  0  0  0  0  0  0
   17.4771  -21.3542  -13.5249 C   0  0  2  0  0  0  0  0  0  0  0  0
   18.8553  -21.3053  -13.1604 N   0  0  0  0  0  0  0  0  0  0  0  0
   16.6412  -20.5465  -12.6074 C   0  0  0  0  0  0  0  0  0  0  0  0
   17.0846  -19.9714  -11.5904 O   0  0  0  0  0  0  0  0  0  0  0  0
   15.2863  -20.4109  -12.8751 O   0  0  0  0  0  0  0  0  0  0  0  0
  2  1  1  6
  3  2  1  0
  4  3  1  0
  5  4  2  0
  6  5  1  0
  7 12  2  0
  7  6  1  0
  8  7  1  0
  9  8  2  0
  9 10  1  0
 10 11  2  0
 11 12  1  0
 12  4  1  0
 13  2  1  0
 14 13  2  0
 15 13  1  0
 16 15  1  0
 16 17  1  1
 17 18  1  0
 19 16  1  0
 20 19  2  0
 22 21  1  0
 23 22  1  1
 23 24  1  0
 24 19  1  0
 25 27  1  0
 25 23  1  0
 26 25  2  0
M  END
$$$$
