WCS.pdb
     RDKit          3D

 27 28  0  0  1  0  0  0  0  0999 V2000
   27.3062  -21.9982  -15.7869 N   0  0  0  0  0  0  0  0  0  0  0  0
   26.2116  -21.0998  -15.3858 C   0  0  1  0  0  0  0  0  0  0  0  0
   25.2798  -21.0065  -16.5950 C   0  0  0  0  0  0  0  0  0  0  0  0
   25.3417  -19.5677  -17.0295 C   0  0  0  0  0  0  0  0  0  0  0  0
   26.4107  -18.7967  -17.3858 C   0  0  0  0  0  0  0  0  0  0  0  0
   25.9445  -17.5493  -17.6850 N   0  0  0  0  0  0  0  0  0  0  0  0
   24.6188  -17.5213  -17.5268 C   0  0  0  0  0  0  0  0  0  0  0  0
   23.6190  -16.5582  -17.6911 C   0  0  0  0  0  0  0  0  0  0  0  0
   22.3018  -16.8305  -17.4592 C   0  0  0  0  0  0  0  0  0  0  0  0
   21.9017  -18.0930  -17.0473 C   0  0  0  0  0  0  0  0  0  0  0  0
   22.8881  -19.0462  -16.8841 C   0  0  0  0  0  0  0  0  0  0  0  0
   24.2096  -18.7645  -17.1180 C   0  0  0  0  0  0  0  0  0  0  0  0
   25.5226  -21.5525  -14.1803 C   0  0  0  0  0  0  0  0  0  0  0  0
   24.8646  -22.6483  -14.1582 O   0  0  0  0  0  0  0  0  0  0  0  0
   25.5130  -20.8414  -12.9360 N   0  0  0  0  0  0  0  0  0  0  0  0
   24.5261  -21.1128  -11.9241 C   0  0  1  0  0  0  0  0  0  0  0  0
   24.9202  -20.4415  -10.6021 C   0  0  0  0  0  0  0  0  0  0  0  0
   26.5054  -21.1650  -10.1104 S   0  0  0  0  0  0  0  0  0  0  0  0
   23.1631  -20.6599  -12.2703 C   0  0  0  0  0  0  0  0  0  0  0  0
   22.9360  -19.5003  -12.6888 O   0  0  0  0  0  0  0  0  0  0  0  0
   18.6167  -21.7779  -13.5446 O   0  0  0  0  0  0  0  0  0  0  0  0
   19.9364  -22.1159  -13.3272 C   0  0  0  0  0  0  0  0  0  0  0  0
   20.6729  -21.1495  -12.4623 C   0  0  2  0  0  0  0  0  0  0  0  0
   22.0218  -21.4952  -12.1531 N   0  0  0  0  0  0  0  0  0  0  0  0
   19.8721  -20.9273  -11.2367 C   0  0  0  0  0  0  0  0  0  0  0  0
   20.2797  -21.1899  -10.0848 O   0  0  0  0  0  0  0  0  0  0  0  0
   18.5938  -20.4002  -11.3543 O   0  0  0  0  0  0  0  0  0  0  0  0
  2  1  1  6
  3  2  1  0
  4  3  1  0
  5  4  2  0
  6  5  1  0
  7 12  2  0
  7  6  1  0
  8  7  1  0
  9  8  2  0
  9 10  1  0
 10 11  2  0
 11 12  1  0
 12  4  1  0
 13  2  1  0
 14 13  2  0
 15 13  1  0
 16 15  1  0
 16 17  1  1
 17 18  1  0
 19 16  1  0
 20 19  2  0
 22 21  1  0
 23 22  1  1
 23 24  1  0
 24 19  1  0
 25 27  1  0
 25 23  1  0
 26 25  2  0
M  END
$$$$
