KKT.pdb
     RDKit          3D

 26 25  0  0  1  0  0  0  0  0999 V2000
    8.9698  -20.5373   17.2533 N   0  0  0  0  0  0  0  0  0  0  0  0
   10.3429  -20.4028   17.6954 C   0  0  1  0  0  0  0  0  0  0  0  0
   11.0051  -19.3360   16.8850 C   0  0  0  0  0  0  0  0  0  0  0  0
   11.3993  -19.8427   15.4962 C   0  0  0  0  0  0  0  0  0  0  0  0
   12.7630  -20.4587   15.5157 C   0  0  0  0  0  0  0  0  0  0  0  0
   13.2448  -20.8509   14.1370 C   0  0  0  0  0  0  0  0  0  0  0  0
   14.5026  -21.5621   14.2734 N   0  0  0  0  0  0  0  0  0  0  0  0
   10.4162  -20.1355   19.1618 C   0  0  0  0  0  0  0  0  0  0  0  0
    9.6235  -19.2790   19.6141 O   0  0  0  0  0  0  0  0  0  0  0  0
   11.3285  -20.8069   20.0093 N   0  0  0  0  0  0  0  0  0  0  0  0
   11.4634  -20.6504   21.4299 C   0  0  1  0  0  0  0  0  0  0  0  0
   12.0148  -21.8414   22.1274 C   0  0  0  0  0  0  0  0  0  0  0  0
   12.0059  -21.6078   23.6319 C   0  0  0  0  0  0  0  0  0  0  0  0
   12.6394  -22.7922   24.3548 C   0  0  0  0  0  0  0  0  0  0  0  0
   12.4993  -22.6503   25.8467 C   0  0  0  0  0  0  0  0  0  0  0  0
   13.0459  -23.7894   26.5532 N   0  0  0  0  0  0  0  0  0  0  0  0
   12.0739  -19.3547   21.8510 C   0  0  0  0  0  0  0  0  0  0  0  0
   13.1829  -18.9627   21.4282 O   0  0  0  0  0  0  0  0  0  0  0  0
   10.1663  -15.7729   22.0533 C   0  0  0  0  0  0  0  0  0  0  0  0
   10.8982  -16.1328   23.3039 C   0  0  1  0  0  0  0  0  0  0  0  0
   10.0193  -16.6256   24.2834 O   0  0  0  0  0  0  0  0  0  0  0  0
   11.9616  -17.1835   23.1155 C   0  0  2  0  0  0  0  0  0  0  0  0
   11.4216  -18.4805   22.7680 N   0  0  0  0  0  0  0  0  0  0  0  0
   12.8818  -17.2616   24.2736 C   0  0  0  0  0  0  0  0  0  0  0  0
   13.7180  -16.2364   24.6326 O   0  0  0  0  0  0  0  0  0  0  0  0
   12.8867  -18.3188   24.9482 O   0  0  0  0  0  0  0  0  0  0  0  0
  2  1  1  6
  3  4  1  0
  3  2  1  0
  5  4  1  0
  5  6  1  0
  7  6  1  0
  8  2  1  0
  8  9  2  0
 10  8  1  0
 11 10  1  0
 11 12  1  6
 13 12  1  0
 13 14  1  0
 15 14  1  0
 16 15  1  0
 17 11  1  0
 18 17  2  0
 20 19  1  6
 20 22  1  0
 21 20  1  0
 22 24  1  0
 22 23  1  1
 23 17  1  0
 24 25  1  0
 26 24  2  0
M  END
$$$$
