KKT.pdb
     RDKit          3D

 26 25  0  0  1  0  0  0  0  0999 V2000
    6.3266  -17.3068   20.0886 N   0  0  0  0  0  0  0  0  0  0  0  0
    7.3545  -16.5629   20.7879 C   0  0  1  0  0  0  0  0  0  0  0  0
    7.4790  -15.2121   20.1611 C   0  0  0  0  0  0  0  0  0  0  0  0
    7.8706  -15.3067   18.6851 C   0  0  0  0  0  0  0  0  0  0  0  0
    7.9708  -13.9474   18.0672 C   0  0  0  0  0  0  0  0  0  0  0  0
    8.2338  -14.0020   16.5791 C   0  0  0  0  0  0  0  0  0  0  0  0
    8.1996  -12.6489   16.0551 N   0  0  0  0  0  0  0  0  0  0  0  0
    7.0702  -16.4905   22.2511 C   0  0  0  0  0  0  0  0  0  0  0  0
    6.0251  -15.8900   22.5884 O   0  0  0  0  0  0  0  0  0  0  0  0
    7.9275  -17.0654   23.2186 N   0  0  0  0  0  0  0  0  0  0  0  0
    7.7450  -17.0670   24.6424 C   0  0  1  0  0  0  0  0  0  0  0  0
    7.9982  -18.3803   25.2907 C   0  0  0  0  0  0  0  0  0  0  0  0
    6.9017  -19.3646   24.9069 C   0  0  0  0  0  0  0  0  0  0  0  0
    7.1391  -20.7109   25.5833 C   0  0  0  0  0  0  0  0  0  0  0  0
    6.0887  -21.7100   25.1783 C   0  0  0  0  0  0  0  0  0  0  0  0
    6.3460  -23.0220   25.7330 N   0  0  0  0  0  0  0  0  0  0  0  0
    8.3679  -15.9056   25.3439 C   0  0  0  0  0  0  0  0  0  0  0  0
    9.5874  -15.6437   25.2628 O   0  0  0  0  0  0  0  0  0  0  0  0
    7.0563  -12.0029   25.7062 C   0  0  0  0  0  0  0  0  0  0  0  0
    7.2910  -12.7227   26.9931 C   0  0  1  0  0  0  0  0  0  0  0  0
    6.0850  -13.1934   27.5397 O   0  0  0  0  0  0  0  0  0  0  0  0
    8.2022  -13.9168   26.8746 C   0  0  2  0  0  0  0  0  0  0  0  0
    7.6013  -15.0190   26.1543 N   0  0  0  0  0  0  0  0  0  0  0  0
    8.7385  -14.3434   28.1878 C   0  0  0  0  0  0  0  0  0  0  0  0
    9.4201  -13.4990   29.0253 O   0  0  0  0  0  0  0  0  0  0  0  0
    8.5539  -15.5335   28.5378 O   0  0  0  0  0  0  0  0  0  0  0  0
  2  1  1  6
  3  4  1  0
  3  2  1  0
  5  4  1  0
  5  6  1  0
  7  6  1  0
  8  2  1  0
  8  9  2  0
 10  8  1  0
 11 10  1  0
 11 12  1  1
 13 12  1  0
 13 14  1  0
 15 14  1  0
 16 15  1  0
 17 11  1  0
 18 17  2  0
 20 19  1  6
 20 22  1  0
 21 20  1  0
 22 24  1  0
 22 23  1  1
 23 17  1  0
 24 25  1  0
 26 24  2  0
M  END
$$$$
