KKT.pdb
     RDKit          3D

 26 25  0  0  1  0  0  0  0  0999 V2000
    6.0737  -17.0469   21.1599 N   0  0  0  0  0  0  0  0  0  0  0  0
    7.3281  -16.4357   21.5494 C   0  0  1  0  0  0  0  0  0  0  0  0
    7.3730  -15.0447   21.0050 C   0  0  0  0  0  0  0  0  0  0  0  0
    7.7687  -15.0276   19.5271 C   0  0  0  0  0  0  0  0  0  0  0  0
    7.8546  -13.6261   19.0097 C   0  0  0  0  0  0  0  0  0  0  0  0
    8.2680  -13.5661   17.5564 C   0  0  0  0  0  0  0  0  0  0  0  0
    8.2329  -12.1810   17.1241 N   0  0  0  0  0  0  0  0  0  0  0  0
    7.5143  -16.4769   23.0295 C   0  0  0  0  0  0  0  0  0  0  0  0
    6.5300  -16.1416   23.7262 O   0  0  0  0  0  0  0  0  0  0  0  0
    8.7334  -16.8719   23.6288 N   0  0  0  0  0  0  0  0  0  0  0  0
    9.0528  -16.8563   25.0282 C   0  0  1  0  0  0  0  0  0  0  0  0
   10.0503  -17.8784   25.4399 C   0  0  0  0  0  0  0  0  0  0  0  0
   10.2411  -17.8338   26.9499 C   0  0  0  0  0  0  0  0  0  0  0  0
   11.1788  -18.9503   27.3977 C   0  0  0  0  0  0  0  0  0  0  0  0
   11.2553  -19.0197   28.8993 C   0  0  0  0  0  0  0  0  0  0  0  0
   12.0990  -20.1065   29.3494 N   0  0  0  0  0  0  0  0  0  0  0  0
    9.3021  -15.4946   25.5874 C   0  0  0  0  0  0  0  0  0  0  0  0
   10.2730  -14.7893   25.2376 O   0  0  0  0  0  0  0  0  0  0  0  0
    7.2511  -12.1810   25.7286 C   0  0  0  0  0  0  0  0  0  0  0  0
    7.5520  -12.6796   27.1035 C   0  0  1  0  0  0  0  0  0  0  0  0
    6.4497  -13.3576   27.6510 O   0  0  0  0  0  0  0  0  0  0  0  0
    8.7177  -13.6318   27.1728 C   0  0  2  0  0  0  0  0  0  0  0  0
    8.4395  -14.9137   26.5615 N   0  0  0  0  0  0  0  0  0  0  0  0
    9.2375  -13.7797   28.5520 C   0  0  0  0  0  0  0  0  0  0  0  0
    9.6236  -12.7135   29.3221 O   0  0  0  0  0  0  0  0  0  0  0  0
    9.3233  -14.9380   29.0250 O   0  0  0  0  0  0  0  0  0  0  0  0
  2  1  1  1
  3  4  1  0
  3  2  1  0
  5  4  1  0
  5  6  1  0
  7  6  1  0
  8  2  1  0
  8  9  2  0
 10  8  1  0
 11 10  1  0
 11 12  1  6
 13 12  1  0
 13 14  1  0
 15 14  1  0
 16 15  1  0
 17 11  1  0
 18 17  2  0
 20 19  1  6
 20 22  1  0
 21 20  1  0
 22 24  1  0
 22 23  1  1
 23 17  1  0
 24 25  1  0
 26 24  2  0
M  END
$$$$
