KKT.pdb
     RDKit          3D

 26 25  0  0  1  0  0  0  0  0999 V2000
    8.0188  -20.1730   19.9360 N   0  0  0  0  0  0  0  0  0  0  0  0
    7.1026  -19.1601   20.4190 C   0  0  1  0  0  0  0  0  0  0  0  0
    5.9386  -19.8366   21.0675 C   0  0  0  0  0  0  0  0  0  0  0  0
    6.3822  -20.7657   22.1993 C   0  0  0  0  0  0  0  0  0  0  0  0
    5.2028  -21.3944   22.8724 C   0  0  0  0  0  0  0  0  0  0  0  0
    5.6026  -22.4001   23.9286 C   0  0  0  0  0  0  0  0  0  0  0  0
    4.3990  -22.9054   24.5629 N   0  0  0  0  0  0  0  0  0  0  0  0
    7.7885  -18.2006   21.3333 C   0  0  0  0  0  0  0  0  0  0  0  0
    8.6521  -18.6808   22.1015 O   0  0  0  0  0  0  0  0  0  0  0  0
    7.4893  -16.8179   21.3429 N   0  0  0  0  0  0  0  0  0  0  0  0
    8.1425  -15.7983   22.1139 C   0  0  1  0  0  0  0  0  0  0  0  0
    7.8653  -14.4120   21.6551 C   0  0  0  0  0  0  0  0  0  0  0  0
    8.4342  -14.2079   20.2575 C   0  0  0  0  0  0  0  0  0  0  0  0
    7.7901  -12.9936   19.5964 C   0  0  0  0  0  0  0  0  0  0  0  0
    8.3099  -12.8033   18.1967 C   0  0  0  0  0  0  0  0  0  0  0  0
    7.6741  -11.6870   17.5295 N   0  0  0  0  0  0  0  0  0  0  0  0
    8.0454  -15.9871   23.5917 C   0  0  0  0  0  0  0  0  0  0  0  0
    6.9807  -15.8189   24.2246 O   0  0  0  0  0  0  0  0  0  0  0  0
    7.4663  -18.4961   25.7264 C   0  0  0  0  0  0  0  0  0  0  0  0
    8.7950  -17.9972   26.1902 C   0  0  1  0  0  0  0  0  0  0  0  0
    9.8416  -18.7735   25.6640 O   0  0  0  0  0  0  0  0  0  0  0  0
    9.0861  -16.5696   25.8059 C   0  0  2  0  0  0  0  0  0  0  0  0
    9.1714  -16.3741   24.3745 N   0  0  0  0  0  0  0  0  0  0  0  0
   10.2752  -16.0331   26.5076 C   0  0  0  0  0  0  0  0  0  0  0  0
   10.4045  -16.0446   27.8722 O   0  0  0  0  0  0  0  0  0  0  0  0
   11.1985  -15.5493   25.8104 O   0  0  0  0  0  0  0  0  0  0  0  0
  2  1  1  1
  3  4  1  0
  3  2  1  0
  5  4  1  0
  5  6  1  0
  7  6  1  0
  8  2  1  0
  8  9  2  0
 10  8  1  0
 11 10  1  0
 11 12  1  1
 13 12  1  0
 13 14  1  0
 15 14  1  0
 16 15  1  0
 17 11  1  0
 18 17  2  0
 20 19  1  6
 20 22  1  0
 21 20  1  0
 22 24  1  0
 22 23  1  6
 23 17  1  0
 24 25  1  0
 26 24  2  0
M  END
$$$$
