KKT.pdb
     RDKit          3D

 26 25  0  0  1  0  0  0  0  0999 V2000
    8.9596  -17.5543   20.3697 N   0  0  0  0  0  0  0  0  0  0  0  0
    8.5164  -16.1794   20.4794 C   0  0  1  0  0  0  0  0  0  0  0  0
    7.5299  -15.9055   19.3908 C   0  0  0  0  0  0  0  0  0  0  0  0
    7.3419  -17.1193   18.4785 C   0  0  0  0  0  0  0  0  0  0  0  0
    8.4108  -17.1767   17.4329 C   0  0  0  0  0  0  0  0  0  0  0  0
    7.8574  -17.4209   16.0469 C   0  0  0  0  0  0  0  0  0  0  0  0
    8.9688  -17.5350   15.1204 N   0  0  0  0  0  0  0  0  0  0  0  0
    7.9645  -15.8946   21.8363 C   0  0  0  0  0  0  0  0  0  0  0  0
    7.4095  -14.7836   21.9921 O   0  0  0  0  0  0  0  0  0  0  0  0
    8.0560  -16.8217   22.9010 N   0  0  0  0  0  0  0  0  0  0  0  0
    7.5487  -16.6590   24.2339 C   0  0  1  0  0  0  0  0  0  0  0  0
    7.4227  -17.9264   25.0001 C   0  0  0  0  0  0  0  0  0  0  0  0
    6.3192  -18.7854   24.3979 C   0  0  0  0  0  0  0  0  0  0  0  0
    6.8654  -20.1577   24.0173 C   0  0  0  0  0  0  0  0  0  0  0  0
    5.8208  -20.9748   23.3053 C   0  0  0  0  0  0  0  0  0  0  0  0
    6.3349  -22.2590   22.8787 N   0  0  0  0  0  0  0  0  0  0  0  0
    8.1741  -15.5391   24.9979 C   0  0  0  0  0  0  0  0  0  0  0  0
    9.4083  -15.3420   25.0167 O   0  0  0  0  0  0  0  0  0  0  0  0
    6.8876  -11.5649   25.3911 C   0  0  0  0  0  0  0  0  0  0  0  0
    7.0765  -12.3454   26.6500 C   0  0  1  0  0  0  0  0  0  0  0  0
    5.8516  -12.8378   27.1315 O   0  0  0  0  0  0  0  0  0  0  0  0
    7.9895  -13.5354   26.5067 C   0  0  2  0  0  0  0  0  0  0  0  0
    7.3932  -14.6204   25.7573 N   0  0  0  0  0  0  0  0  0  0  0  0
    8.5205  -13.9929   27.8117 C   0  0  0  0  0  0  0  0  0  0  0  0
    9.1404  -13.1536   28.7007 O   0  0  0  0  0  0  0  0  0  0  0  0
    8.3908  -15.2054   28.1047 O   0  0  0  0  0  0  0  0  0  0  0  0
  2  1  1  1
  3  4  1  0
  3  2  1  0
  5  4  1  0
  5  6  1  0
  7  6  1  0
  8  2  1  0
  8  9  2  0
 10  8  1  0
 11 10  1  0
 11 12  1  1
 13 12  1  0
 13 14  1  0
 15 14  1  0
 16 15  1  0
 17 11  1  0
 18 17  2  0
 20 19  1  6
 20 22  1  0
 21 20  1  0
 22 24  1  0
 22 23  1  1
 23 17  1  0
 24 25  1  0
 26 24  2  0
M  END
$$$$
