KKT.pdb
     RDKit          3D

 26 25  0  0  1  0  0  0  0  0999 V2000
    5.6082  -17.0159   21.2784 N   0  0  0  0  0  0  0  0  0  0  0  0
    6.7880  -16.3164   21.7451 C   0  0  1  0  0  0  0  0  0  0  0  0
    6.6298  -14.8600   21.4500 C   0  0  0  0  0  0  0  0  0  0  0  0
    6.7265  -14.5724   19.9503 C   0  0  0  0  0  0  0  0  0  0  0  0
    7.8997  -13.6948   19.6458 C   0  0  0  0  0  0  0  0  0  0  0  0
    7.9952  -13.3382   18.1793 C   0  0  0  0  0  0  0  0  0  0  0  0
    9.1801  -12.5242   17.9792 N   0  0  0  0  0  0  0  0  0  0  0  0
    7.0389  -16.5828   23.1918 C   0  0  0  0  0  0  0  0  0  0  0  0
    6.1600  -16.1921   23.9927 O   0  0  0  0  0  0  0  0  0  0  0  0
    8.2043  -17.2413   23.6496 N   0  0  0  0  0  0  0  0  0  0  0  0
    8.6442  -17.3729   25.0097 C   0  0  1  0  0  0  0  0  0  0  0  0
    9.3646  -18.6401   25.3003 C   0  0  0  0  0  0  0  0  0  0  0  0
    9.6461  -18.7424   26.7932 C   0  0  0  0  0  0  0  0  0  0  0  0
   10.3074  -20.0785   27.1163 C   0  0  0  0  0  0  0  0  0  0  0  0
   10.6376  -20.1757   28.5815 C   0  0  0  0  0  0  0  0  0  0  0  0
   11.0690  -21.5067   28.9528 N   0  0  0  0  0  0  0  0  0  0  0  0
    9.3001  -16.1522   25.5652 C   0  0  0  0  0  0  0  0  0  0  0  0
   10.3411  -15.6638   25.0751 O   0  0  0  0  0  0  0  0  0  0  0  0
    8.1830  -12.5181   25.8190 C   0  0  0  0  0  0  0  0  0  0  0  0
    8.4270  -13.0746   27.1829 C   0  0  1  0  0  0  0  0  0  0  0  0
    7.2295  -13.5084   27.7767 O   0  0  0  0  0  0  0  0  0  0  0  0
    9.3686  -14.2506   27.2097 C   0  0  2  0  0  0  0  0  0  0  0  0
    8.7726  -15.4657   26.6969 N   0  0  0  0  0  0  0  0  0  0  0  0
    9.9710  -14.4539   28.5476 C   0  0  0  0  0  0  0  0  0  0  0  0
   10.6500  -13.4694   29.2175 O   0  0  0  0  0  0  0  0  0  0  0  0
    9.8474  -15.5823   29.0808 O   0  0  0  0  0  0  0  0  0  0  0  0
  2  1  1  1
  3  4  1  0
  3  2  1  0
  5  4  1  0
  5  6  1  0
  7  6  1  0
  8  2  1  0
  8  9  2  0
 10  8  1  0
 11 10  1  0
 11 12  1  6
 13 12  1  0
 13 14  1  0
 15 14  1  0
 16 15  1  0
 17 11  1  0
 18 17  2  0
 20 19  1  6
 20 22  1  0
 21 20  1  0
 22 24  1  0
 22 23  1  1
 23 17  1  0
 24 25  1  0
 26 24  2  0
M  END
$$$$
