KKT.pdb
     RDKit          3D

 26 25  0  0  1  0  0  0  0  0999 V2000
    8.7166  -19.6067   18.8621 N   0  0  0  0  0  0  0  0  0  0  0  0
   10.0482  -19.1004   18.5985 C   0  0  1  0  0  0  0  0  0  0  0  0
   10.1086  -18.6246   17.1832 C   0  0  0  0  0  0  0  0  0  0  0  0
   10.2628  -19.7875   16.2009 C   0  0  0  0  0  0  0  0  0  0  0  0
   10.4772  -19.2887   14.8065 C   0  0  0  0  0  0  0  0  0  0  0  0
   10.7378  -20.4063   13.8217 C   0  0  0  0  0  0  0  0  0  0  0  0
   10.7582  -19.8457   12.4831 N   0  0  0  0  0  0  0  0  0  0  0  0
   10.4271  -18.0380   19.5757 C   0  0  0  0  0  0  0  0  0  0  0  0
   11.6486  -17.7866   19.6822 O   0  0  0  0  0  0  0  0  0  0  0  0
    9.4676  -17.3426   20.3484 N   0  0  0  0  0  0  0  0  0  0  0  0
    9.7088  -16.2446   21.2410 C   0  0  1  0  0  0  0  0  0  0  0  0
    8.6725  -15.1801   21.1961 C   0  0  0  0  0  0  0  0  0  0  0  0
    8.5984  -14.5915   19.7938 C   0  0  0  0  0  0  0  0  0  0  0  0
    7.4767  -13.5612   19.7112 C   0  0  0  0  0  0  0  0  0  0  0  0
    7.3947  -12.9634   18.3323 C   0  0  0  0  0  0  0  0  0  0  0  0
    6.2937  -12.0316   18.2100 N   0  0  0  0  0  0  0  0  0  0  0  0
   10.1136  -16.6498   22.6197 C   0  0  0  0  0  0  0  0  0  0  0  0
    9.2897  -16.8012   23.5475 O   0  0  0  0  0  0  0  0  0  0  0  0
   11.3191  -19.7711   23.9108 C   0  0  0  0  0  0  0  0  0  0  0  0
   12.3584  -18.7686   24.2908 C   0  0  1  0  0  0  0  0  0  0  0  0
   13.4600  -18.8232   23.4200 O   0  0  0  0  0  0  0  0  0  0  0  0
   11.8731  -17.3422   24.2781 C   0  0  2  0  0  0  0  0  0  0  0  0
   11.4758  -16.8904   22.9618 N   0  0  0  0  0  0  0  0  0  0  0  0
   12.8416  -16.4165   24.9099 C   0  0  0  0  0  0  0  0  0  0  0  0
   13.2454  -16.5355   26.2144 O   0  0  0  0  0  0  0  0  0  0  0  0
   13.3059  -15.4860   24.2090 O   0  0  0  0  0  0  0  0  0  0  0  0
  2  1  1  1
  3  4  1  0
  3  2  1  0
  5  4  1  0
  5  6  1  0
  7  6  1  0
  8  2  1  0
  8  9  2  0
 10  8  1  0
 11 10  1  0
 11 12  1  1
 13 12  1  0
 13 14  1  0
 15 14  1  0
 16 15  1  0
 17 11  1  0
 18 17  2  0
 20 19  1  6
 20 22  1  0
 21 20  1  0
 22 24  1  0
 22 23  1  6
 23 17  1  0
 24 25  1  0
 26 24  2  0
M  END
$$$$
