CNY.pdb
     RDKit          3D

 27 27  0  0  1  0  0  0  0  0999 V2000
    8.0616  -14.8043   18.2261 N   0  0  0  0  0  0  0  0  0  0  0  0
    8.6499  -14.4719   19.5055 C   0  0  1  0  0  0  0  0  0  0  0  0
    7.9584  -13.2021   20.0055 C   0  0  0  0  0  0  0  0  0  0  0  0
    8.3303  -11.8508   18.8781 S   0  0  0  0  0  0  0  0  0  0  0  0
    8.4866  -15.5618   20.4996 C   0  0  0  0  0  0  0  0  0  0  0  0
    7.7609  -16.5353   20.1597 O   0  0  0  0  0  0  0  0  0  0  0  0
    8.7543  -19.2998   21.2620 N   0  0  0  0  0  0  0  0  0  0  0  0
    9.8076  -18.4924   20.7581 C   0  0  0  0  0  0  0  0  0  0  0  0
   10.1257  -18.6348   19.5526 O   0  0  0  0  0  0  0  0  0  0  0  0
   10.4595  -17.5416   21.6774 C   0  0  0  0  0  0  0  0  0  0  0  0
    9.4755  -16.7008   22.4662 C   0  0  2  0  0  0  0  0  0  0  0  0
    9.1098  -15.5020   21.7463 N   0  0  0  0  0  0  0  0  0  0  0  0
    9.9265  -16.4033   23.8405 C   0  0  0  0  0  0  0  0  0  0  0  0
   11.0309  -15.8396   24.0438 O   0  0  0  0  0  0  0  0  0  0  0  0
    5.9845  -11.2218   25.8787 O   0  0  0  0  0  0  0  0  0  0  0  0
    6.5691  -12.4505   26.1987 C   0  0  0  0  0  0  0  0  0  0  0  0
    7.7419  -12.4820   26.9156 C   0  0  0  0  0  0  0  0  0  0  0  0
    8.3602  -13.6634   27.2575 C   0  0  0  0  0  0  0  0  0  0  0  0
    7.7585  -14.8452   26.8526 C   0  0  0  0  0  0  0  0  0  0  0  0
    8.4245  -16.1386   27.2263 C   0  0  0  0  0  0  0  0  0  0  0  0
    9.6341  -16.4094   26.3326 C   0  0  2  0  0  0  0  0  0  0  0  0
    9.1713  -16.7209   24.9973 N   0  0  0  0  0  0  0  0  0  0  0  0
   10.4025  -17.5040   26.9369 C   0  0  0  0  0  0  0  0  0  0  0  0
   11.0882  -17.3977   28.1373 O   0  0  0  0  0  0  0  0  0  0  0  0
    6.5826  -14.8056   26.1343 C   0  0  0  0  0  0  0  0  0  0  0  0
    5.9615  -13.6086   25.7911 C   0  0  0  0  0  0  0  0  0  0  0  0
   10.4392  -18.6042   26.3264 O   0  0  0  0  0  0  0  0  0  0  0  0
  2  1  1  6
  2  5  1  0
  3  2  1  0
  3  4  1  0
  5  6  2  0
  7  8  1  0
  8  9  2  0
 10  8  1  0
 11 10  1  6
 11 13  1  0
 12 11  1  0
 12  5  1  0
 13 14  2  0
 15 16  1  0
 16 26  2  0
 17 18  2  0
 17 16  1  0
 18 19  1  0
 19 20  1  0
 19 25  2  0
 21 20  1  1
 21 23  1  0
 22 13  1  0
 22 21  1  0
 23 27  2  0
 23 24  1  0
 26 25  1  0
M  END
$$$$
