CNY.pdb
     RDKit          3D

 27 27  0  0  1  0  0  0  0  0999 V2000
    5.9246  -15.7414   20.0218 N   0  0  0  0  0  0  0  0  0  0  0  0
    7.2634  -15.1942   19.9820 C   0  0  1  0  0  0  0  0  0  0  0  0
    7.2176  -13.8342   20.6812 C   0  0  0  0  0  0  0  0  0  0  0  0
    6.6009  -14.0580   22.3560 S   0  0  0  0  0  0  0  0  0  0  0  0
    8.2511  -16.0752   20.6537 C   0  0  0  0  0  0  0  0  0  0  0  0
    7.7938  -16.9227   21.4677 O   0  0  0  0  0  0  0  0  0  0  0  0
   12.7165  -19.3201   20.5869 N   0  0  0  0  0  0  0  0  0  0  0  0
   12.8094  -17.9191   20.7962 C   0  0  0  0  0  0  0  0  0  0  0  0
   13.7530  -17.4973   21.5077 O   0  0  0  0  0  0  0  0  0  0  0  0
   11.7966  -17.0509   20.1680 C   0  0  0  0  0  0  0  0  0  0  0  0
   10.5848  -16.8118   21.0464 C   0  0  2  0  0  0  0  0  0  0  0  0
    9.6164  -15.9627   20.3902 N   0  0  0  0  0  0  0  0  0  0  0  0
   10.9256  -16.3191   22.3961 C   0  0  0  0  0  0  0  0  0  0  0  0
   11.4273  -15.1778   22.5532 O   0  0  0  0  0  0  0  0  0  0  0  0
   10.8604  -14.4546   30.8910 O   0  0  0  0  0  0  0  0  0  0  0  0
   10.5888  -14.8713   29.5848 C   0  0  0  0  0  0  0  0  0  0  0  0
   10.5065  -16.2139   29.3001 C   0  0  0  0  0  0  0  0  0  0  0  0
   10.2418  -16.6792   28.0319 C   0  0  0  0  0  0  0  0  0  0  0  0
   10.0565  -15.7409   27.0279 C   0  0  0  0  0  0  0  0  0  0  0  0
    9.7624  -16.2408   25.6424 C   0  0  0  0  0  0  0  0  0  0  0  0
   11.0536  -16.5605   24.8904 C   0  0  2  0  0  0  0  0  0  0  0  0
   10.7190  -17.0726   23.5789 N   0  0  0  0  0  0  0  0  0  0  0  0
   11.8166  -17.5203   25.6968 C   0  0  0  0  0  0  0  0  0  0  0  0
   12.8513  -17.1655   26.5488 O   0  0  0  0  0  0  0  0  0  0  0  0
   10.1405  -14.3965   27.3211 C   0  0  0  0  0  0  0  0  0  0  0  0
   10.4083  -13.9312   28.6048 C   0  0  0  0  0  0  0  0  0  0  0  0
   11.5107  -18.7381   25.6076 O   0  0  0  0  0  0  0  0  0  0  0  0
  2  1  1  1
  2  5  1  0
  3  2  1  0
  3  4  1  0
  5  6  2  0
  7  8  1  0
  8  9  2  0
 10  8  1  0
 11 10  1  6
 11 13  1  0
 12 11  1  0
 12  5  1  0
 13 14  2  0
 15 16  1  0
 16 26  2  0
 17 18  2  0
 17 16  1  0
 18 19  1  0
 19 20  1  0
 19 25  2  0
 21 20  1  1
 21 23  1  0
 22 13  1  0
 22 21  1  0
 23 27  2  0
 23 24  1  0
 26 25  1  0
M  END
$$$$
