CNY.pdb
     RDKit          3D

 27 27  0  0  1  0  0  0  0  0999 V2000
    9.4463  -14.3782   17.7341 N   0  0  0  0  0  0  0  0  0  0  0  0
    8.5557  -14.1543   18.8521 C   0  0  1  0  0  0  0  0  0  0  0  0
    7.1257  -14.2964   18.3274 C   0  0  0  0  0  0  0  0  0  0  0  0
    6.7608  -12.9100   17.2409 S   0  0  0  0  0  0  0  0  0  0  0  0
    8.7871  -15.1179   19.9570 C   0  0  0  0  0  0  0  0  0  0  0  0
    7.9931  -15.0607   20.9349 O   0  0  0  0  0  0  0  0  0  0  0  0
    9.2878  -19.4471   19.0723 N   0  0  0  0  0  0  0  0  0  0  0  0
   10.5079  -18.7256   19.1489 C   0  0  0  0  0  0  0  0  0  0  0  0
   11.1801  -18.6036   18.0962 O   0  0  0  0  0  0  0  0  0  0  0  0
   10.9080  -18.1672   20.4536 C   0  0  0  0  0  0  0  0  0  0  0  0
   10.0049  -17.0460   20.9275 C   0  0  2  0  0  0  0  0  0  0  0  0
    9.8348  -16.0376   19.9061 N   0  0  0  0  0  0  0  0  0  0  0  0
   10.4229  -16.4603   22.2170 C   0  0  0  0  0  0  0  0  0  0  0  0
   11.5631  -15.9487   22.3480 O   0  0  0  0  0  0  0  0  0  0  0  0
   10.5995  -14.6407   30.8559 O   0  0  0  0  0  0  0  0  0  0  0  0
   10.1768  -14.9059   29.5502 C   0  0  0  0  0  0  0  0  0  0  0  0
    9.9655  -16.2048   29.1520 C   0  0  0  0  0  0  0  0  0  0  0  0
    9.5494  -16.5224   27.8789 C   0  0  0  0  0  0  0  0  0  0  0  0
    9.3446  -15.4784   26.9896 C   0  0  0  0  0  0  0  0  0  0  0  0
    8.8858  -15.8167   25.6000 C   0  0  0  0  0  0  0  0  0  0  0  0
   10.0756  -15.9741   24.6540 C   0  0  2  0  0  0  0  0  0  0  0  0
    9.5956  -16.4317   23.3678 N   0  0  0  0  0  0  0  0  0  0  0  0
   11.0204  -16.9108   25.2734 C   0  0  0  0  0  0  0  0  0  0  0  0
   10.8639  -18.2884   25.2628 O   0  0  0  0  0  0  0  0  0  0  0  0
    9.5585  -14.1787   27.3962 C   0  0  0  0  0  0  0  0  0  0  0  0
    9.9791  -13.8628   28.6845 C   0  0  0  0  0  0  0  0  0  0  0  0
   12.0326  -16.4316   25.8481 O   0  0  0  0  0  0  0  0  0  0  0  0
  2  1  1  6
  2  5  1  0
  3  2  1  0
  3  4  1  0
  5  6  2  0
  7  8  1  0
  8  9  2  0
 10  8  1  0
 11 10  1  6
 11 13  1  0
 12 11  1  0
 12  5  1  0
 13 14  2  0
 15 16  1  0
 16 26  2  0
 17 18  2  0
 17 16  1  0
 18 19  1  0
 19 20  1  0
 19 25  2  0
 21 20  1  1
 21 23  1  0
 22 13  1  0
 22 21  1  0
 23 27  2  0
 23 24  1  0
 26 25  1  0
M  END
$$$$
