CNY.pdb
     RDKit          3D

 27 27  0  0  1  0  0  0  0  0999 V2000
    7.2564  -16.0134   17.3569 N   0  0  0  0  0  0  0  0  0  0  0  0
    8.1764  -15.2574   18.1787 C   0  0  1  0  0  0  0  0  0  0  0  0
    7.4747  -13.9529   18.5611 C   0  0  0  0  0  0  0  0  0  0  0  0
    8.5123  -13.0482   19.7189 S   0  0  0  0  0  0  0  0  0  0  0  0
    8.5734  -15.9960   19.4034 C   0  0  0  0  0  0  0  0  0  0  0  0
    7.6406  -16.4674   20.1088 O   0  0  0  0  0  0  0  0  0  0  0  0
   12.3293  -19.3408   22.2789 N   0  0  0  0  0  0  0  0  0  0  0  0
   12.1829  -17.9329   22.1718 C   0  0  0  0  0  0  0  0  0  0  0  0
   12.4755  -17.2384   23.1752 O   0  0  0  0  0  0  0  0  0  0  0  0
   11.6987  -17.3765   20.8950 C   0  0  0  0  0  0  0  0  0  0  0  0
   10.3077  -16.7821   20.9899 C   0  0  2  0  0  0  0  0  0  0  0  0
    9.9159  -16.1548   19.7481 N   0  0  0  0  0  0  0  0  0  0  0  0
   10.1328  -15.8777   22.1441 C   0  0  0  0  0  0  0  0  0  0  0  0
   10.6435  -14.7296   22.1408 O   0  0  0  0  0  0  0  0  0  0  0  0
    6.1004  -10.9925   28.0201 O   0  0  0  0  0  0  0  0  0  0  0  0
    6.4931  -11.9307   27.0614 C   0  0  0  0  0  0  0  0  0  0  0  0
    6.3683  -11.6336   25.7248 C   0  0  0  0  0  0  0  0  0  0  0  0
    6.7392  -12.5202   24.7393 C   0  0  0  0  0  0  0  0  0  0  0  0
    7.2523  -13.7457   25.1362 C   0  0  0  0  0  0  0  0  0  0  0  0
    7.6640  -14.7166   24.0666 C   0  0  0  0  0  0  0  0  0  0  0  0
    9.0684  -15.2581   24.3302 C   0  0  2  0  0  0  0  0  0  0  0  0
    9.3988  -16.2254   23.3059 N   0  0  0  0  0  0  0  0  0  0  0  0
    9.0812  -15.8338   25.6801 C   0  0  0  0  0  0  0  0  0  0  0  0
    9.1985  -17.1903   25.9419 O   0  0  0  0  0  0  0  0  0  0  0  0
    7.3745  -14.0364   26.4782 C   0  0  0  0  0  0  0  0  0  0  0  0
    6.9981  -13.1366   27.4707 C   0  0  0  0  0  0  0  0  0  0  0  0
    8.9795  -15.0461   26.6567 O   0  0  0  0  0  0  0  0  0  0  0  0
  2  1  1  6
  2  5  1  0
  3  2  1  0
  3  4  1  0
  5  6  2  0
  7  8  1  0
  8  9  2  0
 10  8  1  0
 11 10  1  6
 11 13  1  0
 12 11  1  0
 12  5  1  0
 13 14  2  0
 15 16  1  0
 16 26  2  0
 17 18  2  0
 17 16  1  0
 18 19  1  0
 19 20  1  0
 19 25  2  0
 21 20  1  6
 21 23  1  0
 22 13  1  0
 22 21  1  0
 23 27  2  0
 23 24  1  0
 26 25  1  0
M  END
$$$$
