CNY.pdb
     RDKit          3D

 27 27  0  0  1  0  0  0  0  0999 V2000
   19.7027  -15.5763   11.8867 N   0  0  0  0  0  0  0  0  0  0  0  0
   18.8522  -15.3652   13.0380 C   0  0  1  0  0  0  0  0  0  0  0  0
   18.2656  -16.7247   13.4228 C   0  0  0  0  0  0  0  0  0  0  0  0
   16.8735  -17.0879   12.3432 S   0  0  0  0  0  0  0  0  0  0  0  0
   19.5947  -14.7910   14.1878 C   0  0  0  0  0  0  0  0  0  0  0  0
   20.8318  -14.6060   14.0286 O   0  0  0  0  0  0  0  0  0  0  0  0
   21.3898  -12.6675   18.2419 N   0  0  0  0  0  0  0  0  0  0  0  0
   20.6465  -11.8020   17.3972 C   0  0  0  0  0  0  0  0  0  0  0  0
   20.8472  -10.5680   17.5051 O   0  0  0  0  0  0  0  0  0  0  0  0
   19.6895  -12.4034   16.4502 C   0  0  0  0  0  0  0  0  0  0  0  0
   19.6627  -13.9178   16.5063 C   0  0  2  0  0  0  0  0  0  0  0  0
   18.9459  -14.4750   15.3817 N   0  0  0  0  0  0  0  0  0  0  0  0
   19.1700  -14.4493   17.7929 C   0  0  0  0  0  0  0  0  0  0  0  0
   17.9389  -14.4833   18.0421 O   0  0  0  0  0  0  0  0  0  0  0  0
   17.6764  -19.1694   24.8947 O   0  0  0  0  0  0  0  0  0  0  0  0
   18.2463  -18.5991   23.7529 C   0  0  0  0  0  0  0  0  0  0  0  0
   17.7540  -18.9225   22.5105 C   0  0  0  0  0  0  0  0  0  0  0  0
   18.2775  -18.3906   21.3538 C   0  0  0  0  0  0  0  0  0  0  0  0
   19.3354  -17.5026   21.4751 C   0  0  0  0  0  0  0  0  0  0  0  0
   19.9088  -16.9142   20.2177 C   0  0  0  0  0  0  0  0  0  0  0  0
   19.5120  -15.4459   20.0702 C   0  0  2  0  0  0  0  0  0  0  0  0
   20.0218  -14.9457   18.8116 N   0  0  0  0  0  0  0  0  0  0  0  0
   20.0452  -14.7185   21.2279 C   0  0  0  0  0  0  0  0  0  0  0  0
   21.3134  -14.1600   21.2741 O   0  0  0  0  0  0  0  0  0  0  0  0
   19.8235  -17.1832   22.7242 C   0  0  0  0  0  0  0  0  0  0  0  0
   19.2908  -17.7235   23.8906 C   0  0  0  0  0  0  0  0  0  0  0  0
   19.3042  -14.5960   22.2381 O   0  0  0  0  0  0  0  0  0  0  0  0
  2  1  1  6
  2  5  1  0
  3  2  1  0
  3  4  1  0
  5  6  2  0
  7  8  1  0
  8  9  2  0
 10  8  1  0
 11 10  1  1
 11 13  1  0
 12 11  1  0
 12  5  1  0
 13 14  2  0
 15 16  1  0
 16 26  2  0
 17 18  2  0
 17 16  1  0
 18 19  1  0
 19 20  1  0
 19 25  2  0
 21 20  1  1
 21 23  1  0
 22 13  1  0
 22 21  1  0
 23 27  2  0
 23 24  1  0
 26 25  1  0
M  END
$$$$
