CNY.pdb
     RDKit          3D

 27 27  0  0  1  0  0  0  0  0999 V2000
    7.7416  -14.3989   16.4749 N   0  0  0  0  0  0  0  0  0  0  0  0
    8.3663  -14.0455   17.7312 C   0  0  1  0  0  0  0  0  0  0  0  0
    7.6327  -12.8167   18.2717 C   0  0  0  0  0  0  0  0  0  0  0  0
    8.2503  -12.4448   19.9197 S   0  0  0  0  0  0  0  0  0  0  0  0
    8.3017  -15.1494   18.7213 C   0  0  0  0  0  0  0  0  0  0  0  0
    7.1853  -15.7176   18.8650 O   0  0  0  0  0  0  0  0  0  0  0  0
    9.8822  -18.7207   17.7800 N   0  0  0  0  0  0  0  0  0  0  0  0
    9.2476  -18.5329   19.0359 C   0  0  0  0  0  0  0  0  0  0  0  0
    8.0844  -18.9830   19.1744 O   0  0  0  0  0  0  0  0  0  0  0  0
    9.9904  -17.8242   20.0943 C   0  0  0  0  0  0  0  0  0  0  0  0
    9.3444  -16.5165   20.5064 C   0  0  2  0  0  0  0  0  0  0  0  0
    9.4271  -15.5314   19.4519 N   0  0  0  0  0  0  0  0  0  0  0  0
    9.8476  -15.9921   21.7919 C   0  0  0  0  0  0  0  0  0  0  0  0
   11.0025  -15.5043   21.8761 O   0  0  0  0  0  0  0  0  0  0  0  0
   10.6269  -14.4149   30.4413 O   0  0  0  0  0  0  0  0  0  0  0  0
   10.1151  -14.6998   29.1723 C   0  0  0  0  0  0  0  0  0  0  0  0
    9.9935  -16.0069   28.7632 C   0  0  0  0  0  0  0  0  0  0  0  0
    9.4962  -16.3439   27.5247 C   0  0  0  0  0  0  0  0  0  0  0  0
    9.1131  -15.3111   26.6824 C   0  0  0  0  0  0  0  0  0  0  0  0
    8.5649  -15.6710   25.3311 C   0  0  0  0  0  0  0  0  0  0  0  0
    9.6656  -15.6524   24.2713 C   0  0  2  0  0  0  0  0  0  0  0  0
    9.0897  -15.9993   22.9898 N   0  0  0  0  0  0  0  0  0  0  0  0
   10.7127  -16.5890   24.6954 C   0  0  0  0  0  0  0  0  0  0  0  0
   10.5966  -17.9683   24.6143 O   0  0  0  0  0  0  0  0  0  0  0  0
    9.2379  -14.0032   27.0996 C   0  0  0  0  0  0  0  0  0  0  0  0
    9.7413  -13.6677   28.3528 C   0  0  0  0  0  0  0  0  0  0  0  0
   11.7791  -16.1082   25.1603 O   0  0  0  0  0  0  0  0  0  0  0  0
  2  1  1  6
  2  5  1  0
  3  2  1  0
  3  4  1  0
  5  6  2  0
  7  8  1  0
  8  9  2  0
 10  8  1  0
 11 10  1  6
 11 13  1  0
 12 11  1  0
 12  5  1  0
 13 14  2  0
 15 16  1  0
 16 26  2  0
 17 18  2  0
 17 16  1  0
 18 19  1  0
 19 20  1  0
 19 25  2  0
 21 20  1  1
 21 23  1  0
 22 13  1  0
 22 21  1  0
 23 27  2  0
 23 24  1  0
 26 25  1  0
M  END
$$$$
