CNY.pdb
     RDKit          3D

 27 27  0  0  1  0  0  0  0  0999 V2000
    7.3333  -13.8201   17.6918 N   0  0  0  0  0  0  0  0  0  0  0  0
    8.6247  -14.1326   18.2643 C   0  0  1  0  0  0  0  0  0  0  0  0
    9.1968  -12.8307   18.8283 C   0  0  0  0  0  0  0  0  0  0  0  0
    8.1198  -12.2391   20.1419 S   0  0  0  0  0  0  0  0  0  0  0  0
    8.5315  -15.1517   19.3392 C   0  0  0  0  0  0  0  0  0  0  0  0
    7.3966  -15.3234   19.8610 O   0  0  0  0  0  0  0  0  0  0  0  0
   12.3763  -18.1142   21.3941 N   0  0  0  0  0  0  0  0  0  0  0  0
   11.6199  -18.1871   20.1951 C   0  0  0  0  0  0  0  0  0  0  0  0
   12.2495  -18.2285   19.1103 O   0  0  0  0  0  0  0  0  0  0  0  0
   10.1492  -18.2093   20.2977 C   0  0  0  0  0  0  0  0  0  0  0  0
    9.5617  -16.8942   20.7694 C   0  0  2  0  0  0  0  0  0  0  0  0
    9.6511  -15.8785   19.7449 N   0  0  0  0  0  0  0  0  0  0  0  0
   10.1180  -16.4303   22.0563 C   0  0  0  0  0  0  0  0  0  0  0  0
   11.2666  -15.9240   22.1118 O   0  0  0  0  0  0  0  0  0  0  0  0
   10.9069  -14.1521   30.5309 O   0  0  0  0  0  0  0  0  0  0  0  0
   10.4088  -14.6352   29.3176 C   0  0  0  0  0  0  0  0  0  0  0  0
    9.9663  -13.7518   28.3614 C   0  0  0  0  0  0  0  0  0  0  0  0
    9.4665  -14.1729   27.1500 C   0  0  0  0  0  0  0  0  0  0  0  0
    9.4192  -15.5383   26.9130 C   0  0  0  0  0  0  0  0  0  0  0  0
    8.8796  -16.0054   25.5913 C   0  0  0  0  0  0  0  0  0  0  0  0
    9.9779  -16.0283   24.5291 C   0  0  2  0  0  0  0  0  0  0  0  0
    9.4200  -16.5182   23.2870 N   0  0  0  0  0  0  0  0  0  0  0  0
   11.0705  -16.8695   25.0315 C   0  0  0  0  0  0  0  0  0  0  0  0
   12.2289  -16.3711   25.6078 O   0  0  0  0  0  0  0  0  0  0  0  0
    9.8647  -16.4179   27.8764 C   0  0  0  0  0  0  0  0  0  0  0  0
   10.3692  -15.9871   29.0996 C   0  0  0  0  0  0  0  0  0  0  0  0
   10.9454  -18.1181   24.9317 O   0  0  0  0  0  0  0  0  0  0  0  0
  2  1  1  1
  2  5  1  0
  3  2  1  0
  3  4  1  0
  5  6  2  0
  7  8  1  0
  8  9  2  0
 10  8  1  0
 11 10  1  6
 11 13  1  0
 12 11  1  0
 12  5  1  0
 13 14  2  0
 15 16  1  0
 16 26  2  0
 17 18  2  0
 17 16  1  0
 18 19  1  0
 19 20  1  0
 19 25  2  0
 21 20  1  1
 21 23  1  0
 22 13  1  0
 22 21  1  0
 23 27  2  0
 23 24  1  0
 26 25  1  0
M  END
$$$$
