CNY.pdb
     RDKit          3D

 27 27  0  0  1  0  0  0  0  0999 V2000
    9.9782  -14.8111   17.1743 N   0  0  0  0  0  0  0  0  0  0  0  0
    8.8499  -14.4377   17.9994 C   0  0  1  0  0  0  0  0  0  0  0  0
    7.5920  -14.5910   17.1425 C   0  0  0  0  0  0  0  0  0  0  0  0
    7.6799  -13.4397   15.7632 S   0  0  0  0  0  0  0  0  0  0  0  0
    8.7393  -15.2813   19.2156 C   0  0  0  0  0  0  0  0  0  0  0  0
    7.7522  -15.0630   19.9693 O   0  0  0  0  0  0  0  0  0  0  0  0
   11.2972  -19.3334   18.5140 N   0  0  0  0  0  0  0  0  0  0  0  0
   10.3143  -19.2041   19.5300 C   0  0  0  0  0  0  0  0  0  0  0  0
    9.2822  -19.9116   19.4360 O   0  0  0  0  0  0  0  0  0  0  0  0
   10.5655  -18.2515   20.6271 C   0  0  0  0  0  0  0  0  0  0  0  0
    9.5697  -17.1095   20.6685 C   0  0  2  0  0  0  0  0  0  0  0  0
    9.6867  -16.2646   19.5016 N   0  0  0  0  0  0  0  0  0  0  0  0
    9.6216  -16.3300   21.9216 C   0  0  0  0  0  0  0  0  0  0  0  0
   10.7004  -15.8184   22.3129 O   0  0  0  0  0  0  0  0  0  0  0  0
    7.2584  -10.9634   28.4583 O   0  0  0  0  0  0  0  0  0  0  0  0
    7.2658  -11.8783   27.4016 C   0  0  0  0  0  0  0  0  0  0  0  0
    6.1123  -12.1073   26.6893 C   0  0  0  0  0  0  0  0  0  0  0  0
    6.0635  -12.9970   25.6400 C   0  0  0  0  0  0  0  0  0  0  0  0
    7.2305  -13.6705   25.3126 C   0  0  0  0  0  0  0  0  0  0  0  0
    7.1864  -14.6393   24.1656 C   0  0  0  0  0  0  0  0  0  0  0  0
    8.5562  -15.2756   23.9338 C   0  0  2  0  0  0  0  0  0  0  0  0
    8.4939  -16.1070   22.7511 N   0  0  0  0  0  0  0  0  0  0  0  0
    8.9100  -16.0314   25.1410 C   0  0  0  0  0  0  0  0  0  0  0  0
    9.7775  -15.5676   26.1181 O   0  0  0  0  0  0  0  0  0  0  0  0
    8.3831  -13.4355   26.0314 C   0  0  0  0  0  0  0  0  0  0  0  0
    8.4273  -12.5350   27.0913 C   0  0  0  0  0  0  0  0  0  0  0  0
    8.3930  -17.1686   25.2958 O   0  0  0  0  0  0  0  0  0  0  0  0
  2  1  1  6
  2  5  1  0
  3  2  1  0
  3  4  1  0
  5  6  2  0
  7  8  1  0
  8  9  2  0
 10  8  1  0
 11 10  1  1
 11 13  1  0
 12 11  1  0
 12  5  1  0
 13 14  2  0
 15 16  1  0
 16 26  2  0
 17 18  2  0
 17 16  1  0
 18 19  1  0
 19 20  1  0
 19 25  2  0
 21 20  1  1
 21 23  1  0
 22 13  1  0
 22 21  1  0
 23 27  2  0
 23 24  1  0
 26 25  1  0
M  END
$$$$
