CNY.pdb
     RDKit          3D

 27 27  0  0  1  0  0  0  0  0999 V2000
    7.0935  -15.2960   18.2296 N   0  0  0  0  0  0  0  0  0  0  0  0
    7.8908  -14.9260   19.3788 C   0  0  1  0  0  0  0  0  0  0  0  0
    7.8294  -13.4023   19.5008 C   0  0  0  0  0  0  0  0  0  0  0  0
    8.7192  -12.8975   20.9803 S   0  0  0  0  0  0  0  0  0  0  0  0
    7.3985  -15.5539   20.6303 C   0  0  0  0  0  0  0  0  0  0  0  0
    6.1489  -15.6702   20.7529 O   0  0  0  0  0  0  0  0  0  0  0  0
    6.1647  -19.7109   23.3316 N   0  0  0  0  0  0  0  0  0  0  0  0
    7.5149  -19.2745   23.2925 C   0  0  0  0  0  0  0  0  0  0  0  0
    8.2973  -19.7210   24.1662 O   0  0  0  0  0  0  0  0  0  0  0  0
    7.9125  -18.3287   22.2336 C   0  0  0  0  0  0  0  0  0  0  0  0
    7.8578  -16.8793   22.6736 C   0  0  2  0  0  0  0  0  0  0  0  0
    8.2835  -15.9903   21.6165 N   0  0  0  0  0  0  0  0  0  0  0  0
    8.5794  -16.6209   23.9358 C   0  0  0  0  0  0  0  0  0  0  0  0
    9.8252  -16.4573   23.9390 O   0  0  0  0  0  0  0  0  0  0  0  0
    6.2921  -10.4005   26.0549 O   0  0  0  0  0  0  0  0  0  0  0  0
    6.6688  -11.6986   26.4108 C   0  0  0  0  0  0  0  0  0  0  0  0
    5.8053  -12.7450   26.1880 C   0  0  0  0  0  0  0  0  0  0  0  0
    6.1252  -14.0423   26.5191 C   0  0  0  0  0  0  0  0  0  0  0  0
    7.3655  -14.2722   27.0950 C   0  0  0  0  0  0  0  0  0  0  0  0
    7.7238  -15.6859   27.4545 C   0  0  0  0  0  0  0  0  0  0  0  0
    8.6742  -16.2892   26.4212 C   0  0  2  0  0  0  0  0  0  0  0  0
    7.9412  -16.5405   25.1991 N   0  0  0  0  0  0  0  0  0  0  0  0
    9.2496  -17.5093   26.9992 C   0  0  0  0  0  0  0  0  0  0  0  0
   10.1948  -17.5141   28.0135 O   0  0  0  0  0  0  0  0  0  0  0  0
    8.2259  -13.2179   27.3152 C   0  0  0  0  0  0  0  0  0  0  0  0
    7.8978  -11.9082   26.9786 C   0  0  0  0  0  0  0  0  0  0  0  0
    8.8594  -18.6164   26.5446 O   0  0  0  0  0  0  0  0  0  0  0  0
  2  1  1  6
  2  5  1  0
  3  2  1  0
  3  4  1  0
  5  6  2  0
  7  8  1  0
  8  9  2  0
 10  8  1  0
 11 10  1  6
 11 13  1  0
 12 11  1  0
 12  5  1  0
 13 14  2  0
 15 16  1  0
 16 26  2  0
 17 18  2  0
 17 16  1  0
 18 19  1  0
 19 20  1  0
 19 25  2  0
 21 20  1  1
 21 23  1  0
 22 13  1  0
 22 21  1  0
 23 27  2  0
 23 24  1  0
 26 25  1  0
M  END
$$$$
