CNY.pdb
     RDKit          3D

 27 27  0  0  1  0  0  0  0  0999 V2000
    7.0391  -14.7891   19.0846 N   0  0  0  0  0  0  0  0  0  0  0  0
    7.8902  -14.3025   20.1486 C   0  0  1  0  0  0  0  0  0  0  0  0
    7.1429  -13.1606   20.8398 C   0  0  0  0  0  0  0  0  0  0  0  0
    8.1449  -12.5449   22.2008 S   0  0  0  0  0  0  0  0  0  0  0  0
    8.2188  -15.3620   21.1348 C   0  0  0  0  0  0  0  0  0  0  0  0
    7.2638  -16.0837   21.5310 O   0  0  0  0  0  0  0  0  0  0  0  0
   11.7955  -17.6237   19.6182 N   0  0  0  0  0  0  0  0  0  0  0  0
   10.8428  -17.9501   20.6188 C   0  0  0  0  0  0  0  0  0  0  0  0
    9.8753  -18.6773   20.2874 O   0  0  0  0  0  0  0  0  0  0  0  0
   11.0477  -17.4171   21.9782 C   0  0  0  0  0  0  0  0  0  0  0  0
    9.8658  -16.6204   22.4936 C   0  0  2  0  0  0  0  0  0  0  0  0
    9.5237  -15.5418   21.5943 N   0  0  0  0  0  0  0  0  0  0  0  0
   10.0367  -16.1478   23.8822 C   0  0  0  0  0  0  0  0  0  0  0  0
   10.9001  -15.2784   24.1608 O   0  0  0  0  0  0  0  0  0  0  0  0
    6.4692  -10.7628   25.9168 O   0  0  0  0  0  0  0  0  0  0  0  0
    6.9407  -12.0434   26.2192 C   0  0  0  0  0  0  0  0  0  0  0  0
    6.1834  -13.1438   25.8937 C   0  0  0  0  0  0  0  0  0  0  0  0
    6.5994  -14.4269   26.1685 C   0  0  0  0  0  0  0  0  0  0  0  0
    7.8264  -14.5853   26.7946 C   0  0  0  0  0  0  0  0  0  0  0  0
    8.2895  -15.9826   27.0933 C   0  0  0  0  0  0  0  0  0  0  0  0
    9.5832  -16.3020   26.3452 C   0  0  2  0  0  0  0  0  0  0  0  0
    9.2639  -16.6240   24.9710 N   0  0  0  0  0  0  0  0  0  0  0  0
   10.2467  -17.4064   27.0477 C   0  0  0  0  0  0  0  0  0  0  0  0
   10.4808  -18.6520   26.4854 O   0  0  0  0  0  0  0  0  0  0  0  0
    8.5801  -13.4772   27.1178 C   0  0  0  0  0  0  0  0  0  0  0  0
    8.1551  -12.1821   26.8379 C   0  0  0  0  0  0  0  0  0  0  0  0
   10.6250  -17.2079   28.2318 O   0  0  0  0  0  0  0  0  0  0  0  0
  2  1  1  6
  2  5  1  0
  3  2  1  0
  3  4  1  0
  5  6  2  0
  7  8  1  0
  8  9  2  0
 10  8  1  0
 11 10  1  6
 11 13  1  0
 12 11  1  0
 12  5  1  0
 13 14  2  0
 15 16  1  0
 16 26  2  0
 17 18  2  0
 17 16  1  0
 18 19  1  0
 19 20  1  0
 19 25  2  0
 21 20  1  1
 21 23  1  0
 22 13  1  0
 22 21  1  0
 23 27  2  0
 23 24  1  0
 26 25  1  0
M  END
$$$$
