AMA.pdb
     RDKit          3D

 19 18  0  0  1  0  0  0  0  0999 V2000
    8.5671  -14.5844   19.1418 C   0  0  0  0  0  0  0  0  0  0  0  0
    8.2207  -15.6556   20.1627 C   0  0  2  0  0  0  0  0  0  0  0  0
    6.7741  -15.7616   20.1914 N   0  0  0  0  0  0  0  0  0  0  0  0
    8.7287  -15.2218   21.4689 C   0  0  0  0  0  0  0  0  0  0  0  0
    9.9791  -15.1382   21.6563 O   0  0  0  0  0  0  0  0  0  0  0  0
    5.5472  -12.3675   26.9568 C   0  0  0  0  0  0  0  0  0  0  0  0
    7.2791  -11.9158   26.7422 S   0  0  0  0  0  0  0  0  0  0  0  0
    8.1480  -13.3205   25.9962 C   0  0  0  0  0  0  0  0  0  0  0  0
    7.5190  -13.6231   24.6570 C   0  0  0  0  0  0  0  0  0  0  0  0
    8.4161  -14.5308   23.8718 C   0  0  2  0  0  0  0  0  0  0  0  0
    7.9062  -14.8772   22.5749 N   0  0  0  0  0  0  0  0  0  0  0  0
    8.5897  -15.7828   24.6558 C   0  0  0  0  0  0  0  0  0  0  0  0
    7.5667  -16.4762   24.8994 O   0  0  0  0  0  0  0  0  0  0  0  0
   10.9204  -18.4081   24.9415 C   0  0  0  0  0  0  0  0  0  0  0  0
   10.0372  -17.5253   25.7697 C   0  0  2  0  0  0  0  0  0  0  0  0
    9.8538  -16.2139   25.1307 N   0  0  0  0  0  0  0  0  0  0  0  0
   10.6220  -17.2619   27.1156 C   0  0  0  0  0  0  0  0  0  0  0  0
   10.7379  -18.3390   27.9704 O   0  0  0  0  0  0  0  0  0  0  0  0
   11.0012  -16.1195   27.4828 O   0  0  0  0  0  0  0  0  0  0  0  0
  2  1  1  6
  3  2  1  0
  4  2  1  0
  5  4  2  0
  7  6  1  0
  7  8  1  0
  8  9  1  0
 10  9  1  1
 10 12  1  0
 10 11  1  0
 11  4  1  0
 12 16  1  0
 13 12  2  0
 15 17  1  0
 15 14  1  6
 16 15  1  0
 17 19  2  0
 17 18  1  0
M  END
$$$$
