AMA.pdb
     RDKit          3D

 19 18  0  0  1  0  0  0  0  0999 V2000
    9.1696  -17.9873   20.8153 C   0  0  0  0  0  0  0  0  0  0  0  0
    8.8683  -16.5031   20.6893 C   0  0  2  0  0  0  0  0  0  0  0  0
    9.7874  -15.9664   19.7035 N   0  0  0  0  0  0  0  0  0  0  0  0
    9.0975  -15.8787   21.9969 C   0  0  0  0  0  0  0  0  0  0  0  0
   10.2838  -15.6652   22.3876 O   0  0  0  0  0  0  0  0  0  0  0  0
    6.5564  -11.0566   27.5362 C   0  0  0  0  0  0  0  0  0  0  0  0
    6.1614  -12.0404   26.0782 S   0  0  0  0  0  0  0  0  0  0  0  0
    7.4011  -13.3531   25.9213 C   0  0  0  0  0  0  0  0  0  0  0  0
    7.0429  -14.2184   24.7366 C   0  0  0  0  0  0  0  0  0  0  0  0
    8.2933  -14.7372   24.0943 C   0  0  2  0  0  0  0  0  0  0  0  0
    8.0647  -15.4819   22.8881 N   0  0  0  0  0  0  0  0  0  0  0  0
    8.9675  -15.6300   25.0744 C   0  0  0  0  0  0  0  0  0  0  0  0
    9.1997  -15.1771   26.2267 O   0  0  0  0  0  0  0  0  0  0  0  0
    9.6833  -19.2923   25.4063 C   0  0  0  0  0  0  0  0  0  0  0  0
    9.9354  -17.8582   25.7601 C   0  0  2  0  0  0  0  0  0  0  0  0
    9.3515  -16.9568   24.7561 N   0  0  0  0  0  0  0  0  0  0  0  0
   11.3927  -17.5477   25.8109 C   0  0  0  0  0  0  0  0  0  0  0  0
   12.1472  -18.2312   26.7424 O   0  0  0  0  0  0  0  0  0  0  0  0
   11.9374  -16.7052   25.0512 O   0  0  0  0  0  0  0  0  0  0  0  0
  2  1  1  1
  3  2  1  0
  4  2  1  0
  5  4  2  0
  7  6  1  0
  7  8  1  0
  8  9  1  0
 10  9  1  1
 10 12  1  0
 10 11  1  0
 11  4  1  0
 12 16  1  0
 13 12  2  0
 15 17  1  0
 15 14  1  6
 16 15  1  0
 17 19  2  0
 17 18  1  0
M  END
$$$$
