AMA.pdb
     RDKit          3D

 19 18  0  0  1  0  0  0  0  0999 V2000
    7.6652  -12.6595   19.6747 C   0  0  0  0  0  0  0  0  0  0  0  0
    7.8039  -14.1003   20.1379 C   0  0  2  0  0  0  0  0  0  0  0  0
    6.4689  -14.6674   20.1639 N   0  0  0  0  0  0  0  0  0  0  0  0
    8.3833  -14.0920   21.4857 C   0  0  0  0  0  0  0  0  0  0  0  0
    9.5977  -13.7655   21.6414 O   0  0  0  0  0  0  0  0  0  0  0  0
    7.4411  -11.4353   27.5536 C   0  0  0  0  0  0  0  0  0  0  0  0
    6.1316  -12.0874   26.5002 S   0  0  0  0  0  0  0  0  0  0  0  0
    6.8718  -12.6278   24.9365 C   0  0  0  0  0  0  0  0  0  0  0  0
    7.2881  -14.0732   25.0718 C   0  0  0  0  0  0  0  0  0  0  0  0
    8.2521  -14.4248   23.9800 C   0  0  2  0  0  0  0  0  0  0  0  0
    7.6706  -14.4311   22.6670 N   0  0  0  0  0  0  0  0  0  0  0  0
    8.7796  -15.7861   24.2643 C   0  0  0  0  0  0  0  0  0  0  0  0
    7.9589  -16.7401   24.3196 O   0  0  0  0  0  0  0  0  0  0  0  0
   12.0427  -17.5463   24.0630 C   0  0  0  0  0  0  0  0  0  0  0  0
   10.6776  -17.4017   24.6637 C   0  0  2  0  0  0  0  0  0  0  0  0
   10.1587  -16.0395   24.4720 N   0  0  0  0  0  0  0  0  0  0  0  0
   10.6902  -17.6466   26.1342 C   0  0  0  0  0  0  0  0  0  0  0  0
   11.1083  -18.8912   26.5589 O   0  0  0  0  0  0  0  0  0  0  0  0
   10.3407  -16.7765   26.9735 O   0  0  0  0  0  0  0  0  0  0  0  0
  2  1  1  1
  3  2  1  0
  4  2  1  0
  5  4  2  0
  7  6  1  0
  7  8  1  0
  8  9  1  0
 10  9  1  1
 10 12  1  0
 10 11  1  0
 11  4  1  0
 12 16  1  0
 13 12  2  0
 15 17  1  0
 15 14  1  1
 16 15  1  0
 17 19  2  0
 17 18  1  0
M  END
$$$$
