AMA.pdb
     RDKit          3D

 19 18  0  0  1  0  0  0  0  0999 V2000
    7.2561  -17.1802   20.2117 C   0  0  0  0  0  0  0  0  0  0  0  0
    7.5074  -15.6839   20.2988 C   0  0  2  0  0  0  0  0  0  0  0  0
    8.4167  -15.3435   19.2209 N   0  0  0  0  0  0  0  0  0  0  0  0
    8.1250  -15.4003   21.5989 C   0  0  0  0  0  0  0  0  0  0  0  0
    9.3660  -15.6012   21.7580 O   0  0  0  0  0  0  0  0  0  0  0  0
    5.9514  -11.5431   26.9355 C   0  0  0  0  0  0  0  0  0  0  0  0
    7.6958  -11.8729   26.6223 S   0  0  0  0  0  0  0  0  0  0  0  0
    7.8855  -13.6355   26.2456 C   0  0  0  0  0  0  0  0  0  0  0  0
    7.1273  -13.9438   24.9764 C   0  0  0  0  0  0  0  0  0  0  0  0
    8.0490  -14.5772   23.9793 C   0  0  2  0  0  0  0  0  0  0  0  0
    7.4222  -14.9031   22.7291 N   0  0  0  0  0  0  0  0  0  0  0  0
    8.5721  -15.8326   24.5814 C   0  0  0  0  0  0  0  0  0  0  0  0
    7.7758  -16.7981   24.7241 O   0  0  0  0  0  0  0  0  0  0  0  0
   11.8400  -17.4909   25.0526 C   0  0  0  0  0  0  0  0  0  0  0  0
   10.4407  -17.2417   25.5274 C   0  0  2  0  0  0  0  0  0  0  0  0
    9.9208  -15.9740   24.9942 N   0  0  0  0  0  0  0  0  0  0  0  0
   10.3697  -17.1366   27.0129 C   0  0  0  0  0  0  0  0  0  0  0  0
   10.7179  -18.2578   27.7380 O   0  0  0  0  0  0  0  0  0  0  0  0
   10.0120  -16.0859   27.6059 O   0  0  0  0  0  0  0  0  0  0  0  0
  2  1  1  1
  3  2  1  0
  4  2  1  0
  5  4  2  0
  7  6  1  0
  7  8  1  0
  8  9  1  0
 10  9  1  1
 10 12  1  0
 10 11  1  0
 11  4  1  0
 12 16  1  0
 13 12  2  0
 15 17  1  0
 15 14  1  1
 16 15  1  0
 17 19  2  0
 17 18  1  0
M  END
$$$$
