AMA.pdb
     RDKit          3D

 19 18  0  0  1  0  0  0  0  0999 V2000
    7.6367  -13.9368   19.2083 C   0  0  0  0  0  0  0  0  0  0  0  0
    7.8520  -15.2208   19.9924 C   0  0  2  0  0  0  0  0  0  0  0  0
    6.5562  -15.8600   20.1227 N   0  0  0  0  0  0  0  0  0  0  0  0
    8.3829  -14.8650   21.3129 C   0  0  0  0  0  0  0  0  0  0  0  0
    9.5762  -14.4513   21.4155 O   0  0  0  0  0  0  0  0  0  0  0  0
    7.3114  -11.6458   28.2841 C   0  0  0  0  0  0  0  0  0  0  0  0
    6.5077  -12.3488   26.8317 S   0  0  0  0  0  0  0  0  0  0  0  0
    7.7270  -13.3381   25.9265 C   0  0  0  0  0  0  0  0  0  0  0  0
    7.0951  -13.8339   24.6475 C   0  0  0  0  0  0  0  0  0  0  0  0
    8.1355  -14.4907   23.7924 C   0  0  2  0  0  0  0  0  0  0  0  0
    7.6442  -14.9494   22.5235 N   0  0  0  0  0  0  0  0  0  0  0  0
    8.6616  -15.6629   24.5416 C   0  0  0  0  0  0  0  0  0  0  0  0
    7.8445  -16.5512   24.9023 O   0  0  0  0  0  0  0  0  0  0  0  0
   12.0172  -17.2346   25.0294 C   0  0  0  0  0  0  0  0  0  0  0  0
   10.5771  -17.0617   25.4057 C   0  0  2  0  0  0  0  0  0  0  0  0
   10.0356  -15.8093   24.8581 N   0  0  0  0  0  0  0  0  0  0  0  0
   10.3950  -16.9908   26.8837 C   0  0  0  0  0  0  0  0  0  0  0  0
   10.6953  -18.1266   27.6075 O   0  0  0  0  0  0  0  0  0  0  0  0
    9.9875  -15.9555   27.4718 O   0  0  0  0  0  0  0  0  0  0  0  0
  2  1  1  6
  3  2  1  0
  4  2  1  0
  5  4  2  0
  7  6  1  0
  7  8  1  0
  8  9  1  0
 10  9  1  1
 10 12  1  0
 10 11  1  0
 11  4  1  0
 12 16  1  0
 13 12  2  0
 15 17  1  0
 15 14  1  1
 16 15  1  0
 17 19  2  0
 17 18  1  0
M  END
$$$$
