AMA.pdb
     RDKit          3D

 19 18  0  0  1  0  0  0  0  0999 V2000
    7.5445  -17.3631   19.9617 C   0  0  0  0  0  0  0  0  0  0  0  0
    7.8014  -15.8655   19.9877 C   0  0  2  0  0  0  0  0  0  0  0  0
    8.8178  -15.5925   18.9893 N   0  0  0  0  0  0  0  0  0  0  0  0
    8.2884  -15.5096   21.3251 C   0  0  0  0  0  0  0  0  0  0  0  0
    9.5154  -15.6600   21.6034 O   0  0  0  0  0  0  0  0  0  0  0  0
    7.2939  -11.5084   28.0143 C   0  0  0  0  0  0  0  0  0  0  0  0
    6.4286  -12.3191   26.6565 S   0  0  0  0  0  0  0  0  0  0  0  0
    7.6222  -13.3293   25.7402 C   0  0  0  0  0  0  0  0  0  0  0  0
    6.9714  -13.8107   24.4652 C   0  0  0  0  0  0  0  0  0  0  0  0
    7.9762  -14.5471   23.6328 C   0  0  2  0  0  0  0  0  0  0  0  0
    7.4698  -14.9941   22.3656 N   0  0  0  0  0  0  0  0  0  0  0  0
    8.4177  -15.7382   24.4064 C   0  0  0  0  0  0  0  0  0  0  0  0
    7.5690  -16.6380   24.6449 O   0  0  0  0  0  0  0  0  0  0  0  0
   11.6307  -17.4370   25.0836 C   0  0  0  0  0  0  0  0  0  0  0  0
   10.2165  -17.1442   25.4833 C   0  0  2  0  0  0  0  0  0  0  0  0
    9.7460  -15.8900   24.8773 N   0  0  0  0  0  0  0  0  0  0  0  0
   10.0803  -16.9784   26.9586 C   0  0  0  0  0  0  0  0  0  0  0  0
    9.5997  -15.7667   27.4114 O   0  0  0  0  0  0  0  0  0  0  0  0
   10.3821  -17.8849   27.7776 O   0  0  0  0  0  0  0  0  0  0  0  0
  2  1  1  1
  3  2  1  0
  4  2  1  0
  5  4  2  0
  7  6  1  0
  7  8  1  0
  8  9  1  0
 10  9  1  1
 10 12  1  0
 10 11  1  0
 11  4  1  0
 12 16  1  0
 13 12  2  0
 15 17  1  0
 15 14  1  1
 16 15  1  0
 17 19  2  0
 17 18  1  0
M  END
$$$$
