AMA.pdb
     RDKit          3D

 19 18  0  0  1  0  0  0  0  0999 V2000
    7.5189  -15.0132   19.2662 C   0  0  0  0  0  0  0  0  0  0  0  0
    7.5038  -13.6366   19.9097 C   0  0  2  0  0  0  0  0  0  0  0  0
    8.3898  -12.7941   19.1289 N   0  0  0  0  0  0  0  0  0  0  0  0
    8.0019  -13.7699   21.2832 C   0  0  0  0  0  0  0  0  0  0  0  0
    9.2498  -13.8455   21.4903 O   0  0  0  0  0  0  0  0  0  0  0  0
    7.1335  -10.7819   27.3007 C   0  0  0  0  0  0  0  0  0  0  0  0
    6.3677  -12.4138   27.2860 S   0  0  0  0  0  0  0  0  0  0  0  0
    7.3264  -13.4851   26.1824 C   0  0  0  0  0  0  0  0  0  0  0  0
    6.6711  -13.4891   24.8218 C   0  0  0  0  0  0  0  0  0  0  0  0
    7.6753  -13.8765   23.7794 C   0  0  2  0  0  0  0  0  0  0  0  0
    7.1725  -13.8227   22.4354 N   0  0  0  0  0  0  0  0  0  0  0  0
    8.1046  -15.2722   24.0625 C   0  0  0  0  0  0  0  0  0  0  0  0
    7.2654  -16.1962   23.8935 O   0  0  0  0  0  0  0  0  0  0  0  0
   11.1380  -17.2451   23.9937 C   0  0  0  0  0  0  0  0  0  0  0  0
    9.8477  -16.9801   24.7080 C   0  0  2  0  0  0  0  0  0  0  0  0
    9.4113  -15.5901   24.5105 N   0  0  0  0  0  0  0  0  0  0  0  0
    9.9783  -17.1774   26.1800 C   0  0  0  0  0  0  0  0  0  0  0  0
    9.6586  -16.1047   26.9870 O   0  0  0  0  0  0  0  0  0  0  0  0
   10.3603  -18.2618   26.6916 O   0  0  0  0  0  0  0  0  0  0  0  0
  2  1  1  6
  3  2  1  0
  4  2  1  0
  5  4  2  0
  7  6  1  0
  7  8  1  0
  8  9  1  0
 10  9  1  1
 10 12  1  0
 10 11  1  0
 11  4  1  0
 12 16  1  0
 13 12  2  0
 15 17  1  0
 15 14  1  6
 16 15  1  0
 17 19  2  0
 17 18  1  0
M  END
$$$$
