AMA.pdb
     RDKit          3D

 19 18  0  0  1  0  0  0  0  0999 V2000
    8.1036  -18.3187   20.2939 C   0  0  0  0  0  0  0  0  0  0  0  0
    8.0245  -16.8169   20.0750 C   0  0  2  0  0  0  0  0  0  0  0  0
    8.8920  -16.5058   18.9546 N   0  0  0  0  0  0  0  0  0  0  0  0
    8.5022  -16.1529   21.2928 C   0  0  0  0  0  0  0  0  0  0  0  0
    9.7468  -15.9947   21.4706 O   0  0  0  0  0  0  0  0  0  0  0  0
    7.2162  -11.6280   27.6031 C   0  0  0  0  0  0  0  0  0  0  0  0
    6.4367  -12.5656   26.2753 S   0  0  0  0  0  0  0  0  0  0  0  0
    7.7195  -13.5159   25.4173 C   0  0  0  0  0  0  0  0  0  0  0  0
    7.0923  -14.2223   24.2391 C   0  0  0  0  0  0  0  0  0  0  0  0
    8.1370  -15.0094   23.5083 C   0  0  2  0  0  0  0  0  0  0  0  0
    7.6558  -15.6574   22.3207 N   0  0  0  0  0  0  0  0  0  0  0  0
    8.6475  -16.0535   24.4365 C   0  0  0  0  0  0  0  0  0  0  0  0
    7.8625  -16.9772   24.7789 O   0  0  0  0  0  0  0  0  0  0  0  0
   12.0012  -17.3353   25.3837 C   0  0  0  0  0  0  0  0  0  0  0  0
   10.5372  -17.1878   25.6672 C   0  0  2  0  0  0  0  0  0  0  0  0
    9.9722  -16.0412   24.9408 N   0  0  0  0  0  0  0  0  0  0  0  0
   10.2746  -16.9430   27.1142 C   0  0  0  0  0  0  0  0  0  0  0  0
   10.6311  -17.9443   27.9942 O   0  0  0  0  0  0  0  0  0  0  0  0
    9.7527  -15.8810   27.5424 O   0  0  0  0  0  0  0  0  0  0  0  0
  2  1  1  1
  3  2  1  0
  4  2  1  0
  5  4  2  0
  7  6  1  0
  7  8  1  0
  8  9  1  0
 10  9  1  1
 10 12  1  0
 10 11  1  0
 11  4  1  0
 12 16  1  0
 13 12  2  0
 15 17  1  0
 15 14  1  1
 16 15  1  0
 17 19  2  0
 17 18  1  0
M  END
$$$$
