MVQ.pdb
     RDKit          3D

 25 24  0  0  1  0  0  0  0  0999 V2000
    6.7727  -20.5038   26.3053 C   0  0  0  0  0  0  0  0  0  0  0  0
    5.6030  -20.8002   24.9632 S   0  0  0  0  0  0  0  0  0  0  0  0
    5.6168  -19.4225   23.8037 C   0  0  0  0  0  0  0  0  0  0  0  0
    6.4761  -18.2933   24.3136 C   0  0  0  0  0  0  0  0  0  0  0  0
    6.3190  -17.0928   23.3855 C   0  0  2  0  0  0  0  0  0  0  0  0
    6.7840  -17.5181   22.0613 N   0  0  0  0  0  0  0  0  0  0  0  0
    7.1693  -15.9883   23.9068 C   0  0  0  0  0  0  0  0  0  0  0  0
    8.3633  -15.9297   23.5892 O   0  0  0  0  0  0  0  0  0  0  0  0
    7.3378  -12.1240   27.0530 C   0  0  0  0  0  0  0  0  0  0  0  0
    6.5437  -13.0403   26.1727 C   0  0  1  0  0  0  0  0  0  0  0  0
    6.0600  -12.2108   24.9921 C   0  0  0  0  0  0  0  0  0  0  0  0
    7.4081  -14.1291   25.6195 C   0  0  2  0  0  0  0  0  0  0  0  0
    6.6167  -15.0124   24.7592 N   0  0  0  0  0  0  0  0  0  0  0  0
    8.0758  -14.9918   26.6006 C   0  0  0  0  0  0  0  0  0  0  0  0
    7.3838  -15.9707   27.0714 O   0  0  0  0  0  0  0  0  0  0  0  0
   13.5011  -17.2220   24.8308 N   0  0  0  0  0  0  0  0  0  0  0  0
   12.8060  -17.3999   26.0428 C   0  0  0  0  0  0  0  0  0  0  0  0
   12.9215  -18.4661   26.6765 O   0  0  0  0  0  0  0  0  0  0  0  0
   11.9315  -16.3244   26.5777 C   0  0  0  0  0  0  0  0  0  0  0  0
   10.7249  -16.9127   27.2465 C   0  0  0  0  0  0  0  0  0  0  0  0
    9.9075  -15.9211   27.9958 C   0  0  2  0  0  0  0  0  0  0  0  0
    9.3742  -14.9005   27.0986 N   0  0  0  0  0  0  0  0  0  0  0  0
   10.7005  -15.2142   29.0203 C   0  0  0  0  0  0  0  0  0  0  0  0
   10.8144  -13.8041   29.0178 O   0  0  0  0  0  0  0  0  0  0  0  0
   11.3282  -15.7651   29.9584 O   0  0  0  0  0  0  0  0  0  0  0  0
  2  1  1  0
  3  4  1  0
  3  2  1  0
  4  5  1  0
  5  6  1  6
  7  8  2  0
  7  5  1  0
 10 12  1  0
 10  9  1  1
 11 10  1  0
 12 13  1  6
 13  7  1  0
 14 15  2  0
 14 12  1  0
 16 17  1  0
 17 18  2  0
 19 17  1  0
 19 20  1  0
 21 20  1  6
 21 22  1  0
 22 14  1  0
 23 21  1  0
 24 23  1  0
 25 23  2  0
M  END
$$$$
