MVQ.pdb
     RDKit          3D

 25 24  0  0  1  0  0  0  0  0999 V2000
    8.3053  -21.4119   19.2667 C   0  0  0  0  0  0  0  0  0  0  0  0
    9.1843  -21.3770   17.6908 S   0  0  0  0  0  0  0  0  0  0  0  0
    9.1537  -19.7175   16.9923 C   0  0  0  0  0  0  0  0  0  0  0  0
    9.5883  -18.6929   18.0098 C   0  0  0  0  0  0  0  0  0  0  0  0
    9.3565  -17.2976   17.4383 C   0  0  2  0  0  0  0  0  0  0  0  0
   10.3000  -17.1334   16.3276 N   0  0  0  0  0  0  0  0  0  0  0  0
    9.6356  -16.3042   18.5106 C   0  0  0  0  0  0  0  0  0  0  0  0
   10.7946  -15.9179   18.7040 O   0  0  0  0  0  0  0  0  0  0  0  0
    7.5611  -13.3734   21.9642 C   0  0  0  0  0  0  0  0  0  0  0  0
    7.4937  -14.1164   20.6647 C   0  0  1  0  0  0  0  0  0  0  0  0
    7.3643  -13.0731   19.5644 C   0  0  0  0  0  0  0  0  0  0  0  0
    8.7644  -14.8651   20.4125 C   0  0  2  0  0  0  0  0  0  0  0  0
    8.5835  -15.8052   19.3033 N   0  0  0  0  0  0  0  0  0  0  0  0
    9.2947  -15.6443   21.5368 C   0  0  0  0  0  0  0  0  0  0  0  0
    8.6394  -16.7043   21.8622 O   0  0  0  0  0  0  0  0  0  0  0  0
   15.4176  -17.4459   22.5859 N   0  0  0  0  0  0  0  0  0  0  0  0
   14.5305  -16.3564   22.6828 C   0  0  0  0  0  0  0  0  0  0  0  0
   14.9576  -15.2322   23.0078 O   0  0  0  0  0  0  0  0  0  0  0  0
   13.0825  -16.5329   22.4000 C   0  0  0  0  0  0  0  0  0  0  0  0
   12.2703  -16.2629   23.6316 C   0  0  0  0  0  0  0  0  0  0  0  0
   10.8008  -16.2900   23.4024 C   0  0  2  0  0  0  0  0  0  0  0  0
   10.4268  -15.3959   22.3107 N   0  0  0  0  0  0  0  0  0  0  0  0
   10.0487  -15.8460   24.5921 C   0  0  0  0  0  0  0  0  0  0  0  0
    9.3270  -14.6293   24.5935 O   0  0  0  0  0  0  0  0  0  0  0  0
    9.9741  -16.4731   25.6778 O   0  0  0  0  0  0  0  0  0  0  0  0
  2  1  1  0
  3  4  1  0
  3  2  1  0
  4  5  1  0
  5  6  1  6
  7  8  2  0
  7  5  1  0
 10 12  1  0
 10  9  1  1
 11 10  1  0
 12 13  1  6
 13  7  1  0
 14 15  2  0
 14 12  1  0
 16 17  1  0
 17 18  2  0
 19 17  1  0
 19 20  1  0
 21 20  1  1
 21 22  1  0
 22 14  1  0
 23 21  1  0
 24 23  1  0
 25 23  2  0
M  END
$$$$
