MVQ.pdb
     RDKit          3D

 25 24  0  0  1  0  0  0  0  0999 V2000
    7.3922  -10.8236   26.5449 C   0  0  0  0  0  0  0  0  0  0  0  0
    6.5378  -12.0188   27.5932 S   0  0  0  0  0  0  0  0  0  0  0  0
    5.7103  -13.2595   26.5839 C   0  0  0  0  0  0  0  0  0  0  0  0
    6.7033  -14.0343   25.7548 C   0  0  0  0  0  0  0  0  0  0  0  0
    5.9466  -15.0093   24.8582 C   0  0  2  0  0  0  0  0  0  0  0  0
    5.3819  -16.0398   25.7357 N   0  0  0  0  0  0  0  0  0  0  0  0
    6.9168  -15.6115   23.9039 C   0  0  0  0  0  0  0  0  0  0  0  0
    7.3585  -16.7480   24.1118 O   0  0  0  0  0  0  0  0  0  0  0  0
    9.1412  -15.0725   19.4795 C   0  0  0  0  0  0  0  0  0  0  0  0
    8.2593  -14.5161   20.5555 C   0  0  1  0  0  0  0  0  0  0  0  0
    6.8411  -14.5051   20.0039 C   0  0  0  0  0  0  0  0  0  0  0  0
    8.2563  -15.4087   21.7564 C   0  0  2  0  0  0  0  0  0  0  0  0
    7.3313  -14.8899   22.7673 N   0  0  0  0  0  0  0  0  0  0  0  0
    9.5460  -15.5980   22.4298 C   0  0  0  0  0  0  0  0  0  0  0  0
    9.9211  -14.6601   23.2288 O   0  0  0  0  0  0  0  0  0  0  0  0
   11.1545  -19.7583   26.1146 N   0  0  0  0  0  0  0  0  0  0  0  0
   12.3656  -19.0395   26.1268 C   0  0  0  0  0  0  0  0  0  0  0  0
   13.2412  -19.3084   26.9711 O   0  0  0  0  0  0  0  0  0  0  0  0
   12.6128  -17.9579   25.1385 C   0  0  0  0  0  0  0  0  0  0  0  0
   11.4217  -17.7810   24.2446 C   0  0  0  0  0  0  0  0  0  0  0  0
   11.6099  -16.7531   23.1860 C   0  0  2  0  0  0  0  0  0  0  0  0
   10.4328  -16.6681   22.3266 N   0  0  0  0  0  0  0  0  0  0  0  0
   12.7546  -17.0674   22.3091 C   0  0  0  0  0  0  0  0  0  0  0  0
   14.0720  -16.6858   22.6553 O   0  0  0  0  0  0  0  0  0  0  0  0
   12.6822  -17.6784   21.2141 O   0  0  0  0  0  0  0  0  0  0  0  0
  2  1  1  0
  3  4  1  0
  3  2  1  0
  4  5  1  0
  5  6  1  1
  7  8  2  0
  7  5  1  0
 10 12  1  0
 10  9  1  6
 11 10  1  0
 12 13  1  1
 13  7  1  0
 14 15  2  0
 14 12  1  0
 16 17  1  0
 17 18  2  0
 19 17  1  0
 19 20  1  0
 21 20  1  1
 21 22  1  0
 22 14  1  0
 23 21  1  0
 24 23  1  0
 25 23  2  0
M  END
$$$$
