MVQ.pdb
     RDKit          3D

 25 24  0  0  1  0  0  0  0  0999 V2000
    7.0855  -18.8424   20.9315 C   0  0  0  0  0  0  0  0  0  0  0  0
    6.1883  -17.9387   19.6525 S   0  0  0  0  0  0  0  0  0  0  0  0
    6.4039  -16.1642   19.8702 C   0  0  0  0  0  0  0  0  0  0  0  0
    7.0811  -15.8572   21.1820 C   0  0  0  0  0  0  0  0  0  0  0  0
    7.0311  -14.3521   21.4254 C   0  0  2  0  0  0  0  0  0  0  0  0
    7.6903  -13.7162   20.2801 N   0  0  0  0  0  0  0  0  0  0  0  0
    7.7726  -14.0599   22.6821 C   0  0  0  0  0  0  0  0  0  0  0  0
    9.0074  -13.9898   22.6649 O   0  0  0  0  0  0  0  0  0  0  0  0
    7.3586  -12.7934   27.4784 C   0  0  0  0  0  0  0  0  0  0  0  0
    6.7395  -12.9891   26.1280 C   0  0  1  0  0  0  0  0  0  0  0  0
    6.4190  -11.6050   25.5830 C   0  0  0  0  0  0  0  0  0  0  0  0
    7.7129  -13.6188   25.1820 C   0  0  2  0  0  0  0  0  0  0  0  0
    7.0710  -13.8636   23.8878 N   0  0  0  0  0  0  0  0  0  0  0  0
    8.2982  -14.8959   25.6049 C   0  0  0  0  0  0  0  0  0  0  0  0
    7.5291  -15.9276   25.5504 O   0  0  0  0  0  0  0  0  0  0  0  0
   12.0790  -18.4697   23.5383 N   0  0  0  0  0  0  0  0  0  0  0  0
   12.3107  -18.9371   24.8466 C   0  0  0  0  0  0  0  0  0  0  0  0
   12.8362  -20.0522   25.0257 O   0  0  0  0  0  0  0  0  0  0  0  0
   11.9338  -18.1109   26.0225 C   0  0  0  0  0  0  0  0  0  0  0  0
   11.2659  -16.8428   25.5810 C   0  0  0  0  0  0  0  0  0  0  0  0
   10.0298  -16.5162   26.3413 C   0  0  2  0  0  0  0  0  0  0  0  0
    9.5900  -15.1528   26.0607 N   0  0  0  0  0  0  0  0  0  0  0  0
   10.2397  -16.6035   27.7995 C   0  0  0  0  0  0  0  0  0  0  0  0
   10.2386  -17.8498   28.4688 O   0  0  0  0  0  0  0  0  0  0  0  0
   10.4325  -15.6255   28.5636 O   0  0  0  0  0  0  0  0  0  0  0  0
  2  1  1  0
  3  4  1  0
  3  2  1  0
  4  5  1  0
  5  6  1  6
  7  8  2  0
  7  5  1  0
 10 12  1  0
 10  9  1  1
 11 10  1  0
 12 13  1  6
 13  7  1  0
 14 15  2  0
 14 12  1  0
 16 17  1  0
 17 18  2  0
 19 17  1  0
 19 20  1  0
 21 20  1  6
 21 22  1  0
 22 14  1  0
 23 21  1  0
 24 23  1  0
 25 23  2  0
M  END
$$$$
