MVQ.pdb
     RDKit          3D

 25 24  0  0  1  0  0  0  0  0999 V2000
    8.6593  -11.4627   19.7258 C   0  0  0  0  0  0  0  0  0  0  0  0
    7.0441  -12.2625   19.6326 S   0  0  0  0  0  0  0  0  0  0  0  0
    6.9302  -13.5889   20.8452 C   0  0  0  0  0  0  0  0  0  0  0  0
    7.9646  -14.6541   20.5824 C   0  0  0  0  0  0  0  0  0  0  0  0
    7.8690  -15.7176   21.6720 C   0  0  2  0  0  0  0  0  0  0  0  0
    6.4445  -16.0219   21.8421 N   0  0  0  0  0  0  0  0  0  0  0  0
    8.4343  -15.1498   22.9260 C   0  0  0  0  0  0  0  0  0  0  0  0
    9.6310  -14.8411   22.9760 O   0  0  0  0  0  0  0  0  0  0  0  0
    7.4603  -13.0994   27.3120 C   0  0  0  0  0  0  0  0  0  0  0  0
    6.9820  -13.6861   26.0188 C   0  0  1  0  0  0  0  0  0  0  0  0
    6.6146  -12.5200   25.1127 C   0  0  0  0  0  0  0  0  0  0  0  0
    8.0796  -14.4419   25.3385 C   0  0  2  0  0  0  0  0  0  0  0  0
    7.6096  -14.9644   24.0529 N   0  0  0  0  0  0  0  0  0  0  0  0
    8.6366  -15.5830   26.0735 C   0  0  0  0  0  0  0  0  0  0  0  0
    7.8743  -16.6133   26.2002 O   0  0  0  0  0  0  0  0  0  0  0  0
   13.9179  -20.4102   26.9228 N   0  0  0  0  0  0  0  0  0  0  0  0
   13.3377  -19.1646   26.6140 C   0  0  0  0  0  0  0  0  0  0  0  0
   13.8617  -18.4288   25.7562 O   0  0  0  0  0  0  0  0  0  0  0  0
   12.1006  -18.7150   27.3033 C   0  0  0  0  0  0  0  0  0  0  0  0
   11.5371  -17.4988   26.6307 C   0  0  0  0  0  0  0  0  0  0  0  0
   10.3100  -16.9649   27.2801 C   0  0  2  0  0  0  0  0  0  0  0  0
    9.8948  -15.7108   26.6590 N   0  0  0  0  0  0  0  0  0  0  0  0
   10.5233  -16.6797   28.7124 C   0  0  0  0  0  0  0  0  0  0  0  0
   10.6900  -17.7235   29.6526 O   0  0  0  0  0  0  0  0  0  0  0  0
   10.5767  -15.5334   29.2228 O   0  0  0  0  0  0  0  0  0  0  0  0
  2  1  1  0
  3  4  1  0
  3  2  1  0
  4  5  1  0
  5  6  1  1
  7  8  2  0
  7  5  1  0
 10 12  1  0
 10  9  1  1
 11 10  1  0
 12 13  1  6
 13  7  1  0
 14 15  2  0
 14 12  1  0
 16 17  1  0
 17 18  2  0
 19 17  1  0
 19 20  1  0
 21 20  1  6
 21 22  1  0
 22 14  1  0
 23 21  1  0
 24 23  1  0
 25 23  2  0
M  END
$$$$
