MVQ.pdb
     RDKit          3D

 25 24  0  0  1  0  0  0  0  0999 V2000
    7.5783  -11.2904   26.5840 C   0  0  0  0  0  0  0  0  0  0  0  0
    6.0590  -11.8509   27.3809 S   0  0  0  0  0  0  0  0  0  0  0  0
    5.6410  -13.5148   26.8339 C   0  0  0  0  0  0  0  0  0  0  0  0
    6.7301  -14.0889   25.9632 C   0  0  0  0  0  0  0  0  0  0  0  0
    6.2466  -15.4088   25.3703 C   0  0  2  0  0  0  0  0  0  0  0  0
    6.0701  -16.3369   26.4920 N   0  0  0  0  0  0  0  0  0  0  0  0
    7.2928  -15.9102   24.4383 C   0  0  0  0  0  0  0  0  0  0  0  0
    7.8486  -16.9921   24.6630 O   0  0  0  0  0  0  0  0  0  0  0  0
    9.3643  -15.2825   19.9635 C   0  0  0  0  0  0  0  0  0  0  0  0
    8.4680  -14.7724   21.0505 C   0  0  1  0  0  0  0  0  0  0  0  0
    7.0372  -14.9426   20.5610 C   0  0  0  0  0  0  0  0  0  0  0  0
    8.6093  -15.5993   22.2895 C   0  0  2  0  0  0  0  0  0  0  0  0
    7.6494  -15.1555   23.3035 N   0  0  0  0  0  0  0  0  0  0  0  0
    9.9284  -15.5891   22.9318 C   0  0  0  0  0  0  0  0  0  0  0  0
   10.2815  -14.4905   23.5036 O   0  0  0  0  0  0  0  0  0  0  0  0
   12.5669  -19.4005   26.6429 N   0  0  0  0  0  0  0  0  0  0  0  0
   11.5708  -18.4291   26.8614 C   0  0  0  0  0  0  0  0  0  0  0  0
   10.8524  -18.4911   27.8772 O   0  0  0  0  0  0  0  0  0  0  0  0
   11.3655  -17.3246   25.8890 C   0  0  0  0  0  0  0  0  0  0  0  0
   12.3444  -17.4320   24.7579 C   0  0  0  0  0  0  0  0  0  0  0  0
   12.1434  -16.4179   23.6884 C   0  0  2  0  0  0  0  0  0  0  0  0
   10.8645  -16.6183   23.0136 N   0  0  0  0  0  0  0  0  0  0  0  0
   13.1890  -16.4968   22.6498 C   0  0  0  0  0  0  0  0  0  0  0  0
   14.5130  -16.0696   22.9060 O   0  0  0  0  0  0  0  0  0  0  0  0
   13.0205  -16.9315   21.4836 O   0  0  0  0  0  0  0  0  0  0  0  0
  2  1  1  0
  3  4  1  0
  3  2  1  0
  4  5  1  0
  5  6  1  1
  7  8  2  0
  7  5  1  0
 10 12  1  0
 10  9  1  6
 11 10  1  0
 12 13  1  1
 13  7  1  0
 14 15  2  0
 14 12  1  0
 16 17  1  0
 17 18  2  0
 19 17  1  0
 19 20  1  0
 21 20  1  1
 21 22  1  0
 22 14  1  0
 23 21  1  0
 24 23  1  0
 25 23  2  0
M  END
$$$$
