MVQ.pdb
     RDKit          3D

 25 24  0  0  1  0  0  0  0  0999 V2000
    7.6616  -11.1304   27.7380 C   0  0  0  0  0  0  0  0  0  0  0  0
    6.0579  -11.1650   26.9106 S   0  0  0  0  0  0  0  0  0  0  0  0
    5.5775  -12.8614   26.5448 C   0  0  0  0  0  0  0  0  0  0  0  0
    6.6909  -13.6020   25.8481 C   0  0  0  0  0  0  0  0  0  0  0  0
    6.1886  -14.9840   25.4417 C   0  0  2  0  0  0  0  0  0  0  0  0
    5.9477  -15.7282   26.6822 N   0  0  0  0  0  0  0  0  0  0  0  0
    7.2500  -15.6452   24.6348 C   0  0  0  0  0  0  0  0  0  0  0  0
    7.8097  -16.6593   25.0686 O   0  0  0  0  0  0  0  0  0  0  0  0
    9.4188  -15.8445   20.1662 C   0  0  0  0  0  0  0  0  0  0  0  0
    8.4906  -15.1513   21.1165 C   0  0  1  0  0  0  0  0  0  0  0  0
    7.0742  -15.4342   20.6375 C   0  0  0  0  0  0  0  0  0  0  0  0
    8.6114  -15.7252   22.4930 C   0  0  2  0  0  0  0  0  0  0  0  0
    7.6164  -15.1182   23.3809 N   0  0  0  0  0  0  0  0  0  0  0  0
    9.9118  -15.5649   23.1532 C   0  0  0  0  0  0  0  0  0  0  0  0
   10.3184  -14.3569   23.3379 O   0  0  0  0  0  0  0  0  0  0  0  0
   11.2921  -15.8975   29.0171 N   0  0  0  0  0  0  0  0  0  0  0  0
   11.0225  -16.7527   27.9310 C   0  0  0  0  0  0  0  0  0  0  0  0
   10.8734  -17.9746   28.1224 O   0  0  0  0  0  0  0  0  0  0  0  0
   10.9130  -16.2117   26.5516 C   0  0  0  0  0  0  0  0  0  0  0  0
   12.0268  -16.7330   25.6931 C   0  0  0  0  0  0  0  0  0  0  0  0
   12.0183  -16.1991   24.3047 C   0  0  2  0  0  0  0  0  0  0  0  0
   10.7793  -16.5517   23.6181 N   0  0  0  0  0  0  0  0  0  0  0  0
   13.1238  -16.7483   23.4957 C   0  0  0  0  0  0  0  0  0  0  0  0
   12.8748  -17.5906   22.3868 O   0  0  0  0  0  0  0  0  0  0  0  0
   14.3449  -16.5351   23.6978 O   0  0  0  0  0  0  0  0  0  0  0  0
  2  1  1  0
  3  4  1  0
  3  2  1  0
  4  5  1  0
  5  6  1  1
  7  8  2  0
  7  5  1  0
 10 12  1  0
 10  9  1  6
 11 10  1  0
 12 13  1  1
 13  7  1  0
 14 15  2  0
 14 12  1  0
 16 17  1  0
 17 18  2  0
 19 17  1  0
 19 20  1  0
 21 20  1  1
 21 22  1  0
 22 14  1  0
 23 21  1  0
 24 23  1  0
 25 23  2  0
M  END
$$$$
