VAH.pdb
     RDKit          3D

 23 23  0  0  1  0  0  0  0  0999 V2000
    8.7523  -13.3184   20.9995 C   0  0  0  0  0  0  0  0  0  0  0  0
    8.1900  -13.5864   19.6217 C   0  0  2  0  0  0  0  0  0  0  0  0
    7.5263  -12.3719   19.0441 C   0  0  0  0  0  0  0  0  0  0  0  0
    7.2316  -14.7765   19.6445 C   0  0  2  0  0  0  0  0  0  0  0  0
    6.1539  -14.5784   20.5605 N   0  0  0  0  0  0  0  0  0  0  0  0
    8.0568  -15.9828   20.0092 C   0  0  0  0  0  0  0  0  0  0  0  0
    8.0496  -16.4584   21.1723 O   0  0  0  0  0  0  0  0  0  0  0  0
   10.0054  -18.5442   17.9934 C   0  0  0  0  0  0  0  0  0  0  0  0
    9.5734  -17.8697   19.2816 C   0  0  2  0  0  0  0  0  0  0  0  0
    8.8811  -16.6395   19.0579 N   0  0  0  0  0  0  0  0  0  0  0  0
   10.7227  -17.7593   20.1888 C   0  0  0  0  0  0  0  0  0  0  0  0
   11.3920  -18.7989   20.4401 O   0  0  0  0  0  0  0  0  0  0  0  0
   11.1529  -16.5642   20.8177 N   0  0  0  0  0  0  0  0  0  0  0  0
   12.3336  -16.3653   21.5759 C   0  0  1  0  0  0  0  0  0  0  0  0
   13.1337  -15.1468   21.2662 C   0  0  0  0  0  0  0  0  0  0  0  0
   13.8470  -15.1614   19.9752 C   0  0  0  0  0  0  0  0  0  0  0  0
   14.1283  -16.1692   19.1155 C   0  0  0  0  0  0  0  0  0  0  0  0
   14.8283  -15.6570   18.0587 N   0  0  0  0  0  0  0  0  0  0  0  0
   14.9637  -14.3420   18.2908 C   0  0  0  0  0  0  0  0  0  0  0  0
   14.3713  -14.0285   19.4529 N   0  0  0  0  0  0  0  0  0  0  0  0
   12.0713  -16.3302   23.0516 C   0  0  0  0  0  0  0  0  0  0  0  0
   13.0278  -16.3284   24.0205 O   0  0  0  0  0  0  0  0  0  0  0  0
   10.8624  -16.3004   23.3938 O   0  0  0  0  0  0  0  0  0  0  0  0
  2  4  1  0
  2  1  1  1
  2  3  1  0
  4  5  1  1
  6  4  1  0
  6  7  2  0
  9  8  1  6
  9 10  1  0
  9 11  1  0
 10  6  1  0
 11 13  1  0
 12 11  2  0
 13 14  1  0
 14 21  1  0
 14 15  1  6
 16 15  1  0
 17 16  2  0
 18 17  1  0
 19 18  1  0
 19 20  2  0
 20 16  1  0
 21 23  2  0
 21 22  1  0
M  END
$$$$
