VAH.pdb
     RDKit          3D

 23 23  0  0  1  0  0  0  0  0999 V2000
    7.8095  -12.9420   20.9970 C   0  0  0  0  0  0  0  0  0  0  0  0
    8.7787  -13.3083   19.8957 C   0  0  2  0  0  0  0  0  0  0  0  0
    8.7504  -12.3135   18.7739 C   0  0  0  0  0  0  0  0  0  0  0  0
    8.5125  -14.7225   19.3815 C   0  0  2  0  0  0  0  0  0  0  0  0
    7.2316  -14.8337   18.7597 N   0  0  0  0  0  0  0  0  0  0  0  0
    8.6350  -15.6396   20.5701 C   0  0  0  0  0  0  0  0  0  0  0  0
    7.6487  -15.9035   21.3027 O   0  0  0  0  0  0  0  0  0  0  0  0
   11.3001  -18.0378   21.8010 C   0  0  0  0  0  0  0  0  0  0  0  0
   10.0454  -17.2022   21.9698 C   0  0  2  0  0  0  0  0  0  0  0  0
    9.8687  -16.2492   20.9194 N   0  0  0  0  0  0  0  0  0  0  0  0
   10.0164  -16.6250   23.3197 C   0  0  0  0  0  0  0  0  0  0  0  0
   10.6615  -15.5619   23.5328 O   0  0  0  0  0  0  0  0  0  0  0  0
    9.3135  -17.1690   24.4238 N   0  0  0  0  0  0  0  0  0  0  0  0
    9.2178  -16.6351   25.7331 C   0  0  1  0  0  0  0  0  0  0  0  0
    7.8517  -16.2957   26.2221 C   0  0  0  0  0  0  0  0  0  0  0  0
    7.3522  -14.9593   25.8476 C   0  0  0  0  0  0  0  0  0  0  0  0
    7.9667  -13.9000   25.2698 C   0  0  0  0  0  0  0  0  0  0  0  0
    7.0593  -12.8849   25.1460 N   0  0  0  0  0  0  0  0  0  0  0  0
    5.9029  -13.3418   25.6516 C   0  0  0  0  0  0  0  0  0  0  0  0
    6.0682  -14.6017   26.0814 N   0  0  0  0  0  0  0  0  0  0  0  0
    9.8212  -17.5365   26.7680 C   0  0  0  0  0  0  0  0  0  0  0  0
   10.0588  -17.1965   28.0649 O   0  0  0  0  0  0  0  0  0  0  0  0
   10.1226  -18.6933   26.3802 O   0  0  0  0  0  0  0  0  0  0  0  0
  2  4  1  0
  2  1  1  1
  2  3  1  0
  4  5  1  1
  6  4  1  0
  6  7  2  0
  9  8  1  6
  9 10  1  0
  9 11  1  0
 10  6  1  0
 11 13  1  0
 12 11  2  0
 13 14  1  0
 14 21  1  0
 14 15  1  1
 16 15  1  0
 17 16  2  0
 18 17  1  0
 19 18  1  0
 19 20  2  0
 20 16  1  0
 21 23  2  0
 21 22  1  0
M  END
$$$$
