VAH.pdb
     RDKit          3D

 23 23  0  0  1  0  0  0  0  0999 V2000
    7.5419  -15.1084   17.2683 C   0  0  0  0  0  0  0  0  0  0  0  0
    8.0795  -15.1818   18.6796 C   0  0  2  0  0  0  0  0  0  0  0  0
    7.5429  -16.3705   19.4199 C   0  0  0  0  0  0  0  0  0  0  0  0
    7.7951  -13.8875   19.4408 C   0  0  2  0  0  0  0  0  0  0  0  0
    8.2774  -12.7389   18.7425 N   0  0  0  0  0  0  0  0  0  0  0  0
    8.4486  -14.0329   20.7902 C   0  0  0  0  0  0  0  0  0  0  0  0
    9.6985  -14.0328   20.9201 O   0  0  0  0  0  0  0  0  0  0  0  0
    7.2505  -14.0241   24.3895 C   0  0  0  0  0  0  0  0  0  0  0  0
    8.2291  -14.3757   23.2850 C   0  0  2  0  0  0  0  0  0  0  0  0
    7.6851  -14.1767   21.9785 N   0  0  0  0  0  0  0  0  0  0  0  0
    8.7687  -15.7218   23.5157 C   0  0  0  0  0  0  0  0  0  0  0  0
    8.0834  -16.7152   23.1476 O   0  0  0  0  0  0  0  0  0  0  0  0
   10.0152  -16.0065   24.1272 N   0  0  0  0  0  0  0  0  0  0  0  0
   10.5426  -17.2796   24.4584 C   0  0  1  0  0  0  0  0  0  0  0  0
   11.8480  -17.6474   23.8408 C   0  0  0  0  0  0  0  0  0  0  0  0
   11.8526  -17.7501   22.3693 C   0  0  0  0  0  0  0  0  0  0  0  0
   10.8962  -18.1381   21.4927 C   0  0  0  0  0  0  0  0  0  0  0  0
   11.4101  -18.0659   20.2279 N   0  0  0  0  0  0  0  0  0  0  0  0
   12.6748  -17.6343   20.3529 C   0  0  0  0  0  0  0  0  0  0  0  0
   12.9558  -17.4388   21.6499 N   0  0  0  0  0  0  0  0  0  0  0  0
   10.7112  -17.4662   25.9364 C   0  0  0  0  0  0  0  0  0  0  0  0
   11.0554  -18.6332   26.5474 O   0  0  0  0  0  0  0  0  0  0  0  0
   10.5127  -16.4472   26.6447 O   0  0  0  0  0  0  0  0  0  0  0  0
  2  4  1  0
  2  1  1  6
  2  3  1  0
  4  5  1  6
  6  4  1  0
  6  7  2  0
  9  8  1  1
  9 10  1  0
  9 11  1  0
 10  6  1  0
 11 13  1  0
 12 11  2  0
 13 14  1  0
 14 21  1  0
 14 15  1  6
 16 15  1  0
 17 16  2  0
 18 17  1  0
 19 18  1  0
 19 20  2  0
 20 16  1  0
 21 23  2  0
 21 22  1  0
M  END
$$$$
