VAH.pdb
     RDKit          3D

 23 23  0  0  1  0  0  0  0  0999 V2000
    7.3520  -12.0572   27.1968 C   0  0  0  0  0  0  0  0  0  0  0  0
    7.6474  -13.1756   26.2230 C   0  0  2  0  0  0  0  0  0  0  0  0
    8.6564  -12.7658   25.1920 C   0  0  0  0  0  0  0  0  0  0  0  0
    6.3640  -13.6798   25.5642 C   0  0  2  0  0  0  0  0  0  0  0  0
    5.4205  -14.1558   26.5249 N   0  0  0  0  0  0  0  0  0  0  0  0
    6.7746  -14.7649   24.6034 C   0  0  0  0  0  0  0  0  0  0  0  0
    6.9005  -15.9591   24.9734 O   0  0  0  0  0  0  0  0  0  0  0  0
    7.1213  -14.9581   20.8272 C   0  0  0  0  0  0  0  0  0  0  0  0
    7.3156  -15.4774   22.2392 C   0  0  2  0  0  0  0  0  0  0  0  0
    7.0385  -14.4909   23.2356 N   0  0  0  0  0  0  0  0  0  0  0  0
    8.6408  -16.0988   22.3570 C   0  0  0  0  0  0  0  0  0  0  0  0
    8.9389  -17.0337   21.5638 O   0  0  0  0  0  0  0  0  0  0  0  0
    9.6318  -15.7324   23.3017 N   0  0  0  0  0  0  0  0  0  0  0  0
   10.9105  -16.3166   23.4809 C   0  0  1  0  0  0  0  0  0  0  0  0
   12.0851  -15.5086   23.0470 C   0  0  0  0  0  0  0  0  0  0  0  0
   12.1729  -15.2339   21.6004 C   0  0  0  0  0  0  0  0  0  0  0  0
   11.5704  -15.8169   20.5370 C   0  0  0  0  0  0  0  0  0  0  0  0
   12.0007  -15.1949   19.3981 N   0  0  0  0  0  0  0  0  0  0  0  0
   12.8611  -14.2402   19.7853 C   0  0  0  0  0  0  0  0  0  0  0  0
   12.9742  -14.2539   21.1219 N   0  0  0  0  0  0  0  0  0  0  0  0
   11.1720  -16.7043   24.9053 C   0  0  0  0  0  0  0  0  0  0  0  0
   12.2696  -17.3772   25.3483 O   0  0  0  0  0  0  0  0  0  0  0  0
   10.2909  -16.3689   25.7363 O   0  0  0  0  0  0  0  0  0  0  0  0
  2  4  1  0
  2  1  1  1
  2  3  1  0
  4  5  1  1
  6  4  1  0
  6  7  2  0
  9  8  1  6
  9 10  1  0
  9 11  1  0
 10  6  1  0
 11 13  1  0
 12 11  2  0
 13 14  1  0
 14 21  1  0
 14 15  1  1
 16 15  1  0
 17 16  2  0
 18 17  1  0
 19 18  1  0
 19 20  2  0
 20 16  1  0
 21 23  2  0
 21 22  1  0
M  END
$$$$
