VAH.pdb
     RDKit          3D

 23 23  0  0  1  0  0  0  0  0999 V2000
    7.8960  -12.8166   20.7252 C   0  0  0  0  0  0  0  0  0  0  0  0
    9.0520  -13.1520   19.8100 C   0  0  2  0  0  0  0  0  0  0  0  0
    9.2746  -12.0862   18.7788 C   0  0  0  0  0  0  0  0  0  0  0  0
    8.8510  -14.5171   19.1533 C   0  0  2  0  0  0  0  0  0  0  0  0
    7.8005  -14.4963   18.1860 N   0  0  0  0  0  0  0  0  0  0  0  0
    8.5617  -15.4888   20.2674 C   0  0  0  0  0  0  0  0  0  0  0  0
    7.6368  -16.3349   20.1797 O   0  0  0  0  0  0  0  0  0  0  0  0
   10.0931  -17.8238   21.5425 C   0  0  0  0  0  0  0  0  0  0  0  0
    9.5274  -16.6382   22.3012 C   0  0  2  0  0  0  0  0  0  0  0  0
    9.3190  -15.4956   21.4683 N   0  0  0  0  0  0  0  0  0  0  0  0
   10.3492  -16.3771   23.4898 C   0  0  0  0  0  0  0  0  0  0  0  0
   11.4524  -16.9789   23.6018 O   0  0  0  0  0  0  0  0  0  0  0  0
   10.0037  -15.4913   24.5409 N   0  0  0  0  0  0  0  0  0  0  0  0
    9.5168  -15.8290   25.8284 C   0  0  1  0  0  0  0  0  0  0  0  0
    8.0426  -15.7505   26.0311 C   0  0  0  0  0  0  0  0  0  0  0  0
    7.4356  -14.4255   25.8037 C   0  0  0  0  0  0  0  0  0  0  0  0
    7.9823  -13.2318   25.4720 C   0  0  0  0  0  0  0  0  0  0  0  0
    6.9827  -12.3026   25.3920 N   0  0  0  0  0  0  0  0  0  0  0  0
    5.8393  -12.9452   25.6770 C   0  0  0  0  0  0  0  0  0  0  0  0
    6.1015  -14.2364   25.9292 N   0  0  0  0  0  0  0  0  0  0  0  0
    9.9256  -17.2067   26.2554 C   0  0  0  0  0  0  0  0  0  0  0  0
    9.7625  -18.3395   25.5177 O   0  0  0  0  0  0  0  0  0  0  0  0
   10.4592  -17.2943   27.3899 O   0  0  0  0  0  0  0  0  0  0  0  0
  2  4  1  0
  2  1  1  6
  2  3  1  0
  4  5  1  6
  6  4  1  0
  6  7  2  0
  9  8  1  6
  9 10  1  0
  9 11  1  0
 10  6  1  0
 11 13  1  0
 12 11  2  0
 13 14  1  0
 14 21  1  0
 14 15  1  6
 16 15  1  0
 17 16  2  0
 18 17  1  0
 19 18  1  0
 19 20  2  0
 20 16  1  0
 21 23  2  0
 21 22  1  0
M  END
$$$$
