VAH.pdb
     RDKit          3D

 23 23  0  0  1  0  0  0  0  0999 V2000
    8.3454  -12.0657   18.8916 C   0  0  0  0  0  0  0  0  0  0  0  0
    8.2655  -13.2345   19.8476 C   0  0  2  0  0  0  0  0  0  0  0  0
    9.2695  -13.1188   20.9555 C   0  0  0  0  0  0  0  0  0  0  0  0
    8.4199  -14.5605   19.1037 C   0  0  2  0  0  0  0  0  0  0  0  0
    7.5491  -14.6455   17.9749 N   0  0  0  0  0  0  0  0  0  0  0  0
    8.1380  -15.6485   20.1066 C   0  0  0  0  0  0  0  0  0  0  0  0
    6.9648  -16.0134   20.3701 O   0  0  0  0  0  0  0  0  0  0  0  0
    9.9284  -18.6295   21.1234 C   0  0  0  0  0  0  0  0  0  0  0  0
    9.0246  -17.5004   21.5811 C   0  0  2  0  0  0  0  0  0  0  0  0
    9.1827  -16.3132   20.8013 N   0  0  0  0  0  0  0  0  0  0  0  0
    9.1829  -17.2986   23.0269 C   0  0  0  0  0  0  0  0  0  0  0  0
    8.8379  -18.2298   23.8051 O   0  0  0  0  0  0  0  0  0  0  0  0
    9.6991  -16.1267   23.6346 N   0  0  0  0  0  0  0  0  0  0  0  0
    9.7787  -15.8368   25.0196 C   0  0  1  0  0  0  0  0  0  0  0  0
    8.4922  -15.7832   25.7698 C   0  0  0  0  0  0  0  0  0  0  0  0
    7.5712  -14.6980   25.3829 C   0  0  0  0  0  0  0  0  0  0  0  0
    7.6832  -13.7093   24.4643 C   0  0  0  0  0  0  0  0  0  0  0  0
    6.5477  -12.9488   24.5029 N   0  0  0  0  0  0  0  0  0  0  0  0
    5.7592  -13.4864   25.4467 C   0  0  0  0  0  0  0  0  0  0  0  0
    6.3703  -14.5503   25.9890 N   0  0  0  0  0  0  0  0  0  0  0  0
   10.6556  -16.8013   25.7602 C   0  0  0  0  0  0  0  0  0  0  0  0
   10.9709  -16.7217   27.0824 O   0  0  0  0  0  0  0  0  0  0  0  0
   11.1239  -17.7500   25.0819 O   0  0  0  0  0  0  0  0  0  0  0  0
  2  4  1  0
  2  1  1  6
  2  3  1  0
  4  5  1  6
  6  4  1  0
  6  7  2  0
  9  8  1  6
  9 10  1  0
  9 11  1  0
 10  6  1  0
 11 13  1  0
 12 11  2  0
 13 14  1  0
 14 21  1  0
 14 15  1  1
 16 15  1  0
 17 16  2  0
 18 17  1  0
 19 18  1  0
 19 20  2  0
 20 16  1  0
 21 23  2  0
 21 22  1  0
M  END
$$$$
