VAH.pdb
     RDKit          3D

 23 23  0  0  1  0  0  0  0  0999 V2000
    7.2705  -12.9442   21.6514 C   0  0  0  0  0  0  0  0  0  0  0  0
    8.1717  -13.2372   20.4732 C   0  0  2  0  0  0  0  0  0  0  0  0
    7.9528  -12.2691   19.3490 C   0  0  0  0  0  0  0  0  0  0  0  0
    7.9975  -14.6789   19.9971 C   0  0  2  0  0  0  0  0  0  0  0  0
    6.7002  -14.9072   19.4451 N   0  0  0  0  0  0  0  0  0  0  0  0
    8.2555  -15.5579   21.1928 C   0  0  0  0  0  0  0  0  0  0  0  0
    7.3553  -15.8074   22.0333 O   0  0  0  0  0  0  0  0  0  0  0  0
   11.1930  -17.6433   22.4301 C   0  0  0  0  0  0  0  0  0  0  0  0
    9.8804  -16.8997   22.5890 C   0  0  2  0  0  0  0  0  0  0  0  0
    9.5263  -16.1460   21.4274 N   0  0  0  0  0  0  0  0  0  0  0  0
    9.9052  -16.1177   23.8316 C   0  0  0  0  0  0  0  0  0  0  0  0
    9.8153  -14.8616   23.7532 O   0  0  0  0  0  0  0  0  0  0  0  0
   10.0234  -16.6620   25.1350 N   0  0  0  0  0  0  0  0  0  0  0  0
    9.4115  -16.1930   26.3242 C   0  0  1  0  0  0  0  0  0  0  0  0
    7.9446  -15.9365   26.2690 C   0  0  0  0  0  0  0  0  0  0  0  0
    7.5457  -14.5180   26.2024 C   0  0  0  0  0  0  0  0  0  0  0  0
    8.2769  -13.3783   26.1977 C   0  0  0  0  0  0  0  0  0  0  0  0
    7.4222  -12.3131   26.1345 N   0  0  0  0  0  0  0  0  0  0  0  0
    6.1801  -12.8208   26.1018 C   0  0  0  0  0  0  0  0  0  0  0  0
    6.2419  -14.1602   26.1426 N   0  0  0  0  0  0  0  0  0  0  0  0
    9.6324  -17.1133   27.4869 C   0  0  0  0  0  0  0  0  0  0  0  0
    9.9779  -18.4271   27.3954 O   0  0  0  0  0  0  0  0  0  0  0  0
    9.4796  -16.6051   28.6262 O   0  0  0  0  0  0  0  0  0  0  0  0
  2  4  1  0
  2  1  1  1
  2  3  1  0
  4  5  1  1
  6  4  1  0
  6  7  2  0
  9  8  1  6
  9 10  1  0
  9 11  1  0
 10  6  1  0
 11 13  1  0
 12 11  2  0
 13 14  1  0
 14 21  1  0
 14 15  1  6
 16 15  1  0
 17 16  2  0
 18 17  1  0
 19 18  1  0
 19 20  2  0
 20 16  1  0
 21 23  2  0
 21 22  1  0
M  END
$$$$
