VAH.pdb
     RDKit          3D

 23 23  0  0  1  0  0  0  0  0999 V2000
   11.5028  -20.6659   16.6922 C   0  0  0  0  0  0  0  0  0  0  0  0
   10.0116  -20.4158   16.6896 C   0  0  2  0  0  0  0  0  0  0  0  0
    9.3207  -21.1727   15.5948 C   0  0  0  0  0  0  0  0  0  0  0  0
    9.7084  -18.9207   16.5985 C   0  0  2  0  0  0  0  0  0  0  0  0
   10.1716  -18.3544   15.3720 N   0  0  0  0  0  0  0  0  0  0  0  0
   10.3665  -18.2777   17.7912 C   0  0  0  0  0  0  0  0  0  0  0  0
   11.5665  -17.9060   17.7605 O   0  0  0  0  0  0  0  0  0  0  0  0
    9.2299  -17.2616   21.2856 C   0  0  0  0  0  0  0  0  0  0  0  0
   10.2575  -17.6298   20.2322 C   0  0  2  0  0  0  0  0  0  0  0  0
    9.6638  -18.0610   19.0057 N   0  0  0  0  0  0  0  0  0  0  0  0
   11.2263  -18.5763   20.7994 C   0  0  0  0  0  0  0  0  0  0  0  0
   10.9861  -19.8113   20.7048 O   0  0  0  0  0  0  0  0  0  0  0  0
   12.4297  -18.2157   21.4558 N   0  0  0  0  0  0  0  0  0  0  0  0
   13.4393  -19.0825   21.9434 C   0  0  1  0  0  0  0  0  0  0  0  0
   14.8318  -18.8181   21.4830 C   0  0  0  0  0  0  0  0  0  0  0  0
   15.0374  -18.8404   20.0225 C   0  0  0  0  0  0  0  0  0  0  0  0
   14.4373  -19.5556   19.0416 C   0  0  0  0  0  0  0  0  0  0  0  0
   15.0037  -19.2137   17.8451 N   0  0  0  0  0  0  0  0  0  0  0  0
   15.9427  -18.2934   18.1155 C   0  0  0  0  0  0  0  0  0  0  0  0
   15.9728  -18.0580   19.4358 N   0  0  0  0  0  0  0  0  0  0  0  0
   13.4932  -19.1188   23.4411 C   0  0  0  0  0  0  0  0  0  0  0  0
   14.2079  -20.0108   24.1810 O   0  0  0  0  0  0  0  0  0  0  0  0
   12.8147  -18.2443   24.0363 O   0  0  0  0  0  0  0  0  0  0  0  0
  2  4  1  0
  2  1  1  6
  2  3  1  0
  4  5  1  6
  6  4  1  0
  6  7  2  0
  9  8  1  1
  9 10  1  0
  9 11  1  0
 10  6  1  0
 11 13  1  0
 12 11  2  0
 13 14  1  0
 14 21  1  0
 14 15  1  6
 16 15  1  0
 17 16  2  0
 18 17  1  0
 19 18  1  0
 19 20  2  0
 20 16  1  0
 21 23  2  0
 21 22  1  0
M  END
$$$$
