VAH.pdb
     RDKit          3D

 23 23  0  0  1  0  0  0  0  0999 V2000
    7.9079  -15.3831   15.5116 C   0  0  0  0  0  0  0  0  0  0  0  0
    8.6842  -15.1478   16.7876 C   0  0  2  0  0  0  0  0  0  0  0  0
    8.8145  -16.4012   17.6006 C   0  0  0  0  0  0  0  0  0  0  0  0
    8.0559  -14.0234   17.6101 C   0  0  2  0  0  0  0  0  0  0  0  0
    7.9740  -12.8027   16.8733 N   0  0  0  0  0  0  0  0  0  0  0  0
    8.9050  -13.8715   18.8451 C   0  0  0  0  0  0  0  0  0  0  0  0
   10.0732  -13.4120   18.7887 O   0  0  0  0  0  0  0  0  0  0  0  0
    8.3793  -14.4504   22.5754 C   0  0  0  0  0  0  0  0  0  0  0  0
    9.2146  -14.2669   21.3225 C   0  0  2  0  0  0  0  0  0  0  0  0
    8.4269  -14.2395   20.1303 N   0  0  0  0  0  0  0  0  0  0  0  0
   10.3006  -15.2551   21.3060 C   0  0  0  0  0  0  0  0  0  0  0  0
   10.0647  -16.3994   20.8297 O   0  0  0  0  0  0  0  0  0  0  0  0
   11.6146  -15.0303   21.7875 N   0  0  0  0  0  0  0  0  0  0  0  0
   12.7197  -15.9152   21.7236 C   0  0  1  0  0  0  0  0  0  0  0  0
   14.0208  -15.3348   21.2865 C   0  0  0  0  0  0  0  0  0  0  0  0
   14.0818  -14.8876   19.8823 C   0  0  0  0  0  0  0  0  0  0  0  0
   13.2371  -15.0780   18.8412 C   0  0  0  0  0  0  0  0  0  0  0  0
   13.7603  -14.4629   17.7381 N   0  0  0  0  0  0  0  0  0  0  0  0
   14.9188  -13.9057   18.1242 C   0  0  0  0  0  0  0  0  0  0  0  0
   15.1254  -14.1570   19.4256 N   0  0  0  0  0  0  0  0  0  0  0  0
   12.9847  -16.6007   23.0303 C   0  0  0  0  0  0  0  0  0  0  0  0
   13.8947  -17.5943   23.2268 O   0  0  0  0  0  0  0  0  0  0  0  0
   12.2977  -16.2070   24.0062 O   0  0  0  0  0  0  0  0  0  0  0  0
  2  4  1  0
  2  1  1  6
  2  3  1  0
  4  5  1  6
  6  4  1  0
  6  7  2  0
  9  8  1  1
  9 10  1  0
  9 11  1  0
 10  6  1  0
 11 13  1  0
 12 11  2  0
 13 14  1  0
 14 21  1  0
 14 15  1  1
 16 15  1  0
 17 16  2  0
 18 17  1  0
 19 18  1  0
 19 20  2  0
 20 16  1  0
 21 23  2  0
 21 22  1  0
M  END
$$$$
