AML.pdb
     RDKit          3D

 22 21  0  0  1  0  0  0  0  0999 V2000
   26.5923  -16.5126  -16.9359 C   0  0  0  0  0  0  0  0  0  0  0  0
   27.7395  -17.4969  -16.6729 C   0  0  2  0  0  0  0  0  0  0  0  0
   28.2161  -17.9511  -17.9611 N   0  0  0  0  0  0  0  0  0  0  0  0
   27.2573  -18.6424  -15.8655 C   0  0  0  0  0  0  0  0  0  0  0  0
   26.3448  -19.3652  -16.3280 O   0  0  0  0  0  0  0  0  0  0  0  0
   30.5082  -20.4615  -10.7670 C   0  0  0  0  0  0  0  0  0  0  0  0
   29.1785  -21.6552  -10.4972 S   0  0  0  0  0  0  0  0  0  0  0  0
   27.9419  -21.4265  -11.8122 C   0  0  0  0  0  0  0  0  0  0  0  0
   28.4178  -20.2767  -12.6664 C   0  0  0  0  0  0  0  0  0  0  0  0
   27.3967  -20.0117  -13.7684 C   0  0  2  0  0  0  0  0  0  0  0  0
   27.8159  -18.9173  -14.5946 N   0  0  0  0  0  0  0  0  0  0  0  0
   26.0729  -19.7872  -13.1285 C   0  0  0  0  0  0  0  0  0  0  0  0
   25.8600  -18.6402  -12.6614 O   0  0  0  0  0  0  0  0  0  0  0  0
   21.2930  -18.8956  -12.3814 C   0  0  0  0  0  0  0  0  0  0  0  0
   21.4679  -19.8593  -13.5289 C   0  0  2  0  0  0  0  0  0  0  0  0
   20.2720  -20.7438  -13.6161 C   0  0  0  0  0  0  0  0  0  0  0  0
   22.7986  -20.4664  -13.6458 C   0  0  0  0  0  0  0  0  0  0  0  0
   23.7386  -20.4372  -12.5090 C   0  0  2  0  0  0  0  0  0  0  0  0
   25.0831  -20.7899  -13.0339 N   0  0  0  0  0  0  0  0  0  0  0  0
   23.4478  -21.2927  -11.3560 C   0  0  0  0  0  0  0  0  0  0  0  0
   22.7600  -20.9185  -10.2174 O   0  0  0  0  0  0  0  0  0  0  0  0
   23.8459  -22.5192  -11.3363 O   0  0  0  0  0  0  0  0  0  0  0  0
  2  1  1  6
  2  3  1  0
  4  2  1  0
  5  4  2  0
  7  6  1  0
  8  7  1  0
  8  9  1  0
 10  9  1  1
 10 12  1  0
 10 11  1  0
 11  4  1  0
 12 19  1  0
 13 12  2  0
 15 14  1  1
 16 15  1  0
 17 15  1  0
 18 17  1  6
 18 20  1  0
 19 18  1  0
 20 21  1  0
 22 20  2  0
M  END
$$$$
