AML.pdb
     RDKit          3D

 22 21  0  0  1  0  0  0  0  0999 V2000
   26.8607  -19.0682  -15.3016 C   0  0  0  0  0  0  0  0  0  0  0  0
   27.6862  -20.0669  -14.4799 C   0  0  2  0  0  0  0  0  0  0  0  0
   28.1768  -21.0721  -15.3973 N   0  0  0  0  0  0  0  0  0  0  0  0
   26.8431  -20.6893  -13.4318 C   0  0  0  0  0  0  0  0  0  0  0  0
   26.0478  -21.6001  -13.7589 O   0  0  0  0  0  0  0  0  0  0  0  0
   26.8387  -18.7810   -6.9905 C   0  0  0  0  0  0  0  0  0  0  0  0
   26.6226  -20.5752   -7.0038 S   0  0  0  0  0  0  0  0  0  0  0  0
   25.8491  -21.0370   -8.5847 C   0  0  0  0  0  0  0  0  0  0  0  0
   26.6120  -20.3201   -9.6719 C   0  0  0  0  0  0  0  0  0  0  0  0
   26.1160  -20.7969  -11.0334 C   0  0  2  0  0  0  0  0  0  0  0  0
   26.9325  -20.2643  -12.0849 N   0  0  0  0  0  0  0  0  0  0  0  0
   24.6821  -20.4227  -11.1607 C   0  0  0  0  0  0  0  0  0  0  0  0
   24.4317  -19.2058  -11.3498 O   0  0  0  0  0  0  0  0  0  0  0  0
   22.0073  -19.8766  -14.1930 C   0  0  0  0  0  0  0  0  0  0  0  0
   22.1265  -21.3234  -13.7824 C   0  0  2  0  0  0  0  0  0  0  0  0
   21.6621  -22.1926  -14.9000 C   0  0  0  0  0  0  0  0  0  0  0  0
   21.6754  -21.6320  -12.4207 C   0  0  0  0  0  0  0  0  0  0  0  0
   22.2297  -20.9029  -11.2639 C   0  0  2  0  0  0  0  0  0  0  0  0
   23.6306  -21.3618  -11.0781 N   0  0  0  0  0  0  0  0  0  0  0  0
   21.5279  -21.0135   -9.9829 C   0  0  0  0  0  0  0  0  0  0  0  0
   21.9730  -21.6962   -8.8668 O   0  0  0  0  0  0  0  0  0  0  0  0
   20.3812  -20.4474   -9.8156 O   0  0  0  0  0  0  0  0  0  0  0  0
  2  1  1  6
  2  3  1  0
  4  2  1  0
  5  4  2  0
  7  6  1  0
  8  7  1  0
  8  9  1  0
 10  9  1  1
 10 12  1  0
 10 11  1  0
 11  4  1  0
 12 19  1  0
 13 12  2  0
 15 14  1  6
 16 15  1  0
 17 15  1  0
 18 17  1  6
 18 20  1  0
 19 18  1  0
 20 21  1  0
 22 20  2  0
M  END
$$$$
