AML.pdb
     RDKit          3D

 22 21  0  0  1  0  0  0  0  0999 V2000
   28.6021  -21.9782  -15.5259 C   0  0  0  0  0  0  0  0  0  0  0  0
   27.5726  -20.8458  -15.4178 C   0  0  2  0  0  0  0  0  0  0  0  0
   28.2371  -19.7229  -14.7928 N   0  0  0  0  0  0  0  0  0  0  0  0
   26.4144  -21.2818  -14.6023 C   0  0  0  0  0  0  0  0  0  0  0  0
   25.7326  -22.2566  -14.9948 O   0  0  0  0  0  0  0  0  0  0  0  0
   24.9432  -20.4164   -8.1046 C   0  0  0  0  0  0  0  0  0  0  0  0
   26.5865  -20.5862   -8.8373 S   0  0  0  0  0  0  0  0  0  0  0  0
   26.3849  -21.2241  -10.5294 C   0  0  0  0  0  0  0  0  0  0  0  0
   25.2050  -20.5014  -11.1326 C   0  0  0  0  0  0  0  0  0  0  0  0
   24.9873  -20.9960  -12.5592 C   0  0  2  0  0  0  0  0  0  0  0  0
   26.0820  -20.6109  -13.4013 N   0  0  0  0  0  0  0  0  0  0  0  0
   23.6756  -20.4792  -13.0331 C   0  0  0  0  0  0  0  0  0  0  0  0
   23.6031  -19.2443  -13.2545 O   0  0  0  0  0  0  0  0  0  0  0  0
   21.9446  -19.2502  -16.3687 C   0  0  0  0  0  0  0  0  0  0  0  0
   21.8512  -20.7441  -16.1806 C   0  0  2  0  0  0  0  0  0  0  0  0
   21.6679  -21.3972  -17.5073 C   0  0  0  0  0  0  0  0  0  0  0  0
   21.0149  -21.1879  -15.0596 C   0  0  0  0  0  0  0  0  0  0  0  0
   21.2728  -20.6982  -13.6919 C   0  0  2  0  0  0  0  0  0  0  0  0
   22.5489  -21.3064  -13.2346 N   0  0  0  0  0  0  0  0  0  0  0  0
   20.2487  -20.9386  -12.6725 C   0  0  0  0  0  0  0  0  0  0  0  0
   19.0897  -20.2074  -12.4943 O   0  0  0  0  0  0  0  0  0  0  0  0
   20.3817  -21.9048  -11.8287 O   0  0  0  0  0  0  0  0  0  0  0  0
  2  1  1  1
  2  3  1  0
  4  2  1  0
  5  4  2  0
  7  6  1  0
  8  7  1  0
  8  9  1  0
 10  9  1  1
 10 12  1  0
 10 11  1  0
 11  4  1  0
 12 19  1  0
 13 12  2  0
 15 14  1  6
 16 15  1  0
 17 15  1  0
 18 17  1  6
 18 20  1  0
 19 18  1  0
 20 21  1  0
 22 20  2  0
M  END
$$$$
