AML.pdb
     RDKit          3D

 22 21  0  0  1  0  0  0  0  0999 V2000
   19.3214  -10.5595  -19.0153 C   0  0  0  0  0  0  0  0  0  0  0  0
   18.6042  -10.9920  -17.7298 C   0  0  2  0  0  0  0  0  0  0  0  0
   17.3046  -11.4972  -18.1152 N   0  0  0  0  0  0  0  0  0  0  0  0
   18.4599   -9.8386  -16.8103 C   0  0  0  0  0  0  0  0  0  0  0  0
   18.1423   -8.7239  -17.2854 O   0  0  0  0  0  0  0  0  0  0  0  0
   15.9920   -9.9436  -10.8134 C   0  0  0  0  0  0  0  0  0  0  0  0
   17.5088   -8.9992  -10.5430 S   0  0  0  0  0  0  0  0  0  0  0  0
   18.0263   -8.2966  -12.1397 C   0  0  0  0  0  0  0  0  0  0  0  0
   18.1829   -9.4528  -13.0972 C   0  0  0  0  0  0  0  0  0  0  0  0
   18.5450   -8.9169  -14.4788 C   0  0  2  0  0  0  0  0  0  0  0  0
   18.6764   -9.9906  -15.4200 N   0  0  0  0  0  0  0  0  0  0  0  0
   19.7807   -8.0993  -14.3489 C   0  0  0  0  0  0  0  0  0  0  0  0
   20.8327   -8.7131  -14.0391 O   0  0  0  0  0  0  0  0  0  0  0  0
   22.3294   -3.2829  -16.9657 C   0  0  0  0  0  0  0  0  0  0  0  0
   22.3984   -4.2549  -15.8140 C   0  0  2  0  0  0  0  0  0  0  0  0
   23.7329   -4.9177  -15.8080 C   0  0  0  0  0  0  0  0  0  0  0  0
   21.2038   -5.0832  -15.6149 C   0  0  0  0  0  0  0  0  0  0  0  0
   21.0956   -5.9739  -14.4435 C   0  0  2  0  0  0  0  0  0  0  0  0
   19.8057   -6.7026  -14.5561 N   0  0  0  0  0  0  0  0  0  0  0  0
   21.1759   -5.3689  -13.1119 C   0  0  0  0  0  0  0  0  0  0  0  0
   20.1058   -5.0168  -12.3115 O   0  0  0  0  0  0  0  0  0  0  0  0
   22.3222   -5.1113  -12.5799 O   0  0  0  0  0  0  0  0  0  0  0  0
  2  1  1  6
  2  3  1  0
  4  2  1  0
  5  4  2  0
  7  6  1  0
  8  7  1  0
  8  9  1  0
 10  9  1  1
 10 12  1  0
 10 11  1  0
 11  4  1  0
 12 19  1  0
 13 12  2  0
 15 14  1  6
 16 15  1  0
 17 15  1  0
 18 17  1  6
 18 20  1  0
 19 18  1  0
 20 21  1  0
 22 20  2  0
M  END
$$$$
