AML.pdb
     RDKit          3D

 22 21  0  0  1  0  0  0  0  0999 V2000
   27.6787  -19.1035  -15.7759 C   0  0  0  0  0  0  0  0  0  0  0  0
   28.2530  -20.2606  -14.9481 C   0  0  2  0  0  0  0  0  0  0  0  0
   28.7037  -21.2704  -15.8809 N   0  0  0  0  0  0  0  0  0  0  0  0
   27.2127  -20.8134  -14.0488 C   0  0  0  0  0  0  0  0  0  0  0  0
   26.4930  -21.7512  -14.4630 O   0  0  0  0  0  0  0  0  0  0  0  0
   27.5351  -20.3855   -7.5645 C   0  0  0  0  0  0  0  0  0  0  0  0
   25.7486  -20.2521   -7.8020 S   0  0  0  0  0  0  0  0  0  0  0  0
   25.3508  -20.9010   -9.4547 C   0  0  0  0  0  0  0  0  0  0  0  0
   26.2910  -20.2308  -10.4268 C   0  0  0  0  0  0  0  0  0  0  0  0
   26.0499  -20.7884  -11.8262 C   0  0  2  0  0  0  0  0  0  0  0  0
   27.0331  -20.2932  -12.7449 N   0  0  0  0  0  0  0  0  0  0  0  0
   24.6567  -20.4527  -12.2244 C   0  0  0  0  0  0  0  0  0  0  0  0
   24.4229  -19.2484  -12.4969 O   0  0  0  0  0  0  0  0  0  0  0  0
   21.7852  -20.0350  -15.8060 C   0  0  0  0  0  0  0  0  0  0  0  0
   22.4718  -21.3368  -15.4746 C   0  0  2  0  0  0  0  0  0  0  0  0
   22.3939  -22.2483  -16.6507 C   0  0  0  0  0  0  0  0  0  0  0  0
   22.1806  -21.8830  -14.1442 C   0  0  0  0  0  0  0  0  0  0  0  0
   22.3344  -21.0451  -12.9396 C   0  0  2  0  0  0  0  0  0  0  0  0
   23.6250  -21.4139  -12.3026 N   0  0  0  0  0  0  0  0  0  0  0  0
   21.2794  -21.1020  -11.9250 C   0  0  0  0  0  0  0  0  0  0  0  0
   20.0417  -20.4921  -12.0020 O   0  0  0  0  0  0  0  0  0  0  0  0
   21.4593  -21.7632  -10.8323 O   0  0  0  0  0  0  0  0  0  0  0  0
  2  1  1  6
  2  3  1  0
  4  2  1  0
  5  4  2  0
  7  6  1  0
  8  7  1  0
  8  9  1  0
 10  9  1  1
 10 12  1  0
 10 11  1  0
 11  4  1  0
 12 19  1  0
 13 12  2  0
 15 14  1  6
 16 15  1  0
 17 15  1  0
 18 17  1  6
 18 20  1  0
 19 18  1  0
 20 21  1  0
 22 20  2  0
M  END
$$$$
