AML.pdb
     RDKit          3D

 22 21  0  0  1  0  0  0  0  0999 V2000
   19.4814  -13.0113  -17.7454 C   0  0  0  0  0  0  0  0  0  0  0  0
   20.1428  -11.7176  -18.2381 C   0  0  2  0  0  0  0  0  0  0  0  0
   21.0273  -12.0772  -19.3249 N   0  0  0  0  0  0  0  0  0  0  0  0
   20.9055  -11.0806  -17.1384 C   0  0  0  0  0  0  0  0  0  0  0  0
   20.2859  -10.6852  -16.1241 O   0  0  0  0  0  0  0  0  0  0  0  0
   27.6581  -10.3194  -16.9067 C   0  0  0  0  0  0  0  0  0  0  0  0
   27.0165  -10.7273  -15.2673 S   0  0  0  0  0  0  0  0  0  0  0  0
   25.3142  -10.0944  -15.1558 C   0  0  0  0  0  0  0  0  0  0  0  0
   24.5567  -10.6652  -16.3299 C   0  0  0  0  0  0  0  0  0  0  0  0
   23.0925  -10.2473  -16.2355 C   0  0  2  0  0  0  0  0  0  0  0  0
   22.3087  -10.9205  -17.2298 N   0  0  0  0  0  0  0  0  0  0  0  0
   23.0262   -8.7654  -16.3441 C   0  0  0  0  0  0  0  0  0  0  0  0
   23.4103   -8.2620  -17.4297 O   0  0  0  0  0  0  0  0  0  0  0  0
   21.9756   -3.9819  -16.8949 C   0  0  0  0  0  0  0  0  0  0  0  0
   20.9792   -5.0808  -17.1696 C   0  0  2  0  0  0  0  0  0  0  0  0
   19.6037   -4.5080  -17.1778 C   0  0  0  0  0  0  0  0  0  0  0  0
   21.2107   -6.3373  -16.4481 C   0  0  0  0  0  0  0  0  0  0  0  0
   22.3740   -6.4843  -15.5525 C   0  0  2  0  0  0  0  0  0  0  0  0
   22.5607   -7.9365  -15.2999 N   0  0  0  0  0  0  0  0  0  0  0  0
   22.3412   -5.7864  -14.2650 C   0  0  0  0  0  0  0  0  0  0  0  0
   22.8101   -4.5100  -14.0184 O   0  0  0  0  0  0  0  0  0  0  0  0
   21.8451   -6.3619  -13.2228 O   0  0  0  0  0  0  0  0  0  0  0  0
  2  1  1  1
  2  3  1  0
  4  2  1  0
  5  4  2  0
  7  6  1  0
  8  7  1  0
  8  9  1  0
 10  9  1  6
 10 12  1  0
 10 11  1  0
 11  4  1  0
 12 19  1  0
 13 12  2  0
 15 14  1  1
 16 15  1  0
 17 15  1  0
 18 17  1  1
 18 20  1  0
 19 18  1  0
 20 21  1  0
 22 20  2  0
M  END
$$$$
