RGI.pdb
     RDKit          3D

 24 23  0  0  1  0  0  0  0  0999 V2000
    9.6710  -14.5983   15.7579 N   0  0  0  0  0  0  0  0  0  0  0  0
    8.4660  -14.3599   15.0650 C   0  0  0  0  0  0  0  0  0  0  0  0
    8.2050  -14.8625   13.9116 N   0  0  0  0  0  0  0  0  0  0  0  0
    7.4874  -13.5178   15.6758 N   0  0  0  0  0  0  0  0  0  0  0  0
    7.4512  -13.3251   17.1123 C   0  0  0  0  0  0  0  0  0  0  0  0
    7.9444  -14.5976   17.8147 C   0  0  0  0  0  0  0  0  0  0  0  0
    7.7136  -14.4148   19.2708 C   0  0  0  0  0  0  0  0  0  0  0  0
    8.4653  -15.4182   20.0823 C   0  0  2  0  0  0  0  0  0  0  0  0
    8.2291  -16.7731   19.5589 N   0  0  0  0  0  0  0  0  0  0  0  0
    7.9669  -15.4304   21.4683 C   0  0  0  0  0  0  0  0  0  0  0  0
    7.9430  -14.3923   22.1677 O   0  0  0  0  0  0  0  0  0  0  0  0
    7.3208  -14.6409   13.4236 N   0  0  0  0  0  0  0  0  0  0  0  0
    7.4806  -16.6296   22.0952 C   0  0  0  0  0  0  0  0  0  0  0  0
    6.9328  -16.5385   23.4173 C   0  0  0  0  0  0  0  0  0  0  0  0
    7.9027  -15.8288   24.2852 O   0  0  0  0  0  0  0  0  0  0  0  0
    9.1100  -15.7198   23.9378 C   0  0  0  0  0  0  0  0  0  0  0  0
    5.9843  -11.7182   27.4195 C   0  0  0  0  0  0  0  0  0  0  0  0
    6.4383  -13.0619   26.9225 C   0  0  2  0  0  0  0  0  0  0  0  0
    7.8222  -13.0009   26.3090 C   0  0  0  0  0  0  0  0  0  0  0  0
    7.7326  -12.3673   24.9490 C   0  0  1  0  0  0  0  0  0  0  0  0
    8.4381  -14.3836   26.2041 N   0  0  0  0  0  0  0  0  0  0  0  0
    7.5025  -15.2566   25.5228 C   0  0  0  0  0  0  0  0  0  0  0  0
    8.5965  -14.8751   27.5922 O   0  0  0  0  0  0  0  0  0  0  0  0
    9.5500  -14.4030   28.4820 O   0  0  0  0  0  0  0  0  0  0  0  0
  2  3  2  0
  2  1  1  0
  4  2  1  0
  5  4  1  0
  6  5  1  0
  7  6  1  0
  8  7  1  0
  8  9  1  6
 10 12  1  0
 10  8  1  0
 11 10  2  0
 13 12  1  0
 14 13  1  0
 14 21  1  0
 15 14  2  0
 16 17  1  0
 17 18  1  0
 18 20  1  0
 18 19  1  1
 20 21  1  6
 20 22  1  0
 22 24  2  0
 22 23  1  0
M  END
$$$$
