RGI.pdb
     RDKit          3D

 24 23  0  0  1  0  0  0  0  0999 V2000
    9.2342  -13.5171   16.7101 N   0  0  0  0  0  0  0  0  0  0  0  0
    7.9877  -14.0877   17.0412 C   0  0  0  0  0  0  0  0  0  0  0  0
    7.3643  -14.9112   16.2770 N   0  0  0  0  0  0  0  0  0  0  0  0
    7.3886  -13.7321   18.2880 N   0  0  0  0  0  0  0  0  0  0  0  0
    8.1625  -13.1108   19.3449 C   0  0  0  0  0  0  0  0  0  0  0  0
    9.1967  -14.1102   19.8811 C   0  0  0  0  0  0  0  0  0  0  0  0
    8.5722  -14.8177   21.0284 C   0  0  0  0  0  0  0  0  0  0  0  0
    9.5103  -15.7974   21.6536 C   0  0  2  0  0  0  0  0  0  0  0  0
   10.0435  -16.7121   20.6316 N   0  0  0  0  0  0  0  0  0  0  0  0
    8.7919  -16.6476   22.6183 C   0  0  0  0  0  0  0  0  0  0  0  0
    7.7517  -17.2678   22.3012 O   0  0  0  0  0  0  0  0  0  0  0  0
    6.4361  -15.2823   16.5412 N   0  0  0  0  0  0  0  0  0  0  0  0
    9.2420  -16.8141   23.9737 C   0  0  0  0  0  0  0  0  0  0  0  0
    8.4283  -17.5733   24.8781 C   0  0  0  0  0  0  0  0  0  0  0  0
    7.6928  -16.6337   25.7577 O   0  0  0  0  0  0  0  0  0  0  0  0
    6.7364  -17.0422   26.4709 C   0  0  0  0  0  0  0  0  0  0  0  0
   10.3568  -12.8632   27.3518 C   0  0  0  0  0  0  0  0  0  0  0  0
    9.0227  -13.3324   27.8603 C   0  0  2  0  0  0  0  0  0  0  0  0
    7.9152  -13.0850   26.8566 C   0  0  0  0  0  0  0  0  0  0  0  0
    6.9759  -12.0464   27.4026 C   0  0  2  0  0  0  0  0  0  0  0  0
    7.1599  -14.3638   26.5456 N   0  0  0  0  0  0  0  0  0  0  0  0
    8.0416  -15.2576   25.8210 C   0  0  0  0  0  0  0  0  0  0  0  0
    6.0501  -13.9824   25.6421 O   0  0  0  0  0  0  0  0  0  0  0  0
    6.0770  -14.1413   24.2645 O   0  0  0  0  0  0  0  0  0  0  0  0
  2  3  2  0
  2  1  1  0
  4  2  1  0
  5  4  1  0
  6  5  1  0
  7  6  1  0
  8  7  1  0
  8  9  1  6
 10 12  1  0
 10  8  1  0
 11 10  2  0
 13 12  1  0
 14 13  1  0
 14 21  1  0
 15 14  2  0
 16 17  1  0
 17 18  1  0
 18 20  1  0
 18 19  1  6
 20 21  1  1
 20 22  1  0
 22 24  2  0
 22 23  1  0
M  END
$$$$
