RGI.pdb
     RDKit          3D

 24 23  0  0  1  0  0  0  0  0999 V2000
    9.2838  -14.7831   15.4408 N   0  0  0  0  0  0  0  0  0  0  0  0
    8.2883  -13.7912   15.5601 C   0  0  0  0  0  0  0  0  0  0  0  0
    7.9191  -13.0423   14.5835 N   0  0  0  0  0  0  0  0  0  0  0  0
    7.6597  -13.6104   16.8297 N   0  0  0  0  0  0  0  0  0  0  0  0
    8.0205  -14.4276   17.9716 C   0  0  0  0  0  0  0  0  0  0  0  0
    7.1271  -14.0659   19.1661 C   0  0  0  0  0  0  0  0  0  0  0  0
    7.8778  -14.4151   20.3995 C   0  0  0  0  0  0  0  0  0  0  0  0
    8.0764  -15.8896   20.5298 C   0  0  2  0  0  0  0  0  0  0  0  0
    6.7814  -16.5843   20.4542 N   0  0  0  0  0  0  0  0  0  0  0  0
    8.6300  -16.2149   21.8554 C   0  0  0  0  0  0  0  0  0  0  0  0
    9.7783  -15.8505   22.1959 O   0  0  0  0  0  0  0  0  0  0  0  0
    7.2058  -12.3061   14.7191 N   0  0  0  0  0  0  0  0  0  0  0  0
    7.8869  -16.9658   22.8308 C   0  0  0  0  0  0  0  0  0  0  0  0
    8.5443  -17.3516   24.0454 C   0  0  0  0  0  0  0  0  0  0  0  0
    9.0441  -16.1314   24.7229 O   0  0  0  0  0  0  0  0  0  0  0  0
    9.9441  -15.4277   24.1892 C   0  0  0  0  0  0  0  0  0  0  0  0
    6.0682  -12.3344   26.3228 C   0  0  0  0  0  0  0  0  0  0  0  0
    7.2563  -13.1491   25.8944 C   0  0  2  0  0  0  0  0  0  0  0  0
    8.0721  -13.6265   27.0784 C   0  0  0  0  0  0  0  0  0  0  0  0
    8.6843  -12.4396   27.7679 C   0  0  2  0  0  0  0  0  0  0  0  0
    9.1547  -14.5970   26.6441 N   0  0  0  0  0  0  0  0  0  0  0  0
    8.5276  -15.7243   25.9826 C   0  0  0  0  0  0  0  0  0  0  0  0
    9.7932  -15.0910   27.8856 O   0  0  0  0  0  0  0  0  0  0  0  0
    9.5908  -16.3566   28.4157 O   0  0  0  0  0  0  0  0  0  0  0  0
  2  3  2  0
  2  1  1  0
  4  2  1  0
  5  4  1  0
  6  5  1  0
  7  6  1  0
  8  7  1  0
  8  9  1  1
 10 12  1  0
 10  8  1  0
 11 10  2  0
 13 12  1  0
 14 13  1  0
 14 21  1  0
 15 14  2  0
 16 17  1  0
 17 18  1  0
 18 20  1  0
 18 19  1  1
 20 21  1  6
 20 22  1  0
 22 24  2  0
 22 23  1  0
M  END
$$$$
