RGI.pdb
     RDKit          3D

 24 23  0  0  1  0  0  0  0  0999 V2000
   12.3251  -19.2267   21.3800 N   0  0  0  0  0  0  0  0  0  0  0  0
   11.8035  -20.1746   22.2847 C   0  0  0  0  0  0  0  0  0  0  0  0
   12.5337  -21.0238   22.9145 N   0  0  0  0  0  0  0  0  0  0  0  0
   10.3936  -20.1912   22.5118 N   0  0  0  0  0  0  0  0  0  0  0  0
    9.4799  -19.4995   21.6238 C   0  0  0  0  0  0  0  0  0  0  0  0
    9.7805  -19.8900   20.1701 C   0  0  0  0  0  0  0  0  0  0  0  0
    8.7241  -19.2798   19.3224 C   0  0  0  0  0  0  0  0  0  0  0  0
    8.9205  -17.8078   19.1645 C   0  0  2  0  0  0  0  0  0  0  0  0
   10.2602  -17.4216   19.6352 N   0  0  0  0  0  0  0  0  0  0  0  0
    7.9685  -17.0718   20.0141 C   0  0  0  0  0  0  0  0  0  0  0  0
    6.7347  -17.1116   19.8061 O   0  0  0  0  0  0  0  0  0  0  0  0
   12.1099  -21.7187   23.5521 N   0  0  0  0  0  0  0  0  0  0  0  0
    8.3993  -16.2692   21.1267 C   0  0  0  0  0  0  0  0  0  0  0  0
    7.4049  -15.7226   22.0035 C   0  0  0  0  0  0  0  0  0  0  0  0
    8.0875  -15.0495   23.1343 O   0  0  0  0  0  0  0  0  0  0  0  0
    9.3384  -15.1361   23.2681 C   0  0  0  0  0  0  0  0  0  0  0  0
    5.2848  -11.2088   25.9626 C   0  0  0  0  0  0  0  0  0  0  0  0
    6.3324  -11.9462   25.1767 C   0  0  2  0  0  0  0  0  0  0  0  0
    7.1228  -12.9032   26.0454 C   0  0  0  0  0  0  0  0  0  0  0  0
    7.8772  -12.1207   27.0834 C   0  0  2  0  0  0  0  0  0  0  0  0
    8.0828  -13.7341   25.2144 N   0  0  0  0  0  0  0  0  0  0  0  0
    7.3573  -14.2947   24.0916 C   0  0  0  0  0  0  0  0  0  0  0  0
    8.5225  -14.8522   26.0805 O   0  0  0  0  0  0  0  0  0  0  0  0
    9.7203  -14.8718   26.7796 O   0  0  0  0  0  0  0  0  0  0  0  0
  2  3  2  0
  2  1  1  0
  4  2  1  0
  5  4  1  0
  6  5  1  0
  7  6  1  0
  8  7  1  0
  8  9  1  1
 10 12  1  0
 10  8  1  0
 11 10  2  0
 13 12  1  0
 14 13  1  0
 14 21  1  0
 15 14  2  0
 16 17  1  0
 17 18  1  0
 18 20  1  0
 18 19  1  1
 20 21  1  6
 20 22  1  0
 22 24  2  0
 22 23  1  0
M  END
$$$$
