RGI.pdb
     RDKit          3D

 24 23  0  0  1  0  0  0  0  0999 V2000
    7.0231  -12.7198   20.0368 N   0  0  0  0  0  0  0  0  0  0  0  0
    8.1388  -13.1267   19.2761 C   0  0  0  0  0  0  0  0  0  0  0  0
    9.3039  -12.5982   19.3957 N   0  0  0  0  0  0  0  0  0  0  0  0
    7.9646  -14.1783   18.3255 N   0  0  0  0  0  0  0  0  0  0  0  0
    7.3423  -15.4337   18.6974 C   0  0  0  0  0  0  0  0  0  0  0  0
    8.3461  -16.2948   19.4764 C   0  0  0  0  0  0  0  0  0  0  0  0
    7.6973  -17.6068   19.7305 C   0  0  0  0  0  0  0  0  0  0  0  0
    7.4217  -17.8177   21.1831 C   0  0  2  0  0  0  0  0  0  0  0  0
    6.7173  -16.6519   21.7400 N   0  0  0  0  0  0  0  0  0  0  0  0
    8.6855  -17.9194   21.9329 C   0  0  0  0  0  0  0  0  0  0  0  0
    9.5845  -18.7246   21.6001 O   0  0  0  0  0  0  0  0  0  0  0  0
    9.4679  -11.8176   20.0535 N   0  0  0  0  0  0  0  0  0  0  0  0
    8.9587  -17.1032   23.0847 C   0  0  0  0  0  0  0  0  0  0  0  0
   10.3234  -16.7919   23.3963 C   0  0  0  0  0  0  0  0  0  0  0  0
   10.3511  -15.9436   24.6117 O   0  0  0  0  0  0  0  0  0  0  0  0
   11.4400  -15.4684   25.0344 C   0  0  0  0  0  0  0  0  0  0  0  0
    6.2957  -12.6101   25.6679 C   0  0  0  0  0  0  0  0  0  0  0  0
    7.6469  -13.2561   25.5435 C   0  0  2  0  0  0  0  0  0  0  0  0
    7.9854  -14.0992   26.7559 C   0  0  0  0  0  0  0  0  0  0  0  0
    8.0997  -13.2085   27.9612 C   0  0  2  0  0  0  0  0  0  0  0  0
    9.2768  -14.8679   26.5473 N   0  0  0  0  0  0  0  0  0  0  0  0
    9.1612  -15.6452   25.3291 C   0  0  0  0  0  0  0  0  0  0  0  0
    9.3882  -15.8108   27.6840 O   0  0  0  0  0  0  0  0  0  0  0  0
   10.0845  -15.5430   28.8533 O   0  0  0  0  0  0  0  0  0  0  0  0
  2  3  2  0
  2  1  1  0
  4  2  1  0
  5  4  1  0
  6  5  1  0
  7  6  1  0
  8  7  1  0
  8  9  1  1
 10 12  1  0
 10  8  1  0
 11 10  2  0
 13 12  1  0
 14 13  1  0
 14 21  1  0
 15 14  2  0
 16 17  1  0
 17 18  1  0
 18 20  1  0
 18 19  1  1
 20 21  1  6
 20 22  1  0
 22 24  2  0
 22 23  1  0
M  END
$$$$
