RGI.pdb
     RDKit          3D

 24 23  0  0  1  0  0  0  0  0999 V2000
    8.3895  -12.9642   16.0374 N   0  0  0  0  0  0  0  0  0  0  0  0
    8.3515  -14.1113   15.2178 C   0  0  0  0  0  0  0  0  0  0  0  0
    8.9496  -14.1867   14.0830 N   0  0  0  0  0  0  0  0  0  0  0  0
    7.6113  -15.2452   15.6718 N   0  0  0  0  0  0  0  0  0  0  0  0
    7.0361  -15.2853   17.0020 C   0  0  0  0  0  0  0  0  0  0  0  0
    8.1452  -15.5270   18.0351 C   0  0  0  0  0  0  0  0  0  0  0  0
    7.6131  -16.4869   19.0364 C   0  0  0  0  0  0  0  0  0  0  0  0
    8.4793  -16.5592   20.2509 C   0  0  2  0  0  0  0  0  0  0  0  0
    8.9391  -17.9407   20.4642 N   0  0  0  0  0  0  0  0  0  0  0  0
    7.7046  -16.2036   21.4522 C   0  0  0  0  0  0  0  0  0  0  0  0
    7.2800  -15.0411   21.6406 O   0  0  0  0  0  0  0  0  0  0  0  0
    8.9316  -15.0604   13.5303 N   0  0  0  0  0  0  0  0  0  0  0  0
    7.3921  -17.1668   22.4730 C   0  0  0  0  0  0  0  0  0  0  0  0
    6.7428  -16.7130   23.6683 C   0  0  0  0  0  0  0  0  0  0  0  0
    7.7344  -15.9945   24.5037 O   0  0  0  0  0  0  0  0  0  0  0  0
    8.9405  -15.9215   24.1427 C   0  0  0  0  0  0  0  0  0  0  0  0
    5.6538  -11.7285   26.6660 C   0  0  0  0  0  0  0  0  0  0  0  0
    6.6861  -12.5949   26.0010 C   0  0  2  0  0  0  0  0  0  0  0  0
    7.5333  -13.3425   27.0103 C   0  0  0  0  0  0  0  0  0  0  0  0
    8.4826  -12.3806   27.6681 C   0  0  2  0  0  0  0  0  0  0  0  0
    8.3034  -14.4720   26.3519 N   0  0  0  0  0  0  0  0  0  0  0  0
    7.3571  -15.3736   25.7249 C   0  0  0  0  0  0  0  0  0  0  0  0
    8.9811  -15.2063   27.4451 O   0  0  0  0  0  0  0  0  0  0  0  0
   10.2669  -14.9327   27.8875 O   0  0  0  0  0  0  0  0  0  0  0  0
  2  3  2  0
  2  1  1  0
  4  2  1  0
  5  4  1  0
  6  5  1  0
  7  6  1  0
  8  7  1  0
  8  9  1  1
 10 12  1  0
 10  8  1  0
 11 10  2  0
 13 12  1  0
 14 13  1  0
 14 21  1  0
 15 14  2  0
 16 17  1  0
 17 18  1  0
 18 20  1  0
 18 19  1  1
 20 21  1  6
 20 22  1  0
 22 24  2  0
 22 23  1  0
M  END
$$$$
