RGI.pdb
     RDKit          3D

 24 23  0  0  1  0  0  0  0  0999 V2000
    9.0828  -13.2390   16.1157 N   0  0  0  0  0  0  0  0  0  0  0  0
    8.0853  -13.8063   15.2958 C   0  0  0  0  0  0  0  0  0  0  0  0
    7.6512  -13.2460   14.2241 N   0  0  0  0  0  0  0  0  0  0  0  0
    7.5302  -15.0662   15.6759 N   0  0  0  0  0  0  0  0  0  0  0  0
    7.5412  -15.5077   17.0568 C   0  0  0  0  0  0  0  0  0  0  0  0
    6.8507  -14.4579   17.9383 C   0  0  0  0  0  0  0  0  0  0  0  0
    6.7471  -15.0296   19.3054 C   0  0  0  0  0  0  0  0  0  0  0  0
    8.0705  -15.0579   19.9971 C   0  0  2  0  0  0  0  0  0  0  0  0
    8.9013  -16.1462   19.4579 N   0  0  0  0  0  0  0  0  0  0  0  0
    7.8923  -15.3594   21.4278 C   0  0  0  0  0  0  0  0  0  0  0  0
    7.2201  -14.6159   22.1778 O   0  0  0  0  0  0  0  0  0  0  0  0
    6.9156  -13.6934   13.6516 N   0  0  0  0  0  0  0  0  0  0  0  0
    8.4770  -16.5202   22.0428 C   0  0  0  0  0  0  0  0  0  0  0  0
    8.1174  -16.8342   23.3950 C   0  0  0  0  0  0  0  0  0  0  0  0
    8.6223  -15.7594   24.2824 O   0  0  0  0  0  0  0  0  0  0  0  0
    9.7994  -15.3257   24.1544 C   0  0  0  0  0  0  0  0  0  0  0  0
    6.8603  -10.6656   26.8902 C   0  0  0  0  0  0  0  0  0  0  0  0
    7.7566  -11.8621   27.0436 C   0  0  2  0  0  0  0  0  0  0  0  0
    7.2483  -13.0547   26.2596 C   0  0  0  0  0  0  0  0  0  0  0  0
    6.0751  -13.6568   26.9808 C   0  0  2  0  0  0  0  0  0  0  0  0
    8.3382  -14.0936   26.0718 N   0  0  0  0  0  0  0  0  0  0  0  0
    7.8009  -15.1927   25.2940 C   0  0  0  0  0  0  0  0  0  0  0  0
    8.6637  -14.6043   27.4233 O   0  0  0  0  0  0  0  0  0  0  0  0
    8.3271  -15.8699   27.8801 O   0  0  0  0  0  0  0  0  0  0  0  0
  2  3  2  0
  2  1  1  0
  4  2  1  0
  5  4  1  0
  6  5  1  0
  7  6  1  0
  8  7  1  0
  8  9  1  6
 10 12  1  0
 10  8  1  0
 11 10  2  0
 13 12  1  0
 14 13  1  0
 14 21  1  0
 15 14  2  0
 16 17  1  0
 17 18  1  0
 18 20  1  0
 18 19  1  6
 20 21  1  1
 20 22  1  0
 22 24  2  0
 22 23  1  0
M  END
$$$$
