RGI.pdb
     RDKit          3D

 24 23  0  0  1  0  0  0  0  0999 V2000
    7.6925  -15.4815   16.1043 N   0  0  0  0  0  0  0  0  0  0  0  0
    8.0389  -14.1678   16.4827 C   0  0  0  0  0  0  0  0  0  0  0  0
    8.3497  -13.2501   15.6388 N   0  0  0  0  0  0  0  0  0  0  0  0
    8.0446  -13.8416   17.8732 N   0  0  0  0  0  0  0  0  0  0  0  0
    8.1477  -14.8721   18.8877 C   0  0  0  0  0  0  0  0  0  0  0  0
    7.2250  -16.0442   18.5262 C   0  0  0  0  0  0  0  0  0  0  0  0
    7.6613  -17.2133   19.3323 C   0  0  0  0  0  0  0  0  0  0  0  0
    6.9616  -17.2709   20.6505 C   0  0  2  0  0  0  0  0  0  0  0  0
    6.5836  -15.9162   21.0835 N   0  0  0  0  0  0  0  0  0  0  0  0
    7.8708  -17.7855   21.6889 C   0  0  0  0  0  0  0  0  0  0  0  0
    8.3335  -18.9478   21.6405 O   0  0  0  0  0  0  0  0  0  0  0  0
    8.6843  -12.3256   15.9588 N   0  0  0  0  0  0  0  0  0  0  0  0
    8.2780  -16.9864   22.8127 C   0  0  0  0  0  0  0  0  0  0  0  0
    9.6733  -16.7026   22.9826 C   0  0  0  0  0  0  0  0  0  0  0  0
    9.8434  -15.8661   24.1947 O   0  0  0  0  0  0  0  0  0  0  0  0
   10.9910  -15.4837   24.5510 C   0  0  0  0  0  0  0  0  0  0  0  0
    5.5461  -12.8845   26.3340 C   0  0  0  0  0  0  0  0  0  0  0  0
    6.5416  -13.9878   26.1099 C   0  0  2  0  0  0  0  0  0  0  0  0
    7.9646  -13.4688   26.0782 C   0  0  0  0  0  0  0  0  0  0  0  0
    8.1635  -12.6469   24.8356 C   0  0  1  0  0  0  0  0  0  0  0  0
    8.9660  -14.6081   26.1195 N   0  0  0  0  0  0  0  0  0  0  0  0
    8.7273  -15.4755   24.9827 C   0  0  0  0  0  0  0  0  0  0  0  0
    8.6725  -15.3756   27.3516 O   0  0  0  0  0  0  0  0  0  0  0  0
    8.9632  -14.9327   28.6334 O   0  0  0  0  0  0  0  0  0  0  0  0
  2  3  2  0
  2  1  1  0
  4  2  1  0
  5  4  1  0
  6  5  1  0
  7  6  1  0
  8  7  1  0
  8  9  1  1
 10 12  1  0
 10  8  1  0
 11 10  2  0
 13 12  1  0
 14 13  1  0
 14 21  1  0
 15 14  2  0
 16 17  1  0
 17 18  1  0
 18 20  1  0
 18 19  1  1
 20 21  1  6
 20 22  1  0
 22 24  2  0
 22 23  1  0
M  END
$$$$
