RGI.pdb
     RDKit          3D

 24 23  0  0  1  0  0  0  0  0999 V2000
    9.5526  -15.0957   16.7438 N   0  0  0  0  0  0  0  0  0  0  0  0
    8.7336  -14.1381   16.1103 C   0  0  0  0  0  0  0  0  0  0  0  0
    8.6101  -14.0499   14.8344 N   0  0  0  0  0  0  0  0  0  0  0  0
    8.0054  -13.2210   16.9279 N   0  0  0  0  0  0  0  0  0  0  0  0
    7.9380  -13.3850   18.3668 C   0  0  0  0  0  0  0  0  0  0  0  0
    7.5303  -14.8263   18.7019 C   0  0  0  0  0  0  0  0  0  0  0  0
    7.8527  -15.0537   20.1341 C   0  0  0  0  0  0  0  0  0  0  0  0
    6.7828  -15.8319   20.8271 C   0  0  2  0  0  0  0  0  0  0  0  0
    5.8762  -14.9207   21.5436 N   0  0  0  0  0  0  0  0  0  0  0  0
    7.3722  -16.7043   21.8573 C   0  0  0  0  0  0  0  0  0  0  0  0
    7.1539  -17.9369   21.8787 O   0  0  0  0  0  0  0  0  0  0  0  0
    7.9993  -13.3326   14.4084 N   0  0  0  0  0  0  0  0  0  0  0  0
    8.2288  -16.1932   22.8928 C   0  0  0  0  0  0  0  0  0  0  0  0
    8.7794  -17.1143   23.8441 C   0  0  0  0  0  0  0  0  0  0  0  0
    9.5088  -16.3463   24.8812 O   0  0  0  0  0  0  0  0  0  0  0  0
   10.6716  -15.9136   24.6560 C   0  0  0  0  0  0  0  0  0  0  0  0
    7.0521  -12.4166   27.0107 C   0  0  0  0  0  0  0  0  0  0  0  0
    8.0844  -13.3815   26.4987 C   0  0  2  0  0  0  0  0  0  0  0  0
    8.7174  -14.1809   27.6192 C   0  0  0  0  0  0  0  0  0  0  0  0
    9.4598  -13.2478   28.5340 C   0  0  2  0  0  0  0  0  0  0  0  0
    9.6574  -15.2404   27.0749 N   0  0  0  0  0  0  0  0  0  0  0  0
    8.9231  -16.0788   26.1480 C   0  0  0  0  0  0  0  0  0  0  0  0
   10.0572  -16.0755   28.2309 O   0  0  0  0  0  0  0  0  0  0  0  0
    9.4886  -17.3024   28.5395 O   0  0  0  0  0  0  0  0  0  0  0  0
  2  3  2  0
  2  1  1  0
  4  2  1  0
  5  4  1  0
  6  5  1  0
  7  6  1  0
  8  7  1  0
  8  9  1  1
 10 12  1  0
 10  8  1  0
 11 10  2  0
 13 12  1  0
 14 13  1  0
 14 21  1  0
 15 14  2  0
 16 17  1  0
 17 18  1  0
 18 20  1  0
 18 19  1  1
 20 21  1  6
 20 22  1  0
 22 24  2  0
 22 23  1  0
M  END
$$$$
