RGI.pdb
     RDKit          3D

 24 23  0  0  1  0  0  0  0  0999 V2000
    8.0139  -13.3760   15.6985 N   0  0  0  0  0  0  0  0  0  0  0  0
    8.7643  -14.5243   16.0264 C   0  0  0  0  0  0  0  0  0  0  0  0
    9.2176  -15.3446   15.1475 N   0  0  0  0  0  0  0  0  0  0  0  0
    9.0333  -14.7883   17.4040 N   0  0  0  0  0  0  0  0  0  0  0  0
    8.3594  -14.0539   18.4568 C   0  0  0  0  0  0  0  0  0  0  0  0
    6.8798  -14.4597   18.5013 C   0  0  0  0  0  0  0  0  0  0  0  0
    6.5486  -14.7637   19.9172 C   0  0  0  0  0  0  0  0  0  0  0  0
    7.6557  -15.4965   20.6012 C   0  0  2  0  0  0  0  0  0  0  0  0
    7.7338  -16.8784   20.1015 N   0  0  0  0  0  0  0  0  0  0  0  0
    7.3803  -15.6060   22.0440 C   0  0  0  0  0  0  0  0  0  0  0  0
    7.2100  -14.5930   22.7597 O   0  0  0  0  0  0  0  0  0  0  0  0
    9.7874  -16.1609   15.4269 N   0  0  0  0  0  0  0  0  0  0  0  0
    7.2910  -16.8768   22.7108 C   0  0  0  0  0  0  0  0  0  0  0  0
    6.9511  -16.8978   24.1038 C   0  0  0  0  0  0  0  0  0  0  0  0
    8.0381  -16.2402   24.8677 O   0  0  0  0  0  0  0  0  0  0  0  0
    9.2098  -16.1979   24.4035 C   0  0  0  0  0  0  0  0  0  0  0  0
    6.8204  -11.5812   26.7378 C   0  0  0  0  0  0  0  0  0  0  0  0
    7.5157  -12.7969   26.1926 C   0  0  2  0  0  0  0  0  0  0  0  0
    8.2385  -13.5698   27.2767 C   0  0  0  0  0  0  0  0  0  0  0  0
    9.3081  -12.6995   27.8749 C   0  0  2  0  0  0  0  0  0  0  0  0
    8.8472  -14.8469   26.7282 N   0  0  0  0  0  0  0  0  0  0  0  0
    7.7924  -15.6444   26.1342 C   0  0  0  0  0  0  0  0  0  0  0  0
    9.3809  -15.5878   27.8942 O   0  0  0  0  0  0  0  0  0  0  0  0
   10.6900  -15.4957   28.3433 O   0  0  0  0  0  0  0  0  0  0  0  0
  2  3  2  0
  2  1  1  0
  4  2  1  0
  5  4  1  0
  6  5  1  0
  7  6  1  0
  8  7  1  0
  8  9  1  6
 10 12  1  0
 10  8  1  0
 11 10  2  0
 13 12  1  0
 14 13  1  0
 14 21  1  0
 15 14  2  0
 16 17  1  0
 17 18  1  0
 18 20  1  0
 18 19  1  1
 20 21  1  6
 20 22  1  0
 22 24  2  0
 22 23  1  0
M  END
$$$$
