RGI.pdb
     RDKit          3D

 24 23  0  0  1  0  0  0  0  0999 V2000
    7.2459  -13.1657   15.8482 N   0  0  0  0  0  0  0  0  0  0  0  0
    8.3911  -13.8830   16.2522 C   0  0  0  0  0  0  0  0  0  0  0  0
    8.8936  -14.8499   15.5712 N   0  0  0  0  0  0  0  0  0  0  0  0
    9.0234  -13.5164   17.4792 N   0  0  0  0  0  0  0  0  0  0  0  0
    8.5328  -14.0031   18.7536 C   0  0  0  0  0  0  0  0  0  0  0  0
    7.1615  -14.6644   18.5585 C   0  0  0  0  0  0  0  0  0  0  0  0
    6.7384  -15.1993   19.8783 C   0  0  0  0  0  0  0  0  0  0  0  0
    7.7703  -16.1045   20.4670 C   0  0  2  0  0  0  0  0  0  0  0  0
    7.7418  -17.4121   19.7926 N   0  0  0  0  0  0  0  0  0  0  0  0
    7.4639  -16.3754   21.8821 C   0  0  0  0  0  0  0  0  0  0  0  0
    6.3558  -16.8361   22.2385 O   0  0  0  0  0  0  0  0  0  0  0  0
    9.7599  -15.3225   15.8796 N   0  0  0  0  0  0  0  0  0  0  0  0
    8.4157  -16.1281   22.9311 C   0  0  0  0  0  0  0  0  0  0  0  0
    8.0706  -16.5011   24.2720 C   0  0  0  0  0  0  0  0  0  0  0  0
    9.1673  -16.0839   25.1780 O   0  0  0  0  0  0  0  0  0  0  0  0
   10.3206  -15.8558   24.7219 C   0  0  0  0  0  0  0  0  0  0  0  0
    8.0823  -12.2195   28.3673 C   0  0  0  0  0  0  0  0  0  0  0  0
    8.6758  -13.2807   27.4839 C   0  0  2  0  0  0  0  0  0  0  0  0
    9.4610  -14.3045   28.2780 C   0  0  0  0  0  0  0  0  0  0  0  0
   10.5692  -13.6110   29.0196 C   0  0  2  0  0  0  0  0  0  0  0  0
   10.0290  -15.3828   27.3742 N   0  0  0  0  0  0  0  0  0  0  0  0
    8.9516  -15.9312   26.5742 C   0  0  0  0  0  0  0  0  0  0  0  0
   10.5283  -16.4538   28.2670 O   0  0  0  0  0  0  0  0  0  0  0  0
   11.8440  -16.5638   28.6920 O   0  0  0  0  0  0  0  0  0  0  0  0
  2  3  2  0
  2  1  1  0
  4  2  1  0
  5  4  1  0
  6  5  1  0
  7  6  1  0
  8  7  1  0
  8  9  1  6
 10 12  1  0
 10  8  1  0
 11 10  2  0
 13 12  1  0
 14 13  1  0
 14 21  1  0
 15 14  2  0
 16 17  1  0
 17 18  1  0
 18 20  1  0
 18 19  1  1
 20 21  1  6
 20 22  1  0
 22 24  2  0
 22 23  1  0
M  END
$$$$
