EGW.pdb
     RDKit          3D

 28 29  0  0  1  0  0  0  0  0999 V2000
   22.3279  -19.6207  -15.4247 N   0  0  0  0  0  0  0  0  0  0  0  0
   21.6537  -19.0504  -14.2359 C   0  0  1  0  0  0  0  0  0  0  0  0
   20.1648  -19.2182  -14.3853 C   0  0  0  0  0  0  0  0  0  0  0  0
   19.7653  -19.0185  -15.8153 C   0  0  0  0  0  0  0  0  0  0  0  0
   19.7996  -20.2982  -16.5801 C   0  0  0  0  0  0  0  0  0  0  0  0
   20.1104  -20.2808  -17.7824 O   0  0  0  0  0  0  0  0  0  0  0  0
   22.1272  -19.8015  -13.0621 C   0  0  0  0  0  0  0  0  0  0  0  0
   21.6477  -19.6352  -11.9059 O   0  0  0  0  0  0  0  0  0  0  0  0
   19.4892  -21.4779  -15.9517 O   0  0  0  0  0  0  0  0  0  0  0  0
   23.1761  -20.7627  -13.2362 N   0  0  0  0  0  0  0  0  0  0  0  0
   23.6866  -21.5191  -12.1388 C   0  0  0  0  0  0  0  0  0  0  0  0
   24.8090  -20.8759  -11.4215 C   0  0  0  0  0  0  0  0  0  0  0  0
   25.6425  -20.1361  -12.0536 O   0  0  0  0  0  0  0  0  0  0  0  0
   25.0706  -20.9972  -10.0333 N   0  0  0  0  0  0  0  0  0  0  0  0
   26.2184  -20.3355   -9.4078 C   0  0  1  0  0  0  0  0  0  0  0  0
   26.1067  -20.4114   -7.8922 C   0  0  0  0  0  0  0  0  0  0  0  0
   27.1832  -19.6806   -7.2203 C   0  0  0  0  0  0  0  0  0  0  0  0
   27.7054  -18.4581   -7.5775 C   0  0  0  0  0  0  0  0  0  0  0  0
   28.6862  -18.1061   -6.7174 N   0  0  0  0  0  0  0  0  0  0  0  0
   28.8076  -19.0968   -5.7964 C   0  0  0  0  0  0  0  0  0  0  0  0
   29.6481  -19.2264   -4.7207 C   0  0  0  0  0  0  0  0  0  0  0  0
   29.5602  -20.3551   -3.9345 C   0  0  0  0  0  0  0  0  0  0  0  0
   28.6461  -21.3615   -4.2020 C   0  0  0  0  0  0  0  0  0  0  0  0
   27.8122  -21.2067   -5.2899 C   0  0  0  0  0  0  0  0  0  0  0  0
   27.8715  -20.0913   -6.0988 C   0  0  0  0  0  0  0  0  0  0  0  0
   27.4377  -21.0199   -9.8930 C   0  0  0  0  0  0  0  0  0  0  0  0
   28.6226  -20.3282  -10.0954 O   0  0  0  0  0  0  0  0  0  0  0  0
   27.4286  -22.2498  -10.1342 O   0  0  0  0  0  0  0  0  0  0  0  0
  2  1  1  6
  3  2  1  0
  3  4  1  0
  5  4  1  0
  5  6  2  0
  7  8  2  0
  7  2  1  0
  9  5  1  0
 10  7  1  0
 11 10  1  0
 11 12  1  0
 12 14  1  0
 13 12  2  0
 14 15  1  0
 15 16  1  1
 15 26  1  0
 17 25  1  0
 17 16  1  0
 18 17  2  0
 19 18  1  0
 19 20  1  0
 20 21  1  0
 20 25  2  0
 21 22  2  0
 22 23  1  0
 24 23  2  0
 25 24  1  0
 26 28  2  0
 26 27  1  0
M  END
$$$$
