EGW.pdb
     RDKit          3D

 28 29  0  0  1  0  0  0  0  0999 V2000
   24.0369  -20.5307  -20.1801 N   0  0  0  0  0  0  0  0  0  0  0  0
   25.1629  -19.5695  -20.2170 C   0  0  1  0  0  0  0  0  0  0  0  0
   24.6395  -18.2110  -20.6015 C   0  0  0  0  0  0  0  0  0  0  0  0
   23.1765  -18.1170  -20.2933 C   0  0  0  0  0  0  0  0  0  0  0  0
   22.9348  -17.5225  -18.9471 C   0  0  0  0  0  0  0  0  0  0  0  0
   23.3673  -16.3854  -18.6972 O   0  0  0  0  0  0  0  0  0  0  0  0
   25.7398  -19.5196  -18.8640 C   0  0  0  0  0  0  0  0  0  0  0  0
   26.7778  -18.8554  -18.5882 O   0  0  0  0  0  0  0  0  0  0  0  0
   22.2401  -18.2336  -18.0013 O   0  0  0  0  0  0  0  0  0  0  0  0
   25.0983  -20.2543  -17.8137 N   0  0  0  0  0  0  0  0  0  0  0  0
   25.6028  -20.2445  -16.4786 C   0  0  0  0  0  0  0  0  0  0  0  0
   24.7614  -20.9689  -15.5011 C   0  0  0  0  0  0  0  0  0  0  0  0
   23.6343  -21.4631  -15.8573 O   0  0  0  0  0  0  0  0  0  0  0  0
   25.0915  -21.1871  -14.1395 N   0  0  0  0  0  0  0  0  0  0  0  0
   24.2338  -21.9857  -13.2603 C   0  0  1  0  0  0  0  0  0  0  0  0
   25.0410  -22.5274  -12.0896 C   0  0  0  0  0  0  0  0  0  0  0  0
   25.7333  -21.4659  -11.3559 C   0  0  0  0  0  0  0  0  0  0  0  0
   25.2141  -20.6712  -10.3591 C   0  0  0  0  0  0  0  0  0  0  0  0
   26.1549  -19.8053   -9.9222 N   0  0  0  0  0  0  0  0  0  0  0  0
   27.2906  -20.0315  -10.6317 C   0  0  0  0  0  0  0  0  0  0  0  0
   28.5208  -19.4284  -10.5759 C   0  0  0  0  0  0  0  0  0  0  0  0
   29.5169  -19.8595  -11.4254 C   0  0  0  0  0  0  0  0  0  0  0  0
   29.3086  -20.8851  -12.3334 C   0  0  0  0  0  0  0  0  0  0  0  0
   28.0622  -21.4751  -12.3695 C   0  0  0  0  0  0  0  0  0  0  0  0
   27.0416  -21.0702  -11.5350 C   0  0  0  0  0  0  0  0  0  0  0  0
   23.1381  -21.1049  -12.7974 C   0  0  0  0  0  0  0  0  0  0  0  0
   23.2371  -19.7241  -12.8799 O   0  0  0  0  0  0  0  0  0  0  0  0
   22.0870  -21.5895  -12.3166 O   0  0  0  0  0  0  0  0  0  0  0  0
  2  1  1  1
  3  2  1  0
  3  4  1  0
  5  4  1  0
  5  6  2  0
  7  8  2  0
  7  2  1  0
  9  5  1  0
 10  7  1  0
 11 10  1  0
 11 12  1  0
 12 14  1  0
 13 12  2  0
 14 15  1  0
 15 16  1  1
 15 26  1  0
 17 25  1  0
 17 16  1  0
 18 17  2  0
 19 18  1  0
 19 20  1  0
 20 21  1  0
 20 25  2  0
 21 22  2  0
 22 23  1  0
 24 23  2  0
 25 24  1  0
 26 28  2  0
 26 27  1  0
M  END
$$$$
