EGW.pdb
     RDKit          3D

 28 29  0  0  1  0  0  0  0  0999 V2000
   28.0529  -19.6714  -17.5476 N   0  0  0  0  0  0  0  0  0  0  0  0
   26.9069  -19.8053  -16.6192 C   0  0  1  0  0  0  0  0  0  0  0  0
   26.2333  -21.1312  -16.8550 C   0  0  0  0  0  0  0  0  0  0  0  0
   24.7892  -21.0516  -16.4644 C   0  0  0  0  0  0  0  0  0  0  0  0
   23.8914  -21.1669  -17.6496 C   0  0  0  0  0  0  0  0  0  0  0  0
   24.3841  -21.3938  -18.7668 O   0  0  0  0  0  0  0  0  0  0  0  0
   27.4446  -19.7531  -15.2502 C   0  0  0  0  0  0  0  0  0  0  0  0
   28.4485  -20.4261  -14.8846 O   0  0  0  0  0  0  0  0  0  0  0  0
   22.5355  -21.0220  -17.4958 O   0  0  0  0  0  0  0  0  0  0  0  0
   26.8039  -18.9032  -14.2901 N   0  0  0  0  0  0  0  0  0  0  0  0
   27.2359  -18.8526  -12.9307 C   0  0  0  0  0  0  0  0  0  0  0  0
   26.6781  -19.9194  -12.0711 C   0  0  0  0  0  0  0  0  0  0  0  0
   25.8486  -20.7701  -12.5505 O   0  0  0  0  0  0  0  0  0  0  0  0
   26.9844  -20.1101  -10.6999 N   0  0  0  0  0  0  0  0  0  0  0  0
   26.4565  -21.2506   -9.9470 C   0  0  1  0  0  0  0  0  0  0  0  0
   27.3976  -21.6076   -8.8058 C   0  0  0  0  0  0  0  0  0  0  0  0
   27.5597  -20.5049   -7.8561 C   0  0  0  0  0  0  0  0  0  0  0  0
   27.0645  -19.2262   -7.9763 C   0  0  0  0  0  0  0  0  0  0  0  0
   27.4197  -18.4906   -6.9000 N   0  0  0  0  0  0  0  0  0  0  0  0
   28.1475  -19.2858   -6.0741 C   0  0  0  0  0  0  0  0  0  0  0  0
   28.7371  -19.0248   -4.8639 C   0  0  0  0  0  0  0  0  0  0  0  0
   29.4309  -20.0308   -4.2262 C   0  0  0  0  0  0  0  0  0  0  0  0
   29.5483  -21.2976   -4.7750 C   0  0  0  0  0  0  0  0  0  0  0  0
   28.9460  -21.5342   -5.9933 C   0  0  0  0  0  0  0  0  0  0  0  0
   28.2440  -20.5523   -6.6603 C   0  0  0  0  0  0  0  0  0  0  0  0
   25.1204  -20.8629   -9.4420 C   0  0  0  0  0  0  0  0  0  0  0  0
   24.6458  -19.5666   -9.5750 O   0  0  0  0  0  0  0  0  0  0  0  0
   24.3806  -21.7029   -8.8782 O   0  0  0  0  0  0  0  0  0  0  0  0
  2  1  1  6
  3  2  1  0
  3  4  1  0
  5  4  1  0
  5  6  2  0
  7  8  2  0
  7  2  1  0
  9  5  1  0
 10  7  1  0
 11 10  1  0
 11 12  1  0
 12 14  1  0
 13 12  2  0
 14 15  1  0
 15 16  1  1
 15 26  1  0
 17 25  1  0
 17 16  1  0
 18 17  2  0
 19 18  1  0
 19 20  1  0
 20 21  1  0
 20 25  2  0
 21 22  2  0
 22 23  1  0
 24 23  2  0
 25 24  1  0
 26 28  2  0
 26 27  1  0
M  END
$$$$
