EGW.pdb
     RDKit          3D

 28 29  0  0  1  0  0  0  0  0999 V2000
   25.2369  -18.2165  -14.4956 N   0  0  0  0  0  0  0  0  0  0  0  0
   24.4062  -19.4082  -14.7838 C   0  0  1  0  0  0  0  0  0  0  0  0
   24.3463  -19.6191  -16.2735 C   0  0  0  0  0  0  0  0  0  0  0  0
   23.5339  -18.5358  -16.9144 C   0  0  0  0  0  0  0  0  0  0  0  0
   22.0712  -18.7691  -16.7409 C   0  0  0  0  0  0  0  0  0  0  0  0
   21.5877  -19.8674  -17.0606 O   0  0  0  0  0  0  0  0  0  0  0  0
   25.0570  -20.5609  -14.1404 C   0  0  0  0  0  0  0  0  0  0  0  0
   24.6020  -21.7359  -14.2232 O   0  0  0  0  0  0  0  0  0  0  0  0
   21.2765  -17.7729  -16.2319 O   0  0  0  0  0  0  0  0  0  0  0  0
   26.2575  -20.3433  -13.3882 N   0  0  0  0  0  0  0  0  0  0  0  0
   26.9349  -21.4161  -12.7346 C   0  0  0  0  0  0  0  0  0  0  0  0
   26.5693  -21.5948  -11.3124 C   0  0  0  0  0  0  0  0  0  0  0  0
   27.1005  -22.5330  -10.6201 O   0  0  0  0  0  0  0  0  0  0  0  0
   25.6452  -20.7916  -10.5973 N   0  0  0  0  0  0  0  0  0  0  0  0
   25.3760  -21.0134   -9.1744 C   0  0  1  0  0  0  0  0  0  0  0  0
   25.9370  -19.8651   -8.3485 C   0  0  0  0  0  0  0  0  0  0  0  0
   27.3632  -20.0337   -8.0624 C   0  0  0  0  0  0  0  0  0  0  0  0
   28.3082  -20.6224   -8.8717 C   0  0  0  0  0  0  0  0  0  0  0  0
   29.5165  -20.5921   -8.2677 N   0  0  0  0  0  0  0  0  0  0  0  0
   29.3646  -19.9841   -7.0629 C   0  0  0  0  0  0  0  0  0  0  0  0
   30.2738  -19.7069   -6.0746 C   0  0  0  0  0  0  0  0  0  0  0  0
   29.8453  -19.0693   -4.9302 C   0  0  0  0  0  0  0  0  0  0  0  0
   28.5214  -18.7012   -4.7520 C   0  0  0  0  0  0  0  0  0  0  0  0
   27.6269  -18.9915   -5.7612 C   0  0  0  0  0  0  0  0  0  0  0  0
   28.0193  -19.6283   -6.9198 C   0  0  0  0  0  0  0  0  0  0  0  0
   23.9084  -21.1233   -9.0171 C   0  0  0  0  0  0  0  0  0  0  0  0
   23.3414  -21.6146   -7.8507 O   0  0  0  0  0  0  0  0  0  0  0  0
   23.1375  -20.7725   -9.9410 O   0  0  0  0  0  0  0  0  0  0  0  0
  2  1  1  6
  3  2  1  0
  3  4  1  0
  5  4  1  0
  5  6  2  0
  7  8  2  0
  7  2  1  0
  9  5  1  0
 10  7  1  0
 11 10  1  0
 11 12  1  0
 12 14  1  0
 13 12  2  0
 14 15  1  0
 15 16  1  1
 15 26  1  0
 17 25  1  0
 17 16  1  0
 18 17  2  0
 19 18  1  0
 19 20  1  0
 20 21  1  0
 20 25  2  0
 21 22  2  0
 22 23  1  0
 24 23  2  0
 25 24  1  0
 26 28  2  0
 26 27  1  0
M  END
$$$$
