EGW.pdb
     RDKit          3D

 28 29  0  0  1  0  0  0  0  0999 V2000
   27.5912  -17.2440  -15.3790 N   0  0  0  0  0  0  0  0  0  0  0  0
   26.5656  -18.2519  -15.0248 C   0  0  1  0  0  0  0  0  0  0  0  0
   25.7696  -18.5989  -16.2549 C   0  0  0  0  0  0  0  0  0  0  0  0
   24.4042  -17.9878  -16.1737 C   0  0  0  0  0  0  0  0  0  0  0  0
   24.4447  -16.5164  -16.4135 C   0  0  0  0  0  0  0  0  0  0  0  0
   24.3872  -16.0874  -17.5775 O   0  0  0  0  0  0  0  0  0  0  0  0
   27.2753  -19.4444  -14.5344 C   0  0  0  0  0  0  0  0  0  0  0  0
   28.1166  -20.0743  -15.2342 O   0  0  0  0  0  0  0  0  0  0  0  0
   24.5447  -15.6539  -15.3509 O   0  0  0  0  0  0  0  0  0  0  0  0
   27.0019  -19.9118  -13.2073 N   0  0  0  0  0  0  0  0  0  0  0  0
   27.6907  -21.0322  -12.6527 C   0  0  0  0  0  0  0  0  0  0  0  0
   27.3776  -21.3013  -11.2323 C   0  0  0  0  0  0  0  0  0  0  0  0
   27.8937  -22.3108  -10.6354 O   0  0  0  0  0  0  0  0  0  0  0  0
   26.5226  -20.5152  -10.4190 N   0  0  0  0  0  0  0  0  0  0  0  0
   25.6571  -21.1219   -9.4045 C   0  0  1  0  0  0  0  0  0  0  0  0
   25.9070  -20.4787   -8.0482 C   0  0  0  0  0  0  0  0  0  0  0  0
   27.3289  -20.4579   -7.6987 C   0  0  0  0  0  0  0  0  0  0  0  0
   28.3726  -20.9693   -8.4362 C   0  0  0  0  0  0  0  0  0  0  0  0
   29.5404  -20.7610   -7.7893 N   0  0  0  0  0  0  0  0  0  0  0  0
   29.2635  -20.1135   -6.6282 C   0  0  0  0  0  0  0  0  0  0  0  0
   30.0881  -19.6765   -5.6235 C   0  0  0  0  0  0  0  0  0  0  0  0
   29.5359  -19.0363   -4.5349 C   0  0  0  0  0  0  0  0  0  0  0  0
   28.1710  -18.8226   -4.4288 C   0  0  0  0  0  0  0  0  0  0  0  0
   27.3635  -19.2719   -5.4530 C   0  0  0  0  0  0  0  0  0  0  0  0
   27.8804  -19.9164   -6.5572 C   0  0  0  0  0  0  0  0  0  0  0  0
   24.2582  -20.9235   -9.8451 C   0  0  0  0  0  0  0  0  0  0  0  0
   23.9606  -20.2862  -11.0403 O   0  0  0  0  0  0  0  0  0  0  0  0
   23.3023  -21.3297   -9.1436 O   0  0  0  0  0  0  0  0  0  0  0  0
  2  1  1  6
  3  2  1  0
  3  4  1  0
  5  4  1  0
  5  6  2  0
  7  8  2  0
  7  2  1  0
  9  5  1  0
 10  7  1  0
 11 10  1  0
 11 12  1  0
 12 14  1  0
 13 12  2  0
 14 15  1  0
 15 16  1  1
 15 26  1  0
 17 25  1  0
 17 16  1  0
 18 17  2  0
 19 18  1  0
 19 20  1  0
 20 21  1  0
 20 25  2  0
 21 22  2  0
 22 23  1  0
 24 23  2  0
 25 24  1  0
 26 28  2  0
 26 27  1  0
M  END
$$$$
