SSP.pdb
     RDKit          3D

 20 20  0  0  1  0  0  0  0  0999 V2000
   11.3385  -14.0286   18.8822 O   0  0  0  0  0  0  0  0  0  0  0  0
   10.5237  -13.4226   19.8548 C   0  0  0  0  0  0  0  0  0  0  0  0
    9.1163  -13.8973   19.5892 C   0  0  2  0  0  0  0  0  0  0  0  0
    8.5225  -13.1996   18.4967 N   0  0  0  0  0  0  0  0  0  0  0  0
    8.2477  -13.7921   20.7816 C   0  0  0  0  0  0  0  0  0  0  0  0
    7.5270  -12.7700   20.8868 O   0  0  0  0  0  0  0  0  0  0  0  0
    7.1565  -16.9237   23.2232 O   0  0  0  0  0  0  0  0  0  0  0  0
    6.4025  -15.7855   22.9493 C   0  0  0  0  0  0  0  0  0  0  0  0
    7.2911  -14.5373   22.9646 C   0  0  2  0  0  0  0  0  0  0  0  0
    8.1763  -14.7542   21.7977 N   0  0  0  0  0  0  0  0  0  0  0  0
    8.0781  -14.3993   24.1880 C   0  0  0  0  0  0  0  0  0  0  0  0
    9.1999  -15.0297   24.1989 O   0  0  0  0  0  0  0  0  0  0  0  0
    7.6886  -13.6371   25.3174 N   0  0  0  0  0  0  0  0  0  0  0  0
    6.3945  -12.9154   25.2945 C   0  0  0  0  0  0  0  0  0  0  0  0
    6.1015  -12.7874   26.7706 C   0  0  0  0  0  0  0  0  0  0  0  0
    7.4776  -12.3668   27.2730 C   0  0  0  0  0  0  0  0  0  0  0  0
    8.3339  -13.4247   26.5770 C   0  0  1  0  0  0  0  0  0  0  0  0
    8.3450  -14.6312   27.4319 C   0  0  0  0  0  0  0  0  0  0  0  0
    7.5852  -15.5815   27.1557 O   0  0  0  0  0  0  0  0  0  0  0  0
    9.1738  -14.7354   28.5288 O   0  0  0  0  0  0  0  0  0  0  0  0
  2  1  1  0
  3  5  1  0
  3  2  1  0
  3  4  1  6
  5  6  2  0
  7  8  1  0
  9  8  1  1
 10  9  1  0
 10  5  1  0
 11 12  2  0
 11  9  1  0
 13 11  1  0
 14 13  1  0
 14 15  1  0
 16 17  1  0
 16 15  1  0
 17 13  1  0
 17 18  1  1
 18 20  1  0
 19 18  2  0
M  END
$$$$
