SSP.pdb
     RDKit          3D

 20 20  0  0  1  0  0  0  0  0999 V2000
   11.0220  -13.4304   20.0993 O   0  0  0  0  0  0  0  0  0  0  0  0
   10.3172  -14.5469   19.6159 C   0  0  0  0  0  0  0  0  0  0  0  0
    8.8809  -14.1113   19.4612 C   0  0  2  0  0  0  0  0  0  0  0  0
    8.7716  -12.9263   18.6758 N   0  0  0  0  0  0  0  0  0  0  0  0
    8.2048  -13.9139   20.7616 C   0  0  0  0  0  0  0  0  0  0  0  0
    8.0803  -12.7367   21.1787 O   0  0  0  0  0  0  0  0  0  0  0  0
    6.6313  -16.9978   23.0816 O   0  0  0  0  0  0  0  0  0  0  0  0
    6.0296  -15.7438   23.0150 C   0  0  0  0  0  0  0  0  0  0  0  0
    7.0901  -14.6471   22.8725 C   0  0  2  0  0  0  0  0  0  0  0  0
    7.6959  -14.9499   21.5559 N   0  0  0  0  0  0  0  0  0  0  0  0
    8.1040  -14.6791   23.9243 C   0  0  0  0  0  0  0  0  0  0  0  0
    9.1378  -15.4039   23.6752 O   0  0  0  0  0  0  0  0  0  0  0  0
    8.0143  -13.9810   25.1542 N   0  0  0  0  0  0  0  0  0  0  0  0
    6.8714  -13.0671   25.3881 C   0  0  0  0  0  0  0  0  0  0  0  0
    6.8178  -13.0416   26.8974 C   0  0  0  0  0  0  0  0  0  0  0  0
    8.3026  -12.8932   27.2075 C   0  0  0  0  0  0  0  0  0  0  0  0
    8.8591  -13.9978   26.3093 C   0  0  1  0  0  0  0  0  0  0  0  0
    8.7873  -15.2697   27.0599 C   0  0  0  0  0  0  0  0  0  0  0  0
    9.6049  -15.4835   27.9777 O   0  0  0  0  0  0  0  0  0  0  0  0
    7.8392  -16.2288   26.7730 O   0  0  0  0  0  0  0  0  0  0  0  0
  2  1  1  0
  3  5  1  0
  3  2  1  0
  3  4  1  1
  5  6  2  0
  7  8  1  0
  9  8  1  1
 10  9  1  0
 10  5  1  0
 11 12  2  0
 11  9  1  0
 13 11  1  0
 14 13  1  0
 14 15  1  0
 16 17  1  0
 16 15  1  0
 17 13  1  0
 17 18  1  1
 18 20  1  0
 19 18  2  0
M  END
$$$$
