SSP.pdb
     RDKit          3D

 20 20  0  0  1  0  0  0  0  0999 V2000
    6.1145  -19.6019   20.9538 O   0  0  0  0  0  0  0  0  0  0  0  0
    5.5073  -20.1519   22.0966 C   0  0  0  0  0  0  0  0  0  0  0  0
    4.6550  -19.0601   22.6950 C   0  0  2  0  0  0  0  0  0  0  0  0
    3.3449  -19.0466   22.1325 N   0  0  0  0  0  0  0  0  0  0  0  0
    5.2708  -17.7221   22.5612 C   0  0  0  0  0  0  0  0  0  0  0  0
    4.8675  -16.9880   21.6265 O   0  0  0  0  0  0  0  0  0  0  0  0
    8.3577  -16.4235   24.9431 O   0  0  0  0  0  0  0  0  0  0  0  0
    7.3838  -15.5030   24.5646 C   0  0  0  0  0  0  0  0  0  0  0  0
    6.8135  -15.8612   23.1883 C   0  0  2  0  0  0  0  0  0  0  0  0
    6.2706  -17.2215   23.4055 N   0  0  0  0  0  0  0  0  0  0  0  0
    7.8187  -15.8724   22.1277 C   0  0  0  0  0  0  0  0  0  0  0  0
    8.4513  -16.9827   21.9759 O   0  0  0  0  0  0  0  0  0  0  0  0
    8.1208  -14.7705   21.2896 N   0  0  0  0  0  0  0  0  0  0  0  0
    7.3754  -13.5014   21.4626 C   0  0  0  0  0  0  0  0  0  0  0  0
    8.3511  -12.5046   20.8833 C   0  0  0  0  0  0  0  0  0  0  0  0
    8.7762  -13.2568   19.6278 C   0  0  0  0  0  0  0  0  0  0  0  0
    9.0869  -14.6206   20.2444 C   0  0  1  0  0  0  0  0  0  0  0  0
   10.4782  -14.5843   20.7438 C   0  0  0  0  0  0  0  0  0  0  0  0
   10.6843  -14.4346   21.9652 O   0  0  0  0  0  0  0  0  0  0  0  0
   11.5572  -14.7117   19.8950 O   0  0  0  0  0  0  0  0  0  0  0  0
  2  1  1  0
  3  5  1  0
  3  2  1  0
  3  4  1  6
  5  6  2  0
  7  8  1  0
  9  8  1  1
 10  9  1  0
 10  5  1  0
 11 12  2  0
 11  9  1  0
 13 11  1  0
 14 13  1  0
 14 15  1  0
 16 17  1  0
 16 15  1  0
 17 13  1  0
 17 18  1  1
 18 20  1  0
 19 18  2  0
M  END
$$$$
