SSP.pdb
     RDKit          3D

 20 20  0  0  1  0  0  0  0  0999 V2000
   12.3908  -16.7050   21.4681 O   0  0  0  0  0  0  0  0  0  0  0  0
   11.4653  -17.7554   21.5999 C   0  0  0  0  0  0  0  0  0  0  0  0
   10.1041  -17.1614   21.3339 C   0  0  2  0  0  0  0  0  0  0  0  0
   10.1175  -16.3021   20.1962 N   0  0  0  0  0  0  0  0  0  0  0  0
    9.5639  -16.4348   22.5033 C   0  0  0  0  0  0  0  0  0  0  0  0
    9.6338  -15.1817   22.4915 O   0  0  0  0  0  0  0  0  0  0  0  0
    7.6469  -18.2459   25.7526 O   0  0  0  0  0  0  0  0  0  0  0  0
    7.2475  -17.0274   25.2095 C   0  0  0  0  0  0  0  0  0  0  0  0
    8.4650  -16.2265   24.7361 C   0  0  2  0  0  0  0  0  0  0  0  0
    8.9815  -17.0501   23.6193 N   0  0  0  0  0  0  0  0  0  0  0  0
    9.4872  -16.0595   25.7669 C   0  0  0  0  0  0  0  0  0  0  0  0
   10.4333  -16.9318   25.7551 O   0  0  0  0  0  0  0  0  0  0  0  0
    9.4933  -15.0283   26.7388 N   0  0  0  0  0  0  0  0  0  0  0  0
    8.3726  -14.0595   26.7758 C   0  0  0  0  0  0  0  0  0  0  0  0
    8.4357  -13.5895   28.2098 C   0  0  0  0  0  0  0  0  0  0  0  0
    9.9402  -13.3913   28.3522 C   0  0  0  0  0  0  0  0  0  0  0  0
   10.4248  -14.7242   27.7819 C   0  0  1  0  0  0  0  0  0  0  0  0
   10.4101  -15.7167   28.8779 C   0  0  0  0  0  0  0  0  0  0  0  0
    9.4974  -16.5663   28.9193 O   0  0  0  0  0  0  0  0  0  0  0  0
   11.3796  -15.7294   29.8581 O   0  0  0  0  0  0  0  0  0  0  0  0
  2  1  1  0
  3  5  1  0
  3  2  1  0
  3  4  1  6
  5  6  2  0
  7  8  1  0
  9  8  1  1
 10  9  1  0
 10  5  1  0
 11 12  2  0
 11  9  1  0
 13 11  1  0
 14 13  1  0
 14 15  1  0
 16 17  1  0
 16 15  1  0
 17 13  1  0
 17 18  1  1
 18 20  1  0
 19 18  2  0
M  END
$$$$
