SSP.pdb
     RDKit          3D

 20 20  0  0  1  0  0  0  0  0999 V2000
   12.5965  -16.4241   23.3610 O   0  0  0  0  0  0  0  0  0  0  0  0
   12.0591  -17.1208   22.2643 C   0  0  0  0  0  0  0  0  0  0  0  0
   11.4734  -16.0799   21.3423 C   0  0  2  0  0  0  0  0  0  0  0  0
   12.4709  -15.1829   20.8593 N   0  0  0  0  0  0  0  0  0  0  0  0
   10.3764  -15.3152   21.9741 C   0  0  0  0  0  0  0  0  0  0  0  0
   10.6773  -14.2516   22.5686 O   0  0  0  0  0  0  0  0  0  0  0  0
    5.6905  -15.2321   23.2139 O   0  0  0  0  0  0  0  0  0  0  0  0
    6.7104  -15.6122   22.3452 C   0  0  0  0  0  0  0  0  0  0  0  0
    8.0295  -14.9402   22.7404 C   0  0  2  0  0  0  0  0  0  0  0  0
    9.0287  -15.6978   21.9530 N   0  0  0  0  0  0  0  0  0  0  0  0
    8.3236  -15.0325   24.1688 C   0  0  0  0  0  0  0  0  0  0  0  0
    8.8893  -16.1243   24.5483 O   0  0  0  0  0  0  0  0  0  0  0  0
    8.0326  -14.0235   25.1201 N   0  0  0  0  0  0  0  0  0  0  0  0
    7.4855  -12.7262   24.6577 C   0  0  0  0  0  0  0  0  0  0  0  0
    6.7819  -12.2416   25.9032 C   0  0  0  0  0  0  0  0  0  0  0  0
    7.8440  -12.5696   26.9458 C   0  0  0  0  0  0  0  0  0  0  0  0
    8.1519  -14.0126   26.5463 C   0  0  1  0  0  0  0  0  0  0  0  0
    7.1654  -14.8872   27.2159 C   0  0  0  0  0  0  0  0  0  0  0  0
    6.1517  -15.2553   26.5887 O   0  0  0  0  0  0  0  0  0  0  0  0
    7.3351  -15.3084   28.5177 O   0  0  0  0  0  0  0  0  0  0  0  0
  2  1  1  0
  3  5  1  0
  3  2  1  0
  3  4  1  1
  5  6  2  0
  7  8  1  0
  9  8  1  1
 10  9  1  0
 10  5  1  0
 11 12  2  0
 11  9  1  0
 13 11  1  0
 14 13  1  0
 14 15  1  0
 16 17  1  0
 16 15  1  0
 17 13  1  0
 17 18  1  1
 18 20  1  0
 19 18  2  0
M  END
$$$$
