SSP.pdb
     RDKit          3D

 20 20  0  0  1  0  0  0  0  0999 V2000
    7.6593  -20.3569   23.7182 O   0  0  0  0  0  0  0  0  0  0  0  0
    6.8955  -19.8267   22.6634 C   0  0  0  0  0  0  0  0  0  0  0  0
    5.9150  -18.8646   23.2875 C   0  0  2  0  0  0  0  0  0  0  0  0
    4.5704  -19.1779   22.9313 N   0  0  0  0  0  0  0  0  0  0  0  0
    6.2076  -17.4555   22.9464 C   0  0  0  0  0  0  0  0  0  0  0  0
    5.4791  -16.9027   22.0868 O   0  0  0  0  0  0  0  0  0  0  0  0
    9.3383  -15.3926   24.5973 O   0  0  0  0  0  0  0  0  0  0  0  0
    8.2152  -14.6707   24.2013 C   0  0  0  0  0  0  0  0  0  0  0  0
    7.5402  -15.3443   23.0020 C   0  0  2  0  0  0  0  0  0  0  0  0
    7.2402  -16.6997   23.5170 N   0  0  0  0  0  0  0  0  0  0  0  0
    8.3968  -15.4214   21.8207 C   0  0  0  0  0  0  0  0  0  0  0  0
    9.1277  -16.4771   21.7346 O   0  0  0  0  0  0  0  0  0  0  0  0
    8.4617  -14.4361   20.8044 N   0  0  0  0  0  0  0  0  0  0  0  0
    7.5889  -13.2419   20.8947 C   0  0  0  0  0  0  0  0  0  0  0  0
    8.3604  -12.2483   20.0587 C   0  0  0  0  0  0  0  0  0  0  0  0
    8.7297  -13.1356   18.8758 C   0  0  0  0  0  0  0  0  0  0  0  0
    9.2760  -14.3473   19.6309 C   0  0  1  0  0  0  0  0  0  0  0  0
   10.6999  -14.0870   19.9332 C   0  0  0  0  0  0  0  0  0  0  0  0
   11.0209  -13.7062   21.0771 O   0  0  0  0  0  0  0  0  0  0  0  0
   11.6854  -14.2539   18.9835 O   0  0  0  0  0  0  0  0  0  0  0  0
  2  1  1  0
  3  5  1  0
  3  2  1  0
  3  4  1  6
  5  6  2  0
  7  8  1  0
  9  8  1  1
 10  9  1  0
 10  5  1  0
 11 12  2  0
 11  9  1  0
 13 11  1  0
 14 13  1  0
 14 15  1  0
 16 17  1  0
 16 15  1  0
 17 13  1  0
 17 18  1  1
 18 20  1  0
 19 18  2  0
M  END
$$$$
