SSP.pdb
     RDKit          3D

 20 20  0  0  1  0  0  0  0  0999 V2000
    9.8247  -14.0642   20.1752 O   0  0  0  0  0  0  0  0  0  0  0  0
    9.4077  -15.3638   20.5132 C   0  0  0  0  0  0  0  0  0  0  0  0
    7.9579  -15.2560   20.9168 C   0  0  2  0  0  0  0  0  0  0  0  0
    7.2780  -14.2466   20.1738 N   0  0  0  0  0  0  0  0  0  0  0  0
    7.7891  -15.0103   22.3654 C   0  0  0  0  0  0  0  0  0  0  0  0
    7.5277  -13.8378   22.7290 O   0  0  0  0  0  0  0  0  0  0  0  0
    7.2539  -17.8575   25.5832 O   0  0  0  0  0  0  0  0  0  0  0  0
    6.6614  -16.6429   25.2471 C   0  0  0  0  0  0  0  0  0  0  0  0
    7.7218  -15.6399   24.7810 C   0  0  2  0  0  0  0  0  0  0  0  0
    7.9012  -15.9958   23.3550 N   0  0  0  0  0  0  0  0  0  0  0  0
    8.9873  -15.7548   25.5024 C   0  0  0  0  0  0  0  0  0  0  0  0
    9.8099  -16.6307   25.0417 O   0  0  0  0  0  0  0  0  0  0  0  0
    9.3439  -14.9828   26.6359 N   0  0  0  0  0  0  0  0  0  0  0  0
    8.4062  -13.9489   27.1338 C   0  0  0  0  0  0  0  0  0  0  0  0
    8.8341  -13.8329   28.5777 C   0  0  0  0  0  0  0  0  0  0  0  0
   10.3476  -13.8142   28.3993 C   0  0  0  0  0  0  0  0  0  0  0  0
   10.5064  -15.0174   27.4699 C   0  0  1  0  0  0  0  0  0  0  0  0
   10.5790  -16.2315   28.3108 C   0  0  0  0  0  0  0  0  0  0  0  0
    9.5813  -16.9760   28.3948 O   0  0  0  0  0  0  0  0  0  0  0  0
   11.7217  -16.5648   29.0065 O   0  0  0  0  0  0  0  0  0  0  0  0
  2  1  1  0
  3  5  1  0
  3  2  1  0
  3  4  1  6
  5  6  2  0
  7  8  1  0
  9  8  1  1
 10  9  1  0
 10  5  1  0
 11 12  2  0
 11  9  1  0
 13 11  1  0
 14 13  1  0
 14 15  1  0
 16 17  1  0
 16 15  1  0
 17 13  1  0
 17 18  1  1
 18 20  1  0
 19 18  2  0
M  END
$$$$
