CID.pdb
     RDKit          3D

 23 22  0  0  1  0  0  0  0  0999 V2000
    9.9553  -17.0779   15.7939 N   0  0  0  0  0  0  0  0  0  0  0  0
    9.2774  -17.5141   17.0041 C   0  0  1  0  0  0  0  0  0  0  0  0
    9.5023  -18.9767   17.2783 C   0  0  0  0  0  0  0  0  0  0  0  0
    8.3318  -19.4586   18.6005 S   0  0  0  0  0  0  0  0  0  0  0  0
    9.7149  -16.6440   18.1136 C   0  0  0  0  0  0  0  0  0  0  0  0
   10.9093  -16.2469   18.2179 O   0  0  0  0  0  0  0  0  0  0  0  0
    6.3580  -12.8516   20.0622 C   0  0  0  0  0  0  0  0  0  0  0  0
    7.6191  -13.5355   19.4993 C   0  0  0  0  0  0  0  0  0  0  0  0
    8.1038  -14.4482   20.5791 C   0  0  2  0  0  0  0  0  0  0  0  0
    8.3873  -13.5657   21.7956 C   0  0  0  0  0  0  0  0  0  0  0  0
    9.2867  -15.3068   20.2134 C   0  0  2  0  0  0  0  0  0  0  0  0
    8.8193  -16.1983   19.1346 N   0  0  0  0  0  0  0  0  0  0  0  0
    9.8276  -16.1224   21.3064 C   0  0  0  0  0  0  0  0  0  0  0  0
    9.2035  -17.1422   21.6928 O   0  0  0  0  0  0  0  0  0  0  0  0
   11.0428  -15.8361   21.9749 N   0  0  0  0  0  0  0  0  0  0  0  0
   11.5481  -16.6753   23.0543 C   0  0  1  0  0  0  0  0  0  0  0  0
   13.0366  -16.4150   23.1916 C   0  0  0  0  0  0  0  0  0  0  0  0
   13.7349  -16.9441   22.0187 C   0  0  0  0  0  0  0  0  0  0  0  0
   13.4436  -18.0280   21.4213 O   0  0  0  0  0  0  0  0  0  0  0  0
   10.8300  -16.3309   24.2991 C   0  0  0  0  0  0  0  0  0  0  0  0
    9.9520  -15.2626   24.4093 O   0  0  0  0  0  0  0  0  0  0  0  0
   14.8150  -16.1957   21.5093 O   0  0  0  0  0  0  0  0  0  0  0  0
   10.9909  -17.0127   25.3423 O   0  0  0  0  0  0  0  0  0  0  0  0
  2  1  1  6
  3  2  1  0
  4  3  1  0
  5  6  2  0
  5  2  1  0
  8  7  1  0
  8  9  1  0
  9 11  1  0
  9 10  1  1
 11 12  1  6
 11 13  1  0
 12  5  1  0
 13 15  1  0
 14 13  2  0
 15 16  1  0
 16 20  1  0
 17 18  1  0
 16 17  1  1
 18 22  1  0
 19 18  2  0
 20 23  2  0
 20 21  1  0
M  END
$$$$
