CID.pdb
     RDKit          3D

 23 22  0  0  1  0  0  0  0  0999 V2000
    7.6842  -14.5129   19.9942 N   0  0  0  0  0  0  0  0  0  0  0  0
    6.9041  -14.7492   21.1983 C   0  0  1  0  0  0  0  0  0  0  0  0
    6.2529  -16.1060   21.1889 C   0  0  0  0  0  0  0  0  0  0  0  0
    7.5983  -17.3451   21.2599 S   0  0  0  0  0  0  0  0  0  0  0  0
    7.7852  -14.5390   22.3640 C   0  0  0  0  0  0  0  0  0  0  0  0
    9.0419  -14.4892   22.2490 O   0  0  0  0  0  0  0  0  0  0  0  0
    6.0931  -11.5682   26.5423 C   0  0  0  0  0  0  0  0  0  0  0  0
    7.1125  -12.0625   25.4975 C   0  0  0  0  0  0  0  0  0  0  0  0
    7.4397  -13.4693   25.8818 C   0  0  2  0  0  0  0  0  0  0  0  0
    8.2031  -13.3894   27.2046 C   0  0  0  0  0  0  0  0  0  0  0  0
    8.1881  -14.2630   24.8423 C   0  0  2  0  0  0  0  0  0  0  0  0
    7.2746  -14.3794   23.6895 N   0  0  0  0  0  0  0  0  0  0  0  0
    8.6020  -15.6066   25.2615 C   0  0  0  0  0  0  0  0  0  0  0  0
    7.7382  -16.5048   25.4217 O   0  0  0  0  0  0  0  0  0  0  0  0
    9.9478  -15.9763   25.5017 N   0  0  0  0  0  0  0  0  0  0  0  0
   10.3311  -17.3509   25.7989 C   0  0  1  0  0  0  0  0  0  0  0  0
   11.6727  -17.6151   25.1411 C   0  0  0  0  0  0  0  0  0  0  0  0
   12.1581  -18.9384   25.5369 C   0  0  0  0  0  0  0  0  0  0  0  0
   11.4200  -19.9205   25.8644 O   0  0  0  0  0  0  0  0  0  0  0  0
   10.4155  -17.5134   27.2652 C   0  0  0  0  0  0  0  0  0  0  0  0
   10.1210  -18.6974   27.9254 O   0  0  0  0  0  0  0  0  0  0  0  0
   13.5524  -19.1430   25.5574 O   0  0  0  0  0  0  0  0  0  0  0  0
   10.7679  -16.5552   27.9978 O   0  0  0  0  0  0  0  0  0  0  0  0
  2  1  1  6
  3  2  1  0
  4  3  1  0
  5  6  2  0
  5  2  1  0
  8  7  1  0
  8  9  1  0
  9 11  1  0
  9 10  1  1
 11 12  1  6
 11 13  1  0
 12  5  1  0
 13 15  1  0
 14 13  2  0
 15 16  1  0
 16 20  1  0
 17 18  1  0
 16 17  1  6
 18 22  1  0
 19 18  2  0
 20 23  2  0
 20 21  1  0
M  END
$$$$
