CID.pdb
     RDKit          3D

 23 22  0  0  1  0  0  0  0  0999 V2000
    7.5592  -14.8298   19.8663 N   0  0  0  0  0  0  0  0  0  0  0  0
    7.0050  -15.3914   21.0877 C   0  0  1  0  0  0  0  0  0  0  0  0
    6.8026  -16.8789   20.9811 C   0  0  0  0  0  0  0  0  0  0  0  0
    5.2882  -17.1424   19.9873 S   0  0  0  0  0  0  0  0  0  0  0  0
    7.8844  -15.0067   22.2093 C   0  0  0  0  0  0  0  0  0  0  0  0
    9.1296  -14.8585   22.0593 O   0  0  0  0  0  0  0  0  0  0  0  0
    6.0102  -11.9972   26.3653 C   0  0  0  0  0  0  0  0  0  0  0  0
    6.9967  -12.4395   25.2671 C   0  0  0  0  0  0  0  0  0  0  0  0
    7.4981  -13.7834   25.6874 C   0  0  2  0  0  0  0  0  0  0  0  0
    8.2820  -13.5663   26.9825 C   0  0  0  0  0  0  0  0  0  0  0  0
    8.3067  -14.5213   24.6520 C   0  0  2  0  0  0  0  0  0  0  0  0
    7.3849  -14.7787   23.5291 N   0  0  0  0  0  0  0  0  0  0  0  0
    8.8811  -15.7948   25.1000 C   0  0  0  0  0  0  0  0  0  0  0  0
    8.1362  -16.7937   25.2615 O   0  0  0  0  0  0  0  0  0  0  0  0
   10.2586  -15.9859   25.3676 N   0  0  0  0  0  0  0  0  0  0  0  0
   10.8381  -17.3135   25.5299 C   0  0  1  0  0  0  0  0  0  0  0  0
   12.1681  -17.3358   24.7999 C   0  0  0  0  0  0  0  0  0  0  0  0
   12.8657  -18.5888   25.0946 C   0  0  0  0  0  0  0  0  0  0  0  0
   13.8498  -18.7083   25.8908 O   0  0  0  0  0  0  0  0  0  0  0  0
   11.0175  -17.5798   26.9723 C   0  0  0  0  0  0  0  0  0  0  0  0
   10.6874  -16.6724   27.9682 O   0  0  0  0  0  0  0  0  0  0  0  0
   12.4133  -19.7558   24.4467 O   0  0  0  0  0  0  0  0  0  0  0  0
   11.4924  -18.6737   27.3686 O   0  0  0  0  0  0  0  0  0  0  0  0
  2  1  1  6
  3  2  1  0
  4  3  1  0
  5  6  2  0
  5  2  1  0
  8  7  1  0
  8  9  1  0
  9 11  1  0
  9 10  1  1
 11 12  1  6
 11 13  1  0
 12  5  1  0
 13 15  1  0
 14 13  2  0
 15 16  1  0
 16 20  1  0
 17 18  1  0
 16 17  1  6
 18 22  1  0
 19 18  2  0
 20 23  2  0
 20 21  1  0
M  END
$$$$
