CID.pdb
     RDKit          3D

 23 22  0  0  1  0  0  0  0  0999 V2000
    6.7096  -19.3403   27.0990 N   0  0  0  0  0  0  0  0  0  0  0  0
    7.5313  -18.1739   27.3791 C   0  0  1  0  0  0  0  0  0  0  0  0
    8.9592  -18.5491   27.6711 C   0  0  0  0  0  0  0  0  0  0  0  0
    9.3344  -17.9506   29.3597 S   0  0  0  0  0  0  0  0  0  0  0  0
    7.4000  -17.2377   26.2452 C   0  0  0  0  0  0  0  0  0  0  0  0
    7.1147  -17.6366   25.0813 O   0  0  0  0  0  0  0  0  0  0  0  0
    5.9590  -12.1927   27.0705 C   0  0  0  0  0  0  0  0  0  0  0  0
    5.9585  -13.4381   26.1629 C   0  0  0  0  0  0  0  0  0  0  0  0
    7.3590  -13.5757   25.6594 C   0  0  2  0  0  0  0  0  0  0  0  0
    7.5207  -12.5416   24.5443 C   0  0  0  0  0  0  0  0  0  0  0  0
    7.7483  -14.9602   25.2097 C   0  0  2  0  0  0  0  0  0  0  0  0
    7.5865  -15.8281   26.3919 N   0  0  0  0  0  0  0  0  0  0  0  0
    9.1199  -15.0901   24.7057 C   0  0  0  0  0  0  0  0  0  0  0  0
   10.0867  -15.0464   25.5071 O   0  0  0  0  0  0  0  0  0  0  0  0
    9.4420  -15.2712   23.3386 N   0  0  0  0  0  0  0  0  0  0  0  0
   10.6989  -15.8747   22.9135 C   0  0  1  0  0  0  0  0  0  0  0  0
   10.8073  -17.2397   23.5675 C   0  0  0  0  0  0  0  0  0  0  0  0
   12.1615  -17.4232   24.0924 C   0  0  0  0  0  0  0  0  0  0  0  0
   13.0933  -16.5604   24.0303 O   0  0  0  0  0  0  0  0  0  0  0  0
   10.6962  -15.9887   21.4402 C   0  0  0  0  0  0  0  0  0  0  0  0
    9.6732  -16.5847   20.7173 O   0  0  0  0  0  0  0  0  0  0  0  0
   12.4589  -18.6515   24.7162 O   0  0  0  0  0  0  0  0  0  0  0  0
   11.6512  -15.5367   20.7599 O   0  0  0  0  0  0  0  0  0  0  0  0
  2  1  1  6
  3  2  1  0
  4  3  1  0
  5  6  2  0
  5  2  1  0
  8  7  1  0
  8  9  1  0
  9 11  1  0
  9 10  1  6
 11 12  1  1
 11 13  1  0
 12  5  1  0
 13 15  1  0
 14 13  2  0
 15 16  1  0
 16 20  1  0
 17 18  1  0
 16 17  1  1
 18 22  1  0
 19 18  2  0
 20 23  2  0
 20 21  1  0
M  END
$$$$
