CID.pdb
     RDKit          3D

 23 22  0  0  1  0  0  0  0  0999 V2000
    7.5844  -14.5874   20.2965 N   0  0  0  0  0  0  0  0  0  0  0  0
    7.0603  -15.2915   21.4558 C   0  0  1  0  0  0  0  0  0  0  0  0
    6.9580  -16.7735   21.2145 C   0  0  0  0  0  0  0  0  0  0  0  0
    6.1297  -17.4972   22.6776 S   0  0  0  0  0  0  0  0  0  0  0  0
    7.9041  -14.9520   22.6185 C   0  0  0  0  0  0  0  0  0  0  0  0
    9.1533  -14.7988   22.5132 O   0  0  0  0  0  0  0  0  0  0  0  0
    6.0131  -11.7623   26.5247 C   0  0  0  0  0  0  0  0  0  0  0  0
    6.9798  -12.3446   25.4752 C   0  0  0  0  0  0  0  0  0  0  0  0
    7.4391  -13.6552   26.0276 C   0  0  2  0  0  0  0  0  0  0  0  0
    8.2056  -13.3377   27.3124 C   0  0  0  0  0  0  0  0  0  0  0  0
    8.2465  -14.5053   25.0810 C   0  0  2  0  0  0  0  0  0  0  0  0
    7.3638  -14.7762   23.9302 N   0  0  0  0  0  0  0  0  0  0  0  0
    8.7162  -15.7806   25.6335 C   0  0  0  0  0  0  0  0  0  0  0  0
    7.8838  -16.6561   25.9789 O   0  0  0  0  0  0  0  0  0  0  0  0
   10.0832  -16.1073   25.8065 N   0  0  0  0  0  0  0  0  0  0  0  0
   10.5079  -17.3739   26.3897 C   0  0  1  0  0  0  0  0  0  0  0  0
   11.9599  -17.5997   26.0113 C   0  0  0  0  0  0  0  0  0  0  0  0
   12.0652  -17.7733   24.5615 C   0  0  0  0  0  0  0  0  0  0  0  0
   11.1210  -18.1546   23.8000 O   0  0  0  0  0  0  0  0  0  0  0  0
   10.3451  -17.2991   27.8565 C   0  0  0  0  0  0  0  0  0  0  0  0
   10.2957  -16.1073   28.5645 O   0  0  0  0  0  0  0  0  0  0  0  0
   13.3091  -17.4969   23.9595 O   0  0  0  0  0  0  0  0  0  0  0  0
   10.2422  -18.3454   28.5448 O   0  0  0  0  0  0  0  0  0  0  0  0
  2  1  1  6
  3  2  1  0
  4  3  1  0
  5  6  2  0
  5  2  1  0
  8  7  1  0
  8  9  1  0
  9 11  1  0
  9 10  1  1
 11 12  1  6
 11 13  1  0
 12  5  1  0
 13 15  1  0
 14 13  2  0
 15 16  1  0
 16 20  1  0
 17 18  1  0
 16 17  1  1
 18 22  1  0
 19 18  2  0
 20 23  2  0
 20 21  1  0
M  END
$$$$
