CID.pdb
     RDKit          3D

 23 22  0  0  1  0  0  0  0  0999 V2000
    6.7246  -14.9496   20.3394 N   0  0  0  0  0  0  0  0  0  0  0  0
    6.3099  -15.4924   21.6230 C   0  0  1  0  0  0  0  0  0  0  0  0
    6.0841  -16.9789   21.5582 C   0  0  0  0  0  0  0  0  0  0  0  0
    5.5273  -17.5078   23.2198 S   0  0  0  0  0  0  0  0  0  0  0  0
    7.3156  -15.1039   22.6315 C   0  0  0  0  0  0  0  0  0  0  0  0
    8.5444  -15.0241   22.3508 O   0  0  0  0  0  0  0  0  0  0  0  0
    5.9688  -11.7032   26.6984 C   0  0  0  0  0  0  0  0  0  0  0  0
    6.8127  -12.2727   25.5416 C   0  0  0  0  0  0  0  0  0  0  0  0
    7.3047  -13.6030   26.0131 C   0  0  2  0  0  0  0  0  0  0  0  0
    8.2002  -13.3285   27.2221 C   0  0  0  0  0  0  0  0  0  0  0  0
    8.0007  -14.4385   24.9700 C   0  0  2  0  0  0  0  0  0  0  0  0
    6.9642  -14.7951   23.9822 N   0  0  0  0  0  0  0  0  0  0  0  0
    8.6266  -15.6673   25.4704 C   0  0  0  0  0  0  0  0  0  0  0  0
    7.9119  -16.5796   25.9559 O   0  0  0  0  0  0  0  0  0  0  0  0
   10.0219  -15.9082   25.4404 N   0  0  0  0  0  0  0  0  0  0  0  0
   10.5886  -17.2125   25.7604 C   0  0  1  0  0  0  0  0  0  0  0  0
   12.0100  -17.2477   25.2303 C   0  0  0  0  0  0  0  0  0  0  0  0
   12.6296  -18.5273   25.5797 C   0  0  0  0  0  0  0  0  0  0  0  0
   13.0207  -18.8570   26.7437 O   0  0  0  0  0  0  0  0  0  0  0  0
   10.5621  -17.3947   27.2265 C   0  0  0  0  0  0  0  0  0  0  0  0
   10.8362  -16.3802   28.1321 O   0  0  0  0  0  0  0  0  0  0  0  0
   12.8078  -19.4698   24.5471 O   0  0  0  0  0  0  0  0  0  0  0  0
   10.2822  -18.5117   27.7294 O   0  0  0  0  0  0  0  0  0  0  0  0
  2  1  1  6
  3  2  1  0
  4  3  1  0
  5  6  2  0
  5  2  1  0
  8  7  1  0
  8  9  1  0
  9 11  1  0
  9 10  1  1
 11 12  1  6
 11 13  1  0
 12  5  1  0
 13 15  1  0
 14 13  2  0
 15 16  1  0
 16 20  1  0
 17 18  1  0
 16 17  1  1
 18 22  1  0
 19 18  2  0
 20 23  2  0
 20 21  1  0
M  END
$$$$
