NWM.pdb
     RDKit          3D

 31 32  0  0  1  0  0  0  0  0999 V2000
   25.9142  -35.5776   -6.4240 N   0  0  0  0  0  0  0  0  0  0  0  0
   26.7091  -34.5842   -5.7775 C   0  0  0  0  0  0  0  0  0  0  0  0
   27.9304  -34.6123   -6.0055 O   0  0  0  0  0  0  0  0  0  0  0  0
   26.0543  -33.6096   -4.9015 C   0  0  0  0  0  0  0  0  0  0  0  0
   24.5478  -33.7638   -4.8243 C   0  0  2  0  0  0  0  0  0  0  0  0
   23.9788  -32.9446   -5.9227 N   0  0  0  0  0  0  0  0  0  0  0  0
   23.9562  -33.2598   -3.5689 C   0  0  0  0  0  0  0  0  0  0  0  0
   23.9377  -34.0081   -2.5500 O   0  0  0  0  0  0  0  0  0  0  0  0
   23.4077  -31.9597   -3.4547 N   0  0  0  0  0  0  0  0  0  0  0  0
   22.8380  -31.4402   -2.2291 C   0  0  1  0  0  0  0  0  0  0  0  0
   22.8374  -29.9427   -2.2064 C   0  0  0  0  0  0  0  0  0  0  0  0
   22.3185  -29.3278   -0.9753 C   0  0  0  0  0  0  0  0  0  0  0  0
   22.6637  -29.7814    0.3194 C   0  0  0  0  0  0  0  0  0  0  0  0
   22.0693  -29.0167    1.2449 N   0  0  0  0  0  0  0  0  0  0  0  0
   21.3480  -28.0819    0.6360 C   0  0  0  0  0  0  0  0  0  0  0  0
   20.5551  -27.0748    1.1664 C   0  0  0  0  0  0  0  0  0  0  0  0
   19.9082  -26.2523    0.2652 C   0  0  0  0  0  0  0  0  0  0  0  0
   20.0356  -26.4139   -1.0903 C   0  0  0  0  0  0  0  0  0  0  0  0
   20.8343  -27.4282   -1.5760 C   0  0  0  0  0  0  0  0  0  0  0  0
   21.4947  -28.2656   -0.7358 C   0  0  0  0  0  0  0  0  0  0  0  0
   21.5215  -31.9896   -1.9710 C   0  0  0  0  0  0  0  0  0  0  0  0
   20.6024  -32.0131   -2.8118 O   0  0  0  0  0  0  0  0  0  0  0  0
   21.5122  -38.0990    0.9144 C   0  0  0  0  0  0  0  0  0  0  0  0
   20.7568  -36.5719    1.5147 S   0  0  0  0  0  0  0  0  0  0  0  0
   20.6123  -35.3287    0.2272 C   0  0  0  0  0  0  0  0  0  0  0  0
   20.0130  -34.0480    0.7611 C   0  0  0  0  0  0  0  0  0  0  0  0
   19.8643  -33.0150   -0.3701 C   0  0  2  0  0  0  0  0  0  0  0  0
   21.2020  -32.5637   -0.6891 N   0  0  0  0  0  0  0  0  0  0  0  0
   18.9720  -31.9383    0.0931 C   0  0  0  0  0  0  0  0  0  0  0  0
   17.9802  -31.6209   -0.6051 O   0  0  0  0  0  0  0  0  0  0  0  0
   19.2258  -31.2863    1.2886 O   0  0  0  0  0  0  0  0  0  0  0  0
  2  3  2  0
  2  1  1  0
  4  2  1  0
  5  4  1  0
  5  6  1  6
  7  5  1  0
  7  8  2  0
  9  7  1  0
 10  9  1  0
 10 11  1  6
 11 12  1  0
 12 13  2  0
 12 20  1  0
 13 14  1  0
 14 15  1  0
 15 16  2  0
 16 17  1  0
 18 17  2  0
 19 18  1  0
 20 19  2  0
 20 15  1  0
 21 10  1  0
 22 21  2  0
 23 24  1  0
 25 24  1  0
 25 26  1  0
 27 26  1  1
 27 28  1  0
 28 21  1  0
 29 27  1  0
 30 29  2  0
 31 29  1  0
M  END
$$$$
