NWM.pdb
     RDKit          3D

 31 32  0  0  1  0  0  0  0  0999 V2000
   27.9446  -19.5567  -15.4241 N   0  0  0  0  0  0  0  0  0  0  0  0
   26.5238  -19.6807  -15.3735 C   0  0  0  0  0  0  0  0  0  0  0  0
   25.8869  -19.1824  -16.3170 O   0  0  0  0  0  0  0  0  0  0  0  0
   25.9111  -20.3731  -14.2372 C   0  0  0  0  0  0  0  0  0  0  0  0
   26.9047  -20.8456  -13.1939 C   0  0  2  0  0  0  0  0  0  0  0  0
   27.5852  -22.0355  -13.7616 N   0  0  0  0  0  0  0  0  0  0  0  0
   26.2841  -21.2767  -11.9254 C   0  0  0  0  0  0  0  0  0  0  0  0
   26.0722  -22.5073  -11.7274 O   0  0  0  0  0  0  0  0  0  0  0  0
   25.9170  -20.3622  -10.9088 N   0  0  0  0  0  0  0  0  0  0  0  0
   25.2821  -20.7608   -9.6701 C   0  0  1  0  0  0  0  0  0  0  0  0
   25.7155  -19.9032   -8.5212 C   0  0  0  0  0  0  0  0  0  0  0  0
   27.0198  -20.2437   -7.9331 C   0  0  0  0  0  0  0  0  0  0  0  0
   28.0121  -20.9759   -8.6262 C   0  0  0  0  0  0  0  0  0  0  0  0
   29.1018  -21.1085   -7.8582 N   0  0  0  0  0  0  0  0  0  0  0  0
   28.8869  -20.5061   -6.6939 C   0  0  0  0  0  0  0  0  0  0  0  0
   29.7085  -20.3844   -5.5828 C   0  0  0  0  0  0  0  0  0  0  0  0
   29.1929  -19.7005   -4.4995 C   0  0  0  0  0  0  0  0  0  0  0  0
   27.9314  -19.1638   -4.5099 C   0  0  0  0  0  0  0  0  0  0  0  0
   27.1470  -19.3074   -5.6354 C   0  0  0  0  0  0  0  0  0  0  0  0
   27.6033  -19.9690   -6.7296 C   0  0  0  0  0  0  0  0  0  0  0  0
   23.8389  -20.8138   -9.7964 C   0  0  0  0  0  0  0  0  0  0  0  0
   23.1865  -20.1175  -10.5976 O   0  0  0  0  0  0  0  0  0  0  0  0
   17.2377  -24.0136   -6.6397 C   0  0  0  0  0  0  0  0  0  0  0  0
   19.0385  -23.8717   -6.6523 S   0  0  0  0  0  0  0  0  0  0  0  0
   19.6294  -22.7847   -7.9536 C   0  0  0  0  0  0  0  0  0  0  0  0
   21.1349  -22.6547   -7.9230 C   0  0  0  0  0  0  0  0  0  0  0  0
   21.6215  -21.7958   -9.1039 C   0  0  2  0  0  0  0  0  0  0  0  0
   23.0612  -21.7110   -8.9809 N   0  0  0  0  0  0  0  0  0  0  0  0
   20.9451  -20.4886   -9.0424 C   0  0  0  0  0  0  0  0  0  0  0  0
   21.4338  -19.5780   -8.3325 O   0  0  0  0  0  0  0  0  0  0  0  0
   19.7831  -20.2685   -9.7637 O   0  0  0  0  0  0  0  0  0  0  0  0
  2  3  2  0
  2  1  1  0
  4  2  1  0
  5  4  1  0
  5  6  1  6
  7  5  1  0
  7  8  2  0
  9  7  1  0
 10  9  1  0
 10 11  1  1
 11 12  1  0
 12 13  2  0
 12 20  1  0
 13 14  1  0
 14 15  1  0
 15 16  2  0
 16 17  1  0
 18 17  2  0
 19 18  1  0
 20 19  2  0
 20 15  1  0
 21 10  1  0
 22 21  2  0
 23 24  1  0
 25 24  1  0
 25 26  1  0
 27 26  1  1
 27 28  1  0
 28 21  1  0
 29 27  1  0
 30 29  2  0
 31 29  1  0
M  END
$$$$
