NWM.pdb
     RDKit          3D

 31 32  0  0  1  0  0  0  0  0999 V2000
   27.2125  -19.2273  -21.4067 N   0  0  0  0  0  0  0  0  0  0  0  0
   27.4884  -18.9056  -20.0440 C   0  0  0  0  0  0  0  0  0  0  0  0
   28.2809  -17.9700  -19.8416 O   0  0  0  0  0  0  0  0  0  0  0  0
   26.8358  -19.6794  -18.9851 C   0  0  0  0  0  0  0  0  0  0  0  0
   27.7989  -20.3039  -17.9944 C   0  0  2  0  0  0  0  0  0  0  0  0
   28.4414  -21.4475  -18.6877 N   0  0  0  0  0  0  0  0  0  0  0  0
   27.1478  -20.8511  -16.7874 C   0  0  0  0  0  0  0  0  0  0  0  0
   26.4492  -21.9004  -16.8834 O   0  0  0  0  0  0  0  0  0  0  0  0
   27.2777  -20.2476  -15.5133 N   0  0  0  0  0  0  0  0  0  0  0  0
   26.5974  -20.7307  -14.3299 C   0  0  1  0  0  0  0  0  0  0  0  0
   27.3317  -20.3645  -13.0770 C   0  0  0  0  0  0  0  0  0  0  0  0
   26.7356  -20.8573  -11.8262 C   0  0  0  0  0  0  0  0  0  0  0  0
   26.4403  -22.2215  -11.5963 C   0  0  0  0  0  0  0  0  0  0  0  0
   25.9360  -22.3785  -10.3651 N   0  0  0  0  0  0  0  0  0  0  0  0
   25.8793  -21.1942   -9.7662 C   0  0  0  0  0  0  0  0  0  0  0  0
   25.4260  -20.8507   -8.5009 C   0  0  0  0  0  0  0  0  0  0  0  0
   25.4821  -19.5132   -8.1616 C   0  0  0  0  0  0  0  0  0  0  0  0
   25.9602  -18.5619   -9.0253 C   0  0  0  0  0  0  0  0  0  0  0  0
   26.4013  -18.9462  -10.2743 C   0  0  0  0  0  0  0  0  0  0  0  0
   26.3704  -20.2474  -10.6604 C   0  0  0  0  0  0  0  0  0  0  0  0
   25.2118  -20.3061  -14.2932 C   0  0  0  0  0  0  0  0  0  0  0  0
   24.8453  -19.1221  -14.4203 O   0  0  0  0  0  0  0  0  0  0  0  0
   19.7028  -23.8555  -16.0507 C   0  0  0  0  0  0  0  0  0  0  0  0
   19.4074  -23.1707  -14.4055 S   0  0  0  0  0  0  0  0  0  0  0  0
   20.4466  -21.7475  -14.0606 C   0  0  0  0  0  0  0  0  0  0  0  0
   21.9134  -22.1052  -14.1299 C   0  0  0  0  0  0  0  0  0  0  0  0
   22.7803  -20.8532  -13.9068 C   0  0  2  0  0  0  0  0  0  0  0  0
   24.1527  -21.2653  -14.1111 N   0  0  0  0  0  0  0  0  0  0  0  0
   22.5142  -20.3342  -12.5540 C   0  0  0  0  0  0  0  0  0  0  0  0
   21.8258  -19.2949  -12.4204 O   0  0  0  0  0  0  0  0  0  0  0  0
   23.0175  -20.9900  -11.4425 O   0  0  0  0  0  0  0  0  0  0  0  0
  2  3  2  0
  2  1  1  0
  4  2  1  0
  5  4  1  0
  5  6  1  6
  7  5  1  0
  7  8  2  0
  9  7  1  0
 10  9  1  0
 10 11  1  1
 11 12  1  0
 12 13  2  0
 12 20  1  0
 13 14  1  0
 14 15  1  0
 15 16  2  0
 16 17  1  0
 18 17  2  0
 19 18  1  0
 20 19  2  0
 20 15  1  0
 21 10  1  0
 22 21  2  0
 23 24  1  0
 25 24  1  0
 25 26  1  0
 27 26  1  1
 27 28  1  0
 28 21  1  0
 29 27  1  0
 30 29  2  0
 31 29  1  0
M  END
$$$$
