NWM.pdb
     RDKit          3D

 31 32  0  0  1  0  0  0  0  0999 V2000
   28.2387  -23.3806  -19.1313 N   0  0  0  0  0  0  0  0  0  0  0  0
   27.5417  -22.2482  -18.6130 C   0  0  0  0  0  0  0  0  0  0  0  0
   27.5844  -21.2086  -19.2924 O   0  0  0  0  0  0  0  0  0  0  0  0
   26.8314  -22.3736  -17.3381 C   0  0  0  0  0  0  0  0  0  0  0  0
   27.2815  -21.3841  -16.2811 C   0  0  2  0  0  0  0  0  0  0  0  0
   28.7120  -21.6704  -16.0110 N   0  0  0  0  0  0  0  0  0  0  0  0
   26.5718  -21.5168  -14.9932 C   0  0  0  0  0  0  0  0  0  0  0  0
   25.3877  -21.9598  -14.9824 O   0  0  0  0  0  0  0  0  0  0  0  0
   27.1681  -21.1704  -13.7567 N   0  0  0  0  0  0  0  0  0  0  0  0
   26.4690  -21.2314  -12.4903 C   0  0  1  0  0  0  0  0  0  0  0  0
   27.3630  -20.8741  -11.3430 C   0  0  0  0  0  0  0  0  0  0  0  0
   26.6897  -20.6897  -10.0486 C   0  0  0  0  0  0  0  0  0  0  0  0
   25.3466  -21.0678   -9.8158 C   0  0  0  0  0  0  0  0  0  0  0  0
   25.0137  -20.8108   -8.5439 N   0  0  0  0  0  0  0  0  0  0  0  0
   26.0609  -20.2821   -7.9205 C   0  0  0  0  0  0  0  0  0  0  0  0
   26.1981  -19.8470   -6.6104 C   0  0  0  0  0  0  0  0  0  0  0  0
   27.4254  -19.3239   -6.2538 C   0  0  0  0  0  0  0  0  0  0  0  0
   28.4652  -19.2335   -7.1429 C   0  0  0  0  0  0  0  0  0  0  0  0
   28.2865  -19.6779   -8.4364 C   0  0  0  0  0  0  0  0  0  0  0  0
   27.1015  -20.2024   -8.8414 C   0  0  0  0  0  0  0  0  0  0  0  0
   25.2567  -20.4366  -12.5045 C   0  0  0  0  0  0  0  0  0  0  0  0
   25.2431  -19.1934  -12.5871 O   0  0  0  0  0  0  0  0  0  0  0  0
   18.2233  -19.5317  -15.4900 C   0  0  0  0  0  0  0  0  0  0  0  0
   19.7117  -20.5251  -15.2434 S   0  0  0  0  0  0  0  0  0  0  0  0
   20.6516  -20.0030  -13.8053 C   0  0  0  0  0  0  0  0  0  0  0  0
   21.9623  -20.7485  -13.7019 C   0  0  0  0  0  0  0  0  0  0  0  0
   22.7393  -20.2934  -12.4537 C   0  0  2  0  0  0  0  0  0  0  0  0
   23.9632  -21.0659  -12.4307 N   0  0  0  0  0  0  0  0  0  0  0  0
   21.8872  -20.5008  -11.2701 C   0  0  0  0  0  0  0  0  0  0  0  0
   21.2333  -19.5358  -10.8085 O   0  0  0  0  0  0  0  0  0  0  0  0
   21.8082  -21.7497  -10.6761 O   0  0  0  0  0  0  0  0  0  0  0  0
  2  3  2  0
  2  1  1  0
  4  2  1  0
  5  4  1  0
  5  6  1  1
  7  5  1  0
  7  8  2  0
  9  7  1  0
 10  9  1  0
 10 11  1  1
 11 12  1  0
 12 13  2  0
 12 20  1  0
 13 14  1  0
 14 15  1  0
 15 16  2  0
 16 17  1  0
 18 17  2  0
 19 18  1  0
 20 19  2  0
 20 15  1  0
 21 10  1  0
 22 21  2  0
 23 24  1  0
 25 24  1  0
 25 26  1  0
 27 26  1  6
 27 28  1  0
 28 21  1  0
 29 27  1  0
 30 29  2  0
 31 29  1  0
M  END
$$$$
