NWM.pdb
     RDKit          3D

 31 32  0  0  1  0  0  0  0  0999 V2000
   28.8339  -19.9449  -15.7345 N   0  0  0  0  0  0  0  0  0  0  0  0
   27.5084  -19.4173  -15.7015 C   0  0  0  0  0  0  0  0  0  0  0  0
   27.2140  -18.5939  -16.5845 O   0  0  0  0  0  0  0  0  0  0  0  0
   26.5908  -19.8668  -14.6518 C   0  0  0  0  0  0  0  0  0  0  0  0
   27.2025  -20.8571  -13.6801 C   0  0  2  0  0  0  0  0  0  0  0  0
   27.3866  -22.1268  -14.4252 N   0  0  0  0  0  0  0  0  0  0  0  0
   26.3447  -21.1671  -12.5190 C   0  0  0  0  0  0  0  0  0  0  0  0
   25.7200  -22.2658  -12.4874 O   0  0  0  0  0  0  0  0  0  0  0  0
   26.1941  -20.2798  -11.4261 N   0  0  0  0  0  0  0  0  0  0  0  0
   25.2526  -20.4967  -10.3477 C   0  0  1  0  0  0  0  0  0  0  0  0
   25.6848  -19.8158   -9.0857 C   0  0  0  0  0  0  0  0  0  0  0  0
   26.9893  -20.2373   -8.5532 C   0  0  0  0  0  0  0  0  0  0  0  0
   27.8755  -21.0832   -9.2604 C   0  0  0  0  0  0  0  0  0  0  0  0
   28.9941  -21.2710   -8.5476 N   0  0  0  0  0  0  0  0  0  0  0  0
   28.8986  -20.5977   -7.4065 C   0  0  0  0  0  0  0  0  0  0  0  0
   29.7918  -20.4934   -6.3501 C   0  0  0  0  0  0  0  0  0  0  0  0
   29.3990  -19.7173   -5.2775 C   0  0  0  0  0  0  0  0  0  0  0  0
   28.1873  -19.0766   -5.2467 C   0  0  0  0  0  0  0  0  0  0  0  0
   27.3286  -19.2066   -6.3182 C   0  0  0  0  0  0  0  0  0  0  0  0
   27.6636  -19.9560   -7.3997 C   0  0  0  0  0  0  0  0  0  0  0  0
   23.9024  -20.1315  -10.7289 C   0  0  0  0  0  0  0  0  0  0  0  0
   23.6132  -19.0857  -11.3413 O   0  0  0  0  0  0  0  0  0  0  0  0
   19.8512  -20.7816  -16.2710 C   0  0  0  0  0  0  0  0  0  0  0  0
   21.2630  -20.8546  -15.1465 S   0  0  0  0  0  0  0  0  0  0  0  0
   20.8303  -21.5546  -13.5506 C   0  0  0  0  0  0  0  0  0  0  0  0
   22.0114  -21.5510  -12.6076 C   0  0  0  0  0  0  0  0  0  0  0  0
   21.5925  -21.0125  -11.2279 C   0  0  2  0  0  0  0  0  0  0  0  0
   22.7910  -20.9929  -10.4165 N   0  0  0  0  0  0  0  0  0  0  0  0
   20.5289  -21.8784  -10.6904 C   0  0  0  0  0  0  0  0  0  0  0  0
   20.8006  -23.0622  -10.3791 O   0  0  0  0  0  0  0  0  0  0  0  0
   19.2436  -21.3880  -10.5287 O   0  0  0  0  0  0  0  0  0  0  0  0
  2  3  2  0
  2  1  1  0
  4  2  1  0
  5  4  1  0
  5  6  1  6
  7  5  1  0
  7  8  2  0
  9  7  1  0
 10  9  1  0
 10 11  1  1
 11 12  1  0
 12 13  2  0
 12 20  1  0
 13 14  1  0
 14 15  1  0
 15 16  2  0
 16 17  1  0
 18 17  2  0
 19 18  1  0
 20 19  2  0
 20 15  1  0
 21 10  1  0
 22 21  2  0
 23 24  1  0
 25 24  1  0
 25 26  1  0
 27 26  1  6
 27 28  1  0
 28 21  1  0
 29 27  1  0
 30 29  2  0
 31 29  1  0
M  END
$$$$
