NWM.pdb
     RDKit          3D

 31 32  0  0  1  0  0  0  0  0999 V2000
   26.1970  -15.0284  -20.1330 N   0  0  0  0  0  0  0  0  0  0  0  0
   26.4978  -15.3516  -18.7759 C   0  0  0  0  0  0  0  0  0  0  0  0
   27.2021  -14.5394  -18.1525 O   0  0  0  0  0  0  0  0  0  0  0  0
   25.9707  -16.5948  -18.2079 C   0  0  0  0  0  0  0  0  0  0  0  0
   27.0338  -17.5082  -17.6293 C   0  0  2  0  0  0  0  0  0  0  0  0
   27.6398  -18.2343  -18.7724 N   0  0  0  0  0  0  0  0  0  0  0  0
   26.5070  -18.5335  -16.7066 C   0  0  0  0  0  0  0  0  0  0  0  0
   25.9026  -19.5385  -17.1789 O   0  0  0  0  0  0  0  0  0  0  0  0
   26.6556  -18.4410  -15.3017 N   0  0  0  0  0  0  0  0  0  0  0  0
   26.1107  -19.4129  -14.3772 C   0  0  1  0  0  0  0  0  0  0  0  0
   26.7970  -19.3619  -13.0470 C   0  0  0  0  0  0  0  0  0  0  0  0
   26.2992  -20.3115  -12.0403 C   0  0  0  0  0  0  0  0  0  0  0  0
   26.0582  -21.6772  -12.3193 C   0  0  0  0  0  0  0  0  0  0  0  0
   25.6412  -22.3031  -11.2107 N   0  0  0  0  0  0  0  0  0  0  0  0
   25.5910  -21.4283  -10.2124 C   0  0  0  0  0  0  0  0  0  0  0  0
   25.2130  -21.5999   -8.8887 C   0  0  0  0  0  0  0  0  0  0  0  0
   25.2538  -20.4813   -8.0798 C   0  0  0  0  0  0  0  0  0  0  0  0
   25.6467  -19.2553   -8.5512 C   0  0  0  0  0  0  0  0  0  0  0  0
   26.0148  -19.1282   -9.8744 C   0  0  0  0  0  0  0  0  0  0  0  0
   25.9950  -20.1946  -10.7144 C   0  0  0  0  0  0  0  0  0  0  0  0
   24.6715  -19.2912  -14.2529 C   0  0  0  0  0  0  0  0  0  0  0  0
   24.0880  -18.2314  -13.9551 O   0  0  0  0  0  0  0  0  0  0  0  0
   17.6680  -22.6646  -15.8039 C   0  0  0  0  0  0  0  0  0  0  0  0
   19.4653  -22.8314  -15.7340 S   0  0  0  0  0  0  0  0  0  0  0  0
   20.2438  -21.4754  -14.8512 C   0  0  0  0  0  0  0  0  0  0  0  0
   21.7394  -21.4614  -15.0689 C   0  0  0  0  0  0  0  0  0  0  0  0
   22.3969  -20.3791  -14.1941 C   0  0  2  0  0  0  0  0  0  0  0  0
   23.8142  -20.4254  -14.4841 N   0  0  0  0  0  0  0  0  0  0  0  0
   22.0728  -20.6559  -12.7840 C   0  0  0  0  0  0  0  0  0  0  0  0
   22.7036  -21.5514  -12.1741 O   0  0  0  0  0  0  0  0  0  0  0  0
   21.0832  -19.9319  -12.1394 O   0  0  0  0  0  0  0  0  0  0  0  0
  2  3  2  0
  2  1  1  0
  4  2  1  0
  5  4  1  0
  5  6  1  6
  7  5  1  0
  7  8  2  0
  9  7  1  0
 10  9  1  0
 10 11  1  1
 11 12  1  0
 12 13  2  0
 12 20  1  0
 13 14  1  0
 14 15  1  0
 15 16  2  0
 16 17  1  0
 18 17  2  0
 19 18  1  0
 20 19  2  0
 20 15  1  0
 21 10  1  0
 22 21  2  0
 23 24  1  0
 25 24  1  0
 25 26  1  0
 27 26  1  6
 27 28  1  0
 28 21  1  0
 29 27  1  0
 30 29  2  0
 31 29  1  0
M  END
$$$$
