NWM.pdb
     RDKit          3D

 31 32  0  0  1  0  0  0  0  0999 V2000
   26.1427  -25.8471  -18.2732 N   0  0  0  0  0  0  0  0  0  0  0  0
   25.6222  -25.5393  -16.9805 C   0  0  0  0  0  0  0  0  0  0  0  0
   24.6717  -26.2339  -16.5825 O   0  0  0  0  0  0  0  0  0  0  0  0
   26.2249  -24.4464  -16.2137 C   0  0  0  0  0  0  0  0  0  0  0  0
   25.2545  -23.7272  -15.2971 C   0  0  2  0  0  0  0  0  0  0  0  0
   24.3448  -22.9445  -16.1695 N   0  0  0  0  0  0  0  0  0  0  0  0
   25.8960  -22.7639  -14.3803 C   0  0  0  0  0  0  0  0  0  0  0  0
   27.1530  -22.7816  -14.2454 O   0  0  0  0  0  0  0  0  0  0  0  0
   25.1569  -21.8084  -13.6420 N   0  0  0  0  0  0  0  0  0  0  0  0
   25.7618  -20.8807  -12.7093 C   0  0  1  0  0  0  0  0  0  0  0  0
   25.2635  -19.4830  -12.9120 C   0  0  0  0  0  0  0  0  0  0  0  0
   25.6964  -18.8301  -14.1567 C   0  0  0  0  0  0  0  0  0  0  0  0
   24.7977  -18.2140  -15.0587 C   0  0  0  0  0  0  0  0  0  0  0  0
   25.4744  -17.6780  -16.0831 N   0  0  0  0  0  0  0  0  0  0  0  0
   26.7719  -17.9054  -15.9113 C   0  0  0  0  0  0  0  0  0  0  0  0
   27.8555  -17.5565  -16.7040 C   0  0  0  0  0  0  0  0  0  0  0  0
   29.1029  -17.9506  -16.2614 C   0  0  0  0  0  0  0  0  0  0  0  0
   29.2742  -18.6532  -15.0967 C   0  0  0  0  0  0  0  0  0  0  0  0
   28.1697  -18.9799  -14.3378 C   0  0  0  0  0  0  0  0  0  0  0  0
   26.9198  -18.6171  -14.7243 C   0  0  0  0  0  0  0  0  0  0  0  0
   25.6092  -21.3199  -11.3362 C   0  0  0  0  0  0  0  0  0  0  0  0
   24.6983  -22.0755  -10.9467 O   0  0  0  0  0  0  0  0  0  0  0  0
   27.7299  -18.9080   -4.3054 C   0  0  0  0  0  0  0  0  0  0  0  0
   28.4720  -19.7547   -5.7179 S   0  0  0  0  0  0  0  0  0  0  0  0
   27.2682  -20.6969   -6.6598 C   0  0  0  0  0  0  0  0  0  0  0  0
   27.4526  -20.4983   -8.1467 C   0  0  0  0  0  0  0  0  0  0  0  0
   26.3438  -21.2285   -8.9253 C   0  0  2  0  0  0  0  0  0  0  0  0
   26.5396  -20.8980  -10.3208 N   0  0  0  0  0  0  0  0  0  0  0  0
   25.0384  -20.8001   -8.3940 C   0  0  0  0  0  0  0  0  0  0  0  0
   24.4784  -19.7908   -8.8834 O   0  0  0  0  0  0  0  0  0  0  0  0
   24.4361  -21.5072   -7.3663 O   0  0  0  0  0  0  0  0  0  0  0  0
  2  3  2  0
  2  1  1  0
  4  2  1  0
  5  4  1  0
  5  6  1  6
  7  5  1  0
  7  8  2  0
  9  7  1  0
 10  9  1  0
 10 11  1  1
 11 12  1  0
 12 13  2  0
 12 20  1  0
 13 14  1  0
 14 15  1  0
 15 16  2  0
 16 17  1  0
 18 17  2  0
 19 18  1  0
 20 19  2  0
 20 15  1  0
 21 10  1  0
 22 21  2  0
 23 24  1  0
 25 24  1  0
 25 26  1  0
 27 26  1  1
 27 28  1  0
 28 21  1  0
 29 27  1  0
 30 29  2  0
 31 29  1  0
M  END
$$$$
