NWM.pdb
     RDKit          3D

 31 32  0  0  1  0  0  0  0  0999 V2000
   27.5469  -19.5817  -17.8637 N   0  0  0  0  0  0  0  0  0  0  0  0
   28.0259  -19.4729  -16.5238 C   0  0  0  0  0  0  0  0  0  0  0  0
   29.1765  -19.0266  -16.3778 O   0  0  0  0  0  0  0  0  0  0  0  0
   27.1531  -19.8843  -15.4216 C   0  0  0  0  0  0  0  0  0  0  0  0
   27.7373  -20.9759  -14.5463 C   0  0  2  0  0  0  0  0  0  0  0  0
   27.6085  -22.2446  -15.3046 N   0  0  0  0  0  0  0  0  0  0  0  0
   27.0210  -21.1698  -13.2699 C   0  0  0  0  0  0  0  0  0  0  0  0
   25.8501  -21.6465  -13.2841 O   0  0  0  0  0  0  0  0  0  0  0  0
   27.5968  -20.8463  -12.0177 N   0  0  0  0  0  0  0  0  0  0  0  0
   26.8854  -20.9562  -10.7614 C   0  0  1  0  0  0  0  0  0  0  0  0
   27.7773  -20.6798   -9.5905 C   0  0  0  0  0  0  0  0  0  0  0  0
   27.1003  -20.5748   -8.2891 C   0  0  0  0  0  0  0  0  0  0  0  0
   25.7652  -20.9916   -8.0772 C   0  0  0  0  0  0  0  0  0  0  0  0
   25.4270  -20.8060   -6.7943 N   0  0  0  0  0  0  0  0  0  0  0  0
   26.4630  -20.2880   -6.1439 C   0  0  0  0  0  0  0  0  0  0  0  0
   26.5911  -19.9168   -4.8134 C   0  0  0  0  0  0  0  0  0  0  0  0
   27.8074  -19.3872   -4.4295 C   0  0  0  0  0  0  0  0  0  0  0  0
   28.8451  -19.2308   -5.3117 C   0  0  0  0  0  0  0  0  0  0  0  0
   28.6757  -19.6130   -6.6261 C   0  0  0  0  0  0  0  0  0  0  0  0
   27.5018  -20.1406   -7.0584 C   0  0  0  0  0  0  0  0  0  0  0  0
   25.6921  -20.1333  -10.7436 C   0  0  0  0  0  0  0  0  0  0  0  0
   25.6958  -18.9016  -10.9313 O   0  0  0  0  0  0  0  0  0  0  0  0
   23.3958  -20.3566  -15.5291 C   0  0  0  0  0  0  0  0  0  0  0  0
   22.0009  -19.4298  -14.8521 S   0  0  0  0  0  0  0  0  0  0  0  0
   21.9711  -19.4537  -13.0570 C   0  0  0  0  0  0  0  0  0  0  0  0
   23.2452  -20.0376  -12.4913 C   0  0  0  0  0  0  0  0  0  0  0  0
   23.1795  -20.0758  -10.9541 C   0  0  2  0  0  0  0  0  0  0  0  0
   24.3973  -20.7194  -10.5094 N   0  0  0  0  0  0  0  0  0  0  0  0
   21.9542  -20.7895  -10.5552 C   0  0  0  0  0  0  0  0  0  0  0  0
   22.0219  -22.0059  -10.2589 O   0  0  0  0  0  0  0  0  0  0  0  0
   20.7413  -20.1221  -10.5059 O   0  0  0  0  0  0  0  0  0  0  0  0
  2  3  2  0
  2  1  1  0
  4  2  1  0
  5  4  1  0
  5  6  1  6
  7  5  1  0
  7  8  2  0
  9  7  1  0
 10  9  1  0
 10 11  1  1
 11 12  1  0
 12 13  2  0
 12 20  1  0
 13 14  1  0
 14 15  1  0
 15 16  2  0
 16 17  1  0
 18 17  2  0
 19 18  1  0
 20 19  2  0
 20 15  1  0
 21 10  1  0
 22 21  2  0
 23 24  1  0
 25 24  1  0
 25 26  1  0
 27 26  1  6
 27 28  1  0
 28 21  1  0
 29 27  1  0
 30 29  2  0
 31 29  1  0
M  END
$$$$
