NWM.pdb
     RDKit          3D

 31 32  0  0  1  0  0  0  0  0999 V2000
   35.4144  -37.2152   -5.5624 N   0  0  0  0  0  0  0  0  0  0  0  0
   34.5558  -38.2226   -5.0287 C   0  0  0  0  0  0  0  0  0  0  0  0
   34.9587  -39.3957   -5.1044 O   0  0  0  0  0  0  0  0  0  0  0  0
   33.2770  -37.8247   -4.4352 C   0  0  0  0  0  0  0  0  0  0  0  0
   33.0520  -36.3256   -4.4021 C   0  0  2  0  0  0  0  0  0  0  0  0
   33.9026  -35.7911   -3.3104 N   0  0  0  0  0  0  0  0  0  0  0  0
   31.6634  -35.9336   -4.0887 C   0  0  0  0  0  0  0  0  0  0  0  0
   31.3248  -35.7683   -2.8818 O   0  0  0  0  0  0  0  0  0  0  0  0
   30.6861  -35.7280   -5.0922 N   0  0  0  0  0  0  0  0  0  0  0  0
   29.3106  -35.3787   -4.8051 C   0  0  1  0  0  0  0  0  0  0  0  0
   28.5324  -35.1074   -6.0556 C   0  0  0  0  0  0  0  0  0  0  0  0
   27.4340  -34.1387   -5.9208 C   0  0  0  0  0  0  0  0  0  0  0  0
   26.7456  -33.9158   -4.7053 C   0  0  0  0  0  0  0  0  0  0  0  0
   25.8211  -32.9608   -4.8725 N   0  0  0  0  0  0  0  0  0  0  0  0
   25.8573  -32.5388   -6.1315 C   0  0  0  0  0  0  0  0  0  0  0  0
   25.0922  -31.5783   -6.7770 C   0  0  0  0  0  0  0  0  0  0  0  0
   25.3593  -31.3662   -8.1152 C   0  0  0  0  0  0  0  0  0  0  0  0
   26.3307  -32.0651   -8.7841 C   0  0  0  0  0  0  0  0  0  0  0  0
   27.0689  -33.0115   -8.1045 C   0  0  0  0  0  0  0  0  0  0  0  0
   26.8500  -33.2605   -6.7879 C   0  0  0  0  0  0  0  0  0  0  0  0
   28.6661  -36.3702   -3.9666 C   0  0  0  0  0  0  0  0  0  0  0  0
   28.6727  -37.5926   -4.2075 O   0  0  0  0  0  0  0  0  0  0  0  0
   25.5667  -37.7529    3.2107 C   0  0  0  0  0  0  0  0  0  0  0  0
   26.4329  -36.6501    2.0721 S   0  0  0  0  0  0  0  0  0  0  0  0
   26.4131  -37.2588    0.3830 C   0  0  0  0  0  0  0  0  0  0  0  0
   27.1305  -36.3135   -0.5530 C   0  0  0  0  0  0  0  0  0  0  0  0
   27.2620  -36.9429   -1.9514 C   0  0  2  0  0  0  0  0  0  0  0  0
   27.9702  -35.9798   -2.7674 N   0  0  0  0  0  0  0  0  0  0  0  0
   25.9131  -37.2619   -2.4501 C   0  0  0  0  0  0  0  0  0  0  0  0
   25.4715  -38.4282   -2.3210 O   0  0  0  0  0  0  0  0  0  0  0  0
   25.1412  -36.2824   -3.0529 O   0  0  0  0  0  0  0  0  0  0  0  0
  2  3  2  0
  2  1  1  0
  4  2  1  0
  5  4  1  0
  5  6  1  1
  7  5  1  0
  7  8  2  0
  9  7  1  0
 10  9  1  0
 10 11  1  6
 11 12  1  0
 12 13  2  0
 12 20  1  0
 13 14  1  0
 14 15  1  0
 15 16  2  0
 16 17  1  0
 18 17  2  0
 19 18  1  0
 20 19  2  0
 20 15  1  0
 21 10  1  0
 22 21  2  0
 23 24  1  0
 25 24  1  0
 25 26  1  0
 27 26  1  1
 27 28  1  0
 28 21  1  0
 29 27  1  0
 30 29  2  0
 31 29  1  0
M  END
$$$$
