NWM.pdb
     RDKit          3D

 31 32  0  0  1  0  0  0  0  0999 V2000
   25.5308  -26.1080  -15.3193 N   0  0  0  0  0  0  0  0  0  0  0  0
   24.9048  -25.2146  -16.2394 C   0  0  0  0  0  0  0  0  0  0  0  0
   25.1852  -25.3650  -17.4407 O   0  0  0  0  0  0  0  0  0  0  0  0
   23.9877  -24.1940  -15.7264 C   0  0  0  0  0  0  0  0  0  0  0  0
   23.8529  -24.1886  -14.2162 C   0  0  2  0  0  0  0  0  0  0  0  0
   22.4090  -24.3513  -13.9167 N   0  0  0  0  0  0  0  0  0  0  0  0
   24.2786  -22.9260  -13.5798 C   0  0  0  0  0  0  0  0  0  0  0  0
   23.6033  -21.8756  -13.7775 O   0  0  0  0  0  0  0  0  0  0  0  0
   25.4191  -22.8415  -12.7454 N   0  0  0  0  0  0  0  0  0  0  0  0
   25.9876  -21.5874  -12.2977 C   0  0  1  0  0  0  0  0  0  0  0  0
   27.0694  -21.7969  -11.2835 C   0  0  0  0  0  0  0  0  0  0  0  0
   26.9324  -21.0214  -10.0414 C   0  0  0  0  0  0  0  0  0  0  0  0
   25.7596  -20.3067   -9.7025 C   0  0  0  0  0  0  0  0  0  0  0  0
   25.9099  -19.7236   -8.5058 N   0  0  0  0  0  0  0  0  0  0  0  0
   27.1175  -20.0108   -8.0327 C   0  0  0  0  0  0  0  0  0  0  0  0
   27.7294  -19.6302   -6.8474 C   0  0  0  0  0  0  0  0  0  0  0  0
   29.0169  -20.0838   -6.6381 C   0  0  0  0  0  0  0  0  0  0  0  0
   29.6690  -20.8724   -7.5505 C   0  0  0  0  0  0  0  0  0  0  0  0
   29.0241  -21.2281   -8.7167 C   0  0  0  0  0  0  0  0  0  0  0  0
   27.7577  -20.8117   -8.9740 C   0  0  0  0  0  0  0  0  0  0  0  0
   26.4334  -20.7700  -13.4089 C   0  0  0  0  0  0  0  0  0  0  0  0
   27.1368  -21.1958  -14.3450 O   0  0  0  0  0  0  0  0  0  0  0  0
   21.5200  -16.8145  -16.6349 C   0  0  0  0  0  0  0  0  0  0  0  0
   22.9436  -16.4336  -15.5903 S   0  0  0  0  0  0  0  0  0  0  0  0
   24.1897  -17.7256  -15.6353 C   0  0  0  0  0  0  0  0  0  0  0  0
   25.3189  -17.4374  -14.6729 C   0  0  0  0  0  0  0  0  0  0  0  0
   26.3350  -18.5934  -14.6791 C   0  0  2  0  0  0  0  0  0  0  0  0
   26.0654  -19.3801  -13.4944 N   0  0  0  0  0  0  0  0  0  0  0  0
   27.6929  -18.0234  -14.7137 C   0  0  0  0  0  0  0  0  0  0  0  0
   28.3697  -17.9870  -13.6589 O   0  0  0  0  0  0  0  0  0  0  0  0
   28.2159  -17.5355  -15.8999 O   0  0  0  0  0  0  0  0  0  0  0  0
  2  3  2  0
  2  1  1  0
  4  2  1  0
  5  4  1  0
  5  6  1  6
  7  5  1  0
  7  8  2  0
  9  7  1  0
 10  9  1  0
 10 11  1  1
 11 12  1  0
 12 13  2  0
 12 20  1  0
 13 14  1  0
 14 15  1  0
 15 16  2  0
 16 17  1  0
 18 17  2  0
 19 18  1  0
 20 19  2  0
 20 15  1  0
 21 10  1  0
 22 21  2  0
 23 24  1  0
 25 24  1  0
 25 26  1  0
 27 26  1  1
 27 28  1  0
 28 21  1  0
 29 27  1  0
 30 29  2  0
 31 29  1  0
M  END
$$$$
