NWM.pdb
     RDKit          3D

 31 32  0  0  1  0  0  0  0  0999 V2000
   27.1612  -21.2193  -17.3608 N   0  0  0  0  0  0  0  0  0  0  0  0
   25.7634  -21.0647  -17.1180 C   0  0  0  0  0  0  0  0  0  0  0  0
   25.0891  -20.5718  -18.0381 O   0  0  0  0  0  0  0  0  0  0  0  0
   25.2157  -21.4866  -15.8265 C   0  0  0  0  0  0  0  0  0  0  0  0
   26.2651  -21.9346  -14.8280 C   0  0  2  0  0  0  0  0  0  0  0  0
   26.6572  -23.3131  -15.2115 N   0  0  0  0  0  0  0  0  0  0  0  0
   25.7784  -22.0038  -13.4357 C   0  0  0  0  0  0  0  0  0  0  0  0
   25.4966  -23.1297  -12.9343 O   0  0  0  0  0  0  0  0  0  0  0  0
   25.6169  -20.8521  -12.6283 N   0  0  0  0  0  0  0  0  0  0  0  0
   25.0646  -20.8882  -11.2904 C   0  0  1  0  0  0  0  0  0  0  0  0
   25.6457  -19.8177  -10.4190 C   0  0  0  0  0  0  0  0  0  0  0  0
   26.8743  -20.1845   -9.6986 C   0  0  0  0  0  0  0  0  0  0  0  0
   27.9517  -20.8694  -10.3079 C   0  0  0  0  0  0  0  0  0  0  0  0
   28.9429  -21.0404   -9.4232 N   0  0  0  0  0  0  0  0  0  0  0  0
   28.5824  -20.5082   -8.2607 C   0  0  0  0  0  0  0  0  0  0  0  0
   29.2633  -20.4470   -7.0536 C   0  0  0  0  0  0  0  0  0  0  0  0
   28.6130  -19.8305   -6.0028 C   0  0  0  0  0  0  0  0  0  0  0  0
   27.3551  -19.3012   -6.1343 C   0  0  0  0  0  0  0  0  0  0  0  0
   26.7132  -19.3833   -7.3524 C   0  0  0  0  0  0  0  0  0  0  0  0
   27.3057  -19.9773   -8.4199 C   0  0  0  0  0  0  0  0  0  0  0  0
   23.6154  -20.8528  -11.3040 C   0  0  0  0  0  0  0  0  0  0  0  0
   22.9435  -20.2890  -12.1890 O   0  0  0  0  0  0  0  0  0  0  0  0
   17.1287  -23.6630   -7.5946 C   0  0  0  0  0  0  0  0  0  0  0  0
   18.9213  -23.4422   -7.6232 S   0  0  0  0  0  0  0  0  0  0  0  0
   19.4603  -22.4014   -8.9835 C   0  0  0  0  0  0  0  0  0  0  0  0
   20.9661  -22.2770   -9.0205 C   0  0  0  0  0  0  0  0  0  0  0  0
   21.4063  -21.4784  -10.2604 C   0  0  2  0  0  0  0  0  0  0  0  0
   22.8536  -21.4971  -10.2652 N   0  0  0  0  0  0  0  0  0  0  0  0
   20.8330  -20.1243  -10.1733 C   0  0  0  0  0  0  0  0  0  0  0  0
   19.7819  -19.8616  -10.8044 O   0  0  0  0  0  0  0  0  0  0  0  0
   21.4482  -19.1534   -9.4001 O   0  0  0  0  0  0  0  0  0  0  0  0
  2  3  2  0
  2  1  1  0
  4  2  1  0
  5  4  1  0
  5  6  1  6
  7  5  1  0
  7  8  2  0
  9  7  1  0
 10  9  1  0
 10 11  1  1
 11 12  1  0
 12 13  2  0
 12 20  1  0
 13 14  1  0
 14 15  1  0
 15 16  2  0
 16 17  1  0
 18 17  2  0
 19 18  1  0
 20 19  2  0
 20 15  1  0
 21 10  1  0
 22 21  2  0
 23 24  1  0
 25 24  1  0
 25 26  1  0
 27 26  1  1
 27 28  1  0
 28 21  1  0
 29 27  1  0
 30 29  2  0
 31 29  1  0
M  END
$$$$
