RLL.pdb
     RDKit          3D

 28 27  0  0  1  0  0  0  0  0999 V2000
   16.9362  -14.2942  -22.3254 N   0  0  0  0  0  0  0  0  0  0  0  0
   17.9856  -14.7899  -23.1681 C   0  0  0  0  0  0  0  0  0  0  0  0
   17.7263  -15.4298  -24.2439 N   0  0  0  0  0  0  0  0  0  0  0  0
   19.3491  -14.5640  -22.7926 N   0  0  0  0  0  0  0  0  0  0  0  0
   19.7203  -13.9277  -21.5725 C   0  0  0  0  0  0  0  0  0  0  0  0
   21.1229  -13.7396  -21.2240 C   0  0  0  0  0  0  0  0  0  0  0  0
   21.5697  -13.0609  -19.9934 C   0  0  0  0  0  0  0  0  0  0  0  0
   22.4573  -13.7784  -19.0667 C   0  0  2  0  0  0  0  0  0  0  0  0
   22.0458  -15.0923  -18.7819 N   0  0  0  0  0  0  0  0  0  0  0  0
   22.6411  -13.0454  -17.7647 C   0  0  0  0  0  0  0  0  0  0  0  0
   21.7372  -12.9471  -16.9021 O   0  0  0  0  0  0  0  0  0  0  0  0
   18.4509  -15.8048  -24.8735 C   0  0  0  0  0  0  0  0  0  0  0  0
   25.8461  -13.3724  -14.3780 C   0  0  2  0  0  0  0  0  0  0  0  0
   26.2984  -12.7589  -15.7374 C   0  0  0  0  0  0  0  0  0  0  0  0
   27.7803  -12.4911  -15.5520 C   0  0  0  0  0  0  0  0  0  0  0  0
   25.5482  -11.4806  -15.9533 C   0  0  2  0  0  0  0  0  0  0  0  0
   24.1031  -11.5973  -16.2897 N   0  0  0  0  0  0  0  0  0  0  0  0
   23.8938  -12.4113  -17.4485 C   0  0  0  0  0  0  0  0  0  0  0  0
   23.5644  -10.1989  -16.5526 O   0  0  0  0  0  0  0  0  0  0  0  0
   23.8088   -9.7189  -17.6834 C   0  0  0  0  0  0  0  0  0  0  0  0
   19.6289   -6.7977  -16.3940 C   0  0  1  0  0  0  0  0  0  0  0  0
   20.6323   -7.1305  -17.5083 C   0  0  0  0  0  0  0  0  0  0  0  0
   19.8205   -7.2217  -18.7695 C   0  0  0  0  0  0  0  0  0  0  0  0
   21.3135   -8.3880  -17.1017 C   0  0  2  0  0  0  0  0  0  0  0  0
   22.1765   -8.2814  -15.8721 N   0  0  0  0  0  0  0  0  0  0  0  0
   22.8351   -9.5200  -15.5462 C   0  0  0  0  0  0  0  0  0  0  0  0
   21.4806   -7.7556  -14.6910 O   0  0  0  0  0  0  0  0  0  0  0  0
   21.0536   -8.5382  -13.8067 O   0  0  0  0  0  0  0  0  0  0  0  0
  2  1  1  0
  3  2  2  0
  4  2  1  0
  5  4  1  0
  6  5  1  0
  7  6  1  0
  8  7  1  0
  8  9  1  1
 10 11  2  0
 10  8  1  0
 13 12  1  6
 13 15  1  0
 14 13  1  0
 16 15  1  1
 16 18  1  0
 16 17  1  0
 17 10  1  0
 18 19  2  0
 21 20  1  6
 21 22  1  0
 23 21  1  0
 24 23  1  6
 25 24  1  0
 25 18  1  0
 26 28  1  0
 26 24  1  0
 27 26  2  0
M  END
$$$$
