RLL.pdb
     RDKit          3D

 28 27  0  0  1  0  0  0  0  0999 V2000
   23.0003  -20.5874   -6.3776 N   0  0  0  0  0  0  0  0  0  0  0  0
   22.5969  -20.9341   -7.7095 C   0  0  0  0  0  0  0  0  0  0  0  0
   21.3621  -20.9912   -8.0352 N   0  0  0  0  0  0  0  0  0  0  0  0
   23.5995  -21.2239   -8.6904 N   0  0  0  0  0  0  0  0  0  0  0  0
   24.9570  -20.8116   -8.5542 C   0  0  0  0  0  0  0  0  0  0  0  0
   25.9326  -21.0943   -9.5993 C   0  0  0  0  0  0  0  0  0  0  0  0
   25.8308  -20.5614  -10.9706 C   0  0  0  0  0  0  0  0  0  0  0  0
   25.1974  -21.3863  -12.0098 C   0  0  2  0  0  0  0  0  0  0  0  0
   25.3638  -22.7697  -11.8228 N   0  0  0  0  0  0  0  0  0  0  0  0
   25.6748  -21.0330  -13.3931 C   0  0  0  0  0  0  0  0  0  0  0  0
   25.6712  -19.8618  -13.8391 O   0  0  0  0  0  0  0  0  0  0  0  0
   21.0230  -21.4025   -8.9171 C   0  0  0  0  0  0  0  0  0  0  0  0
   29.2571  -23.7044  -17.6904 C   0  0  1  0  0  0  0  0  0  0  0  0
   28.2480  -22.5500  -17.4113 C   0  0  0  0  0  0  0  0  0  0  0  0
   29.0994  -21.2944  -17.4391 C   0  0  0  0  0  0  0  0  0  0  0  0
   27.6514  -22.7601  -16.0536 C   0  0  2  0  0  0  0  0  0  0  0  0
   26.6053  -21.7936  -15.6216 N   0  0  0  0  0  0  0  0  0  0  0  0
   26.1677  -22.0511  -14.2830 C   0  0  0  0  0  0  0  0  0  0  0  0
   25.4233  -21.9204  -16.5710 O   0  0  0  0  0  0  0  0  0  0  0  0
   24.6072  -22.8353  -16.3142 C   0  0  0  0  0  0  0  0  0  0  0  0
   21.3904  -21.6812  -18.9903 C   0  0  1  0  0  0  0  0  0  0  0  0
   21.8685  -20.2244  -19.0834 C   0  0  0  0  0  0  0  0  0  0  0  0
   22.0758  -19.9596  -20.5479 C   0  0  0  0  0  0  0  0  0  0  0  0
   23.0912  -20.1266  -18.2431 C   0  0  1  0  0  0  0  0  0  0  0  0
   24.1554  -21.1509  -18.5373 N   0  0  0  0  0  0  0  0  0  0  0  0
   25.2966  -21.0324  -17.6669 C   0  0  0  0  0  0  0  0  0  0  0  0
   24.5924  -21.1808  -19.9388 O   0  0  0  0  0  0  0  0  0  0  0  0
   25.4411  -20.3544  -20.3554 O   0  0  0  0  0  0  0  0  0  0  0  0
  2  1  1  0
  3  2  2  0
  4  2  1  0
  5  4  1  0
  6  5  1  0
  7  6  1  0
  8  7  1  0
  8  9  1  1
 10 11  2  0
 10  8  1  0
 13 12  1  6
 13 15  1  0
 14 13  1  0
 16 15  1  1
 16 18  1  0
 16 17  1  0
 17 10  1  0
 18 19  2  0
 21 20  1  6
 21 22  1  0
 23 21  1  0
 24 23  1  1
 25 24  1  0
 25 18  1  0
 26 28  1  0
 26 24  1  0
 27 26  2  0
M  END
$$$$
