RLL.pdb
     RDKit          3D

 28 27  0  0  1  0  0  0  0  0999 V2000
   19.4864  -31.4668   -1.2314 N   0  0  0  0  0  0  0  0  0  0  0  0
   18.9424  -31.1103   -2.5096 C   0  0  0  0  0  0  0  0  0  0  0  0
   19.0319  -31.8985   -3.5121 N   0  0  0  0  0  0  0  0  0  0  0  0
   18.2892  -29.8450   -2.6630 N   0  0  0  0  0  0  0  0  0  0  0  0
   18.0756  -28.9479   -1.5762 C   0  0  0  0  0  0  0  0  0  0  0  0
   16.7269  -28.6168   -1.1341 C   0  0  0  0  0  0  0  0  0  0  0  0
   16.4412  -27.6892   -0.0239 C   0  0  0  0  0  0  0  0  0  0  0  0
   15.0681  -27.5996    0.4936 C   0  0  2  0  0  0  0  0  0  0  0  0
   14.1982  -26.8507   -0.3182 N   0  0  0  0  0  0  0  0  0  0  0  0
   15.0164  -27.0382    1.8895 C   0  0  0  0  0  0  0  0  0  0  0  0
   14.6167  -25.8783    2.1454 O   0  0  0  0  0  0  0  0  0  0  0  0
   18.6916  -31.6624   -4.4557 C   0  0  0  0  0  0  0  0  0  0  0  0
   13.0922  -29.1265    5.5342 C   0  0  2  0  0  0  0  0  0  0  0  0
   14.5179  -29.6458    5.1786 C   0  0  0  0  0  0  0  0  0  0  0  0
   14.7868  -30.7314    6.2039 C   0  0  0  0  0  0  0  0  0  0  0  0
   15.4867  -28.5141    5.3333 C   0  0  2  0  0  0  0  0  0  0  0  0
   15.3587  -27.3832    4.3743 N   0  0  0  0  0  0  0  0  0  0  0  0
   15.4341  -27.8300    3.0163 C   0  0  0  0  0  0  0  0  0  0  0  0
   16.4902  -26.4029    4.6454 O   0  0  0  0  0  0  0  0  0  0  0  0
   16.5005  -25.8754    5.7815 C   0  0  0  0  0  0  0  0  0  0  0  0
   21.5719  -24.3269    1.8487 C   0  0  1  0  0  0  0  0  0  0  0  0
   20.6714  -24.2063    3.0871 C   0  0  0  0  0  0  0  0  0  0  0  0
   21.5929  -24.3139    4.2692 C   0  0  0  0  0  0  0  0  0  0  0  0
   19.6547  -25.2855    2.9769 C   0  0  2  0  0  0  0  0  0  0  0  0
   18.4617  -25.1380    3.8842 N   0  0  0  0  0  0  0  0  0  0  0  0
   17.4515  -26.1351    3.6406 C   0  0  0  0  0  0  0  0  0  0  0  0
   17.8595  -23.7989    3.8754 O   0  0  0  0  0  0  0  0  0  0  0  0
   16.9537  -23.5172    3.0526 O   0  0  0  0  0  0  0  0  0  0  0  0
  2  1  1  0
  3  2  2  0
  4  2  1  0
  5  4  1  0
  6  5  1  0
  7  6  1  0
  8  7  1  0
  8  9  1  6
 10 11  2  0
 10  8  1  0
 13 12  1  6
 13 15  1  0
 14 13  1  0
 16 15  1  6
 16 18  1  0
 16 17  1  0
 17 10  1  0
 18 19  2  0
 21 20  1  6
 21 22  1  0
 23 21  1  0
 24 23  1  1
 25 24  1  0
 25 18  1  0
 26 28  1  0
 26 24  1  0
 27 26  2  0
M  END
$$$$
