RLL.pdb
     RDKit          3D

 28 27  0  0  1  0  0  0  0  0999 V2000
   28.0634  -18.2346  -18.8106 N   0  0  0  0  0  0  0  0  0  0  0  0
   26.9899  -18.9127  -19.4775 C   0  0  0  0  0  0  0  0  0  0  0  0
   26.4544  -18.4302  -20.5332 N   0  0  0  0  0  0  0  0  0  0  0  0
   26.5095  -20.1530  -18.9463 N   0  0  0  0  0  0  0  0  0  0  0  0
   26.7763  -20.5783  -17.6123 C   0  0  0  0  0  0  0  0  0  0  0  0
   27.1242  -19.6146  -16.5759 C   0  0  0  0  0  0  0  0  0  0  0  0
   26.5851  -19.6673  -15.2043 C   0  0  0  0  0  0  0  0  0  0  0  0
   27.0416  -20.7330  -14.3002 C   0  0  2  0  0  0  0  0  0  0  0  0
   27.5050  -21.8843  -14.9607 N   0  0  0  0  0  0  0  0  0  0  0  0
   25.9794  -21.1449  -13.3162 C   0  0  0  0  0  0  0  0  0  0  0  0
   25.1645  -22.0710  -13.5378 O   0  0  0  0  0  0  0  0  0  0  0  0
   25.6514  -18.8615  -21.0139 C   0  0  0  0  0  0  0  0  0  0  0  0
   26.8035  -21.8563   -8.9318 C   0  0  2  0  0  0  0  0  0  0  0  0
   26.5578  -20.3530   -9.2609 C   0  0  0  0  0  0  0  0  0  0  0  0
   26.7467  -19.6438   -7.9330 C   0  0  0  0  0  0  0  0  0  0  0  0
   25.1513  -20.1992   -9.7525 C   0  0  2  0  0  0  0  0  0  0  0  0
   24.8374  -20.7808  -11.0860 N   0  0  0  0  0  0  0  0  0  0  0  0
   25.8524  -20.4757  -12.0484 C   0  0  0  0  0  0  0  0  0  0  0  0
   23.5101  -20.2027  -11.5535 O   0  0  0  0  0  0  0  0  0  0  0  0
   23.5605  -19.0700  -12.0860 C   0  0  0  0  0  0  0  0  0  0  0  0
   20.7052  -21.9787  -15.8497 C   0  0  1  0  0  0  0  0  0  0  0  0
   20.3457  -21.1385  -14.6152 C   0  0  0  0  0  0  0  0  0  0  0  0
   20.1839  -19.7313  -15.1168 C   0  0  0  0  0  0  0  0  0  0  0  0
   21.4445  -21.3382  -13.6337 C   0  0  2  0  0  0  0  0  0  0  0  0
   21.2144  -20.7220  -12.2788 N   0  0  0  0  0  0  0  0  0  0  0  0
   22.3142  -20.9400  -11.3750 C   0  0  0  0  0  0  0  0  0  0  0  0
   19.9530  -21.1206  -11.6418 O   0  0  0  0  0  0  0  0  0  0  0  0
   19.8485  -22.2446  -11.0918 O   0  0  0  0  0  0  0  0  0  0  0  0
  2  1  1  0
  3  2  2  0
  4  2  1  0
  5  4  1  0
  6  5  1  0
  7  6  1  0
  8  7  1  0
  8  9  1  6
 10 11  2  0
 10  8  1  0
 13 12  1  6
 13 15  1  0
 14 13  1  0
 16 15  1  1
 16 18  1  0
 16 17  1  0
 17 10  1  0
 18 19  2  0
 21 20  1  6
 21 22  1  0
 23 21  1  0
 24 23  1  6
 25 24  1  0
 25 18  1  0
 26 28  1  0
 26 24  1  0
 27 26  2  0
M  END
$$$$
