RLL.pdb
     RDKit          3D

 28 27  0  0  1  0  0  0  0  0999 V2000
   27.7080  -17.6317  -19.2758 N   0  0  0  0  0  0  0  0  0  0  0  0
   29.0930  -17.4097  -18.9768 C   0  0  0  0  0  0  0  0  0  0  0  0
   29.9060  -16.9915  -19.8703 N   0  0  0  0  0  0  0  0  0  0  0  0
   29.5716  -17.6651  -17.6514 N   0  0  0  0  0  0  0  0  0  0  0  0
   28.7163  -18.0647  -16.5836 C   0  0  0  0  0  0  0  0  0  0  0  0
   27.4533  -18.7412  -16.8506 C   0  0  0  0  0  0  0  0  0  0  0  0
   26.5842  -19.2859  -15.7910 C   0  0  0  0  0  0  0  0  0  0  0  0
   27.1217  -20.3135  -14.8874 C   0  0  2  0  0  0  0  0  0  0  0  0
   27.8046  -21.3524  -15.5439 N   0  0  0  0  0  0  0  0  0  0  0  0
   26.0580  -20.9223  -14.0132 C   0  0  0  0  0  0  0  0  0  0  0  0
   25.3106  -21.8534  -14.3940 O   0  0  0  0  0  0  0  0  0  0  0  0
   30.9131  -16.8501  -19.7041 C   0  0  0  0  0  0  0  0  0  0  0  0
   26.2915  -22.2218   -9.6213 C   0  0  2  0  0  0  0  0  0  0  0  0
   26.1925  -20.6775   -9.8063 C   0  0  0  0  0  0  0  0  0  0  0  0
   26.2396  -20.1279   -8.3928 C   0  0  0  0  0  0  0  0  0  0  0  0
   24.8816  -20.3614  -10.4581 C   0  0  2  0  0  0  0  0  0  0  0  0
   24.7123  -20.7926  -11.8725 N   0  0  0  0  0  0  0  0  0  0  0  0
   25.8501  -20.4484  -12.6703 C   0  0  0  0  0  0  0  0  0  0  0  0
   23.4773  -20.1029  -12.4326 O   0  0  0  0  0  0  0  0  0  0  0  0
   23.6880  -19.1400  -13.2056 C   0  0  0  0  0  0  0  0  0  0  0  0
   20.8643  -19.7621  -15.6491 C   0  0  2  0  0  0  0  0  0  0  0  0
   22.0411  -20.7361  -15.4883 C   0  0  0  0  0  0  0  0  0  0  0  0
   22.1043  -21.5098  -16.7749 C   0  0  0  0  0  0  0  0  0  0  0  0
   21.7556  -21.5470  -14.2753 C   0  0  2  0  0  0  0  0  0  0  0  0
   21.2054  -20.7770  -13.1037 N   0  0  0  0  0  0  0  0  0  0  0  0
   22.1862  -20.5594  -12.0718 C   0  0  0  0  0  0  0  0  0  0  0  0
   19.9846  -21.3516  -12.5246 O   0  0  0  0  0  0  0  0  0  0  0  0
   18.8824  -20.7657  -12.6610 O   0  0  0  0  0  0  0  0  0  0  0  0
  2  1  1  0
  3  2  2  0
  4  2  1  0
  5  4  1  0
  6  5  1  0
  7  6  1  0
  8  7  1  0
  8  9  1  6
 10 11  2  0
 10  8  1  0
 13 12  1  6
 13 15  1  0
 14 13  1  0
 16 15  1  1
 16 18  1  0
 16 17  1  0
 17 10  1  0
 18 19  2  0
 21 20  1  6
 21 22  1  0
 23 21  1  0
 24 23  1  6
 25 24  1  0
 25 18  1  0
 26 28  1  0
 26 24  1  0
 27 26  2  0
M  END
$$$$
