RLL.pdb
     RDKit          3D

 28 27  0  0  1  0  0  0  0  0999 V2000
   17.2163  -23.8101  -12.9504 N   0  0  0  0  0  0  0  0  0  0  0  0
   17.8398  -25.0711  -13.2296 C   0  0  0  0  0  0  0  0  0  0  0  0
   17.1610  -26.1537  -13.2647 N   0  0  0  0  0  0  0  0  0  0  0  0
   19.2509  -25.1150  -13.4706 N   0  0  0  0  0  0  0  0  0  0  0  0
   20.0950  -23.9747  -13.3333 C   0  0  0  0  0  0  0  0  0  0  0  0
   20.3250  -23.0752  -14.4567 C   0  0  0  0  0  0  0  0  0  0  0  0
   21.2105  -21.8981  -14.3861 C   0  0  0  0  0  0  0  0  0  0  0  0
   21.0333  -20.9387  -13.2863 C   0  0  2  0  0  0  0  0  0  0  0  0
   20.0927  -19.9286  -13.5539 N   0  0  0  0  0  0  0  0  0  0  0  0
   22.3278  -20.2867  -12.8794 C   0  0  0  0  0  0  0  0  0  0  0  0
   22.8005  -19.2830  -13.4625 O   0  0  0  0  0  0  0  0  0  0  0  0
   17.5647  -27.0731  -13.4966 C   0  0  0  0  0  0  0  0  0  0  0  0
   26.3998  -21.0892   -8.1891 C   0  0  1  0  0  0  0  0  0  0  0  0
   26.1361  -20.3830   -9.5531 C   0  0  0  0  0  0  0  0  0  0  0  0
   26.1521  -18.9035   -9.2173 C   0  0  0  0  0  0  0  0  0  0  0  0
   24.7872  -20.8025  -10.0509 C   0  0  2  0  0  0  0  0  0  0  0  0
   24.3669  -20.2775  -11.3786 N   0  0  0  0  0  0  0  0  0  0  0  0
   23.0955  -20.8017  -11.7763 C   0  0  0  0  0  0  0  0  0  0  0  0
   25.4195  -20.6796  -12.4009 O   0  0  0  0  0  0  0  0  0  0  0  0
   25.3834  -21.8701  -12.7884 C   0  0  0  0  0  0  0  0  0  0  0  0
   29.0095  -19.0930  -16.1703 C   0  0  1  0  0  0  0  0  0  0  0  0
   27.5707  -18.5633  -16.2630 C   0  0  0  0  0  0  0  0  0  0  0  0
   27.6725  -17.2367  -16.9613 C   0  0  0  0  0  0  0  0  0  0  0  0
   27.0504  -18.5080  -14.8714 C   0  0  2  0  0  0  0  0  0  0  0  0
   26.8857  -19.8432  -14.1944 N   0  0  0  0  0  0  0  0  0  0  0  0
   26.3636  -19.7278  -12.8572 C   0  0  0  0  0  0  0  0  0  0  0  0
   28.0982  -20.6712  -14.1915 O   0  0  0  0  0  0  0  0  0  0  0  0
   28.9160  -20.5935  -13.2418 O   0  0  0  0  0  0  0  0  0  0  0  0
  2  1  1  0
  3  2  2  0
  4  2  1  0
  5  4  1  0
  6  5  1  0
  7  6  1  0
  8  7  1  0
  8  9  1  6
 10 11  2  0
 10  8  1  0
 13 12  1  6
 13 15  1  0
 14 13  1  0
 16 15  1  1
 16 18  1  0
 16 17  1  0
 17 10  1  0
 18 19  2  0
 21 20  1  6
 21 22  1  0
 23 21  1  0
 24 23  1  6
 25 24  1  0
 25 18  1  0
 26 28  1  0
 26 24  1  0
 27 26  2  0
M  END
$$$$
