RLL.pdb
     RDKit          3D

 28 27  0  0  1  0  0  0  0  0999 V2000
   17.8961  -17.2046  -16.4745 N   0  0  0  0  0  0  0  0  0  0  0  0
   17.6267  -17.7652  -17.7668 C   0  0  0  0  0  0  0  0  0  0  0  0
   16.8605  -18.7793  -17.9036 N   0  0  0  0  0  0  0  0  0  0  0  0
   18.2315  -17.1765  -18.9240 N   0  0  0  0  0  0  0  0  0  0  0  0
   18.9370  -15.9388  -18.8832 C   0  0  0  0  0  0  0  0  0  0  0  0
   18.5327  -14.8777  -17.9696 C   0  0  0  0  0  0  0  0  0  0  0  0
   19.1518  -13.5393  -17.9550 C   0  0  0  0  0  0  0  0  0  0  0  0
   18.5645  -12.4923  -17.1063 C   0  0  2  0  0  0  0  0  0  0  0  0
   17.2044  -12.2443  -17.3621 N   0  0  0  0  0  0  0  0  0  0  0  0
   19.3115  -11.1889  -17.2031 C   0  0  0  0  0  0  0  0  0  0  0  0
   20.5402  -11.0870  -16.9785 O   0  0  0  0  0  0  0  0  0  0  0  0
   16.6311  -19.2023  -18.8149 C   0  0  0  0  0  0  0  0  0  0  0  0
   17.9528   -5.5412  -19.5076 C   0  0  1  0  0  0  0  0  0  0  0  0
   18.9956   -6.3796  -18.7087 C   0  0  0  0  0  0  0  0  0  0  0  0
   20.2003   -6.4522  -19.6282 C   0  0  0  0  0  0  0  0  0  0  0  0
   18.4241   -7.7432  -18.4694 C   0  0  2  0  0  0  0  0  0  0  0  0
   19.2846   -8.7150  -17.7414 N   0  0  0  0  0  0  0  0  0  0  0  0
   18.6285   -9.9754  -17.5669 C   0  0  0  0  0  0  0  0  0  0  0  0
   19.6145   -8.1259  -16.3780 O   0  0  0  0  0  0  0  0  0  0  0  0
   18.6490   -7.9815  -15.5931 C   0  0  0  0  0  0  0  0  0  0  0  0
   23.3039   -8.7344  -15.4185 C   0  0  1  0  0  0  0  0  0  0  0  0
   22.9711   -8.8376  -13.9226 C   0  0  0  0  0  0  0  0  0  0  0  0
   23.0758  -10.2981  -13.5849 C   0  0  0  0  0  0  0  0  0  0  0  0
   21.6196   -8.2429  -13.7484 C   0  0  1  0  0  0  0  0  0  0  0  0
   21.2385   -7.2054  -14.7714 N   0  0  0  0  0  0  0  0  0  0  0  0
   20.9499   -7.7767  -16.0615 C   0  0  0  0  0  0  0  0  0  0  0  0
   22.2083   -6.1118  -14.9109 O   0  0  0  0  0  0  0  0  0  0  0  0
   22.7223   -5.8597  -16.0285 O   0  0  0  0  0  0  0  0  0  0  0  0
  2  1  1  0
  3  2  2  0
  4  2  1  0
  5  4  1  0
  6  5  1  0
  7  6  1  0
  8  7  1  0
  8  9  1  6
 10 11  2  0
 10  8  1  0
 13 12  1  1
 13 15  1  0
 14 13  1  0
 16 15  1  6
 16 18  1  0
 16 17  1  0
 17 10  1  0
 18 19  2  0
 21 20  1  1
 21 22  1  0
 23 21  1  0
 24 23  1  1
 25 24  1  0
 25 18  1  0
 26 28  1  0
 26 24  1  0
 27 26  2  0
M  END
$$$$
