RLL.pdb
     RDKit          3D

 28 27  0  0  1  0  0  0  0  0999 V2000
   14.9992  -14.6678  -19.3643 N   0  0  0  0  0  0  0  0  0  0  0  0
   15.2509  -15.3623  -18.1349 C   0  0  0  0  0  0  0  0  0  0  0  0
   14.8410  -16.5594  -17.9530 N   0  0  0  0  0  0  0  0  0  0  0  0
   15.9736  -14.6978  -17.0921 N   0  0  0  0  0  0  0  0  0  0  0  0
   16.0799  -13.2790  -17.0073 C   0  0  0  0  0  0  0  0  0  0  0  0
   16.7618  -12.6461  -15.8855 C   0  0  0  0  0  0  0  0  0  0  0  0
   16.8504  -11.1847  -15.7090 C   0  0  0  0  0  0  0  0  0  0  0  0
   17.7563  -10.4165  -16.5754 C   0  0  2  0  0  0  0  0  0  0  0  0
   18.5242  -11.2091  -17.4464 N   0  0  0  0  0  0  0  0  0  0  0  0
   18.6887   -9.5328  -15.7906 C   0  0  0  0  0  0  0  0  0  0  0  0
   18.3050   -8.7988  -14.8500 O   0  0  0  0  0  0  0  0  0  0  0  0
   15.0534  -17.1134  -17.1105 C   0  0  0  0  0  0  0  0  0  0  0  0
   22.7968   -9.9921  -13.1651 C   0  0  2  0  0  0  0  0  0  0  0  0
   22.7225  -10.4263  -14.6600 C   0  0  0  0  0  0  0  0  0  0  0  0
   24.1115  -10.9552  -14.9651 C   0  0  0  0  0  0  0  0  0  0  0  0
   22.4177   -9.2174  -15.4900 C   0  0  2  0  0  0  0  0  0  0  0  0
   21.0367   -8.6700  -15.3995 N   0  0  0  0  0  0  0  0  0  0  0  0
   20.0947   -9.4931  -16.0955 C   0  0  0  0  0  0  0  0  0  0  0  0
   21.0387   -7.2777  -16.0129 O   0  0  0  0  0  0  0  0  0  0  0  0
   21.2142   -7.2228  -17.2520 C   0  0  0  0  0  0  0  0  0  0  0  0
   18.0277   -2.4355  -16.5708 C   0  0  1  0  0  0  0  0  0  0  0  0
   19.4616   -2.9617  -16.7325 C   0  0  0  0  0  0  0  0  0  0  0  0
   19.7261   -2.9668  -18.2117 C   0  0  0  0  0  0  0  0  0  0  0  0
   19.4982   -4.2964  -16.0784 C   0  0  2  0  0  0  0  0  0  0  0  0
   20.8759   -4.8305  -15.7871 N   0  0  0  0  0  0  0  0  0  0  0  0
   20.8493   -6.1408  -15.1900 C   0  0  0  0  0  0  0  0  0  0  0  0
   21.7149   -3.9298  -14.9867 O   0  0  0  0  0  0  0  0  0  0  0  0
   21.7444   -4.0362  -13.7359 O   0  0  0  0  0  0  0  0  0  0  0  0
  2  1  1  0
  3  2  2  0
  4  2  1  0
  5  4  1  0
  6  5  1  0
  7  6  1  0
  8  7  1  0
  8  9  1  1
 10 11  2  0
 10  8  1  0
 13 12  1  1
 13 15  1  0
 14 13  1  0
 16 15  1  1
 16 18  1  0
 16 17  1  0
 17 10  1  0
 18 19  2  0
 21 20  1  1
 21 22  1  0
 23 21  1  0
 24 23  1  6
 25 24  1  0
 25 18  1  0
 26 28  1  0
 26 24  1  0
 27 26  2  0
M  END
$$$$
