RLL.pdb
     RDKit          3D

 28 27  0  0  1  0  0  0  0  0999 V2000
   18.0247  -25.4635   -9.5401 N   0  0  0  0  0  0  0  0  0  0  0  0
   17.6786  -26.0616  -10.7969 C   0  0  0  0  0  0  0  0  0  0  0  0
   16.7855  -26.9729  -10.8745 N   0  0  0  0  0  0  0  0  0  0  0  0
   18.3504  -25.6290  -11.9855 N   0  0  0  0  0  0  0  0  0  0  0  0
   18.9394  -24.3376  -12.1147 C   0  0  0  0  0  0  0  0  0  0  0  0
   18.1863  -23.1356  -11.7798 C   0  0  0  0  0  0  0  0  0  0  0  0
   18.7298  -21.7718  -11.9191 C   0  0  0  0  0  0  0  0  0  0  0  0
   19.8824  -21.3771  -11.0961 C   0  0  2  0  0  0  0  0  0  0  0  0
   19.5401  -20.6459   -9.9451 N   0  0  0  0  0  0  0  0  0  0  0  0
   20.9004  -20.5878  -11.8751 C   0  0  0  0  0  0  0  0  0  0  0  0
   20.7758  -19.3650  -12.1199 O   0  0  0  0  0  0  0  0  0  0  0  0
   16.5286  -27.4467  -11.7528 C   0  0  0  0  0  0  0  0  0  0  0  0
   25.2899  -20.2021  -10.9066 C   0  0  2  0  0  0  0  0  0  0  0  0
   24.9456  -21.5477  -11.6135 C   0  0  0  0  0  0  0  0  0  0  0  0
   26.2715  -22.2819  -11.6857 C   0  0  0  0  0  0  0  0  0  0  0  0
   24.4289  -21.2433  -12.9859 C   0  0  2  0  0  0  0  0  0  0  0  0
   23.1311  -20.5198  -13.0709 N   0  0  0  0  0  0  0  0  0  0  0  0
   22.0888  -21.2205  -12.3839 C   0  0  0  0  0  0  0  0  0  0  0  0
   22.7617  -20.3822  -14.5404 O   0  0  0  0  0  0  0  0  0  0  0  0
   22.1980  -21.3724  -15.0609 C   0  0  0  0  0  0  0  0  0  0  0  0
   20.3035  -16.4444  -18.1707 C   0  0  1  0  0  0  0  0  0  0  0  0
   21.1640  -17.7167  -18.1802 C   0  0  0  0  0  0  0  0  0  0  0  0
   20.2599  -18.8127  -18.6696 C   0  0  0  0  0  0  0  0  0  0  0  0
   21.6768  -17.8902  -16.7955 C   0  0  2  0  0  0  0  0  0  0  0  0
   22.6269  -19.0429  -16.6029 N   0  0  0  0  0  0  0  0  0  0  0  0
   23.0585  -19.1851  -15.2363 C   0  0  0  0  0  0  0  0  0  0  0  0
   23.7903  -19.0210  -17.4983 O   0  0  0  0  0  0  0  0  0  0  0  0
   23.6309  -18.9879  -18.7435 O   0  0  0  0  0  0  0  0  0  0  0  0
  2  1  1  0
  3  2  2  0
  4  2  1  0
  5  4  1  0
  6  5  1  0
  7  6  1  0
  8  7  1  0
  8  9  1  1
 10 11  2  0
 10  8  1  0
 13 12  1  1
 13 15  1  0
 14 13  1  0
 16 15  1  1
 16 18  1  0
 16 17  1  0
 17 10  1  0
 18 19  2  0
 21 20  1  6
 21 22  1  0
 23 21  1  0
 24 23  1  1
 25 24  1  0
 25 18  1  0
 26 28  1  0
 26 24  1  0
 27 26  2  0
M  END
$$$$
