RLL.pdb
     RDKit          3D

 28 27  0  0  1  0  0  0  0  0999 V2000
   28.8104  -20.7260  -19.4527 N   0  0  0  0  0  0  0  0  0  0  0  0
   28.9650  -21.8468  -20.3340 C   0  0  0  0  0  0  0  0  0  0  0  0
   29.2406  -21.6846  -21.5717 N   0  0  0  0  0  0  0  0  0  0  0  0
   28.8042  -23.1718  -19.8147 N   0  0  0  0  0  0  0  0  0  0  0  0
   28.3844  -23.4332  -18.4780 C   0  0  0  0  0  0  0  0  0  0  0  0
   27.1841  -22.8092  -17.9359 C   0  0  0  0  0  0  0  0  0  0  0  0
   26.8254  -22.8451  -16.5059 C   0  0  0  0  0  0  0  0  0  0  0  0
   26.5545  -21.5799  -15.8078 C   0  0  2  0  0  0  0  0  0  0  0  0
   27.7110  -20.8697  -15.4407 N   0  0  0  0  0  0  0  0  0  0  0  0
   25.7054  -21.7725  -14.5797 C   0  0  0  0  0  0  0  0  0  0  0  0
   24.7068  -22.5292  -14.5510 O   0  0  0  0  0  0  0  0  0  0  0  0
   29.3468  -22.4624  -22.2393 C   0  0  0  0  0  0  0  0  0  0  0  0
   25.9106  -19.6269   -8.7005 C   0  0  1  0  0  0  0  0  0  0  0  0
   25.0958  -20.4647   -9.7315 C   0  0  0  0  0  0  0  0  0  0  0  0
   24.9713  -21.8324   -9.0867 C   0  0  0  0  0  0  0  0  0  0  0  0
   25.8818  -20.5443  -11.0041 C   0  0  2  0  0  0  0  0  0  0  0  0
   25.1905  -21.1269  -12.1863 N   0  0  0  0  0  0  0  0  0  0  0  0
   26.0129  -21.0783  -13.3571 C   0  0  0  0  0  0  0  0  0  0  0  0
   23.9184  -20.3290  -12.4310 O   0  0  0  0  0  0  0  0  0  0  0  0
   24.0732  -19.1755  -12.8941 C   0  0  0  0  0  0  0  0  0  0  0  0
   21.1086  -18.5758  -15.1361 C   0  0  2  0  0  0  0  0  0  0  0  0
   22.0066  -19.8192  -15.2195 C   0  0  0  0  0  0  0  0  0  0  0  0
   21.9875  -20.2358  -16.6631 C   0  0  0  0  0  0  0  0  0  0  0  0
   21.4432  -20.8118  -14.2667 C   0  0  2  0  0  0  0  0  0  0  0  0
   21.4871  -20.4060  -12.8170 N   0  0  0  0  0  0  0  0  0  0  0  0
   22.6564  -20.9001  -12.1367 C   0  0  0  0  0  0  0  0  0  0  0  0
   20.2792  -20.7520  -12.0574 O   0  0  0  0  0  0  0  0  0  0  0  0
   20.1428  -21.9030  -11.5741 O   0  0  0  0  0  0  0  0  0  0  0  0
  2  1  1  0
  3  2  2  0
  4  2  1  0
  5  4  1  0
  6  5  1  0
  7  6  1  0
  8  7  1  0
  8  9  1  1
 10 11  2  0
 10  8  1  0
 13 12  1  1
 13 15  1  0
 14 13  1  0
 16 15  1  1
 16 18  1  0
 16 17  1  0
 17 10  1  0
 18 19  2  0
 21 20  1  6
 21 22  1  0
 23 21  1  0
 24 23  1  6
 25 24  1  0
 25 18  1  0
 26 28  1  0
 26 24  1  0
 27 26  2  0
M  END
$$$$
