RLL.pdb
     RDKit          3D

 28 27  0  0  1  0  0  0  0  0999 V2000
   27.3534  -18.3558  -19.5781 N   0  0  0  0  0  0  0  0  0  0  0  0
   28.6005  -17.8350  -19.0981 C   0  0  0  0  0  0  0  0  0  0  0  0
   29.2607  -16.9701  -19.7691 N   0  0  0  0  0  0  0  0  0  0  0  0
   29.1145  -18.2970  -17.8437 N   0  0  0  0  0  0  0  0  0  0  0  0
   28.3403  -19.0654  -16.9262 C   0  0  0  0  0  0  0  0  0  0  0  0
   27.4618  -18.4155  -15.9619 C   0  0  0  0  0  0  0  0  0  0  0  0
   26.5793  -19.1550  -15.0405 C   0  0  0  0  0  0  0  0  0  0  0  0
   27.1450  -20.2483  -14.2367 C   0  0  2  0  0  0  0  0  0  0  0  0
   27.7944  -21.2388  -14.9942 N   0  0  0  0  0  0  0  0  0  0  0  0
   26.1124  -20.9155  -13.3679 C   0  0  0  0  0  0  0  0  0  0  0  0
   25.5778  -22.0108  -13.6600 O   0  0  0  0  0  0  0  0  0  0  0  0
   30.1612  -16.5751  -19.4610 C   0  0  0  0  0  0  0  0  0  0  0  0
   26.2176  -21.9551   -8.8158 C   0  0  2  0  0  0  0  0  0  0  0  0
   26.0338  -20.4470   -9.1629 C   0  0  0  0  0  0  0  0  0  0  0  0
   25.9661  -19.7582   -7.8127 C   0  0  0  0  0  0  0  0  0  0  0  0
   24.7451  -20.2862   -9.9091 C   0  0  2  0  0  0  0  0  0  0  0  0
   24.6836  -20.8665  -11.2782 N   0  0  0  0  0  0  0  0  0  0  0  0
   25.6856  -20.3082  -12.1349 C   0  0  0  0  0  0  0  0  0  0  0  0
   23.3069  -20.5722  -11.8552 O   0  0  0  0  0  0  0  0  0  0  0  0
   23.0941  -19.3847  -12.1921 C   0  0  0  0  0  0  0  0  0  0  0  0
   19.0048  -23.6013  -14.9050 C   0  0  1  0  0  0  0  0  0  0  0  0
   19.3352  -22.2862  -14.1833 C   0  0  0  0  0  0  0  0  0  0  0  0
   19.3758  -21.2352  -15.2565 C   0  0  0  0  0  0  0  0  0  0  0  0
   20.6186  -22.5086  -13.4663 C   0  0  2  0  0  0  0  0  0  0  0  0
   21.1055  -21.3431  -12.6461 N   0  0  0  0  0  0  0  0  0  0  0  0
   22.3555  -21.6133  -11.9839 C   0  0  0  0  0  0  0  0  0  0  0  0
   20.1240  -20.8340  -11.6801 O   0  0  0  0  0  0  0  0  0  0  0  0
   18.9944  -20.4471  -12.0689 O   0  0  0  0  0  0  0  0  0  0  0  0
  2  1  1  0
  3  2  2  0
  4  2  1  0
  5  4  1  0
  6  5  1  0
  7  6  1  0
  8  7  1  0
  8  9  1  6
 10 11  2  0
 10  8  1  0
 13 12  1  6
 13 15  1  0
 14 13  1  0
 16 15  1  1
 16 18  1  0
 16 17  1  0
 17 10  1  0
 18 19  2  0
 21 20  1  1
 21 22  1  0
 23 21  1  0
 24 23  1  6
 25 24  1  0
 25 18  1  0
 26 28  1  0
 26 24  1  0
 27 26  2  0
M  END
$$$$
