RGP.pdb
     RDKit          3D

 23 23  0  0  1  0  0  0  0  0999 V2000
   28.0349  -26.8960  -15.8770 N   0  0  0  0  0  0  0  0  0  0  0  0
   28.8690  -25.8067  -16.2665 C   0  0  0  0  0  0  0  0  0  0  0  0
   29.9915  -26.0578  -16.8252 N   0  0  0  0  0  0  0  0  0  0  0  0
   28.4733  -24.4597  -16.0435 N   0  0  0  0  0  0  0  0  0  0  0  0
   27.1125  -24.0271  -16.4140 C   0  0  0  0  0  0  0  0  0  0  0  0
   27.2633  -22.9675  -17.4626 C   0  0  0  0  0  0  0  0  0  0  0  0
   26.0021  -22.4555  -18.0633 C   0  0  0  0  0  0  0  0  0  0  0  0
   25.1247  -23.4937  -18.7173 C   0  0  2  0  0  0  0  0  0  0  0  0
   25.3927  -23.4281  -20.1618 N   0  0  0  0  0  0  0  0  0  0  0  0
   23.7086  -23.0743  -18.5335 C   0  0  0  0  0  0  0  0  0  0  0  0
   23.2401  -22.1463  -19.2337 O   0  0  0  0  0  0  0  0  0  0  0  0
   30.6777  -25.3811  -17.1713 N   0  0  0  0  0  0  0  0  0  0  0  0
   22.8664  -23.7160  -17.5657 C   0  0  0  0  0  0  0  0  0  0  0  0
   21.4820  -23.3405  -17.5552 C   0  0  0  0  0  0  0  0  0  0  0  0
   21.1807  -22.2383  -16.6340 O   0  0  0  0  0  0  0  0  0  0  0  0
   22.0579  -21.8259  -15.8724 N   0  0  0  0  0  0  0  0  0  0  0  0
   19.8783  -21.6699  -16.6409 C   0  0  0  0  0  0  0  0  0  0  0  0
   18.8973  -21.9727  -17.7266 C   0  0  0  0  0  0  0  0  0  0  0  0
   17.5676  -21.5118  -17.2420 C   0  0  0  0  0  0  0  0  0  0  0  0
   17.7703  -21.3014  -15.7632 C   0  0  2  0  0  0  0  0  0  0  0  0
   19.2165  -20.7472  -15.7805 C   0  0  0  0  0  0  0  0  0  0  0  0
   19.7049  -20.5968  -14.4206 O   0  0  0  0  0  0  0  0  0  0  0  0
   19.8640  -19.5474  -13.8108 O   0  0  0  0  0  0  0  0  0  0  0  0
  2  1  1  0
  3  2  2  0
  4  2  1  0
  5  4  1  0
  6  5  1  0
  7  6  1  0
  8  7  1  0
  8 10  1  0
  8  9  1  6
 10 12  1  0
 10 11  2  0
 12 13  1  0
 13 14  1  0
 14 15  2  0
 16 14  1  0
 16 20  1  0
 17 16  1  0
 18 17  1  0
 18 19  1  0
 19 20  1  0
 20 21  1  1
 21 22  2  0
 21 23  1  0
M  END
$$$$
