RGP.pdb
     RDKit          3D

 23 23  0  0  1  0  0  0  0  0999 V2000
   22.0470  -21.4916   -9.6244 N   0  0  0  0  0  0  0  0  0  0  0  0
   22.9800  -21.0942   -8.6216 C   0  0  0  0  0  0  0  0  0  0  0  0
   22.7066  -21.3317   -7.3952 N   0  0  0  0  0  0  0  0  0  0  0  0
   24.1968  -20.4438   -8.9640 N   0  0  0  0  0  0  0  0  0  0  0  0
   24.6944  -20.5081  -10.3512 C   0  0  0  0  0  0  0  0  0  0  0  0
   26.0918  -21.0450  -10.2877 C   0  0  0  0  0  0  0  0  0  0  0  0
   26.8461  -21.0627  -11.5700 C   0  0  0  0  0  0  0  0  0  0  0  0
   26.0088  -20.9440  -12.8191 C   0  0  2  0  0  0  0  0  0  0  0  0
   26.1929  -22.1922  -13.5746 N   0  0  0  0  0  0  0  0  0  0  0  0
   26.5890  -19.8577  -13.6548 C   0  0  0  0  0  0  0  0  0  0  0  0
   27.6210  -20.0787  -14.3310 O   0  0  0  0  0  0  0  0  0  0  0  0
   23.2931  -21.1351   -6.5792 N   0  0  0  0  0  0  0  0  0  0  0  0
   25.9858  -18.5571  -13.7010 C   0  0  0  0  0  0  0  0  0  0  0  0
   26.5761  -17.5958  -14.5871 C   0  0  0  0  0  0  0  0  0  0  0  0
   25.6212  -17.0072  -15.5335 O   0  0  0  0  0  0  0  0  0  0  0  0
   24.5927  -17.6230  -15.8210 N   0  0  0  0  0  0  0  0  0  0  0  0
   25.9060  -15.7353  -16.0997 C   0  0  0  0  0  0  0  0  0  0  0  0
   26.9909  -14.8621  -15.5581 C   0  0  0  0  0  0  0  0  0  0  0  0
   27.2391  -13.8067  -16.5779 C   0  0  0  0  0  0  0  0  0  0  0  0
   26.5525  -14.3254  -17.8155 C   0  0  2  0  0  0  0  0  0  0  0  0
   25.3161  -14.9904  -17.1612 C   0  0  0  0  0  0  0  0  0  0  0  0
   24.5497  -15.7065  -18.1663 O   0  0  0  0  0  0  0  0  0  0  0  0
   23.4047  -15.4644  -18.5250 O   0  0  0  0  0  0  0  0  0  0  0  0
  2  1  1  0
  3  2  2  0
  4  2  1  0
  5  4  1  0
  6  5  1  0
  7  6  1  0
  8  7  1  0
  8 10  1  0
  8  9  1  6
 10 12  1  0
 10 11  2  0
 12 13  1  0
 13 14  1  0
 14 15  2  0
 16 14  1  0
 16 20  1  0
 17 16  1  0
 18 17  1  0
 18 19  1  0
 19 20  1  0
 20 21  1  6
 21 22  2  0
 21 23  1  0
M  END
$$$$
