RGP.pdb
     RDKit          3D

 23 23  0  0  1  0  0  0  0  0999 V2000
   18.5316  -24.9720   -7.4763 N   0  0  0  0  0  0  0  0  0  0  0  0
   17.5504  -24.1497   -8.1048 C   0  0  0  0  0  0  0  0  0  0  0  0
   16.3146  -24.4465   -7.9644 N   0  0  0  0  0  0  0  0  0  0  0  0
   17.9244  -23.0167   -8.8776 N   0  0  0  0  0  0  0  0  0  0  0  0
   19.2284  -23.0009   -9.5673 C   0  0  0  0  0  0  0  0  0  0  0  0
   18.9568  -23.2649  -11.0170 C   0  0  0  0  0  0  0  0  0  0  0  0
   20.1325  -23.1998  -11.9266 C   0  0  0  0  0  0  0  0  0  0  0  0
   20.5898  -21.8118  -12.3003 C   0  0  2  0  0  0  0  0  0  0  0  0
   19.8265  -21.4197  -13.4946 N   0  0  0  0  0  0  0  0  0  0  0  0
   22.0143  -21.8999  -12.7224 C   0  0  0  0  0  0  0  0  0  0  0  0
   22.2931  -22.1836  -13.9111 O   0  0  0  0  0  0  0  0  0  0  0  0
   15.5079  -23.9394   -8.3396 N   0  0  0  0  0  0  0  0  0  0  0  0
   23.0784  -21.6645  -11.7898 C   0  0  0  0  0  0  0  0  0  0  0  0
   24.4181  -21.7343  -12.2980 C   0  0  0  0  0  0  0  0  0  0  0  0
   24.8655  -20.4942  -12.9430 O   0  0  0  0  0  0  0  0  0  0  0  0
   24.0308  -19.6635  -13.3076 N   0  0  0  0  0  0  0  0  0  0  0  0
   26.2572  -20.2792  -13.1338 C   0  0  0  0  0  0  0  0  0  0  0  0
   27.2774  -20.9226  -12.2518 C   0  0  0  0  0  0  0  0  0  0  0  0
   28.5904  -20.7716  -12.9363 C   0  0  0  0  0  0  0  0  0  0  0  0
   28.2253  -20.3780  -14.3448 C   0  0  2  0  0  0  0  0  0  0  0  0
   26.9999  -19.4783  -14.0485 C   0  0  0  0  0  0  0  0  0  0  0  0
   26.3654  -19.0809  -15.2935 O   0  0  0  0  0  0  0  0  0  0  0  0
   25.6359  -19.7680  -15.9963 O   0  0  0  0  0  0  0  0  0  0  0  0
  2  1  1  0
  3  2  2  0
  4  2  1  0
  5  4  1  0
  6  5  1  0
  7  6  1  0
  8  7  1  0
  8 10  1  0
  8  9  1  6
 10 12  1  0
 10 11  2  0
 12 13  1  0
 13 14  1  0
 14 15  2  0
 16 14  1  0
 16 20  1  0
 17 16  1  0
 18 17  1  0
 18 19  1  0
 19 20  1  0
 20 21  1  6
 21 22  2  0
 21 23  1  0
M  END
$$$$
