RGP.pdb
     RDKit          3D

 23 23  0  0  1  0  0  0  0  0999 V2000
   31.7534  -20.6815  -10.3551 N   0  0  0  0  0  0  0  0  0  0  0  0
   31.5696  -22.0425  -10.7395 C   0  0  0  0  0  0  0  0  0  0  0  0
   32.5768  -22.8301  -10.7225 N   0  0  0  0  0  0  0  0  0  0  0  0
   30.2948  -22.5297  -11.1377 N   0  0  0  0  0  0  0  0  0  0  0  0
   29.1824  -21.5829  -11.3431 C   0  0  0  0  0  0  0  0  0  0  0  0
   28.0084  -22.3866  -11.8132 C   0  0  0  0  0  0  0  0  0  0  0  0
   26.7792  -21.6177  -12.1473 C   0  0  0  0  0  0  0  0  0  0  0  0
   26.4078  -20.5287  -11.1718 C   0  0  2  0  0  0  0  0  0  0  0  0
   25.5328  -21.1427  -10.1619 N   0  0  0  0  0  0  0  0  0  0  0  0
   25.5755  -19.5313  -11.8981 C   0  0  0  0  0  0  0  0  0  0  0  0
   24.3735  -19.7875  -12.1446 O   0  0  0  0  0  0  0  0  0  0  0  0
   32.5914  -23.8245  -10.9666 N   0  0  0  0  0  0  0  0  0  0  0  0
   26.1260  -18.2765  -12.3224 C   0  0  0  0  0  0  0  0  0  0  0  0
   26.6175  -18.2018  -13.6680 C   0  0  0  0  0  0  0  0  0  0  0  0
   25.5931  -17.8153  -14.6455 O   0  0  0  0  0  0  0  0  0  0  0  0
   24.4941  -18.3735  -14.6268 N   0  0  0  0  0  0  0  0  0  0  0  0
   25.8936  -16.8023  -15.5957 C   0  0  0  0  0  0  0  0  0  0  0  0
   27.0353  -15.8585  -15.3998 C   0  0  0  0  0  0  0  0  0  0  0  0
   27.2682  -15.1917  -16.7099 C   0  0  0  0  0  0  0  0  0  0  0  0
   26.5007  -16.0385  -17.6927 C   0  0  2  0  0  0  0  0  0  0  0  0
   25.2768  -16.4010  -16.8155 C   0  0  0  0  0  0  0  0  0  0  0  0
   24.4345  -17.3577  -17.5125 O   0  0  0  0  0  0  0  0  0  0  0  0
   23.2956  -17.1711  -17.9202 O   0  0  0  0  0  0  0  0  0  0  0  0
  2  1  1  0
  3  2  2  0
  4  2  1  0
  5  4  1  0
  6  5  1  0
  7  6  1  0
  8  7  1  0
  8 10  1  0
  8  9  1  1
 10 12  1  0
 10 11  2  0
 12 13  1  0
 13 14  1  0
 14 15  2  0
 16 14  1  0
 16 20  1  0
 17 16  1  0
 18 17  1  0
 18 19  1  0
 19 20  1  0
 20 21  1  6
 21 22  2  0
 21 23  1  0
M  END
$$$$
