RGP.pdb
     RDKit          3D

 23 23  0  0  1  0  0  0  0  0999 V2000
   18.1437  -23.6276  -12.1826 N   0  0  0  0  0  0  0  0  0  0  0  0
   19.4637  -23.8967  -11.7142 C   0  0  0  0  0  0  0  0  0  0  0  0
   19.6750  -24.9649  -11.0440 N   0  0  0  0  0  0  0  0  0  0  0  0
   20.5359  -23.0018  -11.9793 N   0  0  0  0  0  0  0  0  0  0  0  0
   20.3456  -21.8972  -12.9383 C   0  0  0  0  0  0  0  0  0  0  0  0
   21.6141  -21.0997  -12.9405 C   0  0  0  0  0  0  0  0  0  0  0  0
   21.7307  -20.0564  -13.9948 C   0  0  0  0  0  0  0  0  0  0  0  0
   21.1711  -20.4303  -15.3448 C   0  0  2  0  0  0  0  0  0  0  0  0
   22.0680  -21.4497  -15.9095 N   0  0  0  0  0  0  0  0  0  0  0  0
   21.2805  -19.2382  -16.2291 C   0  0  0  0  0  0  0  0  0  0  0  0
   22.3974  -18.9107  -16.6941 O   0  0  0  0  0  0  0  0  0  0  0  0
   20.5608  -25.2764  -10.6355 N   0  0  0  0  0  0  0  0  0  0  0  0
   20.1258  -18.4544  -16.5609 C   0  0  0  0  0  0  0  0  0  0  0  0
   20.3216  -17.3529  -17.4588 C   0  0  0  0  0  0  0  0  0  0  0  0
   20.3519  -16.0480  -16.7876 O   0  0  0  0  0  0  0  0  0  0  0  0
   20.1481  -15.9842  -15.5735 N   0  0  0  0  0  0  0  0  0  0  0  0
   20.6160  -14.8826  -17.5568 C   0  0  0  0  0  0  0  0  0  0  0  0
   21.2294  -14.9642  -18.9169 C   0  0  0  0  0  0  0  0  0  0  0  0
   21.0367  -13.6325  -19.5532 C   0  0  0  0  0  0  0  0  0  0  0  0
   20.0045  -12.9587  -18.6857 C   0  0  2  0  0  0  0  0  0  0  0  0
   20.4487  -13.4912  -17.3008 C   0  0  0  0  0  0  0  0  0  0  0  0
   19.4933  -13.0846  -16.2847 O   0  0  0  0  0  0  0  0  0  0  0  0
   18.3620  -13.5237  -16.1248 O   0  0  0  0  0  0  0  0  0  0  0  0
  2  1  1  0
  3  2  2  0
  4  2  1  0
  5  4  1  0
  6  5  1  0
  7  6  1  0
  8  7  1  0
  8 10  1  0
  8  9  1  6
 10 12  1  0
 10 11  2  0
 12 13  1  0
 13 14  1  0
 14 15  2  0
 16 14  1  0
 16 20  1  0
 17 16  1  0
 18 17  1  0
 18 19  1  0
 19 20  1  0
 20 21  1  6
 21 22  2  0
 21 23  1  0
M  END
$$$$
