RGP.pdb
     RDKit          3D

 23 23  0  0  1  0  0  0  0  0999 V2000
   31.1189  -21.9673   -9.0555 N   0  0  0  0  0  0  0  0  0  0  0  0
   31.8041  -22.3841  -10.2348 C   0  0  0  0  0  0  0  0  0  0  0  0
   33.0823  -22.4195  -10.2261 N   0  0  0  0  0  0  0  0  0  0  0  0
   31.0921  -22.7563  -11.4075 N   0  0  0  0  0  0  0  0  0  0  0  0
   29.6593  -22.4268  -11.5279 C   0  0  0  0  0  0  0  0  0  0  0  0
   29.5537  -20.9322  -11.5095 C   0  0  0  0  0  0  0  0  0  0  0  0
   28.1786  -20.3711  -11.5991 C   0  0  0  0  0  0  0  0  0  0  0  0
   27.0751  -21.3812  -11.7918 C   0  0  2  0  0  0  0  0  0  0  0  0
   26.7299  -21.3665  -13.2212 N   0  0  0  0  0  0  0  0  0  0  0  0
   25.8739  -20.8877  -11.0646 C   0  0  0  0  0  0  0  0  0  0  0  0
   25.7810  -21.0651   -9.8272 O   0  0  0  0  0  0  0  0  0  0  0  0
   33.7018  -22.6624  -11.0044 N   0  0  0  0  0  0  0  0  0  0  0  0
   24.8165  -20.2092  -11.7568 C   0  0  0  0  0  0  0  0  0  0  0  0
   23.6444  -19.8824  -10.9972 C   0  0  0  0  0  0  0  0  0  0  0  0
   22.4090  -20.4463  -11.5540 O   0  0  0  0  0  0  0  0  0  0  0  0
   22.1561  -20.2919  -12.7506 N   0  0  0  0  0  0  0  0  0  0  0  0
   21.5287  -21.1599  -10.6966 C   0  0  0  0  0  0  0  0  0  0  0  0
   21.9459  -21.5893   -9.3275 C   0  0  0  0  0  0  0  0  0  0  0  0
   20.7043  -21.9784   -8.6048 C   0  0  0  0  0  0  0  0  0  0  0  0
   19.5946  -21.4128   -9.4537 C   0  0  2  0  0  0  0  0  0  0  0  0
   20.2014  -21.6515  -10.8585 C   0  0  0  0  0  0  0  0  0  0  0  0
   19.3571  -21.0429  -11.8721 O   0  0  0  0  0  0  0  0  0  0  0  0
   19.3119  -19.8574  -12.1732 O   0  0  0  0  0  0  0  0  0  0  0  0
  2  1  1  0
  3  2  2  0
  4  2  1  0
  5  4  1  0
  6  5  1  0
  7  6  1  0
  8  7  1  0
  8 10  1  0
  8  9  1  6
 10 12  1  0
 10 11  2  0
 12 13  1  0
 13 14  1  0
 14 15  2  0
 16 14  1  0
 16 20  1  0
 17 16  1  0
 18 17  1  0
 18 19  1  0
 19 20  1  0
 20 21  1  1
 21 22  2  0
 21 23  1  0
M  END
$$$$
