RGP.pdb
     RDKit          3D

 23 23  0  0  1  0  0  0  0  0999 V2000
   25.4190  -21.0077   -8.3524 N   0  0  0  0  0  0  0  0  0  0  0  0
   24.0598  -21.2001   -8.7394 C   0  0  0  0  0  0  0  0  0  0  0  0
   23.2263  -21.6327   -7.8716 N   0  0  0  0  0  0  0  0  0  0  0  0
   23.6245  -20.9208  -10.0635 N   0  0  0  0  0  0  0  0  0  0  0  0
   24.6090  -20.5237  -11.0878 C   0  0  0  0  0  0  0  0  0  0  0  0
   25.3567  -21.7628  -11.4760 C   0  0  0  0  0  0  0  0  0  0  0  0
   26.3506  -21.6120  -12.5730 C   0  0  0  0  0  0  0  0  0  0  0  0
   25.7940  -21.1473  -13.8957 C   0  0  2  0  0  0  0  0  0  0  0  0
   25.4450  -22.3554  -14.6583 N   0  0  0  0  0  0  0  0  0  0  0  0
   26.8948  -20.4817  -14.6443 C   0  0  0  0  0  0  0  0  0  0  0  0
   27.7785  -21.1774  -15.1977 O   0  0  0  0  0  0  0  0  0  0  0  0
   22.2256  -21.8050   -8.0040 N   0  0  0  0  0  0  0  0  0  0  0  0
   26.9628  -19.0524  -14.7448 C   0  0  0  0  0  0  0  0  0  0  0  0
   27.9904  -18.5059  -15.5833 C   0  0  0  0  0  0  0  0  0  0  0  0
   27.5414  -18.2227  -16.9516 O   0  0  0  0  0  0  0  0  0  0  0  0
   26.4303  -18.6101  -17.3190 N   0  0  0  0  0  0  0  0  0  0  0  0
   28.4023  -17.5055  -17.8256 C   0  0  0  0  0  0  0  0  0  0  0  0
   29.6185  -16.7988  -17.3213 C   0  0  0  0  0  0  0  0  0  0  0  0
   30.4476  -16.4714  -18.5133 C   0  0  0  0  0  0  0  0  0  0  0  0
   29.8605  -17.3207  -19.6115 C   0  0  2  0  0  0  0  0  0  0  0  0
   28.3630  -17.2383  -19.2244 C   0  0  0  0  0  0  0  0  0  0  0  0
   27.5828  -18.1200  -20.0756 O   0  0  0  0  0  0  0  0  0  0  0  0
   27.6202  -19.3433  -20.0938 O   0  0  0  0  0  0  0  0  0  0  0  0
  2  1  1  0
  3  2  2  0
  4  2  1  0
  5  4  1  0
  6  5  1  0
  7  6  1  0
  8  7  1  0
  8 10  1  0
  8  9  1  6
 10 12  1  0
 10 11  2  0
 12 13  1  0
 13 14  1  0
 14 15  2  0
 16 14  1  0
 16 20  1  0
 17 16  1  0
 18 17  1  0
 18 19  1  0
 19 20  1  0
 20 21  1  1
 21 22  2  0
 21 23  1  0
M  END
$$$$
