RGP.pdb
     RDKit          3D

 23 23  0  0  1  0  0  0  0  0999 V2000
   18.4628  -16.9958  -17.5897 N   0  0  0  0  0  0  0  0  0  0  0  0
   18.7408  -18.1599  -16.8141 C   0  0  0  0  0  0  0  0  0  0  0  0
   17.7638  -18.8191  -16.3182 N   0  0  0  0  0  0  0  0  0  0  0  0
   20.0760  -18.5921  -16.5872 N   0  0  0  0  0  0  0  0  0  0  0  0
   21.1964  -17.8597  -17.2071 C   0  0  0  0  0  0  0  0  0  0  0  0
   21.6885  -18.7003  -18.3457 C   0  0  0  0  0  0  0  0  0  0  0  0
   22.7996  -19.6396  -18.0346 C   0  0  0  0  0  0  0  0  0  0  0  0
   24.1761  -19.0248  -17.9836 C   0  0  2  0  0  0  0  0  0  0  0  0
   24.9180  -19.5463  -19.1413 N   0  0  0  0  0  0  0  0  0  0  0  0
   24.8645  -19.5492  -16.7727 C   0  0  0  0  0  0  0  0  0  0  0  0
   25.1469  -20.7682  -16.6982 O   0  0  0  0  0  0  0  0  0  0  0  0
   17.8148  -19.6428  -15.7121 N   0  0  0  0  0  0  0  0  0  0  0  0
   25.2126  -18.6812  -15.6850 C   0  0  0  0  0  0  0  0  0  0  0  0
   25.7512  -19.2966  -14.5065 C   0  0  0  0  0  0  0  0  0  0  0  0
   24.7326  -19.9202  -13.6533 O   0  0  0  0  0  0  0  0  0  0  0  0
   23.5389  -19.7588  -13.9152 N   0  0  0  0  0  0  0  0  0  0  0  0
   25.1481  -20.6985  -12.5393 C   0  0  0  0  0  0  0  0  0  0  0  0
   26.5713  -21.1195  -12.3651 C   0  0  0  0  0  0  0  0  0  0  0  0
   26.7076  -21.5947  -10.9612 C   0  0  0  0  0  0  0  0  0  0  0  0
   25.4617  -21.0877  -10.2810 C   0  0  2  0  0  0  0  0  0  0  0  0
   24.4479  -21.2693  -11.4378 C   0  0  0  0  0  0  0  0  0  0  0  0
   23.1642  -20.7008  -11.0644 O   0  0  0  0  0  0  0  0  0  0  0  0
   22.1468  -21.3161  -10.7737 O   0  0  0  0  0  0  0  0  0  0  0  0
  2  1  1  0
  3  2  2  0
  4  2  1  0
  5  4  1  0
  6  5  1  0
  7  6  1  0
  8  7  1  0
  8 10  1  0
  8  9  1  6
 10 12  1  0
 10 11  2  0
 12 13  1  0
 13 14  1  0
 14 15  2  0
 16 14  1  0
 16 20  1  0
 17 16  1  0
 18 17  1  0
 18 19  1  0
 19 20  1  0
 20 21  1  1
 21 22  2  0
 21 23  1  0
M  END
$$$$
