RGP.pdb
     RDKit          3D

 23 23  0  0  1  0  0  0  0  0999 V2000
   25.3264  -23.9624  -14.3434 N   0  0  0  0  0  0  0  0  0  0  0  0
   25.0016  -23.2837  -15.5550 C   0  0  0  0  0  0  0  0  0  0  0  0
   24.7614  -23.9742  -16.6040 N   0  0  0  0  0  0  0  0  0  0  0  0
   24.9426  -21.8645  -15.6111 N   0  0  0  0  0  0  0  0  0  0  0  0
   24.8644  -21.0864  -14.3602 C   0  0  0  0  0  0  0  0  0  0  0  0
   25.8817  -21.6645  -13.4242 C   0  0  0  0  0  0  0  0  0  0  0  0
   26.0734  -20.9425  -12.1374 C   0  0  0  0  0  0  0  0  0  0  0  0
   25.1856  -21.3888  -11.0025 C   0  0  2  0  0  0  0  0  0  0  0  0
   23.8041  -21.0693  -11.3924 N   0  0  0  0  0  0  0  0  0  0  0  0
   25.4957  -20.5390   -9.8206 C   0  0  0  0  0  0  0  0  0  0  0  0
   24.9966  -19.3925   -9.7323 O   0  0  0  0  0  0  0  0  0  0  0  0
   24.4932  -23.6256  -17.5287 N   0  0  0  0  0  0  0  0  0  0  0  0
   26.3584  -21.0104   -8.7760 C   0  0  0  0  0  0  0  0  0  0  0  0
   26.9988  -20.0180   -7.9619 C   0  0  0  0  0  0  0  0  0  0  0  0
   27.8237  -20.5843   -6.8881 O   0  0  0  0  0  0  0  0  0  0  0  0
   27.8072  -21.8002   -6.6861 N   0  0  0  0  0  0  0  0  0  0  0  0
   28.6255  -19.7134   -6.1019 C   0  0  0  0  0  0  0  0  0  0  0  0
   29.1986  -18.4539   -6.6658 C   0  0  0  0  0  0  0  0  0  0  0  0
   29.6636  -17.6406   -5.5092 C   0  0  0  0  0  0  0  0  0  0  0  0
   29.0112  -18.2933   -4.3174 C   0  0  2  0  0  0  0  0  0  0  0  0
   29.0978  -19.7753   -4.7593 C   0  0  0  0  0  0  0  0  0  0  0  0
   28.3849  -20.6161   -3.8131 O   0  0  0  0  0  0  0  0  0  0  0  0
   28.8792  -21.3729   -2.9878 O   0  0  0  0  0  0  0  0  0  0  0  0
  2  1  1  0
  3  2  2  0
  4  2  1  0
  5  4  1  0
  6  5  1  0
  7  6  1  0
  8  7  1  0
  8 10  1  0
  8  9  1  6
 10 12  1  0
 10 11  2  0
 12 13  1  0
 13 14  1  0
 14 15  2  0
 16 14  1  0
 16 20  1  0
 17 16  1  0
 18 17  1  0
 18 19  1  0
 19 20  1  0
 20 21  1  6
 21 22  2  0
 21 23  1  0
M  END
$$$$
