RGP.pdb
     RDKit          3D

 23 23  0  0  1  0  0  0  0  0999 V2000
   29.0461  -22.7414  -16.6782 N   0  0  0  0  0  0  0  0  0  0  0  0
   28.1864  -21.6038  -16.7077 C   0  0  0  0  0  0  0  0  0  0  0  0
   27.7982  -21.1526  -17.8394 N   0  0  0  0  0  0  0  0  0  0  0  0
   27.7604  -20.9713  -15.5080 N   0  0  0  0  0  0  0  0  0  0  0  0
   26.3221  -20.7418  -15.2739 C   0  0  0  0  0  0  0  0  0  0  0  0
   26.0682  -19.2859  -15.5209 C   0  0  0  0  0  0  0  0  0  0  0  0
   24.6553  -18.8365  -15.3962 C   0  0  0  0  0  0  0  0  0  0  0  0
   23.6456  -19.9280  -15.1418 C   0  0  2  0  0  0  0  0  0  0  0  0
   22.5076  -19.6716  -16.0372 N   0  0  0  0  0  0  0  0  0  0  0  0
   23.1342  -19.7607  -13.7541 C   0  0  0  0  0  0  0  0  0  0  0  0
   22.4247  -18.7673  -13.4695 O   0  0  0  0  0  0  0  0  0  0  0  0
   27.1387  -20.3881  -18.0097 N   0  0  0  0  0  0  0  0  0  0  0  0
   23.4392  -20.7201  -12.7323 C   0  0  0  0  0  0  0  0  0  0  0  0
   22.8982  -20.4760  -11.4264 C   0  0  0  0  0  0  0  0  0  0  0  0
   21.7526  -21.3325  -11.0972 O   0  0  0  0  0  0  0  0  0  0  0  0
   21.0888  -21.8352  -12.0062 N   0  0  0  0  0  0  0  0  0  0  0  0
   21.4333  -21.5628   -9.7318 C   0  0  0  0  0  0  0  0  0  0  0  0
   22.3892  -21.2207   -8.6354 C   0  0  0  0  0  0  0  0  0  0  0  0
   21.6140  -21.2585   -7.3653 C   0  0  0  0  0  0  0  0  0  0  0  0
   20.1753  -21.2582   -7.8149 C   0  0  2  0  0  0  0  0  0  0  0  0
   20.3041  -22.1394   -9.0821 C   0  0  0  0  0  0  0  0  0  0  0  0
   19.0379  -22.1708   -9.7936 O   0  0  0  0  0  0  0  0  0  0  0  0
   18.5306  -21.2550  -10.4279 O   0  0  0  0  0  0  0  0  0  0  0  0
  2  1  1  0
  3  2  2  0
  4  2  1  0
  5  4  1  0
  6  5  1  0
  7  6  1  0
  8  7  1  0
  8 10  1  0
  8  9  1  6
 10 12  1  0
 10 11  2  0
 12 13  1  0
 13 14  1  0
 14 15  2  0
 16 14  1  0
 16 20  1  0
 17 16  1  0
 18 17  1  0
 18 19  1  0
 19 20  1  0
 20 21  1  6
 21 22  2  0
 21 23  1  0
M  END
$$$$
