SSQ.pdb
     RDKit          3D

 22 21  0  0  1  0  0  0  0  0999 V2000
    9.4997  -17.5345   15.6113 O   0  0  0  0  0  0  0  0  0  0  0  0
    8.2932  -16.8378   15.6143 C   0  0  0  0  0  0  0  0  0  0  0  0
    8.5172  -15.3575   15.3284 C   0  0  2  0  0  0  0  0  0  0  0  0
    9.2421  -15.1505   14.1113 N   0  0  0  0  0  0  0  0  0  0  0  0
    9.2084  -14.7155   16.4854 C   0  0  0  0  0  0  0  0  0  0  0  0
   10.4452  -14.5252   16.5063 O   0  0  0  0  0  0  0  0  0  0  0  0
    7.0473  -14.0703   19.9534 O   0  0  0  0  0  0  0  0  0  0  0  0
    7.9503  -13.0850   19.5883 C   0  0  0  0  0  0  0  0  0  0  0  0
    9.0566  -13.6123   18.6983 C   0  0  2  0  0  0  0  0  0  0  0  0
    8.4310  -14.3113   17.5925 N   0  0  0  0  0  0  0  0  0  0  0  0
    9.7784  -14.6535   19.5140 C   0  0  0  0  0  0  0  0  0  0  0  0
    9.5597  -15.8673   19.2700 O   0  0  0  0  0  0  0  0  0  0  0  0
   15.4293  -14.3984   21.3243 N   0  0  0  0  0  0  0  0  0  0  0  0
   15.0378  -15.5262   22.0978 C   0  0  0  0  0  0  0  0  0  0  0  0
   15.9309  -16.1351   22.7175 O   0  0  0  0  0  0  0  0  0  0  0  0
   13.6108  -15.9594   22.1612 C   0  0  0  0  0  0  0  0  0  0  0  0
   12.8077  -15.0394   21.3001 C   0  0  0  0  0  0  0  0  0  0  0  0
   11.3442  -15.3828   21.2714 C   0  0  2  0  0  0  0  0  0  0  0  0
   10.6814  -14.3276   20.5312 N   0  0  0  0  0  0  0  0  0  0  0  0
   10.7081  -15.5182   22.5773 C   0  0  0  0  0  0  0  0  0  0  0  0
    9.9316  -14.6748   23.0949 O   0  0  0  0  0  0  0  0  0  0  0  0
   10.9533  -16.6508   23.3384 O   0  0  0  0  0  0  0  0  0  0  0  0
  2  1  1  0
  3  2  1  0
  3  4  1  6
  5  3  1  0
  5 10  1  0
  6  5  2  0
  9  8  1  1
  8  7  1  0
  9 10  1  0
  9 11  1  0
 11 19  1  0
 11 12  2  0
 14 16  1  0
 14 13  1  0
 15 14  2  0
 18 17  1  1
 17 16  1  0
 18 20  1  0
 19 18  1  0
 20 22  1  0
 21 20  2  0
M  END
$$$$
