SSQ.pdb
     RDKit          3D

 22 21  0  0  1  0  0  0  0  0999 V2000
   13.1788  -16.9241   19.7999 O   0  0  0  0  0  0  0  0  0  0  0  0
   11.8636  -16.7562   19.3722 C   0  0  0  0  0  0  0  0  0  0  0  0
   11.5584  -15.2861   19.1101 C   0  0  2  0  0  0  0  0  0  0  0  0
   12.7268  -14.5582   18.7168 N   0  0  0  0  0  0  0  0  0  0  0  0
   10.9217  -14.6767   20.3150 C   0  0  0  0  0  0  0  0  0  0  0  0
   11.5626  -13.9763   21.1304 O   0  0  0  0  0  0  0  0  0  0  0  0
    7.0745  -15.8739   21.3178 O   0  0  0  0  0  0  0  0  0  0  0  0
    7.4070  -14.5480   21.5436 C   0  0  0  0  0  0  0  0  0  0  0  0
    8.8988  -14.3431   21.7055 C   0  0  2  0  0  0  0  0  0  0  0  0
    9.5457  -14.9039   20.5352 N   0  0  0  0  0  0  0  0  0  0  0  0
    9.3062  -15.2002   22.8761 C   0  0  0  0  0  0  0  0  0  0  0  0
    9.9589  -16.2515   22.6539 O   0  0  0  0  0  0  0  0  0  0  0  0
   10.1939  -14.9921   30.2128 N   0  0  0  0  0  0  0  0  0  0  0  0
    9.6876  -14.6583   28.9260 C   0  0  0  0  0  0  0  0  0  0  0  0
    9.0270  -13.6068   28.8242 O   0  0  0  0  0  0  0  0  0  0  0  0
    9.9407  -15.5373   27.7464 C   0  0  0  0  0  0  0  0  0  0  0  0
    9.4195  -14.8432   26.5301 C   0  0  0  0  0  0  0  0  0  0  0  0
    9.5192  -15.6785   25.2839 C   0  0  2  0  0  0  0  0  0  0  0  0
    8.9892  -14.8764   24.1993 N   0  0  0  0  0  0  0  0  0  0  0  0
    8.8066  -16.9509   25.3254 C   0  0  0  0  0  0  0  0  0  0  0  0
    9.2415  -18.0069   25.8525 O   0  0  0  0  0  0  0  0  0  0  0  0
    7.5487  -17.0442   24.7499 O   0  0  0  0  0  0  0  0  0  0  0  0
  2  1  1  0
  3  2  1  0
  3  4  1  1
  5  3  1  0
  5 10  1  0
  6  5  2  0
  9  8  1  6
  8  7  1  0
  9 10  1  0
  9 11  1  0
 11 19  1  0
 11 12  2  0
 14 16  1  0
 14 13  1  0
 15 14  2  0
 18 17  1  1
 17 16  1  0
 18 20  1  0
 19 18  1  0
 20 22  1  0
 21 20  2  0
M  END
$$$$
