SSQ.pdb
     RDKit          3D

 22 21  0  0  1  0  0  0  0  0999 V2000
   13.6121  -19.6464   19.2900 O   0  0  0  0  0  0  0  0  0  0  0  0
   13.0762  -18.7548   20.2167 C   0  0  0  0  0  0  0  0  0  0  0  0
   12.7583  -17.4146   19.5639 C   0  0  2  0  0  0  0  0  0  0  0  0
   13.9418  -16.7360   19.1297 N   0  0  0  0  0  0  0  0  0  0  0  0
   11.9631  -16.5684   20.5021 C   0  0  0  0  0  0  0  0  0  0  0  0
   12.3367  -15.4280   20.8572 O   0  0  0  0  0  0  0  0  0  0  0  0
    8.3783  -18.1184   21.9242 O   0  0  0  0  0  0  0  0  0  0  0  0
    8.5106  -16.7468   21.7813 C   0  0  0  0  0  0  0  0  0  0  0  0
    9.9470  -16.2851   21.9134 C   0  0  2  0  0  0  0  0  0  0  0  0
   10.7464  -17.0811   21.0023 N   0  0  0  0  0  0  0  0  0  0  0  0
   10.3739  -16.6658   23.3074 C   0  0  0  0  0  0  0  0  0  0  0  0
   11.1221  -17.6652   23.4559 O   0  0  0  0  0  0  0  0  0  0  0  0
   10.6073  -14.1665   30.2709 N   0  0  0  0  0  0  0  0  0  0  0  0
   10.1391  -14.3260   28.9372 C   0  0  0  0  0  0  0  0  0  0  0  0
    9.3195  -13.4890   28.5127 O   0  0  0  0  0  0  0  0  0  0  0  0
   10.6143  -15.4543   28.0832 C   0  0  0  0  0  0  0  0  0  0  0  0
   10.0653  -15.2582   26.7073 C   0  0  0  0  0  0  0  0  0  0  0  0
   10.4710  -16.3428   25.7484 C   0  0  2  0  0  0  0  0  0  0  0  0
    9.9735  -15.9550   24.4435 N   0  0  0  0  0  0  0  0  0  0  0  0
    9.9756  -17.6773   26.0679 C   0  0  0  0  0  0  0  0  0  0  0  0
    8.8829  -18.1576   25.6713 O   0  0  0  0  0  0  0  0  0  0  0  0
   10.7399  -18.5121   26.8687 O   0  0  0  0  0  0  0  0  0  0  0  0
  2  1  1  0
  3  2  1  0
  3  4  1  1
  5  3  1  0
  5 10  1  0
  6  5  2  0
  9  8  1  1
  8  7  1  0
  9 10  1  0
  9 11  1  0
 11 19  1  0
 11 12  2  0
 14 16  1  0
 14 13  1  0
 15 14  2  0
 18 17  1  1
 17 16  1  0
 18 20  1  0
 19 18  1  0
 20 22  1  0
 21 20  2  0
M  END
$$$$
