SSQ.pdb
     RDKit          3D

 22 21  0  0  1  0  0  0  0  0999 V2000
    8.5636  -18.3709   18.6510 O   0  0  0  0  0  0  0  0  0  0  0  0
    9.8714  -18.0222   18.3209 C   0  0  0  0  0  0  0  0  0  0  0  0
   10.0906  -16.5214   18.4712 C   0  0  2  0  0  0  0  0  0  0  0  0
   11.4122  -16.1314   18.0828 N   0  0  0  0  0  0  0  0  0  0  0  0
    9.7931  -16.1024   19.8728 C   0  0  0  0  0  0  0  0  0  0  0  0
   10.6280  -16.2158   20.7983 O   0  0  0  0  0  0  0  0  0  0  0  0
    5.8629  -15.2047   20.9260 O   0  0  0  0  0  0  0  0  0  0  0  0
    6.8700  -14.4097   21.4486 C   0  0  0  0  0  0  0  0  0  0  0  0
    8.2045  -15.1239   21.5025 C   0  0  2  0  0  0  0  0  0  0  0  0
    8.5210  -15.5594   20.1561 N   0  0  0  0  0  0  0  0  0  0  0  0
    7.9701  -16.3708   22.3155 C   0  0  0  0  0  0  0  0  0  0  0  0
    7.7187  -17.4445   21.7117 O   0  0  0  0  0  0  0  0  0  0  0  0
   11.3363  -18.9459   26.1615 N   0  0  0  0  0  0  0  0  0  0  0  0
   10.5803  -18.0040   26.9130 C   0  0  0  0  0  0  0  0  0  0  0  0
   11.0242  -17.6710   28.0286 O   0  0  0  0  0  0  0  0  0  0  0  0
    9.3050  -17.4393   26.3812 C   0  0  0  0  0  0  0  0  0  0  0  0
    9.0457  -18.0562   25.0451 C   0  0  0  0  0  0  0  0  0  0  0  0
    7.7465  -17.6138   24.4314 C   0  0  2  0  0  0  0  0  0  0  0  0
    8.0202  -16.3850   23.7132 N   0  0  0  0  0  0  0  0  0  0  0  0
    6.6573  -17.3804   25.3736 C   0  0  0  0  0  0  0  0  0  0  0  0
    6.1430  -16.2597   25.6218 O   0  0  0  0  0  0  0  0  0  0  0  0
    6.1198  -18.4522   26.0697 O   0  0  0  0  0  0  0  0  0  0  0  0
  2  1  1  0
  3  2  1  0
  3  4  1  1
  5  3  1  0
  5 10  1  0
  6  5  2  0
  9  8  1  6
  8  7  1  0
  9 10  1  0
  9 11  1  0
 11 19  1  0
 11 12  2  0
 14 16  1  0
 14 13  1  0
 15 14  2  0
 18 17  1  1
 17 16  1  0
 18 20  1  0
 19 18  1  0
 20 22  1  0
 21 20  2  0
M  END
$$$$
