SSQ.pdb
     RDKit          3D

 22 21  0  0  1  0  0  0  0  0999 V2000
    9.0441  -17.3380   15.5719 O   0  0  0  0  0  0  0  0  0  0  0  0
    7.8964  -16.6217   15.2392 C   0  0  0  0  0  0  0  0  0  0  0  0
    8.2392  -15.1841   14.8665 C   0  0  2  0  0  0  0  0  0  0  0  0
    8.9173  -15.1040   13.6081 N   0  0  0  0  0  0  0  0  0  0  0  0
    9.0437  -14.5550   15.9553 C   0  0  0  0  0  0  0  0  0  0  0  0
   10.2848  -14.4139   15.8763 O   0  0  0  0  0  0  0  0  0  0  0  0
    7.1498  -13.7939   19.5207 O   0  0  0  0  0  0  0  0  0  0  0  0
    8.1051  -12.8655   19.1400 C   0  0  0  0  0  0  0  0  0  0  0  0
    9.1132  -13.4364   18.1645 C   0  0  2  0  0  0  0  0  0  0  0  0
    8.3721  -14.1054   17.1130 N   0  0  0  0  0  0  0  0  0  0  0  0
    9.8536  -14.5093   18.9204 C   0  0  0  0  0  0  0  0  0  0  0  0
    9.4671  -15.7004   18.8082 O   0  0  0  0  0  0  0  0  0  0  0  0
   16.1194  -15.3577   18.4241 N   0  0  0  0  0  0  0  0  0  0  0  0
   15.1246  -14.5580   19.0521 C   0  0  0  0  0  0  0  0  0  0  0  0
   15.5088  -13.5540   19.6821 O   0  0  0  0  0  0  0  0  0  0  0  0
   13.6777  -14.9123   18.9571 C   0  0  0  0  0  0  0  0  0  0  0  0
   13.1232  -14.9750   20.3433 C   0  0  0  0  0  0  0  0  0  0  0  0
   11.6621  -15.3273   20.3807 C   0  0  2  0  0  0  0  0  0  0  0  0
   10.9525  -14.2369   19.7417 N   0  0  0  0  0  0  0  0  0  0  0  0
   11.1043  -15.5412   21.7117 C   0  0  0  0  0  0  0  0  0  0  0  0
   10.2408  -14.8097   22.2605 O   0  0  0  0  0  0  0  0  0  0  0  0
   11.5340  -16.6248   22.4623 O   0  0  0  0  0  0  0  0  0  0  0  0
  2  1  1  0
  3  2  1  0
  3  4  1  6
  5  3  1  0
  5 10  1  0
  6  5  2  0
  9  8  1  1
  8  7  1  0
  9 10  1  0
  9 11  1  0
 11 19  1  0
 11 12  2  0
 14 16  1  0
 14 13  1  0
 15 14  2  0
 18 17  1  1
 17 16  1  0
 18 20  1  0
 19 18  1  0
 20 22  1  0
 21 20  2  0
M  END
$$$$
