SSQ.pdb
     RDKit          3D

 22 21  0  0  1  0  0  0  0  0999 V2000
   11.8715  -19.0542   19.1977 O   0  0  0  0  0  0  0  0  0  0  0  0
   10.8256  -18.4027   19.8478 C   0  0  0  0  0  0  0  0  0  0  0  0
   10.6810  -16.9698   19.3487 C   0  0  2  0  0  0  0  0  0  0  0  0
   11.7834  -16.5756   18.5248 N   0  0  0  0  0  0  0  0  0  0  0  0
   10.5128  -16.0430   20.5068 C   0  0  0  0  0  0  0  0  0  0  0  0
   11.4776  -15.4420   21.0304 O   0  0  0  0  0  0  0  0  0  0  0  0
    6.7834  -15.8558   22.2439 O   0  0  0  0  0  0  0  0  0  0  0  0
    7.5235  -14.6847   22.2558 C   0  0  0  0  0  0  0  0  0  0  0  0
    9.0122  -14.9375   22.1386 C   0  0  2  0  0  0  0  0  0  0  0  0
    9.2144  -15.8428   21.0241 N   0  0  0  0  0  0  0  0  0  0  0  0
    9.3995  -15.6925   23.3838 C   0  0  0  0  0  0  0  0  0  0  0  0
    9.6189  -16.9273   23.2951 O   0  0  0  0  0  0  0  0  0  0  0  0
   10.3592  -13.1909   28.9633 N   0  0  0  0  0  0  0  0  0  0  0  0
   10.6817  -14.5494   29.2354 C   0  0  0  0  0  0  0  0  0  0  0  0
   10.9855  -14.8434   30.4075 O   0  0  0  0  0  0  0  0  0  0  0  0
   10.6556  -15.5790   28.1551 C   0  0  0  0  0  0  0  0  0  0  0  0
   10.2597  -14.9054   26.8813 C   0  0  0  0  0  0  0  0  0  0  0  0
    9.8816  -15.8721   25.7936 C   0  0  2  0  0  0  0  0  0  0  0  0
    9.5255  -15.0786   24.6342 N   0  0  0  0  0  0  0  0  0  0  0  0
    8.7769  -16.7703   26.1116 C   0  0  0  0  0  0  0  0  0  0  0  0
    7.5599  -16.5162   25.9211 O   0  0  0  0  0  0  0  0  0  0  0  0
    9.0485  -18.0105   26.6688 O   0  0  0  0  0  0  0  0  0  0  0  0
  2  1  1  0
  3  2  1  0
  3  4  1  1
  5  3  1  0
  5 10  1  0
  6  5  2  0
  9  8  1  1
  8  7  1  0
  9 10  1  0
  9 11  1  0
 11 19  1  0
 11 12  2  0
 14 16  1  0
 14 13  1  0
 15 14  2  0
 18 17  1  1
 17 16  1  0
 18 20  1  0
 19 18  1  0
 20 22  1  0
 21 20  2  0
M  END
$$$$
