SSQ.pdb
     RDKit          3D

 22 21  0  0  1  0  0  0  0  0999 V2000
    7.8555  -18.8883   19.0879 O   0  0  0  0  0  0  0  0  0  0  0  0
    7.0571  -17.8974   18.5208 C   0  0  0  0  0  0  0  0  0  0  0  0
    7.9015  -16.7186   18.0512 C   0  0  2  0  0  0  0  0  0  0  0  0
    8.7529  -17.0721   16.9558 N   0  0  0  0  0  0  0  0  0  0  0  0
    8.6902  -16.1712   19.1944 C   0  0  0  0  0  0  0  0  0  0  0  0
    9.9162  -16.3853   19.3268 O   0  0  0  0  0  0  0  0  0  0  0  0
    6.6431  -14.5608   22.4459 O   0  0  0  0  0  0  0  0  0  0  0  0
    7.8173  -13.9402   22.0517 C   0  0  0  0  0  0  0  0  0  0  0  0
    8.7457  -14.8751   21.3048 C   0  0  2  0  0  0  0  0  0  0  0  0
    8.0209  -15.3843   20.1568 N   0  0  0  0  0  0  0  0  0  0  0  0
    8.9755  -16.0464   22.2244 C   0  0  0  0  0  0  0  0  0  0  0  0
    8.2998  -17.0919   22.0478 O   0  0  0  0  0  0  0  0  0  0  0  0
   11.7881  -20.7144   23.2510 N   0  0  0  0  0  0  0  0  0  0  0  0
   12.6648  -19.6169   23.0264 C   0  0  0  0  0  0  0  0  0  0  0  0
   13.8752  -19.8708   22.8751 O   0  0  0  0  0  0  0  0  0  0  0  0
   12.1495  -18.2169   22.9748 C   0  0  0  0  0  0  0  0  0  0  0  0
   10.6639  -18.2632   23.1285 C   0  0  0  0  0  0  0  0  0  0  0  0
   10.1326  -17.2111   24.0620 C   0  0  2  0  0  0  0  0  0  0  0  0
    9.9083  -16.0206   23.2662 N   0  0  0  0  0  0  0  0  0  0  0  0
   11.0016  -16.8749   25.1845 C   0  0  0  0  0  0  0  0  0  0  0  0
   11.1891  -17.5981   26.1964 O   0  0  0  0  0  0  0  0  0  0  0  0
   11.6924  -15.6728   25.1728 O   0  0  0  0  0  0  0  0  0  0  0  0
  2  1  1  0
  3  2  1  0
  3  4  1  6
  5  3  1  0
  5 10  1  0
  6  5  2  0
  9  8  1  1
  8  7  1  0
  9 10  1  0
  9 11  1  0
 11 19  1  0
 11 12  2  0
 14 16  1  0
 14 13  1  0
 15 14  2  0
 18 17  1  6
 17 16  1  0
 18 20  1  0
 19 18  1  0
 20 22  1  0
 21 20  2  0
M  END
$$$$
