SSQ.pdb
     RDKit          3D

 22 21  0  0  1  0  0  0  0  0999 V2000
    9.4357  -17.5575   14.1392 O   0  0  0  0  0  0  0  0  0  0  0  0
    9.2743  -16.8649   15.3372 C   0  0  0  0  0  0  0  0  0  0  0  0
    9.4696  -15.3672   15.1323 C   0  0  2  0  0  0  0  0  0  0  0  0
   10.3818  -15.0869   14.0650 N   0  0  0  0  0  0  0  0  0  0  0  0
    9.9184  -14.7342   16.4076 C   0  0  0  0  0  0  0  0  0  0  0  0
   11.1278  -14.5904   16.6956 O   0  0  0  0  0  0  0  0  0  0  0  0
    7.1501  -14.0738   19.4497 O   0  0  0  0  0  0  0  0  0  0  0  0
    8.0793  -13.0782   19.1951 C   0  0  0  0  0  0  0  0  0  0  0  0
    9.3352  -13.6107   18.5370 C   0  0  2  0  0  0  0  0  0  0  0  0
    8.9361  -14.2841   17.3164 N   0  0  0  0  0  0  0  0  0  0  0  0
    9.8645  -14.6747   19.4636 C   0  0  0  0  0  0  0  0  0  0  0  0
    9.6147  -15.8789   19.2023 O   0  0  0  0  0  0  0  0  0  0  0  0
   15.1899  -14.6015   21.9515 N   0  0  0  0  0  0  0  0  0  0  0  0
   14.7801  -14.9826   20.6437 C   0  0  0  0  0  0  0  0  0  0  0  0
   15.6587  -15.0450   19.7624 O   0  0  0  0  0  0  0  0  0  0  0  0
   13.3516  -15.2949   20.3440 C   0  0  0  0  0  0  0  0  0  0  0  0
   12.5839  -15.2308   21.6244 C   0  0  0  0  0  0  0  0  0  0  0  0
   11.1087  -15.4565   21.4416 C   0  0  2  0  0  0  0  0  0  0  0  0
   10.6218  -14.3801   20.6020 N   0  0  0  0  0  0  0  0  0  0  0  0
   10.3245  -15.4911   22.6713 C   0  0  0  0  0  0  0  0  0  0  0  0
   10.4581  -16.3387   23.5911 O   0  0  0  0  0  0  0  0  0  0  0  0
    9.3454  -14.5319   22.8801 O   0  0  0  0  0  0  0  0  0  0  0  0
  2  1  1  0
  3  2  1  0
  3  4  1  6
  5  3  1  0
  5 10  1  0
  6  5  2  0
  9  8  1  1
  8  7  1  0
  9 10  1  0
  9 11  1  0
 11 19  1  0
 11 12  2  0
 14 16  1  0
 14 13  1  0
 15 14  2  0
 18 17  1  1
 17 16  1  0
 18 20  1  0
 19 18  1  0
 20 22  1  0
 21 20  2  0
M  END
$$$$
