SSQ.pdb
     RDKit          3D

 22 21  0  0  1  0  0  0  0  0999 V2000
   13.1819  -17.3314   16.4535 O   0  0  0  0  0  0  0  0  0  0  0  0
   12.1645  -16.9031   15.6036 C   0  0  0  0  0  0  0  0  0  0  0  0
   12.1232  -15.3815   15.5252 C   0  0  2  0  0  0  0  0  0  0  0  0
   13.1756  -14.8583   14.7076 N   0  0  0  0  0  0  0  0  0  0  0  0
   12.1666  -14.8006   16.8997 C   0  0  0  0  0  0  0  0  0  0  0  0
   13.2119  -14.3193   17.3916 O   0  0  0  0  0  0  0  0  0  0  0  0
    8.8655  -15.2923   19.4158 O   0  0  0  0  0  0  0  0  0  0  0  0
    9.5316  -14.0776   19.4262 C   0  0  0  0  0  0  0  0  0  0  0  0
   10.9761  -14.2038   18.9885 C   0  0  2  0  0  0  0  0  0  0  0  0
   10.9807  -14.7982   17.6659 N   0  0  0  0  0  0  0  0  0  0  0  0
   11.5996  -15.2132   19.9175 C   0  0  0  0  0  0  0  0  0  0  0  0
   11.6937  -16.4068   19.5338 O   0  0  0  0  0  0  0  0  0  0  0  0
   16.7757  -14.0411   22.1213 N   0  0  0  0  0  0  0  0  0  0  0  0
   16.6691  -15.4285   22.4168 C   0  0  0  0  0  0  0  0  0  0  0  0
   17.7289  -16.0674   22.5622 O   0  0  0  0  0  0  0  0  0  0  0  0
   15.3367  -16.0886   22.5467 C   0  0  0  0  0  0  0  0  0  0  0  0
   14.3261  -15.2352   21.8516 C   0  0  0  0  0  0  0  0  0  0  0  0
   12.9357  -15.8051   21.9016 C   0  0  2  0  0  0  0  0  0  0  0  0
   12.0783  -14.8793   21.1885 N   0  0  0  0  0  0  0  0  0  0  0  0
   12.3951  -16.0183   23.2397 C   0  0  0  0  0  0  0  0  0  0  0  0
   11.5149  -15.3053   23.7866 O   0  0  0  0  0  0  0  0  0  0  0  0
   12.8623  -17.0792   24.0002 O   0  0  0  0  0  0  0  0  0  0  0  0
  2  1  1  0
  3  2  1  0
  3  4  1  6
  5  3  1  0
  5 10  1  0
  6  5  2  0
  9  8  1  1
  8  7  1  0
  9 10  1  0
  9 11  1  0
 11 19  1  0
 11 12  2  0
 14 16  1  0
 14 13  1  0
 15 14  2  0
 18 17  1  1
 17 16  1  0
 18 20  1  0
 19 18  1  0
 20 22  1  0
 21 20  2  0
M  END
$$$$
