RAM.pdb
     RDKit          3D

 25 24  0  0  1  0  0  0  0  0999 V2000
    8.2288  -14.6361   16.3418 N   0  0  0  0  0  0  0  0  0  0  0  0
    8.2278  -13.8363   17.5198 C   0  0  0  0  0  0  0  0  0  0  0  0
    8.4150  -12.5689   17.4201 N   0  0  0  0  0  0  0  0  0  0  0  0
    8.0208  -14.4344   18.7900 N   0  0  0  0  0  0  0  0  0  0  0  0
    8.9810  -15.3896   19.2958 C   0  0  0  0  0  0  0  0  0  0  0  0
    8.2796  -16.7387   19.3777 C   0  0  0  0  0  0  0  0  0  0  0  0
    7.4128  -16.6836   20.6102 C   0  0  0  0  0  0  0  0  0  0  0  0
    6.7457  -18.0340   20.8895 C   0  0  2  0  0  0  0  0  0  0  0  0
    5.5914  -18.1222   20.0134 N   0  0  0  0  0  0  0  0  0  0  0  0
    6.3358  -17.9697   22.3204 C   0  0  0  0  0  0  0  0  0  0  0  0
    5.3256  -17.2720   22.5947 O   0  0  0  0  0  0  0  0  0  0  0  0
    8.4359  -11.9148   18.2222 C   0  0  0  0  0  0  0  0  0  0  0  0
    7.1366  -19.8296   25.4010 C   0  0  1  0  0  0  0  0  0  0  0  0
    6.6568  -18.5118   24.7720 N   0  0  0  0  0  0  0  0  0  0  0  0
    6.9965  -18.6293   23.3671 C   0  0  0  0  0  0  0  0  0  0  0  0
    7.3073  -17.3560   25.4120 O   0  0  0  0  0  0  0  0  0  0  0  0
    7.1139  -17.0984   26.6262 C   0  0  0  0  0  0  0  0  0  0  0  0
    5.6039  -11.9482   26.1971 S   0  0  0  0  0  0  0  0  0  0  0  0
    6.8759  -12.3201   27.4372 C   0  0  0  0  0  0  0  0  0  0  0  0
    8.1937  -13.3321   26.7568 C   0  0  0  0  0  0  0  0  0  0  0  0
    7.7013  -14.5142   25.9592 C   0  0  1  0  0  0  0  0  0  0  0  0
    8.8273  -15.3447   25.3897 N   0  0  0  0  0  0  0  0  0  0  0  0
    8.1796  -16.4764   24.7071 C   0  0  0  0  0  0  0  0  0  0  0  0
    9.8126  -15.7968   26.3658 O   0  0  0  0  0  0  0  0  0  0  0  0
   10.9581  -15.0952   26.6973 O   0  0  0  0  0  0  0  0  0  0  0  0
  1  2  1  0
  2  3  2  0
  4  2  1  0
  5  4  1  0
  6  5  1  0
  7  6  1  0
  7  8  1  0
  8  9  1  6
  8 10  1  0
 10 11  2  0
 13 12  1  6
 14 10  1  0
 14 13  1  0
 15 13  1  0
 15 16  2  0
 17 18  1  0
 19 20  1  0
 19 18  1  0
 21 20  1  6
 21 23  1  0
 21 22  1  0
 22 15  1  0
 23 24  1  0
 25 23  2  0
M  END
$$$$
