RAM.pdb
     RDKit          3D

 25 24  0  0  1  0  0  0  0  0999 V2000
    6.8372  -19.6629   16.1516 N   0  0  0  0  0  0  0  0  0  0  0  0
    7.7714  -20.5809   15.5932 C   0  0  0  0  0  0  0  0  0  0  0  0
    7.3394  -21.6371   15.0022 N   0  0  0  0  0  0  0  0  0  0  0  0
    9.1648  -20.3299   15.6885 N   0  0  0  0  0  0  0  0  0  0  0  0
    9.6367  -19.1944   16.4489 C   0  0  0  0  0  0  0  0  0  0  0  0
    8.9776  -19.2605   17.8200 C   0  0  0  0  0  0  0  0  0  0  0  0
    9.5295  -18.0968   18.6042 C   0  0  0  0  0  0  0  0  0  0  0  0
    8.9240  -18.0279   20.0096 C   0  0  2  0  0  0  0  0  0  0  0  0
    7.4965  -18.2483   19.8640 N   0  0  0  0  0  0  0  0  0  0  0  0
    9.2130  -16.6453   20.4834 C   0  0  0  0  0  0  0  0  0  0  0  0
   10.4217  -16.3397   20.6515 O   0  0  0  0  0  0  0  0  0  0  0  0
    7.9461  -22.3773   14.6075 C   0  0  0  0  0  0  0  0  0  0  0  0
    7.1862  -13.5638   20.9420 C   0  0  2  0  0  0  0  0  0  0  0  0
    8.5047  -14.3171   21.1799 N   0  0  0  0  0  0  0  0  0  0  0  0
    8.2354  -15.6756   20.7502 C   0  0  0  0  0  0  0  0  0  0  0  0
    8.9037  -14.2449   22.5956 O   0  0  0  0  0  0  0  0  0  0  0  0
    9.7825  -13.4323   22.9768 C   0  0  0  0  0  0  0  0  0  0  0  0
    6.4890  -10.9812   27.3921 S   0  0  0  0  0  0  0  0  0  0  0  0
    5.8887  -12.3410   26.3506 C   0  0  0  0  0  0  0  0  0  0  0  0
    7.2061  -13.0527   25.3597 C   0  0  0  0  0  0  0  0  0  0  0  0
    7.5855  -14.4539   25.7705 C   0  0  2  0  0  0  0  0  0  0  0  0
    8.7710  -14.9875   25.0013 N   0  0  0  0  0  0  0  0  0  0  0  0
    8.3280  -15.0758   23.6005 C   0  0  0  0  0  0  0  0  0  0  0  0
    9.2933  -16.2618   25.4824 O   0  0  0  0  0  0  0  0  0  0  0  0
    9.3553  -17.4149   24.7201 O   0  0  0  0  0  0  0  0  0  0  0  0
  1  2  1  0
  2  3  2  0
  4  2  1  0
  5  4  1  0
  6  5  1  0
  7  6  1  0
  7  8  1  0
  8  9  1  6
  8 10  1  0
 10 11  2  0
 13 12  1  6
 14 10  1  0
 14 13  1  0
 15 13  1  0
 15 16  2  0
 17 18  1  0
 19 20  1  0
 19 18  1  0
 21 20  1  6
 21 23  1  0
 21 22  1  0
 22 15  1  0
 23 24  1  0
 25 23  2  0
M  END
$$$$
