RAM.pdb
     RDKit          3D

 25 24  0  0  1  0  0  0  0  0999 V2000
    8.3168  -15.2882   16.6369 N   0  0  0  0  0  0  0  0  0  0  0  0
    8.0347  -13.9009   16.4849 C   0  0  0  0  0  0  0  0  0  0  0  0
    7.8071  -13.4299   15.3111 N   0  0  0  0  0  0  0  0  0  0  0  0
    8.0045  -13.0488   17.6192 N   0  0  0  0  0  0  0  0  0  0  0  0
    8.4680  -13.5420   18.8968 C   0  0  0  0  0  0  0  0  0  0  0  0
    7.4239  -14.5243   19.4103 C   0  0  0  0  0  0  0  0  0  0  0  0
    8.0155  -15.1529   20.6466 C   0  0  0  0  0  0  0  0  0  0  0  0
    9.0868  -16.1893   20.2930 C   0  0  2  0  0  0  0  0  0  0  0  0
    8.4602  -17.1585   19.4124 N   0  0  0  0  0  0  0  0  0  0  0  0
    9.4665  -16.8065   21.5948 C   0  0  0  0  0  0  0  0  0  0  0  0
    8.6896  -17.6788   22.0619 O   0  0  0  0  0  0  0  0  0  0  0  0
    7.6932  -12.4239   15.0953 C   0  0  0  0  0  0  0  0  0  0  0  0
   12.4745  -16.6346   23.7840 C   0  0  1  0  0  0  0  0  0  0  0  0
   11.0321  -17.1158   23.5596 N   0  0  0  0  0  0  0  0  0  0  0  0
   10.6203  -16.4808   22.3226 C   0  0  0  0  0  0  0  0  0  0  0  0
   10.1710  -16.7444   24.6950 O   0  0  0  0  0  0  0  0  0  0  0  0
   10.2991  -17.3057   25.8115 C   0  0  0  0  0  0  0  0  0  0  0  0
    7.4019  -11.1285   28.2625 S   0  0  0  0  0  0  0  0  0  0  0  0
    6.5703  -11.9199   26.8567 C   0  0  0  0  0  0  0  0  0  0  0  0
    6.9124  -13.6811   26.7860 C   0  0  0  0  0  0  0  0  0  0  0  0
    7.9090  -14.0637   25.7200 C   0  0  1  0  0  0  0  0  0  0  0  0
    8.1830  -15.5488   25.6823 N   0  0  0  0  0  0  0  0  0  0  0  0
    9.1597  -15.7446   24.5988 C   0  0  0  0  0  0  0  0  0  0  0  0
    7.0031  -16.3875   25.5020 O   0  0  0  0  0  0  0  0  0  0  0  0
    6.1334  -16.7360   26.5200 O   0  0  0  0  0  0  0  0  0  0  0  0
  1  2  1  0
  2  3  2  0
  4  2  1  0
  5  4  1  0
  6  5  1  0
  7  6  1  0
  7  8  1  0
  8  9  1  6
  8 10  1  0
 10 11  2  0
 13 12  1  6
 14 10  1  0
 14 13  1  0
 15 13  1  0
 15 16  2  0
 17 18  1  0
 19 20  1  0
 19 18  1  0
 21 20  1  1
 21 23  1  0
 21 22  1  0
 22 15  1  0
 23 24  1  0
 25 23  2  0
M  END
$$$$
