RAM.pdb
     RDKit          3D

 25 24  0  0  1  0  0  0  0  0999 V2000
    9.8900  -14.1797   18.1125 N   0  0  0  0  0  0  0  0  0  0  0  0
    8.7567  -13.8972   17.2981 C   0  0  0  0  0  0  0  0  0  0  0  0
    8.7947  -12.8973   16.4918 N   0  0  0  0  0  0  0  0  0  0  0  0
    7.5984  -14.7133   17.3767 N   0  0  0  0  0  0  0  0  0  0  0  0
    7.4172  -15.5907   18.5115 C   0  0  0  0  0  0  0  0  0  0  0  0
    7.0675  -14.7179   19.7092 C   0  0  0  0  0  0  0  0  0  0  0  0
    7.9414  -15.1946   20.8417 C   0  0  0  0  0  0  0  0  0  0  0  0
    7.7507  -16.6911   21.1078 C   0  0  2  0  0  0  0  0  0  0  0  0
    6.3539  -16.9899   20.8488 N   0  0  0  0  0  0  0  0  0  0  0  0
    8.0844  -16.8690   22.5489 C   0  0  0  0  0  0  0  0  0  0  0  0
    7.3099  -16.3362   23.3848 O   0  0  0  0  0  0  0  0  0  0  0  0
    8.0639  -12.6816   15.7911 C   0  0  0  0  0  0  0  0  0  0  0  0
   10.7191  -18.7307   24.4233 C   0  0  1  0  0  0  0  0  0  0  0  0
    9.5469  -17.7365   24.4239 N   0  0  0  0  0  0  0  0  0  0  0  0
    9.1928  -17.5837   23.0261 C   0  0  0  0  0  0  0  0  0  0  0  0
    9.9396  -16.4608   25.0461 O   0  0  0  0  0  0  0  0  0  0  0  0
   10.6614  -15.6382   24.4294 C   0  0  0  0  0  0  0  0  0  0  0  0
    6.0149  -12.3641   26.5172 S   0  0  0  0  0  0  0  0  0  0  0  0
    7.3827  -11.5276   27.3679 C   0  0  0  0  0  0  0  0  0  0  0  0
    8.8253  -12.5869   27.5111 C   0  0  0  0  0  0  0  0  0  0  0  0
    8.6482  -13.9431   26.8743 C   0  0  1  0  0  0  0  0  0  0  0  0
    9.9038  -14.7814   26.9261 N   0  0  0  0  0  0  0  0  0  0  0  0
    9.5321  -16.0881   26.3602 C   0  0  0  0  0  0  0  0  0  0  0  0
   10.4980  -14.9177   28.2515 O   0  0  0  0  0  0  0  0  0  0  0  0
   11.1880  -13.9103   28.9021 O   0  0  0  0  0  0  0  0  0  0  0  0
  1  2  1  0
  2  3  2  0
  4  2  1  0
  5  4  1  0
  6  5  1  0
  7  6  1  0
  7  8  1  0
  8  9  1  1
  8 10  1  0
 10 11  2  0
 13 12  1  1
 14 10  1  0
 14 13  1  0
 15 13  1  0
 15 16  2  0
 17 18  1  0
 19 20  1  0
 19 18  1  0
 21 20  1  6
 21 23  1  0
 21 22  1  0
 22 15  1  0
 23 24  1  0
 25 23  2  0
M  END
$$$$
