RAM.pdb
     RDKit          3D

 25 24  0  0  1  0  0  0  0  0999 V2000
    9.0506  -15.3959   15.1182 N   0  0  0  0  0  0  0  0  0  0  0  0
    8.3185  -14.2312   14.7511 C   0  0  0  0  0  0  0  0  0  0  0  0
    8.0951  -13.9941   13.5080 N   0  0  0  0  0  0  0  0  0  0  0  0
    7.8402  -13.3431   15.7492 N   0  0  0  0  0  0  0  0  0  0  0  0
    8.2431  -13.5296   17.1252 C   0  0  0  0  0  0  0  0  0  0  0  0
    7.5150  -14.7602   17.6488 C   0  0  0  0  0  0  0  0  0  0  0  0
    7.5107  -14.6342   19.1513 C   0  0  0  0  0  0  0  0  0  0  0  0
    8.8433  -15.0852   19.7574 C   0  0  2  0  0  0  0  0  0  0  0  0
    9.2530  -16.2755   19.0344 N   0  0  0  0  0  0  0  0  0  0  0  0
    8.5305  -15.3968   21.1804 C   0  0  0  0  0  0  0  0  0  0  0  0
    8.0890  -14.4550   21.8879 O   0  0  0  0  0  0  0  0  0  0  0  0
    7.5868  -13.1657   13.1517 C   0  0  0  0  0  0  0  0  0  0  0  0
    8.8620  -18.4326   23.3279 C   0  0  2  0  0  0  0  0  0  0  0  0
    8.4588  -16.9576   23.1719 N   0  0  0  0  0  0  0  0  0  0  0  0
    8.6950  -16.6573   21.7730 C   0  0  0  0  0  0  0  0  0  0  0  0
    9.2476  -16.0987   24.0712 O   0  0  0  0  0  0  0  0  0  0  0  0
    9.6475  -14.9684   23.6963 C   0  0  0  0  0  0  0  0  0  0  0  0
    6.7457  -10.8693   27.3435 S   0  0  0  0  0  0  0  0  0  0  0  0
    6.6434  -12.5955   26.7924 C   0  0  0  0  0  0  0  0  0  0  0  0
    8.2486  -13.3995   26.8192 C   0  0  0  0  0  0  0  0  0  0  0  0
    8.2074  -14.8513   26.4109 C   0  0  2  0  0  0  0  0  0  0  0  0
    9.5567  -15.5237   26.5064 N   0  0  0  0  0  0  0  0  0  0  0  0
    9.5983  -16.4892   25.3964 C   0  0  0  0  0  0  0  0  0  0  0  0
    9.8359  -16.1632   27.7874 O   0  0  0  0  0  0  0  0  0  0  0  0
   10.7182  -15.6652   28.7298 O   0  0  0  0  0  0  0  0  0  0  0  0
  1  2  1  0
  2  3  2  0
  4  2  1  0
  5  4  1  0
  6  5  1  0
  7  6  1  0
  7  8  1  0
  8  9  1  6
  8 10  1  0
 10 11  2  0
 13 12  1  6
 14 10  1  0
 14 13  1  0
 15 13  1  0
 15 16  2  0
 17 18  1  0
 19 20  1  0
 19 18  1  0
 21 20  1  6
 21 23  1  0
 21 22  1  0
 22 15  1  0
 23 24  1  0
 25 23  2  0
M  END
$$$$
