RAM.pdb
     RDKit          3D

 25 24  0  0  1  0  0  0  0  0999 V2000
    7.4487  -14.3380   17.0322 N   0  0  0  0  0  0  0  0  0  0  0  0
    7.7712  -14.0735   18.3936 C   0  0  0  0  0  0  0  0  0  0  0  0
    7.7784  -12.8593   18.8142 N   0  0  0  0  0  0  0  0  0  0  0  0
    8.0801  -15.1414   19.2756 N   0  0  0  0  0  0  0  0  0  0  0  0
    7.9308  -16.5072   18.8253 C   0  0  0  0  0  0  0  0  0  0  0  0
    6.6476  -17.0501   19.4394 C   0  0  0  0  0  0  0  0  0  0  0  0
    7.0356  -18.3116   20.1683 C   0  0  0  0  0  0  0  0  0  0  0  0
    7.1713  -18.0716   21.6752 C   0  0  2  0  0  0  0  0  0  0  0  0
    6.1945  -17.0578   22.0294 N   0  0  0  0  0  0  0  0  0  0  0  0
    8.5624  -17.5710   21.8591 C   0  0  0  0  0  0  0  0  0  0  0  0
    9.4835  -18.4279   21.8543 O   0  0  0  0  0  0  0  0  0  0  0  0
    8.0063  -12.5764   19.7836 C   0  0  0  0  0  0  0  0  0  0  0  0
   10.2572  -14.2867   21.8833 C   0  0  2  0  0  0  0  0  0  0  0  0
   10.2254  -15.7378   22.3893 N   0  0  0  0  0  0  0  0  0  0  0  0
    8.9054  -16.2225   22.0349 C   0  0  0  0  0  0  0  0  0  0  0  0
   10.4734  -15.7946   23.8398 O   0  0  0  0  0  0  0  0  0  0  0  0
   11.6022  -15.5105   24.3121 C   0  0  0  0  0  0  0  0  0  0  0  0
    6.7360  -12.0002   26.1245 S   0  0  0  0  0  0  0  0  0  0  0  0
    7.1692  -12.6650   27.7569 C   0  0  0  0  0  0  0  0  0  0  0  0
    8.3630  -14.0007   27.6365 C   0  0  0  0  0  0  0  0  0  0  0  0
    8.5079  -14.5619   26.2437 C   0  0  1  0  0  0  0  0  0  0  0  0
    9.5135  -15.6867   26.1685 N   0  0  0  0  0  0  0  0  0  0  0  0
    9.4676  -16.1676   24.7783 C   0  0  0  0  0  0  0  0  0  0  0  0
    9.2965  -16.7702   27.1208 O   0  0  0  0  0  0  0  0  0  0  0  0
    9.0721  -18.0877   26.7624 O   0  0  0  0  0  0  0  0  0  0  0  0
  1  2  1  0
  2  3  2  0
  4  2  1  0
  5  4  1  0
  6  5  1  0
  7  6  1  0
  7  8  1  0
  8  9  1  6
  8 10  1  0
 10 11  2  0
 13 12  1  6
 14 10  1  0
 14 13  1  0
 15 13  1  0
 15 16  2  0
 17 18  1  0
 19 20  1  0
 19 18  1  0
 21 20  1  6
 21 23  1  0
 21 22  1  0
 22 15  1  0
 23 24  1  0
 25 23  2  0
M  END
$$$$
