RAM.pdb
     RDKit          3D

 25 24  0  0  1  0  0  0  0  0999 V2000
    8.2368  -17.1991   15.1420 N   0  0  0  0  0  0  0  0  0  0  0  0
    9.5336  -16.6112   15.1438 C   0  0  0  0  0  0  0  0  0  0  0  0
    9.9096  -15.9132   14.1325 N   0  0  0  0  0  0  0  0  0  0  0  0
   10.4002  -16.7944   16.2525 N   0  0  0  0  0  0  0  0  0  0  0  0
    9.9714  -16.3845   17.5710 C   0  0  0  0  0  0  0  0  0  0  0  0
    9.9964  -14.8624   17.6039 C   0  0  0  0  0  0  0  0  0  0  0  0
    9.7321  -14.4721   19.0361 C   0  0  0  0  0  0  0  0  0  0  0  0
    8.2474  -14.1801   19.2749 C   0  0  2  0  0  0  0  0  0  0  0  0
    8.0387  -12.7780   18.9618 N   0  0  0  0  0  0  0  0  0  0  0  0
    8.0327  -14.4491   20.7244 C   0  0  0  0  0  0  0  0  0  0  0  0
    8.4052  -13.5594   21.5320 O   0  0  0  0  0  0  0  0  0  0  0  0
   10.8342  -15.4555   14.0476 C   0  0  0  0  0  0  0  0  0  0  0  0
    6.2790  -17.1113   22.6503 C   0  0  1  0  0  0  0  0  0  0  0  0
    7.1752  -15.8626   22.6412 N   0  0  0  0  0  0  0  0  0  0  0  0
    7.4492  -15.6162   21.2387 C   0  0  0  0  0  0  0  0  0  0  0  0
    8.4033  -16.0909   23.4213 O   0  0  0  0  0  0  0  0  0  0  0  0
    9.3262  -16.8156   22.9728 C   0  0  0  0  0  0  0  0  0  0  0  0
    9.7941  -12.6634   28.8260 S   0  0  0  0  0  0  0  0  0  0  0  0
   11.1575  -13.8610   28.8597 C   0  0  0  0  0  0  0  0  0  0  0  0
   10.9450  -15.1471   27.6250 C   0  0  0  0  0  0  0  0  0  0  0  0
    9.8731  -14.8414   26.6083 C   0  0  1  0  0  0  0  0  0  0  0  0
    9.7876  -15.8836   25.5181 N   0  0  0  0  0  0  0  0  0  0  0  0
    8.6161  -15.5144   24.7073 C   0  0  0  0  0  0  0  0  0  0  0  0
    9.7037  -17.2615   25.9898 O   0  0  0  0  0  0  0  0  0  0  0  0
   10.7944  -18.0986   26.1447 O   0  0  0  0  0  0  0  0  0  0  0  0
  1  2  1  0
  2  3  2  0
  4  2  1  0
  5  4  1  0
  6  5  1  0
  7  6  1  0
  7  8  1  0
  8  9  1  1
  8 10  1  0
 10 11  2  0
 13 12  1  6
 14 10  1  0
 14 13  1  0
 15 13  1  0
 15 16  2  0
 17 18  1  0
 19 20  1  0
 19 18  1  0
 21 20  1  6
 21 23  1  0
 21 22  1  0
 22 15  1  0
 23 24  1  0
 25 23  2  0
M  END
$$$$
