RAM.pdb
     RDKit          3D

 25 24  0  0  1  0  0  0  0  0999 V2000
   10.8329  -13.3635   19.4447 N   0  0  0  0  0  0  0  0  0  0  0  0
    9.6195  -12.8886   18.8708 C   0  0  0  0  0  0  0  0  0  0  0  0
    9.2052  -11.7076   19.1624 N   0  0  0  0  0  0  0  0  0  0  0  0
    8.8770  -13.7122   17.9852 N   0  0  0  0  0  0  0  0  0  0  0  0
    8.3943  -14.9973   18.4388 C   0  0  0  0  0  0  0  0  0  0  0  0
    6.9859  -14.7887   18.9786 C   0  0  0  0  0  0  0  0  0  0  0  0
    7.0184  -15.2450   20.4154 C   0  0  0  0  0  0  0  0  0  0  0  0
    7.3919  -16.7265   20.5268 C   0  0  2  0  0  0  0  0  0  0  0  0
    6.2652  -17.4842   20.0131 N   0  0  0  0  0  0  0  0  0  0  0  0
    7.5846  -16.9639   21.9849 C   0  0  0  0  0  0  0  0  0  0  0  0
    6.6013  -16.7364   22.7358 O   0  0  0  0  0  0  0  0  0  0  0  0
    8.3715  -11.2591   18.7436 C   0  0  0  0  0  0  0  0  0  0  0  0
    9.9630  -18.8632   24.0170 C   0  0  1  0  0  0  0  0  0  0  0  0
    8.9649  -17.6950   23.9768 N   0  0  0  0  0  0  0  0  0  0  0  0
    8.7773  -17.4193   22.5656 C   0  0  0  0  0  0  0  0  0  0  0  0
    9.4879  -16.5308   24.7115 O   0  0  0  0  0  0  0  0  0  0  0  0
   10.3499  -15.7769   24.1950 C   0  0  0  0  0  0  0  0  0  0  0  0
    5.8199  -11.1960   25.7679 S   0  0  0  0  0  0  0  0  0  0  0  0
    6.4326  -12.4224   26.9573 C   0  0  0  0  0  0  0  0  0  0  0  0
    7.8557  -13.3136   26.3216 C   0  0  0  0  0  0  0  0  0  0  0  0
    8.4538  -14.2854   27.3085 C   0  0  2  0  0  0  0  0  0  0  0  0
    9.6315  -15.0431   26.7419 N   0  0  0  0  0  0  0  0  0  0  0  0
    9.0562  -16.1941   26.0275 C   0  0  0  0  0  0  0  0  0  0  0  0
   10.6246  -15.4611   27.7253 O   0  0  0  0  0  0  0  0  0  0  0  0
   11.5623  -14.6160   28.2917 O   0  0  0  0  0  0  0  0  0  0  0  0
  1  2  1  0
  2  3  2  0
  4  2  1  0
  5  4  1  0
  6  5  1  0
  7  6  1  0
  7  8  1  0
  8  9  1  1
  8 10  1  0
 10 11  2  0
 13 12  1  6
 14 10  1  0
 14 13  1  0
 15 13  1  0
 15 16  2  0
 17 18  1  0
 19 20  1  0
 19 18  1  0
 21 20  1  6
 21 23  1  0
 21 22  1  0
 22 15  1  0
 23 24  1  0
 25 23  2  0
M  END
$$$$
