DAM.pdb
     RDKit          3D

 22 21  0  0  1  0  0  0  0  0999 V2000
   10.0696  -18.6232   18.6446 N   0  0  0  0  0  0  0  0  0  0  0  0
    9.2253  -17.4433   18.5951 C   0  0  1  0  0  0  0  0  0  0  0  0
    8.3104  -17.5240   17.3928 C   0  0  0  0  0  0  0  0  0  0  0  0
    9.1880  -17.6292   16.1967 C   0  0  0  0  0  0  0  0  0  0  0  0
   10.0226  -16.7091   15.8855 O   0  0  0  0  0  0  0  0  0  0  0  0
    8.5263  -17.2764   19.8707 C   0  0  0  0  0  0  0  0  0  0  0  0
    7.7456  -16.3003   20.0060 O   0  0  0  0  0  0  0  0  0  0  0  0
    9.1554  -18.7324   15.3479 O   0  0  0  0  0  0  0  0  0  0  0  0
    7.8924  -19.1711   23.0167 C   0  0  0  0  0  0  0  0  0  0  0  0
    7.9889  -17.9167   22.1902 C   0  0  2  0  0  0  0  0  0  0  0  0
    8.6862  -18.1727   20.9767 N   0  0  0  0  0  0  0  0  0  0  0  0
    8.6261  -16.8374   23.0051 C   0  0  0  0  0  0  0  0  0  0  0  0
    9.8626  -16.6049   23.0026 O   0  0  0  0  0  0  0  0  0  0  0  0
    6.1680  -10.6067   27.3662 C   0  0  0  0  0  0  0  0  0  0  0  0
    5.8564  -12.0433   26.3522 S   0  0  0  0  0  0  0  0  0  0  0  0
    7.3551  -12.9825   25.9482 C   0  0  0  0  0  0  0  0  0  0  0  0
    7.0844  -14.1232   25.0347 C   0  0  0  0  0  0  0  0  0  0  0  0
    8.2899  -14.9089   24.5934 C   0  0  2  0  0  0  0  0  0  0  0  0
    7.7691  -16.0454   23.8152 N   0  0  0  0  0  0  0  0  0  0  0  0
    9.0173  -15.3905   25.7913 C   0  0  0  0  0  0  0  0  0  0  0  0
    9.8908  -14.7604   26.4114 O   0  0  0  0  0  0  0  0  0  0  0  0
    8.6770  -16.6771   26.2573 O   0  0  0  0  0  0  0  0  0  0  0  0
  2  1  1  1
  3  2  1  0
  4  3  1  0
  4  5  2  0
  6  2  1  0
  6 11  1  0
  7  6  2  0
  8  4  1  0
 10 11  1  0
 10 12  1  0
 10  9  1  1
 12 13  2  0
 14 15  1  0
 16 15  1  0
 17 16  1  0
 18 17  1  1
 18 20  1  0
 19 12  1  0
 19 18  1  0
 20 21  2  0
 20 22  1  0
M  END
$$$$
