DAM.pdb
     RDKit          3D

 22 21  0  0  1  0  0  0  0  0999 V2000
   10.9271  -18.6087   19.3550 N   0  0  0  0  0  0  0  0  0  0  0  0
   10.0406  -17.4764   19.1564 C   0  0  1  0  0  0  0  0  0  0  0  0
    9.3252  -17.6183   17.8308 C   0  0  0  0  0  0  0  0  0  0  0  0
   10.3718  -17.5688   16.7752 C   0  0  0  0  0  0  0  0  0  0  0  0
   11.2511  -16.6385   16.7358 O   0  0  0  0  0  0  0  0  0  0  0  0
    9.1474  -17.3344   20.3078 C   0  0  0  0  0  0  0  0  0  0  0  0
    8.3625  -16.3530   20.3432 O   0  0  0  0  0  0  0  0  0  0  0  0
   10.4583  -18.5295   15.7712 O   0  0  0  0  0  0  0  0  0  0  0  0
    7.9057  -19.3383   23.1750 C   0  0  0  0  0  0  0  0  0  0  0  0
    8.2241  -18.0403   22.4822 C   0  0  2  0  0  0  0  0  0  0  0  0
    9.1212  -18.2609   21.4001 N   0  0  0  0  0  0  0  0  0  0  0  0
    8.7558  -17.0651   23.4827 C   0  0  0  0  0  0  0  0  0  0  0  0
    9.9765  -16.9622   23.7700 O   0  0  0  0  0  0  0  0  0  0  0  0
    7.0910  -10.6579   25.8792 C   0  0  0  0  0  0  0  0  0  0  0  0
    6.1538  -12.0553   26.4774 S   0  0  0  0  0  0  0  0  0  0  0  0
    7.1503  -13.5560   26.6929 C   0  0  0  0  0  0  0  0  0  0  0  0
    6.9981  -14.5089   25.5625 C   0  0  0  0  0  0  0  0  0  0  0  0
    8.2182  -15.3219   25.2226 C   0  0  2  0  0  0  0  0  0  0  0  0
    7.8137  -16.2202   24.1282 N   0  0  0  0  0  0  0  0  0  0  0  0
    8.6235  -16.1052   26.4136 C   0  0  0  0  0  0  0  0  0  0  0  0
    8.1256  -17.1848   26.7754 O   0  0  0  0  0  0  0  0  0  0  0  0
    9.6674  -15.5665   27.1936 O   0  0  0  0  0  0  0  0  0  0  0  0
  2  1  1  1
  3  2  1  0
  4  3  1  0
  4  5  2  0
  6  2  1  0
  6 11  1  0
  7  6  2  0
  8  4  1  0
 10 11  1  0
 10 12  1  0
 10  9  1  1
 12 13  2  0
 14 15  1  0
 16 15  1  0
 17 16  1  0
 18 17  1  1
 18 20  1  0
 19 12  1  0
 19 18  1  0
 20 21  2  0
 20 22  1  0
M  END
$$$$
