DAM.pdb
     RDKit          3D

 22 21  0  0  1  0  0  0  0  0999 V2000
    7.7842  -18.5029   18.8404 N   0  0  0  0  0  0  0  0  0  0  0  0
    7.3281  -17.8874   20.0736 C   0  0  1  0  0  0  0  0  0  0  0  0
    7.4091  -18.8916   21.2023 C   0  0  0  0  0  0  0  0  0  0  0  0
    6.4796  -19.9992   20.8538 C   0  0  0  0  0  0  0  0  0  0  0  0
    6.9042  -21.1585   20.5134 O   0  0  0  0  0  0  0  0  0  0  0  0
    8.0710  -16.6496   20.3176 C   0  0  0  0  0  0  0  0  0  0  0  0
    9.3244  -16.6712   20.2227 O   0  0  0  0  0  0  0  0  0  0  0  0
    5.0964  -19.8419   20.8789 O   0  0  0  0  0  0  0  0  0  0  0  0
    7.4594  -13.0038   20.6460 C   0  0  0  0  0  0  0  0  0  0  0  0
    8.2434  -14.2620   20.9078 C   0  0  2  0  0  0  0  0  0  0  0  0
    7.4400  -15.4096   20.6591 N   0  0  0  0  0  0  0  0  0  0  0  0
    8.7821  -14.2259   22.3018 C   0  0  0  0  0  0  0  0  0  0  0  0
    9.5778  -13.3432   22.7152 O   0  0  0  0  0  0  0  0  0  0  0  0
    6.2745  -11.0245   27.0155 C   0  0  0  0  0  0  0  0  0  0  0  0
    6.1297  -12.5467   26.0931 S   0  0  0  0  0  0  0  0  0  0  0  0
    7.6113  -13.5900   26.1817 C   0  0  0  0  0  0  0  0  0  0  0  0
    7.4911  -14.8222   25.3594 C   0  0  0  0  0  0  0  0  0  0  0  0
    8.7308  -15.2339   24.6118 C   0  0  2  0  0  0  0  0  0  0  0  0
    8.3571  -15.2519   23.1876 N   0  0  0  0  0  0  0  0  0  0  0  0
    9.1369  -16.5873   25.0586 C   0  0  0  0  0  0  0  0  0  0  0  0
    8.9995  -17.6373   24.4082 O   0  0  0  0  0  0  0  0  0  0  0  0
    9.7308  -16.6751   26.3345 O   0  0  0  0  0  0  0  0  0  0  0  0
  2  1  1  6
  3  2  1  0
  4  3  1  0
  4  5  2  0
  6  2  1  0
  6 11  1  0
  7  6  2  0
  8  4  1  0
 10 11  1  0
 10 12  1  0
 10  9  1  1
 12 13  2  0
 14 15  1  0
 16 15  1  0
 17 16  1  0
 18 17  1  1
 18 20  1  0
 19 12  1  0
 19 18  1  0
 20 21  2  0
 20 22  1  0
M  END
$$$$
