SVP.pdb
     RDKit          3D

 21 21  0  0  1  0  0  0  0  0999 V2000
   14.3915  -14.2608  -12.2078 O   0  0  0  0  0  0  0  0  0  0  0  0
   14.3131  -12.9742  -12.6835 C   0  0  0  0  0  0  0  0  0  0  0  0
   13.8447  -11.9726  -11.6539 C   0  0  2  0  0  0  0  0  0  0  0  0
   12.3984  -12.0115  -11.6499 N   0  0  0  0  0  0  0  0  0  0  0  0
   14.2653  -10.5973  -11.9767 C   0  0  0  0  0  0  0  0  0  0  0  0
   13.6402   -9.9244  -12.7926 O   0  0  0  0  0  0  0  0  0  0  0  0
   14.3931   -7.7694   -9.7827 C   0  0  0  0  0  0  0  0  0  0  0  0
   15.7881   -7.7679  -10.3477 C   0  0  1  0  0  0  0  0  0  0  0  0
   16.8552   -7.9192   -9.3328 C   0  0  0  0  0  0  0  0  0  0  0  0
   15.8395   -8.6876  -11.5233 C   0  0  2  0  0  0  0  0  0  0  0  0
   15.3904   -9.9988  -11.3711 N   0  0  0  0  0  0  0  0  0  0  0  0
   17.1051   -8.5949  -12.2735 C   0  0  0  0  0  0  0  0  0  0  0  0
   18.1458   -9.2039  -11.7918 O   0  0  0  0  0  0  0  0  0  0  0  0
   17.3446   -7.9090  -13.4886 N   0  0  0  0  0  0  0  0  0  0  0  0
   16.4187   -7.2102  -14.3341 C   0  0  0  0  0  0  0  0  0  0  0  0
   17.2790   -6.3320  -15.2308 C   0  0  0  0  0  0  0  0  0  0  0  0
   18.6154   -7.0328  -15.3008 C   0  0  0  0  0  0  0  0  0  0  0  0
   18.7041   -7.8435  -14.0629 C   0  0  1  0  0  0  0  0  0  0  0  0
   19.6237   -7.1693  -13.1110 C   0  0  0  0  0  0  0  0  0  0  0  0
   20.9740   -7.2710  -13.3338 O   0  0  0  0  0  0  0  0  0  0  0  0
   19.2066   -6.5255  -12.1332 O   0  0  0  0  0  0  0  0  0  0  0  0
  2  1  1  0
  3  4  1  6
  3  2  1  0
  5  6  2  0
  5  3  1  0
  8  7  1  1
  8 10  1  0
  9  8  1  0
 10 11  1  1
 10 12  1  0
 11  5  1  0
 12 14  1  0
 13 12  2  0
 14 15  1  0
 14 18  1  0
 15 16  1  0
 16 17  1  0
 18 17  1  0
 19 20  1  0
 18 19  1  1
 21 19  2  0
M  END
$$$$
