SVP.pdb
     RDKit          3D

 21 21  0  0  1  0  0  0  0  0999 V2000
   26.0384  -25.5341  -15.6154 O   0  0  0  0  0  0  0  0  0  0  0  0
   26.1068  -25.1684  -16.9380 C   0  0  0  0  0  0  0  0  0  0  0  0
   27.1263  -24.0892  -17.2187 C   0  0  2  0  0  0  0  0  0  0  0  0
   28.3960  -24.7491  -17.4333 N   0  0  0  0  0  0  0  0  0  0  0  0
   27.2804  -23.1550  -16.0892 C   0  0  0  0  0  0  0  0  0  0  0  0
   28.2841  -23.1852  -15.3814 O   0  0  0  0  0  0  0  0  0  0  0  0
   26.1280  -18.7750  -14.3505 C   0  0  0  0  0  0  0  0  0  0  0  0
   26.6302  -19.7661  -15.3658 C   0  0  1  0  0  0  0  0  0  0  0  0
   27.9837  -19.4695  -15.8870 C   0  0  0  0  0  0  0  0  0  0  0  0
   26.3912  -21.1497  -14.8567 C   0  0  2  0  0  0  0  0  0  0  0  0
   26.2948  -22.1960  -15.7734 N   0  0  0  0  0  0  0  0  0  0  0  0
   25.3596  -21.2074  -13.8052 C   0  0  0  0  0  0  0  0  0  0  0  0
   24.1221  -21.3493  -14.1718 O   0  0  0  0  0  0  0  0  0  0  0  0
   25.5445  -21.1272  -12.4039 N   0  0  0  0  0  0  0  0  0  0  0  0
   26.7577  -20.9521  -11.6569 C   0  0  0  0  0  0  0  0  0  0  0  0
   26.3141  -20.5129  -10.2692 C   0  0  0  0  0  0  0  0  0  0  0  0
   24.9204  -21.0728  -10.1073 C   0  0  0  0  0  0  0  0  0  0  0  0
   24.3933  -21.2305  -11.4838 C   0  0  1  0  0  0  0  0  0  0  0  0
   23.4270  -20.1361  -11.7573 C   0  0  0  0  0  0  0  0  0  0  0  0
   22.1716  -20.2297  -11.2106 O   0  0  0  0  0  0  0  0  0  0  0  0
   23.7229  -19.1533  -12.4581 O   0  0  0  0  0  0  0  0  0  0  0  0
  2  1  1  0
  3  4  1  1
  3  2  1  0
  5  6  2  0
  5  3  1  0
  8  7  1  1
  8 10  1  0
  9  8  1  0
 10 11  1  6
 10 12  1  0
 11  5  1  0
 12 14  1  0
 13 12  2  0
 14 15  1  0
 14 18  1  0
 15 16  1  0
 16 17  1  0
 18 17  1  0
 19 20  1  0
 18 19  1  6
 21 19  2  0
M  END
$$$$
