SVP.pdb
     RDKit          3D

 21 21  0  0  1  0  0  0  0  0999 V2000
   20.2548  -10.9366  -18.4827 O   0  0  0  0  0  0  0  0  0  0  0  0
   19.3039  -11.8446  -18.0837 C   0  0  0  0  0  0  0  0  0  0  0  0
   19.1097  -11.9035  -16.5864 C   0  0  2  0  0  0  0  0  0  0  0  0
   18.0848  -12.8919  -16.3291 N   0  0  0  0  0  0  0  0  0  0  0  0
   18.6564  -10.6170  -16.0281 C   0  0  0  0  0  0  0  0  0  0  0  0
   17.5786  -10.1317  -16.3630 O   0  0  0  0  0  0  0  0  0  0  0  0
   17.0962   -9.3352  -13.3630 C   0  0  0  0  0  0  0  0  0  0  0  0
   18.4120   -8.6190  -13.2187 C   0  0  1  0  0  0  0  0  0  0  0  0
   19.1852   -9.0042  -12.0166 C   0  0  0  0  0  0  0  0  0  0  0  0
   19.1336   -8.6558  -14.5258 C   0  0  2  0  0  0  0  0  0  0  0  0
   19.4296   -9.8936  -15.0956 N   0  0  0  0  0  0  0  0  0  0  0  0
   20.2604   -7.7073  -14.5898 C   0  0  0  0  0  0  0  0  0  0  0  0
   21.4107   -8.0944  -14.1282 O   0  0  0  0  0  0  0  0  0  0  0  0
   20.2554   -6.3886  -15.1048 N   0  0  0  0  0  0  0  0  0  0  0  0
   19.1763   -5.6489  -15.6954 C   0  0  0  0  0  0  0  0  0  0  0  0
   19.6210   -4.1941  -15.6598 C   0  0  0  0  0  0  0  0  0  0  0  0
   21.1308   -4.2451  -15.6582 C   0  0  0  0  0  0  0  0  0  0  0  0
   21.4829   -5.5667  -15.0865 C   0  0  1  0  0  0  0  0  0  0  0  0
   21.9447   -5.3781  -13.6873 C   0  0  0  0  0  0  0  0  0  0  0  0
   21.0844   -5.7117  -12.6715 O   0  0  0  0  0  0  0  0  0  0  0  0
   23.0733   -4.9326  -13.4186 O   0  0  0  0  0  0  0  0  0  0  0  0
  2  1  1  0
  3  4  1  6
  3  2  1  0
  5  6  2  0
  5  3  1  0
  8  7  1  6
  8 10  1  0
  9  8  1  0
 10 11  1  1
 10 12  1  0
 11  5  1  0
 12 14  1  0
 13 12  2  0
 14 15  1  0
 14 18  1  0
 15 16  1  0
 16 17  1  0
 18 17  1  0
 19 20  1  0
 18 19  1  1
 21 19  2  0
M  END
$$$$
