SVP.pdb
     RDKit          3D

 21 21  0  0  1  0  0  0  0  0999 V2000
   21.3602  -19.4923  -12.2259 O   0  0  0  0  0  0  0  0  0  0  0  0
   22.0930  -19.1889  -13.3478 C   0  0  0  0  0  0  0  0  0  0  0  0
   23.0592  -20.2766  -13.7557 C   0  0  2  0  0  0  0  0  0  0  0  0
   22.2716  -21.3673  -14.2881 N   0  0  0  0  0  0  0  0  0  0  0  0
   23.8411  -20.7892  -12.6163 C   0  0  0  0  0  0  0  0  0  0  0  0
   23.5054  -21.8191  -12.0367 O   0  0  0  0  0  0  0  0  0  0  0  0
   28.3019  -21.3027  -10.8348 C   0  0  0  0  0  0  0  0  0  0  0  0
   27.3463  -20.9108  -11.9294 C   0  0  1  0  0  0  0  0  0  0  0  0
   27.3929  -21.7889  -13.1203 C   0  0  0  0  0  0  0  0  0  0  0  0
   26.0014  -20.6524  -11.3337 C   0  0  2  0  0  0  0  0  0  0  0  0
   24.9958  -20.1290  -12.1455 N   0  0  0  0  0  0  0  0  0  0  0  0
   26.0709  -20.0041  -10.0115 C   0  0  0  0  0  0  0  0  0  0  0  0
   26.3929  -18.7470   -9.9646 O   0  0  0  0  0  0  0  0  0  0  0  0
   25.8246  -20.5879   -8.7455 N   0  0  0  0  0  0  0  0  0  0  0  0
   25.2887  -21.8820   -8.4315 C   0  0  0  0  0  0  0  0  0  0  0  0
   25.6496  -22.1221   -6.9729 C   0  0  0  0  0  0  0  0  0  0  0  0
   25.7860  -20.7436   -6.3703 C   0  0  0  0  0  0  0  0  0  0  0  0
   26.1204  -19.8467   -7.5022 C   0  0  1  0  0  0  0  0  0  0  0  0
   27.5672  -19.5156   -7.4426 C   0  0  0  0  0  0  0  0  0  0  0  0
   27.9849  -18.6073   -6.5023 O   0  0  0  0  0  0  0  0  0  0  0  0
   28.3956  -20.0328   -8.2113 O   0  0  0  0  0  0  0  0  0  0  0  0
  2  1  1  0
  3  4  1  1
  3  2  1  0
  5  6  2  0
  5  3  1  0
  8  7  1  1
  8 10  1  0
  9  8  1  0
 10 11  1  6
 10 12  1  0
 11  5  1  0
 12 14  1  0
 13 12  2  0
 14 15  1  0
 14 18  1  0
 15 16  1  0
 16 17  1  0
 18 17  1  0
 19 20  1  0
 18 19  1  6
 21 19  2  0
M  END
$$$$
