SVP.pdb
     RDKit          3D

 21 21  0  0  1  0  0  0  0  0999 V2000
   21.5008  -21.3936  -12.4068 O   0  0  0  0  0  0  0  0  0  0  0  0
   22.6690  -21.6399  -11.7266 C   0  0  0  0  0  0  0  0  0  0  0  0
   23.9110  -21.2264  -12.4813 C   0  0  2  0  0  0  0  0  0  0  0  0
   24.0231  -22.1019  -13.6278 N   0  0  0  0  0  0  0  0  0  0  0  0
   25.1341  -21.3720  -11.6720 C   0  0  0  0  0  0  0  0  0  0  0  0
   25.7303  -22.4451  -11.6219 O   0  0  0  0  0  0  0  0  0  0  0  0
   29.0413  -19.2567   -9.7223 C   0  0  0  0  0  0  0  0  0  0  0  0
   28.0136  -19.4810  -10.7987 C   0  0  1  0  0  0  0  0  0  0  0  0
   28.5744  -19.9478  -12.0868 C   0  0  0  0  0  0  0  0  0  0  0  0
   26.8775  -20.2678  -10.2325 C   0  0  2  0  0  0  0  0  0  0  0  0
   25.6692  -20.2995  -10.9275 N   0  0  0  0  0  0  0  0  0  0  0  0
   26.7035  -20.0680   -8.7822 C   0  0  0  0  0  0  0  0  0  0  0  0
   25.7464  -19.2858   -8.3847 O   0  0  0  0  0  0  0  0  0  0  0  0
   27.4648  -20.6342   -7.7315 N   0  0  0  0  0  0  0  0  0  0  0  0
   28.5279  -21.5965   -7.7973 C   0  0  0  0  0  0  0  0  0  0  0  0
   29.2372  -21.5025   -6.4544 C   0  0  0  0  0  0  0  0  0  0  0  0
   28.1903  -20.9916   -5.4925 C   0  0  0  0  0  0  0  0  0  0  0  0
   27.2104  -20.2554   -6.3264 C   0  0  1  0  0  0  0  0  0  0  0  0
   27.4270  -18.7967   -6.1484 C   0  0  0  0  0  0  0  0  0  0  0  0
   26.9637  -18.2094   -4.9977 O   0  0  0  0  0  0  0  0  0  0  0  0
   28.0082  -18.1060   -7.0026 O   0  0  0  0  0  0  0  0  0  0  0  0
  2  1  1  0
  3  4  1  6
  3  2  1  0
  5  6  2  0
  5  3  1  0
  8  7  1  1
  8 10  1  0
  9  8  1  0
 10 11  1  6
 10 12  1  0
 11  5  1  0
 12 14  1  0
 13 12  2  0
 14 15  1  0
 14 18  1  0
 15 16  1  0
 16 17  1  0
 18 17  1  0
 19 20  1  0
 18 19  1  6
 21 19  2  0
M  END
$$$$
