SVP.pdb
     RDKit          3D

 21 21  0  0  1  0  0  0  0  0999 V2000
   31.4861    4.1458   -7.7488 O   0  0  0  0  0  0  0  0  0  0  0  0
   30.1418    4.3492   -7.9473 C   0  0  0  0  0  0  0  0  0  0  0  0
   29.4415    3.1845   -8.6075 C   0  0  2  0  0  0  0  0  0  0  0  0
   29.7344    3.2587  -10.0225 N   0  0  0  0  0  0  0  0  0  0  0  0
   27.9783    3.2404   -8.4387 C   0  0  0  0  0  0  0  0  0  0  0  0
   27.2832    3.9082   -9.2003 O   0  0  0  0  0  0  0  0  0  0  0  0
   25.2086    0.9431   -8.7933 C   0  0  0  0  0  0  0  0  0  0  0  0
   25.1610    1.3039   -7.3329 C   0  0  1  0  0  0  0  0  0  0  0  0
   25.4249    0.1704   -6.4178 C   0  0  0  0  0  0  0  0  0  0  0  0
   25.9556    2.5489   -7.1116 C   0  0  2  0  0  0  0  0  0  0  0  0
   27.3180    2.5385   -7.4081 N   0  0  0  0  0  0  0  0  0  0  0  0
   25.6495    3.2084   -5.8291 C   0  0  0  0  0  0  0  0  0  0  0  0
   26.3382    2.8608   -4.7847 O   0  0  0  0  0  0  0  0  0  0  0  0
   24.6740    4.2029   -5.5767 N   0  0  0  0  0  0  0  0  0  0  0  0
   23.7528    4.8224   -6.4866 C   0  0  0  0  0  0  0  0  0  0  0  0
   22.6923    5.4671   -5.6062 C   0  0  0  0  0  0  0  0  0  0  0  0
   23.3848    5.7365   -4.2910 C   0  0  0  0  0  0  0  0  0  0  0  0
   24.4953    4.7572   -4.2190 C   0  0  1  0  0  0  0  0  0  0  0  0
   24.1206    3.6732   -3.2751 C   0  0  0  0  0  0  0  0  0  0  0  0
   24.0890    3.9648   -1.9344 O   0  0  0  0  0  0  0  0  0  0  0  0
   23.8393    2.5267   -3.6638 O   0  0  0  0  0  0  0  0  0  0  0  0
  2  1  1  0
  3  4  1  6
  3  2  1  0
  5  6  2  0
  5  3  1  0
  8  7  1  6
  8 10  1  0
  9  8  1  0
 10 11  1  1
 10 12  1  0
 11  5  1  0
 12 14  1  0
 13 12  2  0
 14 15  1  0
 14 18  1  0
 15 16  1  0
 16 17  1  0
 18 17  1  0
 19 20  1  0
 18 19  1  1
 21 19  2  0
M  END
$$$$
