SVP.pdb
     RDKit          3D

 21 21  0  0  1  0  0  0  0  0999 V2000
   18.9528  -13.4237  -19.6847 O   0  0  0  0  0  0  0  0  0  0  0  0
   18.8645  -12.6801  -18.5326 C   0  0  0  0  0  0  0  0  0  0  0  0
   19.8016  -13.1384  -17.4396 C   0  0  2  0  0  0  0  0  0  0  0  0
   19.2630  -14.3711  -16.9068 N   0  0  0  0  0  0  0  0  0  0  0  0
   19.8965  -12.1652  -16.3368 C   0  0  0  0  0  0  0  0  0  0  0  0
   19.1268  -12.2219  -15.3810 O   0  0  0  0  0  0  0  0  0  0  0  0
   22.3316   -8.8907  -13.7119 C   0  0  0  0  0  0  0  0  0  0  0  0
   22.3901   -9.9937  -14.7341 C   0  0  1  0  0  0  0  0  0  0  0  0
   23.0533  -11.2288  -14.2585 C   0  0  0  0  0  0  0  0  0  0  0  0
   21.0438  -10.1494  -15.3616 C   0  0  2  0  0  0  0  0  0  0  0  0
   20.8630  -11.1373  -16.3288 N   0  0  0  0  0  0  0  0  0  0  0  0
   20.4265   -8.8622  -15.7297 C   0  0  0  0  0  0  0  0  0  0  0  0
   21.0550   -8.1041  -16.5760 O   0  0  0  0  0  0  0  0  0  0  0  0
   19.1999   -8.3258  -15.2693 N   0  0  0  0  0  0  0  0  0  0  0  0
   18.2180   -8.9170  -14.4052 C   0  0  0  0  0  0  0  0  0  0  0  0
   17.3592   -7.7576  -13.9220 C   0  0  0  0  0  0  0  0  0  0  0  0
   17.4754   -6.7068  -15.0010 C   0  0  0  0  0  0  0  0  0  0  0  0
   18.7670   -6.9736  -15.6777 C   0  0  1  0  0  0  0  0  0  0  0  0
   19.7624   -5.9665  -15.2290 C   0  0  0  0  0  0  0  0  0  0  0  0
   19.6209   -4.6751  -15.6716 O   0  0  0  0  0  0  0  0  0  0  0  0
   20.7053   -6.2602  -14.4746 O   0  0  0  0  0  0  0  0  0  0  0  0
  2  1  1  0
  3  4  1  1
  3  2  1  0
  5  6  2  0
  5  3  1  0
  8  7  1  1
  8 10  1  0
  9  8  1  0
 10 11  1  6
 10 12  1  0
 11  5  1  0
 12 14  1  0
 13 12  2  0
 14 15  1  0
 14 18  1  0
 15 16  1  0
 16 17  1  0
 18 17  1  0
 19 20  1  0
 18 19  1  1
 21 19  2  0
M  END
$$$$
