SVP.pdb
     RDKit          3D

 21 21  0  0  1  0  0  0  0  0999 V2000
   26.1078  -24.8079  -18.4437 O   0  0  0  0  0  0  0  0  0  0  0  0
   26.4366  -24.2743  -17.2210 C   0  0  0  0  0  0  0  0  0  0  0  0
   27.3846  -23.1007  -17.3047 C   0  0  2  0  0  0  0  0  0  0  0  0
   28.6981  -23.6348  -17.5926 N   0  0  0  0  0  0  0  0  0  0  0  0
   27.4623  -22.3505  -16.0384 C   0  0  0  0  0  0  0  0  0  0  0  0
   28.3768  -22.5528  -15.2434 O   0  0  0  0  0  0  0  0  0  0  0  0
   28.1160  -18.8413  -15.1957 C   0  0  0  0  0  0  0  0  0  0  0  0
   26.7040  -19.0888  -14.7373 C   0  0  1  0  0  0  0  0  0  0  0  0
   25.6761  -18.3595  -15.5138 C   0  0  0  0  0  0  0  0  0  0  0  0
   26.4993  -20.5574  -14.5590 C   0  0  2  0  0  0  0  0  0  0  0  0
   26.5022  -21.3783  -15.6861 N   0  0  0  0  0  0  0  0  0  0  0  0
   25.4134  -20.8782  -13.6149 C   0  0  0  0  0  0  0  0  0  0  0  0
   24.2584  -21.2131  -14.1045 O   0  0  0  0  0  0  0  0  0  0  0  0
   25.4641  -20.8703  -12.2001 N   0  0  0  0  0  0  0  0  0  0  0  0
   26.5829  -20.6311  -11.3332 C   0  0  0  0  0  0  0  0  0  0  0  0
   25.9766  -20.3242   -9.9718 C   0  0  0  0  0  0  0  0  0  0  0  0
   24.6359  -21.0204   -9.9733 C   0  0  0  0  0  0  0  0  0  0  0  0
   24.2514  -21.1385  -11.4000 C   0  0  1  0  0  0  0  0  0  0  0  0
   23.2103  -20.1235  -11.7035 C   0  0  0  0  0  0  0  0  0  0  0  0
   21.9324  -20.3548  -11.2595 O   0  0  0  0  0  0  0  0  0  0  0  0
   23.4641  -19.0865  -12.3396 O   0  0  0  0  0  0  0  0  0  0  0  0
  2  1  1  0
  3  4  1  1
  3  2  1  0
  5  6  2  0
  5  3  1  0
  8  7  1  6
  8 10  1  0
  9  8  1  0
 10 11  1  6
 10 12  1  0
 11  5  1  0
 12 14  1  0
 13 12  2  0
 14 15  1  0
 14 18  1  0
 15 16  1  0
 16 17  1  0
 18 17  1  0
 19 20  1  0
 18 19  1  6
 21 19  2  0
M  END
$$$$
