RLK.pdb
     RDKit          3D

 29 28  0  0  1  0  0  0  0  0999 V2000
    9.3186  -12.4763   19.0241 N   0  0  0  0  0  0  0  0  0  0  0  0
    8.5852  -13.1557   18.0398 C   0  0  0  0  0  0  0  0  0  0  0  0
    7.8081  -12.4833   17.2286 N   0  0  0  0  0  0  0  0  0  0  0  0
    8.6872  -14.5656   17.9269 N   0  0  0  0  0  0  0  0  0  0  0  0
    9.4519  -15.3697   18.8573 C   0  0  0  0  0  0  0  0  0  0  0  0
    8.6929  -15.6534   20.1087 C   0  0  0  0  0  0  0  0  0  0  0  0
    9.3488  -16.5234   21.1065 C   0  0  0  0  0  0  0  0  0  0  0  0
    8.4978  -17.0193   22.2365 C   0  0  2  0  0  0  0  0  0  0  0  0
    7.1354  -17.2575   21.9123 N   0  0  0  0  0  0  0  0  0  0  0  0
    8.7252  -16.2545   23.4890 C   0  0  0  0  0  0  0  0  0  0  0  0
    9.9156  -16.0126   23.8893 O   0  0  0  0  0  0  0  0  0  0  0  0
    7.1536  -12.9927   16.5990 C   0  0  0  0  0  0  0  0  0  0  0  0
    7.9130  -11.9895   25.1034 C   0  0  2  0  0  0  0  0  0  0  0  0
    6.6678  -12.8704   25.0904 C   0  0  0  0  0  0  0  0  0  0  0  0
    5.4782  -12.0469   25.3639 C   0  0  0  0  0  0  0  0  0  0  0  0
    6.8496  -14.1460   25.7906 C   0  0  2  0  0  0  0  0  0  0  0  0
    8.0285  -14.9933   25.5552 N   0  0  0  0  0  0  0  0  0  0  0  0
    7.6974  -15.7485   24.3144 C   0  0  0  0  0  0  0  0  0  0  0  0
    8.3165  -16.0183   26.5552 O   0  0  0  0  0  0  0  0  0  0  0  0
    8.8126  -15.6425   27.6787 N   0  0  0  0  0  0  0  0  0  0  0  0
    8.1032  -17.4128   26.4452 C   0  0  1  0  0  0  0  0  0  0  0  0
    8.3873  -18.3142   27.6222 C   0  0  0  0  0  0  0  0  0  0  0  0
    7.5962  -19.5271   27.2730 C   0  0  0  0  0  0  0  0  0  0  0  0
    7.4740  -20.7056   28.1005 C   0  0  0  0  0  0  0  0  0  0  0  0
    6.7044  -21.8715   27.6269 C   0  0  0  0  0  0  0  0  0  0  0  0
    6.7302  -22.9547   28.7438 N   0  0  0  0  0  0  0  0  0  0  0  0
    5.9227  -24.0694   28.3519 C   0  0  0  0  0  0  0  0  0  0  0  0
    9.8269  -18.4542   27.7552 O   0  0  0  0  0  0  0  0  0  0  0  0
   10.6699  -18.2479   26.8516 O   0  0  0  0  0  0  0  0  0  0  0  0
  2  3  2  0
  2  1  1  0
  4  2  1  0
  5  4  1  0
  6  5  1  0
  7  6  1  0
  8  7  1  0
  8  9  1  6
 10 17  1  0
 10  8  1  0
 11 10  2  0
 13 12  1  6
 14 13  1  0
 15 13  1  0
 16 15  1  6
 16 17  1  0
 18 19  2  0
 18 16  1  0
 20 18  1  0
 21 20  1  0
 21 27  1  0
 21 22  1  6
 23 22  1  0
 24 23  1  0
 25 26  1  0
 25 24  1  0
 27 29  1  0
 28 27  2  0
M  END
$$$$
