RLK.pdb
     RDKit          3D

 29 28  0  0  1  0  0  0  0  0999 V2000
    8.2588  -14.6013   16.0954 N   0  0  0  0  0  0  0  0  0  0  0  0
    8.3056  -13.5864   17.0630 C   0  0  0  0  0  0  0  0  0  0  0  0
    7.8649  -12.3888   16.7704 N   0  0  0  0  0  0  0  0  0  0  0  0
    8.8293  -13.8601   18.3521 N   0  0  0  0  0  0  0  0  0  0  0  0
    8.4531  -15.0322   19.1147 C   0  0  0  0  0  0  0  0  0  0  0  0
    7.0908  -14.9029   19.7061 C   0  0  0  0  0  0  0  0  0  0  0  0
    6.5888  -16.0517   20.4879 C   0  0  0  0  0  0  0  0  0  0  0  0
    7.5713  -16.7409   21.3862 C   0  0  2  0  0  0  0  0  0  0  0  0
    7.1815  -18.0303   21.8374 N   0  0  0  0  0  0  0  0  0  0  0  0
    8.1015  -15.8365   22.4380 C   0  0  0  0  0  0  0  0  0  0  0  0
    8.9436  -14.9222   22.1372 O   0  0  0  0  0  0  0  0  0  0  0  0
    7.8628  -11.6461   17.5002 C   0  0  0  0  0  0  0  0  0  0  0  0
    6.2140  -13.0294   27.3360 C   0  0  1  0  0  0  0  0  0  0  0  0
    7.4925  -13.4205   26.6017 C   0  0  0  0  0  0  0  0  0  0  0  0
    8.3033  -12.2178   26.3484 C   0  0  0  0  0  0  0  0  0  0  0  0
    7.2722  -14.3925   25.5260 C   0  0  2  0  0  0  0  0  0  0  0  0
    8.3943  -15.0026   24.7968 N   0  0  0  0  0  0  0  0  0  0  0  0
    7.7427  -15.9001   23.8021 C   0  0  0  0  0  0  0  0  0  0  0  0
    9.2858  -15.8711   25.5615 O   0  0  0  0  0  0  0  0  0  0  0  0
    8.8863  -17.0626   25.8263 N   0  0  0  0  0  0  0  0  0  0  0  0
   10.5757  -15.5618   26.0540 C   0  0  2  0  0  0  0  0  0  0  0  0
   11.4439  -16.6532   26.6317 C   0  0  0  0  0  0  0  0  0  0  0  0
   11.1715  -16.5173   28.0899 C   0  0  0  0  0  0  0  0  0  0  0  0
   11.5812  -17.4630   29.1029 C   0  0  0  0  0  0  0  0  0  0  0  0
   11.3122  -17.1913   30.5277 C   0  0  0  0  0  0  0  0  0  0  0  0
   11.8896  -18.3706   31.3628 N   0  0  0  0  0  0  0  0  0  0  0  0
   11.6926  -18.1148   32.7570 C   0  0  0  0  0  0  0  0  0  0  0  0
   11.0941  -17.9066   25.9868 O   0  0  0  0  0  0  0  0  0  0  0  0
   10.1010  -18.6197   26.2607 O   0  0  0  0  0  0  0  0  0  0  0  0
  2  3  2  0
  2  1  1  0
  4  2  1  0
  5  4  1  0
  6  5  1  0
  7  6  1  0
  8  7  1  0
  8  9  1  1
 10 17  1  0
 10  8  1  0
 11 10  2  0
 13 12  1  1
 14 13  1  0
 15 13  1  0
 16 15  1  6
 16 17  1  0
 18 19  2  0
 18 16  1  0
 20 18  1  0
 21 20  1  0
 21 27  1  0
 21 22  1  1
 23 22  1  0
 24 23  1  0
 25 26  1  0
 25 24  1  0
 27 29  1  0
 28 27  2  0
M  END
$$$$
