RLK.pdb
     RDKit          3D

 29 28  0  0  1  0  0  0  0  0999 V2000
    6.8355  -13.7175   16.5594 N   0  0  0  0  0  0  0  0  0  0  0  0
    8.2276  -13.8425   16.6819 C   0  0  0  0  0  0  0  0  0  0  0  0
    9.0052  -12.8684   16.2815 N   0  0  0  0  0  0  0  0  0  0  0  0
    8.7869  -15.0213   17.2374 N   0  0  0  0  0  0  0  0  0  0  0  0
    7.9767  -16.1409   17.6699 C   0  0  0  0  0  0  0  0  0  0  0  0
    7.7563  -16.1371   19.1443 C   0  0  0  0  0  0  0  0  0  0  0  0
    8.9557  -16.2436   20.0005 C   0  0  0  0  0  0  0  0  0  0  0  0
    8.7527  -16.7739   21.3878 C   0  0  2  0  0  0  0  0  0  0  0  0
    7.5806  -17.5546   21.5746 N   0  0  0  0  0  0  0  0  0  0  0  0
    8.9959  -15.7402   22.4258 C   0  0  0  0  0  0  0  0  0  0  0  0
   10.0950  -15.0865   22.4394 O   0  0  0  0  0  0  0  0  0  0  0  0
   10.0393  -12.9861   16.3130 C   0  0  0  0  0  0  0  0  0  0  0  0
    5.6791  -12.8951   26.7571 C   0  0  1  0  0  0  0  0  0  0  0  0
    7.0815  -13.0326   26.1731 C   0  0  0  0  0  0  0  0  0  0  0  0
    7.6977  -11.7009   26.0508 C   0  0  0  0  0  0  0  0  0  0  0  0
    7.1562  -13.9774   25.0540 C   0  0  2  0  0  0  0  0  0  0  0  0
    8.4457  -14.3979   24.4851 N   0  0  0  0  0  0  0  0  0  0  0  0
    8.0801  -15.4003   23.4454 C   0  0  0  0  0  0  0  0  0  0  0  0
    9.3653  -15.0984   25.3779 O   0  0  0  0  0  0  0  0  0  0  0  0
    9.8124  -14.4647   26.4017 N   0  0  0  0  0  0  0  0  0  0  0  0
    9.8329  -16.4288   25.2613 C   0  0  1  0  0  0  0  0  0  0  0  0
   10.8261  -16.9694   26.2613 C   0  0  0  0  0  0  0  0  0  0  0  0
    9.9759  -17.8919   27.0645 C   0  0  0  0  0  0  0  0  0  0  0  0
   10.4637  -18.8028   28.0748 C   0  0  0  0  0  0  0  0  0  0  0  0
    9.5328  -19.7118   28.7699 C   0  0  0  0  0  0  0  0  0  0  0  0
   10.3418  -20.5174   29.8272 N   0  0  0  0  0  0  0  0  0  0  0  0
    9.4634  -21.3951   30.5388 C   0  0  0  0  0  0  0  0  0  0  0  0
   11.9475  -17.5363   25.5329 O   0  0  0  0  0  0  0  0  0  0  0  0
   11.9126  -17.9764   24.3603 O   0  0  0  0  0  0  0  0  0  0  0  0
  2  3  2  0
  2  1  1  0
  4  2  1  0
  5  4  1  0
  6  5  1  0
  7  6  1  0
  8  7  1  0
  8  9  1  6
 10 17  1  0
 10  8  1  0
 11 10  2  0
 13 12  1  1
 14 13  1  0
 15 13  1  0
 16 15  1  6
 16 17  1  0
 18 19  2  0
 18 16  1  0
 20 18  1  0
 21 20  1  0
 21 27  1  0
 21 22  1  1
 23 22  1  0
 24 23  1  0
 25 26  1  0
 25 24  1  0
 27 29  1  0
 28 27  2  0
M  END
$$$$
