RLK.pdb
     RDKit          3D

 29 28  0  0  1  0  0  0  0  0999 V2000
    9.6999  -14.2961   16.0586 N   0  0  0  0  0  0  0  0  0  0  0  0
    8.7179  -13.5386   16.7146 C   0  0  0  0  0  0  0  0  0  0  0  0
    8.9233  -12.2657   16.9421 N   0  0  0  0  0  0  0  0  0  0  0  0
    7.5086  -14.1526   17.1288 N   0  0  0  0  0  0  0  0  0  0  0  0
    7.3918  -14.8870   18.3714 C   0  0  0  0  0  0  0  0  0  0  0  0
    8.5472  -15.8028   18.5923 C   0  0  0  0  0  0  0  0  0  0  0  0
    9.2571  -15.6853   19.8826 C   0  0  0  0  0  0  0  0  0  0  0  0
    8.5656  -16.2438   21.0896 C   0  0  2  0  0  0  0  0  0  0  0  0
    7.2207  -16.6528   20.8846 N   0  0  0  0  0  0  0  0  0  0  0  0
    8.7976  -15.4186   22.3023 C   0  0  0  0  0  0  0  0  0  0  0  0
    9.9502  -14.9114   22.5259 O   0  0  0  0  0  0  0  0  0  0  0  0
    8.1725  -11.6907   17.3777 C   0  0  0  0  0  0  0  0  0  0  0  0
    5.2879  -12.8053   26.6220 C   0  0  1  0  0  0  0  0  0  0  0  0
    6.7233  -12.9664   26.1319 C   0  0  0  0  0  0  0  0  0  0  0  0
    7.4099  -11.6647   26.1799 C   0  0  0  0  0  0  0  0  0  0  0  0
    6.8399  -13.8099   24.9381 C   0  0  2  0  0  0  0  0  0  0  0  0
    8.1448  -14.2878   24.4564 N   0  0  0  0  0  0  0  0  0  0  0  0
    7.8144  -15.1322   23.2743 C   0  0  0  0  0  0  0  0  0  0  0  0
    8.8979  -15.1656   25.3485 O   0  0  0  0  0  0  0  0  0  0  0  0
    8.9697  -14.8459   26.5903 N   0  0  0  0  0  0  0  0  0  0  0  0
    9.5703  -16.3642   25.0115 C   0  0  1  0  0  0  0  0  0  0  0  0
   10.1332  -17.2448   26.1007 C   0  0  0  0  0  0  0  0  0  0  0  0
    8.8998  -17.8747   26.6491 C   0  0  0  0  0  0  0  0  0  0  0  0
    8.8598  -18.7807   27.7742 C   0  0  0  0  0  0  0  0  0  0  0  0
    7.8475  -19.8522   27.8319 C   0  0  0  0  0  0  0  0  0  0  0  0
    7.9855  -20.5752   29.2029 N   0  0  0  0  0  0  0  0  0  0  0  0
    7.0550  -21.6604   29.2705 C   0  0  0  0  0  0  0  0  0  0  0  0
   11.1390  -18.1130   25.5140 O   0  0  0  0  0  0  0  0  0  0  0  0
   11.2010  -18.4537   24.3099 O   0  0  0  0  0  0  0  0  0  0  0  0
  2  3  2  0
  2  1  1  0
  4  2  1  0
  5  4  1  0
  6  5  1  0
  7  6  1  0
  8  7  1  0
  8  9  1  6
 10 17  1  0
 10  8  1  0
 11 10  2  0
 13 12  1  1
 14 13  1  0
 15 13  1  0
 16 15  1  6
 16 17  1  0
 18 19  2  0
 18 16  1  0
 20 18  1  0
 21 20  1  0
 21 27  1  0
 21 22  1  1
 23 22  1  0
 24 23  1  0
 25 26  1  0
 25 24  1  0
 27 29  1  0
 28 27  2  0
M  END
$$$$
