RLK.pdb
     RDKit          3D

 29 28  0  0  1  0  0  0  0  0999 V2000
    8.9213  -18.8358   13.1174 N   0  0  0  0  0  0  0  0  0  0  0  0
    8.2273  -17.6474   13.3904 C   0  0  0  0  0  0  0  0  0  0  0  0
    7.9906  -16.7964   12.4241 N   0  0  0  0  0  0  0  0  0  0  0  0
    7.7855  -17.3721   14.7095 N   0  0  0  0  0  0  0  0  0  0  0  0
    8.6958  -17.0259   15.7812 C   0  0  0  0  0  0  0  0  0  0  0  0
    9.7817  -18.0346   15.9424 C   0  0  0  0  0  0  0  0  0  0  0  0
   10.7509  -17.8059   17.0338 C   0  0  0  0  0  0  0  0  0  0  0  0
   10.2816  -18.0938   18.4280 C   0  0  2  0  0  0  0  0  0  0  0  0
    9.0672  -18.8249   18.5217 N   0  0  0  0  0  0  0  0  0  0  0  0
   10.3713  -16.9015   19.3087 C   0  0  0  0  0  0  0  0  0  0  0  0
   11.4559  -16.2267   19.3714 O   0  0  0  0  0  0  0  0  0  0  0  0
    7.4449  -15.9314   12.6192 C   0  0  0  0  0  0  0  0  0  0  0  0
    6.4350  -12.8160   20.6873 C   0  0  1  0  0  0  0  0  0  0  0  0
    7.8976  -13.2311   20.5648 C   0  0  0  0  0  0  0  0  0  0  0  0
    8.4359  -12.7661   19.2756 C   0  0  0  0  0  0  0  0  0  0  0  0
    8.1523  -14.6050   21.0096 C   0  0  2  0  0  0  0  0  0  0  0  0
    9.4962  -15.1991   20.9462 N   0  0  0  0  0  0  0  0  0  0  0  0
    9.3180  -16.4259   20.1198 C   0  0  0  0  0  0  0  0  0  0  0  0
   10.0704  -15.6713   22.2035 O   0  0  0  0  0  0  0  0  0  0  0  0
   10.3296  -14.8018   23.1125 N   0  0  0  0  0  0  0  0  0  0  0  0
   10.3777  -17.0050   22.5628 C   0  0  1  0  0  0  0  0  0  0  0  0
   10.9700  -17.3032   23.9188 C   0  0  0  0  0  0  0  0  0  0  0  0
   10.5101  -18.7011   24.1497 C   0  0  0  0  0  0  0  0  0  0  0  0
   10.9131  -19.5356   25.2586 C   0  0  0  0  0  0  0  0  0  0  0  0
   10.5469  -20.9642   25.2871 C   0  0  0  0  0  0  0  0  0  0  0  0
   11.2655  -21.6241   26.4994 N   0  0  0  0  0  0  0  0  0  0  0  0
   11.0734  -23.0417   26.4594 C   0  0  0  0  0  0  0  0  0  0  0  0
   12.4002  -17.0573   23.8584 O   0  0  0  0  0  0  0  0  0  0  0  0
   13.1148  -17.1369   22.8324 O   0  0  0  0  0  0  0  0  0  0  0  0
  2  3  2  0
  2  1  1  0
  4  2  1  0
  5  4  1  0
  6  5  1  0
  7  6  1  0
  8  7  1  0
  8  9  1  6
 10 17  1  0
 10  8  1  0
 11 10  2  0
 13 12  1  1
 14 13  1  0
 15 13  1  0
 16 15  1  6
 16 17  1  0
 18 19  2  0
 18 16  1  0
 20 18  1  0
 21 20  1  0
 21 27  1  0
 21 22  1  6
 23 22  1  0
 24 23  1  0
 25 26  1  0
 25 24  1  0
 27 29  1  0
 28 27  2  0
M  END
$$$$
