RLK.pdb
     RDKit          3D

 29 28  0  0  1  0  0  0  0  0999 V2000
    9.4261  -12.9348   16.8488 N   0  0  0  0  0  0  0  0  0  0  0  0
    8.4933  -12.5491   17.8232 C   0  0  0  0  0  0  0  0  0  0  0  0
    8.5224  -11.3321   18.3050 N   0  0  0  0  0  0  0  0  0  0  0  0
    7.5242  -13.4768   18.2828 N   0  0  0  0  0  0  0  0  0  0  0  0
    7.5269  -14.8694   17.8859 C   0  0  0  0  0  0  0  0  0  0  0  0
    7.4177  -15.7863   19.0563 C   0  0  0  0  0  0  0  0  0  0  0  0
    8.4442  -15.6512   20.1103 C   0  0  0  0  0  0  0  0  0  0  0  0
    8.2941  -16.5262   21.3182 C   0  0  2  0  0  0  0  0  0  0  0  0
    7.0951  -17.2861   21.3730 N   0  0  0  0  0  0  0  0  0  0  0  0
    8.6515  -15.8176   22.5734 C   0  0  0  0  0  0  0  0  0  0  0  0
    9.8472  -15.4052   22.7627 O   0  0  0  0  0  0  0  0  0  0  0  0
    7.8189  -11.0402   19.0149 C   0  0  0  0  0  0  0  0  0  0  0  0
    5.7609  -12.4721   26.7344 C   0  0  1  0  0  0  0  0  0  0  0  0
    7.0926  -13.1505   26.4295 C   0  0  0  0  0  0  0  0  0  0  0  0
    8.1836  -12.1681   26.5414 C   0  0  0  0  0  0  0  0  0  0  0  0
    7.0362  -14.0508   25.2733 C   0  0  2  0  0  0  0  0  0  0  0  0
    8.2058  -14.8357   24.8499 N   0  0  0  0  0  0  0  0  0  0  0  0
    7.7475  -15.5472   23.6238 C   0  0  0  0  0  0  0  0  0  0  0  0
    8.6556  -15.8918   25.7532 O   0  0  0  0  0  0  0  0  0  0  0  0
    7.9419  -16.1424   26.7911 N   0  0  0  0  0  0  0  0  0  0  0  0
    9.8060  -16.7051   25.6219 C   0  0  1  0  0  0  0  0  0  0  0  0
   10.1022  -17.7648   26.6554 C   0  0  0  0  0  0  0  0  0  0  0  0
   10.8552  -18.7687   25.8529 C   0  0  0  0  0  0  0  0  0  0  0  0
   11.4822  -19.9566   26.3860 C   0  0  0  0  0  0  0  0  0  0  0  0
   12.2587  -20.8485   25.5040 C   0  0  0  0  0  0  0  0  0  0  0  0
   12.7436  -22.0622   26.3486 N   0  0  0  0  0  0  0  0  0  0  0  0
   12.2516  -23.2764   25.7727 C   0  0  0  0  0  0  0  0  0  0  0  0
   10.7832  -17.1364   27.7738 O   0  0  0  0  0  0  0  0  0  0  0  0
   11.4334  -16.0664   27.7286 O   0  0  0  0  0  0  0  0  0  0  0  0
  2  3  2  0
  2  1  1  0
  4  2  1  0
  5  4  1  0
  6  5  1  0
  7  6  1  0
  8  7  1  0
  8  9  1  1
 10 17  1  0
 10  8  1  0
 11 10  2  0
 13 12  1  1
 14 13  1  0
 15 13  1  0
 16 15  1  6
 16 17  1  0
 18 19  2  0
 18 16  1  0
 20 18  1  0
 21 20  1  0
 21 27  1  0
 21 22  1  1
 23 22  1  0
 24 23  1  0
 25 26  1  0
 25 24  1  0
 27 29  1  0
 28 27  2  0
M  END
$$$$
