RLK.pdb
     RDKit          3D

 29 28  0  0  1  0  0  0  0  0999 V2000
    7.9583  -12.3347   16.0970 N   0  0  0  0  0  0  0  0  0  0  0  0
    7.5092  -13.6626   16.0385 C   0  0  0  0  0  0  0  0  0  0  0  0
    6.9217  -14.1027   14.9545 N   0  0  0  0  0  0  0  0  0  0  0  0
    7.6921  -14.5220   17.1516 N   0  0  0  0  0  0  0  0  0  0  0  0
    8.4272  -14.1227   18.3335 C   0  0  0  0  0  0  0  0  0  0  0  0
    8.3565  -15.1499   19.4116 C   0  0  0  0  0  0  0  0  0  0  0  0
    9.1463  -14.8931   20.6335 C   0  0  0  0  0  0  0  0  0  0  0  0
    9.0163  -15.8892   21.7461 C   0  0  2  0  0  0  0  0  0  0  0  0
    7.8632  -16.7170   21.6890 N   0  0  0  0  0  0  0  0  0  0  0  0
    9.2978  -15.2880   23.0745 C   0  0  0  0  0  0  0  0  0  0  0  0
   10.3821  -14.6391   23.2715 O   0  0  0  0  0  0  0  0  0  0  0  0
    6.6130  -15.0957   14.9006 C   0  0  0  0  0  0  0  0  0  0  0  0
    7.9172  -11.8059   25.6015 C   0  0  2  0  0  0  0  0  0  0  0  0
    6.9232  -12.9627   25.5907 C   0  0  0  0  0  0  0  0  0  0  0  0
    5.6432  -12.5186   26.1674 C   0  0  0  0  0  0  0  0  0  0  0  0
    7.5101  -14.2389   26.0119 C   0  0  2  0  0  0  0  0  0  0  0  0
    8.7952  -14.7109   25.4744 N   0  0  0  0  0  0  0  0  0  0  0  0
    8.4358  -15.3739   24.1896 C   0  0  0  0  0  0  0  0  0  0  0  0
    9.4977  -15.7347   26.2437 O   0  0  0  0  0  0  0  0  0  0  0  0
    9.7634  -15.4875   27.4757 N   0  0  0  0  0  0  0  0  0  0  0  0
    9.9271  -17.0061   25.7947 C   0  0  1  0  0  0  0  0  0  0  0  0
   10.7062  -17.9089   26.7201 C   0  0  0  0  0  0  0  0  0  0  0  0
    9.7812  -19.0677   26.8629 C   0  0  0  0  0  0  0  0  0  0  0  0
    9.6901  -19.9191   28.0271 C   0  0  0  0  0  0  0  0  0  0  0  0
    9.1256  -21.2773   27.9140 C   0  0  0  0  0  0  0  0  0  0  0  0
    9.2322  -21.9633   29.3067 N   0  0  0  0  0  0  0  0  0  0  0  0
    8.7099  -23.2935   29.2291 C   0  0  0  0  0  0  0  0  0  0  0  0
   12.0133  -18.1483   26.1336 O   0  0  0  0  0  0  0  0  0  0  0  0
   12.3128  -18.0011   24.9260 O   0  0  0  0  0  0  0  0  0  0  0  0
  2  3  2  0
  2  1  1  0
  4  2  1  0
  5  4  1  0
  6  5  1  0
  7  6  1  0
  8  7  1  0
  8  9  1  1
 10 17  1  0
 10  8  1  0
 11 10  2  0
 13 12  1  6
 14 13  1  0
 15 13  1  0
 16 15  1  6
 16 17  1  0
 18 19  2  0
 18 16  1  0
 20 18  1  0
 21 20  1  0
 21 27  1  0
 21 22  1  1
 23 22  1  0
 24 23  1  0
 25 26  1  0
 25 24  1  0
 27 29  1  0
 28 27  2  0
M  END
$$$$
