NKR.pdb
     RDKit          3D

 29 28  0  0  1  0  0  0  0  0999 V2000
   13.4445  -18.8593   17.7755 N   0  0  0  0  0  0  0  0  0  0  0  0
   12.0630  -18.5074   17.9241 C   0  0  0  0  0  0  0  0  0  0  0  0
   11.1954  -19.2553   17.3944 O   0  0  0  0  0  0  0  0  0  0  0  0
   11.6754  -17.3040   18.6760 C   0  0  0  0  0  0  0  0  0  0  0  0
   11.0044  -17.7176   19.9525 C   0  0  2  0  0  0  0  0  0  0  0  0
    9.7704  -18.4319   19.7190 N   0  0  0  0  0  0  0  0  0  0  0  0
   10.7360  -16.6063   20.8806 C   0  0  0  0  0  0  0  0  0  0  0  0
   11.6544  -15.7794   21.1997 O   0  0  0  0  0  0  0  0  0  0  0  0
    9.4743  -16.3721   21.4770 N   0  0  0  0  0  0  0  0  0  0  0  0
    9.1931  -15.1845   22.2946 C   0  0  1  0  0  0  0  0  0  0  0  0
    8.1282  -14.3598   21.6445 C   0  0  0  0  0  0  0  0  0  0  0  0
    8.5208  -13.6128   20.4099 C   0  0  0  0  0  0  0  0  0  0  0  0
    7.2184  -13.4364   19.6085 C   0  0  0  0  0  0  0  0  0  0  0  0
    7.4829  -12.7455   18.3037 C   0  0  0  0  0  0  0  0  0  0  0  0
    6.2360  -12.5565   17.5986 N   0  0  0  0  0  0  0  0  0  0  0  0
    8.7388  -15.7035   23.6035 C   0  0  0  0  0  0  0  0  0  0  0  0
    7.6096  -16.3050   23.7052 O   0  0  0  0  0  0  0  0  0  0  0  0
    9.4660  -20.0240   21.0124 N   0  0  0  0  0  0  0  0  0  0  0  0
    9.4554  -21.1101   21.9233 C   0  0  0  0  0  0  0  0  0  0  0  0
    8.8218  -22.1849   21.6255 N   0  0  0  0  0  0  0  0  0  0  0  0
   10.1425  -20.9981   23.1492 N   0  0  0  0  0  0  0  0  0  0  0  0
   10.8062  -19.7665   23.4771 C   0  0  0  0  0  0  0  0  0  0  0  0
    9.8657  -19.0301   24.4500 C   0  0  0  0  0  0  0  0  0  0  0  0
   10.5037  -17.7137   24.7157 C   0  0  0  0  0  0  0  0  0  0  0  0
    9.6963  -16.7904   25.6205 C   0  0  2  0  0  0  0  0  0  0  0  0
    9.4682  -15.6011   24.8165 N   0  0  0  0  0  0  0  0  0  0  0  0
   10.4777  -16.5166   26.8378 C   0  0  0  0  0  0  0  0  0  0  0  0
   11.3515  -15.6486   26.9505 O   0  0  0  0  0  0  0  0  0  0  0  0
   10.1952  -17.3192   27.9624 O   0  0  0  0  0  0  0  0  0  0  0  0
  1  2  1  0
  2  3  2  0
  4  5  1  0
  4  2  1  0
  5  6  1  6
  7  5  1  0
  7  8  2  0
  9  7  1  0
 10  9  1  0
 11 12  1  0
 10 11  1  6
 12 13  1  0
 13 14  1  0
 14 15  1  0
 16 17  2  0
 16 10  1  0
 18 19  1  0
 19 20  2  0
 21 19  1  0
 21 22  1  0
 22 23  1  0
 23 24  1  0
 25 24  1  6
 25 27  1  0
 25 26  1  0
 26 16  1  0
 27 29  1  0
 28 27  2  0
M  END
$$$$
