NKR.pdb
     RDKit          3D

 29 28  0  0  1  0  0  0  0  0999 V2000
    8.6349  -12.3115   17.2325 N   0  0  0  0  0  0  0  0  0  0  0  0
    7.8874  -13.5297   17.3404 C   0  0  0  0  0  0  0  0  0  0  0  0
    7.8605  -14.3046   16.3447 O   0  0  0  0  0  0  0  0  0  0  0  0
    7.1729  -13.8601   18.5830 C   0  0  0  0  0  0  0  0  0  0  0  0
    8.0679  -14.6863   19.4590 C   0  0  2  0  0  0  0  0  0  0  0  0
    8.7898  -15.6925   18.7147 N   0  0  0  0  0  0  0  0  0  0  0  0
    7.3763  -15.3391   20.5832 C   0  0  0  0  0  0  0  0  0  0  0  0
    6.9613  -14.6621   21.5825 O   0  0  0  0  0  0  0  0  0  0  0  0
    7.1234  -16.7300   20.6452 N   0  0  0  0  0  0  0  0  0  0  0  0
    6.4391  -17.3606   21.7818 C   0  0  1  0  0  0  0  0  0  0  0  0
    5.9832  -18.7337   21.4030 C   0  0  0  0  0  0  0  0  0  0  0  0
    5.3846  -19.5644   22.4929 C   0  0  0  0  0  0  0  0  0  0  0  0
    5.0905  -20.9314   21.8491 C   0  0  0  0  0  0  0  0  0  0  0  0
    4.3890  -21.8382   22.8163 C   0  0  0  0  0  0  0  0  0  0  0  0
    4.0504  -23.0770   22.1545 N   0  0  0  0  0  0  0  0  0  0  0  0
    7.4424  -17.4142   22.8678 C   0  0  0  0  0  0  0  0  0  0  0  0
    8.6434  -17.7940   22.6218 O   0  0  0  0  0  0  0  0  0  0  0  0
   11.6349  -15.5857   29.8493 N   0  0  0  0  0  0  0  0  0  0  0  0
   10.4699  -14.7806   29.7855 C   0  0  0  0  0  0  0  0  0  0  0  0
   10.5106  -13.5674   30.1998 N   0  0  0  0  0  0  0  0  0  0  0  0
    9.2762  -15.3222   29.2665 N   0  0  0  0  0  0  0  0  0  0  0  0
    8.7686  -14.8398   28.0116 C   0  0  0  0  0  0  0  0  0  0  0  0
    9.3883  -15.7477   26.9322 C   0  0  0  0  0  0  0  0  0  0  0  0
    8.3787  -15.8351   25.8444 C   0  0  0  0  0  0  0  0  0  0  0  0
    8.2542  -17.2134   25.2059 C   0  0  2  0  0  0  0  0  0  0  0  0
    7.1959  -17.0640   24.2208 N   0  0  0  0  0  0  0  0  0  0  0  0
    7.9258  -18.1940   26.2539 C   0  0  0  0  0  0  0  0  0  0  0  0
    8.7090  -18.6175   27.1122 O   0  0  0  0  0  0  0  0  0  0  0  0
    6.6030  -18.6825   26.2682 O   0  0  0  0  0  0  0  0  0  0  0  0
  1  2  1  0
  2  3  2  0
  4  5  1  0
  4  2  1  0
  5  6  1  6
  7  5  1  0
  7  8  2  0
  9  7  1  0
 10  9  1  0
 11 12  1  0
 10 11  1  6
 12 13  1  0
 13 14  1  0
 14 15  1  0
 16 17  2  0
 16 10  1  0
 18 19  1  0
 19 20  2  0
 21 19  1  0
 21 22  1  0
 22 23  1  0
 23 24  1  0
 25 24  1  1
 25 27  1  0
 25 26  1  0
 26 16  1  0
 27 29  1  0
 28 27  2  0
M  END
$$$$
