NKR.pdb
     RDKit          3D

 29 28  0  0  1  0  0  0  0  0999 V2000
    8.0776  -12.4243   15.4836 N   0  0  0  0  0  0  0  0  0  0  0  0
    7.8215  -13.8020   15.7846 C   0  0  0  0  0  0  0  0  0  0  0  0
    7.9982  -14.6559   14.8724 O   0  0  0  0  0  0  0  0  0  0  0  0
    7.3648  -14.2014   17.1247 C   0  0  0  0  0  0  0  0  0  0  0  0
    8.5523  -14.6044   17.9482 C   0  0  2  0  0  0  0  0  0  0  0  0
    9.4066  -15.5439   17.2589 N   0  0  0  0  0  0  0  0  0  0  0  0
    8.2104  -15.1607   19.2680 C   0  0  0  0  0  0  0  0  0  0  0  0
    7.5029  -14.4977   20.0981 O   0  0  0  0  0  0  0  0  0  0  0  0
    8.6270  -16.4386   19.7106 N   0  0  0  0  0  0  0  0  0  0  0  0
    8.2774  -16.9712   21.0342 C   0  0  1  0  0  0  0  0  0  0  0  0
    7.9591  -18.4287   20.9283 C   0  0  0  0  0  0  0  0  0  0  0  0
    7.7432  -19.1615   22.2139 C   0  0  0  0  0  0  0  0  0  0  0  0
    7.3817  -20.6013   21.8069 C   0  0  0  0  0  0  0  0  0  0  0  0
    7.2228  -21.4748   23.0158 C   0  0  0  0  0  0  0  0  0  0  0  0
    6.9520  -22.8307   22.5966 N   0  0  0  0  0  0  0  0  0  0  0  0
    9.4714  -16.7476   21.8788 C   0  0  0  0  0  0  0  0  0  0  0  0
   10.6470  -16.9478   21.4044 O   0  0  0  0  0  0  0  0  0  0  0  0
   11.2703  -17.0993   30.5120 N   0  0  0  0  0  0  0  0  0  0  0  0
   10.6273  -16.3774   29.4752 C   0  0  0  0  0  0  0  0  0  0  0  0
    9.3554  -16.4629   29.3336 N   0  0  0  0  0  0  0  0  0  0  0  0
   11.3934  -15.5713   28.6087 N   0  0  0  0  0  0  0  0  0  0  0  0
   10.7374  -14.8385   27.5610 C   0  0  0  0  0  0  0  0  0  0  0  0
   11.3873  -15.3134   26.2474 C   0  0  0  0  0  0  0  0  0  0  0  0
   10.2655  -15.5579   25.3029 C   0  0  0  0  0  0  0  0  0  0  0  0
   10.6912  -16.0861   23.9381 C   0  0  2  0  0  0  0  0  0  0  0  0
    9.4426  -16.3064   23.2273 N   0  0  0  0  0  0  0  0  0  0  0  0
   11.4666  -17.3230   24.1287 C   0  0  0  0  0  0  0  0  0  0  0  0
   10.9916  -18.4605   24.2283 O   0  0  0  0  0  0  0  0  0  0  0  0
   12.8681  -17.1838   24.2018 O   0  0  0  0  0  0  0  0  0  0  0  0
  1  2  1  0
  2  3  2  0
  4  5  1  0
  4  2  1  0
  5  6  1  6
  7  5  1  0
  7  8  2  0
  9  7  1  0
 10  9  1  0
 11 12  1  0
 10 11  1  6
 12 13  1  0
 13 14  1  0
 14 15  1  0
 16 17  2  0
 16 10  1  0
 18 19  1  0
 19 20  2  0
 21 19  1  0
 21 22  1  0
 22 23  1  0
 23 24  1  0
 25 24  1  1
 25 27  1  0
 25 26  1  0
 26 16  1  0
 27 29  1  0
 28 27  2  0
M  END
$$$$
