NKR.pdb
     RDKit          3D

 29 28  0  0  1  0  0  0  0  0999 V2000
   17.3178  -13.4741   17.8651 N   0  0  0  0  0  0  0  0  0  0  0  0
   16.2457  -14.2115   17.2639 C   0  0  0  0  0  0  0  0  0  0  0  0
   16.5150  -14.9764   16.2971 O   0  0  0  0  0  0  0  0  0  0  0  0
   14.8703  -14.0740   17.7672 C   0  0  0  0  0  0  0  0  0  0  0  0
   14.5414  -15.2589   18.6267 C   0  0  2  0  0  0  0  0  0  0  0  0
   14.2974  -16.4519   17.8491 N   0  0  0  0  0  0  0  0  0  0  0  0
   13.4012  -15.0479   19.5343 C   0  0  0  0  0  0  0  0  0  0  0  0
   13.5069  -14.2944   20.5591 O   0  0  0  0  0  0  0  0  0  0  0  0
   12.1324  -15.6465   19.3494 N   0  0  0  0  0  0  0  0  0  0  0  0
   10.9779  -15.3352   20.2026 C   0  0  1  0  0  0  0  0  0  0  0  0
    9.7195  -15.8105   19.5490 C   0  0  0  0  0  0  0  0  0  0  0  0
    8.4842  -15.0107   19.8150 C   0  0  0  0  0  0  0  0  0  0  0  0
    8.6141  -13.7547   18.9347 C   0  0  0  0  0  0  0  0  0  0  0  0
    7.3567  -12.9381   18.9791 C   0  0  0  0  0  0  0  0  0  0  0  0
    7.5124  -11.7702   18.1428 N   0  0  0  0  0  0  0  0  0  0  0  0
   11.2204  -16.0522   21.4739 C   0  0  0  0  0  0  0  0  0  0  0  0
   11.8344  -17.1792   21.4748 O   0  0  0  0  0  0  0  0  0  0  0  0
   10.7111  -15.8041   30.2784 N   0  0  0  0  0  0  0  0  0  0  0  0
   10.3619  -14.7433   29.4053 C   0  0  0  0  0  0  0  0  0  0  0  0
    9.9492  -13.6296   29.8894 N   0  0  0  0  0  0  0  0  0  0  0  0
   10.4722  -14.9233   28.0114 N   0  0  0  0  0  0  0  0  0  0  0  0
    9.3681  -15.4833   27.2819 C   0  0  0  0  0  0  0  0  0  0  0  0
    9.9884  -16.4744   26.2787 C   0  0  0  0  0  0  0  0  0  0  0  0
   10.1912  -15.7079   25.0210 C   0  0  0  0  0  0  0  0  0  0  0  0
   10.7718  -16.5218   23.8706 C   0  0  2  0  0  0  0  0  0  0  0  0
   10.8258  -15.5901   22.7563 N   0  0  0  0  0  0  0  0  0  0  0  0
    9.8908  -17.6727   23.6115 C   0  0  0  0  0  0  0  0  0  0  0  0
    8.8341  -17.6383   22.9700 O   0  0  0  0  0  0  0  0  0  0  0  0
   10.2992  -18.9123   24.1458 O   0  0  0  0  0  0  0  0  0  0  0  0
  1  2  1  0
  2  3  2  0
  4  5  1  0
  4  2  1  0
  5  6  1  6
  7  5  1  0
  7  8  2  0
  9  7  1  0
 10  9  1  0
 11 12  1  0
 10 11  1  6
 12 13  1  0
 13 14  1  0
 14 15  1  0
 16 17  2  0
 16 10  1  0
 18 19  1  0
 19 20  2  0
 21 19  1  0
 21 22  1  0
 22 23  1  0
 23 24  1  0
 25 24  1  1
 25 27  1  0
 25 26  1  0
 26 16  1  0
 27 29  1  0
 28 27  2  0
M  END
$$$$
