NKR.pdb
     RDKit          3D

 29 28  0  0  1  0  0  0  0  0999 V2000
    9.3944  -16.3527   15.0346 N   0  0  0  0  0  0  0  0  0  0  0  0
    9.7064  -16.6005   16.4114 C   0  0  0  0  0  0  0  0  0  0  0  0
   10.8315  -17.1002   16.6887 O   0  0  0  0  0  0  0  0  0  0  0  0
    8.7345  -16.2777   17.4674 C   0  0  0  0  0  0  0  0  0  0  0  0
    8.4643  -17.5101   18.2792 C   0  0  2  0  0  0  0  0  0  0  0  0
    7.8968  -18.5771   17.4874 N   0  0  0  0  0  0  0  0  0  0  0  0
    7.6012  -17.2837   19.4506 C   0  0  0  0  0  0  0  0  0  0  0  0
    7.8899  -16.3930   20.3180 O   0  0  0  0  0  0  0  0  0  0  0  0
    6.4159  -18.0145   19.7024 N   0  0  0  0  0  0  0  0  0  0  0  0
    5.6091  -17.8216   20.9147 C   0  0  1  0  0  0  0  0  0  0  0  0
    4.4383  -18.7521   20.8999 C   0  0  0  0  0  0  0  0  0  0  0  0
    3.6401  -18.8432   22.1612 C   0  0  0  0  0  0  0  0  0  0  0  0
    2.4897  -19.8163   21.8465 C   0  0  0  0  0  0  0  0  0  0  0  0
    1.5395  -19.9130   23.0031 C   0  0  0  0  0  0  0  0  0  0  0  0
    0.5486  -20.9276   22.7274 N   0  0  0  0  0  0  0  0  0  0  0  0
    6.5144  -18.1240   22.0451 C   0  0  0  0  0  0  0  0  0  0  0  0
    7.3000  -19.1375   21.9924 O   0  0  0  0  0  0  0  0  0  0  0  0
    8.9442  -13.4240   28.9836 N   0  0  0  0  0  0  0  0  0  0  0  0
    9.6904  -14.6208   29.1257 C   0  0  0  0  0  0  0  0  0  0  0  0
   10.5271  -14.7389   30.0907 N   0  0  0  0  0  0  0  0  0  0  0  0
    9.5051  -15.6711   28.2036 N   0  0  0  0  0  0  0  0  0  0  0  0
    8.7313  -15.4394   27.0152 C   0  0  0  0  0  0  0  0  0  0  0  0
    8.7079  -16.7831   26.2620 C   0  0  0  0  0  0  0  0  0  0  0  0
    7.8823  -16.5550   25.0469 C   0  0  0  0  0  0  0  0  0  0  0  0
    7.4559  -17.8270   24.3236 C   0  0  2  0  0  0  0  0  0  0  0  0
    6.6076  -17.3620   23.2387 N   0  0  0  0  0  0  0  0  0  0  0  0
    6.7436  -18.6972   25.2739 C   0  0  0  0  0  0  0  0  0  0  0  0
    5.5188  -18.7246   25.4435 O   0  0  0  0  0  0  0  0  0  0  0  0
    7.5374  -19.5676   26.0490 O   0  0  0  0  0  0  0  0  0  0  0  0
  1  2  1  0
  2  3  2  0
  4  5  1  0
  4  2  1  0
  5  6  1  6
  7  5  1  0
  7  8  2  0
  9  7  1  0
 10  9  1  0
 11 12  1  0
 10 11  1  6
 12 13  1  0
 13 14  1  0
 14 15  1  0
 16 17  2  0
 16 10  1  0
 18 19  1  0
 19 20  2  0
 21 19  1  0
 21 22  1  0
 22 23  1  0
 23 24  1  0
 25 24  1  1
 25 27  1  0
 25 26  1  0
 26 16  1  0
 27 29  1  0
 28 27  2  0
M  END
$$$$
