NKR.pdb
     RDKit          3D

 29 28  0  0  1  0  0  0  0  0999 V2000
    9.7745  -18.5111   14.1737 N   0  0  0  0  0  0  0  0  0  0  0  0
    9.1461  -17.2290   14.0482 C   0  0  0  0  0  0  0  0  0  0  0  0
    8.9608  -16.7650   12.8893 O   0  0  0  0  0  0  0  0  0  0  0  0
    8.7311  -16.4803   15.2444 C   0  0  0  0  0  0  0  0  0  0  0  0
    9.1289  -17.2512   16.4685 C   0  0  2  0  0  0  0  0  0  0  0  0
    8.1947  -18.3081   16.7809 N   0  0  0  0  0  0  0  0  0  0  0  0
    9.3179  -16.4205   17.6696 C   0  0  0  0  0  0  0  0  0  0  0  0
   10.3242  -15.6432   17.7802 O   0  0  0  0  0  0  0  0  0  0  0  0
    8.4249  -16.4172   18.7673 N   0  0  0  0  0  0  0  0  0  0  0  0
    8.6575  -15.6140   19.9751 C   0  0  1  0  0  0  0  0  0  0  0  0
    7.3537  -15.3044   20.6391 C   0  0  0  0  0  0  0  0  0  0  0  0
    7.0922  -13.8681   20.9628 C   0  0  0  0  0  0  0  0  0  0  0  0
    7.6024  -13.6750   22.4022 C   0  0  0  0  0  0  0  0  0  0  0  0
    7.3403  -12.2774   22.8795 C   0  0  0  0  0  0  0  0  0  0  0  0
    7.8179  -12.1353   24.2357 N   0  0  0  0  0  0  0  0  0  0  0  0
    9.5133  -16.4486   20.8468 C   0  0  0  0  0  0  0  0  0  0  0  0
    9.2315  -17.6861   21.0378 O   0  0  0  0  0  0  0  0  0  0  0  0
   17.9011  -15.6064   22.9973 N   0  0  0  0  0  0  0  0  0  0  0  0
   17.5196  -16.8102   23.6414 C   0  0  0  0  0  0  0  0  0  0  0  0
   18.4067  -17.5283   24.2266 N   0  0  0  0  0  0  0  0  0  0  0  0
   16.1667  -17.2066   23.6324 N   0  0  0  0  0  0  0  0  0  0  0  0
   15.2037  -16.4161   22.9163 C   0  0  0  0  0  0  0  0  0  0  0  0
   13.8507  -17.1269   23.1106 C   0  0  0  0  0  0  0  0  0  0  0  0
   12.8694  -16.3658   22.2932 C   0  0  0  0  0  0  0  0  0  0  0  0
   11.4518  -16.9246   22.3239 C   0  0  2  0  0  0  0  0  0  0  0  0
   10.6760  -15.9936   21.5214 N   0  0  0  0  0  0  0  0  0  0  0  0
   10.9977  -16.9900   23.7229 C   0  0  0  0  0  0  0  0  0  0  0  0
   11.3950  -17.7988   24.5700 O   0  0  0  0  0  0  0  0  0  0  0  0
   10.0280  -16.0446   24.1160 O   0  0  0  0  0  0  0  0  0  0  0  0
  1  2  1  0
  2  3  2  0
  4  5  1  0
  4  2  1  0
  5  6  1  1
  7  5  1  0
  7  8  2  0
  9  7  1  0
 10  9  1  0
 11 12  1  0
 10 11  1  1
 12 13  1  0
 13 14  1  0
 14 15  1  0
 16 17  2  0
 16 10  1  0
 18 19  1  0
 19 20  2  0
 21 19  1  0
 21 22  1  0
 22 23  1  0
 23 24  1  0
 25 24  1  1
 25 27  1  0
 25 26  1  0
 26 16  1  0
 27 29  1  0
 28 27  2  0
M  END
$$$$
