NKR.pdb
     RDKit          3D

 29 28  0  0  1  0  0  0  0  0999 V2000
    9.1197  -13.5684   14.6522 N   0  0  0  0  0  0  0  0  0  0  0  0
    7.7323  -13.6200   15.0082 C   0  0  0  0  0  0  0  0  0  0  0  0
    6.8853  -13.1941   14.1753 O   0  0  0  0  0  0  0  0  0  0  0  0
    7.3153  -14.1568   16.3127 C   0  0  0  0  0  0  0  0  0  0  0  0
    8.5342  -14.5521   17.0931 C   0  0  2  0  0  0  0  0  0  0  0  0
    9.4792  -15.3000   16.2962 N   0  0  0  0  0  0  0  0  0  0  0  0
    8.2447  -15.3155   18.3185 C   0  0  0  0  0  0  0  0  0  0  0  0
    7.4197  -14.8761   19.1877 O   0  0  0  0  0  0  0  0  0  0  0  0
    8.8407  -16.5622   18.6233 N   0  0  0  0  0  0  0  0  0  0  0  0
    8.4697  -17.3493   19.8067 C   0  0  1  0  0  0  0  0  0  0  0  0
    8.9613  -18.7539   19.6582 C   0  0  0  0  0  0  0  0  0  0  0  0
    8.6832  -19.6839   20.7957 C   0  0  0  0  0  0  0  0  0  0  0  0
    9.3008  -21.0315   20.3810 C   0  0  0  0  0  0  0  0  0  0  0  0
    9.0752  -22.0711   21.4385 C   0  0  0  0  0  0  0  0  0  0  0  0
    9.6056  -23.3375   20.9884 N   0  0  0  0  0  0  0  0  0  0  0  0
    9.1224  -16.6756   20.9508 C   0  0  0  0  0  0  0  0  0  0  0  0
   10.2883  -16.1559   20.8172 O   0  0  0  0  0  0  0  0  0  0  0  0
    6.5939  -11.6852   27.5228 N   0  0  0  0  0  0  0  0  0  0  0  0
    6.7397  -11.5868   26.1162 C   0  0  0  0  0  0  0  0  0  0  0  0
    6.5266  -10.4657   25.5307 N   0  0  0  0  0  0  0  0  0  0  0  0
    7.1182  -12.7239   25.3737 N   0  0  0  0  0  0  0  0  0  0  0  0
    7.5325  -13.9135   26.0653 C   0  0  0  0  0  0  0  0  0  0  0  0
    8.7713  -14.4283   25.3080 C   0  0  0  0  0  0  0  0  0  0  0  0
    8.2523  -15.1077   24.0917 C   0  0  0  0  0  0  0  0  0  0  0  0
    9.3065  -15.8615   23.2895 C   0  0  2  0  0  0  0  0  0  0  0  0
    8.5550  -16.5360   22.2441 N   0  0  0  0  0  0  0  0  0  0  0  0
   10.0057  -16.7971   24.1858 C   0  0  0  0  0  0  0  0  0  0  0  0
    9.7205  -17.9903   24.3427 O   0  0  0  0  0  0  0  0  0  0  0  0
   11.0901  -16.2751   24.9208 O   0  0  0  0  0  0  0  0  0  0  0  0
  1  2  1  0
  2  3  2  0
  4  5  1  0
  4  2  1  0
  5  6  1  6
  7  5  1  0
  7  8  2  0
  9  7  1  0
 10  9  1  0
 11 12  1  0
 10 11  1  6
 12 13  1  0
 13 14  1  0
 14 15  1  0
 16 17  2  0
 16 10  1  0
 18 19  1  0
 19 20  2  0
 21 19  1  0
 21 22  1  0
 22 23  1  0
 23 24  1  0
 25 24  1  1
 25 27  1  0
 25 26  1  0
 26 16  1  0
 27 29  1  0
 28 27  2  0
M  END
$$$$
