NKR.pdb
     RDKit          3D

 29 28  0  0  1  0  0  0  0  0999 V2000
    8.7971  -19.5337   16.3047 N   0  0  0  0  0  0  0  0  0  0  0  0
    7.4924  -18.9646   16.4729 C   0  0  0  0  0  0  0  0  0  0  0  0
    6.8678  -18.5870   15.4435 O   0  0  0  0  0  0  0  0  0  0  0  0
    6.9045  -18.8280   17.8144 C   0  0  0  0  0  0  0  0  0  0  0  0
    7.9351  -19.1934   18.8416 C   0  0  2  0  0  0  0  0  0  0  0  0
    8.4687  -20.5206   18.6378 N   0  0  0  0  0  0  0  0  0  0  0  0
    7.4654  -19.0841   20.2329 C   0  0  0  0  0  0  0  0  0  0  0  0
    6.5792  -18.2266   20.5625 O   0  0  0  0  0  0  0  0  0  0  0  0
    7.9450  -19.8971   21.2871 N   0  0  0  0  0  0  0  0  0  0  0  0
    7.4072  -19.8230   22.6520 C   0  0  1  0  0  0  0  0  0  0  0  0
    7.9019  -20.9821   23.4574 C   0  0  0  0  0  0  0  0  0  0  0  0
    7.0326  -22.1986   23.4832 C   0  0  0  0  0  0  0  0  0  0  0  0
    7.8518  -23.2695   24.2258 C   0  0  0  0  0  0  0  0  0  0  0  0
    7.1501  -24.5950   24.1968 C   0  0  0  0  0  0  0  0  0  0  0  0
    7.9680  -25.5862   24.8570 N   0  0  0  0  0  0  0  0  0  0  0  0
    7.9020  -18.5424   23.2035 C   0  0  0  0  0  0  0  0  0  0  0  0
    9.1583  -18.2798   23.2040 O   0  0  0  0  0  0  0  0  0  0  0  0
    7.5313  -12.5673   19.0289 N   0  0  0  0  0  0  0  0  0  0  0  0
    8.6626  -12.4441   19.8742 C   0  0  0  0  0  0  0  0  0  0  0  0
    9.8220  -12.2481   19.3620 N   0  0  0  0  0  0  0  0  0  0  0  0
    8.5017  -12.5382   21.2716 N   0  0  0  0  0  0  0  0  0  0  0  0
    7.3410  -13.1953   21.8065 C   0  0  0  0  0  0  0  0  0  0  0  0
    7.8234  -13.9370   23.0676 C   0  0  0  0  0  0  0  0  0  0  0  0
    7.2480  -15.3052   22.9809 C   0  0  0  0  0  0  0  0  0  0  0  0
    7.6694  -16.2414   24.1074 C   0  0  2  0  0  0  0  0  0  0  0  0
    7.0823  -17.5232   23.7542 N   0  0  0  0  0  0  0  0  0  0  0  0
    7.1586  -15.7101   25.3820 C   0  0  0  0  0  0  0  0  0  0  0  0
    7.6129  -14.7309   25.9856 O   0  0  0  0  0  0  0  0  0  0  0  0
    6.0583  -16.3844   25.9506 O   0  0  0  0  0  0  0  0  0  0  0  0
  1  2  1  0
  2  3  2  0
  4  5  1  0
  4  2  1  0
  5  6  1  6
  7  5  1  0
  7  8  2  0
  9  7  1  0
 10  9  1  0
 11 12  1  0
 10 11  1  1
 12 13  1  0
 13 14  1  0
 14 15  1  0
 16 17  2  0
 16 10  1  0
 18 19  1  0
 19 20  2  0
 21 19  1  0
 21 22  1  0
 22 23  1  0
 23 24  1  0
 25 24  1  6
 25 27  1  0
 25 26  1  0
 26 16  1  0
 27 29  1  0
 28 27  2  0
M  END
$$$$
