QEY.pdb
     RDKit          3D

 31 31  0  0  1  0  0  0  0  0999 V2000
    6.9133  -12.9868   17.9053 N   0  0  0  0  0  0  0  0  0  0  0  0
    8.1128  -13.5909   17.5007 C   0  0  0  0  0  0  0  0  0  0  0  0
    8.2334  -13.9564   16.3110 O   0  0  0  0  0  0  0  0  0  0  0  0
    9.1901  -13.7805   18.4588 C   0  0  0  0  0  0  0  0  0  0  0  0
    8.9473  -13.3204   19.8569 C   0  0  0  0  0  0  0  0  0  0  0  0
   10.0692  -13.5152   20.8115 C   0  0  2  0  0  0  0  0  0  0  0  0
   11.3859  -13.3460   20.3091 N   0  0  0  0  0  0  0  0  0  0  0  0
    9.8797  -14.8181   21.5162 C   0  0  0  0  0  0  0  0  0  0  0  0
    8.6893  -15.1855   21.6949 O   0  0  0  0  0  0  0  0  0  0  0  0
   10.9176  -15.6419   21.9810 N   0  0  0  0  0  0  0  0  0  0  0  0
   10.6735  -16.9049   22.7137 C   0  0  1  0  0  0  0  0  0  0  0  0
   11.4169  -18.0227   22.0758 C   0  0  0  0  0  0  0  0  0  0  0  0
   11.4355  -17.8874   20.5807 C   0  0  0  0  0  0  0  0  0  0  0  0
   12.6870  -18.5177   20.0736 C   0  0  0  0  0  0  0  0  0  0  0  0
   13.4514  -17.9998   19.2290 O   0  0  0  0  0  0  0  0  0  0  0  0
   11.1075  -16.6622   24.1142 C   0  0  0  0  0  0  0  0  0  0  0  0
   12.0579  -17.2841   24.6431 O   0  0  0  0  0  0  0  0  0  0  0  0
   13.0384  -19.7803   20.5750 O   0  0  0  0  0  0  0  0  0  0  0  0
    5.8868  -10.8409   26.3587 O   0  0  0  0  0  0  0  0  0  0  0  0
    6.4897  -12.0858   26.2882 C   0  0  0  0  0  0  0  0  0  0  0  0
    7.4240  -12.5409   27.1676 C   0  0  0  0  0  0  0  0  0  0  0  0
    8.0256  -13.7765   27.1019 C   0  0  0  0  0  0  0  0  0  0  0  0
    7.6703  -14.6427   26.0705 C   0  0  0  0  0  0  0  0  0  0  0  0
    8.2353  -15.9861   25.8832 C   0  0  0  0  0  0  0  0  0  0  0  0
    9.7008  -16.1142   26.1128 C   0  0  2  0  0  0  0  0  0  0  0  0
   10.4731  -15.7034   24.9521 N   0  0  0  0  0  0  0  0  0  0  0  0
   10.0286  -17.4955   26.5244 C   0  0  0  0  0  0  0  0  0  0  0  0
    9.7574  -18.5962   25.7090 O   0  0  0  0  0  0  0  0  0  0  0  0
    6.7082  -14.1894   25.1547 C   0  0  0  0  0  0  0  0  0  0  0  0
    6.1262  -12.9450   25.2510 C   0  0  0  0  0  0  0  0  0  0  0  0
   10.5650  -17.7553   27.6219 O   0  0  0  0  0  0  0  0  0  0  0  0
  2  1  1  0
  3  2  2  0
  4  2  1  0
  5  4  1  0
  6  7  1  6
  6  5  1  0
  8  6  1  0
  9  8  2  0
 10  8  1  0
 11 10  1  0
 11 12  1  6
 13 12  1  0
 14 13  1  0
 14 15  2  0
 16 26  1  0
 16 11  1  0
 17 16  2  0
 18 14  1  0
 20 21  2  0
 20 19  1  0
 22 21  1  0
 23 22  2  0
 24 23  1  0
 25 24  1  6
 25 26  1  0
 27 28  1  0
 27 25  1  0
 29 23  1  0
 29 30  2  0
 30 20  1  0
 31 27  2  0
M  END
$$$$
