QEY.pdb
     RDKit          3D

 31 31  0  0  1  0  0  0  0  0999 V2000
    9.7277  -12.6292   18.8240 N   0  0  0  0  0  0  0  0  0  0  0  0
    8.5516  -12.2151   19.4664 C   0  0  0  0  0  0  0  0  0  0  0  0
    8.2581  -10.9996   19.4635 O   0  0  0  0  0  0  0  0  0  0  0  0
    7.6967  -13.1939   20.1185 C   0  0  0  0  0  0  0  0  0  0  0  0
    8.2079  -14.5923   20.2090 C   0  0  0  0  0  0  0  0  0  0  0  0
    7.2838  -15.5866   20.8136 C   0  0  2  0  0  0  0  0  0  0  0  0
    5.9643  -15.1527   21.1056 N   0  0  0  0  0  0  0  0  0  0  0  0
    7.9594  -16.2201   21.9851 C   0  0  0  0  0  0  0  0  0  0  0  0
    7.2213  -16.5112   22.9620 O   0  0  0  0  0  0  0  0  0  0  0  0
    9.3316  -16.5069   22.0665 N   0  0  0  0  0  0  0  0  0  0  0  0
    9.8932  -17.4770   23.0335 C   0  0  1  0  0  0  0  0  0  0  0  0
   11.1550  -18.0588   22.5060 C   0  0  0  0  0  0  0  0  0  0  0  0
   11.6816  -19.1374   23.4078 C   0  0  0  0  0  0  0  0  0  0  0  0
   12.9535  -19.6499   22.8242 C   0  0  0  0  0  0  0  0  0  0  0  0
   14.0426  -19.7107   23.4374 O   0  0  0  0  0  0  0  0  0  0  0  0
   10.1011  -16.7272   24.2997 C   0  0  0  0  0  0  0  0  0  0  0  0
   10.7983  -15.6881   24.3614 O   0  0  0  0  0  0  0  0  0  0  0  0
   12.9345  -20.0973   21.4944 O   0  0  0  0  0  0  0  0  0  0  0  0
    5.5884  -11.7326   24.9259 O   0  0  0  0  0  0  0  0  0  0  0  0
    6.3139  -12.7323   25.5523 C   0  0  0  0  0  0  0  0  0  0  0  0
    7.3460  -12.5124   26.4125 C   0  0  0  0  0  0  0  0  0  0  0  0
    8.0697  -13.5018   27.0373 C   0  0  0  0  0  0  0  0  0  0  0  0
    7.7424  -14.8326   26.7881 C   0  0  0  0  0  0  0  0  0  0  0  0
    8.4333  -15.9832   27.3862 C   0  0  0  0  0  0  0  0  0  0  0  0
    9.7220  -16.3720   26.7499 C   0  0  2  0  0  0  0  0  0  0  0  0
    9.5198  -17.1380   25.5315 N   0  0  0  0  0  0  0  0  0  0  0  0
   10.5638  -17.1034   27.7201 C   0  0  0  0  0  0  0  0  0  0  0  0
   11.0982  -18.3621   27.4370 O   0  0  0  0  0  0  0  0  0  0  0  0
    6.6806  -15.0775   25.9035 C   0  0  0  0  0  0  0  0  0  0  0  0
    5.9774  -14.0615   25.2953 C   0  0  0  0  0  0  0  0  0  0  0  0
   10.8436  -16.6382   28.8449 O   0  0  0  0  0  0  0  0  0  0  0  0
  2  1  1  0
  3  2  2  0
  4  2  1  0
  5  4  1  0
  6  7  1  1
  6  5  1  0
  8  6  1  0
  9  8  2  0
 10  8  1  0
 11 10  1  0
 11 12  1  6
 13 12  1  0
 14 13  1  0
 14 15  2  0
 16 26  1  0
 16 11  1  0
 17 16  2  0
 18 14  1  0
 20 21  2  0
 20 19  1  0
 22 21  1  0
 23 22  2  0
 24 23  1  0
 25 24  1  1
 25 26  1  0
 27 28  1  0
 27 25  1  0
 29 23  1  0
 29 30  2  0
 30 20  1  0
 31 27  2  0
M  END
$$$$
