QEY.pdb
     RDKit          3D

 31 31  0  0  1  0  0  0  0  0999 V2000
   15.4463  -15.4905   19.5766 N   0  0  0  0  0  0  0  0  0  0  0  0
   15.6095  -14.4652   18.6334 C   0  0  0  0  0  0  0  0  0  0  0  0
   16.7276  -14.3126   18.0949 O   0  0  0  0  0  0  0  0  0  0  0  0
   14.4880  -13.6034   18.2956 C   0  0  0  0  0  0  0  0  0  0  0  0
   13.1869  -13.8831   18.9695 C   0  0  0  0  0  0  0  0  0  0  0  0
   12.4411  -15.0714   18.4797 C   0  0  2  0  0  0  0  0  0  0  0  0
   11.7872  -14.9557   17.2253 N   0  0  0  0  0  0  0  0  0  0  0  0
   11.5343  -15.5504   19.5652 C   0  0  0  0  0  0  0  0  0  0  0  0
   10.6396  -14.7472   19.9372 O   0  0  0  0  0  0  0  0  0  0  0  0
   11.6112  -16.8089   20.1833 N   0  0  0  0  0  0  0  0  0  0  0  0
   10.6636  -17.2475   21.2328 C   0  0  1  0  0  0  0  0  0  0  0  0
   10.3767  -18.6992   21.0941 C   0  0  0  0  0  0  0  0  0  0  0  0
    9.5758  -19.2141   22.2549 C   0  0  0  0  0  0  0  0  0  0  0  0
    9.3977  -20.6833   22.0800 C   0  0  0  0  0  0  0  0  0  0  0  0
   10.0956  -21.3988   21.3271 O   0  0  0  0  0  0  0  0  0  0  0  0
   11.3036  -16.9182   22.5330 C   0  0  0  0  0  0  0  0  0  0  0  0
   12.2671  -17.5722   22.9952 O   0  0  0  0  0  0  0  0  0  0  0  0
    8.3779  -21.3142   22.8086 O   0  0  0  0  0  0  0  0  0  0  0  0
   10.5322  -15.4607   31.1948 O   0  0  0  0  0  0  0  0  0  0  0  0
   10.3606  -15.4884   29.8209 C   0  0  0  0  0  0  0  0  0  0  0  0
    9.7537  -16.4990   29.1398 C   0  0  0  0  0  0  0  0  0  0  0  0
    9.5808  -16.5312   27.7753 C   0  0  0  0  0  0  0  0  0  0  0  0
   10.0519  -15.4647   27.0131 C   0  0  0  0  0  0  0  0  0  0  0  0
    9.9344  -15.3734   25.5513 C   0  0  0  0  0  0  0  0  0  0  0  0
   11.1255  -15.8126   24.7734 C   0  0  2  0  0  0  0  0  0  0  0  0
   10.8659  -15.8341   23.3436 N   0  0  0  0  0  0  0  0  0  0  0  0
   11.5913  -17.1274   25.2625 C   0  0  0  0  0  0  0  0  0  0  0  0
   12.7839  -17.2737   25.9740 O   0  0  0  0  0  0  0  0  0  0  0  0
   10.6803  -14.4139   27.6993 C   0  0  0  0  0  0  0  0  0  0  0  0
   10.8364  -14.4149   29.0676 C   0  0  0  0  0  0  0  0  0  0  0  0
   10.9463  -18.1789   25.0672 O   0  0  0  0  0  0  0  0  0  0  0  0
  2  1  1  0
  3  2  2  0
  4  2  1  0
  5  4  1  0
  6  7  1  6
  6  5  1  0
  8  6  1  0
  9  8  2  0
 10  8  1  0
 11 10  1  0
 11 12  1  1
 13 12  1  0
 14 13  1  0
 14 15  2  0
 16 26  1  0
 16 11  1  0
 17 16  2  0
 18 14  1  0
 20 21  2  0
 20 19  1  0
 22 21  1  0
 23 22  2  0
 24 23  1  0
 25 24  1  1
 25 26  1  0
 27 28  1  0
 27 25  1  0
 29 23  1  0
 29 30  2  0
 30 20  1  0
 31 27  2  0
M  END
$$$$
