QEY.pdb
     RDKit          3D

 31 31  0  0  1  0  0  0  0  0999 V2000
   12.8481  -14.5981   20.2727 N   0  0  0  0  0  0  0  0  0  0  0  0
   12.8000  -14.2926   18.9046 C   0  0  0  0  0  0  0  0  0  0  0  0
   13.8457  -14.3933   18.2264 O   0  0  0  0  0  0  0  0  0  0  0  0
   11.5479  -13.8696   18.2982 C   0  0  0  0  0  0  0  0  0  0  0  0
   10.3630  -13.7479   19.1962 C   0  0  0  0  0  0  0  0  0  0  0  0
    9.1807  -14.5705   18.8305 C   0  0  2  0  0  0  0  0  0  0  0  0
    8.2838  -14.0285   17.8731 N   0  0  0  0  0  0  0  0  0  0  0  0
    8.4966  -15.0116   20.0825 C   0  0  0  0  0  0  0  0  0  0  0  0
    8.0640  -14.0973   20.8314 O   0  0  0  0  0  0  0  0  0  0  0  0
    8.3074  -16.3480   20.4700 N   0  0  0  0  0  0  0  0  0  0  0  0
    7.7497  -16.7310   21.7868 C   0  0  1  0  0  0  0  0  0  0  0  0
    7.3763  -18.1696   21.7896 C   0  0  0  0  0  0  0  0  0  0  0  0
    6.9110  -18.6137   23.1462 C   0  0  0  0  0  0  0  0  0  0  0  0
    6.5159  -20.0476   23.0545 C   0  0  0  0  0  0  0  0  0  0  0  0
    5.4370  -20.4577   22.5711 O   0  0  0  0  0  0  0  0  0  0  0  0
    8.8005  -16.4166   22.7894 C   0  0  0  0  0  0  0  0  0  0  0  0
   10.0058  -16.7134   22.6189 O   0  0  0  0  0  0  0  0  0  0  0  0
    7.4128  -21.0102   23.5425 O   0  0  0  0  0  0  0  0  0  0  0  0
    5.0477  -11.1868   26.8246 O   0  0  0  0  0  0  0  0  0  0  0  0
    6.1925  -11.8853   26.4787 C   0  0  0  0  0  0  0  0  0  0  0  0
    6.9686  -12.5773   27.3576 C   0  0  0  0  0  0  0  0  0  0  0  0
    8.1065  -13.2727   27.0190 C   0  0  0  0  0  0  0  0  0  0  0  0
    8.5151  -13.2849   25.6874 C   0  0  0  0  0  0  0  0  0  0  0  0
    9.7084  -13.9844   25.1918 C   0  0  0  0  0  0  0  0  0  0  0  0
    9.5601  -15.4494   24.9715 C   0  0  2  0  0  0  0  0  0  0  0  0
    8.5097  -15.7538   24.0142 N   0  0  0  0  0  0  0  0  0  0  0  0
    9.3362  -16.1340   26.2622 C   0  0  0  0  0  0  0  0  0  0  0  0
   10.2976  -16.1397   27.2750 O   0  0  0  0  0  0  0  0  0  0  0  0
    7.7264  -12.5763   24.7677 C   0  0  0  0  0  0  0  0  0  0  0  0
    6.5924  -11.8905   25.1422 C   0  0  0  0  0  0  0  0  0  0  0  0
    8.2774  -16.7446   26.5190 O   0  0  0  0  0  0  0  0  0  0  0  0
  2  1  1  0
  3  2  2  0
  4  2  1  0
  5  4  1  0
  6  7  1  6
  6  5  1  0
  8  6  1  0
  9  8  2  0
 10  8  1  0
 11 10  1  0
 11 12  1  6
 13 12  1  0
 14 13  1  0
 14 15  2  0
 16 26  1  0
 16 11  1  0
 17 16  2  0
 18 14  1  0
 20 21  2  0
 20 19  1  0
 22 21  1  0
 23 22  2  0
 24 23  1  0
 25 24  1  1
 25 26  1  0
 27 28  1  0
 27 25  1  0
 29 23  1  0
 29 30  2  0
 30 20  1  0
 31 27  2  0
M  END
$$$$
