QEY.pdb
     RDKit          3D

 31 31  0  0  1  0  0  0  0  0999 V2000
   16.5995  -19.7696   20.5402 N   0  0  0  0  0  0  0  0  0  0  0  0
   15.8179  -20.9266   20.6740 C   0  0  0  0  0  0  0  0  0  0  0  0
   16.3880  -22.0387   20.7159 O   0  0  0  0  0  0  0  0  0  0  0  0
   14.3706  -20.8194   20.7637 C   0  0  0  0  0  0  0  0  0  0  0  0
   13.7747  -19.4652   20.5732 C   0  0  0  0  0  0  0  0  0  0  0  0
   12.7244  -19.0720   21.5482 C   0  0  2  0  0  0  0  0  0  0  0  0
   11.7548  -20.0513   21.8880 N   0  0  0  0  0  0  0  0  0  0  0  0
   12.1163  -17.7821   21.1051 C   0  0  0  0  0  0  0  0  0  0  0  0
   12.9083  -16.8148   20.9600 O   0  0  0  0  0  0  0  0  0  0  0  0
   10.7511  -17.5818   20.8446 N   0  0  0  0  0  0  0  0  0  0  0  0
   10.2168  -16.3188   20.2868 C   0  0  1  0  0  0  0  0  0  0  0  0
    9.0127  -16.5898   19.4587 C   0  0  0  0  0  0  0  0  0  0  0  0
    9.3466  -17.4360   18.2643 C   0  0  0  0  0  0  0  0  0  0  0  0
    8.0962  -17.6478   17.4819 C   0  0  0  0  0  0  0  0  0  0  0  0
    7.0733  -18.2210   17.9189 O   0  0  0  0  0  0  0  0  0  0  0  0
    9.9186  -15.4448   21.4511 C   0  0  0  0  0  0  0  0  0  0  0  0
    9.7204  -14.2130   21.3365 O   0  0  0  0  0  0  0  0  0  0  0  0
    8.0569  -17.1729   16.1621 O   0  0  0  0  0  0  0  0  0  0  0  0
    5.8025  -11.3131   27.7580 O   0  0  0  0  0  0  0  0  0  0  0  0
    6.4095  -12.0621   26.7637 C   0  0  0  0  0  0  0  0  0  0  0  0
    7.7314  -11.9937   26.4451 C   0  0  0  0  0  0  0  0  0  0  0  0
    8.3390  -12.7356   25.4586 C   0  0  0  0  0  0  0  0  0  0  0  0
    7.5677  -13.6284   24.7181 C   0  0  0  0  0  0  0  0  0  0  0  0
    8.0886  -14.4777   23.6381 C   0  0  0  0  0  0  0  0  0  0  0  0
    9.4209  -15.0963   23.8810 C   0  0  2  0  0  0  0  0  0  0  0  0
    9.8361  -15.9483   22.7791 N   0  0  0  0  0  0  0  0  0  0  0  0
    9.4103  -15.8309   25.1637 C   0  0  0  0  0  0  0  0  0  0  0  0
    9.7393  -17.1855   25.2450 O   0  0  0  0  0  0  0  0  0  0  0  0
    6.2025  -13.7117   25.0334 C   0  0  0  0  0  0  0  0  0  0  0  0
    5.6273  -12.9530   26.0284 C   0  0  0  0  0  0  0  0  0  0  0  0
    9.1068  -15.2828   26.2441 O   0  0  0  0  0  0  0  0  0  0  0  0
  2  1  1  0
  3  2  2  0
  4  2  1  0
  5  4  1  0
  6  7  1  6
  6  5  1  0
  8  6  1  0
  9  8  2  0
 10  8  1  0
 11 10  1  0
 11 12  1  1
 13 12  1  0
 14 13  1  0
 14 15  2  0
 16 26  1  0
 16 11  1  0
 17 16  2  0
 18 14  1  0
 20 21  2  0
 20 19  1  0
 22 21  1  0
 23 22  2  0
 24 23  1  0
 25 24  1  6
 25 26  1  0
 27 28  1  0
 27 25  1  0
 29 23  1  0
 29 30  2  0
 30 20  1  0
 31 27  2  0
M  END
$$$$
