QEY.pdb
     RDKit          3D

 31 31  0  0  1  0  0  0  0  0999 V2000
    7.6228  -15.3775   16.8326 N   0  0  0  0  0  0  0  0  0  0  0  0
    6.9931  -14.1470   16.5942 C   0  0  0  0  0  0  0  0  0  0  0  0
    6.7251  -13.8242   15.4163 O   0  0  0  0  0  0  0  0  0  0  0  0
    6.6615  -13.2727   17.7077 C   0  0  0  0  0  0  0  0  0  0  0  0
    6.8539  -13.8181   19.0828 C   0  0  0  0  0  0  0  0  0  0  0  0
    8.1609  -13.5217   19.7248 C   0  0  2  0  0  0  0  0  0  0  0  0
    9.1244  -12.8290   18.9460 N   0  0  0  0  0  0  0  0  0  0  0  0
    8.6963  -14.7788   20.3273 C   0  0  0  0  0  0  0  0  0  0  0  0
    7.8627  -15.5073   20.9260 O   0  0  0  0  0  0  0  0  0  0  0  0
   10.0369  -15.1929   20.2705 N   0  0  0  0  0  0  0  0  0  0  0  0
   10.5113  -16.4622   20.8667 C   0  0  1  0  0  0  0  0  0  0  0  0
   11.6799  -16.9820   20.1097 C   0  0  0  0  0  0  0  0  0  0  0  0
   12.1464  -18.3001   20.6566 C   0  0  0  0  0  0  0  0  0  0  0  0
   13.2799  -18.7765   19.8147 C   0  0  0  0  0  0  0  0  0  0  0  0
   13.7357  -19.9418   19.8303 O   0  0  0  0  0  0  0  0  0  0  0  0
   10.8438  -16.1565   22.2825 C   0  0  0  0  0  0  0  0  0  0  0  0
   11.2031  -15.0171   22.6599 O   0  0  0  0  0  0  0  0  0  0  0  0
   13.8821  -17.8587   18.9406 O   0  0  0  0  0  0  0  0  0  0  0  0
   10.9059  -14.4837   30.7269 O   0  0  0  0  0  0  0  0  0  0  0  0
   10.6679  -14.9051   29.4293 C   0  0  0  0  0  0  0  0  0  0  0  0
   10.1448  -16.1170   29.0959 C   0  0  0  0  0  0  0  0  0  0  0  0
    9.9064  -16.5401   27.8086 C   0  0  0  0  0  0  0  0  0  0  0  0
   10.2139  -15.6852   26.7527 C   0  0  0  0  0  0  0  0  0  0  0  0
   10.0115  -16.0118   25.3344 C   0  0  0  0  0  0  0  0  0  0  0  0
   11.0920  -16.8069   24.6885 C   0  0  2  0  0  0  0  0  0  0  0  0
   10.7754  -17.1387   23.3093 N   0  0  0  0  0  0  0  0  0  0  0  0
   11.3758  -18.0169   25.4887 C   0  0  0  0  0  0  0  0  0  0  0  0
   12.3242  -18.0223   26.5135 O   0  0  0  0  0  0  0  0  0  0  0  0
   10.7541  -14.4315   27.0785 C   0  0  0  0  0  0  0  0  0  0  0  0
   10.9797  -14.0407   28.3797 C   0  0  0  0  0  0  0  0  0  0  0  0
   10.7850  -19.0998   25.2935 O   0  0  0  0  0  0  0  0  0  0  0  0
  2  1  1  0
  3  2  2  0
  4  2  1  0
  5  4  1  0
  6  7  1  6
  6  5  1  0
  8  6  1  0
  9  8  2  0
 10  8  1  0
 11 10  1  0
 11 12  1  6
 13 12  1  0
 14 13  1  0
 14 15  2  0
 16 26  1  0
 16 11  1  0
 17 16  2  0
 18 14  1  0
 20 21  2  0
 20 19  1  0
 22 21  1  0
 23 22  2  0
 24 23  1  0
 25 24  1  1
 25 26  1  0
 27 28  1  0
 27 25  1  0
 29 23  1  0
 29 30  2  0
 30 20  1  0
 31 27  2  0
M  END
$$$$
