QEY.pdb
     RDKit          3D

 31 31  0  0  1  0  0  0  0  0999 V2000
    9.0209  -12.5475   18.5888 N   0  0  0  0  0  0  0  0  0  0  0  0
    9.1814  -12.7797   19.9627 C   0  0  0  0  0  0  0  0  0  0  0  0
    9.9283  -12.0222   20.6199 O   0  0  0  0  0  0  0  0  0  0  0  0
    8.4830  -13.8850   20.5992 C   0  0  0  0  0  0  0  0  0  0  0  0
    7.5590  -14.6882   19.7471 C   0  0  0  0  0  0  0  0  0  0  0  0
    6.7298  -15.6972   20.4559 C   0  0  2  0  0  0  0  0  0  0  0  0
    5.4071  -15.3199   20.8065 N   0  0  0  0  0  0  0  0  0  0  0  0
    7.5077  -16.2306   21.6137 C   0  0  0  0  0  0  0  0  0  0  0  0
    7.1155  -15.8785   22.7566 O   0  0  0  0  0  0  0  0  0  0  0  0
    8.6213  -17.0802   21.5141 N   0  0  0  0  0  0  0  0  0  0  0  0
    9.1756  -17.8168   22.6724 C   0  0  1  0  0  0  0  0  0  0  0  0
   10.0888  -18.8940   22.2091 C   0  0  0  0  0  0  0  0  0  0  0  0
    9.3272  -20.0358   21.6005 C   0  0  0  0  0  0  0  0  0  0  0  0
   10.3115  -20.9970   21.0280 C   0  0  0  0  0  0  0  0  0  0  0  0
   11.0795  -21.7157   21.7060 O   0  0  0  0  0  0  0  0  0  0  0  0
    9.8709  -16.8068   23.5119 C   0  0  0  0  0  0  0  0  0  0  0  0
   10.5393  -15.8672   23.0217 O   0  0  0  0  0  0  0  0  0  0  0  0
   10.3868  -21.1089   19.6313 O   0  0  0  0  0  0  0  0  0  0  0  0
    5.1950  -12.7320   27.2153 O   0  0  0  0  0  0  0  0  0  0  0  0
    6.4602  -13.1356   26.8224 C   0  0  0  0  0  0  0  0  0  0  0  0
    7.6087  -12.8255   27.4843 C   0  0  0  0  0  0  0  0  0  0  0  0
    8.8677  -13.2240   27.0981 C   0  0  0  0  0  0  0  0  0  0  0  0
    9.0036  -14.0016   25.9505 C   0  0  0  0  0  0  0  0  0  0  0  0
   10.2861  -14.4919   25.4271 C   0  0  0  0  0  0  0  0  0  0  0  0
   10.6132  -15.9123   25.7306 C   0  0  2  0  0  0  0  0  0  0  0  0
    9.8240  -16.8364   24.9335 N   0  0  0  0  0  0  0  0  0  0  0  0
   10.4555  -16.1688   27.1777 C   0  0  0  0  0  0  0  0  0  0  0  0
   11.1932  -15.4742   28.1385 O   0  0  0  0  0  0  0  0  0  0  0  0
    7.8294  -14.3308   25.2556 C   0  0  0  0  0  0  0  0  0  0  0  0
    6.5843  -13.9141   25.6714 C   0  0  0  0  0  0  0  0  0  0  0  0
    9.6557  -17.0192   27.6215 O   0  0  0  0  0  0  0  0  0  0  0  0
  2  1  1  0
  3  2  2  0
  4  2  1  0
  5  4  1  0
  6  7  1  1
  6  5  1  0
  8  6  1  0
  9  8  2  0
 10  8  1  0
 11 10  1  0
 11 12  1  6
 13 12  1  0
 14 13  1  0
 14 15  2  0
 16 26  1  0
 16 11  1  0
 17 16  2  0
 18 14  1  0
 20 21  2  0
 20 19  1  0
 22 21  1  0
 23 22  2  0
 24 23  1  0
 25 24  1  1
 25 26  1  0
 27 28  1  0
 27 25  1  0
 29 23  1  0
 29 30  2  0
 30 20  1  0
 31 27  2  0
M  END
$$$$
