FFA.pdb
     RDKit          3D

 28 29  0  0  1  0  0  0  0  0999 V2000
    9.6694  -15.0846   20.9369 N   0  0  0  0  0  0  0  0  0  0  0  0
    8.6639  -15.7015   21.7461 C   0  0  1  0  0  0  0  0  0  0  0  0
    8.4903  -17.1697   21.4598 C   0  0  0  0  0  0  0  0  0  0  0  0
    8.0198  -17.4698   20.1101 C   0  0  0  0  0  0  0  0  0  0  0  0
    8.8593  -17.7060   19.0420 C   0  0  0  0  0  0  0  0  0  0  0  0
    8.3961  -17.9874   17.7759 C   0  0  0  0  0  0  0  0  0  0  0  0
    7.0241  -18.0414   17.5389 C   0  0  0  0  0  0  0  0  0  0  0  0
    6.1664  -17.8085   18.5925 C   0  0  0  0  0  0  0  0  0  0  0  0
    6.6611  -17.5243   19.8707 C   0  0  0  0  0  0  0  0  0  0  0  0
    9.0717  -15.5861   23.1637 C   0  0  0  0  0  0  0  0  0  0  0  0
   10.1927  -15.0966   23.4307 O   0  0  0  0  0  0  0  0  0  0  0  0
    8.2371  -16.0101   24.2197 N   0  0  0  0  0  0  0  0  0  0  0  0
    8.6546  -15.8072   25.5815 C   0  0  1  0  0  0  0  0  0  0  0  0
    7.4417  -15.4685   26.4265 C   0  0  0  0  0  0  0  0  0  0  0  0
    7.1828  -14.0037   26.2145 C   0  0  0  0  0  0  0  0  0  0  0  0
    8.0425  -13.0393   26.7160 C   0  0  0  0  0  0  0  0  0  0  0  0
    7.7994  -11.6902   26.5178 C   0  0  0  0  0  0  0  0  0  0  0  0
    6.6868  -11.2808   25.8111 C   0  0  0  0  0  0  0  0  0  0  0  0
    5.8478  -12.2476   25.3226 C   0  0  0  0  0  0  0  0  0  0  0  0
    6.0697  -13.6004   25.5078 C   0  0  0  0  0  0  0  0  0  0  0  0
    9.3908  -16.9801   26.0836 C   0  0  0  0  0  0  0  0  0  0  0  0
    9.5138  -17.1138   27.3278 O   0  0  0  0  0  0  0  0  0  0  0  0
   10.8946  -20.1019   24.7753 C   0  0  0  0  0  0  0  0  0  0  0  0
   10.7326  -19.0283   25.8383 C   0  0  2  0  0  0  0  0  0  0  0  0
    9.9670  -17.9646   25.2420 N   0  0  0  0  0  0  0  0  0  0  0  0
   12.0481  -18.5684   26.3312 C   0  0  0  0  0  0  0  0  0  0  0  0
   12.4222  -17.4120   26.0692 O   0  0  0  0  0  0  0  0  0  0  0  0
   12.8552  -19.3996   27.0701 O   0  0  0  0  0  0  0  0  0  0  0  0
  2 10  1  0
  2  1  1  6
  3  2  1  0
  3  4  1  0
  4  5  2  0
  4  9  1  0
  5  6  1  0
  6  7  2  0
  8  7  1  0
  9  8  2  0
 10 11  2  0
 12 13  1  0
 12 10  1  0
 13 21  1  0
 14 15  1  0
 13 14  1  1
 15 20  2  0
 16 17  2  0
 16 15  1  0
 17 18  1  0
 18 19  2  0
 20 19  1  0
 21 22  2  0
 24 23  1  6
 24 26  1  0
 25 21  1  0
 25 24  1  0
 26 27  2  0
 26 28  1  0
M  END
$$$$
