FFA.pdb
     RDKit          3D

 28 29  0  0  1  0  0  0  0  0999 V2000
    6.4641  -18.9236   21.3099 N   0  0  0  0  0  0  0  0  0  0  0  0
    6.3036  -18.9108   22.7313 C   0  0  1  0  0  0  0  0  0  0  0  0
    6.9255  -20.1029   23.4092 C   0  0  0  0  0  0  0  0  0  0  0  0
    6.1316  -21.3260   23.3273 C   0  0  0  0  0  0  0  0  0  0  0  0
    5.0756  -21.6105   24.1671 C   0  0  0  0  0  0  0  0  0  0  0  0
    4.3387  -22.7702   24.0740 C   0  0  0  0  0  0  0  0  0  0  0  0
    4.6545  -23.7124   23.0972 C   0  0  0  0  0  0  0  0  0  0  0  0
    5.7067  -23.4485   22.2467 C   0  0  0  0  0  0  0  0  0  0  0  0
    6.4411  -22.2624   22.3609 C   0  0  0  0  0  0  0  0  0  0  0  0
    6.9836  -17.7102   23.2656 C   0  0  0  0  0  0  0  0  0  0  0  0
    8.0398  -17.3212   22.7172 O   0  0  0  0  0  0  0  0  0  0  0  0
    6.4784  -16.9934   24.3712 N   0  0  0  0  0  0  0  0  0  0  0  0
    7.1618  -15.8114   24.8250 C   0  0  1  0  0  0  0  0  0  0  0  0
    6.2200  -14.9954   25.6894 C   0  0  0  0  0  0  0  0  0  0  0  0
    6.9754  -13.7539   26.0706 C   0  0  0  0  0  0  0  0  0  0  0  0
    7.1254  -12.6999   25.1832 C   0  0  0  0  0  0  0  0  0  0  0  0
    7.8228  -11.5574   25.5396 C   0  0  0  0  0  0  0  0  0  0  0  0
    8.3846  -11.4492   26.7955 C   0  0  0  0  0  0  0  0  0  0  0  0
    8.2265  -12.5005   27.6598 C   0  0  0  0  0  0  0  0  0  0  0  0
    7.5346  -13.6512   27.3266 C   0  0  0  0  0  0  0  0  0  0  0  0
    8.4126  -16.1637   25.5185 C   0  0  0  0  0  0  0  0  0  0  0  0
    8.3553  -17.0034   26.4526 O   0  0  0  0  0  0  0  0  0  0  0  0
   11.9778  -15.9406   24.7076 C   0  0  0  0  0  0  0  0  0  0  0  0
   10.8657  -16.2390   25.6989 C   0  0  2  0  0  0  0  0  0  0  0  0
    9.6752  -15.6085   25.1907 N   0  0  0  0  0  0  0  0  0  0  0  0
   11.2215  -15.7638   27.0527 C   0  0  0  0  0  0  0  0  0  0  0  0
   12.2443  -16.2097   27.6013 O   0  0  0  0  0  0  0  0  0  0  0  0
   10.4394  -14.8417   27.7055 O   0  0  0  0  0  0  0  0  0  0  0  0
  2 10  1  0
  2  1  1  6
  3  2  1  0
  3  4  1  0
  4  5  2  0
  4  9  1  0
  5  6  1  0
  6  7  2  0
  8  7  1  0
  9  8  2  0
 10 11  2  0
 12 13  1  0
 12 10  1  0
 13 21  1  0
 14 15  1  0
 13 14  1  1
 15 20  2  0
 16 17  2  0
 16 15  1  0
 17 18  1  0
 18 19  2  0
 20 19  1  0
 21 22  2  0
 24 23  1  6
 24 26  1  0
 25 21  1  0
 25 24  1  0
 26 27  2  0
 26 28  1  0
M  END
$$$$
