FFA.pdb
     RDKit          3D

 28 29  0  0  1  0  0  0  0  0999 V2000
    7.4206  -18.7966   20.9818 N   0  0  0  0  0  0  0  0  0  0  0  0
    7.2425  -18.7713   22.4010 C   0  0  1  0  0  0  0  0  0  0  0  0
    8.2074  -19.6638   23.1359 C   0  0  0  0  0  0  0  0  0  0  0  0
    7.9414  -21.0921   22.9872 C   0  0  0  0  0  0  0  0  0  0  0  0
    8.5870  -21.8999   22.0751 C   0  0  0  0  0  0  0  0  0  0  0  0
    8.3218  -23.2455   21.9500 C   0  0  0  0  0  0  0  0  0  0  0  0
    7.3639  -23.8395   22.7691 C   0  0  0  0  0  0  0  0  0  0  0  0
    6.7061  -23.0506   23.6883 C   0  0  0  0  0  0  0  0  0  0  0  0
    6.9929  -21.6849   23.7969 C   0  0  0  0  0  0  0  0  0  0  0  0
    7.4871  -17.3916   22.8762 C   0  0  0  0  0  0  0  0  0  0  0  0
    8.2521  -16.6529   22.2153 O   0  0  0  0  0  0  0  0  0  0  0  0
    6.8855  -16.8858   24.0482 N   0  0  0  0  0  0  0  0  0  0  0  0
    7.2049  -15.5558   24.4946 C   0  0  1  0  0  0  0  0  0  0  0  0
    6.0973  -15.0587   25.4035 C   0  0  0  0  0  0  0  0  0  0  0  0
    6.5193  -13.6925   25.8648 C   0  0  0  0  0  0  0  0  0  0  0  0
    6.4763  -13.3382   27.2040 C   0  0  0  0  0  0  0  0  0  0  0  0
    6.8665  -12.0774   27.6241 C   0  0  0  0  0  0  0  0  0  0  0  0
    7.3085  -11.1450   26.7076 C   0  0  0  0  0  0  0  0  0  0  0  0
    7.3444  -11.5122   25.3881 C   0  0  0  0  0  0  0  0  0  0  0  0
    6.9599  -12.7649   24.9448 C   0  0  0  0  0  0  0  0  0  0  0  0
    8.5294  -15.5236   25.1383 C   0  0  0  0  0  0  0  0  0  0  0  0
    9.0437  -14.4017   25.3786 O   0  0  0  0  0  0  0  0  0  0  0  0
   10.5615  -17.4133   27.3474 C   0  0  0  0  0  0  0  0  0  0  0  0
   10.5523  -16.5369   26.1062 C   0  0  2  0  0  0  0  0  0  0  0  0
    9.2545  -16.6866   25.5009 N   0  0  0  0  0  0  0  0  0  0  0  0
   11.6493  -16.9083   25.1876 C   0  0  0  0  0  0  0  0  0  0  0  0
   11.3704  -17.3519   24.0600 O   0  0  0  0  0  0  0  0  0  0  0  0
   12.9634  -16.7694   25.5643 O   0  0  0  0  0  0  0  0  0  0  0  0
  2 10  1  0
  2  1  1  6
  3  2  1  0
  3  4  1  0
  4  5  2  0
  4  9  1  0
  5  6  1  0
  6  7  2  0
  8  7  1  0
  9  8  2  0
 10 11  2  0
 12 13  1  0
 12 10  1  0
 13 21  1  0
 14 15  1  0
 13 14  1  1
 15 20  2  0
 16 17  2  0
 16 15  1  0
 17 18  1  0
 18 19  2  0
 20 19  1  0
 21 22  2  0
 24 23  1  1
 24 26  1  0
 25 21  1  0
 25 24  1  0
 26 27  2  0
 26 28  1  0
M  END
$$$$
