FFA.pdb
     RDKit          3D

 28 29  0  0  1  0  0  0  0  0999 V2000
    5.7020  -17.5567   24.0184 N   0  0  0  0  0  0  0  0  0  0  0  0
    6.3176  -16.3473   24.4709 C   0  0  1  0  0  0  0  0  0  0  0  0
    6.2513  -16.1708   25.9649 C   0  0  0  0  0  0  0  0  0  0  0  0
    6.6843  -14.8585   26.4375 C   0  0  0  0  0  0  0  0  0  0  0  0
    5.9050  -13.7233   26.3640 C   0  0  0  0  0  0  0  0  0  0  0  0
    6.3316  -12.4940   26.8152 C   0  0  0  0  0  0  0  0  0  0  0  0
    7.6016  -12.3664   27.3741 C   0  0  0  0  0  0  0  0  0  0  0  0
    8.3977  -13.4885   27.4575 C   0  0  0  0  0  0  0  0  0  0  0  0
    7.9420  -14.7274   26.9920 C   0  0  0  0  0  0  0  0  0  0  0  0
    7.7511  -16.3903   24.1072 C   0  0  0  0  0  0  0  0  0  0  0  0
    8.3226  -17.5023   24.0382 O   0  0  0  0  0  0  0  0  0  0  0  0
    8.4904  -15.2191   23.8367 N   0  0  0  0  0  0  0  0  0  0  0  0
    9.8839  -15.3211   23.4934 C   0  0  1  0  0  0  0  0  0  0  0  0
   10.2694  -14.1359   22.6292 C   0  0  0  0  0  0  0  0  0  0  0  0
    9.2269  -14.0509   21.5505 C   0  0  0  0  0  0  0  0  0  0  0  0
    8.2709  -13.0475   21.5490 C   0  0  0  0  0  0  0  0  0  0  0  0
    7.3120  -12.9735   20.5522 C   0  0  0  0  0  0  0  0  0  0  0  0
    7.2929  -13.9063   19.5352 C   0  0  0  0  0  0  0  0  0  0  0  0
    8.2453  -14.8912   19.5525 C   0  0  0  0  0  0  0  0  0  0  0  0
    9.2126  -14.9855   20.5370 C   0  0  0  0  0  0  0  0  0  0  0  0
   10.7142  -15.4387   24.7044 C   0  0  0  0  0  0  0  0  0  0  0  0
   11.9375  -15.6920   24.5612 O   0  0  0  0  0  0  0  0  0  0  0  0
   10.8897  -14.0333   27.9239 C   0  0  0  0  0  0  0  0  0  0  0  0
   11.1322  -15.3033   27.1257 C   0  0  2  0  0  0  0  0  0  0  0  0
   10.2101  -15.2823   26.0201 N   0  0  0  0  0  0  0  0  0  0  0  0
   10.9674  -16.5020   27.9748 C   0  0  0  0  0  0  0  0  0  0  0  0
   10.0929  -17.3359   27.6815 O   0  0  0  0  0  0  0  0  0  0  0  0
   11.7644  -16.7022   29.0761 O   0  0  0  0  0  0  0  0  0  0  0  0
  2 10  1  0
  2  1  1  1
  3  2  1  0
  3  4  1  0
  4  5  2  0
  4  9  1  0
  5  6  1  0
  6  7  2  0
  8  7  1  0
  9  8  2  0
 10 11  2  0
 12 13  1  0
 12 10  1  0
 13 21  1  0
 14 15  1  0
 13 14  1  1
 15 20  2  0
 16 17  2  0
 16 15  1  0
 17 18  1  0
 18 19  2  0
 20 19  1  0
 21 22  2  0
 24 23  1  1
 24 26  1  0
 25 21  1  0
 25 24  1  0
 26 27  2  0
 26 28  1  0
M  END
$$$$
