FFA.pdb
     RDKit          3D

 28 29  0  0  1  0  0  0  0  0999 V2000
   10.3208  -17.1183   21.4479 N   0  0  0  0  0  0  0  0  0  0  0  0
    9.6994  -15.9538   21.9994 C   0  0  1  0  0  0  0  0  0  0  0  0
    8.2725  -15.7749   21.5528 C   0  0  0  0  0  0  0  0  0  0  0  0
    7.9665  -14.4469   21.0275 C   0  0  0  0  0  0  0  0  0  0  0  0
    6.7251  -14.0790   20.5533 C   0  0  0  0  0  0  0  0  0  0  0  0
    6.4562  -12.8210   20.0615 C   0  0  0  0  0  0  0  0  0  0  0  0
    7.4658  -11.8612   20.0313 C   0  0  0  0  0  0  0  0  0  0  0  0
    8.7148  -12.2074   20.5004 C   0  0  0  0  0  0  0  0  0  0  0  0
    8.9640  -13.4927   20.9957 C   0  0  0  0  0  0  0  0  0  0  0  0
    9.6737  -16.0933   23.4722 C   0  0  0  0  0  0  0  0  0  0  0  0
   10.7583  -16.0841   24.0978 O   0  0  0  0  0  0  0  0  0  0  0  0
    8.4670  -16.2359   24.1898 N   0  0  0  0  0  0  0  0  0  0  0  0
    8.4835  -16.1795   25.6274 C   0  0  1  0  0  0  0  0  0  0  0  0
    7.1294  -15.7065   26.1203 C   0  0  0  0  0  0  0  0  0  0  0  0
    7.1914  -14.2053   26.1305 C   0  0  0  0  0  0  0  0  0  0  0  0
    6.0387  -13.4359   26.1339 C   0  0  0  0  0  0  0  0  0  0  0  0
    6.1013  -12.0523   26.1433 C   0  0  0  0  0  0  0  0  0  0  0  0
    7.3237  -11.4117   26.1495 C   0  0  0  0  0  0  0  0  0  0  0  0
    8.4527  -12.1878   26.1460 C   0  0  0  0  0  0  0  0  0  0  0  0
    8.4153  -13.5706   26.1366 C   0  0  0  0  0  0  0  0  0  0  0  0
    8.8767  -17.4793   26.1978 C   0  0  0  0  0  0  0  0  0  0  0  0
    8.7357  -17.6496   27.4356 O   0  0  0  0  0  0  0  0  0  0  0  0
   10.0228  -20.8022   25.0076 C   0  0  0  0  0  0  0  0  0  0  0  0
    9.7671  -19.7711   26.0941 C   0  0  2  0  0  0  0  0  0  0  0  0
    9.4043  -18.5469   25.4286 N   0  0  0  0  0  0  0  0  0  0  0  0
   10.9530  -19.6112   26.9619 C   0  0  0  0  0  0  0  0  0  0  0  0
   11.2958  -20.5528   27.6980 O   0  0  0  0  0  0  0  0  0  0  0  0
   11.6745  -18.4417   26.9632 O   0  0  0  0  0  0  0  0  0  0  0  0
  2 10  1  0
  2  1  1  6
  3  2  1  0
  3  4  1  0
  4  5  2  0
  4  9  1  0
  5  6  1  0
  6  7  2  0
  8  7  1  0
  9  8  2  0
 10 11  2  0
 12 13  1  0
 12 10  1  0
 13 21  1  0
 14 15  1  0
 13 14  1  1
 15 20  2  0
 16 17  2  0
 16 15  1  0
 17 18  1  0
 18 19  2  0
 20 19  1  0
 21 22  2  0
 24 23  1  6
 24 26  1  0
 25 21  1  0
 25 24  1  0
 26 27  2  0
 26 28  1  0
M  END
$$$$
