FFA.pdb
     RDKit          3D

 28 29  0  0  1  0  0  0  0  0999 V2000
    9.0157  -18.2676   21.7191 N   0  0  0  0  0  0  0  0  0  0  0  0
    9.0297  -16.9149   21.2538 C   0  0  1  0  0  0  0  0  0  0  0  0
    7.7715  -16.5256   20.5238 C   0  0  0  0  0  0  0  0  0  0  0  0
    7.7590  -15.1497   20.0342 C   0  0  0  0  0  0  0  0  0  0  0  0
    6.7705  -14.2380   20.3390 C   0  0  0  0  0  0  0  0  0  0  0  0
    6.7764  -12.9442   19.8670 C   0  0  0  0  0  0  0  0  0  0  0  0
    7.8154  -12.5142   19.0442 C   0  0  0  0  0  0  0  0  0  0  0  0
    8.8145  -13.4092   18.7266 C   0  0  0  0  0  0  0  0  0  0  0  0
    8.7867  -14.7193   19.2186 C   0  0  0  0  0  0  0  0  0  0  0  0
    9.1392  -16.0203   22.4272 C   0  0  0  0  0  0  0  0  0  0  0  0
   10.0445  -15.1555   22.4437 O   0  0  0  0  0  0  0  0  0  0  0  0
    8.2565  -16.1130   23.5243 N   0  0  0  0  0  0  0  0  0  0  0  0
    8.3230  -15.1328   24.5755 C   0  0  1  0  0  0  0  0  0  0  0  0
    7.0279  -15.1629   25.3639 C   0  0  0  0  0  0  0  0  0  0  0  0
    7.0582  -13.9573   26.2602 C   0  0  0  0  0  0  0  0  0  0  0  0
    7.8620  -13.9175   27.3884 C   0  0  0  0  0  0  0  0  0  0  0  0
    7.8864  -12.8037   28.2114 C   0  0  0  0  0  0  0  0  0  0  0  0
    7.1035  -11.7055   27.9185 C   0  0  0  0  0  0  0  0  0  0  0  0
    6.3150  -11.7622   26.7994 C   0  0  0  0  0  0  0  0  0  0  0  0
    6.2739  -12.8631   25.9627 C   0  0  0  0  0  0  0  0  0  0  0  0
    9.5105  -15.3501   25.4195 C   0  0  0  0  0  0  0  0  0  0  0  0
   10.4199  -14.4821   25.3967 O   0  0  0  0  0  0  0  0  0  0  0  0
   10.3907  -15.3455   28.2174 C   0  0  0  0  0  0  0  0  0  0  0  0
   10.7281  -16.4635   27.2453 C   0  0  2  0  0  0  0  0  0  0  0  0
    9.6835  -16.4826   26.2546 N   0  0  0  0  0  0  0  0  0  0  0  0
   10.8604  -17.7561   27.9502 C   0  0  0  0  0  0  0  0  0  0  0  0
   10.0820  -18.6830   27.6659 O   0  0  0  0  0  0  0  0  0  0  0  0
   11.8272  -17.9418   28.9088 O   0  0  0  0  0  0  0  0  0  0  0  0
  2 10  1  0
  2  1  1  1
  3  2  1  0
  3  4  1  0
  4  5  2  0
  4  9  1  0
  5  6  1  0
  6  7  2  0
  8  7  1  0
  9  8  2  0
 10 11  2  0
 12 13  1  0
 12 10  1  0
 13 21  1  0
 14 15  1  0
 13 14  1  1
 15 20  2  0
 16 17  2  0
 16 15  1  0
 17 18  1  0
 18 19  2  0
 20 19  1  0
 21 22  2  0
 24 23  1  1
 24 26  1  0
 25 21  1  0
 25 24  1  0
 26 27  2  0
 26 28  1  0
M  END
$$$$
