LNE.pdb
     RDKit          3D

 26 25  0  0  1  0  0  0  0  0999 V2000
    8.1490  -11.8034   27.3736 C   0  0  0  0  0  0  0  0  0  0  0  0
    7.2711  -12.6706   26.5275 C   0  0  1  0  0  0  0  0  0  0  0  0
    6.7854  -11.8064   25.3553 C   0  0  0  0  0  0  0  0  0  0  0  0
    7.9635  -13.8559   25.9371 C   0  0  0  0  0  0  0  0  0  0  0  0
    6.9908  -14.6620   25.1090 C   0  0  2  0  0  0  0  0  0  0  0  0
    5.9660  -15.1474   26.0119 N   0  0  0  0  0  0  0  0  0  0  0  0
    7.6303  -15.8434   24.4902 C   0  0  0  0  0  0  0  0  0  0  0  0
    7.7044  -16.9287   25.1133 O   0  0  0  0  0  0  0  0  0  0  0  0
    8.6284  -19.1287   19.9852 N   0  0  0  0  0  0  0  0  0  0  0  0
    9.3852  -18.0124   20.4088 C   0  0  0  0  0  0  0  0  0  0  0  0
   10.6214  -18.0553   20.1852 O   0  0  0  0  0  0  0  0  0  0  0  0
    8.7823  -16.8538   21.0759 C   0  0  0  0  0  0  0  0  0  0  0  0
    8.9020  -16.8920   22.5830 C   0  0  2  0  0  0  0  0  0  0  0  0
    8.1845  -15.7800   23.1573 N   0  0  0  0  0  0  0  0  0  0  0  0
   10.3073  -16.9472   22.9973 C   0  0  0  0  0  0  0  0  0  0  0  0
   11.1935  -16.5172   22.2185 O   0  0  0  0  0  0  0  0  0  0  0  0
   10.7040  -17.4688   24.2463 N   0  0  0  0  0  0  0  0  0  0  0  0
   12.0842  -17.8293   24.5743 C   0  0  1  0  0  0  0  0  0  0  0  0
   12.9728  -16.6239   24.4900 C   0  0  0  0  0  0  0  0  0  0  0  0
   13.4503  -16.3174   23.0972 C   0  0  0  0  0  0  0  0  0  0  0  0
   14.6743  -15.4242   23.1671 C   0  0  0  0  0  0  0  0  0  0  0  0
   15.3270  -15.1111   22.1612 O   0  0  0  0  0  0  0  0  0  0  0  0
   12.0801  -18.3566   25.9415 C   0  0  0  0  0  0  0  0  0  0  0  0
   11.0793  -18.2726   26.6806 O   0  0  0  0  0  0  0  0  0  0  0  0
   15.0260  -14.9732   24.4284 O   0  0  0  0  0  0  0  0  0  0  0  0
   13.2098  -18.9805   26.4746 O   0  0  0  0  0  0  0  0  0  0  0  0
  2  1  1  1
  3  2  1  0
  4  5  1  0
  4  2  1  0
  5  6  1  1
  7  5  1  0
  7  8  2  0
  9 10  1  0
 10 11  2  0
 12 10  1  0
 13 12  1  6
 13 14  1  0
 14  7  1  0
 15 17  1  0
 15 13  1  0
 16 15  2  0
 18 17  1  0
 18 19  1  1
 19 20  1  0
 20 21  1  0
 21 22  2  0
 23 18  1  0
 24 23  2  0
 25 21  1  0
 26 23  1  0
M  END
$$$$
