LNE.pdb
     RDKit          3D

 26 25  0  0  1  0  0  0  0  0999 V2000
    9.2369  -12.5087   19.3949 C   0  0  0  0  0  0  0  0  0  0  0  0
    8.0390  -13.1774   19.9921 C   0  0  1  0  0  0  0  0  0  0  0  0
    6.8489  -12.2299   19.7855 C   0  0  0  0  0  0  0  0  0  0  0  0
    7.6771  -14.4774   19.3504 C   0  0  0  0  0  0  0  0  0  0  0  0
    8.6727  -15.5425   19.7453 C   0  0  2  0  0  0  0  0  0  0  0  0
    8.2694  -16.7667   19.0820 N   0  0  0  0  0  0  0  0  0  0  0  0
    8.6617  -15.8043   21.2009 C   0  0  0  0  0  0  0  0  0  0  0  0
    9.2754  -15.0479   21.9902 O   0  0  0  0  0  0  0  0  0  0  0  0
    6.7008  -20.0393   25.1059 N   0  0  0  0  0  0  0  0  0  0  0  0
    6.8614  -18.6535   24.8773 C   0  0  0  0  0  0  0  0  0  0  0  0
    7.0876  -17.9408   25.8878 O   0  0  0  0  0  0  0  0  0  0  0  0
    6.7730  -18.0558   23.5410 C   0  0  0  0  0  0  0  0  0  0  0  0
    7.9885  -17.2408   23.1599 C   0  0  2  0  0  0  0  0  0  0  0  0
    7.9470  -16.9332   21.7511 N   0  0  0  0  0  0  0  0  0  0  0  0
    9.2238  -17.9181   23.5659 C   0  0  0  0  0  0  0  0  0  0  0  0
    9.6018  -18.9351   22.9336 O   0  0  0  0  0  0  0  0  0  0  0  0
   10.0090  -17.4674   24.6475 N   0  0  0  0  0  0  0  0  0  0  0  0
   11.3881  -17.8971   24.8843 C   0  0  1  0  0  0  0  0  0  0  0  0
   12.3505  -16.9332   24.2560 C   0  0  0  0  0  0  0  0  0  0  0  0
   13.7947  -17.2535   24.5266 C   0  0  0  0  0  0  0  0  0  0  0  0
   14.6412  -16.8059   23.3502 C   0  0  0  0  0  0  0  0  0  0  0  0
   15.0760  -17.5999   22.5038 O   0  0  0  0  0  0  0  0  0  0  0  0
   11.5867  -17.9322   26.3357 C   0  0  0  0  0  0  0  0  0  0  0  0
   12.6313  -18.3779   26.8505 O   0  0  0  0  0  0  0  0  0  0  0  0
   14.9042  -15.4483   23.2727 O   0  0  0  0  0  0  0  0  0  0  0  0
   10.6023  -17.4625   27.2074 O   0  0  0  0  0  0  0  0  0  0  0  0
  2  1  1  6
  3  2  1  0
  4  5  1  0
  4  2  1  0
  5  6  1  6
  7  5  1  0
  7  8  2  0
  9 10  1  0
 10 11  2  0
 12 10  1  0
 13 12  1  6
 13 14  1  0
 14  7  1  0
 15 17  1  0
 15 13  1  0
 16 15  2  0
 18 17  1  0
 18 19  1  6
 19 20  1  0
 20 21  1  0
 21 22  2  0
 23 18  1  0
 24 23  2  0
 25 21  1  0
 26 23  1  0
M  END
$$$$
