LNE.pdb
     RDKit          3D

 26 25  0  0  1  0  0  0  0  0999 V2000
    8.4012  -11.8593   18.9938 C   0  0  0  0  0  0  0  0  0  0  0  0
    8.6092  -13.1918   19.6419 C   0  0  1  0  0  0  0  0  0  0  0  0
    8.1222  -13.0642   21.0922 C   0  0  0  0  0  0  0  0  0  0  0  0
    7.8332  -14.3063   19.0184 C   0  0  0  0  0  0  0  0  0  0  0  0
    8.3862  -15.6367   19.4719 C   0  0  2  0  0  0  0  0  0  0  0  0
    8.3444  -15.6415   20.9209 N   0  0  0  0  0  0  0  0  0  0  0  0
    9.7977  -15.8204   19.0701 C   0  0  0  0  0  0  0  0  0  0  0  0
   10.0849  -16.2818   17.9403 O   0  0  0  0  0  0  0  0  0  0  0  0
   14.3000  -15.8706   16.9354 N   0  0  0  0  0  0  0  0  0  0  0  0
   13.8306  -14.8224   17.7597 C   0  0  0  0  0  0  0  0  0  0  0  0
   14.6559  -13.9167   18.0400 O   0  0  0  0  0  0  0  0  0  0  0  0
   12.4577  -14.7727   18.2729 C   0  0  0  0  0  0  0  0  0  0  0  0
   12.2587  -15.5590   19.5492 C   0  0  2  0  0  0  0  0  0  0  0  0
   10.8794  -15.4749   19.9636 N   0  0  0  0  0  0  0  0  0  0  0  0
   13.1997  -15.1246   20.5862 C   0  0  0  0  0  0  0  0  0  0  0  0
   13.6276  -13.9441   20.5703 O   0  0  0  0  0  0  0  0  0  0  0  0
   13.6455  -15.9886   21.6081 N   0  0  0  0  0  0  0  0  0  0  0  0
   14.3757  -15.5358   22.7931 C   0  0  1  0  0  0  0  0  0  0  0  0
   13.8063  -16.1658   24.0296 C   0  0  0  0  0  0  0  0  0  0  0  0
   13.5889  -17.6491   23.9106 C   0  0  0  0  0  0  0  0  0  0  0  0
   13.1203  -18.2003   25.2438 C   0  0  0  0  0  0  0  0  0  0  0  0
   12.2499  -17.6406   25.9256 O   0  0  0  0  0  0  0  0  0  0  0  0
   15.7735  -15.9404   22.6204 C   0  0  0  0  0  0  0  0  0  0  0  0
   16.1323  -16.7093   21.7067 O   0  0  0  0  0  0  0  0  0  0  0  0
   13.7242  -19.3746   25.6617 O   0  0  0  0  0  0  0  0  0  0  0  0
   16.7682  -15.4747   23.4825 O   0  0  0  0  0  0  0  0  0  0  0  0
  2  1  1  6
  3  2  1  0
  4  5  1  0
  4  2  1  0
  5  6  1  1
  7  5  1  0
  7  8  2  0
  9 10  1  0
 10 11  2  0
 12 10  1  0
 13 12  1  6
 13 14  1  0
 14  7  1  0
 15 17  1  0
 15 13  1  0
 16 15  2  0
 18 17  1  0
 18 19  1  1
 19 20  1  0
 20 21  1  0
 21 22  2  0
 23 18  1  0
 24 23  2  0
 25 21  1  0
 26 23  1  0
M  END
$$$$
