LNE.pdb
     RDKit          3D

 26 25  0  0  1  0  0  0  0  0999 V2000
    7.4213  -12.3022   21.4620 C   0  0  0  0  0  0  0  0  0  0  0  0
    7.6745  -13.4174   20.4971 C   0  0  1  0  0  0  0  0  0  0  0  0
    8.4186  -12.8113   19.2989 C   0  0  0  0  0  0  0  0  0  0  0  0
    8.5363  -14.5127   21.0362 C   0  0  0  0  0  0  0  0  0  0  0  0
    8.6226  -15.6410   20.0356 C   0  0  2  0  0  0  0  0  0  0  0  0
    7.2806  -16.1626   19.8681 N   0  0  0  0  0  0  0  0  0  0  0  0
    9.4712  -16.7516   20.5190 C   0  0  0  0  0  0  0  0  0  0  0  0
    9.0351  -17.5660   21.3665 O   0  0  0  0  0  0  0  0  0  0  0  0
   12.1541  -20.2483   18.2517 N   0  0  0  0  0  0  0  0  0  0  0  0
   12.3789  -18.8566   18.3558 C   0  0  0  0  0  0  0  0  0  0  0  0
   12.1819  -18.1773   17.3167 O   0  0  0  0  0  0  0  0  0  0  0  0
   12.8190  -18.2163   19.5996 C   0  0  0  0  0  0  0  0  0  0  0  0
   11.6932  -17.9410   20.5711 C   0  0  2  0  0  0  0  0  0  0  0  0
   10.8196  -16.9282   20.0306 N   0  0  0  0  0  0  0  0  0  0  0  0
   12.2154  -17.6033   21.8988 C   0  0  0  0  0  0  0  0  0  0  0  0
   12.7919  -16.5007   22.0686 O   0  0  0  0  0  0  0  0  0  0  0  0
   12.0939  -18.4762   23.0000 N   0  0  0  0  0  0  0  0  0  0  0  0
   12.5611  -18.1517   24.3487 C   0  0  1  0  0  0  0  0  0  0  0  0
   11.8651  -19.0101   25.3629 C   0  0  0  0  0  0  0  0  0  0  0  0
   12.3808  -18.8337   26.7646 C   0  0  0  0  0  0  0  0  0  0  0  0
   11.6614  -19.7937   27.6929 C   0  0  0  0  0  0  0  0  0  0  0  0
   10.8028  -20.5909   27.2893 O   0  0  0  0  0  0  0  0  0  0  0  0
   14.0039  -18.4063   24.3794 C   0  0  0  0  0  0  0  0  0  0  0  0
   14.5379  -19.2778   23.6651 O   0  0  0  0  0  0  0  0  0  0  0  0
   12.0200  -19.7300   29.0291 O   0  0  0  0  0  0  0  0  0  0  0  0
   14.8452  -17.6739   25.2193 O   0  0  0  0  0  0  0  0  0  0  0  0
  2  1  1  1
  3  2  1  0
  4  5  1  0
  4  2  1  0
  5  6  1  1
  7  5  1  0
  7  8  2  0
  9 10  1  0
 10 11  2  0
 12 10  1  0
 13 12  1  6
 13 14  1  0
 14  7  1  0
 15 17  1  0
 15 13  1  0
 16 15  2  0
 18 17  1  0
 18 19  1  1
 19 20  1  0
 20 21  1  0
 21 22  2  0
 23 18  1  0
 24 23  2  0
 25 21  1  0
 26 23  1  0
M  END
$$$$
