LNE.pdb
     RDKit          3D

 26 25  0  0  1  0  0  0  0  0999 V2000
    7.0249  -12.9013   19.0284 C   0  0  0  0  0  0  0  0  0  0  0  0
    8.2682  -13.6381   19.4157 C   0  0  1  0  0  0  0  0  0  0  0  0
    9.3812  -12.5908   19.5614 C   0  0  0  0  0  0  0  0  0  0  0  0
    8.1742  -14.3581   20.7217 C   0  0  0  0  0  0  0  0  0  0  0  0
    9.5207  -14.9344   21.0912 C   0  0  2  0  0  0  0  0  0  0  0  0
    9.9517  -15.7537   19.9757 N   0  0  0  0  0  0  0  0  0  0  0  0
    9.4451  -15.8110   22.2800 C   0  0  0  0  0  0  0  0  0  0  0  0
    8.8079  -15.4521   23.2983 O   0  0  0  0  0  0  0  0  0  0  0  0
   12.6075  -19.9688   22.1946 N   0  0  0  0  0  0  0  0  0  0  0  0
   11.2865  -19.5207   21.9656 C   0  0  0  0  0  0  0  0  0  0  0  0
   10.9900  -19.2315   20.7788 O   0  0  0  0  0  0  0  0  0  0  0  0
   10.2965  -19.3918   23.0399 C   0  0  0  0  0  0  0  0  0  0  0  0
   10.0356  -17.9614   23.4555 C   0  0  2  0  0  0  0  0  0  0  0  0
   10.1002  -17.0988   22.3010 N   0  0  0  0  0  0  0  0  0  0  0  0
   10.9434  -17.5529   24.5319 C   0  0  0  0  0  0  0  0  0  0  0  0
   12.1071  -17.1791   24.2437 O   0  0  0  0  0  0  0  0  0  0  0  0
   10.5564  -17.5641   25.8882 N   0  0  0  0  0  0  0  0  0  0  0  0
   11.4426  -17.1819   26.9886 C   0  0  1  0  0  0  0  0  0  0  0  0
   10.8307  -16.0715   27.7902 C   0  0  0  0  0  0  0  0  0  0  0  0
   10.4173  -14.8836   26.9659 C   0  0  0  0  0  0  0  0  0  0  0  0
    9.7313  -13.8644   27.8556 C   0  0  0  0  0  0  0  0  0  0  0  0
    9.5615  -14.0488   29.0692 O   0  0  0  0  0  0  0  0  0  0  0  0
   11.6243  -18.3683   27.8293 C   0  0  0  0  0  0  0  0  0  0  0  0
   12.3986  -18.3751   28.8067 O   0  0  0  0  0  0  0  0  0  0  0  0
    9.3011  -12.7053   27.2316 O   0  0  0  0  0  0  0  0  0  0  0  0
   10.9290  -19.5499   27.5647 O   0  0  0  0  0  0  0  0  0  0  0  0
  2  1  1  1
  3  2  1  0
  4  5  1  0
  4  2  1  0
  5  6  1  6
  7  5  1  0
  7  8  2  0
  9 10  1  0
 10 11  2  0
 12 10  1  0
 13 12  1  6
 13 14  1  0
 14  7  1  0
 15 17  1  0
 15 13  1  0
 16 15  2  0
 18 17  1  0
 18 19  1  1
 19 20  1  0
 20 21  1  0
 21 22  2  0
 23 18  1  0
 24 23  2  0
 25 21  1  0
 26 23  1  0
M  END
$$$$
