LNE.pdb
     RDKit          3D

 26 25  0  0  1  0  0  0  0  0999 V2000
    7.0443  -12.6511   19.3012 C   0  0  0  0  0  0  0  0  0  0  0  0
    7.6998  -13.9259   19.7304 C   0  0  1  0  0  0  0  0  0  0  0  0
    8.3146  -14.5574   18.4735 C   0  0  0  0  0  0  0  0  0  0  0  0
    8.8097  -13.7452   20.7144 C   0  0  0  0  0  0  0  0  0  0  0  0
    8.9724  -14.9970   21.5440 C   0  0  2  0  0  0  0  0  0  0  0  0
    7.7121  -15.7107   21.4863 N   0  0  0  0  0  0  0  0  0  0  0  0
    9.2431  -14.6927   22.9658 C   0  0  0  0  0  0  0  0  0  0  0  0
   10.3857  -14.3323   23.3352 O   0  0  0  0  0  0  0  0  0  0  0  0
    8.5881  -13.1537   27.8818 N   0  0  0  0  0  0  0  0  0  0  0  0
    7.3487  -13.1531   27.2019 C   0  0  0  0  0  0  0  0  0  0  0  0
    6.3972  -12.5604   27.7706 O   0  0  0  0  0  0  0  0  0  0  0  0
    7.1587  -13.8030   25.9010 C   0  0  0  0  0  0  0  0  0  0  0  0
    8.4249  -14.4034   25.3325 C   0  0  2  0  0  0  0  0  0  0  0  0
    8.2038  -14.8016   23.9637 N   0  0  0  0  0  0  0  0  0  0  0  0
    8.9145  -15.4959   26.1789 C   0  0  0  0  0  0  0  0  0  0  0  0
    9.0302  -15.3091   27.4153 O   0  0  0  0  0  0  0  0  0  0  0  0
    9.2629  -16.7575   25.6531 N   0  0  0  0  0  0  0  0  0  0  0  0
    9.7524  -17.8700   26.4687 C   0  0  1  0  0  0  0  0  0  0  0  0
    9.9905  -19.0791   25.6135 C   0  0  0  0  0  0  0  0  0  0  0  0
   10.5327  -20.2607   26.3695 C   0  0  0  0  0  0  0  0  0  0  0  0
   10.7426  -21.4198   25.4138 C   0  0  0  0  0  0  0  0  0  0  0  0
   11.5813  -21.3860   24.5020 O   0  0  0  0  0  0  0  0  0  0  0  0
   11.0086  -17.4343   27.0849 C   0  0  0  0  0  0  0  0  0  0  0  0
   11.3047  -17.7241   28.2610 O   0  0  0  0  0  0  0  0  0  0  0  0
    9.9381  -22.5285   25.6177 O   0  0  0  0  0  0  0  0  0  0  0  0
   11.9323  -16.6694   26.3699 O   0  0  0  0  0  0  0  0  0  0  0  0
  2  1  1  6
  3  2  1  0
  4  5  1  0
  4  2  1  0
  5  6  1  1
  7  5  1  0
  7  8  2  0
  9 10  1  0
 10 11  2  0
 12 10  1  0
 13 12  1  1
 13 14  1  0
 14  7  1  0
 15 17  1  0
 15 13  1  0
 16 15  2  0
 18 17  1  0
 18 19  1  6
 19 20  1  0
 20 21  1  0
 21 22  2  0
 23 18  1  0
 24 23  2  0
 25 21  1  0
 26 23  1  0
M  END
$$$$
