LNE.pdb
     RDKit          3D

 26 25  0  0  1  0  0  0  0  0999 V2000
    6.6474  -12.6080   20.3836 C   0  0  0  0  0  0  0  0  0  0  0  0
    7.4444  -13.5158   19.5007 C   0  0  1  0  0  0  0  0  0  0  0  0
    8.2864  -12.6195   18.5818 C   0  0  0  0  0  0  0  0  0  0  0  0
    8.3962  -14.4052   20.2329 C   0  0  0  0  0  0  0  0  0  0  0  0
    9.1639  -15.2586   19.2511 C   0  0  2  0  0  0  0  0  0  0  0  0
    8.1975  -16.1035   18.5776 N   0  0  0  0  0  0  0  0  0  0  0  0
   10.1346  -16.1480   19.9250 C   0  0  0  0  0  0  0  0  0  0  0  0
    9.8153  -16.7694   20.9659 O   0  0  0  0  0  0  0  0  0  0  0  0
   12.6262  -18.7556   16.8530 N   0  0  0  0  0  0  0  0  0  0  0  0
   12.6679  -18.8181   18.2646 C   0  0  0  0  0  0  0  0  0  0  0  0
   12.0835  -19.7936   18.8004 O   0  0  0  0  0  0  0  0  0  0  0  0
   13.3506  -17.8100   19.0822 C   0  0  0  0  0  0  0  0  0  0  0  0
   12.4483  -17.1349   20.0906 C   0  0  2  0  0  0  0  0  0  0  0  0
   11.4712  -16.3248   19.4050 N   0  0  0  0  0  0  0  0  0  0  0  0
   13.2314  -16.3831   21.0761 C   0  0  0  0  0  0  0  0  0  0  0  0
   13.8564  -15.3575   20.7092 O   0  0  0  0  0  0  0  0  0  0  0  0
   13.3097  -16.7709   22.4299 N   0  0  0  0  0  0  0  0  0  0  0  0
   14.0486  -16.0220   23.4476 C   0  0  1  0  0  0  0  0  0  0  0  0
   13.4544  -16.2591   24.8043 C   0  0  0  0  0  0  0  0  0  0  0  0
   13.1931  -17.7085   25.1082 C   0  0  0  0  0  0  0  0  0  0  0  0
   12.6975  -17.8449   26.5354 C   0  0  0  0  0  0  0  0  0  0  0  0
   12.6438  -16.8832   27.3152 O   0  0  0  0  0  0  0  0  0  0  0  0
   15.4338  -16.4991   23.4147 C   0  0  0  0  0  0  0  0  0  0  0  0
   16.3612  -15.8786   23.9712 O   0  0  0  0  0  0  0  0  0  0  0  0
   12.3043  -19.1150   26.9231 O   0  0  0  0  0  0  0  0  0  0  0  0
   15.7715  -17.6804   22.7513 O   0  0  0  0  0  0  0  0  0  0  0  0
  2  1  1  1
  3  2  1  0
  4  5  1  0
  4  2  1  0
  5  6  1  1
  7  5  1  0
  7  8  2  0
  9 10  1  0
 10 11  2  0
 12 10  1  0
 13 12  1  6
 13 14  1  0
 14  7  1  0
 15 17  1  0
 15 13  1  0
 16 15  2  0
 18 17  1  0
 18 19  1  1
 19 20  1  0
 20 21  1  0
 21 22  2  0
 23 18  1  0
 24 23  2  0
 25 21  1  0
 26 23  1  0
M  END
$$$$
