LNE.pdb
     RDKit          3D

 26 25  0  0  1  0  0  0  0  0999 V2000
    6.7904  -12.6791   19.2250 C   0  0  0  0  0  0  0  0  0  0  0  0
    8.0972  -13.3212   19.5695 C   0  0  1  0  0  0  0  0  0  0  0  0
    9.1008  -12.1865   19.8184 C   0  0  0  0  0  0  0  0  0  0  0  0
    8.0648  -14.1538   20.8100 C   0  0  0  0  0  0  0  0  0  0  0  0
    9.4687  -14.5494   21.2026 C   0  0  2  0  0  0  0  0  0  0  0  0
   10.0773  -15.1634   20.0390 N   0  0  0  0  0  0  0  0  0  0  0  0
    9.4824  -15.5523   22.2895 C   0  0  0  0  0  0  0  0  0  0  0  0
    8.7537  -15.4091   23.2995 O   0  0  0  0  0  0  0  0  0  0  0  0
   11.0706  -19.8057   20.5244 N   0  0  0  0  0  0  0  0  0  0  0  0
   10.5118  -19.6334   21.8114 C   0  0  0  0  0  0  0  0  0  0  0  0
    9.3887  -20.1616   22.0106 O   0  0  0  0  0  0  0  0  0  0  0  0
   11.1878  -18.8823   22.8743 C   0  0  0  0  0  0  0  0  0  0  0  0
   10.4349  -17.6478   23.3171 C   0  0  2  0  0  0  0  0  0  0  0  0
   10.3316  -16.7193   22.2180 N   0  0  0  0  0  0  0  0  0  0  0  0
   11.0467  -17.0599   24.5129 C   0  0  0  0  0  0  0  0  0  0  0  0
   12.1675  -16.5018   24.4168 O   0  0  0  0  0  0  0  0  0  0  0  0
   10.4194  -17.0978   25.7756 N   0  0  0  0  0  0  0  0  0  0  0  0
   10.9894  -16.4992   26.9837 C   0  0  1  0  0  0  0  0  0  0  0  0
   10.0295  -15.5130   27.5804 C   0  0  0  0  0  0  0  0  0  0  0  0
    9.9236  -14.2259   26.8099 C   0  0  0  0  0  0  0  0  0  0  0  0
    8.8941  -13.3262   27.4668 C   0  0  0  0  0  0  0  0  0  0  0  0
    8.2793  -13.6567   28.4909 O   0  0  0  0  0  0  0  0  0  0  0  0
   11.2423  -17.5902   27.9288 C   0  0  0  0  0  0  0  0  0  0  0  0
   10.7631  -18.7300   27.7679 O   0  0  0  0  0  0  0  0  0  0  0  0
    8.6765  -12.1035   26.8539 O   0  0  0  0  0  0  0  0  0  0  0  0
   12.0387  -17.3922   29.0584 O   0  0  0  0  0  0  0  0  0  0  0  0
  2  1  1  1
  3  2  1  0
  4  5  1  0
  4  2  1  0
  5  6  1  6
  7  5  1  0
  7  8  2  0
  9 10  1  0
 10 11  2  0
 12 10  1  0
 13 12  1  6
 13 14  1  0
 14  7  1  0
 15 17  1  0
 15 13  1  0
 16 15  2  0
 18 17  1  0
 18 19  1  1
 19 20  1  0
 20 21  1  0
 21 22  2  0
 23 18  1  0
 24 23  2  0
 25 21  1  0
 26 23  1  0
M  END
$$$$
