LNE.pdb
     RDKit          3D

 26 25  0  0  1  0  0  0  0  0999 V2000
    7.4022  -12.6098   18.7001 C   0  0  0  0  0  0  0  0  0  0  0  0
    8.5199  -13.1059   19.5622 C   0  0  1  0  0  0  0  0  0  0  0  0
    8.2091  -12.6593   20.9977 C   0  0  0  0  0  0  0  0  0  0  0  0
    8.6611  -14.5933   19.5899 C   0  0  0  0  0  0  0  0  0  0  0  0
    9.7500  -14.9902   20.5586 C   0  0  2  0  0  0  0  0  0  0  0  0
   10.5803  -13.8202   20.7658 N   0  0  0  0  0  0  0  0  0  0  0  0
   10.6180  -16.0575   20.0155 C   0  0  0  0  0  0  0  0  0  0  0  0
   10.1306  -17.1543   19.6535 O   0  0  0  0  0  0  0  0  0  0  0  0
   14.2217  -13.8560   18.3152 N   0  0  0  0  0  0  0  0  0  0  0  0
   14.5579  -15.2184   18.4855 C   0  0  0  0  0  0  0  0  0  0  0  0
   15.6952  -15.4601   18.9631 O   0  0  0  0  0  0  0  0  0  0  0  0
   13.6447  -16.3098   18.1309 C   0  0  0  0  0  0  0  0  0  0  0  0
   12.8946  -16.8810   19.3134 C   0  0  2  0  0  0  0  0  0  0  0  0
   12.0446  -15.8668   19.8876 N   0  0  0  0  0  0  0  0  0  0  0  0
   13.8184  -17.4763   20.2839 C   0  0  0  0  0  0  0  0  0  0  0  0
   14.5214  -18.4580   19.9389 O   0  0  0  0  0  0  0  0  0  0  0  0
   13.9481  -16.9846   21.5995 N   0  0  0  0  0  0  0  0  0  0  0  0
   14.7410  -17.6439   22.6383 C   0  0  1  0  0  0  0  0  0  0  0  0
   15.8879  -16.7705   23.0529 C   0  0  0  0  0  0  0  0  0  0  0  0
   16.9508  -16.6228   21.9993 C   0  0  0  0  0  0  0  0  0  0  0  0
   18.0619  -15.7327   22.5228 C   0  0  0  0  0  0  0  0  0  0  0  0
   17.8592  -14.8353   23.3531 O   0  0  0  0  0  0  0  0  0  0  0  0
   13.8504  -17.8794   23.7778 C   0  0  0  0  0  0  0  0  0  0  0  0
   12.7047  -17.3904   23.8350 O   0  0  0  0  0  0  0  0  0  0  0  0
   19.3274  -15.9801   22.0175 O   0  0  0  0  0  0  0  0  0  0  0  0
   14.2556  -18.6695   24.8554 O   0  0  0  0  0  0  0  0  0  0  0  0
  2  1  1  6
  3  2  1  0
  4  5  1  0
  4  2  1  0
  5  6  1  6
  7  5  1  0
  7  8  2  0
  9 10  1  0
 10 11  2  0
 12 10  1  0
 13 12  1  6
 13 14  1  0
 14  7  1  0
 15 17  1  0
 15 13  1  0
 16 15  2  0
 18 17  1  0
 18 19  1  1
 19 20  1  0
 20 21  1  0
 21 22  2  0
 23 18  1  0
 24 23  2  0
 25 21  1  0
 26 23  1  0
M  END
$$$$
