RGE.pdb
     RDKit          3D

 25 24  0  0  1  0  0  0  0  0999 V2000
   33.7304  -28.6740  -19.2585 N   0  0  0  0  0  0  0  0  0  0  0  0
   33.7967  -27.3330  -18.7708 C   0  0  0  0  0  0  0  0  0  0  0  0
   34.6687  -26.5532  -19.2925 N   0  0  0  0  0  0  0  0  0  0  0  0
   32.9086  -26.9389  -17.7526 N   0  0  0  0  0  0  0  0  0  0  0  0
   32.1534  -25.7260  -17.8469 C   0  0  0  0  0  0  0  0  0  0  0  0
   31.9019  -25.1385  -16.4737 C   0  0  0  0  0  0  0  0  0  0  0  0
   31.1500  -23.8632  -16.6592 C   0  0  0  0  0  0  0  0  0  0  0  0
   29.9735  -24.0834  -17.5443 C   0  0  2  0  0  0  0  0  0  0  0  0
   30.3130  -24.0212  -18.9412 N   0  0  0  0  0  0  0  0  0  0  0  0
   28.9525  -23.0619  -17.2137 C   0  0  0  0  0  0  0  0  0  0  0  0
   28.4301  -22.9216  -16.0857 O   0  0  0  0  0  0  0  0  0  0  0  0
   34.8050  -25.5681  -19.0544 N   0  0  0  0  0  0  0  0  0  0  0  0
   28.5153  -22.1536  -18.2542 C   0  0  0  0  0  0  0  0  0  0  0  0
   27.5229  -21.1781  -17.8973 C   0  0  0  0  0  0  0  0  0  0  0  0
   26.5751  -20.9293  -18.9664 O   0  0  0  0  0  0  0  0  0  0  0  0
   26.8318  -21.4137  -20.1127 N   0  0  0  0  0  0  0  0  0  0  0  0
   25.3985  -20.1901  -18.8130 C   0  0  2  0  0  0  0  0  0  0  0  0
   24.4836  -20.0107  -19.9722 C   0  0  0  0  0  0  0  0  0  0  0  0
   23.2479  -19.3182  -19.4884 C   0  0  0  0  0  0  0  0  0  0  0  0
   22.2850  -19.0675  -20.5933 C   0  0  0  0  0  0  0  0  0  0  0  0
   21.1206  -18.2704  -20.2059 O   0  0  0  0  0  0  0  0  0  0  0  0
   21.1662  -17.0149  -20.3859 C   0  0  0  0  0  0  0  0  0  0  0  0
   25.2342  -19.1897  -20.9528 O   0  0  0  0  0  0  0  0  0  0  0  0
   25.2070  -19.4088  -22.3242 O   0  0  0  0  0  0  0  0  0  0  0  0
   19.9459  -18.7438  -19.6506 O   0  0  0  0  0  0  0  0  0  0  0  0
  1  2  1  0
  2  3  2  0
  4  2  1  0
  5  4  1  0
  6  5  1  0
  6  7  1  0
  7  8  1  0
  8  9  1  6
 10 12  1  0
 10  8  1  0
 11 10  2  0
 13 14  1  0
 13 12  1  0
 14 16  1  0
 15 14  2  0
 16 17  1  0
 17 22  1  0
 18 19  1  0
 17 18  1  6
 20 24  1  0
 20 19  1  0
 21 20  2  0
 22 25  2  0
 22 23  1  0
M  END
$$$$
