RGE.pdb
     RDKit          3D

 25 24  0  0  1  0  0  0  0  0999 V2000
   26.2686  -20.4364   -9.0589 N   0  0  0  0  0  0  0  0  0  0  0  0
   26.0749  -21.1633  -10.2732 C   0  0  0  0  0  0  0  0  0  0  0  0
   25.0810  -21.9691  -10.3316 N   0  0  0  0  0  0  0  0  0  0  0  0
   26.9759  -20.9591  -11.3349 N   0  0  0  0  0  0  0  0  0  0  0  0
   27.7075  -19.7356  -11.4703 C   0  0  0  0  0  0  0  0  0  0  0  0
   28.5925  -19.7690  -12.6990 C   0  0  0  0  0  0  0  0  0  0  0  0
   27.7171  -20.0291  -13.8789 C   0  0  0  0  0  0  0  0  0  0  0  0
   26.4323  -19.2900  -13.7396 C   0  0  2  0  0  0  0  0  0  0  0  0
   25.3164  -20.1631  -13.4888 N   0  0  0  0  0  0  0  0  0  0  0  0
   26.2127  -18.5127  -14.9817 C   0  0  0  0  0  0  0  0  0  0  0  0
   26.0492  -19.0184  -16.1143 O   0  0  0  0  0  0  0  0  0  0  0  0
   24.8615  -22.5883  -11.1152 N   0  0  0  0  0  0  0  0  0  0  0  0
   26.1820  -17.0666  -14.9007 C   0  0  0  0  0  0  0  0  0  0  0  0
   25.9026  -16.3487  -16.1134 C   0  0  0  0  0  0  0  0  0  0  0  0
   24.7777  -16.9017  -16.8428 O   0  0  0  0  0  0  0  0  0  0  0  0
   25.0165  -17.7924  -17.7170 N   0  0  0  0  0  0  0  0  0  0  0  0
   23.4492  -16.5151  -16.6433 C   0  0  1  0  0  0  0  0  0  0  0  0
   22.3632  -17.1848  -17.4082 C   0  0  0  0  0  0  0  0  0  0  0  0
   21.5080  -17.9406  -16.4396 C   0  0  0  0  0  0  0  0  0  0  0  0
   22.1663  -19.1917  -15.9789 C   0  0  0  0  0  0  0  0  0  0  0  0
   21.3177  -20.0457  -15.1472 O   0  0  0  0  0  0  0  0  0  0  0  0
   20.8055  -19.5446  -14.0997 C   0  0  0  0  0  0  0  0  0  0  0  0
   21.6143  -16.0953  -18.0798 O   0  0  0  0  0  0  0  0  0  0  0  0
   20.7010  -16.3047  -19.1053 O   0  0  0  0  0  0  0  0  0  0  0  0
   21.0036  -21.3722  -15.3801 O   0  0  0  0  0  0  0  0  0  0  0  0
  1  2  1  0
  2  3  2  0
  4  2  1  0
  5  4  1  0
  6  5  1  0
  6  7  1  0
  7  8  1  0
  8  9  1  6
 10 12  1  0
 10  8  1  0
 11 10  2  0
 13 14  1  0
 13 12  1  0
 14 16  1  0
 15 14  2  0
 16 17  1  0
 17 22  1  0
 18 19  1  0
 17 18  1  6
 20 24  1  0
 20 19  1  0
 21 20  2  0
 22 25  2  0
 22 23  1  0
M  END
$$$$
