RGE.pdb
     RDKit          3D

 25 24  0  0  1  0  0  0  0  0999 V2000
   26.8169  -23.7649  -16.0594 N   0  0  0  0  0  0  0  0  0  0  0  0
   26.9159  -23.5340  -17.4655 C   0  0  0  0  0  0  0  0  0  0  0  0
   26.1411  -24.2046  -18.2341 N   0  0  0  0  0  0  0  0  0  0  0  0
   27.8495  -22.5897  -17.9319 N   0  0  0  0  0  0  0  0  0  0  0  0
   28.3498  -21.5504  -17.0834 C   0  0  0  0  0  0  0  0  0  0  0  0
   27.8176  -20.1992  -17.5134 C   0  0  0  0  0  0  0  0  0  0  0  0
   28.2289  -19.2029  -16.4817 C   0  0  0  0  0  0  0  0  0  0  0  0
   27.5809  -19.5144  -15.1781 C   0  0  2  0  0  0  0  0  0  0  0  0
   27.4497  -20.9289  -14.9496 N   0  0  0  0  0  0  0  0  0  0  0  0
   26.2510  -18.8613  -15.1588 C   0  0  0  0  0  0  0  0  0  0  0  0
   26.0580  -17.6413  -15.3574 O   0  0  0  0  0  0  0  0  0  0  0  0
   26.0650  -24.0927  -19.2476 N   0  0  0  0  0  0  0  0  0  0  0  0
   25.0814  -19.6737  -14.8932 C   0  0  0  0  0  0  0  0  0  0  0  0
   23.8014  -19.0271  -14.9812 C   0  0  0  0  0  0  0  0  0  0  0  0
   22.7821  -19.8832  -15.5567 O   0  0  0  0  0  0  0  0  0  0  0  0
   23.0855  -21.0953  -15.7882 N   0  0  0  0  0  0  0  0  0  0  0  0
   21.4886  -19.4571  -15.8720 C   0  0  1  0  0  0  0  0  0  0  0  0
   20.5171  -20.4194  -16.4578 C   0  0  0  0  0  0  0  0  0  0  0  0
   19.1392  -19.8678  -16.2634 C   0  0  0  0  0  0  0  0  0  0  0  0
   18.6962  -19.9706  -14.8478 C   0  0  0  0  0  0  0  0  0  0  0  0
   17.3031  -19.5825  -14.6247 O   0  0  0  0  0  0  0  0  0  0  0  0
   16.6565  -19.0830  -15.5960 C   0  0  0  0  0  0  0  0  0  0  0  0
   20.8757  -20.5288  -17.8925 O   0  0  0  0  0  0  0  0  0  0  0  0
   20.4843  -21.5832  -18.7077 O   0  0  0  0  0  0  0  0  0  0  0  0
   16.5937  -19.7011  -13.4435 O   0  0  0  0  0  0  0  0  0  0  0  0
  1  2  1  0
  2  3  2  0
  4  2  1  0
  5  4  1  0
  6  5  1  0
  6  7  1  0
  7  8  1  0
  8  9  1  6
 10 12  1  0
 10  8  1  0
 11 10  2  0
 13 14  1  0
 13 12  1  0
 14 16  1  0
 15 14  2  0
 16 17  1  0
 17 22  1  0
 18 19  1  0
 17 18  1  6
 20 24  1  0
 20 19  1  0
 21 20  2  0
 22 25  2  0
 22 23  1  0
M  END
$$$$
