RGE.pdb
     RDKit          3D

 25 24  0  0  1  0  0  0  0  0999 V2000
   25.4005  -20.3859   -7.8590 N   0  0  0  0  0  0  0  0  0  0  0  0
   25.1660  -21.1610   -9.0357 C   0  0  0  0  0  0  0  0  0  0  0  0
   23.9600  -21.2504   -9.4581 N   0  0  0  0  0  0  0  0  0  0  0  0
   26.2606  -21.7805   -9.6670 N   0  0  0  0  0  0  0  0  0  0  0  0
   26.7717  -21.3034  -10.9167 C   0  0  0  0  0  0  0  0  0  0  0  0
   25.6848  -21.2812  -11.9712 C   0  0  0  0  0  0  0  0  0  0  0  0
   26.3059  -20.8287  -13.2502 C   0  0  0  0  0  0  0  0  0  0  0  0
   26.2101  -19.3482  -13.3735 C   0  0  2  0  0  0  0  0  0  0  0  0
   25.0956  -18.8035  -12.6444 N   0  0  0  0  0  0  0  0  0  0  0  0
   26.1007  -19.0134  -14.8127 C   0  0  0  0  0  0  0  0  0  0  0  0
   26.8915  -19.4142  -15.6953 O   0  0  0  0  0  0  0  0  0  0  0  0
   23.6472  -21.8142  -10.2517 N   0  0  0  0  0  0  0  0  0  0  0  0
   25.0104  -18.1648  -15.2481 C   0  0  0  0  0  0  0  0  0  0  0  0
   24.9174  -17.8884  -16.6549 C   0  0  0  0  0  0  0  0  0  0  0  0
   23.9219  -18.7069  -17.3199 O   0  0  0  0  0  0  0  0  0  0  0  0
   24.2502  -19.8883  -17.6530 N   0  0  0  0  0  0  0  0  0  0  0  0
   22.6255  -18.2759  -17.6164 C   0  0  1  0  0  0  0  0  0  0  0  0
   21.5874  -19.2699  -18.0004 C   0  0  0  0  0  0  0  0  0  0  0  0
   21.1437  -19.9832  -16.7616 C   0  0  0  0  0  0  0  0  0  0  0  0
   20.0001  -19.2953  -16.1060 C   0  0  0  0  0  0  0  0  0  0  0  0
   19.3780  -20.0611  -15.0254 O   0  0  0  0  0  0  0  0  0  0  0  0
   19.5480  -21.3187  -15.0063 C   0  0  0  0  0  0  0  0  0  0  0  0
   20.4890  -18.4861  -18.6153 O   0  0  0  0  0  0  0  0  0  0  0  0
   19.4722  -19.0482  -19.3767 O   0  0  0  0  0  0  0  0  0  0  0  0
   18.6050  -19.5553  -13.9962 O   0  0  0  0  0  0  0  0  0  0  0  0
  1  2  1  0
  2  3  2  0
  4  2  1  0
  5  4  1  0
  6  5  1  0
  6  7  1  0
  7  8  1  0
  8  9  1  1
 10 12  1  0
 10  8  1  0
 11 10  2  0
 13 14  1  0
 13 12  1  0
 14 16  1  0
 15 14  2  0
 16 17  1  0
 17 22  1  0
 18 19  1  0
 17 18  1  6
 20 24  1  0
 20 19  1  0
 21 20  2  0
 22 25  2  0
 22 23  1  0
M  END
$$$$
