RGE.pdb
     RDKit          3D

 25 24  0  0  1  0  0  0  0  0999 V2000
   18.2617  -28.5952  -13.8027 N   0  0  0  0  0  0  0  0  0  0  0  0
   19.5225  -27.9493  -13.6194 C   0  0  0  0  0  0  0  0  0  0  0  0
   20.3566  -27.9873  -14.5908 N   0  0  0  0  0  0  0  0  0  0  0  0
   19.7826  -27.3087  -12.3936 N   0  0  0  0  0  0  0  0  0  0  0  0
   18.8114  -27.2840  -11.3417 C   0  0  0  0  0  0  0  0  0  0  0  0
   19.3733  -26.6165  -10.1037 C   0  0  0  0  0  0  0  0  0  0  0  0
   18.3034  -26.6200   -9.0638 C   0  0  0  0  0  0  0  0  0  0  0  0
   17.9284  -25.2244   -8.7063 C   0  0  2  0  0  0  0  0  0  0  0  0
   19.0090  -24.5023   -8.0887 N   0  0  0  0  0  0  0  0  0  0  0  0
   16.7584  -25.2814   -7.7990 C   0  0  0  0  0  0  0  0  0  0  0  0
   15.6064  -25.6212   -8.1489 O   0  0  0  0  0  0  0  0  0  0  0  0
   21.2743  -27.5365  -14.6058 N   0  0  0  0  0  0  0  0  0  0  0  0
   16.9398  -24.9225   -6.4072 C   0  0  0  0  0  0  0  0  0  0  0  0
   15.7770  -24.9604   -5.5644 C   0  0  0  0  0  0  0  0  0  0  0  0
   16.0718  -24.6024   -4.1903 O   0  0  0  0  0  0  0  0  0  0  0  0
   17.2923  -24.5089   -3.8494 N   0  0  0  0  0  0  0  0  0  0  0  0
   15.0968  -24.3547   -3.2196 C   0  0  1  0  0  0  0  0  0  0  0  0
   15.5057  -23.9128   -1.8593 C   0  0  0  0  0  0  0  0  0  0  0  0
   14.3785  -23.1269   -1.2656 C   0  0  0  0  0  0  0  0  0  0  0  0
   14.7401  -22.5533    0.0577 C   0  0  0  0  0  0  0  0  0  0  0  0
   13.6711  -21.7785    0.6887 O   0  0  0  0  0  0  0  0  0  0  0  0
   12.5671  -21.6668    0.0727 C   0  0  0  0  0  0  0  0  0  0  0  0
   15.7790  -25.1560   -1.0985 O   0  0  0  0  0  0  0  0  0  0  0  0
   16.6091  -25.2135    0.0138 O   0  0  0  0  0  0  0  0  0  0  0  0
   13.7305  -21.1368    1.9124 O   0  0  0  0  0  0  0  0  0  0  0  0
  1  2  1  0
  2  3  2  0
  4  2  1  0
  5  4  1  0
  6  5  1  0
  6  7  1  0
  7  8  1  0
  8  9  1  1
 10 12  1  0
 10  8  1  0
 11 10  2  0
 13 14  1  0
 13 12  1  0
 14 16  1  0
 15 14  2  0
 16 17  1  0
 17 22  1  0
 18 19  1  0
 17 18  1  1
 20 24  1  0
 20 19  1  0
 21 20  2  0
 22 25  2  0
 22 23  1  0
M  END
$$$$
