RGE.pdb
     RDKit          3D

 25 24  0  0  1  0  0  0  0  0999 V2000
   28.6734  -21.3934  -15.9526 N   0  0  0  0  0  0  0  0  0  0  0  0
   28.2221  -21.5198  -17.3019 C   0  0  0  0  0  0  0  0  0  0  0  0
   29.0828  -21.3486  -18.2350 N   0  0  0  0  0  0  0  0  0  0  0  0
   26.8684  -21.8243  -17.5368 N   0  0  0  0  0  0  0  0  0  0  0  0
   25.8166  -21.1287  -16.8583 C   0  0  0  0  0  0  0  0  0  0  0  0
   26.2011  -20.8359  -15.4229 C   0  0  0  0  0  0  0  0  0  0  0  0
   24.9560  -20.4668  -14.6883 C   0  0  0  0  0  0  0  0  0  0  0  0
   24.3827  -21.6633  -14.0132 C   0  0  2  0  0  0  0  0  0  0  0  0
   23.7835  -22.5870  -14.9396 N   0  0  0  0  0  0  0  0  0  0  0  0
   23.3812  -21.1976  -13.0256 C   0  0  0  0  0  0  0  0  0  0  0  0
   23.5328  -20.2075  -12.2760 O   0  0  0  0  0  0  0  0  0  0  0  0
   28.9047  -21.4544  -19.2363 N   0  0  0  0  0  0  0  0  0  0  0  0
   22.1344  -21.9251  -12.9038 C   0  0  0  0  0  0  0  0  0  0  0  0
   21.1731  -21.4235  -11.9613 C   0  0  0  0  0  0  0  0  0  0  0  0
   19.9663  -22.2265  -11.9142 O   0  0  0  0  0  0  0  0  0  0  0  0
   19.6821  -22.9322  -12.9319 N   0  0  0  0  0  0  0  0  0  0  0  0
   19.0982  -22.2711  -10.8193 C   0  0  1  0  0  0  0  0  0  0  0  0
   18.1520  -23.4098  -10.6742 C   0  0  0  0  0  0  0  0  0  0  0  0
   18.1817  -23.8620   -9.2476 C   0  0  0  0  0  0  0  0  0  0  0  0
   17.2598  -25.0040   -9.0093 C   0  0  0  0  0  0  0  0  0  0  0  0
   17.2392  -25.4808   -7.6261 O   0  0  0  0  0  0  0  0  0  0  0  0
   18.0026  -24.9147   -6.7849 C   0  0  0  0  0  0  0  0  0  0  0  0
   16.8228  -22.8793  -11.0625 O   0  0  0  0  0  0  0  0  0  0  0  0
   15.8352  -23.6426  -11.6720 O   0  0  0  0  0  0  0  0  0  0  0  0
   16.4617  -26.5062   -7.1195 O   0  0  0  0  0  0  0  0  0  0  0  0
  1  2  1  0
  2  3  2  0
  4  2  1  0
  5  4  1  0
  6  5  1  0
  6  7  1  0
  7  8  1  0
  8  9  1  6
 10 12  1  0
 10  8  1  0
 11 10  2  0
 13 14  1  0
 13 12  1  0
 14 16  1  0
 15 14  2  0
 16 17  1  0
 17 22  1  0
 18 19  1  0
 17 18  1  6
 20 24  1  0
 20 19  1  0
 21 20  2  0
 22 25  2  0
 22 23  1  0
M  END
$$$$
