RGE.pdb
     RDKit          3D

 25 24  0  0  1  0  0  0  0  0999 V2000
   25.7911  -24.1675  -15.4538 N   0  0  0  0  0  0  0  0  0  0  0  0
   25.1700  -24.5495  -16.6821 C   0  0  0  0  0  0  0  0  0  0  0  0
   25.2072  -25.7879  -17.0070 N   0  0  0  0  0  0  0  0  0  0  0  0
   24.5533  -23.5564  -17.4658 N   0  0  0  0  0  0  0  0  0  0  0  0
   24.1650  -22.2965  -16.9071 C   0  0  0  0  0  0  0  0  0  0  0  0
   22.6960  -22.2993  -16.5384 C   0  0  0  0  0  0  0  0  0  0  0  0
   22.3533  -20.9356  -16.0391 C   0  0  0  0  0  0  0  0  0  0  0  0
   22.8197  -20.7693  -14.6352 C   0  0  2  0  0  0  0  0  0  0  0  0
   23.6969  -21.8294  -14.2144 N   0  0  0  0  0  0  0  0  0  0  0  0
   21.6262  -20.7065  -13.7593 C   0  0  0  0  0  0  0  0  0  0  0  0
   20.8385  -19.7362  -13.7037 O   0  0  0  0  0  0  0  0  0  0  0  0
   24.7886  -26.1964  -17.8457 N   0  0  0  0  0  0  0  0  0  0  0  0
   21.3341  -21.8359  -12.9004 C   0  0  0  0  0  0  0  0  0  0  0  0
   20.2099  -21.7112  -12.0145 C   0  0  0  0  0  0  0  0  0  0  0  0
   19.8910  -22.9542  -11.3391 O   0  0  0  0  0  0  0  0  0  0  0  0
   20.4159  -24.0231  -11.7826 N   0  0  0  0  0  0  0  0  0  0  0  0
   19.0426  -23.0482  -10.2320 C   0  0  1  0  0  0  0  0  0  0  0  0
   18.8945  -24.3483   -9.5243 C   0  0  0  0  0  0  0  0  0  0  0  0
   18.4078  -24.0710   -8.1362 C   0  0  0  0  0  0  0  0  0  0  0  0
   18.1636  -25.3243   -7.3744 C   0  0  0  0  0  0  0  0  0  0  0  0
   17.7428  -25.1126   -5.9890 O   0  0  0  0  0  0  0  0  0  0  0  0
   17.7298  -23.9254   -5.5406 C   0  0  0  0  0  0  0  0  0  0  0  0
   17.9098  -25.1258  -10.3147 O   0  0  0  0  0  0  0  0  0  0  0  0
   18.0066  -26.4934  -10.5380 O   0  0  0  0  0  0  0  0  0  0  0  0
   17.3481  -26.0864   -5.0898 O   0  0  0  0  0  0  0  0  0  0  0  0
  1  2  1  0
  2  3  2  0
  4  2  1  0
  5  4  1  0
  6  5  1  0
  6  7  1  0
  7  8  1  0
  8  9  1  1
 10 12  1  0
 10  8  1  0
 11 10  2  0
 13 14  1  0
 13 12  1  0
 14 16  1  0
 15 14  2  0
 16 17  1  0
 17 22  1  0
 18 19  1  0
 17 18  1  6
 20 24  1  0
 20 19  1  0
 21 20  2  0
 22 25  2  0
 22 23  1  0
M  END
$$$$
