IML.pdb
     RDKit          3D

 25 24  0  0  1  0  0  0  0  0999 V2000
    7.6584  -12.1357   18.8340 C   0  0  0  0  0  0  0  0  0  0  0  0
    7.9766  -13.5852   19.0293 C   0  0  0  0  0  0  0  0  0  0  0  0
    7.8744  -14.0381   20.4631 C   0  0  2  0  0  0  0  0  0  0  0  0
    8.7961  -13.3287   21.3921 C   0  0  0  0  0  0  0  0  0  0  0  0
    8.2237  -15.5190   20.4944 C   0  0  2  0  0  0  0  0  0  0  0  0
    7.3849  -16.2777   19.5930 N   0  0  0  0  0  0  0  0  0  0  0  0
    8.1040  -16.0879   21.8590 C   0  0  0  0  0  0  0  0  0  0  0  0
    6.9942  -16.2995   22.4170 O   0  0  0  0  0  0  0  0  0  0  0  0
   11.3470  -21.0560   24.2416 C   0  0  0  0  0  0  0  0  0  0  0  0
   11.4461  -19.9526   25.6764 S   0  0  0  0  0  0  0  0  0  0  0  0
   10.2392  -18.5868   25.5098 C   0  0  0  0  0  0  0  0  0  0  0  0
   10.2006  -18.0715   24.1059 C   0  0  0  0  0  0  0  0  0  0  0  0
    9.2150  -16.9759   23.9656 C   0  0  2  0  0  0  0  0  0  0  0  0
    9.2526  -16.4235   22.6064 N   0  0  0  0  0  0  0  0  0  0  0  0
    9.4993  -15.8632   24.8642 C   0  0  0  0  0  0  0  0  0  0  0  0
   10.4850  -15.0927   24.5968 O   0  0  0  0  0  0  0  0  0  0  0  0
    8.4899  -11.9850   25.4097 C   0  0  0  0  0  0  0  0  0  0  0  0
    7.4635  -12.8633   26.0873 C   0  0  2  0  0  0  0  0  0  0  0  0
    6.1545  -12.2125   26.3382 C   0  0  0  0  0  0  0  0  0  0  0  0
    7.9794  -13.6987   27.1908 C   0  0  0  0  0  0  0  0  0  0  0  0
    9.2085  -14.5110   26.9531 C   0  0  2  0  0  0  0  0  0  0  0  0
    8.7591  -15.5686   26.0045 N   0  0  0  0  0  0  0  0  0  0  0  0
    9.8327  -15.1202   28.1190 C   0  0  0  0  0  0  0  0  0  0  0  0
    9.8336  -16.4911   28.4102 O   0  0  0  0  0  0  0  0  0  0  0  0
   10.4286  -14.4019   28.9657 O   0  0  0  0  0  0  0  0  0  0  0  0
  1  2  1  0
  3  4  1  1
  3  2  1  0
  5  3  1  0
  5  6  1  6
  7  5  1  0
  8  7  2  0
 10 11  1  0
 10  9  1  0
 11 12  1  0
 13 12  1  6
 13 14  1  0
 14  7  1  0
 15 22  1  0
 15 13  1  0
 16 15  2  0
 18 19  1  1
 18 17  1  0
 20 18  1  0
 21 20  1  1
 21 22  1  0
 23 24  1  0
 23 21  1  0
 25 23  2  0
M  END
$$$$
