IML.pdb
     RDKit          3D

 25 24  0  0  1  0  0  0  0  0999 V2000
    6.4797  -20.6007   28.0242 C   0  0  0  0  0  0  0  0  0  0  0  0
    6.4081  -20.4683   26.5351 C   0  0  0  0  0  0  0  0  0  0  0  0
    7.2501  -19.3446   25.9874 C   0  0  2  0  0  0  0  0  0  0  0  0
    6.8482  -17.9940   26.4670 C   0  0  0  0  0  0  0  0  0  0  0  0
    7.1039  -19.3682   24.4727 C   0  0  2  0  0  0  0  0  0  0  0  0
    7.2015  -20.7149   23.9545 N   0  0  0  0  0  0  0  0  0  0  0  0
    8.1202  -18.5191   23.8046 C   0  0  0  0  0  0  0  0  0  0  0  0
    9.3241  -18.8677   23.6742 O   0  0  0  0  0  0  0  0  0  0  0  0
    7.6577  -12.4594   20.1814 C   0  0  0  0  0  0  0  0  0  0  0  0
    6.3877  -13.3965   21.0731 S   0  0  0  0  0  0  0  0  0  0  0  0
    7.1623  -14.4654   22.3408 C   0  0  0  0  0  0  0  0  0  0  0  0
    8.1146  -15.4360   21.7170 C   0  0  0  0  0  0  0  0  0  0  0  0
    8.7474  -16.2973   22.7414 C   0  0  2  0  0  0  0  0  0  0  0  0
    7.7747  -17.2579   23.2753 N   0  0  0  0  0  0  0  0  0  0  0  0
    9.2285  -15.5290   23.8836 C   0  0  0  0  0  0  0  0  0  0  0  0
   10.2873  -14.8236   23.7486 O   0  0  0  0  0  0  0  0  0  0  0  0
    7.9938  -11.9525   25.4437 C   0  0  0  0  0  0  0  0  0  0  0  0
    7.1826  -13.0745   26.0497 C   0  0  2  0  0  0  0  0  0  0  0  0
    5.8806  -12.6607   26.6273 C   0  0  0  0  0  0  0  0  0  0  0  0
    7.9530  -14.0468   26.8514 C   0  0  0  0  0  0  0  0  0  0  0  0
    9.1588  -14.6771   26.2385 C   0  0  2  0  0  0  0  0  0  0  0  0
    8.6049  -15.4999   25.1266 N   0  0  0  0  0  0  0  0  0  0  0  0
    9.9845  -15.5044   27.1068 C   0  0  0  0  0  0  0  0  0  0  0  0
   10.8853  -15.0203   28.0651 O   0  0  0  0  0  0  0  0  0  0  0  0
    9.9252  -16.7607   27.0275 O   0  0  0  0  0  0  0  0  0  0  0  0
  1  2  1  0
  3  4  1  1
  3  2  1  0
  5  3  1  0
  5  6  1  6
  7  5  1  0
  8  7  2  0
 10 11  1  0
 10  9  1  0
 11 12  1  0
 13 12  1  6
 13 14  1  0
 14  7  1  0
 15 22  1  0
 15 13  1  0
 16 15  2  0
 18 19  1  1
 18 17  1  0
 20 18  1  0
 21 20  1  1
 21 22  1  0
 23 24  1  0
 23 21  1  0
 25 23  2  0
M  END
$$$$
