IML.pdb
     RDKit          3D

 25 24  0  0  1  0  0  0  0  0999 V2000
    9.7441  -22.0218   21.6815 C   0  0  0  0  0  0  0  0  0  0  0  0
    8.9872  -20.7907   21.2916 C   0  0  0  0  0  0  0  0  0  0  0  0
    9.3328  -19.5811   22.1216 C   0  0  2  0  0  0  0  0  0  0  0  0
    9.0661  -19.7457   23.5767 C   0  0  0  0  0  0  0  0  0  0  0  0
    8.4792  -18.4275   21.6149 C   0  0  2  0  0  0  0  0  0  0  0  0
    8.5753  -18.2918   20.1782 N   0  0  0  0  0  0  0  0  0  0  0  0
    8.8558  -17.1399   22.2476 C   0  0  0  0  0  0  0  0  0  0  0  0
    9.8461  -16.4571   21.8723 O   0  0  0  0  0  0  0  0  0  0  0  0
    6.1387  -11.1335   26.6337 C   0  0  0  0  0  0  0  0  0  0  0  0
    5.8362  -12.7783   25.9344 S   0  0  0  0  0  0  0  0  0  0  0  0
    7.3660  -13.4344   25.1736 C   0  0  0  0  0  0  0  0  0  0  0  0
    7.1313  -14.7835   24.5712 C   0  0  0  0  0  0  0  0  0  0  0  0
    8.3631  -15.3087   23.9401 C   0  0  2  0  0  0  0  0  0  0  0  0
    8.1049  -16.6135   23.3197 N   0  0  0  0  0  0  0  0  0  0  0  0
    9.4287  -15.5247   24.9118 C   0  0  0  0  0  0  0  0  0  0  0  0
   10.1862  -14.5417   25.2230 O   0  0  0  0  0  0  0  0  0  0  0  0
    9.6944  -14.3590   29.6294 C   0  0  0  0  0  0  0  0  0  0  0  0
   10.4513  -14.9291   28.4521 C   0  0  2  0  0  0  0  0  0  0  0  0
   11.0364  -13.9177   27.5384 C   0  0  0  0  0  0  0  0  0  0  0  0
    9.8124  -16.0863   27.7932 C   0  0  0  0  0  0  0  0  0  0  0  0
   10.5729  -16.8101   26.7326 C   0  0  2  0  0  0  0  0  0  0  0  0
    9.6797  -16.7391   25.5419 N   0  0  0  0  0  0  0  0  0  0  0  0
   10.9303  -18.1950   27.0052 C   0  0  0  0  0  0  0  0  0  0  0  0
   10.1867  -19.3140   26.6065 O   0  0  0  0  0  0  0  0  0  0  0  0
   11.9791  -18.4627   27.6505 O   0  0  0  0  0  0  0  0  0  0  0  0
  1  2  1  0
  3  4  1  1
  3  2  1  0
  5  3  1  0
  5  6  1  6
  7  5  1  0
  8  7  2  0
 10 11  1  0
 10  9  1  0
 11 12  1  0
 13 12  1  1
 13 14  1  0
 14  7  1  0
 15 22  1  0
 15 13  1  0
 16 15  2  0
 18 19  1  6
 18 17  1  0
 20 18  1  0
 21 20  1  1
 21 22  1  0
 23 24  1  0
 23 21  1  0
 25 23  2  0
M  END
$$$$
