IML.pdb
     RDKit          3D

 25 24  0  0  1  0  0  0  0  0999 V2000
    7.1887  -22.4973   25.1423 C   0  0  0  0  0  0  0  0  0  0  0  0
    6.4860  -21.3418   24.5010 C   0  0  0  0  0  0  0  0  0  0  0  0
    7.3091  -20.0799   24.4632 C   0  0  2  0  0  0  0  0  0  0  0  0
    7.7451  -19.5980   25.8024 C   0  0  0  0  0  0  0  0  0  0  0  0
    6.4459  -18.9969   23.8322 C   0  0  2  0  0  0  0  0  0  0  0  0
    5.8789  -19.4391   22.5774 N   0  0  0  0  0  0  0  0  0  0  0  0
    7.2073  -17.7447   23.6032 C   0  0  0  0  0  0  0  0  0  0  0  0
    8.1067  -17.6415   22.7268 O   0  0  0  0  0  0  0  0  0  0  0  0
    5.1676  -12.1220   26.1021 C   0  0  0  0  0  0  0  0  0  0  0  0
    6.8403  -11.5864   25.6534 S   0  0  0  0  0  0  0  0  0  0  0  0
    7.7450  -12.9517   24.8366 C   0  0  0  0  0  0  0  0  0  0  0  0
    6.9755  -14.2320   24.9194 C   0  0  0  0  0  0  0  0  0  0  0  0
    7.6955  -15.3331   24.2406 C   0  0  2  0  0  0  0  0  0  0  0  0
    6.9511  -16.5910   24.3737 N   0  0  0  0  0  0  0  0  0  0  0  0
    9.0087  -15.5741   24.8271 C   0  0  0  0  0  0  0  0  0  0  0  0
    9.9437  -14.7281   24.6110 O   0  0  0  0  0  0  0  0  0  0  0  0
   10.2946  -14.5947   29.7340 C   0  0  0  0  0  0  0  0  0  0  0  0
   10.5568  -14.8802   28.2732 C   0  0  2  0  0  0  0  0  0  0  0  0
   10.3041  -13.7391   27.3599 C   0  0  0  0  0  0  0  0  0  0  0  0
   10.0833  -16.1946   27.7936 C   0  0  0  0  0  0  0  0  0  0  0  0
   10.5535  -16.6772   26.4620 C   0  0  2  0  0  0  0  0  0  0  0  0
    9.3210  -16.6701   25.6246 N   0  0  0  0  0  0  0  0  0  0  0  0
   11.1771  -17.9922   26.4191 C   0  0  0  0  0  0  0  0  0  0  0  0
   12.5516  -18.2381   26.5393 O   0  0  0  0  0  0  0  0  0  0  0  0
   10.4701  -19.0231   26.2594 O   0  0  0  0  0  0  0  0  0  0  0  0
  1  2  1  0
  3  4  1  1
  3  2  1  0
  5  3  1  0
  5  6  1  6
  7  5  1  0
  8  7  2  0
 10 11  1  0
 10  9  1  0
 11 12  1  0
 13 12  1  1
 13 14  1  0
 14  7  1  0
 15 22  1  0
 15 13  1  0
 16 15  2  0
 18 19  1  6
 18 17  1  0
 20 18  1  0
 21 20  1  1
 21 22  1  0
 23 24  1  0
 23 21  1  0
 25 23  2  0
M  END
$$$$
