IML.pdb
     RDKit          3D

 25 24  0  0  1  0  0  0  0  0999 V2000
    7.7802  -21.6193   18.7580 C   0  0  0  0  0  0  0  0  0  0  0  0
    7.6366  -20.8204   20.0156 C   0  0  0  0  0  0  0  0  0  0  0  0
    8.5541  -19.6264   20.0806 C   0  0  2  0  0  0  0  0  0  0  0  0
    9.9902  -19.9504   19.8609 C   0  0  0  0  0  0  0  0  0  0  0  0
    8.4153  -19.0261   21.4722 C   0  0  2  0  0  0  0  0  0  0  0  0
    7.0336  -18.7355   21.7856 N   0  0  0  0  0  0  0  0  0  0  0  0
    9.2154  -17.7862   21.6232 C   0  0  0  0  0  0  0  0  0  0  0  0
   10.4529  -17.7381   21.3902 O   0  0  0  0  0  0  0  0  0  0  0  0
    7.4372  -11.6877   20.3677 C   0  0  0  0  0  0  0  0  0  0  0  0
    7.4283  -13.1482   19.2940 S   0  0  0  0  0  0  0  0  0  0  0  0
    8.2380  -14.5578   20.1350 C   0  0  0  0  0  0  0  0  0  0  0  0
    8.5877  -14.2121   21.5479 C   0  0  0  0  0  0  0  0  0  0  0  0
    9.3329  -15.3133   22.1987 C   0  0  2  0  0  0  0  0  0  0  0  0
    8.6119  -16.5822   22.0430 N   0  0  0  0  0  0  0  0  0  0  0  0
    9.4803  -15.1034   23.6342 C   0  0  0  0  0  0  0  0  0  0  0  0
   10.4523  -14.3855   24.0544 O   0  0  0  0  0  0  0  0  0  0  0  0
    7.9790  -12.3476   26.3172 C   0  0  0  0  0  0  0  0  0  0  0  0
    7.0544  -13.5003   26.0001 C   0  0  2  0  0  0  0  0  0  0  0  0
    5.6110  -13.2083   26.1769 C   0  0  0  0  0  0  0  0  0  0  0  0
    7.5007  -14.8194   26.4925 C   0  0  0  0  0  0  0  0  0  0  0  0
    8.8262  -15.3356   26.0414 C   0  0  2  0  0  0  0  0  0  0  0  0
    8.6216  -15.6279   24.5947 N   0  0  0  0  0  0  0  0  0  0  0  0
    9.3402  -16.5168   26.7202 C   0  0  0  0  0  0  0  0  0  0  0  0
    9.6567  -17.7319   26.0978 O   0  0  0  0  0  0  0  0  0  0  0  0
    9.5297  -16.4985   27.9660 O   0  0  0  0  0  0  0  0  0  0  0  0
  1  2  1  0
  3  4  1  1
  3  2  1  0
  5  3  1  0
  5  6  1  6
  7  5  1  0
  8  7  2  0
 10 11  1  0
 10  9  1  0
 11 12  1  0
 13 12  1  1
 13 14  1  0
 14  7  1  0
 15 22  1  0
 15 13  1  0
 16 15  2  0
 18 19  1  1
 18 17  1  0
 20 18  1  0
 21 20  1  1
 21 22  1  0
 23 24  1  0
 23 21  1  0
 25 23  2  0
M  END
$$$$
