IML.pdb
     RDKit          3D

 25 24  0  0  1  0  0  0  0  0999 V2000
    7.4138  -13.0149   17.6218 C   0  0  0  0  0  0  0  0  0  0  0  0
    7.9282  -14.0643   18.5570 C   0  0  0  0  0  0  0  0  0  0  0  0
    8.1518  -13.5647   19.9612 C   0  0  2  0  0  0  0  0  0  0  0  0
    9.1288  -12.4462   20.0605 C   0  0  0  0  0  0  0  0  0  0  0  0
    8.6901  -14.7326   20.7751 C   0  0  2  0  0  0  0  0  0  0  0  0
    7.8140  -15.8803   20.6937 N   0  0  0  0  0  0  0  0  0  0  0  0
    8.8824  -14.3723   22.2011 C   0  0  0  0  0  0  0  0  0  0  0  0
    9.6081  -13.4113   22.5721 O   0  0  0  0  0  0  0  0  0  0  0  0
    6.6908  -11.4156   26.6436 C   0  0  0  0  0  0  0  0  0  0  0  0
    5.4715  -12.6560   26.1329 S   0  0  0  0  0  0  0  0  0  0  0  0
    6.1294  -13.6597   24.7511 C   0  0  0  0  0  0  0  0  0  0  0  0
    6.9724  -14.7865   25.2587 C   0  0  0  0  0  0  0  0  0  0  0  0
    8.3214  -14.7613   24.6495 C   0  0  2  0  0  0  0  0  0  0  0  0
    8.2470  -15.1062   23.2249 N   0  0  0  0  0  0  0  0  0  0  0  0
    9.2169  -15.7383   25.2577 C   0  0  0  0  0  0  0  0  0  0  0  0
    9.7623  -16.6219   24.5104 O   0  0  0  0  0  0  0  0  0  0  0  0
   11.3306  -13.7571   27.9371 C   0  0  0  0  0  0  0  0  0  0  0  0
   10.5796  -14.7791   28.7592 C   0  0  2  0  0  0  0  0  0  0  0  0
   10.4391  -14.4414   30.1966 C   0  0  0  0  0  0  0  0  0  0  0  0
   10.9107  -16.1886   28.4672 C   0  0  0  0  0  0  0  0  0  0  0  0
   10.5336  -16.7466   27.1355 C   0  0  2  0  0  0  0  0  0  0  0  0
    9.5332  -15.7743   26.6118 N   0  0  0  0  0  0  0  0  0  0  0  0
    9.9774  -18.0921   27.1171 C   0  0  0  0  0  0  0  0  0  0  0  0
    8.6445  -18.4106   26.8236 O   0  0  0  0  0  0  0  0  0  0  0  0
   10.7091  -19.0831   27.3828 O   0  0  0  0  0  0  0  0  0  0  0  0
  1  2  1  0
  3  4  1  6
  3  2  1  0
  5  3  1  0
  5  6  1  1
  7  5  1  0
  8  7  2  0
 10 11  1  0
 10  9  1  0
 11 12  1  0
 13 12  1  1
 13 14  1  0
 14  7  1  0
 15 22  1  0
 15 13  1  0
 16 15  2  0
 18 19  1  1
 18 17  1  0
 20 18  1  0
 21 20  1  1
 21 22  1  0
 23 24  1  0
 23 21  1  0
 25 23  2  0
M  END
$$$$
