RIA.pdb
     RDKit          3D

 25 24  0  0  1  0  0  0  0  0999 V2000
   18.0254  -15.1820  -22.0421 N   0  0  0  0  0  0  0  0  0  0  0  0
   17.0029  -15.9833  -21.4110 C   0  0  0  0  0  0  0  0  0  0  0  0
   16.6559  -17.1009  -21.9523 N   0  0  0  0  0  0  0  0  0  0  0  0
   16.3761  -15.5690  -20.2188 N   0  0  0  0  0  0  0  0  0  0  0  0
   16.7282  -14.2941  -19.5638 C   0  0  0  0  0  0  0  0  0  0  0  0
   18.0518  -14.4754  -18.8909 C   0  0  0  0  0  0  0  0  0  0  0  0
   18.5718  -13.3170  -18.1122 C   0  0  0  0  0  0  0  0  0  0  0  0
   19.8950  -13.5151  -17.4333 C   0  0  2  0  0  0  0  0  0  0  0  0
   19.8927  -14.7810  -16.7417 N   0  0  0  0  0  0  0  0  0  0  0  0
   20.0932  -12.4364  -16.4028 C   0  0  0  0  0  0  0  0  0  0  0  0
   19.4124  -12.4390  -15.3604 O   0  0  0  0  0  0  0  0  0  0  0  0
   15.9430  -17.7548  -21.5839 C   0  0  0  0  0  0  0  0  0  0  0  0
   24.4022  -11.6340  -13.8985 C   0  0  0  0  0  0  0  0  0  0  0  0
   22.9918  -11.5690  -14.3587 C   0  0  2  0  0  0  0  0  0  0  0  0
   22.5366  -10.2796  -14.9469 C   0  0  0  0  0  0  0  0  0  0  0  0
   22.7295   -9.1035  -14.0187 C   0  0  2  0  0  0  0  0  0  0  0  0
   21.1869  -10.3125  -15.6120 N   0  0  0  0  0  0  0  0  0  0  0  0
   21.0530  -11.3863  -16.5783 C   0  0  0  0  0  0  0  0  0  0  0  0
   20.9463   -8.9892  -16.2346 O   0  0  0  0  0  0  0  0  0  0  0  0
   21.6495   -8.5624  -17.1926 C   0  0  0  0  0  0  0  0  0  0  0  0
   18.1737   -6.5477  -15.8656 C   0  0  2  0  0  0  0  0  0  0  0  0
   19.6332   -6.8389  -16.2461 N   0  0  0  0  0  0  0  0  0  0  0  0
   19.9022   -8.1722  -15.7531 C   0  0  0  0  0  0  0  0  0  0  0  0
   20.4518   -5.8037  -15.5891 O   0  0  0  0  0  0  0  0  0  0  0  0
   20.9158   -5.9281  -14.4308 O   0  0  0  0  0  0  0  0  0  0  0  0
  1  2  1  0
  2  3  2  0
  4  5  1  0
  4  2  1  0
  6  7  1  0
  6  5  1  0
  8  7  1  0
  8  9  1  1
  8 10  1  0
 10 11  2  0
 13 12  1  0
 14 13  1  0
 14 15  1  6
 16 14  1  0
 16 17  1  1
 17 10  1  0
 18 19  2  0
 18 16  1  0
 21 20  1  6
 21 22  1  0
 22 18  1  0
 23 25  1  0
 23 21  1  0
 24 23  2  0
M  END
$$$$
