RIA.pdb
     RDKit          3D

 25 24  0  0  1  0  0  0  0  0999 V2000
   24.6746  -16.7005  -18.9377 N   0  0  0  0  0  0  0  0  0  0  0  0
   23.5586  -16.7089  -18.0209 C   0  0  0  0  0  0  0  0  0  0  0  0
   22.3582  -16.6816  -18.4907 N   0  0  0  0  0  0  0  0  0  0  0  0
   23.7540  -16.7443  -16.6258 N   0  0  0  0  0  0  0  0  0  0  0  0
   24.5612  -17.8011  -15.9856 C   0  0  0  0  0  0  0  0  0  0  0  0
   24.2564  -19.0921  -16.6769 C   0  0  0  0  0  0  0  0  0  0  0  0
   24.3159  -20.3272  -15.8465 C   0  0  0  0  0  0  0  0  0  0  0  0
   25.4299  -20.3988  -14.8440 C   0  0  2  0  0  0  0  0  0  0  0  0
   26.5540  -21.0896  -15.4270 N   0  0  0  0  0  0  0  0  0  0  0  0
   24.9768  -21.1968  -13.6512 C   0  0  0  0  0  0  0  0  0  0  0  0
   24.8005  -22.4249  -13.7547 O   0  0  0  0  0  0  0  0  0  0  0  0
   21.4893  -16.6747  -17.9279 C   0  0  0  0  0  0  0  0  0  0  0  0
   26.3231  -19.8324   -8.6967 C   0  0  0  0  0  0  0  0  0  0  0  0
   25.8240  -20.8508   -9.6554 C   0  0  2  0  0  0  0  0  0  0  0  0
   24.3651  -20.8367   -9.9505 C   0  0  0  0  0  0  0  0  0  0  0  0
   23.5341  -21.4776   -8.8639 C   0  0  2  0  0  0  0  0  0  0  0  0
   23.9819  -21.2672  -11.3408 N   0  0  0  0  0  0  0  0  0  0  0  0
   24.7354  -20.5863  -12.3768 C   0  0  0  0  0  0  0  0  0  0  0  0
   22.5238  -21.0576  -11.5039 O   0  0  0  0  0  0  0  0  0  0  0  0
   22.0029  -19.9084  -11.4540 C   0  0  0  0  0  0  0  0  0  0  0  0
   19.7988  -23.3603  -12.5445 C   0  0  2  0  0  0  0  0  0  0  0  0
   20.2413  -22.0725  -11.8334 N   0  0  0  0  0  0  0  0  0  0  0  0
   21.6808  -22.1670  -11.7239 C   0  0  0  0  0  0  0  0  0  0  0  0
   19.5617  -22.0618  -10.5252 O   0  0  0  0  0  0  0  0  0  0  0  0
   20.0949  -22.4827   -9.4711 O   0  0  0  0  0  0  0  0  0  0  0  0
  1  2  1  0
  2  3  2  0
  4  5  1  0
  4  2  1  0
  6  7  1  0
  6  5  1  0
  8  7  1  0
  8  9  1  6
  8 10  1  0
 10 11  2  0
 13 12  1  0
 14 13  1  0
 14 15  1  6
 16 14  1  0
 16 17  1  6
 17 10  1  0
 18 19  2  0
 18 16  1  0
 21 20  1  6
 21 22  1  0
 22 18  1  0
 23 25  1  0
 23 21  1  0
 24 23  2  0
M  END
$$$$
