RIA.pdb
     RDKit          3D

 25 24  0  0  1  0  0  0  0  0999 V2000
   15.1972  -24.4967   -4.4439 N   0  0  0  0  0  0  0  0  0  0  0  0
   16.0461  -25.4673   -3.7932 C   0  0  0  0  0  0  0  0  0  0  0  0
   15.9220  -25.6615   -2.5246 N   0  0  0  0  0  0  0  0  0  0  0  0
   17.0069  -26.2038   -4.5143 N   0  0  0  0  0  0  0  0  0  0  0  0
   17.2932  -25.9183   -5.9337 C   0  0  0  0  0  0  0  0  0  0  0  0
   18.2347  -24.7571   -5.9863 C   0  0  0  0  0  0  0  0  0  0  0  0
   17.9666  -23.7235   -7.0247 C   0  0  0  0  0  0  0  0  0  0  0  0
   18.4040  -24.0573   -8.4205 C   0  0  2  0  0  0  0  0  0  0  0  0
   19.5348  -24.9513   -8.3663 N   0  0  0  0  0  0  0  0  0  0  0  0
   18.8530  -22.8007   -9.1163 C   0  0  0  0  0  0  0  0  0  0  0  0
   18.0928  -21.8165   -9.1754 O   0  0  0  0  0  0  0  0  0  0  0  0
   16.4249  -26.3774   -1.9711 C   0  0  0  0  0  0  0  0  0  0  0  0
   23.8501  -20.8834   -8.4296 C   0  0  0  0  0  0  0  0  0  0  0  0
   22.4162  -21.1443   -8.7145 C   0  0  2  0  0  0  0  0  0  0  0  0
   22.0004  -21.1182  -10.1435 C   0  0  0  0  0  0  0  0  0  0  0  0
   22.4588  -19.8766  -10.8719 C   0  0  2  0  0  0  0  0  0  0  0  0
   20.5630  -21.4795  -10.4059 N   0  0  0  0  0  0  0  0  0  0  0  0
   20.1461  -22.6910   -9.7254 C   0  0  0  0  0  0  0  0  0  0  0  0
   20.3743  -21.5882  -11.8718 O   0  0  0  0  0  0  0  0  0  0  0  0
   21.1236  -22.3055  -12.5920 C   0  0  0  0  0  0  0  0  0  0  0  0
   17.6260  -21.1269  -14.1308 C   0  0  2  0  0  0  0  0  0  0  0  0
   19.1212  -20.8403  -13.9258 N   0  0  0  0  0  0  0  0  0  0  0  0
   19.3284  -20.8753  -12.4944 C   0  0  0  0  0  0  0  0  0  0  0  0
   19.3779  -19.5134  -14.5146 O   0  0  0  0  0  0  0  0  0  0  0  0
   19.5552  -18.4798  -13.8270 O   0  0  0  0  0  0  0  0  0  0  0  0
  1  2  1  0
  2  3  2  0
  4  5  1  0
  4  2  1  0
  6  7  1  0
  6  5  1  0
  8  7  1  0
  8  9  1  1
  8 10  1  0
 10 11  2  0
 13 12  1  0
 14 13  1  0
 14 15  1  6
 16 14  1  0
 16 17  1  1
 17 10  1  0
 18 19  2  0
 18 16  1  0
 21 20  1  6
 21 22  1  0
 22 18  1  0
 23 25  1  0
 23 21  1  0
 24 23  2  0
M  END
$$$$
