RIA.pdb
     RDKit          3D

 25 24  0  0  1  0  0  0  0  0999 V2000
   32.6261  -24.2894  -18.0304 N   0  0  0  0  0  0  0  0  0  0  0  0
   31.5240  -23.3584  -18.0985 C   0  0  0  0  0  0  0  0  0  0  0  0
   30.9750  -23.1156  -19.2395 N   0  0  0  0  0  0  0  0  0  0  0  0
   31.0381  -22.7094  -16.9459 N   0  0  0  0  0  0  0  0  0  0  0  0
   29.7539  -23.0923  -16.3274 C   0  0  0  0  0  0  0  0  0  0  0  0
   28.7603  -22.0164  -16.6321 C   0  0  0  0  0  0  0  0  0  0  0  0
   27.7154  -21.7581  -15.6024 C   0  0  0  0  0  0  0  0  0  0  0  0
   27.2301  -22.9534  -14.8363 C   0  0  2  0  0  0  0  0  0  0  0  0
   26.8593  -23.9960  -15.7616 N   0  0  0  0  0  0  0  0  0  0  0  0
   25.9978  -22.5797  -14.0574 C   0  0  0  0  0  0  0  0  0  0  0  0
   24.9146  -23.1442  -14.2981 O   0  0  0  0  0  0  0  0  0  0  0  0
   30.1540  -22.5050  -19.3971 C   0  0  0  0  0  0  0  0  0  0  0  0
   27.0158  -20.4498   -9.1681 C   0  0  0  0  0  0  0  0  0  0  0  0
   26.2569  -21.3039  -10.1167 C   0  0  2  0  0  0  0  0  0  0  0  0
   25.1859  -20.6394  -10.9087 C   0  0  0  0  0  0  0  0  0  0  0  0
   23.9733  -20.2806  -10.0823 C   0  0  2  0  0  0  0  0  0  0  0  0
   24.8527  -21.2931  -12.2228 N   0  0  0  0  0  0  0  0  0  0  0  0
   26.0233  -21.5801  -13.0303 C   0  0  0  0  0  0  0  0  0  0  0  0
   23.8970  -20.4196  -12.9441 O   0  0  0  0  0  0  0  0  0  0  0  0
   24.1403  -19.2004  -13.1656 C   0  0  0  0  0  0  0  0  0  0  0  0
   20.8624  -21.1485  -14.9255 C   0  0  2  0  0  0  0  0  0  0  0  0
   21.6426  -20.1651  -14.0400 N   0  0  0  0  0  0  0  0  0  0  0  0
   22.6753  -20.9539  -13.4041 C   0  0  0  0  0  0  0  0  0  0  0  0
   20.6725  -19.6034  -13.0826 O   0  0  0  0  0  0  0  0  0  0  0  0
   20.5036  -20.0618  -11.9277 O   0  0  0  0  0  0  0  0  0  0  0  0
  1  2  1  0
  2  3  2  0
  4  5  1  0
  4  2  1  0
  6  7  1  0
  6  5  1  0
  8  7  1  0
  8  9  1  6
  8 10  1  0
 10 11  2  0
 13 12  1  0
 14 13  1  0
 14 15  1  6
 16 14  1  0
 16 17  1  1
 17 10  1  0
 18 19  2  0
 18 16  1  0
 21 20  1  6
 21 22  1  0
 22 18  1  0
 23 25  1  0
 23 21  1  0
 24 23  2  0
M  END
$$$$
