KTP.pdb
     RDKit          3D

 24 24  0  0  1  0  0  0  0  0999 V2000
    7.8623  -16.0520   20.3020 N   0  0  0  0  0  0  0  0  0  0  0  0
    8.1075  -14.8378   20.9627 C   0  0  1  0  0  0  0  0  0  0  0  0
    7.6470  -13.5658   20.3836 C   0  0  0  0  0  0  0  0  0  0  0  0
    8.1286  -13.0291   19.1246 C   0  0  0  0  0  0  0  0  0  0  0  0
    8.3404  -13.7487   17.8857 C   0  0  0  0  0  0  0  0  0  0  0  0
    8.8645  -13.1409   16.6558 C   0  0  0  0  0  0  0  0  0  0  0  0
    8.9232  -14.2791   15.6647 N   0  0  0  0  0  0  0  0  0  0  0  0
    7.5967  -14.9780   22.3766 C   0  0  0  0  0  0  0  0  0  0  0  0
    6.3659  -14.8835   22.5701 O   0  0  0  0  0  0  0  0  0  0  0  0
    6.2330  -16.7467   23.4688 C   0  0  0  0  0  0  0  0  0  0  0  0
    7.2171  -16.8905   24.5959 C   0  0  1  0  0  0  0  0  0  0  0  0
    8.2001  -17.8226   24.1749 O   0  0  0  0  0  0  0  0  0  0  0  0
    7.9562  -15.5555   24.7958 C   0  0  2  0  0  0  0  0  0  0  0  0
    8.4673  -15.2107   23.4708 N   0  0  0  0  0  0  0  0  0  0  0  0
    9.0860  -15.7985   25.7477 C   0  0  0  0  0  0  0  0  0  0  0  0
    9.7477  -16.8395   25.6068 O   0  0  0  0  0  0  0  0  0  0  0  0
    9.3535  -14.8639   26.7438 N   0  0  0  0  0  0  0  0  0  0  0  0
    8.8961  -13.4356   26.7174 C   0  0  0  0  0  0  0  0  0  0  0  0
    8.2765  -13.3346   28.0698 C   0  0  0  0  0  0  0  0  0  0  0  0
    9.0158  -14.3140   28.9542 C   0  0  0  0  0  0  0  0  0  0  0  0
   10.0499  -14.9146   27.9851 C   0  0  1  0  0  0  0  0  0  0  0  0
   10.5452  -16.1845   28.4852 C   0  0  0  0  0  0  0  0  0  0  0  0
   10.2086  -17.4571   28.1380 O   0  0  0  0  0  0  0  0  0  0  0  0
   11.4460  -16.0982   29.4055 O   0  0  0  0  0  0  0  0  0  0  0  0
  2  1  1  6
  3  2  1  0
  4  3  1  0
  5  4  1  0
  5  6  1  0
  7  6  1  0
  8  2  1  0
  8  9  2  0
 11 10  1  6
 11 13  1  0
 11 12  1  0
 13 14  1  6
 14  8  1  0
 15 13  1  0
 16 15  2  0
 17 15  1  0
 17 18  1  0
 19 18  1  0
 20 21  1  0
 20 19  1  0
 21 17  1  0
 21 22  1  1
 23 22  1  0
 24 22  2  0
M  END
$$$$
