KTP.pdb
     RDKit          3D

 24 24  0  0  1  0  0  0  0  0999 V2000
    8.9289  -17.1216   14.5220 N   0  0  0  0  0  0  0  0  0  0  0  0
    9.8022  -16.6460   15.5129 C   0  0  1  0  0  0  0  0  0  0  0  0
   10.9558  -15.8067   15.1521 C   0  0  0  0  0  0  0  0  0  0  0  0
   12.0829  -16.2753   14.3677 C   0  0  0  0  0  0  0  0  0  0  0  0
   13.1259  -17.1889   14.7859 C   0  0  0  0  0  0  0  0  0  0  0  0
   14.2713  -17.5739   13.9512 C   0  0  0  0  0  0  0  0  0  0  0  0
   15.0567  -18.5399   14.8063 N   0  0  0  0  0  0  0  0  0  0  0  0
    8.9660  -15.9534   16.5621 C   0  0  0  0  0  0  0  0  0  0  0  0
    8.4752  -14.8388   16.2824 O   0  0  0  0  0  0  0  0  0  0  0  0
    6.0549  -17.1014   17.8947 C   0  0  0  0  0  0  0  0  0  0  0  0
    6.7779  -16.7737   19.1712 C   0  0  1  0  0  0  0  0  0  0  0  0
    7.3574  -17.9793   19.6436 O   0  0  0  0  0  0  0  0  0  0  0  0
    7.9540  -15.8314   18.8591 C   0  0  2  0  0  0  0  0  0  0  0  0
    8.7289  -16.5294   17.8353 N   0  0  0  0  0  0  0  0  0  0  0  0
    8.7584  -15.6764   20.1122 C   0  0  0  0  0  0  0  0  0  0  0  0
    9.4441  -16.6427   20.4829 O   0  0  0  0  0  0  0  0  0  0  0  0
    8.7122  -14.4728   20.8096 N   0  0  0  0  0  0  0  0  0  0  0  0
    8.2921  -13.1602   20.2173 C   0  0  0  0  0  0  0  0  0  0  0  0
    7.2881  -12.7258   21.2305 C   0  0  0  0  0  0  0  0  0  0  0  0
    7.7156  -13.3363   22.5467 C   0  0  0  0  0  0  0  0  0  0  0  0
    8.9941  -14.0985   22.1546 C   0  0  1  0  0  0  0  0  0  0  0  0
    9.3058  -15.1191   23.1391 C   0  0  0  0  0  0  0  0  0  0  0  0
   10.1709  -15.0912   24.1899 O   0  0  0  0  0  0  0  0  0  0  0  0
    8.6650  -16.2306   22.9991 O   0  0  0  0  0  0  0  0  0  0  0  0
  2  1  1  6
  3  2  1  0
  4  3  1  0
  5  4  1  0
  5  6  1  0
  7  6  1  0
  8  2  1  0
  8  9  2  0
 11 10  1  6
 11 13  1  0
 11 12  1  0
 13 14  1  6
 14  8  1  0
 15 13  1  0
 16 15  2  0
 17 15  1  0
 17 18  1  0
 19 18  1  0
 20 21  1  0
 20 19  1  0
 21 17  1  0
 21 22  1  1
 23 22  1  0
 24 22  2  0
M  END
$$$$
