KTP.pdb
     RDKit          3D

 24 24  0  0  1  0  0  0  0  0999 V2000
   11.9305  -16.6161   20.6106 N   0  0  0  0  0  0  0  0  0  0  0  0
   11.0862  -16.9887   21.6685 C   0  0  1  0  0  0  0  0  0  0  0  0
   11.6121  -17.7533   22.8104 C   0  0  0  0  0  0  0  0  0  0  0  0
   11.7967  -19.1924   22.8038 C   0  0  0  0  0  0  0  0  0  0  0  0
   11.2090  -20.1584   23.7088 C   0  0  0  0  0  0  0  0  0  0  0  0
   11.3802  -21.6123   23.5913 C   0  0  0  0  0  0  0  0  0  0  0  0
   10.4863  -22.1879   24.6641 N   0  0  0  0  0  0  0  0  0  0  0  0
   10.3911  -15.7406   22.1572 C   0  0  0  0  0  0  0  0  0  0  0  0
   11.0984  -14.7773   22.5221 O   0  0  0  0  0  0  0  0  0  0  0  0
    7.3064  -13.8072   20.7281 C   0  0  0  0  0  0  0  0  0  0  0  0
    6.9992  -14.3260   22.1051 C   0  0  1  0  0  0  0  0  0  0  0  0
    6.4431  -15.6215   21.9483 O   0  0  0  0  0  0  0  0  0  0  0  0
    8.3159  -14.5202   22.8779 C   0  0  2  0  0  0  0  0  0  0  0  0
    8.9783  -15.6387   22.2100 N   0  0  0  0  0  0  0  0  0  0  0  0
    7.9671  -14.8824   24.2881 C   0  0  0  0  0  0  0  0  0  0  0  0
    7.7491  -16.0781   24.5414 O   0  0  0  0  0  0  0  0  0  0  0  0
    7.9001  -13.8826   25.2540 N   0  0  0  0  0  0  0  0  0  0  0  0
    8.2996  -12.4540   25.0311 C   0  0  0  0  0  0  0  0  0  0  0  0
    7.0860  -11.7595   25.5487 C   0  0  0  0  0  0  0  0  0  0  0  0
    6.4961  -12.6611   26.6101 C   0  0  0  0  0  0  0  0  0  0  0  0
    7.4757  -13.8484   26.6131 C   0  0  1  0  0  0  0  0  0  0  0  0
    6.8597  -15.0208   27.2082 C   0  0  0  0  0  0  0  0  0  0  0  0
    6.3303  -16.1290   26.6207 O   0  0  0  0  0  0  0  0  0  0  0  0
    6.8011  -15.0154   28.4974 O   0  0  0  0  0  0  0  0  0  0  0  0
  2  1  1  6
  3  2  1  0
  4  3  1  0
  5  4  1  0
  5  6  1  0
  7  6  1  0
  8  2  1  0
  8  9  2  0
 11 10  1  6
 11 13  1  0
 11 12  1  0
 13 14  1  6
 14  8  1  0
 15 13  1  0
 16 15  2  0
 17 15  1  0
 17 18  1  0
 19 18  1  0
 20 21  1  0
 20 19  1  0
 21 17  1  0
 21 22  1  6
 23 22  1  0
 24 22  2  0
M  END
$$$$
