KTP.pdb
     RDKit          3D

 24 24  0  0  1  0  0  0  0  0999 V2000
    9.1073  -15.8454   19.6887 N   0  0  0  0  0  0  0  0  0  0  0  0
    8.8693  -14.5340   20.1296 C   0  0  1  0  0  0  0  0  0  0  0  0
    8.4368  -13.4942   19.1824 C   0  0  0  0  0  0  0  0  0  0  0  0
    8.7066  -13.5357   17.7574 C   0  0  0  0  0  0  0  0  0  0  0  0
    7.9968  -14.2966   16.7501 C   0  0  0  0  0  0  0  0  0  0  0  0
    8.2602  -14.2069   15.3080 C   0  0  0  0  0  0  0  0  0  0  0  0
    9.1940  -15.3586   15.0201 N   0  0  0  0  0  0  0  0  0  0  0  0
    7.9051  -14.6117   21.2889 C   0  0  0  0  0  0  0  0  0  0  0  0
    6.6947  -14.7927   21.0369 O   0  0  0  0  0  0  0  0  0  0  0  0
    6.3542  -16.3430   22.1916 C   0  0  0  0  0  0  0  0  0  0  0  0
    6.9708  -16.2014   23.5552 C   0  0  1  0  0  0  0  0  0  0  0  0
    8.1498  -16.9902   23.5637 O   0  0  0  0  0  0  0  0  0  0  0  0
    7.4321  -14.7466   23.7533 C   0  0  2  0  0  0  0  0  0  0  0  0
    8.3348  -14.4864   22.6338 N   0  0  0  0  0  0  0  0  0  0  0  0
    8.1728  -14.6766   25.0526 C   0  0  0  0  0  0  0  0  0  0  0  0
    9.0108  -15.5615   25.2894 O   0  0  0  0  0  0  0  0  0  0  0  0
    7.9021  -13.6378   25.9385 N   0  0  0  0  0  0  0  0  0  0  0  0
    7.0712  -12.4328   25.6107 C   0  0  0  0  0  0  0  0  0  0  0  0
    6.1343  -12.4380   26.7706 C   0  0  0  0  0  0  0  0  0  0  0  0
    6.8830  -13.0690   27.9235 C   0  0  0  0  0  0  0  0  0  0  0  0
    8.2532  -13.3786   27.2943 C   0  0  1  0  0  0  0  0  0  0  0  0
    8.9558  -14.3885   28.0652 C   0  0  0  0  0  0  0  0  0  0  0  0
    9.0295  -15.7362   27.8874 O   0  0  0  0  0  0  0  0  0  0  0  0
    9.6149  -13.9431   29.0816 O   0  0  0  0  0  0  0  0  0  0  0  0
  2  1  1  6
  3  2  1  0
  4  3  1  0
  5  4  1  0
  5  6  1  0
  7  6  1  0
  8  2  1  0
  8  9  2  0
 11 10  1  6
 11 13  1  0
 11 12  1  0
 13 14  1  6
 14  8  1  0
 15 13  1  0
 16 15  2  0
 17 15  1  0
 17 18  1  0
 19 18  1  0
 20 21  1  0
 20 19  1  0
 21 17  1  0
 21 22  1  1
 23 22  1  0
 24 22  2  0
M  END
$$$$
