KTP.pdb
     RDKit          3D

 24 24  0  0  1  0  0  0  0  0999 V2000
   12.3122  -16.8158   21.1081 N   0  0  0  0  0  0  0  0  0  0  0  0
   11.5204  -17.1443   22.2198 C   0  0  1  0  0  0  0  0  0  0  0  0
   12.1424  -17.6189   23.4661 C   0  0  0  0  0  0  0  0  0  0  0  0
   12.8378  -18.8862   23.5911 C   0  0  0  0  0  0  0  0  0  0  0  0
   14.2690  -19.1080   23.5852 C   0  0  0  0  0  0  0  0  0  0  0  0
   14.9062  -20.4020   23.8614 C   0  0  0  0  0  0  0  0  0  0  0  0
   16.3881  -20.1184   23.7911 N   0  0  0  0  0  0  0  0  0  0  0  0
   10.6247  -15.9628   22.5056 C   0  0  0  0  0  0  0  0  0  0  0  0
   11.1108  -14.8165   22.4007 O   0  0  0  0  0  0  0  0  0  0  0  0
    6.1761  -14.0663   22.7672 C   0  0  0  0  0  0  0  0  0  0  0  0
    7.0816  -15.2476   22.5570 C   0  0  1  0  0  0  0  0  0  0  0  0
    7.3548  -15.3215   21.1670 O   0  0  0  0  0  0  0  0  0  0  0  0
    8.4333  -14.9771   23.2412 C   0  0  2  0  0  0  0  0  0  0  0  0
    9.2678  -16.1222   22.8833 N   0  0  0  0  0  0  0  0  0  0  0  0
    8.1965  -14.9412   24.7192 C   0  0  0  0  0  0  0  0  0  0  0  0
    8.0597  -16.0246   25.3097 O   0  0  0  0  0  0  0  0  0  0  0  0
    8.1389  -13.7136   25.3726 N   0  0  0  0  0  0  0  0  0  0  0  0
    8.3634  -12.3855   24.7125 C   0  0  0  0  0  0  0  0  0  0  0  0
    7.1525  -11.6527   25.1814 C   0  0  0  0  0  0  0  0  0  0  0  0
    6.7818  -12.2499   26.5206 C   0  0  0  0  0  0  0  0  0  0  0  0
    7.8707  -13.3203   26.7149 C   0  0  1  0  0  0  0  0  0  0  0  0
    7.4486  -14.3113   27.6883 C   0  0  0  0  0  0  0  0  0  0  0  0
    6.8598  -15.5254   27.5075 O   0  0  0  0  0  0  0  0  0  0  0  0
    7.6618  -13.9951   28.9213 O   0  0  0  0  0  0  0  0  0  0  0  0
  2  1  1  6
  3  2  1  0
  4  3  1  0
  5  4  1  0
  5  6  1  0
  7  6  1  0
  8  2  1  0
  8  9  2  0
 11 10  1  6
 11 13  1  0
 11 12  1  0
 13 14  1  1
 14  8  1  0
 15 13  1  0
 16 15  2  0
 17 15  1  0
 17 18  1  0
 19 18  1  0
 20 21  1  0
 20 19  1  0
 21 17  1  0
 21 22  1  1
 23 22  1  0
 24 22  2  0
M  END
$$$$
