KTP.pdb
     RDKit          3D

 24 24  0  0  1  0  0  0  0  0999 V2000
    8.6555  -18.6025   18.4995 N   0  0  0  0  0  0  0  0  0  0  0  0
    9.7830  -17.9422   17.9861 C   0  0  1  0  0  0  0  0  0  0  0  0
    9.9904  -17.8372   16.5331 C   0  0  0  0  0  0  0  0  0  0  0  0
    9.7398  -18.9198   15.6002 C   0  0  0  0  0  0  0  0  0  0  0  0
    9.9098  -20.3389   15.8341 C   0  0  0  0  0  0  0  0  0  0  0  0
    9.5852  -21.3832   14.8538 C   0  0  0  0  0  0  0  0  0  0  0  0
   10.6354  -21.2345   13.7785 N   0  0  0  0  0  0  0  0  0  0  0  0
    9.8338  -16.5712   18.6167 C   0  0  0  0  0  0  0  0  0  0  0  0
   10.7306  -15.7848   18.2444 O   0  0  0  0  0  0  0  0  0  0  0  0
    7.4159  -12.9676   20.7725 C   0  0  0  0  0  0  0  0  0  0  0  0
    7.5205  -14.2806   20.0482 C   0  0  1  0  0  0  0  0  0  0  0  0
    7.3472  -14.0097   18.6666 O   0  0  0  0  0  0  0  0  0  0  0  0
    8.9511  -14.8281   20.1970 C   0  0  2  0  0  0  0  0  0  0  0  0
    8.9026  -16.1631   19.6044 N   0  0  0  0  0  0  0  0  0  0  0  0
    9.2561  -14.9136   21.6604 C   0  0  0  0  0  0  0  0  0  0  0  0
    9.2090  -13.8651   22.3235 O   0  0  0  0  0  0  0  0  0  0  0  0
    9.5769  -16.1466   22.2208 N   0  0  0  0  0  0  0  0  0  0  0  0
    9.7462  -17.4180   21.4431 C   0  0  0  0  0  0  0  0  0  0  0  0
   11.0666  -17.8710   21.9672 C   0  0  0  0  0  0  0  0  0  0  0  0
   11.1752  -17.3343   23.3771 C   0  0  0  0  0  0  0  0  0  0  0  0
    9.8385  -16.5905   23.5485 C   0  0  1  0  0  0  0  0  0  0  0  0
    9.9229  -15.6258   24.6302 C   0  0  0  0  0  0  0  0  0  0  0  0
    9.8321  -14.2676   24.6054 O   0  0  0  0  0  0  0  0  0  0  0  0
   10.1159  -16.1307   25.8022 O   0  0  0  0  0  0  0  0  0  0  0  0
  2  1  1  6
  3  2  1  0
  4  3  1  0
  5  4  1  0
  5  6  1  0
  7  6  1  0
  8  2  1  0
  8  9  2  0
 11 10  1  1
 11 13  1  0
 11 12  1  0
 13 14  1  1
 14  8  1  0
 15 13  1  0
 16 15  2  0
 17 15  1  0
 17 18  1  0
 19 18  1  0
 20 21  1  0
 20 19  1  0
 21 17  1  0
 21 22  1  1
 23 22  1  0
 24 22  2  0
M  END
$$$$
