KTP.pdb
     RDKit          3D

 24 24  0  0  1  0  0  0  0  0999 V2000
    8.1446  -16.3541   19.9241 N   0  0  0  0  0  0  0  0  0  0  0  0
    8.5924  -15.1796   20.5494 C   0  0  1  0  0  0  0  0  0  0  0  0
    8.6202  -13.9054   19.8138 C   0  0  0  0  0  0  0  0  0  0  0  0
    7.6537  -13.5381   18.7960 C   0  0  0  0  0  0  0  0  0  0  0  0
    7.6735  -13.8992   17.3936 C   0  0  0  0  0  0  0  0  0  0  0  0
    8.7695  -13.5745   16.4716 C   0  0  0  0  0  0  0  0  0  0  0  0
    8.4061  -14.2794   15.1862 N   0  0  0  0  0  0  0  0  0  0  0  0
    7.8111  -15.0203   21.8315 C   0  0  0  0  0  0  0  0  0  0  0  0
    6.8519  -14.2195   21.8408 O   0  0  0  0  0  0  0  0  0  0  0  0
    6.0638  -17.4924   23.4573 C   0  0  0  0  0  0  0  0  0  0  0  0
    6.8671  -16.9574   24.6098 C   0  0  1  0  0  0  0  0  0  0  0  0
    8.0109  -17.7860   24.7411 O   0  0  0  0  0  0  0  0  0  0  0  0
    7.3962  -15.5574   24.2511 C   0  0  2  0  0  0  0  0  0  0  0  0
    8.1354  -15.7466   23.0047 N   0  0  0  0  0  0  0  0  0  0  0  0
    8.3182  -15.1241   25.3482 C   0  0  0  0  0  0  0  0  0  0  0  0
    9.2690  -15.8700   25.6334 O   0  0  0  0  0  0  0  0  0  0  0  0
    8.0835  -13.9181   26.0021 N   0  0  0  0  0  0  0  0  0  0  0  0
    7.2527  -12.7974   25.4508 C   0  0  0  0  0  0  0  0  0  0  0  0
    6.3519  -12.5444   26.6117 C   0  0  0  0  0  0  0  0  0  0  0  0
    7.1305  -12.9289   27.8502 C   0  0  0  0  0  0  0  0  0  0  0  0
    8.4782  -13.3840   27.2620 C   0  0  1  0  0  0  0  0  0  0  0  0
    9.1959  -14.2186   28.2086 C   0  0  0  0  0  0  0  0  0  0  0  0
    9.3477  -15.5709   28.2488 O   0  0  0  0  0  0  0  0  0  0  0  0
    9.7832  -13.5827   29.1658 O   0  0  0  0  0  0  0  0  0  0  0  0
  2  1  1  6
  3  2  1  0
  4  3  1  0
  5  4  1  0
  5  6  1  0
  7  6  1  0
  8  2  1  0
  8  9  2  0
 11 10  1  6
 11 13  1  0
 11 12  1  0
 13 14  1  6
 14  8  1  0
 15 13  1  0
 16 15  2  0
 17 15  1  0
 17 18  1  0
 19 18  1  0
 20 21  1  0
 20 19  1  0
 21 17  1  0
 21 22  1  1
 23 22  1  0
 24 22  2  0
M  END
$$$$
