KTP.pdb
     RDKit          3D

 24 24  0  0  1  0  0  0  0  0999 V2000
    6.2668  -16.3611   20.4364 N   0  0  0  0  0  0  0  0  0  0  0  0
    7.0080  -15.4234   21.1727 C   0  0  1  0  0  0  0  0  0  0  0  0
    6.8611  -13.9828   20.9107 C   0  0  0  0  0  0  0  0  0  0  0  0
    7.7185  -13.2329   20.0120 C   0  0  0  0  0  0  0  0  0  0  0  0
    8.6412  -13.7636   19.0299 C   0  0  0  0  0  0  0  0  0  0  0  0
    9.5469  -12.9414   18.2173 C   0  0  0  0  0  0  0  0  0  0  0  0
   10.1930  -13.9177   17.2631 N   0  0  0  0  0  0  0  0  0  0  0  0
    6.7770  -15.7094   22.6371 C   0  0  0  0  0  0  0  0  0  0  0  0
    5.6053  -15.6612   23.0687 O   0  0  0  0  0  0  0  0  0  0  0  0
    7.5337  -18.3723   26.3658 C   0  0  0  0  0  0  0  0  0  0  0  0
    7.4616  -17.8905   24.9437 C   0  0  1  0  0  0  0  0  0  0  0  0
    6.1529  -18.1715   24.4741 O   0  0  0  0  0  0  0  0  0  0  0  0
    7.6005  -16.3579   24.9210 C   0  0  2  0  0  0  0  0  0  0  0  0
    7.8411  -16.0265   23.5182 N   0  0  0  0  0  0  0  0  0  0  0  0
    8.7883  -15.9959   25.7576 C   0  0  0  0  0  0  0  0  0  0  0  0
    9.7450  -16.7869   25.7771 O   0  0  0  0  0  0  0  0  0  0  0  0
    8.7814  -14.8029   26.4745 N   0  0  0  0  0  0  0  0  0  0  0  0
    7.8414  -13.6618   26.2210 C   0  0  0  0  0  0  0  0  0  0  0  0
    7.3370  -13.4266   27.6043 C   0  0  0  0  0  0  0  0  0  0  0  0
    8.4465  -13.8470   28.5424 C   0  0  0  0  0  0  0  0  0  0  0  0
    9.5463  -14.3017   27.5663 C   0  0  1  0  0  0  0  0  0  0  0  0
   10.5024  -15.1649   28.2361 C   0  0  0  0  0  0  0  0  0  0  0  0
   10.4483  -16.4999   28.4975 O   0  0  0  0  0  0  0  0  0  0  0  0
   11.5738  -14.5781   28.6526 O   0  0  0  0  0  0  0  0  0  0  0  0
  2  1  1  6
  3  2  1  0
  4  3  1  0
  5  4  1  0
  5  6  1  0
  7  6  1  0
  8  2  1  0
  8  9  2  0
 11 10  1  1
 11 13  1  0
 11 12  1  0
 13 14  1  6
 14  8  1  0
 15 13  1  0
 16 15  2  0
 17 15  1  0
 17 18  1  0
 19 18  1  0
 20 21  1  0
 20 19  1  0
 21 17  1  0
 21 22  1  1
 23 22  1  0
 24 22  2  0
M  END
$$$$
