KTP.pdb
     RDKit          3D

 24 24  0  0  1  0  0  0  0  0999 V2000
   11.7600  -16.7365   20.6607 N   0  0  0  0  0  0  0  0  0  0  0  0
   11.1390  -16.9610   21.8995 C   0  0  1  0  0  0  0  0  0  0  0  0
   11.9250  -17.4142   23.0581 C   0  0  0  0  0  0  0  0  0  0  0  0
   12.2400  -18.8046   23.3276 C   0  0  0  0  0  0  0  0  0  0  0  0
   11.5378  -19.7092   24.2142 C   0  0  0  0  0  0  0  0  0  0  0  0
   11.9030  -21.1171   24.4175 C   0  0  0  0  0  0  0  0  0  0  0  0
   10.8804  -21.6367   25.4001 N   0  0  0  0  0  0  0  0  0  0  0  0
   10.3665  -15.7132   22.2542 C   0  0  0  0  0  0  0  0  0  0  0  0
   10.9771  -14.6230   22.2546 O   0  0  0  0  0  0  0  0  0  0  0  0
    7.0258  -14.2636   21.0667 C   0  0  0  0  0  0  0  0  0  0  0  0
    6.9068  -14.6018   22.5266 C   0  0  1  0  0  0  0  0  0  0  0  0
    6.4467  -15.9412   22.6082 O   0  0  0  0  0  0  0  0  0  0  0  0
    8.3079  -14.5949   23.1634 C   0  0  2  0  0  0  0  0  0  0  0  0
    8.9876  -15.7499   22.5805 N   0  0  0  0  0  0  0  0  0  0  0  0
    8.1379  -14.7753   24.6399 C   0  0  0  0  0  0  0  0  0  0  0  0
    8.0827  -15.9355   25.0786 O   0  0  0  0  0  0  0  0  0  0  0  0
    8.0492  -13.6541   25.4598 N   0  0  0  0  0  0  0  0  0  0  0  0
    8.2116  -12.2392   24.9891 C   0  0  0  0  0  0  0  0  0  0  0  0
    6.9848  -11.6266   25.5746 C   0  0  0  0  0  0  0  0  0  0  0  0
    6.6638  -12.4188   26.8224 C   0  0  0  0  0  0  0  0  0  0  0  0
    7.7947  -13.4627   26.8479 C   0  0  1  0  0  0  0  0  0  0  0  0
    7.4291  -14.5955   27.6792 C   0  0  0  0  0  0  0  0  0  0  0  0
    7.0813  -15.8648   27.3311 O   0  0  0  0  0  0  0  0  0  0  0  0
    7.4313  -14.3675   28.9495 O   0  0  0  0  0  0  0  0  0  0  0  0
  2  1  1  6
  3  2  1  0
  4  3  1  0
  5  4  1  0
  5  6  1  0
  7  6  1  0
  8  2  1  0
  8  9  2  0
 11 10  1  6
 11 13  1  0
 11 12  1  0
 13 14  1  6
 14  8  1  0
 15 13  1  0
 16 15  2  0
 17 15  1  0
 17 18  1  0
 19 18  1  0
 20 21  1  0
 20 19  1  0
 21 17  1  0
 21 22  1  6
 23 22  1  0
 24 22  2  0
M  END
$$$$
