NGS.pdb
     RDKit          3D

 19 18  0  0  1  0  0  0  0  0999 V2000
   17.7764  -13.7413  -19.5894 N   0  0  0  0  0  0  0  0  0  0  0  0
   17.1018  -12.5370  -20.0098 C   0  0  0  0  0  0  0  0  0  0  0  0
   16.1673  -12.6674  -20.8238 O   0  0  0  0  0  0  0  0  0  0  0  0
   17.5547  -11.2590  -19.4589 C   0  0  0  0  0  0  0  0  0  0  0  0
   18.6811  -11.3776  -18.4745 C   0  0  2  0  0  0  0  0  0  0  0  0
   18.2565  -11.5865  -17.1212 N   0  0  0  0  0  0  0  0  0  0  0  0
   19.6075  -10.2216  -18.6039 C   0  0  0  0  0  0  0  0  0  0  0  0
   20.2653  -10.0661  -19.6804 O   0  0  0  0  0  0  0  0  0  0  0  0
   19.7246   -9.3282  -17.5139 N   0  0  0  0  0  0  0  0  0  0  0  0
   20.5699   -8.1795  -17.5648 C   0  0  0  0  0  0  0  0  0  0  0  0
   20.4181   -7.3097  -16.3491 C   0  0  0  0  0  0  0  0  0  0  0  0
   19.3589   -7.3499  -15.6766 O   0  0  0  0  0  0  0  0  0  0  0  0
   22.5729   -4.6439  -12.9741 O   0  0  0  0  0  0  0  0  0  0  0  0
   22.7647   -5.3793  -14.1559 C   0  0  0  0  0  0  0  0  0  0  0  0
   21.4028   -5.5835  -14.7957 C   0  0  2  0  0  0  0  0  0  0  0  0
   21.4534   -6.4346  -15.9380 N   0  0  0  0  0  0  0  0  0  0  0  0
   20.7555   -4.2753  -15.0669 C   0  0  0  0  0  0  0  0  0  0  0  0
   21.0582   -3.6437  -16.1362 O   0  0  0  0  0  0  0  0  0  0  0  0
   19.8382   -3.6981  -14.2229 O   0  0  0  0  0  0  0  0  0  0  0  0
  1  2  1  0
  2  3  2  0
  4  2  1  0
  4  5  1  0
  5  6  1  1
  7  8  2  0
  7  5  1  0
  9  7  1  0
 10 11  1  0
 10  9  1  0
 11 16  1  0
 12 11  2  0
 13 14  1  0
 15 14  1  6
 15 17  1  0
 16 15  1  0
 17 18  2  0
 17 19  1  0
M  END
$$$$
