NGS.pdb
     RDKit          3D

 19 18  0  0  1  0  0  0  0  0999 V2000
   17.3920  -14.3996  -16.3086 N   0  0  0  0  0  0  0  0  0  0  0  0
   16.7453  -13.6592  -15.2522 C   0  0  0  0  0  0  0  0  0  0  0  0
   16.1067  -14.3183  -14.4093 O   0  0  0  0  0  0  0  0  0  0  0  0
   16.8812  -12.2021  -15.2418 C   0  0  0  0  0  0  0  0  0  0  0  0
   17.6745  -11.6495  -16.3895 C   0  0  2  0  0  0  0  0  0  0  0  0
   19.0183  -12.1434  -16.4640 N   0  0  0  0  0  0  0  0  0  0  0  0
   17.6178  -10.1636  -16.3921 C   0  0  0  0  0  0  0  0  0  0  0  0
   16.4969   -9.5818  -16.5368 O   0  0  0  0  0  0  0  0  0  0  0  0
   18.8248   -9.4441  -16.2322 N   0  0  0  0  0  0  0  0  0  0  0  0
   18.8552   -8.0179  -16.1890 C   0  0  0  0  0  0  0  0  0  0  0  0
   20.0574   -7.4987  -15.4523 C   0  0  0  0  0  0  0  0  0  0  0  0
   20.7917   -8.2903  -14.8120 O   0  0  0  0  0  0  0  0  0  0  0  0
   22.8121   -3.6061  -14.4384 O   0  0  0  0  0  0  0  0  0  0  0  0
   21.6259   -4.0467  -15.0492 C   0  0  0  0  0  0  0  0  0  0  0  0
   21.5160   -5.5427  -14.8129 C   0  0  2  0  0  0  0  0  0  0  0  0
   20.3867   -6.1210  -15.4624 N   0  0  0  0  0  0  0  0  0  0  0  0
   21.5759   -5.8444  -13.3605 C   0  0  0  0  0  0  0  0  0  0  0  0
   20.4981   -5.8060  -12.6745 O   0  0  0  0  0  0  0  0  0  0  0  0
   22.7389   -6.1665  -12.7043 O   0  0  0  0  0  0  0  0  0  0  0  0
  1  2  1  0
  2  3  2  0
  4  2  1  0
  4  5  1  0
  5  6  1  1
  7  8  2  0
  7  5  1  0
  9  7  1  0
 10 11  1  0
 10  9  1  0
 11 16  1  0
 12 11  2  0
 13 14  1  0
 15 14  1  1
 15 17  1  0
 16 15  1  0
 17 18  2  0
 17 19  1  0
M  END
$$$$
