NGS.pdb
     RDKit          3D

 19 18  0  0  1  0  0  0  0  0999 V2000
   25.6562  -18.7967  -19.7982 N   0  0  0  0  0  0  0  0  0  0  0  0
   26.4651  -17.7285  -19.2627 C   0  0  0  0  0  0  0  0  0  0  0  0
   26.4969  -16.6644  -19.9104 O   0  0  0  0  0  0  0  0  0  0  0  0
   27.1851  -17.9636  -18.0104 C   0  0  0  0  0  0  0  0  0  0  0  0
   27.0938  -19.3729  -17.5030 C   0  0  2  0  0  0  0  0  0  0  0  0
   25.8087  -19.9804  -17.6896 N   0  0  0  0  0  0  0  0  0  0  0  0
   27.5542  -19.4472  -16.0910 C   0  0  0  0  0  0  0  0  0  0  0  0
   28.6265  -18.8549  -15.7519 O   0  0  0  0  0  0  0  0  0  0  0  0
   26.7749  -20.1815  -15.1671 N   0  0  0  0  0  0  0  0  0  0  0  0
   27.1411  -20.2979  -13.7928 C   0  0  0  0  0  0  0  0  0  0  0  0
   26.0542  -20.9269  -12.9679 C   0  0  0  0  0  0  0  0  0  0  0  0
   25.1873  -21.6497  -13.5174 O   0  0  0  0  0  0  0  0  0  0  0  0
   26.4322  -21.2283   -8.9196 O   0  0  0  0  0  0  0  0  0  0  0  0
   25.1382  -20.8061   -9.2683 C   0  0  0  0  0  0  0  0  0  0  0  0
   24.9174  -21.1603  -10.7283 C   0  0  2  0  0  0  0  0  0  0  0  0
   25.9825  -20.7220  -11.5680 N   0  0  0  0  0  0  0  0  0  0  0  0
   23.5832  -20.6916  -11.1799 C   0  0  0  0  0  0  0  0  0  0  0  0
   23.4999  -19.5983  -11.8368 O   0  0  0  0  0  0  0  0  0  0  0  0
   22.4186  -21.3752  -10.9285 O   0  0  0  0  0  0  0  0  0  0  0  0
  1  2  1  0
  2  3  2  0
  4  2  1  0
  4  5  1  0
  5  6  1  1
  7  8  2  0
  7  5  1  0
  9  7  1  0
 10 11  1  0
 10  9  1  0
 11 16  1  0
 12 11  2  0
 13 14  1  0
 15 14  1  1
 15 17  1  0
 16 15  1  0
 17 18  2  0
 17 19  1  0
M  END
$$$$
