NGS.pdb
     RDKit          3D

 19 18  0  0  1  0  0  0  0  0999 V2000
   20.0189  -19.2376  -15.9468 N   0  0  0  0  0  0  0  0  0  0  0  0
   20.8940  -20.3770  -15.8117 C   0  0  0  0  0  0  0  0  0  0  0  0
   20.6361  -21.3739  -16.5135 O   0  0  0  0  0  0  0  0  0  0  0  0
   22.0116  -20.2866  -14.8711 C   0  0  0  0  0  0  0  0  0  0  0  0
   23.3095  -19.8656  -15.4958 C   0  0  2  0  0  0  0  0  0  0  0  0
   23.6804  -20.6327  -16.6487 N   0  0  0  0  0  0  0  0  0  0  0  0
   24.3885  -19.8245  -14.4735 C   0  0  0  0  0  0  0  0  0  0  0  0
   24.2309  -19.1199  -13.4273 O   0  0  0  0  0  0  0  0  0  0  0  0
   25.5627  -20.5781  -14.7042 N   0  0  0  0  0  0  0  0  0  0  0  0
   26.6220  -20.6393  -13.7498 C   0  0  0  0  0  0  0  0  0  0  0  0
   26.1597  -21.1725  -12.4234 C   0  0  0  0  0  0  0  0  0  0  0  0
   25.7719  -22.3624  -12.3255 O   0  0  0  0  0  0  0  0  0  0  0  0
   25.9314  -20.5168   -7.6344 O   0  0  0  0  0  0  0  0  0  0  0  0
   26.4390  -20.0353   -8.8530 C   0  0  0  0  0  0  0  0  0  0  0  0
   25.7233  -20.7720   -9.9715 C   0  0  2  0  0  0  0  0  0  0  0  0
   26.1505  -20.3557  -11.2661 N   0  0  0  0  0  0  0  0  0  0  0  0
   24.2525  -20.6946   -9.7858 C   0  0  0  0  0  0  0  0  0  0  0  0
   23.5699  -19.9344  -10.5538 O   0  0  0  0  0  0  0  0  0  0  0  0
   23.5754  -21.4029   -8.8231 O   0  0  0  0  0  0  0  0  0  0  0  0
  1  2  1  0
  2  3  2  0
  4  2  1  0
  4  5  1  0
  5  6  1  6
  7  8  2  0
  7  5  1  0
  9  7  1  0
 10 11  1  0
 10  9  1  0
 11 16  1  0
 12 11  2  0
 13 14  1  0
 15 14  1  1
 15 17  1  0
 16 15  1  0
 17 18  2  0
 17 19  1  0
M  END
$$$$
