NGS.pdb
     RDKit          3D

 19 18  0  0  1  0  0  0  0  0999 V2000
   19.0275  -13.9689  -18.4765 N   0  0  0  0  0  0  0  0  0  0  0  0
   19.3555  -14.2717  -17.1042 C   0  0  0  0  0  0  0  0  0  0  0  0
   19.6587  -15.4518  -16.8429 O   0  0  0  0  0  0  0  0  0  0  0  0
   19.3104  -13.1861  -16.1238 C   0  0  0  0  0  0  0  0  0  0  0  0
   18.9800  -11.8434  -16.7067 C   0  0  2  0  0  0  0  0  0  0  0  0
   19.9393  -11.3665  -17.6594 N   0  0  0  0  0  0  0  0  0  0  0  0
   18.7203  -10.8572  -15.6244 C   0  0  0  0  0  0  0  0  0  0  0  0
   17.8693  -11.1313  -14.7209 O   0  0  0  0  0  0  0  0  0  0  0  0
   19.4365   -9.6378  -15.6395 N   0  0  0  0  0  0  0  0  0  0  0  0
   19.2781   -8.6548  -14.6172 C   0  0  0  0  0  0  0  0  0  0  0  0
   20.1825   -7.4727  -14.8224 C   0  0  0  0  0  0  0  0  0  0  0  0
   21.2134   -7.5861  -15.5295 O   0  0  0  0  0  0  0  0  0  0  0  0
   20.8339   -2.7019  -14.0852 O   0  0  0  0  0  0  0  0  0  0  0  0
   20.0036   -3.8036  -13.8188 C   0  0  0  0  0  0  0  0  0  0  0  0
   20.6770   -5.0363  -14.3959 C   0  0  2  0  0  0  0  0  0  0  0  0
   19.8970   -6.2178  -14.2304 N   0  0  0  0  0  0  0  0  0  0  0  0
   22.0589   -5.1669  -13.8697 C   0  0  0  0  0  0  0  0  0  0  0  0
   23.0051   -4.5313  -14.4481 O   0  0  0  0  0  0  0  0  0  0  0  0
   22.3821   -5.9420  -12.7827 O   0  0  0  0  0  0  0  0  0  0  0  0
  1  2  1  0
  2  3  2  0
  4  2  1  0
  4  5  1  0
  5  6  1  1
  7  8  2  0
  7  5  1  0
  9  7  1  0
 10 11  1  0
 10  9  1  0
 11 16  1  0
 12 11  2  0
 13 14  1  0
 15 14  1  1
 15 17  1  0
 16 15  1  0
 17 18  2  0
 17 19  1  0
M  END
$$$$
