NGS.pdb
     RDKit          3D

 19 18  0  0  1  0  0  0  0  0999 V2000
   16.8566  -13.5127  -14.7041 N   0  0  0  0  0  0  0  0  0  0  0  0
   16.5370  -12.8357  -15.9377 C   0  0  0  0  0  0  0  0  0  0  0  0
   15.9484  -13.5012  -16.8115 O   0  0  0  0  0  0  0  0  0  0  0  0
   16.9208  -11.4304  -16.0781 C   0  0  0  0  0  0  0  0  0  0  0  0
   18.2514  -11.2187  -16.7390 C   0  0  2  0  0  0  0  0  0  0  0  0
   19.3638  -11.7292  -15.9926 N   0  0  0  0  0  0  0  0  0  0  0  0
   18.4266   -9.7886  -17.1071 C   0  0  0  0  0  0  0  0  0  0  0  0
   17.6735   -9.2751  -17.9930 O   0  0  0  0  0  0  0  0  0  0  0  0
   19.4347   -9.0440  -16.4518 N   0  0  0  0  0  0  0  0  0  0  0  0
   19.6350   -7.6543  -16.7067 C   0  0  0  0  0  0  0  0  0  0  0  0
   20.7336   -7.0755  -15.8607 C   0  0  0  0  0  0  0  0  0  0  0  0
   21.2932   -7.7832  -14.9880 O   0  0  0  0  0  0  0  0  0  0  0  0
   23.7587   -3.3153  -15.2315 O   0  0  0  0  0  0  0  0  0  0  0  0
   22.5842   -3.7461  -15.8712 C   0  0  0  0  0  0  0  0  0  0  0  0
   22.2563   -5.1320  -15.3443 C   0  0  2  0  0  0  0  0  0  0  0  0
   21.1587   -5.7343  -16.0256 N   0  0  0  0  0  0  0  0  0  0  0  0
   22.0855   -5.0996  -13.8700 C   0  0  0  0  0  0  0  0  0  0  0  0
   20.9709   -4.7062  -13.3836 O   0  0  0  0  0  0  0  0  0  0  0  0
   23.0701   -5.4733  -12.9881 O   0  0  0  0  0  0  0  0  0  0  0  0
  1  2  1  0
  2  3  2  0
  4  2  1  0
  4  5  1  0
  5  6  1  1
  7  8  2  0
  7  5  1  0
  9  7  1  0
 10 11  1  0
 10  9  1  0
 11 16  1  0
 12 11  2  0
 13 14  1  0
 15 14  1  6
 15 17  1  0
 16 15  1  0
 17 18  2  0
 17 19  1  0
M  END
$$$$
