NGS.pdb
     RDKit          3D

 19 18  0  0  1  0  0  0  0  0999 V2000
   13.0457  -12.5610  -12.0584 N   0  0  0  0  0  0  0  0  0  0  0  0
   12.8692  -11.3161  -11.3501 C   0  0  0  0  0  0  0  0  0  0  0  0
   11.8341  -11.1967  -10.6666 O   0  0  0  0  0  0  0  0  0  0  0  0
   13.9047  -10.2902  -11.4805 C   0  0  0  0  0  0  0  0  0  0  0  0
   15.0641  -10.6920  -12.3445 C   0  0  2  0  0  0  0  0  0  0  0  0
   16.1027  -11.3888  -11.6437 N   0  0  0  0  0  0  0  0  0  0  0  0
   15.5801   -9.5193  -13.0992 C   0  0  0  0  0  0  0  0  0  0  0  0
   14.8124   -8.9110  -13.9093 O   0  0  0  0  0  0  0  0  0  0  0  0
   16.9197   -9.1189  -12.8864 N   0  0  0  0  0  0  0  0  0  0  0  0
   17.4684   -7.9549  -13.5032 C   0  0  0  0  0  0  0  0  0  0  0  0
   18.8824   -7.6950  -13.0665 C   0  0  0  0  0  0  0  0  0  0  0  0
   19.2810   -8.1089  -11.9505 O   0  0  0  0  0  0  0  0  0  0  0  0
   21.6113   -6.3594  -15.8847 O   0  0  0  0  0  0  0  0  0  0  0  0
   22.0707   -7.0956  -14.7796 C   0  0  0  0  0  0  0  0  0  0  0  0
   21.1669   -6.7704  -13.6035 C   0  0  2  0  0  0  0  0  0  0  0  0
   19.7880   -6.9857  -13.8931 N   0  0  0  0  0  0  0  0  0  0  0  0
   21.4530   -5.4070  -13.0906 C   0  0  0  0  0  0  0  0  0  0  0  0
   20.6313   -4.4626  -13.3488 O   0  0  0  0  0  0  0  0  0  0  0  0
   22.5648   -5.0994  -12.3450 O   0  0  0  0  0  0  0  0  0  0  0  0
  1  2  1  0
  2  3  2  0
  4  2  1  0
  4  5  1  0
  5  6  1  1
  7  8  2  0
  7  5  1  0
  9  7  1  0
 10 11  1  0
 10  9  1  0
 11 16  1  0
 12 11  2  0
 13 14  1  0
 15 14  1  6
 15 17  1  0
 16 15  1  0
 17 18  2  0
 17 19  1  0
M  END
$$$$
