NGS.pdb
     RDKit          3D

 19 18  0  0  1  0  0  0  0  0999 V2000
   29.2686  -23.4839  -16.3554 N   0  0  0  0  0  0  0  0  0  0  0  0
   29.7675  -22.4294  -17.2049 C   0  0  0  0  0  0  0  0  0  0  0  0
   30.8084  -22.6663  -17.8476 O   0  0  0  0  0  0  0  0  0  0  0  0
   29.0266  -21.1682  -17.2538 C   0  0  0  0  0  0  0  0  0  0  0  0
   27.7587  -21.1675  -16.4511 C   0  0  2  0  0  0  0  0  0  0  0  0
   26.6172  -21.6688  -17.1590 N   0  0  0  0  0  0  0  0  0  0  0  0
   27.5149  -19.8221  -15.8667 C   0  0  0  0  0  0  0  0  0  0  0  0
   28.0945  -19.4977  -14.7829 O   0  0  0  0  0  0  0  0  0  0  0  0
   26.6384  -18.9431  -16.5444 N   0  0  0  0  0  0  0  0  0  0  0  0
   26.2902  -17.6647  -16.0144 C   0  0  0  0  0  0  0  0  0  0  0  0
   24.8511  -17.6010  -15.5873 C   0  0  0  0  0  0  0  0  0  0  0  0
   24.3917  -16.5472  -15.0832 O   0  0  0  0  0  0  0  0  0  0  0  0
   20.3864  -18.4511  -16.1880 O   0  0  0  0  0  0  0  0  0  0  0  0
   21.7143  -18.5410  -16.6381 C   0  0  0  0  0  0  0  0  0  0  0  0
   22.6006  -18.7279  -15.4193 C   0  0  2  0  0  0  0  0  0  0  0  0
   23.9891  -18.7146  -15.7413 N   0  0  0  0  0  0  0  0  0  0  0  0
   22.1867  -19.9322  -14.6565 C   0  0  0  0  0  0  0  0  0  0  0  0
   22.9274  -20.9734  -14.6919 O   0  0  0  0  0  0  0  0  0  0  0  0
   21.0382  -19.9915  -13.9053 O   0  0  0  0  0  0  0  0  0  0  0  0
  1  2  1  0
  2  3  2  0
  4  2  1  0
  4  5  1  0
  5  6  1  6
  7  8  2  0
  7  5  1  0
  9  7  1  0
 10 11  1  0
 10  9  1  0
 11 16  1  0
 12 11  2  0
 13 14  1  0
 15 14  1  6
 15 17  1  0
 16 15  1  0
 17 18  2  0
 17 19  1  0
M  END
$$$$
