NGS.pdb
     RDKit          3D

 19 18  0  0  1  0  0  0  0  0999 V2000
   20.7605   -8.9033  -14.5733 N   0  0  0  0  0  0  0  0  0  0  0  0
   19.4180   -9.0967  -14.0806 C   0  0  0  0  0  0  0  0  0  0  0  0
   18.6469   -9.7702  -14.7909 O   0  0  0  0  0  0  0  0  0  0  0  0
   19.0568   -8.4963  -12.7957 C   0  0  0  0  0  0  0  0  0  0  0  0
   17.9190   -9.1794  -12.0951 C   0  0  2  0  0  0  0  0  0  0  0  0
   16.6891   -9.1725  -12.8316 N   0  0  0  0  0  0  0  0  0  0  0  0
   17.7568   -8.6388  -10.7194 C   0  0  0  0  0  0  0  0  0  0  0  0
   18.7278   -8.7094   -9.9022 O   0  0  0  0  0  0  0  0  0  0  0  0
   16.5157   -8.0599  -10.3662 N   0  0  0  0  0  0  0  0  0  0  0  0
   16.2548   -7.5745   -9.0498 C   0  0  0  0  0  0  0  0  0  0  0  0
   14.9060   -6.9211   -8.9436 C   0  0  0  0  0  0  0  0  0  0  0  0
   14.3378   -6.4826   -9.9735 O   0  0  0  0  0  0  0  0  0  0  0  0
   11.9176   -8.0503   -6.5571 O   0  0  0  0  0  0  0  0  0  0  0  0
   12.2470   -6.7117   -6.2854 C   0  0  0  0  0  0  0  0  0  0  0  0
   12.9838   -6.1654   -7.4957 C   0  0  2  0  0  0  0  0  0  0  0  0
   14.2515   -6.7859   -7.6946 N   0  0  0  0  0  0  0  0  0  0  0  0
   13.0589   -4.6841   -7.4323 C   0  0  0  0  0  0  0  0  0  0  0  0
   14.0409   -4.1389   -6.8221 O   0  0  0  0  0  0  0  0  0  0  0  0
   12.1210   -3.8562   -7.9995 O   0  0  0  0  0  0  0  0  0  0  0  0
  1  2  1  0
  2  3  2  0
  4  2  1  0
  4  5  1  0
  5  6  1  6
  7  8  2  0
  7  5  1  0
  9  7  1  0
 10 11  1  0
 10  9  1  0
 11 16  1  0
 12 11  2  0
 13 14  1  0
 15 14  1  1
 15 17  1  0
 16 15  1  0
 17 18  2  0
 17 19  1  0
M  END
$$$$
