NGS.pdb
     RDKit          3D

 19 18  0  0  1  0  0  0  0  0999 V2000
   21.2043   -5.1494  -20.9012 N   0  0  0  0  0  0  0  0  0  0  0  0
   21.1556   -5.4096  -19.4826 C   0  0  0  0  0  0  0  0  0  0  0  0
   22.0445   -4.8888  -18.7817 O   0  0  0  0  0  0  0  0  0  0  0  0
   20.0788   -6.2573  -18.9688 C   0  0  0  0  0  0  0  0  0  0  0  0
   20.4776   -7.1251  -17.8112 C   0  0  2  0  0  0  0  0  0  0  0  0
   21.4703   -8.1085  -18.1314 N   0  0  0  0  0  0  0  0  0  0  0  0
   19.2753   -7.7230  -17.1724 C   0  0  0  0  0  0  0  0  0  0  0  0
   18.3296   -6.9650  -16.7891 O   0  0  0  0  0  0  0  0  0  0  0  0
   19.2268   -9.1274  -17.0124 N   0  0  0  0  0  0  0  0  0  0  0  0
   18.1255   -9.7792  -16.3810 C   0  0  0  0  0  0  0  0  0  0  0  0
   18.3043  -11.2701  -16.3271 C   0  0  0  0  0  0  0  0  0  0  0  0
   19.2964  -11.8040  -16.8808 O   0  0  0  0  0  0  0  0  0  0  0  0
   16.4000  -13.4886  -13.4795 O   0  0  0  0  0  0  0  0  0  0  0  0
   16.3354  -14.1192  -14.7335 C   0  0  0  0  0  0  0  0  0  0  0  0
   17.4262  -13.5216  -15.6047 C   0  0  2  0  0  0  0  0  0  0  0  0
   17.3696  -12.0984  -15.6587 N   0  0  0  0  0  0  0  0  0  0  0  0
   17.4279  -14.1601  -16.9449 C   0  0  0  0  0  0  0  0  0  0  0  0
   16.7328  -13.6372  -17.8815 O   0  0  0  0  0  0  0  0  0  0  0  0
   18.1433  -15.2953  -17.2388 O   0  0  0  0  0  0  0  0  0  0  0  0
  1  2  1  0
  2  3  2  0
  4  2  1  0
  4  5  1  0
  5  6  1  6
  7  8  2  0
  7  5  1  0
  9  7  1  0
 10 11  1  0
 10  9  1  0
 11 16  1  0
 12 11  2  0
 13 14  1  0
 15 14  1  1
 15 17  1  0
 16 15  1  0
 17 18  2  0
 17 19  1  0
M  END
$$$$
