PTK.pdb
     RDKit          3D

 24 24  0  0  1  0  0  0  0  0999 V2000
    9.3620  -14.2809   18.4081 N   0  0  0  0  0  0  0  0  0  0  0  0
    8.3718  -14.4030   17.3560 C   0  0  0  0  0  0  0  0  0  0  0  0
    7.7793  -13.0016   17.2985 C   0  0  0  0  0  0  0  0  0  0  0  0
    7.6419  -12.7000   18.7963 C   0  0  0  0  0  0  0  0  0  0  0  0
    8.8159  -13.4258   19.4166 C   0  0  1  0  0  0  0  0  0  0  0  0
    8.3023  -14.2084   20.5917 C   0  0  0  0  0  0  0  0  0  0  0  0
    7.6079  -13.6067   21.4478 O   0  0  0  0  0  0  0  0  0  0  0  0
    6.7575  -17.8550   20.3938 C   0  0  0  0  0  0  0  0  0  0  0  0
    7.8302  -17.7624   21.4282 C   0  0  1  0  0  0  0  0  0  0  0  0
    9.0428  -18.1254   20.7945 O   0  0  0  0  0  0  0  0  0  0  0  0
    8.0725  -16.3329   21.9274 C   0  0  2  0  0  0  0  0  0  0  0  0
    8.5707  -15.5742   20.7608 N   0  0  0  0  0  0  0  0  0  0  0  0
    9.0641  -16.2698   23.0176 C   0  0  0  0  0  0  0  0  0  0  0  0
   10.2811  -16.0773   22.6723 O   0  0  0  0  0  0  0  0  0  0  0  0
    8.7775  -16.4021   24.3980 N   0  0  0  0  0  0  0  0  0  0  0  0
    9.8119  -16.1875   25.3667 C   0  0  1  0  0  0  0  0  0  0  0  0
    9.3588  -15.5030   26.6047 C   0  0  0  0  0  0  0  0  0  0  0  0
   10.3473  -15.3302   27.6926 C   0  0  0  0  0  0  0  0  0  0  0  0
    9.8337  -14.6023   28.9091 C   0  0  0  0  0  0  0  0  0  0  0  0
   10.9212  -14.4625   29.9651 C   0  0  0  0  0  0  0  0  0  0  0  0
   10.3562  -13.6841   31.0468 N   0  0  0  0  0  0  0  0  0  0  0  0
   10.5824  -17.4312   25.5733 C   0  0  0  0  0  0  0  0  0  0  0  0
    9.9262  -18.6476   25.4925 O   0  0  0  0  0  0  0  0  0  0  0  0
   11.8149  -17.4554   25.8204 O   0  0  0  0  0  0  0  0  0  0  0  0
  1  2  1  0
  3  2  1  0
  4  3  1  0
  5  4  1  0
  5  1  1  0
  6  7  2  0
  5  6  1  1
  9  8  1  6
  9 10  1  0
  9 11  1  0
 11 12  1  6
 12  6  1  0
 13 15  1  0
 13 11  1  0
 14 13  2  0
 16 15  1  0
 16 22  1  0
 16 17  1  1
 17 18  1  0
 19 18  1  0
 20 21  1  0
 20 19  1  0
 22 23  1  0
 24 22  2  0
M  END
$$$$
