PTK.pdb
     RDKit          3D

 24 24  0  0  1  0  0  0  0  0999 V2000
    8.9715  -16.3019   15.3519 N   0  0  0  0  0  0  0  0  0  0  0  0
    9.5928  -17.5910   15.1183 C   0  0  0  0  0  0  0  0  0  0  0  0
    8.4894  -18.5634   15.5126 C   0  0  0  0  0  0  0  0  0  0  0  0
    7.9810  -17.8956   16.7966 C   0  0  0  0  0  0  0  0  0  0  0  0
    8.1679  -16.4180   16.5296 C   0  0  1  0  0  0  0  0  0  0  0  0
    8.8465  -15.8175   17.7279 C   0  0  0  0  0  0  0  0  0  0  0  0
   10.0998  -15.7377   17.7223 O   0  0  0  0  0  0  0  0  0  0  0  0
    7.4510  -12.6269   19.7777 C   0  0  0  0  0  0  0  0  0  0  0  0
    7.7875  -13.7959   20.6433 C   0  0  1  0  0  0  0  0  0  0  0  0
    6.6085  -14.5703   20.7624 O   0  0  0  0  0  0  0  0  0  0  0  0
    8.8084  -14.7485   20.0096 C   0  0  2  0  0  0  0  0  0  0  0  0
    8.1327  -15.3486   18.8399 N   0  0  0  0  0  0  0  0  0  0  0  0
    9.2413  -15.8159   20.9311 C   0  0  0  0  0  0  0  0  0  0  0  0
    8.6404  -16.9407   20.8248 O   0  0  0  0  0  0  0  0  0  0  0  0
   10.2573  -15.6947   21.9100 N   0  0  0  0  0  0  0  0  0  0  0  0
   10.6167  -16.8274   22.7113 C   0  0  1  0  0  0  0  0  0  0  0  0
   11.4169  -17.8543   21.9960 C   0  0  0  0  0  0  0  0  0  0  0  0
   11.7622  -19.0899   22.7341 C   0  0  0  0  0  0  0  0  0  0  0  0
   12.6457  -20.0537   21.9829 C   0  0  0  0  0  0  0  0  0  0  0  0
   12.9238  -21.3016   22.8090 C   0  0  0  0  0  0  0  0  0  0  0  0
   13.7613  -22.1610   21.9996 N   0  0  0  0  0  0  0  0  0  0  0  0
   11.1684  -16.3803   24.0071 C   0  0  0  0  0  0  0  0  0  0  0  0
   11.3121  -15.0235   24.2421 O   0  0  0  0  0  0  0  0  0  0  0  0
   11.5197  -17.1654   24.9240 O   0  0  0  0  0  0  0  0  0  0  0  0
  1  2  1  0
  3  2  1  0
  4  3  1  0
  5  4  1  0
  5  1  1  0
  6  7  2  0
  5  6  1  1
  9  8  1  6
  9 10  1  0
  9 11  1  0
 11 12  1  6
 12  6  1  0
 13 15  1  0
 13 11  1  0
 14 13  2  0
 16 15  1  0
 16 22  1  0
 16 17  1  6
 17 18  1  0
 19 18  1  0
 20 21  1  0
 20 19  1  0
 22 23  1  0
 24 22  2  0
M  END
$$$$
