PTK.pdb
     RDKit          3D

 24 24  0  0  1  0  0  0  0  0999 V2000
    7.9353  -17.2943   16.6298 N   0  0  0  0  0  0  0  0  0  0  0  0
    8.9730  -18.2801   16.3984 C   0  0  0  0  0  0  0  0  0  0  0  0
    8.4521  -19.4904   17.1616 C   0  0  0  0  0  0  0  0  0  0  0  0
    7.9591  -18.8132   18.4466 C   0  0  0  0  0  0  0  0  0  0  0  0
    7.4772  -17.4585   17.9750 C   0  0  1  0  0  0  0  0  0  0  0  0
    8.0588  -16.4201   18.8918 C   0  0  0  0  0  0  0  0  0  0  0  0
    8.1857  -15.2487   18.4571 O   0  0  0  0  0  0  0  0  0  0  0  0
    6.7820  -14.3142   20.3702 C   0  0  0  0  0  0  0  0  0  0  0  0
    7.4241  -14.9985   21.5316 C   0  0  1  0  0  0  0  0  0  0  0  0
    6.5835  -16.0811   21.8851 O   0  0  0  0  0  0  0  0  0  0  0  0
    8.7666  -15.6537   21.1857 C   0  0  2  0  0  0  0  0  0  0  0  0
    8.4598  -16.7141   20.2028 N   0  0  0  0  0  0  0  0  0  0  0  0
    9.4314  -16.2471   22.3611 C   0  0  0  0  0  0  0  0  0  0  0  0
    8.9584  -17.3583   22.7844 O   0  0  0  0  0  0  0  0  0  0  0  0
   10.5382  -15.6911   23.0474 N   0  0  0  0  0  0  0  0  0  0  0  0
   11.6105  -16.5383   23.4794 C   0  0  1  0  0  0  0  0  0  0  0  0
   12.9634  -16.0530   23.1042 C   0  0  0  0  0  0  0  0  0  0  0  0
   14.1227  -16.8858   23.4958 C   0  0  0  0  0  0  0  0  0  0  0  0
   15.4708  -16.2828   23.1916 C   0  0  0  0  0  0  0  0  0  0  0  0
   16.5975  -17.1827   23.6795 C   0  0  0  0  0  0  0  0  0  0  0  0
   17.8377  -16.4970   23.3851 N   0  0  0  0  0  0  0  0  0  0  0  0
   11.4353  -16.8965   24.9021 C   0  0  0  0  0  0  0  0  0  0  0  0
   12.0914  -18.0099   25.3988 O   0  0  0  0  0  0  0  0  0  0  0  0
   10.7184  -16.2440   25.7027 O   0  0  0  0  0  0  0  0  0  0  0  0
  1  2  1  0
  3  2  1  0
  4  3  1  0
  5  4  1  0
  5  1  1  0
  6  7  2  0
  5  6  1  1
  9  8  1  6
  9 10  1  0
  9 11  1  0
 11 12  1  6
 12  6  1  0
 13 15  1  0
 13 11  1  0
 14 13  2  0
 16 15  1  0
 16 22  1  0
 16 17  1  1
 17 18  1  0
 19 18  1  0
 20 21  1  0
 20 19  1  0
 22 23  1  0
 24 22  2  0
M  END
$$$$
