PTK.pdb
     RDKit          3D

 24 24  0  0  1  0  0  0  0  0999 V2000
    9.2794  -16.7101   16.2981 N   0  0  0  0  0  0  0  0  0  0  0  0
    9.9997  -17.9684   16.3154 C   0  0  0  0  0  0  0  0  0  0  0  0
    8.8915  -18.9773   16.5847 C   0  0  0  0  0  0  0  0  0  0  0  0
    8.1064  -18.2381   17.6757 C   0  0  0  0  0  0  0  0  0  0  0  0
    8.2664  -16.7795   17.3057 C   0  0  1  0  0  0  0  0  0  0  0  0
    8.6639  -16.0324   18.5470 C   0  0  0  0  0  0  0  0  0  0  0  0
    9.8867  -15.8365   18.7559 O   0  0  0  0  0  0  0  0  0  0  0  0
    7.5189  -12.5785   19.7312 C   0  0  0  0  0  0  0  0  0  0  0  0
    7.2218  -13.5992   20.7795 C   0  0  1  0  0  0  0  0  0  0  0  0
    5.9221  -14.0931   20.5136 O   0  0  0  0  0  0  0  0  0  0  0  0
    8.1248  -14.8357   20.6982 C   0  0  2  0  0  0  0  0  0  0  0  0
    7.7233  -15.5520   19.4692 N   0  0  0  0  0  0  0  0  0  0  0  0
    7.9746  -15.7294   21.8621 C   0  0  0  0  0  0  0  0  0  0  0  0
    7.2112  -16.7447   21.7078 O   0  0  0  0  0  0  0  0  0  0  0  0
    8.6021  -15.5543   23.1194 N   0  0  0  0  0  0  0  0  0  0  0  0
    8.3465  -16.4821   24.1814 C   0  0  1  0  0  0  0  0  0  0  0  0
    9.5406  -16.8246   24.9958 C   0  0  0  0  0  0  0  0  0  0  0  0
    9.3683  -17.8176   26.0798 C   0  0  0  0  0  0  0  0  0  0  0  0
   10.6025  -18.0780   26.9060 C   0  0  0  0  0  0  0  0  0  0  0  0
   10.3237  -19.0947   28.0040 C   0  0  0  0  0  0  0  0  0  0  0  0
   11.5592  -19.2668   28.7383 N   0  0  0  0  0  0  0  0  0  0  0  0
    7.1533  -16.0646   24.9465 C   0  0  0  0  0  0  0  0  0  0  0  0
    6.3665  -17.0348   25.5434 O   0  0  0  0  0  0  0  0  0  0  0  0
    6.8025  -14.8662   25.0929 O   0  0  0  0  0  0  0  0  0  0  0  0
  1  2  1  0
  3  2  1  0
  4  3  1  0
  5  4  1  0
  5  1  1  0
  6  7  2  0
  5  6  1  1
  9  8  1  6
  9 10  1  0
  9 11  1  0
 11 12  1  6
 12  6  1  0
 13 15  1  0
 13 11  1  0
 14 13  2  0
 16 15  1  0
 16 22  1  0
 16 17  1  1
 17 18  1  0
 19 18  1  0
 20 21  1  0
 20 19  1  0
 22 23  1  0
 24 22  2  0
M  END
$$$$
