PTK.pdb
     RDKit          3D

 24 24  0  0  1  0  0  0  0  0999 V2000
    9.4662  -14.0965   18.4994 N   0  0  0  0  0  0  0  0  0  0  0  0
    8.4037  -14.1527   17.5144 C   0  0  0  0  0  0  0  0  0  0  0  0
    7.5933  -12.9039   17.8343 C   0  0  0  0  0  0  0  0  0  0  0  0
    7.5669  -12.9787   19.3662 C   0  0  0  0  0  0  0  0  0  0  0  0
    8.8996  -13.6038   19.7170 C   0  0  1  0  0  0  0  0  0  0  0  0
    8.6425  -14.7110   20.6994 C   0  0  0  0  0  0  0  0  0  0  0  0
    7.8938  -14.4731   21.6792 O   0  0  0  0  0  0  0  0  0  0  0  0
    9.3036  -19.5434   21.8030 C   0  0  0  0  0  0  0  0  0  0  0  0
    9.4199  -18.3572   20.9038 C   0  0  1  0  0  0  0  0  0  0  0  0
    8.4556  -18.5227   19.8807 O   0  0  0  0  0  0  0  0  0  0  0  0
    9.0339  -17.0381   21.5835 C   0  0  2  0  0  0  0  0  0  0  0  0
    9.2057  -15.9873   20.5583 N   0  0  0  0  0  0  0  0  0  0  0  0
    9.8788  -16.7302   22.7527 C   0  0  0  0  0  0  0  0  0  0  0  0
   11.0601  -16.3038   22.5073 O   0  0  0  0  0  0  0  0  0  0  0  0
    9.4892  -16.8663   24.1073 N   0  0  0  0  0  0  0  0  0  0  0  0
   10.4157  -16.5476   25.1532 C   0  0  1  0  0  0  0  0  0  0  0  0
    9.8407  -15.7306   26.2526 C   0  0  0  0  0  0  0  0  0  0  0  0
   10.7114  -15.4325   27.4118 C   0  0  0  0  0  0  0  0  0  0  0  0
   10.1011  -14.5235   28.4485 C   0  0  0  0  0  0  0  0  0  0  0  0
   11.0596  -14.2921   29.6083 C   0  0  0  0  0  0  0  0  0  0  0  0
   10.3648  -13.4571   30.5649 N   0  0  0  0  0  0  0  0  0  0  0  0
   11.1434  -17.7618   25.5768 C   0  0  0  0  0  0  0  0  0  0  0  0
   12.4869  -17.6612   25.8954 O   0  0  0  0  0  0  0  0  0  0  0  0
   10.6117  -18.8973   25.6689 O   0  0  0  0  0  0  0  0  0  0  0  0
  1  2  1  0
  3  2  1  0
  4  3  1  0
  5  4  1  0
  5  1  1  0
  6  7  2  0
  5  6  1  1
  9  8  1  1
  9 10  1  0
  9 11  1  0
 11 12  1  6
 12  6  1  0
 13 15  1  0
 13 11  1  0
 14 13  2  0
 16 15  1  0
 16 22  1  0
 16 17  1  1
 17 18  1  0
 19 18  1  0
 20 21  1  0
 20 19  1  0
 22 23  1  0
 24 22  2  0
M  END
$$$$
