PTK.pdb
     RDKit          3D

 24 24  0  0  1  0  0  0  0  0999 V2000
    8.9207  -17.3251   15.2758 N   0  0  0  0  0  0  0  0  0  0  0  0
    9.8269  -18.4563   15.2377 C   0  0  0  0  0  0  0  0  0  0  0  0
    9.0067  -19.5563   15.8978 C   0  0  0  0  0  0  0  0  0  0  0  0
    8.3978  -18.7781   17.0712 C   0  0  0  0  0  0  0  0  0  0  0  0
    8.2117  -17.3825   16.5168 C   0  0  1  0  0  0  0  0  0  0  0  0
    8.7671  -16.4124   17.5206 C   0  0  0  0  0  0  0  0  0  0  0  0
    9.9826  -16.1068   17.4411 O   0  0  0  0  0  0  0  0  0  0  0  0
    7.9041  -12.6227   20.4871 C   0  0  0  0  0  0  0  0  0  0  0  0
    7.5310  -13.6986   19.5215 C   0  0  1  0  0  0  0  0  0  0  0  0
    7.6138  -13.1333   18.2263 O   0  0  0  0  0  0  0  0  0  0  0  0
    8.5269  -14.8642   19.4944 C   0  0  2  0  0  0  0  0  0  0  0  0
    7.9799  -15.8437   18.5320 N   0  0  0  0  0  0  0  0  0  0  0  0
    8.6906  -15.5055   20.8126 C   0  0  0  0  0  0  0  0  0  0  0  0
    7.7348  -16.2619   21.2024 O   0  0  0  0  0  0  0  0  0  0  0  0
    9.8086  -15.3525   21.6681 N   0  0  0  0  0  0  0  0  0  0  0  0
    9.9190  -16.1548   22.8506 C   0  0  1  0  0  0  0  0  0  0  0  0
   11.2961  -16.6297   23.1418 C   0  0  0  0  0  0  0  0  0  0  0  0
   11.7492  -17.8689   22.4711 C   0  0  0  0  0  0  0  0  0  0  0  0
   13.1650  -18.2814   22.7860 C   0  0  0  0  0  0  0  0  0  0  0  0
   13.5794  -19.4936   21.9638 C   0  0  0  0  0  0  0  0  0  0  0  0
   14.9623  -19.7681   22.2912 N   0  0  0  0  0  0  0  0  0  0  0  0
    9.2202  -15.5015   23.9767 C   0  0  0  0  0  0  0  0  0  0  0  0
    8.9425  -16.2416   25.1133 O   0  0  0  0  0  0  0  0  0  0  0  0
    8.8572  -14.2978   23.9685 O   0  0  0  0  0  0  0  0  0  0  0  0
  1  2  1  0
  3  2  1  0
  4  3  1  0
  5  4  1  0
  5  1  1  0
  6  7  2  0
  5  6  1  1
  9  8  1  1
  9 10  1  0
  9 11  1  0
 11 12  1  6
 12  6  1  0
 13 15  1  0
 13 11  1  0
 14 13  2  0
 16 15  1  0
 16 22  1  0
 16 17  1  1
 17 18  1  0
 19 18  1  0
 20 21  1  0
 20 19  1  0
 22 23  1  0
 24 22  2  0
M  END
$$$$
