PTK.pdb
     RDKit          3D

 24 24  0  0  1  0  0  0  0  0999 V2000
    9.2231  -14.2402   18.5157 N   0  0  0  0  0  0  0  0  0  0  0  0
    8.0654  -14.2486   17.6428 C   0  0  0  0  0  0  0  0  0  0  0  0
    7.4498  -12.8800   17.9008 C   0  0  0  0  0  0  0  0  0  0  0  0
    7.5733  -12.8070   19.4281 C   0  0  0  0  0  0  0  0  0  0  0  0
    8.8495  -13.5658   19.7206 C   0  0  1  0  0  0  0  0  0  0  0  0
    8.5631  -14.5329   20.8340 C   0  0  0  0  0  0  0  0  0  0  0  0
    8.0602  -14.0854   21.8943 O   0  0  0  0  0  0  0  0  0  0  0  0
    8.3029  -19.3490   22.1593 C   0  0  0  0  0  0  0  0  0  0  0  0
    8.6449  -18.2531   21.2048 C   0  0  1  0  0  0  0  0  0  0  0  0
    7.6642  -18.2778   20.1843 O   0  0  0  0  0  0  0  0  0  0  0  0
    8.5240  -16.8527   21.8176 C   0  0  2  0  0  0  0  0  0  0  0  0
    8.8364  -15.9041   20.7280 N   0  0  0  0  0  0  0  0  0  0  0  0
    9.4561  -16.6390   22.9408 C   0  0  0  0  0  0  0  0  0  0  0  0
   10.6903  -16.4889   22.6381 O   0  0  0  0  0  0  0  0  0  0  0  0
    9.0959  -16.5864   24.3092 N   0  0  0  0  0  0  0  0  0  0  0  0
   10.1043  -16.3793   25.3064 C   0  0  1  0  0  0  0  0  0  0  0  0
    9.6684  -15.5415   26.4531 C   0  0  0  0  0  0  0  0  0  0  0  0
   10.5955  -15.4147   27.5999 C   0  0  0  0  0  0  0  0  0  0  0  0
   10.0740  -14.5928   28.7515 C   0  0  0  0  0  0  0  0  0  0  0  0
   11.1109  -14.4815   29.8604 C   0  0  0  0  0  0  0  0  0  0  0  0
   10.5072  -13.7029   30.9209 N   0  0  0  0  0  0  0  0  0  0  0  0
   10.7397  -17.6646   25.6631 C   0  0  0  0  0  0  0  0  0  0  0  0
    9.9497  -18.7968   25.7672 O   0  0  0  0  0  0  0  0  0  0  0  0
   11.9708  -17.7978   25.8803 O   0  0  0  0  0  0  0  0  0  0  0  0
  1  2  1  0
  3  2  1  0
  4  3  1  0
  5  4  1  0
  5  1  1  0
  6  7  2  0
  5  6  1  1
  9  8  1  1
  9 10  1  0
  9 11  1  0
 11 12  1  6
 12  6  1  0
 13 15  1  0
 13 11  1  0
 14 13  2  0
 16 15  1  0
 16 22  1  0
 16 17  1  1
 17 18  1  0
 19 18  1  0
 20 21  1  0
 20 19  1  0
 22 23  1  0
 24 22  2  0
M  END
$$$$
