PTK.pdb
     RDKit          3D

 24 24  0  0  1  0  0  0  0  0999 V2000
    8.0795  -13.8338   15.9783 N   0  0  0  0  0  0  0  0  0  0  0  0
    9.1353  -14.2093   15.0582 C   0  0  0  0  0  0  0  0  0  0  0  0
    8.8574  -15.6882   14.8256 C   0  0  0  0  0  0  0  0  0  0  0  0
    8.5481  -16.1381   16.2591 C   0  0  0  0  0  0  0  0  0  0  0  0
    7.8828  -14.9282   16.8782 C   0  0  1  0  0  0  0  0  0  0  0  0
    8.5329  -14.6782   18.2093 C   0  0  0  0  0  0  0  0  0  0  0  0
    9.5216  -13.9049   18.2510 O   0  0  0  0  0  0  0  0  0  0  0  0
    6.7915  -13.2872   21.0403 C   0  0  0  0  0  0  0  0  0  0  0  0
    7.5009  -14.4807   21.5893 C   0  0  1  0  0  0  0  0  0  0  0  0
    6.5784  -15.5540   21.5619 O   0  0  0  0  0  0  0  0  0  0  0  0
    8.6649  -14.9543   20.7106 C   0  0  2  0  0  0  0  0  0  0  0  0
    8.0756  -15.2740   19.3933 N   0  0  0  0  0  0  0  0  0  0  0  0
    9.3397  -16.1487   21.2528 C   0  0  0  0  0  0  0  0  0  0  0  0
    9.3839  -17.1753   20.4901 O   0  0  0  0  0  0  0  0  0  0  0  0
    9.9355  -16.2459   22.5336 N   0  0  0  0  0  0  0  0  0  0  0  0
   11.0600  -17.1114   22.7353 C   0  0  1  0  0  0  0  0  0  0  0  0
   12.0952  -17.0276   21.6732 C   0  0  0  0  0  0  0  0  0  0  0  0
   12.6649  -18.2979   21.1706 C   0  0  0  0  0  0  0  0  0  0  0  0
   13.9874  -18.1642   20.4588 C   0  0  0  0  0  0  0  0  0  0  0  0
   14.5625  -19.5293   20.1080 C   0  0  0  0  0  0  0  0  0  0  0  0
   15.8085  -19.2916   19.4106 N   0  0  0  0  0  0  0  0  0  0  0  0
   11.5583  -16.9849   24.1205 C   0  0  0  0  0  0  0  0  0  0  0  0
   10.9802  -16.0461   24.9578 O   0  0  0  0  0  0  0  0  0  0  0  0
   12.4872  -17.6871   24.5946 O   0  0  0  0  0  0  0  0  0  0  0  0
  1  2  1  0
  3  2  1  0
  4  3  1  0
  5  4  1  0
  5  1  1  0
  6  7  2  0
  5  6  1  1
  9  8  1  6
  9 10  1  0
  9 11  1  0
 11 12  1  6
 12  6  1  0
 13 15  1  0
 13 11  1  0
 14 13  2  0
 16 15  1  0
 16 22  1  0
 16 17  1  6
 17 18  1  0
 19 18  1  0
 20 21  1  0
 20 19  1  0
 22 23  1  0
 24 22  2  0
M  END
$$$$
