PTK.pdb
     RDKit          3D

 24 24  0  0  1  0  0  0  0  0999 V2000
    8.3329  -15.2615   18.2839 N   0  0  0  0  0  0  0  0  0  0  0  0
    7.1635  -14.4360   18.0535 C   0  0  0  0  0  0  0  0  0  0  0  0
    7.7510  -13.2268   17.3384 C   0  0  0  0  0  0  0  0  0  0  0  0
    9.0112  -12.9948   18.1817 C   0  0  0  0  0  0  0  0  0  0  0  0
    9.4199  -14.3889   18.6053 C   0  0  1  0  0  0  0  0  0  0  0  0
    9.6910  -14.3583   20.0827 C   0  0  0  0  0  0  0  0  0  0  0  0
   10.6408  -13.6489   20.4973 O   0  0  0  0  0  0  0  0  0  0  0  0
    7.3766  -13.4742   22.8763 C   0  0  0  0  0  0  0  0  0  0  0  0
    7.9359  -14.8250   23.1785 C   0  0  1  0  0  0  0  0  0  0  0  0
    7.0222  -15.7726   22.6579 O   0  0  0  0  0  0  0  0  0  0  0  0
    9.2501  -15.1177   22.4447 C   0  0  2  0  0  0  0  0  0  0  0  0
    8.9256  -15.0885   21.0030 N   0  0  0  0  0  0  0  0  0  0  0  0
    9.8193  -16.4323   22.7963 C   0  0  0  0  0  0  0  0  0  0  0  0
    9.4386  -17.4275   22.0876 O   0  0  0  0  0  0  0  0  0  0  0  0
   10.7429  -16.6752   23.8418 N   0  0  0  0  0  0  0  0  0  0  0  0
   11.1810  -18.0127   24.1124 C   0  0  1  0  0  0  0  0  0  0  0  0
   12.3685  -18.4385   23.3281 C   0  0  0  0  0  0  0  0  0  0  0  0
   13.6520  -18.5803   24.0514 C   0  0  0  0  0  0  0  0  0  0  0  0
   14.8186  -19.0108   23.1985 C   0  0  0  0  0  0  0  0  0  0  0  0
   16.0996  -19.0848   24.0175 C   0  0  0  0  0  0  0  0  0  0  0  0
   17.1208  -19.6299   23.1485 N   0  0  0  0  0  0  0  0  0  0  0  0
   11.2688  -18.2349   25.5705 C   0  0  0  0  0  0  0  0  0  0  0  0
   10.9426  -17.1977   26.4275 O   0  0  0  0  0  0  0  0  0  0  0  0
   11.6252  -19.3228   26.0902 O   0  0  0  0  0  0  0  0  0  0  0  0
  1  2  1  0
  3  2  1  0
  4  3  1  0
  5  4  1  0
  5  1  1  0
  6  7  2  0
  5  6  1  1
  9  8  1  6
  9 10  1  0
  9 11  1  0
 11 12  1  6
 12  6  1  0
 13 15  1  0
 13 11  1  0
 14 13  2  0
 16 15  1  0
 16 22  1  0
 16 17  1  6
 17 18  1  0
 19 18  1  0
 20 21  1  0
 20 19  1  0
 22 23  1  0
 24 22  2  0
M  END
$$$$
