PTK.pdb
     RDKit          3D

 24 24  0  0  1  0  0  0  0  0999 V2000
    8.0562  -16.5603   16.8544 N   0  0  0  0  0  0  0  0  0  0  0  0
    7.1897  -15.7652   16.0062 C   0  0  0  0  0  0  0  0  0  0  0  0
    8.1709  -15.1557   15.0141 C   0  0  0  0  0  0  0  0  0  0  0  0
    9.3099  -14.7600   15.9624 C   0  0  0  0  0  0  0  0  0  0  0  0
    9.2737  -15.8305   17.0313 C   0  0  1  0  0  0  0  0  0  0  0  0
    9.3233  -15.1461   18.3678 C   0  0  0  0  0  0  0  0  0  0  0  0
   10.3179  -14.4251   18.6289 O   0  0  0  0  0  0  0  0  0  0  0  0
    7.1275  -12.6589   19.6861 C   0  0  0  0  0  0  0  0  0  0  0  0
    7.1525  -13.7194   20.7367 C   0  0  1  0  0  0  0  0  0  0  0  0
    6.0537  -14.5747   20.4816 O   0  0  0  0  0  0  0  0  0  0  0  0
    8.3789  -14.6354   20.6477 C   0  0  2  0  0  0  0  0  0  0  0  0
    8.3054  -15.2852   19.3221 N   0  0  0  0  0  0  0  0  0  0  0  0
    8.3987  -15.6663   21.7025 C   0  0  0  0  0  0  0  0  0  0  0  0
    7.7545  -16.7449   21.4592 O   0  0  0  0  0  0  0  0  0  0  0  0
    9.0674  -15.5574   22.9459 N   0  0  0  0  0  0  0  0  0  0  0  0
    8.9026  -16.5784   23.9382 C   0  0  1  0  0  0  0  0  0  0  0  0
   10.1760  -17.1555   24.4402 C   0  0  0  0  0  0  0  0  0  0  0  0
   10.9451  -18.0223   23.5193 C   0  0  0  0  0  0  0  0  0  0  0  0
   12.3901  -18.2283   23.8976 C   0  0  0  0  0  0  0  0  0  0  0  0
   12.7345  -19.7096   23.9637 C   0  0  0  0  0  0  0  0  0  0  0  0
   14.1293  -19.7983   24.3403 N   0  0  0  0  0  0  0  0  0  0  0  0
    7.9540  -16.1297   24.9784 C   0  0  0  0  0  0  0  0  0  0  0  0
    7.4485  -17.0597   25.8708 O   0  0  0  0  0  0  0  0  0  0  0  0
    7.5719  -14.9389   25.1072 O   0  0  0  0  0  0  0  0  0  0  0  0
  1  2  1  0
  3  2  1  0
  4  3  1  0
  5  4  1  0
  5  1  1  0
  6  7  2  0
  5  6  1  1
  9  8  1  6
  9 10  1  0
  9 11  1  0
 11 12  1  6
 12  6  1  0
 13 15  1  0
 13 11  1  0
 14 13  2  0
 16 15  1  0
 16 22  1  0
 16 17  1  1
 17 18  1  0
 19 18  1  0
 20 21  1  0
 20 19  1  0
 22 23  1  0
 24 22  2  0
M  END
$$$$
