VHC.pdb
     RDKit          3D

 24 24  0  0  1  0  0  0  0  0999 V2000
   23.6090  -14.2629  -15.5510 C   0  0  0  0  0  0  0  0  0  0  0  0
   23.4577  -12.8672  -16.1554 C   0  0  2  0  0  0  0  0  0  0  0  0
   24.2248  -11.9268  -15.2547 C   0  0  0  0  0  0  0  0  0  0  0  0
   21.9882  -12.5668  -16.1912 C   0  0  2  0  0  0  0  0  0  0  0  0
   21.3274  -13.6354  -16.8924 N   0  0  0  0  0  0  0  0  0  0  0  0
   21.6579  -11.2454  -16.7223 C   0  0  0  0  0  0  0  0  0  0  0  0
   22.1574  -10.8594  -17.8000 O   0  0  0  0  0  0  0  0  0  0  0  0
   20.7735  -10.3879  -16.0297 N   0  0  0  0  0  0  0  0  0  0  0  0
   20.3834   -9.0669  -16.4984 C   0  0  1  0  0  0  0  0  0  0  0  0
   18.9694   -9.0284  -16.9763 C   0  0  0  0  0  0  0  0  0  0  0  0
   18.7500   -9.8110  -18.2169 C   0  0  0  0  0  0  0  0  0  0  0  0
   18.0087  -10.9763  -18.2643 C   0  0  0  0  0  0  0  0  0  0  0  0
   18.0152  -11.4181  -19.5306 N   0  0  0  0  0  0  0  0  0  0  0  0
   18.7346  -10.5650  -20.2624 C   0  0  0  0  0  0  0  0  0  0  0  0
   19.1878   -9.5791  -19.4673 N   0  0  0  0  0  0  0  0  0  0  0  0
   20.5471   -8.0688  -15.4145 C   0  0  0  0  0  0  0  0  0  0  0  0
   20.2300   -8.2581  -14.2319 O   0  0  0  0  0  0  0  0  0  0  0  0
   21.1160   -6.7911  -15.7716 N   0  0  0  0  0  0  0  0  0  0  0  0
   21.3804   -5.7852  -14.7567 C   0  0  1  0  0  0  0  0  0  0  0  0
   22.5502   -4.9485  -15.2836 C   0  0  0  0  0  0  0  0  0  0  0  0
   22.8841   -3.6104  -14.1088 S   0  0  0  0  0  0  0  0  0  0  0  0
   20.1877   -4.9191  -14.5767 C   0  0  0  0  0  0  0  0  0  0  0  0
   19.8537   -4.6221  -13.4082 O   0  0  0  0  0  0  0  0  0  0  0  0
   19.4411   -4.4344  -15.6487 O   0  0  0  0  0  0  0  0  0  0  0  0
  2  1  1  1
  2  3  1  0
  4  2  1  0
  4  6  1  0
  4  5  1  6
  6  7  2  0
  8  6  1  0
  8  9  1  0
  9 10  1  1
 10 11  1  0
 11 12  2  0
 12 13  1  0
 14 13  1  0
 15 11  1  0
 15 14  2  0
 16 17  2  0
 16  9  1  0
 18 16  1  0
 19 18  1  0
 19 20  1  6
 21 20  1  0
 22 19  1  0
 22 24  1  0
 23 22  2  0
M  END
$$$$
