VHC.pdb
     RDKit          3D

 24 24  0  0  1  0  0  0  0  0999 V2000
   19.4709  -12.6412  -17.9947 C   0  0  0  0  0  0  0  0  0  0  0  0
   20.5831  -12.3973  -19.0145 C   0  0  2  0  0  0  0  0  0  0  0  0
   21.2646  -13.7291  -19.2292 C   0  0  0  0  0  0  0  0  0  0  0  0
   21.4976  -11.3666  -18.4210 C   0  0  2  0  0  0  0  0  0  0  0  0
   22.4753  -12.0448  -17.6121 N   0  0  0  0  0  0  0  0  0  0  0  0
   20.8093  -10.2938  -17.7050 C   0  0  0  0  0  0  0  0  0  0  0  0
   19.9643   -9.5874  -18.2942 O   0  0  0  0  0  0  0  0  0  0  0  0
   21.0866  -10.0393  -16.3429 N   0  0  0  0  0  0  0  0  0  0  0  0
   20.4217   -9.0147  -15.5524 C   0  0  1  0  0  0  0  0  0  0  0  0
   19.6952   -9.5847  -14.3790 C   0  0  0  0  0  0  0  0  0  0  0  0
   18.4191  -10.2454  -14.7461 C   0  0  0  0  0  0  0  0  0  0  0  0
   17.3913   -9.6056  -15.4122 C   0  0  0  0  0  0  0  0  0  0  0  0
   16.3966  -10.4891  -15.5818 N   0  0  0  0  0  0  0  0  0  0  0  0
   16.7777  -11.6491  -15.0431 C   0  0  0  0  0  0  0  0  0  0  0  0
   18.0132  -11.5093  -14.5297 N   0  0  0  0  0  0  0  0  0  0  0  0
   21.4086   -8.0217  -15.0649 C   0  0  0  0  0  0  0  0  0  0  0  0
   22.4228   -8.3023  -14.4111 O   0  0  0  0  0  0  0  0  0  0  0  0
   21.1621   -6.6345  -15.3787 N   0  0  0  0  0  0  0  0  0  0  0  0
   22.0502   -5.5927  -14.8909 C   0  0  1  0  0  0  0  0  0  0  0  0
   22.1765   -4.5758  -16.0294 C   0  0  0  0  0  0  0  0  0  0  0  0
   23.0584   -3.1184  -15.4126 S   0  0  0  0  0  0  0  0  0  0  0  0
   21.4570   -4.9364  -13.6982 C   0  0  0  0  0  0  0  0  0  0  0  0
   20.2146   -4.7919  -13.6695 O   0  0  0  0  0  0  0  0  0  0  0  0
   22.2260   -4.4838  -12.6280 O   0  0  0  0  0  0  0  0  0  0  0  0
  2  1  1  1
  2  3  1  0
  4  2  1  0
  4  6  1  0
  4  5  1  1
  6  7  2  0
  8  6  1  0
  8  9  1  0
  9 10  1  1
 10 11  1  0
 11 12  2  0
 12 13  1  0
 14 13  1  0
 15 11  1  0
 15 14  2  0
 16 17  2  0
 16  9  1  0
 18 16  1  0
 19 18  1  0
 19 20  1  6
 21 20  1  0
 22 19  1  0
 22 24  1  0
 23 22  2  0
M  END
$$$$
