VHC.pdb
     RDKit          3D

 24 24  0  0  1  0  0  0  0  0999 V2000
   24.7639  -14.9970  -17.7024 C   0  0  0  0  0  0  0  0  0  0  0  0
   23.2886  -15.3594  -17.5337 C   0  0  2  0  0  0  0  0  0  0  0  0
   23.0072  -16.4713  -18.5179 C   0  0  0  0  0  0  0  0  0  0  0  0
   22.5005  -14.1159  -17.8222 C   0  0  2  0  0  0  0  0  0  0  0  0
   22.6500  -13.8022  -19.2185 N   0  0  0  0  0  0  0  0  0  0  0  0
   22.8158  -12.9882  -16.9469 C   0  0  0  0  0  0  0  0  0  0  0  0
   22.7977  -13.1324  -15.7064 O   0  0  0  0  0  0  0  0  0  0  0  0
   23.1444  -11.7239  -17.4861 N   0  0  0  0  0  0  0  0  0  0  0  0
   23.4761  -10.5560  -16.6842 C   0  0  1  0  0  0  0  0  0  0  0  0
   24.8813  -10.0995  -16.8995 C   0  0  0  0  0  0  0  0  0  0  0  0
   25.8914  -11.0433  -16.3622 C   0  0  0  0  0  0  0  0  0  0  0  0
   26.7996  -11.7220  -17.1522 C   0  0  0  0  0  0  0  0  0  0  0  0
   27.5572  -12.4833  -16.3489 N   0  0  0  0  0  0  0  0  0  0  0  0
   27.1460  -12.2957  -15.0932 C   0  0  0  0  0  0  0  0  0  0  0  0
   26.1277  -11.4167  -15.0918 N   0  0  0  0  0  0  0  0  0  0  0  0
   22.5577   -9.4368  -17.0033 C   0  0  0  0  0  0  0  0  0  0  0  0
   22.1363   -9.1761  -18.1388 O   0  0  0  0  0  0  0  0  0  0  0  0
   22.1305   -8.5985  -15.9086 N   0  0  0  0  0  0  0  0  0  0  0  0
   21.2100   -7.4964  -16.1315 C   0  0  1  0  0  0  0  0  0  0  0  0
   19.8374   -8.1323  -16.3719 C   0  0  0  0  0  0  0  0  0  0  0  0
   18.5866   -6.8221  -16.4039 S   0  0  0  0  0  0  0  0  0  0  0  0
   21.1547   -6.6288  -14.9276 C   0  0  0  0  0  0  0  0  0  0  0  0
   21.3883   -7.1562  -13.8175 O   0  0  0  0  0  0  0  0  0  0  0  0
   20.8563   -5.2693  -14.9929 O   0  0  0  0  0  0  0  0  0  0  0  0
  2  1  1  6
  2  3  1  0
  4  2  1  0
  4  6  1  0
  4  5  1  6
  6  7  2  0
  8  6  1  0
  8  9  1  0
  9 10  1  6
 10 11  1  0
 11 12  2  0
 12 13  1  0
 14 13  1  0
 15 11  1  0
 15 14  2  0
 16 17  2  0
 16  9  1  0
 18 16  1  0
 19 18  1  0
 19 20  1  1
 21 20  1  0
 22 19  1  0
 22 24  1  0
 23 22  2  0
M  END
$$$$
