VHC.pdb
     RDKit          3D

 24 24  0  0  1  0  0  0  0  0999 V2000
   23.8441  -12.2440  -19.4758 C   0  0  0  0  0  0  0  0  0  0  0  0
   23.1634  -12.8055  -18.2277 C   0  0  2  0  0  0  0  0  0  0  0  0
   21.7038  -12.9790  -18.5794 C   0  0  0  0  0  0  0  0  0  0  0  0
   23.3808  -11.8076  -17.1287 C   0  0  2  0  0  0  0  0  0  0  0  0
   22.8712  -12.3675  -15.9052 N   0  0  0  0  0  0  0  0  0  0  0  0
   22.8483  -10.4759  -17.4124 C   0  0  0  0  0  0  0  0  0  0  0  0
   23.5190   -9.6610  -18.0803 O   0  0  0  0  0  0  0  0  0  0  0  0
   21.5738  -10.0907  -16.9388 N   0  0  0  0  0  0  0  0  0  0  0  0
   20.9419   -8.8156  -17.2417 C   0  0  1  0  0  0  0  0  0  0  0  0
   19.5473   -8.9791  -17.7495 C   0  0  0  0  0  0  0  0  0  0  0  0
   18.8999   -7.6928  -18.1046 C   0  0  0  0  0  0  0  0  0  0  0  0
   19.0709   -7.0617  -19.3220 C   0  0  0  0  0  0  0  0  0  0  0  0
   18.3486   -5.9317  -19.3060 N   0  0  0  0  0  0  0  0  0  0  0  0
   17.7400   -5.8469  -18.1213 C   0  0  0  0  0  0  0  0  0  0  0  0
   18.0715   -6.9196  -17.3802 N   0  0  0  0  0  0  0  0  0  0  0  0
   20.9109   -7.9581  -16.0327 C   0  0  0  0  0  0  0  0  0  0  0  0
   20.6702   -8.3666  -14.8881 O   0  0  0  0  0  0  0  0  0  0  0  0
   21.1812   -6.5515  -16.2117 N   0  0  0  0  0  0  0  0  0  0  0  0
   21.2541   -5.6571  -15.0687 C   0  0  1  0  0  0  0  0  0  0  0  0
   22.5575   -6.0027  -14.3422 C   0  0  0  0  0  0  0  0  0  0  0  0
   22.8222   -4.7964  -13.0166 S   0  0  0  0  0  0  0  0  0  0  0  0
   21.2978   -4.2461  -15.5294 C   0  0  0  0  0  0  0  0  0  0  0  0
   21.8662   -4.0053  -16.6176 O   0  0  0  0  0  0  0  0  0  0  0  0
   20.7359   -3.1992  -14.8016 O   0  0  0  0  0  0  0  0  0  0  0  0
  2  1  1  6
  2  3  1  0
  4  2  1  0
  4  6  1  0
  4  5  1  1
  6  7  2  0
  8  6  1  0
  8  9  1  0
  9 10  1  1
 10 11  1  0
 11 12  2  0
 12 13  1  0
 14 13  1  0
 15 11  1  0
 15 14  2  0
 16 17  2  0
 16  9  1  0
 18 16  1  0
 19 18  1  0
 19 20  1  6
 21 20  1  0
 22 19  1  0
 22 24  1  0
 23 22  2  0
M  END
$$$$
