VHC.pdb
     RDKit          3D

 24 24  0  0  1  0  0  0  0  0999 V2000
   21.2188  -13.0825  -18.0394 C   0  0  0  0  0  0  0  0  0  0  0  0
   22.3855  -12.4672  -18.8117 C   0  0  2  0  0  0  0  0  0  0  0  0
   23.3912  -13.5759  -19.0199 C   0  0  0  0  0  0  0  0  0  0  0  0
   22.9218  -11.3480  -17.9687 C   0  0  2  0  0  0  0  0  0  0  0  0
   23.6123  -11.9224  -16.8446 N   0  0  0  0  0  0  0  0  0  0  0  0
   21.9205  -10.3571  -17.5780 C   0  0  0  0  0  0  0  0  0  0  0  0
   21.1785   -9.8411  -18.4401 O   0  0  0  0  0  0  0  0  0  0  0  0
   21.7759   -9.9689  -16.2269 N   0  0  0  0  0  0  0  0  0  0  0  0
   20.8317   -8.9636  -15.7633 C   0  0  1  0  0  0  0  0  0  0  0  0
   19.7660   -9.5435  -14.8931 C   0  0  0  0  0  0  0  0  0  0  0  0
   18.7253  -10.2772  -15.6536 C   0  0  0  0  0  0  0  0  0  0  0  0
   18.4900  -11.6319  -15.5151 C   0  0  0  0  0  0  0  0  0  0  0  0
   17.4892  -11.9636  -16.3440 N   0  0  0  0  0  0  0  0  0  0  0  0
   17.1016  -10.8601  -16.9866 C   0  0  0  0  0  0  0  0  0  0  0  0
   17.8520   -9.8240  -16.5707 N   0  0  0  0  0  0  0  0  0  0  0  0
   21.5406   -7.9042  -15.0062 C   0  0  0  0  0  0  0  0  0  0  0  0
   22.2918   -8.1124  -14.0433 O   0  0  0  0  0  0  0  0  0  0  0  0
   21.3350   -6.5391  -15.4277 N   0  0  0  0  0  0  0  0  0  0  0  0
   21.9899   -5.4411  -14.7369 C   0  0  1  0  0  0  0  0  0  0  0  0
   22.9988   -4.8566  -15.7303 C   0  0  0  0  0  0  0  0  0  0  0  0
   23.7301   -3.3651  -15.0073 S   0  0  0  0  0  0  0  0  0  0  0  0
   20.9922   -4.4043  -14.3697 C   0  0  0  0  0  0  0  0  0  0  0  0
   20.0063   -4.2505  -15.1243 O   0  0  0  0  0  0  0  0  0  0  0  0
   21.1163   -3.6105  -13.2312 O   0  0  0  0  0  0  0  0  0  0  0  0
  2  1  1  1
  2  3  1  0
  4  2  1  0
  4  6  1  0
  4  5  1  1
  6  7  2  0
  8  6  1  0
  8  9  1  0
  9 10  1  1
 10 11  1  0
 11 12  2  0
 12 13  1  0
 14 13  1  0
 15 11  1  0
 15 14  2  0
 16 17  2  0
 16  9  1  0
 18 16  1  0
 19 18  1  0
 19 20  1  6
 21 20  1  0
 22 19  1  0
 22 24  1  0
 23 22  2  0
M  END
$$$$
