VHC.pdb
     RDKit          3D

 24 24  0  0  1  0  0  0  0  0999 V2000
   26.6342  -24.8789  -16.7159 C   0  0  0  0  0  0  0  0  0  0  0  0
   26.3432  -23.5305  -17.3742 C   0  0  2  0  0  0  0  0  0  0  0  0
   27.2403  -23.4457  -18.5875 C   0  0  0  0  0  0  0  0  0  0  0  0
   26.6470  -22.4743  -16.3530 C   0  0  2  0  0  0  0  0  0  0  0  0
   26.3887  -23.0227  -15.0480 N   0  0  0  0  0  0  0  0  0  0  0  0
   25.9644  -21.2022  -16.5830 C   0  0  0  0  0  0  0  0  0  0  0  0
   25.9170  -20.7141  -17.7317 O   0  0  0  0  0  0  0  0  0  0  0  0
   25.3505  -20.5076  -15.5163 N   0  0  0  0  0  0  0  0  0  0  0  0
   24.6356  -19.2492  -15.6661 C   0  0  1  0  0  0  0  0  0  0  0  0
   23.7566  -18.9525  -14.4962 C   0  0  0  0  0  0  0  0  0  0  0  0
   22.5308  -19.7867  -14.4596 C   0  0  0  0  0  0  0  0  0  0  0  0
   22.2095  -20.7159  -15.4306 C   0  0  0  0  0  0  0  0  0  0  0  0
   21.0446  -21.2852  -15.0874 N   0  0  0  0  0  0  0  0  0  0  0  0
   20.6394  -20.7381  -13.9397 C   0  0  0  0  0  0  0  0  0  0  0  0
   21.5421  -19.8207  -13.5484 N   0  0  0  0  0  0  0  0  0  0  0  0
   25.5945  -18.1315  -15.8368 C   0  0  0  0  0  0  0  0  0  0  0  0
   26.2113  -17.5877  -14.9100 O   0  0  0  0  0  0  0  0  0  0  0  0
   25.8183  -17.6504  -17.1792 N   0  0  0  0  0  0  0  0  0  0  0  0
   26.7598  -16.5737  -17.4359 C   0  0  1  0  0  0  0  0  0  0  0  0
   27.9820  -17.2260  -18.0895 C   0  0  0  0  0  0  0  0  0  0  0  0
   28.7754  -18.3173  -16.8805 S   0  0  0  0  0  0  0  0  0  0  0  0
   26.1610  -15.5867  -18.3698 C   0  0  0  0  0  0  0  0  0  0  0  0
   26.7582  -14.4992  -18.5306 O   0  0  0  0  0  0  0  0  0  0  0  0
   24.9755  -15.8281  -19.0612 O   0  0  0  0  0  0  0  0  0  0  0  0
  2  1  1  1
  2  3  1  0
  4  2  1  0
  4  6  1  0
  4  5  1  1
  6  7  2  0
  8  6  1  0
  8  9  1  0
  9 10  1  1
 10 11  1  0
 11 12  2  0
 12 13  1  0
 14 13  1  0
 15 11  1  0
 15 14  2  0
 16 17  2  0
 16  9  1  0
 18 16  1  0
 19 18  1  0
 19 20  1  6
 21 20  1  0
 22 19  1  0
 22 24  1  0
 23 22  2  0
M  END
$$$$
