GVI.pdb
     RDKit          3D

 20 19  0  0  1  0  0  0  0  0999 V2000
   20.2471  -14.4684  -16.9956 N   0  0  0  0  0  0  0  0  0  0  0  0
   20.4051  -13.1644  -17.5734 C   0  0  0  0  0  0  0  0  0  0  0  0
   20.4272  -12.1375  -16.4865 C   0  0  0  0  0  0  0  0  0  0  0  0
   19.5867  -12.1688  -15.5502 O   0  0  0  0  0  0  0  0  0  0  0  0
   23.3549  -11.2661  -14.3906 C   0  0  0  0  0  0  0  0  0  0  0  0
   22.7685   -9.9722  -14.8835 C   0  0  1  0  0  0  0  0  0  0  0  0
   23.6563   -9.5150  -16.0502 C   0  0  0  0  0  0  0  0  0  0  0  0
   21.3778  -10.1034  -15.4508 C   0  0  2  0  0  0  0  0  0  0  0  0
   21.3911  -11.1156  -16.4924 N   0  0  0  0  0  0  0  0  0  0  0  0
   20.8058   -8.8788  -16.0100 C   0  0  0  0  0  0  0  0  0  0  0  0
   21.1313   -8.5921  -17.2153 O   0  0  0  0  0  0  0  0  0  0  0  0
   15.8523   -5.7857  -17.1950 C   0  0  0  0  0  0  0  0  0  0  0  0
   17.3344   -5.6877  -16.9638 C   0  0  0  0  0  0  0  0  0  0  0  0
   17.9250   -6.8977  -16.2988 C   0  0  2  0  0  0  0  0  0  0  0  0
   17.2053   -7.0750  -14.9711 C   0  0  0  0  0  0  0  0  0  0  0  0
   19.4234   -6.7987  -16.1018 C   0  0  2  0  0  0  0  0  0  0  0  0
   19.9354   -7.9648  -15.3953 N   0  0  0  0  0  0  0  0  0  0  0  0
   19.8171   -5.5447  -15.4360 C   0  0  0  0  0  0  0  0  0  0  0  0
   19.7129   -4.4181  -15.9788 O   0  0  0  0  0  0  0  0  0  0  0  0
   20.3424   -5.5347  -14.1297 O   0  0  0  0  0  0  0  0  0  0  0  0
  1  2  1  0
  3  4  2  0
  3  2  1  0
  6  5  1  6
  6  8  1  0
  7  6  1  0
  8  9  1  6
  9  3  1  0
 10  8  1  0
 10 11  2  0
 13 12  1  0
 14 13  1  0
 14 15  1  1
 16 17  1  1
 16 14  1  0
 17 10  1  0
 18 16  1  0
 19 18  2  0
 20 18  1  0
M  END
$$$$
