GVI.pdb
     RDKit          3D

 20 19  0  0  1  0  0  0  0  0999 V2000
   28.6126  -21.3486  -16.8667 N   0  0  0  0  0  0  0  0  0  0  0  0
   27.9093  -21.9219  -15.7549 C   0  0  0  0  0  0  0  0  0  0  0  0
   27.6221  -20.8573  -14.7448 C   0  0  0  0  0  0  0  0  0  0  0  0
   27.8469  -19.6457  -15.0006 O   0  0  0  0  0  0  0  0  0  0  0  0
   25.4408  -19.6531  -15.0866 C   0  0  0  0  0  0  0  0  0  0  0  0
   25.0922  -19.8656  -13.6393 C   0  0  1  0  0  0  0  0  0  0  0  0
   24.1425  -21.0717  -13.5987 C   0  0  0  0  0  0  0  0  0  0  0  0
   26.2675  -20.2372  -12.7713 C   0  0  2  0  0  0  0  0  0  0  0  0
   27.0939  -21.1934  -13.4872 N   0  0  0  0  0  0  0  0  0  0  0  0
   25.9336  -20.8076  -11.4665 C   0  0  0  0  0  0  0  0  0  0  0  0
   25.5445  -22.0282  -11.4567 O   0  0  0  0  0  0  0  0  0  0  0  0
   28.0567  -18.8393   -6.9051 C   0  0  0  0  0  0  0  0  0  0  0  0
   27.5898  -19.9246   -7.8345 C   0  0  0  0  0  0  0  0  0  0  0  0
   26.1136  -20.1906   -7.7618 C   0  0  2  0  0  0  0  0  0  0  0  0
   25.8693  -21.0212   -6.5118 C   0  0  0  0  0  0  0  0  0  0  0  0
   25.5704  -20.8822   -8.9949 C   0  0  2  0  0  0  0  0  0  0  0  0
   25.9844  -20.1894  -10.2071 N   0  0  0  0  0  0  0  0  0  0  0  0
   24.1080  -21.0532   -8.9402 C   0  0  0  0  0  0  0  0  0  0  0  0
   23.3053  -20.2823   -9.5197 O   0  0  0  0  0  0  0  0  0  0  0  0
   23.5137  -22.1090   -8.2228 O   0  0  0  0  0  0  0  0  0  0  0  0
  1  2  1  0
  3  4  2  0
  3  2  1  0
  6  5  1  6
  6  8  1  0
  7  6  1  0
  8  9  1  6
  9  3  1  0
 10  8  1  0
 10 11  2  0
 13 12  1  0
 14 13  1  0
 14 15  1  1
 16 17  1  6
 16 14  1  0
 17 10  1  0
 18 16  1  0
 19 18  2  0
 20 18  1  0
M  END
$$$$
