GVI.pdb
     RDKit          3D

 20 19  0  0  1  0  0  0  0  0999 V2000
   29.8581  -22.8731  -17.2485 N   0  0  0  0  0  0  0  0  0  0  0  0
   28.4894  -22.5419  -16.9723 C   0  0  0  0  0  0  0  0  0  0  0  0
   28.4292  -21.6000  -15.8124 C   0  0  0  0  0  0  0  0  0  0  0  0
   29.4311  -21.4214  -15.0718 O   0  0  0  0  0  0  0  0  0  0  0  0
   27.9007  -18.0561  -15.8243 C   0  0  0  0  0  0  0  0  0  0  0  0
   26.8871  -18.6107  -14.8620 C   0  0  1  0  0  0  0  0  0  0  0  0
   25.5679  -18.7163  -15.6410 C   0  0  0  0  0  0  0  0  0  0  0  0
   27.1944  -20.0062  -14.3811 C   0  0  2  0  0  0  0  0  0  0  0  0
   27.2477  -20.8953  -15.5285 N   0  0  0  0  0  0  0  0  0  0  0  0
   26.2489  -20.5633  -13.4140 C   0  0  0  0  0  0  0  0  0  0  0  0
   25.4473  -21.4632  -13.8486 O   0  0  0  0  0  0  0  0  0  0  0  0
   27.0134  -20.4199   -7.8891 C   0  0  0  0  0  0  0  0  0  0  0  0
   26.6977  -20.9407   -9.2634 C   0  0  0  0  0  0  0  0  0  0  0  0
   25.3293  -20.5638   -9.7543 C   0  0  2  0  0  0  0  0  0  0  0  0
   24.3227  -21.2803   -8.8681 C   0  0  0  0  0  0  0  0  0  0  0  0
   25.1075  -20.8946  -11.2155 C   0  0  2  0  0  0  0  0  0  0  0  0
   26.1014  -20.2411  -12.0556 N   0  0  0  0  0  0  0  0  0  0  0  0
   23.7360  -20.5843  -11.6559 C   0  0  0  0  0  0  0  0  0  0  0  0
   23.3723  -19.4363  -12.0082 O   0  0  0  0  0  0  0  0  0  0  0  0
   22.7352  -21.5733  -11.7088 O   0  0  0  0  0  0  0  0  0  0  0  0
  1  2  1  0
  3  4  2  0
  3  2  1  0
  6  5  1  6
  6  8  1  0
  7  6  1  0
  8  9  1  6
  9  3  1  0
 10  8  1  0
 10 11  2  0
 13 12  1  0
 14 13  1  0
 14 15  1  1
 16 17  1  6
 16 14  1  0
 17 10  1  0
 18 16  1  0
 19 18  2  0
 20 18  1  0
M  END
$$$$
