GVI.pdb
     RDKit          3D

 20 19  0  0  1  0  0  0  0  0999 V2000
   29.1976  -23.1692  -17.1275 N   0  0  0  0  0  0  0  0  0  0  0  0
   28.2216  -22.1230  -17.2374 C   0  0  0  0  0  0  0  0  0  0  0  0
   28.1631  -21.3596  -15.9529 C   0  0  0  0  0  0  0  0  0  0  0  0
   29.1124  -21.4083  -15.1279 O   0  0  0  0  0  0  0  0  0  0  0  0
   27.8134  -17.7771  -15.7781 C   0  0  0  0  0  0  0  0  0  0  0  0
   26.8049  -18.3270  -14.8077 C   0  0  1  0  0  0  0  0  0  0  0  0
   25.4500  -18.2911  -15.5297 C   0  0  0  0  0  0  0  0  0  0  0  0
   27.0341  -19.7692  -14.4330 C   0  0  2  0  0  0  0  0  0  0  0  0
   27.0421  -20.5715  -15.6439 N   0  0  0  0  0  0  0  0  0  0  0  0
   26.0568  -20.3447  -13.5092 C   0  0  0  0  0  0  0  0  0  0  0  0
   25.2274  -21.1868  -14.0031 O   0  0  0  0  0  0  0  0  0  0  0  0
   26.8600  -20.6262   -8.0855 C   0  0  0  0  0  0  0  0  0  0  0  0
   26.3940  -21.1370   -9.4203 C   0  0  0  0  0  0  0  0  0  0  0  0
   25.0886  -20.5479   -9.8721 C   0  0  2  0  0  0  0  0  0  0  0  0
   23.9914  -21.2097   -9.0534 C   0  0  0  0  0  0  0  0  0  0  0  0
   24.8411  -20.7138  -11.3570 C   0  0  2  0  0  0  0  0  0  0  0  0
   25.9052  -20.0958  -12.1360 N   0  0  0  0  0  0  0  0  0  0  0  0
   23.5141  -20.2166  -11.7606 C   0  0  0  0  0  0  0  0  0  0  0  0
   23.2941  -19.0195  -12.0656 O   0  0  0  0  0  0  0  0  0  0  0  0
   22.3952  -21.0685  -11.8296 O   0  0  0  0  0  0  0  0  0  0  0  0
  1  2  1  0
  3  4  2  0
  3  2  1  0
  6  5  1  6
  6  8  1  0
  7  6  1  0
  8  9  1  6
  9  3  1  0
 10  8  1  0
 10 11  2  0
 13 12  1  0
 14 13  1  0
 14 15  1  1
 16 17  1  6
 16 14  1  0
 17 10  1  0
 18 16  1  0
 19 18  2  0
 20 18  1  0
M  END
$$$$
