GVI.pdb
     RDKit          3D

 20 19  0  0  1  0  0  0  0  0999 V2000
   21.3956  -20.5290  -11.8493 N   0  0  0  0  0  0  0  0  0  0  0  0
   22.5913  -19.7687  -11.6220 C   0  0  0  0  0  0  0  0  0  0  0  0
   23.4880  -20.5180  -10.6888 C   0  0  0  0  0  0  0  0  0  0  0  0
   23.0490  -21.4749   -9.9990 O   0  0  0  0  0  0  0  0  0  0  0  0
   26.1816  -22.2257  -11.9405 C   0  0  0  0  0  0  0  0  0  0  0  0
   26.7622  -21.6099  -10.6975 C   0  0  1  0  0  0  0  0  0  0  0  0
   27.6530  -20.4508  -11.1680 C   0  0  0  0  0  0  0  0  0  0  0  0
   25.7370  -20.9950   -9.7788 C   0  0  2  0  0  0  0  0  0  0  0  0
   24.8419  -20.1647  -10.5657 N   0  0  0  0  0  0  0  0  0  0  0  0
   26.2738  -20.1825   -8.6873 C   0  0  0  0  0  0  0  0  0  0  0  0
   26.1015  -18.9162   -8.7766 O   0  0  0  0  0  0  0  0  0  0  0  0
   26.4069  -21.1467   -3.1832 C   0  0  0  0  0  0  0  0  0  0  0  0
   26.3121  -20.4570   -4.5156 C   0  0  0  0  0  0  0  0  0  0  0  0
   27.6348  -20.2915   -5.2073 C   0  0  2  0  0  0  0  0  0  0  0  0
   28.5159  -19.4537   -4.2943 C   0  0  0  0  0  0  0  0  0  0  0  0
   27.5154  -19.6649   -6.5810 C   0  0  2  0  0  0  0  0  0  0  0  0
   26.9598  -20.6101   -7.5396 N   0  0  0  0  0  0  0  0  0  0  0  0
   28.7940  -19.1034   -7.0512 C   0  0  0  0  0  0  0  0  0  0  0  0
   29.5689  -19.7164   -7.8246 O   0  0  0  0  0  0  0  0  0  0  0  0
   29.2300  -17.8247   -6.6546 O   0  0  0  0  0  0  0  0  0  0  0  0
  1  2  1  0
  3  4  2  0
  3  2  1  0
  6  5  1  6
  6  8  1  0
  7  6  1  0
  8  9  1  6
  9  3  1  0
 10  8  1  0
 10 11  2  0
 13 12  1  0
 14 13  1  0
 14 15  1  1
 16 17  1  6
 16 14  1  0
 17 10  1  0
 18 16  1  0
 19 18  2  0
 20 18  1  0
M  END
$$$$
