GVI.pdb
     RDKit          3D

 20 19  0  0  1  0  0  0  0  0999 V2000
   21.7127  -21.1349  -12.5025 N   0  0  0  0  0  0  0  0  0  0  0  0
   22.4494  -20.1708  -11.7364 C   0  0  0  0  0  0  0  0  0  0  0  0
   23.5792  -20.8522  -11.0325 C   0  0  0  0  0  0  0  0  0  0  0  0
   23.4551  -22.0262  -10.5959 O   0  0  0  0  0  0  0  0  0  0  0  0
   26.7228  -21.5056  -12.4975 C   0  0  0  0  0  0  0  0  0  0  0  0
   27.0694  -20.9466  -11.1453 C   0  0  1  0  0  0  0  0  0  0  0  0
   27.5072  -19.4936  -11.3804 C   0  0  0  0  0  0  0  0  0  0  0  0
   25.9042  -20.8766  -10.1912 C   0  0  2  0  0  0  0  0  0  0  0  0
   24.8041  -20.1903  -10.8459 N   0  0  0  0  0  0  0  0  0  0  0  0
   26.1694  -20.2060   -8.9186 C   0  0  0  0  0  0  0  0  0  0  0  0
   25.6077  -19.0683   -8.7418 O   0  0  0  0  0  0  0  0  0  0  0  0
   28.6723  -20.6280   -3.1877 C   0  0  0  0  0  0  0  0  0  0  0  0
   27.8821  -19.9078   -4.2443 C   0  0  0  0  0  0  0  0  0  0  0  0
   27.7823  -20.6571   -5.5420 C   0  0  2  0  0  0  0  0  0  0  0  0
   29.1856  -21.1196   -5.9010 C   0  0  0  0  0  0  0  0  0  0  0  0
   27.1723  -19.8366   -6.6594 C   0  0  2  0  0  0  0  0  0  0  0  0
   26.9660  -20.6485   -7.8507 N   0  0  0  0  0  0  0  0  0  0  0  0
   27.9588  -18.6267   -6.9568 C   0  0  0  0  0  0  0  0  0  0  0  0
   27.8949  -17.5806   -6.2667 O   0  0  0  0  0  0  0  0  0  0  0  0
   28.8435  -18.5705   -8.0507 O   0  0  0  0  0  0  0  0  0  0  0  0
  1  2  1  0
  3  4  2  0
  3  2  1  0
  6  5  1  6
  6  8  1  0
  7  6  1  0
  8  9  1  6
  9  3  1  0
 10  8  1  0
 10 11  2  0
 13 12  1  0
 14 13  1  0
 14 15  1  6
 16 17  1  6
 16 14  1  0
 17 10  1  0
 18 16  1  0
 19 18  2  0
 20 18  1  0
M  END
$$$$
