GVI.pdb
     RDKit          3D

 20 19  0  0  1  0  0  0  0  0999 V2000
   21.4319  -21.1039  -14.2223 N   0  0  0  0  0  0  0  0  0  0  0  0
   21.0776  -19.7262  -14.0334 C   0  0  0  0  0  0  0  0  0  0  0  0
   21.4805  -18.9386  -15.2391 C   0  0  0  0  0  0  0  0  0  0  0  0
   22.1039  -19.4820  -16.1878 O   0  0  0  0  0  0  0  0  0  0  0  0
   19.3928  -17.7632  -17.5656 C   0  0  0  0  0  0  0  0  0  0  0  0
   20.2399  -16.5486  -17.3041 C   0  0  1  0  0  0  0  0  0  0  0  0
   19.4040  -15.6277  -16.4033 C   0  0  0  0  0  0  0  0  0  0  0  0
   21.5066  -16.8350  -16.5384 C   0  0  2  0  0  0  0  0  0  0  0  0
   21.1683  -17.5722  -15.3334 N   0  0  0  0  0  0  0  0  0  0  0  0
   22.2900  -15.6617  -16.1522 C   0  0  0  0  0  0  0  0  0  0  0  0
   21.9097  -15.0394  -15.0990 O   0  0  0  0  0  0  0  0  0  0  0  0
   27.7156  -13.1968  -15.2169 C   0  0  0  0  0  0  0  0  0  0  0  0
   26.2596  -12.9562  -15.5027 C   0  0  0  0  0  0  0  0  0  0  0  0
   25.5172  -14.1859  -15.9410 C   0  0  2  0  0  0  0  0  0  0  0  0
   26.2759  -14.7697  -17.1223 C   0  0  0  0  0  0  0  0  0  0  0  0
   24.0706  -13.9140  -16.2980 C   0  0  2  0  0  0  0  0  0  0  0  0
   23.4183  -15.1202  -16.7884 N   0  0  0  0  0  0  0  0  0  0  0  0
   23.9309  -12.7968  -17.2485 C   0  0  0  0  0  0  0  0  0  0  0  0
   23.8462  -12.9592  -18.4899 O   0  0  0  0  0  0  0  0  0  0  0  0
   23.8832  -11.4584  -16.8140 O   0  0  0  0  0  0  0  0  0  0  0  0
  1  2  1  0
  3  4  2  0
  3  2  1  0
  6  5  1  1
  6  8  1  0
  7  6  1  0
  8  9  1  1
  9  3  1  0
 10  8  1  0
 10 11  2  0
 13 12  1  0
 14 13  1  0
 14 15  1  6
 16 17  1  6
 16 14  1  0
 17 10  1  0
 18 16  1  0
 19 18  2  0
 20 18  1  0
M  END
$$$$
