GVI.pdb
     RDKit          3D

 20 19  0  0  1  0  0  0  0  0999 V2000
   26.7987  -24.3055  -15.7279 N   0  0  0  0  0  0  0  0  0  0  0  0
   26.8669  -22.9101  -15.3996 C   0  0  0  0  0  0  0  0  0  0  0  0
   25.7642  -22.5676  -14.4494 C   0  0  0  0  0  0  0  0  0  0  0  0
   24.6608  -23.1716  -14.4944 O   0  0  0  0  0  0  0  0  0  0  0  0
   24.4353  -20.5152  -10.1879 C   0  0  0  0  0  0  0  0  0  0  0  0
   25.4523  -20.7714  -11.2655 C   0  0  1  0  0  0  0  0  0  0  0  0
   26.3262  -21.9306  -10.7648 C   0  0  0  0  0  0  0  0  0  0  0  0
   24.8607  -21.2359  -12.5721 C   0  0  2  0  0  0  0  0  0  0  0  0
   25.9420  -21.5611  -13.4858 N   0  0  0  0  0  0  0  0  0  0  0  0
   23.9710  -20.2837  -13.2365 C   0  0  0  0  0  0  0  0  0  0  0  0
   24.4114  -19.0889  -13.3765 O   0  0  0  0  0  0  0  0  0  0  0  0
   21.3061  -18.5831  -18.1151 C   0  0  0  0  0  0  0  0  0  0  0  0
   21.2345  -18.4841  -16.6169 C   0  0  0  0  0  0  0  0  0  0  0  0
   22.0012  -19.5592  -15.9016 C   0  0  2  0  0  0  0  0  0  0  0  0
   21.4577  -20.8943  -16.3855 C   0  0  0  0  0  0  0  0  0  0  0  0
   21.9195  -19.4476  -14.3934 C   0  0  2  0  0  0  0  0  0  0  0  0
   22.6834  -20.5071  -13.7492 N   0  0  0  0  0  0  0  0  0  0  0  0
   20.5277  -19.4118  -13.9111 C   0  0  0  0  0  0  0  0  0  0  0  0
   19.6977  -18.5443  -14.2758 O   0  0  0  0  0  0  0  0  0  0  0  0
   20.0375  -20.3642  -12.9973 O   0  0  0  0  0  0  0  0  0  0  0  0
  1  2  1  0
  3  4  2  0
  3  2  1  0
  6  5  1  1
  6  8  1  0
  7  6  1  0
  8  9  1  6
  9  3  1  0
 10  8  1  0
 10 11  2  0
 13 12  1  0
 14 13  1  0
 14 15  1  6
 16 17  1  1
 16 14  1  0
 17 10  1  0
 18 16  1  0
 19 18  2  0
 20 18  1  0
M  END
$$$$
