GVI.pdb
     RDKit          3D

 20 19  0  0  1  0  0  0  0  0999 V2000
   27.6973  -19.6963  -18.1767 N   0  0  0  0  0  0  0  0  0  0  0  0
   27.4830  -18.9830  -16.9501 C   0  0  0  0  0  0  0  0  0  0  0  0
   27.4646  -19.9493  -15.8089 C   0  0  0  0  0  0  0  0  0  0  0  0
   26.7354  -20.9746  -15.8415 O   0  0  0  0  0  0  0  0  0  0  0  0
   30.1450  -19.4826  -12.4420 C   0  0  0  0  0  0  0  0  0  0  0  0
   29.5660  -20.7765  -12.9438 C   0  0  1  0  0  0  0  0  0  0  0  0
   29.3952  -21.6771  -11.7117 C   0  0  0  0  0  0  0  0  0  0  0  0
   28.1919  -20.6419  -13.5494 C   0  0  2  0  0  0  0  0  0  0  0  0
   28.2647  -19.7276  -14.6758 N   0  0  0  0  0  0  0  0  0  0  0  0
   27.1458  -20.1690  -12.6431 C   0  0  0  0  0  0  0  0  0  0  0  0
   27.0344  -18.9000  -12.5080 O   0  0  0  0  0  0  0  0  0  0  0  0
   21.3722  -19.9654  -11.5982 C   0  0  0  0  0  0  0  0  0  0  0  0
   22.7349  -19.7651  -10.9958 C   0  0  0  0  0  0  0  0  0  0  0  0
   23.8362  -20.4582  -11.7454 C   0  0  2  0  0  0  0  0  0  0  0  0
   23.4442  -21.9225  -11.8644 C   0  0  0  0  0  0  0  0  0  0  0  0
   25.1928  -20.3049  -11.0895 C   0  0  2  0  0  0  0  0  0  0  0  0
   26.2347  -20.9293  -11.8929 N   0  0  0  0  0  0  0  0  0  0  0  0
   25.2025  -20.8057   -9.7038 C   0  0  0  0  0  0  0  0  0  0  0  0
   25.4992  -21.9874   -9.4039 O   0  0  0  0  0  0  0  0  0  0  0  0
   24.8742  -19.9750   -8.6155 O   0  0  0  0  0  0  0  0  0  0  0  0
  1  2  1  0
  3  4  2  0
  3  2  1  0
  6  5  1  1
  6  8  1  0
  7  6  1  0
  8  9  1  6
  9  3  1  0
 10  8  1  0
 10 11  2  0
 13 12  1  0
 14 13  1  0
 14 15  1  1
 16 17  1  6
 16 14  1  0
 17 10  1  0
 18 16  1  0
 19 18  2  0
 20 18  1  0
M  END
$$$$
