PYD.pdb
     RDKit          3D

 28 29  0  0  1  0  0  0  0  0999 V2000
    6.7812  -15.0479   20.3870 N   0  0  0  0  0  0  0  0  0  0  0  0
    6.0947  -13.7959   20.5401 C   0  0  0  0  0  0  0  0  0  0  0  0
    6.8007  -12.7975   19.6642 C   0  0  0  0  0  0  0  0  0  0  0  0
    8.0931  -13.4629   19.3295 C   0  0  0  0  0  0  0  0  0  0  0  0
    8.1410  -14.7290   20.0966 C   0  0  1  0  0  0  0  0  0  0  0  0
    8.9676  -14.6732   21.3272 C   0  0  0  0  0  0  0  0  0  0  0  0
   10.2091  -14.5036   21.2055 O   0  0  0  0  0  0  0  0  0  0  0  0
   10.0680  -14.9916   30.2875 O   0  0  0  0  0  0  0  0  0  0  0  0
    9.6419  -14.8895   28.9776 C   0  0  0  0  0  0  0  0  0  0  0  0
    9.7425  -13.7003   28.2898 C   0  0  0  0  0  0  0  0  0  0  0  0
    9.3084  -13.6247   26.9790 C   0  0  0  0  0  0  0  0  0  0  0  0
    8.7677  -14.7051   26.3117 C   0  0  0  0  0  0  0  0  0  0  0  0
    8.3046  -14.5797   24.9398 C   0  0  0  0  0  0  0  0  0  0  0  0
    9.2883  -14.8095   23.8448 C   0  0  2  0  0  0  0  0  0  0  0  0
    8.4566  -14.7970   22.6201 N   0  0  0  0  0  0  0  0  0  0  0  0
    9.9266  -16.1377   23.8618 C   0  0  0  0  0  0  0  0  0  0  0  0
    9.2516  -17.1773   23.5600 O   0  0  0  0  0  0  0  0  0  0  0  0
    8.6802  -15.8776   27.0234 C   0  0  0  0  0  0  0  0  0  0  0  0
    9.1087  -15.9818   28.3416 C   0  0  0  0  0  0  0  0  0  0  0  0
   11.2836  -16.4028   24.1909 N   0  0  0  0  0  0  0  0  0  0  0  0
   11.8521  -17.7217   24.2131 C   0  0  1  0  0  0  0  0  0  0  0  0
   12.8872  -17.9003   23.1119 C   0  0  0  0  0  0  0  0  0  0  0  0
   13.4775  -19.2563   23.1408 C   0  0  0  0  0  0  0  0  0  0  0  0
   13.1603  -20.1086   22.2614 O   0  0  0  0  0  0  0  0  0  0  0  0
   12.3812  -18.1472   25.5212 C   0  0  0  0  0  0  0  0  0  0  0  0
   12.9874  -17.2430   26.3955 O   0  0  0  0  0  0  0  0  0  0  0  0
   14.3883  -19.6710   24.1025 O   0  0  0  0  0  0  0  0  0  0  0  0
   12.3295  -19.3308   25.9430 O   0  0  0  0  0  0  0  0  0  0  0  0
  1  5  1  0
  2  1  1  0
  3  2  1  0
  3  4  1  0
  4  5  1  0
  5  6  1  1
  6  7  2  0
  9  8  1  0
  9 10  2  0
 11 10  1  0
 12 11  2  0
 13 12  1  0
 14 13  1  1
 14 15  1  0
 14 16  1  0
 15  6  1  0
 16 17  2  0
 16 20  1  0
 18 19  2  0
 18 12  1  0
 19  9  1  0
 20 21  1  0
 21 25  1  0
 21 22  1  6
 23 22  1  0
 24 23  2  0
 25 28  2  0
 25 26  1  0
 27 23  1  0
M  END
$$$$
