PYD.pdb
     RDKit          3D

 28 29  0  0  1  0  0  0  0  0999 V2000
    7.0683  -15.2056   20.3722 N   0  0  0  0  0  0  0  0  0  0  0  0
    6.1635  -14.0992   20.5109 C   0  0  0  0  0  0  0  0  0  0  0  0
    6.7052  -12.9797   19.6649 C   0  0  0  0  0  0  0  0  0  0  0  0
    8.1058  -13.3981   19.3681 C   0  0  0  0  0  0  0  0  0  0  0  0
    8.3570  -14.6443   20.1282 C   0  0  1  0  0  0  0  0  0  0  0  0
    9.1217  -14.4560   21.3854 C   0  0  0  0  0  0  0  0  0  0  0  0
   10.3025  -14.0265   21.3075 O   0  0  0  0  0  0  0  0  0  0  0  0
   10.2396  -15.1486   30.2975 O   0  0  0  0  0  0  0  0  0  0  0  0
    9.7922  -15.0087   28.9982 C   0  0  0  0  0  0  0  0  0  0  0  0
    9.3217  -16.0922   28.2897 C   0  0  0  0  0  0  0  0  0  0  0  0
    8.8795  -15.9251   26.9901 C   0  0  0  0  0  0  0  0  0  0  0  0
    8.8866  -14.7000   26.3544 C   0  0  0  0  0  0  0  0  0  0  0  0
    8.4317  -14.5694   24.9802 C   0  0  0  0  0  0  0  0  0  0  0  0
    9.4337  -14.7431   23.8914 C   0  0  2  0  0  0  0  0  0  0  0  0
    8.6153  -14.7253   22.6578 N   0  0  0  0  0  0  0  0  0  0  0  0
   10.1113  -16.0517   23.8838 C   0  0  0  0  0  0  0  0  0  0  0  0
    9.4827  -17.0969   23.5099 O   0  0  0  0  0  0  0  0  0  0  0  0
    9.3613  -13.6380   27.0862 C   0  0  0  0  0  0  0  0  0  0  0  0
    9.8119  -13.7773   28.3938 C   0  0  0  0  0  0  0  0  0  0  0  0
   11.4600  -16.2908   24.2631 N   0  0  0  0  0  0  0  0  0  0  0  0
   12.0559  -17.5973   24.2954 C   0  0  1  0  0  0  0  0  0  0  0  0
   13.1819  -17.7208   23.2790 C   0  0  0  0  0  0  0  0  0  0  0  0
   13.8032  -19.0625   23.3222 C   0  0  0  0  0  0  0  0  0  0  0  0
   13.1452  -20.0816   22.9633 O   0  0  0  0  0  0  0  0  0  0  0  0
   12.4858  -18.0502   25.6304 C   0  0  0  0  0  0  0  0  0  0  0  0
   12.8627  -19.3732   25.8690 O   0  0  0  0  0  0  0  0  0  0  0  0
   15.1060  -19.2862   23.7453 O   0  0  0  0  0  0  0  0  0  0  0  0
   12.5454  -17.2979   26.6364 O   0  0  0  0  0  0  0  0  0  0  0  0
  1  5  1  0
  2  1  1  0
  3  2  1  0
  3  4  1  0
  4  5  1  0
  5  6  1  1
  6  7  2  0
  9  8  1  0
  9 10  2  0
 11 10  1  0
 12 11  2  0
 13 12  1  0
 14 13  1  1
 14 15  1  0
 14 16  1  0
 15  6  1  0
 16 17  2  0
 16 20  1  0
 18 19  2  0
 18 12  1  0
 19  9  1  0
 20 21  1  0
 21 25  1  0
 21 22  1  6
 23 22  1  0
 24 23  2  0
 25 28  2  0
 25 26  1  0
 27 23  1  0
M  END
$$$$
