PYD.pdb
     RDKit          3D

 28 29  0  0  1  0  0  0  0  0999 V2000
    7.0942  -15.4133   20.5763 N   0  0  0  0  0  0  0  0  0  0  0  0
    6.2104  -14.3100   20.8286 C   0  0  0  0  0  0  0  0  0  0  0  0
    6.6989  -13.1563   19.9964 C   0  0  0  0  0  0  0  0  0  0  0  0
    8.0714  -13.5674   19.5815 C   0  0  0  0  0  0  0  0  0  0  0  0
    8.3665  -14.8476   20.2656 C   0  0  1  0  0  0  0  0  0  0  0  0
    9.2207  -14.7194   21.4717 C   0  0  0  0  0  0  0  0  0  0  0  0
   10.3554  -14.1888   21.3461 O   0  0  0  0  0  0  0  0  0  0  0  0
   10.6418  -14.8929   30.3754 O   0  0  0  0  0  0  0  0  0  0  0  0
   10.1787  -14.9778   29.0769 C   0  0  0  0  0  0  0  0  0  0  0  0
    9.9110  -13.8428   28.3438 C   0  0  0  0  0  0  0  0  0  0  0  0
    9.4481  -13.9554   27.0457 C   0  0  0  0  0  0  0  0  0  0  0  0
    9.2366  -15.1750   26.4352 C   0  0  0  0  0  0  0  0  0  0  0  0
    8.7300  -15.2513   25.0751 C   0  0  0  0  0  0  0  0  0  0  0  0
    9.6776  -14.9775   23.9585 C   0  0  2  0  0  0  0  0  0  0  0  0
    8.8470  -15.1510   22.7453 N   0  0  0  0  0  0  0  0  0  0  0  0
   10.7664  -15.9612   23.8222 C   0  0  0  0  0  0  0  0  0  0  0  0
   10.5287  -17.1178   23.3394 O   0  0  0  0  0  0  0  0  0  0  0  0
    9.5124  -16.2892   27.1911 C   0  0  0  0  0  0  0  0  0  0  0  0
    9.9785  -16.2053   28.4979 C   0  0  0  0  0  0  0  0  0  0  0  0
   12.1248  -15.7521   24.1846 N   0  0  0  0  0  0  0  0  0  0  0  0
   13.1650  -16.7157   23.9552 C   0  0  1  0  0  0  0  0  0  0  0  0
   14.0804  -16.2864   22.8177 C   0  0  0  0  0  0  0  0  0  0  0  0
   15.1278  -17.2979   22.5569 C   0  0  0  0  0  0  0  0  0  0  0  0
   14.8075  -18.4850   22.2591 O   0  0  0  0  0  0  0  0  0  0  0  0
   13.9371  -17.0919   25.1529 C   0  0  0  0  0  0  0  0  0  0  0  0
   14.0369  -16.2429   26.2567 O   0  0  0  0  0  0  0  0  0  0  0  0
   16.4865  -17.0220   22.6193 O   0  0  0  0  0  0  0  0  0  0  0  0
   14.5527  -18.1820   25.2718 O   0  0  0  0  0  0  0  0  0  0  0  0
  1  5  1  0
  2  1  1  0
  3  2  1  0
  3  4  1  0
  4  5  1  0
  5  6  1  1
  6  7  2  0
  9  8  1  0
  9 10  2  0
 11 10  1  0
 12 11  2  0
 13 12  1  0
 14 13  1  1
 14 15  1  0
 14 16  1  0
 15  6  1  0
 16 17  2  0
 16 20  1  0
 18 19  2  0
 18 12  1  0
 19  9  1  0
 20 21  1  0
 21 25  1  0
 21 22  1  6
 23 22  1  0
 24 23  2  0
 25 28  2  0
 25 26  1  0
 27 23  1  0
M  END
$$$$
