PYD.pdb
     RDKit          3D

 28 29  0  0  1  0  0  0  0  0999 V2000
    7.7388  -15.6897   18.9737 N   0  0  0  0  0  0  0  0  0  0  0  0
    6.7069  -14.7159   18.7523 C   0  0  0  0  0  0  0  0  0  0  0  0
    7.3497  -13.5436   18.0629 C   0  0  0  0  0  0  0  0  0  0  0  0
    8.8114  -13.7702   18.2552 C   0  0  0  0  0  0  0  0  0  0  0  0
    8.9556  -14.9605   19.1247 C   0  0  1  0  0  0  0  0  0  0  0  0
    9.2396  -14.6534   20.5480 C   0  0  0  0  0  0  0  0  0  0  0  0
   10.4055  -14.2960   20.8607 O   0  0  0  0  0  0  0  0  0  0  0  0
    6.9123  -12.1722   28.8451 O   0  0  0  0  0  0  0  0  0  0  0  0
    6.9870  -12.5936   27.5318 C   0  0  0  0  0  0  0  0  0  0  0  0
    6.2329  -13.6556   27.0838 C   0  0  0  0  0  0  0  0  0  0  0  0
    6.3263  -14.0576   25.7639 C   0  0  0  0  0  0  0  0  0  0  0  0
    7.1556  -13.4338   24.8539 C   0  0  0  0  0  0  0  0  0  0  0  0
    7.2402  -13.8991   23.4796 C   0  0  0  0  0  0  0  0  0  0  0  0
    8.5612  -14.3752   22.9816 C   0  0  2  0  0  0  0  0  0  0  0  0
    8.2932  -14.7349   21.5707 N   0  0  0  0  0  0  0  0  0  0  0  0
    9.0424  -15.6183   23.6099 C   0  0  0  0  0  0  0  0  0  0  0  0
    8.4558  -16.7258   23.3716 O   0  0  0  0  0  0  0  0  0  0  0  0
    7.8953  -12.3777   25.3298 C   0  0  0  0  0  0  0  0  0  0  0  0
    7.8212  -11.9526   26.6512 C   0  0  0  0  0  0  0  0  0  0  0  0
   10.1484  -15.7268   24.4959 N   0  0  0  0  0  0  0  0  0  0  0  0
   10.5449  -16.9563   25.1239 C   0  0  1  0  0  0  0  0  0  0  0  0
   12.0599  -17.0886   25.1816 C   0  0  0  0  0  0  0  0  0  0  0  0
   12.6617  -16.9918   23.8338 C   0  0  0  0  0  0  0  0  0  0  0  0
   12.0735  -17.4986   22.8350 O   0  0  0  0  0  0  0  0  0  0  0  0
    9.9338  -17.2048   26.4419 C   0  0  0  0  0  0  0  0  0  0  0  0
   10.1336  -18.4045   27.1276 O   0  0  0  0  0  0  0  0  0  0  0  0
   13.8716  -16.3598   23.5827 O   0  0  0  0  0  0  0  0  0  0  0  0
    9.2010  -16.3750   27.0385 O   0  0  0  0  0  0  0  0  0  0  0  0
  1  5  1  0
  2  1  1  0
  3  2  1  0
  3  4  1  0
  4  5  1  0
  5  6  1  1
  6  7  2  0
  9  8  1  0
  9 10  2  0
 11 10  1  0
 12 11  2  0
 13 12  1  0
 14 13  1  1
 14 15  1  0
 14 16  1  0
 15  6  1  0
 16 17  2  0
 16 20  1  0
 18 19  2  0
 18 12  1  0
 19  9  1  0
 20 21  1  0
 21 25  1  0
 21 22  1  1
 23 22  1  0
 24 23  2  0
 25 28  2  0
 25 26  1  0
 27 23  1  0
M  END
$$$$
