PYD.pdb
     RDKit          3D

 28 29  0  0  1  0  0  0  0  0999 V2000
    7.4794  -15.0264   20.6993 N   0  0  0  0  0  0  0  0  0  0  0  0
    6.6746  -13.8727   20.9882 C   0  0  0  0  0  0  0  0  0  0  0  0
    7.4484  -12.6695   20.5233 C   0  0  0  0  0  0  0  0  0  0  0  0
    8.8315  -13.1887   20.3175 C   0  0  0  0  0  0  0  0  0  0  0  0
    8.8383  -14.5983   20.7719 C   0  0  1  0  0  0  0  0  0  0  0  0
    9.4090  -14.8071   22.1252 C   0  0  0  0  0  0  0  0  0  0  0  0
   10.5663  -14.3700   22.3591 O   0  0  0  0  0  0  0  0  0  0  0  0
    5.6714  -10.5430   26.7731 O   0  0  0  0  0  0  0  0  0  0  0  0
    6.2298  -11.7596   26.4326 C   0  0  0  0  0  0  0  0  0  0  0  0
    7.5513  -12.0349   26.7069 C   0  0  0  0  0  0  0  0  0  0  0  0
    8.0861  -13.2607   26.3554 C   0  0  0  0  0  0  0  0  0  0  0  0
    7.3453  -14.2430   25.7300 C   0  0  0  0  0  0  0  0  0  0  0  0
    7.9496  -15.5115   25.3588 C   0  0  0  0  0  0  0  0  0  0  0  0
    9.2118  -15.4810   24.5679 C   0  0  2  0  0  0  0  0  0  0  0  0
    8.7434  -15.4603   23.1636 N   0  0  0  0  0  0  0  0  0  0  0  0
   10.0359  -16.6977   24.6797 C   0  0  0  0  0  0  0  0  0  0  0  0
   10.3397  -17.1629   25.8281 O   0  0  0  0  0  0  0  0  0  0  0  0
    6.0304  -13.9396   25.4694 C   0  0  0  0  0  0  0  0  0  0  0  0
    5.4670  -12.7158   25.8116 C   0  0  0  0  0  0  0  0  0  0  0  0
   10.5540  -17.4526   23.5926 N   0  0  0  0  0  0  0  0  0  0  0  0
   11.4826  -18.5370   23.7504 C   0  0  1  0  0  0  0  0  0  0  0  0
   11.5727  -19.3809   22.4871 C   0  0  0  0  0  0  0  0  0  0  0  0
   10.3171  -19.3206   21.7073 C   0  0  0  0  0  0  0  0  0  0  0  0
    9.2127  -19.6065   22.2540 O   0  0  0  0  0  0  0  0  0  0  0  0
   12.8198  -18.1439   24.2298 C   0  0  0  0  0  0  0  0  0  0  0  0
   13.8253  -19.0869   24.4507 O   0  0  0  0  0  0  0  0  0  0  0  0
   10.2679  -18.9586   20.3683 O   0  0  0  0  0  0  0  0  0  0  0  0
   13.1523  -16.9555   24.4720 O   0  0  0  0  0  0  0  0  0  0  0  0
  1  5  1  0
  2  1  1  0
  3  2  1  0
  3  4  1  0
  4  5  1  0
  5  6  1  1
  6  7  2  0
  9  8  1  0
  9 10  2  0
 11 10  1  0
 12 11  2  0
 13 12  1  0
 14 13  1  1
 14 15  1  0
 14 16  1  0
 15  6  1  0
 16 17  2  0
 16 20  1  0
 18 19  2  0
 18 12  1  0
 19  9  1  0
 20 21  1  0
 21 25  1  0
 21 22  1  6
 23 22  1  0
 24 23  2  0
 25 28  2  0
 25 26  1  0
 27 23  1  0
M  END
$$$$
