PYD.pdb
     RDKit          3D

 28 29  0  0  1  0  0  0  0  0999 V2000
    7.8541  -15.4679   18.7444 N   0  0  0  0  0  0  0  0  0  0  0  0
    6.8690  -14.4697   18.4356 C   0  0  0  0  0  0  0  0  0  0  0  0
    7.5997  -13.3049   17.8259 C   0  0  0  0  0  0  0  0  0  0  0  0
    9.0308  -13.5650   18.1562 C   0  0  0  0  0  0  0  0  0  0  0  0
    9.0653  -14.7667   19.0213 C   0  0  1  0  0  0  0  0  0  0  0  0
    9.2160  -14.4800   20.4690 C   0  0  0  0  0  0  0  0  0  0  0  0
   10.2943  -13.9665   20.8669 O   0  0  0  0  0  0  0  0  0  0  0  0
    6.6786  -12.2620   28.7044 O   0  0  0  0  0  0  0  0  0  0  0  0
    6.8219  -12.6218   27.3785 C   0  0  0  0  0  0  0  0  0  0  0  0
    7.3220  -11.7330   26.4526 C   0  0  0  0  0  0  0  0  0  0  0  0
    7.4554  -12.1182   25.1312 C   0  0  0  0  0  0  0  0  0  0  0  0
    7.1046  -13.3762   24.6847 C   0  0  0  0  0  0  0  0  0  0  0  0
    7.2415  -13.7362   23.2833 C   0  0  0  0  0  0  0  0  0  0  0  0
    8.4212  -14.5527   22.8821 C   0  0  2  0  0  0  0  0  0  0  0  0
    8.2346  -14.7435   21.4258 N   0  0  0  0  0  0  0  0  0  0  0  0
    8.4468  -15.9135   23.4473 C   0  0  0  0  0  0  0  0  0  0  0  0
    7.9052  -16.8804   22.8154 O   0  0  0  0  0  0  0  0  0  0  0  0
    6.6089  -14.2408   25.6311 C   0  0  0  0  0  0  0  0  0  0  0  0
    6.4641  -13.8802   26.9657 C   0  0  0  0  0  0  0  0  0  0  0  0
    9.0427  -16.2889   24.6818 N   0  0  0  0  0  0  0  0  0  0  0  0
    9.9364  -17.4043   24.8252 C   0  0  1  0  0  0  0  0  0  0  0  0
   10.8558  -17.5394   23.6200 C   0  0  0  0  0  0  0  0  0  0  0  0
   11.8416  -18.6254   23.8124 C   0  0  0  0  0  0  0  0  0  0  0  0
   13.0416  -18.4697   23.4433 O   0  0  0  0  0  0  0  0  0  0  0  0
   10.6978  -17.4308   26.0869 C   0  0  0  0  0  0  0  0  0  0  0  0
   10.8747  -18.6113   26.8110 O   0  0  0  0  0  0  0  0  0  0  0  0
   11.5270  -19.8469   24.3911 O   0  0  0  0  0  0  0  0  0  0  0  0
   11.2354  -16.4156   26.5985 O   0  0  0  0  0  0  0  0  0  0  0  0
  1  5  1  0
  2  1  1  0
  3  2  1  0
  3  4  1  0
  4  5  1  0
  5  6  1  1
  6  7  2  0
  9  8  1  0
  9 10  2  0
 11 10  1  0
 12 11  2  0
 13 12  1  0
 14 13  1  1
 14 15  1  0
 14 16  1  0
 15  6  1  0
 16 17  2  0
 16 20  1  0
 18 19  2  0
 18 12  1  0
 19  9  1  0
 20 21  1  0
 21 25  1  0
 21 22  1  6
 23 22  1  0
 24 23  2  0
 25 28  2  0
 25 26  1  0
 27 23  1  0
M  END
$$$$
