PYD.pdb
     RDKit          3D

 28 29  0  0  1  0  0  0  0  0999 V2000
    7.3868  -15.3395   18.6038 N   0  0  0  0  0  0  0  0  0  0  0  0
    6.5243  -14.2152   18.3706 C   0  0  0  0  0  0  0  0  0  0  0  0
    7.3509  -13.1620   17.6851 C   0  0  0  0  0  0  0  0  0  0  0  0
    8.7564  -13.6165   17.8918 C   0  0  0  0  0  0  0  0  0  0  0  0
    8.7023  -14.8116   18.7650 C   0  0  1  0  0  0  0  0  0  0  0  0
    9.0185  -14.5485   20.1903 C   0  0  0  0  0  0  0  0  0  0  0  0
   10.1879  -14.1880   20.4859 O   0  0  0  0  0  0  0  0  0  0  0  0
    7.0103  -12.6031   28.7197 O   0  0  0  0  0  0  0  0  0  0  0  0
    7.0525  -12.9222   27.3764 C   0  0  0  0  0  0  0  0  0  0  0  0
    7.4730  -12.0019   26.4417 C   0  0  0  0  0  0  0  0  0  0  0  0
    7.5058  -12.3467   25.1030 C   0  0  0  0  0  0  0  0  0  0  0  0
    7.1301  -13.5942   24.6474 C   0  0  0  0  0  0  0  0  0  0  0  0
    7.1601  -13.9114   23.2294 C   0  0  0  0  0  0  0  0  0  0  0  0
    8.4250  -14.4547   22.6599 C   0  0  2  0  0  0  0  0  0  0  0  0
    8.0989  -14.6750   21.2326 N   0  0  0  0  0  0  0  0  0  0  0  0
    8.8102  -15.7808   23.1747 C   0  0  0  0  0  0  0  0  0  0  0  0
    8.0962  -16.8039   22.9087 O   0  0  0  0  0  0  0  0  0  0  0  0
    6.7155  -14.4909   25.6028 C   0  0  0  0  0  0  0  0  0  0  0  0
    6.6725  -14.1712   26.9549 C   0  0  0  0  0  0  0  0  0  0  0  0
    9.9514  -16.0619   23.9739 N   0  0  0  0  0  0  0  0  0  0  0  0
   10.2251  -17.3531   24.5406 C   0  0  1  0  0  0  0  0  0  0  0  0
   11.3857  -18.0370   23.8324 C   0  0  0  0  0  0  0  0  0  0  0  0
   12.5314  -17.1170   23.6618 C   0  0  0  0  0  0  0  0  0  0  0  0
   13.1938  -17.1168   22.5840 O   0  0  0  0  0  0  0  0  0  0  0  0
   10.4080  -17.3626   26.0030 C   0  0  0  0  0  0  0  0  0  0  0  0
   10.3708  -16.1859   26.7536 O   0  0  0  0  0  0  0  0  0  0  0  0
   12.9430  -16.2223   24.6397 O   0  0  0  0  0  0  0  0  0  0  0  0
   10.6074  -18.4072   26.6742 O   0  0  0  0  0  0  0  0  0  0  0  0
  1  5  1  0
  2  1  1  0
  3  2  1  0
  3  4  1  0
  4  5  1  0
  5  6  1  1
  6  7  2  0
  9  8  1  0
  9 10  2  0
 11 10  1  0
 12 11  2  0
 13 12  1  0
 14 13  1  1
 14 15  1  0
 14 16  1  0
 15  6  1  0
 16 17  2  0
 16 20  1  0
 18 19  2  0
 18 12  1  0
 19  9  1  0
 20 21  1  0
 21 25  1  0
 21 22  1  6
 23 22  1  0
 24 23  2  0
 25 28  2  0
 25 26  1  0
 27 23  1  0
M  END
$$$$
