PYD.pdb
     RDKit          3D

 28 29  0  0  1  0  0  0  0  0999 V2000
    7.6682  -15.6572   18.8026 N   0  0  0  0  0  0  0  0  0  0  0  0
    6.7029  -14.6407   18.4911 C   0  0  0  0  0  0  0  0  0  0  0  0
    7.4221  -13.5768   17.7079 C   0  0  0  0  0  0  0  0  0  0  0  0
    8.8655  -13.8810   17.9291 C   0  0  0  0  0  0  0  0  0  0  0  0
    8.9301  -14.9987   18.8987 C   0  0  1  0  0  0  0  0  0  0  0  0
    9.2319  -14.5892   20.2923 C   0  0  0  0  0  0  0  0  0  0  0  0
   10.3327  -14.0237   20.5234 O   0  0  0  0  0  0  0  0  0  0  0  0
    6.5097  -12.1149   28.5069 O   0  0  0  0  0  0  0  0  0  0  0  0
    6.6820  -12.6072   27.2279 C   0  0  0  0  0  0  0  0  0  0  0  0
    6.6813  -11.7651   26.1378 C   0  0  0  0  0  0  0  0  0  0  0  0
    6.8558  -12.2835   24.8678 C   0  0  0  0  0  0  0  0  0  0  0  0
    7.0345  -13.6319   24.6335 C   0  0  0  0  0  0  0  0  0  0  0  0
    7.1949  -14.1400   23.2813 C   0  0  0  0  0  0  0  0  0  0  0  0
    8.5720  -14.2052   22.7165 C   0  0  2  0  0  0  0  0  0  0  0  0
    8.3703  -14.7906   21.3717 N   0  0  0  0  0  0  0  0  0  0  0  0
    9.4763  -15.1395   23.4101 C   0  0  0  0  0  0  0  0  0  0  0  0
   10.3948  -14.6938   24.1751 O   0  0  0  0  0  0  0  0  0  0  0  0
    7.0307  -14.4470   25.7401 C   0  0  0  0  0  0  0  0  0  0  0  0
    6.8574  -13.9530   27.0278 C   0  0  0  0  0  0  0  0  0  0  0  0
    9.4342  -16.5573   23.3196 N   0  0  0  0  0  0  0  0  0  0  0  0
   10.2129  -17.4295   24.1540 C   0  0  1  0  0  0  0  0  0  0  0  0
    9.9319  -17.1855   25.6296 C   0  0  0  0  0  0  0  0  0  0  0  0
   10.7827  -18.0374   26.4891 C   0  0  0  0  0  0  0  0  0  0  0  0
   12.0429  -17.9830   26.3927 O   0  0  0  0  0  0  0  0  0  0  0  0
   10.1135  -18.8611   23.8181 C   0  0  0  0  0  0  0  0  0  0  0  0
   10.8801  -19.8234   24.4781 O   0  0  0  0  0  0  0  0  0  0  0  0
   10.2728  -18.9238   27.4274 O   0  0  0  0  0  0  0  0  0  0  0  0
    9.3480  -19.3178   22.9310 O   0  0  0  0  0  0  0  0  0  0  0  0
  1  5  1  0
  2  1  1  0
  3  2  1  0
  3  4  1  0
  4  5  1  0
  5  6  1  1
  6  7  2  0
  9  8  1  0
  9 10  2  0
 11 10  1  0
 12 11  2  0
 13 12  1  0
 14 13  1  1
 14 15  1  0
 14 16  1  0
 15  6  1  0
 16 17  2  0
 16 20  1  0
 18 19  2  0
 18 12  1  0
 19  9  1  0
 20 21  1  0
 21 25  1  0
 21 22  1  1
 23 22  1  0
 24 23  2  0
 25 28  2  0
 25 26  1  0
 27 23  1  0
M  END
$$$$
