HWE.pdb
     RDKit          3D

 34 36  0  0  1  0  0  0  0  0999 V2000
   28.5305  -21.6740  -15.9810 N   0  0  0  0  0  0  0  0  0  0  0  0
   27.7548  -20.7438  -15.1548 C   0  0  1  0  0  0  0  0  0  0  0  0
   27.1307  -19.7647  -16.1584 C   0  0  0  0  0  0  0  0  0  0  0  0
   28.2796  -19.0140  -16.7454 C   0  0  0  0  0  0  0  0  0  0  0  0
   29.0828  -19.4362  -17.7654 C   0  0  0  0  0  0  0  0  0  0  0  0
   29.9877  -18.4571  -17.9765 N   0  0  0  0  0  0  0  0  0  0  0  0
   29.7857  -17.4484  -17.1380 C   0  0  0  0  0  0  0  0  0  0  0  0
   28.7250  -17.8026  -16.3790 N   0  0  0  0  0  0  0  0  0  0  0  0
   26.7196  -21.4564  -14.4061 C   0  0  0  0  0  0  0  0  0  0  0  0
   26.2047  -22.4947  -14.8622 O   0  0  0  0  0  0  0  0  0  0  0  0
   26.2948  -20.9781  -13.1651 N   0  0  0  0  0  0  0  0  0  0  0  0
   25.2870  -21.6137  -12.3379 C   0  0  1  0  0  0  0  0  0  0  0  0
   25.7607  -21.9075  -10.9614 C   0  0  0  0  0  0  0  0  0  0  0  0
   26.2545  -20.6609  -10.3361 C   0  0  0  0  0  0  0  0  0  0  0  0
   26.3236  -19.4019  -10.8944 C   0  0  0  0  0  0  0  0  0  0  0  0
   26.8419  -18.5372  -10.0040 N   0  0  0  0  0  0  0  0  0  0  0  0
   27.1161  -19.2170   -8.8598 C   0  0  0  0  0  0  0  0  0  0  0  0
   27.6519  -18.7969   -7.6603 C   0  0  0  0  0  0  0  0  0  0  0  0
   27.8238  -19.7226   -6.6481 C   0  0  0  0  0  0  0  0  0  0  0  0
   27.4676  -21.0444   -6.8292 C   0  0  0  0  0  0  0  0  0  0  0  0
   26.9356  -21.4509   -8.0269 C   0  0  0  0  0  0  0  0  0  0  0  0
   26.7556  -20.5374   -9.0534 C   0  0  0  0  0  0  0  0  0  0  0  0
   24.0927  -20.7623  -12.2933 C   0  0  0  0  0  0  0  0  0  0  0  0
   24.1994  -19.5464  -12.0265 O   0  0  0  0  0  0  0  0  0  0  0  0
   22.8086  -21.3178  -12.5540 N   0  0  0  0  0  0  0  0  0  0  0  0
   21.6052  -20.4660  -12.6325 C   0  0  1  0  0  0  0  0  0  0  0  0
   20.8612  -20.7515  -13.9034 C   0  0  0  0  0  0  0  0  0  0  0  0
   21.7093  -20.7051  -15.1180 C   0  0  0  0  0  0  0  0  0  0  0  0
   21.4225  -21.7528  -16.1195 C   0  0  0  0  0  0  0  0  0  0  0  0
   20.5137  -22.5935  -15.8827 O   0  0  0  0  0  0  0  0  0  0  0  0
   20.7584  -20.6978  -11.4320 C   0  0  0  0  0  0  0  0  0  0  0  0
   19.7585  -20.0132  -11.1242 O   0  0  0  0  0  0  0  0  0  0  0  0
   22.1122  -21.8427  -17.2987 O   0  0  0  0  0  0  0  0  0  0  0  0
   21.0870  -21.7500  -10.5754 O   0  0  0  0  0  0  0  0  0  0  0  0
  2  1  1  6
  2  3  1  0
  3  4  1  0
  4  5  2  0
  4  8  1  0
  5  6  1  0
  6  7  1  0
  8  7  2  0
  9 10  2  0
  9  2  1  0
 11  9  1  0
 12 13  1  1
 12 11  1  0
 13 14  1  0
 14 22  1  0
 14 15  2  0
 15 16  1  0
 17 16  1  0
 17 18  2  0
 19 18  1  0
 20 19  2  0
 21 22  2  0
 21 20  1  0
 22 17  1  0
 23 12  1  0
 24 23  2  0
 25 23  1  0
 26 25  1  0
 27 28  1  0
 26 27  1  6
 28 29  1  0
 29 33  1  0
 29 30  2  0
 31 34  1  0
 31 26  1  0
 32 31  2  0
M  END
$$$$
