HWE.pdb
     RDKit          3D

 34 36  0  0  1  0  0  0  0  0999 V2000
   28.1668  -22.3510  -15.5469 N   0  0  0  0  0  0  0  0  0  0  0  0
   27.4366  -21.1538  -15.1187 C   0  0  1  0  0  0  0  0  0  0  0  0
   26.6369  -20.7262  -16.3568 C   0  0  0  0  0  0  0  0  0  0  0  0
   27.6431  -20.1542  -17.2994 C   0  0  0  0  0  0  0  0  0  0  0  0
   28.2376  -18.9293  -17.1996 C   0  0  0  0  0  0  0  0  0  0  0  0
   29.0735  -18.8173  -18.2535 N   0  0  0  0  0  0  0  0  0  0  0  0
   29.0271  -19.9121  -19.0023 C   0  0  0  0  0  0  0  0  0  0  0  0
   28.1380  -20.7349  -18.4031 N   0  0  0  0  0  0  0  0  0  0  0  0
   26.5448  -21.4637  -14.0013 C   0  0  0  0  0  0  0  0  0  0  0  0
   25.8190  -22.4755  -14.0275 O   0  0  0  0  0  0  0  0  0  0  0  0
   26.4969  -20.6243  -12.8866 N   0  0  0  0  0  0  0  0  0  0  0  0
   25.5665  -20.7712  -11.7836 C   0  0  1  0  0  0  0  0  0  0  0  0
   25.9385  -19.9644  -10.5936 C   0  0  0  0  0  0  0  0  0  0  0  0
   27.2350  -20.4410  -10.0637 C   0  0  0  0  0  0  0  0  0  0  0  0
   28.2051  -21.1666  -10.7224 C   0  0  0  0  0  0  0  0  0  0  0  0
   29.2330  -21.4123   -9.8904 N   0  0  0  0  0  0  0  0  0  0  0  0
   28.9484  -20.8533   -8.6849 C   0  0  0  0  0  0  0  0  0  0  0  0
   29.6655  -20.8209   -7.5072 C   0  0  0  0  0  0  0  0  0  0  0  0
   29.1229  -20.1683   -6.4159 C   0  0  0  0  0  0  0  0  0  0  0  0
   27.8867  -19.5587   -6.4981 C   0  0  0  0  0  0  0  0  0  0  0  0
   27.1823  -19.5974   -7.6750 C   0  0  0  0  0  0  0  0  0  0  0  0
   27.7098  -20.2468   -8.7797 C   0  0  0  0  0  0  0  0  0  0  0  0
   24.2184  -20.4128  -12.2391 C   0  0  0  0  0  0  0  0  0  0  0  0
   24.0665  -19.5499  -13.1298 O   0  0  0  0  0  0  0  0  0  0  0  0
   23.0790  -21.0467  -11.6686 N   0  0  0  0  0  0  0  0  0  0  0  0
   21.7680  -21.0245  -12.3473 C   0  0  1  0  0  0  0  0  0  0  0  0
   21.7051  -22.1207  -13.3694 C   0  0  0  0  0  0  0  0  0  0  0  0
   20.4518  -22.1316  -14.1605 C   0  0  0  0  0  0  0  0  0  0  0  0
   20.3600  -23.2075  -15.1690 C   0  0  0  0  0  0  0  0  0  0  0  0
   19.6119  -24.1963  -14.9426 O   0  0  0  0  0  0  0  0  0  0  0  0
   20.6865  -21.1505  -11.3342 C   0  0  0  0  0  0  0  0  0  0  0  0
   19.5179  -20.7325  -11.4857 O   0  0  0  0  0  0  0  0  0  0  0  0
   21.0623  -23.1678  -16.3436 O   0  0  0  0  0  0  0  0  0  0  0  0
   20.9770  -21.7771  -10.1209 O   0  0  0  0  0  0  0  0  0  0  0  0
  2  1  1  6
  2  3  1  0
  3  4  1  0
  4  5  2  0
  4  8  1  0
  5  6  1  0
  6  7  1  0
  8  7  2  0
  9 10  2  0
  9  2  1  0
 11  9  1  0
 12 13  1  1
 12 11  1  0
 13 14  1  0
 14 22  1  0
 14 15  2  0
 15 16  1  0
 17 16  1  0
 17 18  2  0
 19 18  1  0
 20 19  2  0
 21 22  2  0
 21 20  1  0
 22 17  1  0
 23 12  1  0
 24 23  2  0
 25 23  1  0
 26 25  1  0
 27 28  1  0
 26 27  1  6
 28 29  1  0
 29 33  1  0
 29 30  2  0
 31 34  1  0
 31 26  1  0
 32 31  2  0
M  END
$$$$
