HWE.pdb
     RDKit          3D

 34 36  0  0  1  0  0  0  0  0999 V2000
   17.2527  -29.0316  -10.4887 N   0  0  0  0  0  0  0  0  0  0  0  0
   18.3322  -28.6894   -9.5573 C   0  0  1  0  0  0  0  0  0  0  0  0
   17.8566  -27.4014   -8.8718 C   0  0  0  0  0  0  0  0  0  0  0  0
   18.0763  -26.3162   -9.8728 C   0  0  0  0  0  0  0  0  0  0  0  0
   19.2789  -25.9205  -10.3835 C   0  0  0  0  0  0  0  0  0  0  0  0
   19.0213  -24.9167  -11.2482 N   0  0  0  0  0  0  0  0  0  0  0  0
   17.7183  -24.6698  -11.2994 C   0  0  0  0  0  0  0  0  0  0  0  0
   17.1408  -25.5421  -10.4437 N   0  0  0  0  0  0  0  0  0  0  0  0
   18.5309  -29.7596   -8.5800 C   0  0  0  0  0  0  0  0  0  0  0  0
   17.6132  -30.0952   -7.8078 O   0  0  0  0  0  0  0  0  0  0  0  0
   19.7583  -30.4206   -8.5014 N   0  0  0  0  0  0  0  0  0  0  0  0
   20.0857  -31.4368   -7.5196 C   0  0  1  0  0  0  0  0  0  0  0  0
   21.3945  -32.0920   -7.7706 C   0  0  0  0  0  0  0  0  0  0  0  0
   21.6357  -33.1190   -6.7334 C   0  0  0  0  0  0  0  0  0  0  0  0
   20.7768  -34.1087   -6.3042 C   0  0  0  0  0  0  0  0  0  0  0  0
   21.3662  -34.8349   -5.3374 N   0  0  0  0  0  0  0  0  0  0  0  0
   22.6103  -34.3311   -5.1247 C   0  0  0  0  0  0  0  0  0  0  0  0
   23.6066  -34.7117   -4.2502 C   0  0  0  0  0  0  0  0  0  0  0  0
   24.7952  -34.0058   -4.2481 C   0  0  0  0  0  0  0  0  0  0  0  0
   24.9866  -32.9388   -5.1035 C   0  0  0  0  0  0  0  0  0  0  0  0
   23.9883  -32.5692   -5.9693 C   0  0  0  0  0  0  0  0  0  0  0  0
   22.7898  -33.2648   -5.9859 C   0  0  0  0  0  0  0  0  0  0  0  0
   20.0662  -30.8372   -6.1804 C   0  0  0  0  0  0  0  0  0  0  0  0
   20.6030  -29.7264   -5.9831 O   0  0  0  0  0  0  0  0  0  0  0  0
   19.4358  -31.5183   -5.1014 N   0  0  0  0  0  0  0  0  0  0  0  0
   19.5137  -31.0049   -3.7193 C   0  0  1  0  0  0  0  0  0  0  0  0
   18.1463  -30.9931   -3.1026 C   0  0  0  0  0  0  0  0  0  0  0  0
   17.7152  -29.6577   -2.6256 C   0  0  0  0  0  0  0  0  0  0  0  0
   16.3763  -29.6204   -2.0020 C   0  0  0  0  0  0  0  0  0  0  0  0
   16.2151  -30.1433   -0.8666 O   0  0  0  0  0  0  0  0  0  0  0  0
   20.4659  -31.8378   -2.9372 C   0  0  0  0  0  0  0  0  0  0  0  0
   20.5767  -33.0787   -3.0414 O   0  0  0  0  0  0  0  0  0  0  0  0
   15.3014  -29.0366   -2.6171 O   0  0  0  0  0  0  0  0  0  0  0  0
   21.3042  -31.2074   -2.0158 O   0  0  0  0  0  0  0  0  0  0  0  0
  2  1  1  6
  2  3  1  0
  3  4  1  0
  4  5  2  0
  4  8  1  0
  5  6  1  0
  6  7  1  0
  8  7  2  0
  9 10  2  0
  9  2  1  0
 11  9  1  0
 12 13  1  6
 12 11  1  0
 13 14  1  0
 14 22  1  0
 14 15  2  0
 15 16  1  0
 17 16  1  0
 17 18  2  0
 19 18  1  0
 20 19  2  0
 21 22  2  0
 21 20  1  0
 22 17  1  0
 23 12  1  0
 24 23  2  0
 25 23  1  0
 26 25  1  0
 27 28  1  0
 26 27  1  1
 28 29  1  0
 29 33  1  0
 29 30  2  0
 31 34  1  0
 31 26  1  0
 32 31  2  0
M  END
$$$$
