HWE.pdb
     RDKit          3D

 34 36  0  0  1  0  0  0  0  0999 V2000
   27.2546  -22.2202  -19.8729 N   0  0  0  0  0  0  0  0  0  0  0  0
   26.6837  -23.5628  -20.0188 C   0  0  1  0  0  0  0  0  0  0  0  0
   26.2305  -23.6323  -21.4834 C   0  0  0  0  0  0  0  0  0  0  0  0
   25.1220  -22.6397  -21.6019 C   0  0  0  0  0  0  0  0  0  0  0  0
   25.1945  -21.4170  -22.2047 C   0  0  0  0  0  0  0  0  0  0  0  0
   23.9745  -20.8524  -22.0837 N   0  0  0  0  0  0  0  0  0  0  0  0
   23.1485  -21.6642  -21.4356 C   0  0  0  0  0  0  0  0  0  0  0  0
   23.8686  -22.7694  -21.1410 N   0  0  0  0  0  0  0  0  0  0  0  0
   27.6889  -24.5864  -19.7331 C   0  0  0  0  0  0  0  0  0  0  0  0
   28.8159  -24.5371  -20.2610 O   0  0  0  0  0  0  0  0  0  0  0  0
   27.3950  -25.6359  -18.8604 N   0  0  0  0  0  0  0  0  0  0  0  0
   28.3458  -26.6454  -18.4355 C   0  0  1  0  0  0  0  0  0  0  0  0
   28.4723  -26.7451  -16.9592 C   0  0  0  0  0  0  0  0  0  0  0  0
   29.3579  -25.6661  -16.4690 C   0  0  0  0  0  0  0  0  0  0  0  0
   29.0940  -24.3140  -16.4091 C   0  0  0  0  0  0  0  0  0  0  0  0
   30.1604  -23.6639  -15.9096 N   0  0  0  0  0  0  0  0  0  0  0  0
   31.1283  -24.5785  -15.6387 C   0  0  0  0  0  0  0  0  0  0  0  0
   32.3978  -24.4303  -15.1203 C   0  0  0  0  0  0  0  0  0  0  0  0
   33.1815  -25.5561  -14.9481 C   0  0  0  0  0  0  0  0  0  0  0  0
   32.7071  -26.8078  -15.2870 C   0  0  0  0  0  0  0  0  0  0  0  0
   31.4424  -26.9431  -15.8019 C   0  0  0  0  0  0  0  0  0  0  0  0
   30.6420  -25.8261  -15.9818 C   0  0  0  0  0  0  0  0  0  0  0  0
   27.9566  -27.9425  -19.0008 C   0  0  0  0  0  0  0  0  0  0  0  0
   26.7855  -28.1288  -19.3941 O   0  0  0  0  0  0  0  0  0  0  0  0
   28.9113  -28.9930  -19.1034 N   0  0  0  0  0  0  0  0  0  0  0  0
   28.8330  -29.9989  -20.1814 C   0  0  1  0  0  0  0  0  0  0  0  0
   28.8517  -29.3164  -21.5170 C   0  0  0  0  0  0  0  0  0  0  0  0
   27.6116  -29.5084  -22.3059 C   0  0  0  0  0  0  0  0  0  0  0  0
   27.6819  -30.5712  -23.3298 C   0  0  0  0  0  0  0  0  0  0  0  0
   27.4017  -31.7558  -23.0028 O   0  0  0  0  0  0  0  0  0  0  0  0
   29.9557  -30.9637  -20.0376 C   0  0  0  0  0  0  0  0  0  0  0  0
   30.1637  -31.9316  -20.8012 O   0  0  0  0  0  0  0  0  0  0  0  0
   28.0429  -30.3131  -24.6250 O   0  0  0  0  0  0  0  0  0  0  0  0
   30.8521  -30.7932  -18.9810 O   0  0  0  0  0  0  0  0  0  0  0  0
  2  1  1  6
  2  3  1  0
  3  4  1  0
  4  5  2  0
  4  8  1  0
  5  6  1  0
  6  7  1  0
  8  7  2  0
  9 10  2  0
  9  2  1  0
 11  9  1  0
 12 13  1  1
 12 11  1  0
 13 14  1  0
 14 22  1  0
 14 15  2  0
 15 16  1  0
 17 16  1  0
 17 18  2  0
 19 18  1  0
 20 19  2  0
 21 22  2  0
 21 20  1  0
 22 17  1  0
 23 12  1  0
 24 23  2  0
 25 23  1  0
 26 25  1  0
 27 28  1  0
 26 27  1  6
 28 29  1  0
 29 33  1  0
 29 30  2  0
 31 34  1  0
 31 26  1  0
 32 31  2  0
M  END
$$$$
