HWE.pdb
     RDKit          3D

 34 36  0  0  1  0  0  0  0  0999 V2000
   27.6843  -23.3289  -16.8907 N   0  0  0  0  0  0  0  0  0  0  0  0
   27.5035  -21.9450  -16.4412 C   0  0  1  0  0  0  0  0  0  0  0  0
   26.6831  -21.2813  -17.5556 C   0  0  0  0  0  0  0  0  0  0  0  0
   27.6246  -21.1315  -18.7042 C   0  0  0  0  0  0  0  0  0  0  0  0
   27.6037  -21.8511  -19.8641 C   0  0  0  0  0  0  0  0  0  0  0  0
   28.6241  -21.3954  -20.6211 N   0  0  0  0  0  0  0  0  0  0  0  0
   29.2771  -20.4286  -19.9883 C   0  0  0  0  0  0  0  0  0  0  0  0
   28.6504  -20.2721  -18.8012 N   0  0  0  0  0  0  0  0  0  0  0  0
   26.7851  -21.9043  -15.1676 C   0  0  0  0  0  0  0  0  0  0  0  0
   25.7195  -22.5313  -15.0172 O   0  0  0  0  0  0  0  0  0  0  0  0
   27.2885  -21.1582  -14.1002 N   0  0  0  0  0  0  0  0  0  0  0  0
   26.6933  -21.1049  -12.7787 C   0  0  1  0  0  0  0  0  0  0  0  0
   27.5682  -20.4562  -11.7691 C   0  0  0  0  0  0  0  0  0  0  0  0
   26.9157  -20.5176  -10.4428 C   0  0  0  0  0  0  0  0  0  0  0  0
   25.5670  -20.5848  -10.1635 C   0  0  0  0  0  0  0  0  0  0  0  0
   25.3789  -20.6154   -8.8320 N   0  0  0  0  0  0  0  0  0  0  0  0
   26.5957  -20.5688   -8.2287 C   0  0  0  0  0  0  0  0  0  0  0  0
   26.9489  -20.5739   -6.8955 C   0  0  0  0  0  0  0  0  0  0  0  0
   28.2893  -20.5168   -6.5623 C   0  0  0  0  0  0  0  0  0  0  0  0
   29.2606  -20.4556   -7.5419 C   0  0  0  0  0  0  0  0  0  0  0  0
   28.8974  -20.4511   -8.8651 C   0  0  0  0  0  0  0  0  0  0  0  0
   27.5586  -20.5079   -9.2187 C   0  0  0  0  0  0  0  0  0  0  0  0
   25.4050  -20.4068  -12.8580 C   0  0  0  0  0  0  0  0  0  0  0  0
   25.3708  -19.1770  -13.0754 O   0  0  0  0  0  0  0  0  0  0  0  0
   24.1897  -21.1276  -12.6880 N   0  0  0  0  0  0  0  0  0  0  0  0
   22.8779  -20.4627  -12.8189 C   0  0  1  0  0  0  0  0  0  0  0  0
   22.1608  -20.9849  -14.0285 C   0  0  0  0  0  0  0  0  0  0  0  0
   22.5837  -20.3475  -15.2980 C   0  0  0  0  0  0  0  0  0  0  0  0
   22.9742  -21.2879  -16.3685 C   0  0  0  0  0  0  0  0  0  0  0  0
   23.8033  -22.2011  -16.1085 O   0  0  0  0  0  0  0  0  0  0  0  0
   22.0912  -20.6755  -11.5749 C   0  0  0  0  0  0  0  0  0  0  0  0
   22.4418  -21.4148  -10.6295 O   0  0  0  0  0  0  0  0  0  0  0  0
   22.4660  -21.2010  -17.6368 O   0  0  0  0  0  0  0  0  0  0  0  0
   20.8714  -20.0113  -11.4338 O   0  0  0  0  0  0  0  0  0  0  0  0
  2  1  1  6
  2  3  1  0
  3  4  1  0
  4  5  2  0
  4  8  1  0
  5  6  1  0
  6  7  1  0
  8  7  2  0
  9 10  2  0
  9  2  1  0
 11  9  1  0
 12 13  1  1
 12 11  1  0
 13 14  1  0
 14 22  1  0
 14 15  2  0
 15 16  1  0
 17 16  1  0
 17 18  2  0
 19 18  1  0
 20 19  2  0
 21 22  2  0
 21 20  1  0
 22 17  1  0
 23 12  1  0
 24 23  2  0
 25 23  1  0
 26 25  1  0
 27 28  1  0
 26 27  1  6
 28 29  1  0
 29 33  1  0
 29 30  2  0
 31 34  1  0
 31 26  1  0
 32 31  2  0
M  END
$$$$
