HWE.pdb
     RDKit          3D

 34 36  0  0  1  0  0  0  0  0999 V2000
   27.6573  -22.9255  -15.5950 N   0  0  0  0  0  0  0  0  0  0  0  0
   27.0412  -21.6414  -15.2468 C   0  0  1  0  0  0  0  0  0  0  0  0
   26.2034  -21.2690  -16.4775 C   0  0  0  0  0  0  0  0  0  0  0  0
   27.1931  -20.9197  -17.5388 C   0  0  0  0  0  0  0  0  0  0  0  0
   27.3950  -21.5949  -18.7080 C   0  0  0  0  0  0  0  0  0  0  0  0
   28.3758  -20.9431  -19.3675 N   0  0  0  0  0  0  0  0  0  0  0  0
   28.7927  -19.8968  -18.6653 C   0  0  0  0  0  0  0  0  0  0  0  0
   28.0539  -19.8905  -17.5336 N   0  0  0  0  0  0  0  0  0  0  0  0
   26.1963  -21.7776  -14.0604 C   0  0  0  0  0  0  0  0  0  0  0  0
   25.6132  -22.8501  -13.8137 O   0  0  0  0  0  0  0  0  0  0  0  0
   26.0332  -20.7012  -13.1863 N   0  0  0  0  0  0  0  0  0  0  0  0
   25.2202  -20.7304  -11.9856 C   0  0  1  0  0  0  0  0  0  0  0  0
   25.7553  -19.8748  -10.8961 C   0  0  0  0  0  0  0  0  0  0  0  0
   26.9682  -20.5041  -10.3291 C   0  0  0  0  0  0  0  0  0  0  0  0
   27.8545  -21.3542  -10.9562 C   0  0  0  0  0  0  0  0  0  0  0  0
   28.8230  -21.7170  -10.0962 N   0  0  0  0  0  0  0  0  0  0  0  0
   28.5824  -21.1117   -8.9035 C   0  0  0  0  0  0  0  0  0  0  0  0
   29.2694  -21.1551   -7.7084 C   0  0  0  0  0  0  0  0  0  0  0  0
   28.7875  -20.4259   -6.6373 C   0  0  0  0  0  0  0  0  0  0  0  0
   27.6404  -19.6666   -6.7565 C   0  0  0  0  0  0  0  0  0  0  0  0
   26.9651  -19.6309   -7.9504 C   0  0  0  0  0  0  0  0  0  0  0  0
   27.4329  -20.3553   -9.0353 C   0  0  0  0  0  0  0  0  0  0  0  0
   23.8497  -20.3273  -12.3214 C   0  0  0  0  0  0  0  0  0  0  0  0
   23.6253  -19.1837  -12.7717 O   0  0  0  0  0  0  0  0  0  0  0  0
   22.7712  -21.2372  -12.1359 N   0  0  0  0  0  0  0  0  0  0  0  0
   21.3766  -20.8421  -12.4170 C   0  0  1  0  0  0  0  0  0  0  0  0
   20.5599  -22.0565  -12.7462 C   0  0  0  0  0  0  0  0  0  0  0  0
   20.8968  -22.6695  -14.0529 C   0  0  0  0  0  0  0  0  0  0  0  0
   20.1458  -23.8999  -14.3769 C   0  0  0  0  0  0  0  0  0  0  0  0
   20.3102  -24.4382  -15.5047 O   0  0  0  0  0  0  0  0  0  0  0  0
   20.8273  -20.1070  -11.2466 C   0  0  0  0  0  0  0  0  0  0  0  0
   19.9752  -19.1946  -11.3159 O   0  0  0  0  0  0  0  0  0  0  0  0
   19.2744  -24.4766  -13.4923 O   0  0  0  0  0  0  0  0  0  0  0  0
   21.2830  -20.4452   -9.9711 O   0  0  0  0  0  0  0  0  0  0  0  0
  2  1  1  6
  2  3  1  0
  3  4  1  0
  4  5  2  0
  4  8  1  0
  5  6  1  0
  6  7  1  0
  8  7  2  0
  9 10  2  0
  9  2  1  0
 11  9  1  0
 12 13  1  1
 12 11  1  0
 13 14  1  0
 14 22  1  0
 14 15  2  0
 15 16  1  0
 17 16  1  0
 17 18  2  0
 19 18  1  0
 20 19  2  0
 21 22  2  0
 21 20  1  0
 22 17  1  0
 23 12  1  0
 24 23  2  0
 25 23  1  0
 26 25  1  0
 27 28  1  0
 26 27  1  1
 28 29  1  0
 29 33  1  0
 29 30  2  0
 31 34  1  0
 31 26  1  0
 32 31  2  0
M  END
$$$$
