NWC.pdb
     RDKit          3D

 29 30  0  0  1  0  0  0  0  0999 V2000
   28.7816  -22.4449  -17.8190 N   0  0  0  0  0  0  0  0  0  0  0  0
   27.4252  -22.1311  -18.0469 C   0  0  0  0  0  0  0  0  0  0  0  0
   27.0998  -21.6830  -19.1942 O   0  0  0  0  0  0  0  0  0  0  0  0
   26.4407  -22.3299  -16.9597 C   0  0  0  0  0  0  0  0  0  0  0  0
   27.2186  -22.8564  -15.7656 C   0  0  2  0  0  0  0  0  0  0  0  0
   27.4384  -24.2787  -15.8708 N   0  0  0  0  0  0  0  0  0  0  0  0
   26.3424  -22.6290  -14.5657 C   0  0  0  0  0  0  0  0  0  0  0  0
   25.5565  -23.5386  -14.3039 O   0  0  0  0  0  0  0  0  0  0  0  0
   26.4267  -21.4761  -13.8186 N   0  0  0  0  0  0  0  0  0  0  0  0
   25.6378  -20.9898  -12.7497 C   0  0  1  0  0  0  0  0  0  0  0  0
   26.2080  -20.0037  -11.7890 C   0  0  0  0  0  0  0  0  0  0  0  0
   27.3723  -20.5412  -11.0506 C   0  0  0  0  0  0  0  0  0  0  0  0
   28.5169  -21.1454  -11.5028 C   0  0  0  0  0  0  0  0  0  0  0  0
   29.2588  -21.4993  -10.4595 N   0  0  0  0  0  0  0  0  0  0  0  0
   28.6492  -21.1513   -9.3042 C   0  0  0  0  0  0  0  0  0  0  0  0
   28.9616  -21.2790   -7.9822 C   0  0  0  0  0  0  0  0  0  0  0  0
   28.1316  -20.8260   -6.9910 C   0  0  0  0  0  0  0  0  0  0  0  0
   26.9479  -20.2244   -7.3353 C   0  0  0  0  0  0  0  0  0  0  0  0
   26.6049  -20.0804   -8.6592 C   0  0  0  0  0  0  0  0  0  0  0  0
   27.4653  -20.5493   -9.6586 C   0  0  0  0  0  0  0  0  0  0  0  0
   24.2503  -20.7202  -13.1726 C   0  0  0  0  0  0  0  0  0  0  0  0
   24.0570  -19.8407  -14.0519 O   0  0  0  0  0  0  0  0  0  0  0  0
   23.1274  -21.4024  -12.6374 N   0  0  0  0  0  0  0  0  0  0  0  0
   21.7963  -21.1010  -13.1336 C   0  0  1  0  0  0  0  0  0  0  0  0
   20.8622  -22.2812  -12.8711 C   0  0  0  0  0  0  0  0  0  0  0  0
   20.5923  -22.5178  -11.0944 S   0  0  0  0  0  0  0  0  0  0  0  0
   21.2789  -19.8290  -12.6051 C   0  0  0  0  0  0  0  0  0  0  0  0
   21.7661  -19.2793  -11.5874 O   0  0  0  0  0  0  0  0  0  0  0  0
   20.2032  -19.1450  -13.2060 O   0  0  0  0  0  0  0  0  0  0  0  0
  1  2  1  0
  2  3  2  0
  4  5  1  0
  4  2  1  0
  5  6  1  6
  7  8  2  0
  7  5  1  0
  9  7  1  0
 10  9  1  0
 10 11  1  6
 11 12  1  0
 12 13  2  0
 12 20  1  0
 13 14  1  0
 14 15  1  0
 15 16  2  0
 16 17  1  0
 18 17  2  0
 19 18  1  0
 20 19  2  0
 20 15  1  0
 21 22  2  0
 21 10  1  0
 23 21  1  0
 24 25  1  1
 24 23  1  0
 25 26  1  0
 27 24  1  0
 28 27  2  0
 29 27  1  0
M  END
$$$$
