NWC.pdb
     RDKit          3D

 29 30  0  0  1  0  0  0  0  0999 V2000
   17.6051  -15.9705  -18.7241 N   0  0  0  0  0  0  0  0  0  0  0  0
   17.3688  -15.7461  -17.3515 C   0  0  0  0  0  0  0  0  0  0  0  0
   16.1924  -15.9487  -16.9064 O   0  0  0  0  0  0  0  0  0  0  0  0
   18.4804  -15.2885  -16.4881 C   0  0  0  0  0  0  0  0  0  0  0  0
   19.7157  -15.2316  -17.3707 C   0  0  2  0  0  0  0  0  0  0  0  0
   20.3566  -16.5215  -17.4567 N   0  0  0  0  0  0  0  0  0  0  0  0
   20.6760  -14.3024  -16.6824 C   0  0  0  0  0  0  0  0  0  0  0  0
   20.9512  -14.5922  -15.5189 O   0  0  0  0  0  0  0  0  0  0  0  0
   21.2051  -13.2061  -17.3246 N   0  0  0  0  0  0  0  0  0  0  0  0
   22.0714  -12.1818  -16.8754 C   0  0  1  0  0  0  0  0  0  0  0  0
   23.4048  -11.9976  -17.5145 C   0  0  0  0  0  0  0  0  0  0  0  0
   24.1414  -13.2723  -17.6645 C   0  0  0  0  0  0  0  0  0  0  0  0
   24.3217  -14.0777  -18.7593 C   0  0  0  0  0  0  0  0  0  0  0  0
   25.0251  -15.1448  -18.3983 N   0  0  0  0  0  0  0  0  0  0  0  0
   25.3309  -15.0887  -17.0827 C   0  0  0  0  0  0  0  0  0  0  0  0
   26.0124  -15.9009  -16.2240 C   0  0  0  0  0  0  0  0  0  0  0  0
   26.1705  -15.5903  -14.8992 C   0  0  0  0  0  0  0  0  0  0  0  0
   25.6274  -14.4265  -14.4175 C   0  0  0  0  0  0  0  0  0  0  0  0
   24.9353  -13.5866  -15.2581 C   0  0  0  0  0  0  0  0  0  0  0  0
   24.7837  -13.9200  -16.6089 C   0  0  0  0  0  0  0  0  0  0  0  0
   21.3392  -10.9341  -16.5858 C   0  0  0  0  0  0  0  0  0  0  0  0
   20.5522  -10.4897  -17.4618 O   0  0  0  0  0  0  0  0  0  0  0  0
   21.4792  -10.2138  -15.3717 N   0  0  0  0  0  0  0  0  0  0  0  0
   20.7307   -8.9855  -15.1712 C   0  0  1  0  0  0  0  0  0  0  0  0
   19.5893   -9.2255  -14.1843 C   0  0  0  0  0  0  0  0  0  0  0  0
   18.8350   -7.6612  -13.6652 S   0  0  0  0  0  0  0  0  0  0  0  0
   21.5976   -7.8608  -14.7858 C   0  0  0  0  0  0  0  0  0  0  0  0
   22.6143   -8.0152  -14.0663 O   0  0  0  0  0  0  0  0  0  0  0  0
   21.3436   -6.5375  -15.1987 O   0  0  0  0  0  0  0  0  0  0  0  0
  1  2  1  0
  2  3  2  0
  4  5  1  0
  4  2  1  0
  5  6  1  1
  7  8  2  0
  7  5  1  0
  9  7  1  0
 10  9  1  0
 10 11  1  6
 11 12  1  0
 12 13  2  0
 12 20  1  0
 13 14  1  0
 14 15  1  0
 15 16  2  0
 16 17  1  0
 18 17  2  0
 19 18  1  0
 20 19  2  0
 20 15  1  0
 21 22  2  0
 21 10  1  0
 23 21  1  0
 24 25  1  1
 24 23  1  0
 25 26  1  0
 27 24  1  0
 28 27  2  0
 29 27  1  0
M  END
$$$$
