NWC.pdb
     RDKit          3D

 29 30  0  0  1  0  0  0  0  0999 V2000
   30.7558  -21.8870  -17.0249 N   0  0  0  0  0  0  0  0  0  0  0  0
   29.4026  -22.2081  -17.2608 C   0  0  0  0  0  0  0  0  0  0  0  0
   29.0603  -22.5200  -18.4477 O   0  0  0  0  0  0  0  0  0  0  0  0
   28.4403  -22.1712  -16.1369 C   0  0  0  0  0  0  0  0  0  0  0  0
   29.2514  -21.8822  -14.8851 C   0  0  2  0  0  0  0  0  0  0  0  0
   30.1257  -22.9839  -14.5628 N   0  0  0  0  0  0  0  0  0  0  0  0
   28.2571  -21.7604  -13.7645 C   0  0  0  0  0  0  0  0  0  0  0  0
   27.0852  -21.9758  -14.0706 O   0  0  0  0  0  0  0  0  0  0  0  0
   28.6472  -21.4311  -12.4863 N   0  0  0  0  0  0  0  0  0  0  0  0
   27.9053  -21.2480  -11.2957 C   0  0  1  0  0  0  0  0  0  0  0  0
   28.6018  -20.8805  -10.0307 C   0  0  0  0  0  0  0  0  0  0  0  0
   27.6580  -20.6033   -8.9250 C   0  0  0  0  0  0  0  0  0  0  0  0
   26.2877  -20.5611   -8.9082 C   0  0  0  0  0  0  0  0  0  0  0  0
   25.8816  -20.2288   -7.6881 N   0  0  0  0  0  0  0  0  0  0  0  0
   26.9413  -20.0430   -6.8695 C   0  0  0  0  0  0  0  0  0  0  0  0
   27.0871  -19.6985   -5.5575 C   0  0  0  0  0  0  0  0  0  0  0  0
   28.3184  -19.5743   -4.9699 C   0  0  0  0  0  0  0  0  0  0  0  0
   29.4424  -19.8030   -5.7221 C   0  0  0  0  0  0  0  0  0  0  0  0
   29.3284  -20.1523   -7.0472 C   0  0  0  0  0  0  0  0  0  0  0  0
   28.0622  -20.2745   -7.6309 C   0  0  0  0  0  0  0  0  0  0  0  0
   26.6406  -20.5301  -11.5443 C   0  0  0  0  0  0  0  0  0  0  0  0
   26.6905  -19.2873  -11.7375 O   0  0  0  0  0  0  0  0  0  0  0  0
   25.3754  -21.1711  -11.5759 N   0  0  0  0  0  0  0  0  0  0  0  0
   24.1856  -20.4034  -11.8986 C   0  0  1  0  0  0  0  0  0  0  0  0
   23.8001  -20.6285  -13.3598 C   0  0  0  0  0  0  0  0  0  0  0  0
   24.1224  -22.3394  -13.8640 S   0  0  0  0  0  0  0  0  0  0  0  0
   23.0803  -20.6689  -10.9644 C   0  0  0  0  0  0  0  0  0  0  0  0
   23.1009  -21.6313  -10.1590 O   0  0  0  0  0  0  0  0  0  0  0  0
   21.9267  -19.8609  -10.9124 O   0  0  0  0  0  0  0  0  0  0  0  0
  1  2  1  0
  2  3  2  0
  4  5  1  0
  4  2  1  0
  5  6  1  1
  7  8  2  0
  7  5  1  0
  9  7  1  0
 10  9  1  0
 10 11  1  1
 11 12  1  0
 12 13  2  0
 12 20  1  0
 13 14  1  0
 14 15  1  0
 15 16  2  0
 16 17  1  0
 18 17  2  0
 19 18  1  0
 20 19  2  0
 20 15  1  0
 21 22  2  0
 21 10  1  0
 23 21  1  0
 24 25  1  6
 24 23  1  0
 25 26  1  0
 27 24  1  0
 28 27  2  0
 29 27  1  0
M  END
$$$$
