NWC.pdb
     RDKit          3D

 29 30  0  0  1  0  0  0  0  0999 V2000
   26.3074  -16.4422  -18.9667 N   0  0  0  0  0  0  0  0  0  0  0  0
   25.0739  -17.0005  -18.5706 C   0  0  0  0  0  0  0  0  0  0  0  0
   24.0080  -16.3737  -18.8774 O   0  0  0  0  0  0  0  0  0  0  0  0
   25.0610  -18.2771  -17.8219 C   0  0  0  0  0  0  0  0  0  0  0  0
   26.5134  -18.6841  -17.6398 C   0  0  2  0  0  0  0  0  0  0  0  0
   26.9743  -19.4859  -18.7474 N   0  0  0  0  0  0  0  0  0  0  0  0
   26.5509  -19.5539  -16.4146 C   0  0  0  0  0  0  0  0  0  0  0  0
   26.0858  -20.6844  -16.5533 O   0  0  0  0  0  0  0  0  0  0  0  0
   27.0756  -19.1025  -15.2249 N   0  0  0  0  0  0  0  0  0  0  0  0
   27.1055  -19.6783  -13.9330 C   0  0  1  0  0  0  0  0  0  0  0  0
   28.1361  -19.2472  -12.9468 C   0  0  0  0  0  0  0  0  0  0  0  0
   28.2776  -20.1999  -11.8233 C   0  0  0  0  0  0  0  0  0  0  0  0
   28.9158  -21.4113  -11.7528 C   0  0  0  0  0  0  0  0  0  0  0  0
   28.7357  -21.9237  -10.5408 N   0  0  0  0  0  0  0  0  0  0  0  0
   27.9899  -21.0915   -9.7800 C   0  0  0  0  0  0  0  0  0  0  0  0
   27.5199  -21.1299   -8.4997 C   0  0  0  0  0  0  0  0  0  0  0  0
   26.7604  -20.1191   -7.9724 C   0  0  0  0  0  0  0  0  0  0  0  0
   26.4610  -19.0324   -8.7540 C   0  0  0  0  0  0  0  0  0  0  0  0
   26.9204  -18.9640  -10.0483 C   0  0  0  0  0  0  0  0  0  0  0  0
   27.6952  -20.0060  -10.5705 C   0  0  0  0  0  0  0  0  0  0  0  0
   25.7486  -19.8561  -13.3819 C   0  0  0  0  0  0  0  0  0  0  0  0
   24.9754  -18.8630  -13.3736 O   0  0  0  0  0  0  0  0  0  0  0  0
   25.2752  -21.0885  -12.8626 N   0  0  0  0  0  0  0  0  0  0  0  0
   24.0162  -21.1308  -12.1398 C   0  0  1  0  0  0  0  0  0  0  0  0
   23.0380  -22.0648  -12.8506 C   0  0  0  0  0  0  0  0  0  0  0  0
   23.5920  -22.4298  -14.5373 S   0  0  0  0  0  0  0  0  0  0  0  0
   24.2000  -21.4637  -10.7185 C   0  0  0  0  0  0  0  0  0  0  0  0
   25.3058  -21.8353  -10.2555 O   0  0  0  0  0  0  0  0  0  0  0  0
   23.1476  -21.3875   -9.7842 O   0  0  0  0  0  0  0  0  0  0  0  0
  1  2  1  0
  2  3  2  0
  4  5  1  0
  4  2  1  0
  5  6  1  6
  7  8  2  0
  7  5  1  0
  9  7  1  0
 10  9  1  0
 10 11  1  1
 11 12  1  0
 12 13  2  0
 12 20  1  0
 13 14  1  0
 14 15  1  0
 15 16  2  0
 16 17  1  0
 18 17  2  0
 19 18  1  0
 20 19  2  0
 20 15  1  0
 21 22  2  0
 21 10  1  0
 23 21  1  0
 24 25  1  6
 24 23  1  0
 25 26  1  0
 27 24  1  0
 28 27  2  0
 29 27  1  0
M  END
$$$$
