NWC.pdb
     RDKit          3D

 29 30  0  0  1  0  0  0  0  0999 V2000
   28.9330  -16.9165  -17.6814 N   0  0  0  0  0  0  0  0  0  0  0  0
   27.5965  -16.5089  -17.4872 C   0  0  0  0  0  0  0  0  0  0  0  0
   27.2663  -15.3396  -17.8705 O   0  0  0  0  0  0  0  0  0  0  0  0
   26.6376  -17.4406  -16.8525 C   0  0  0  0  0  0  0  0  0  0  0  0
   27.3964  -18.7319  -16.5978 C   0  0  2  0  0  0  0  0  0  0  0  0
   27.4956  -19.5256  -17.7988 N   0  0  0  0  0  0  0  0  0  0  0  0
   26.5697  -19.5130  -15.6151 C   0  0  0  0  0  0  0  0  0  0  0  0
   25.6246  -20.1368  -16.0960 O   0  0  0  0  0  0  0  0  0  0  0  0
   26.8639  -19.5216  -14.2706 N   0  0  0  0  0  0  0  0  0  0  0  0
   26.1975  -20.1042  -13.1670 C   0  0  1  0  0  0  0  0  0  0  0  0
   26.8494  -20.1258  -11.8272 C   0  0  0  0  0  0  0  0  0  0  0  0
   25.9676  -20.6834  -10.7777 C   0  0  0  0  0  0  0  0  0  0  0  0
   24.8887  -21.5244  -10.8699 C   0  0  0  0  0  0  0  0  0  0  0  0
   24.3865  -21.7162   -9.6554 N   0  0  0  0  0  0  0  0  0  0  0  0
   25.0962  -21.0267   -8.7343 C   0  0  0  0  0  0  0  0  0  0  0  0
   25.0116  -20.8725   -7.3814 C   0  0  0  0  0  0  0  0  0  0  0  0
   25.8883  -20.0856   -6.6822 C   0  0  0  0  0  0  0  0  0  0  0  0
   26.8839  -19.4305   -7.3611 C   0  0  0  0  0  0  0  0  0  0  0  0
   26.9958  -19.5661   -8.7249 C   0  0  0  0  0  0  0  0  0  0  0  0
   26.0912  -20.3743   -9.4230 C   0  0  0  0  0  0  0  0  0  0  0  0
   24.7604  -19.7705  -13.1576 C   0  0  0  0  0  0  0  0  0  0  0  0
   24.4304  -18.5672  -12.9919 O   0  0  0  0  0  0  0  0  0  0  0  0
   23.7361  -20.7376  -13.3256 N   0  0  0  0  0  0  0  0  0  0  0  0
   22.3498  -20.3131  -13.4096 C   0  0  1  0  0  0  0  0  0  0  0  0
   21.6559  -21.0246  -14.5701 C   0  0  0  0  0  0  0  0  0  0  0  0
   21.8007  -22.8245  -14.4129 S   0  0  0  0  0  0  0  0  0  0  0  0
   21.6397  -20.4709  -12.1307 C   0  0  0  0  0  0  0  0  0  0  0  0
   22.0554  -21.2325  -11.2237 O   0  0  0  0  0  0  0  0  0  0  0  0
   20.4473  -19.7783  -11.8400 O   0  0  0  0  0  0  0  0  0  0  0  0
  1  2  1  0
  2  3  2  0
  4  5  1  0
  4  2  1  0
  5  6  1  6
  7  8  2  0
  7  5  1  0
  9  7  1  0
 10  9  1  0
 10 11  1  1
 11 12  1  0
 12 13  2  0
 12 20  1  0
 13 14  1  0
 14 15  1  0
 15 16  2  0
 16 17  1  0
 18 17  2  0
 19 18  1  0
 20 19  2  0
 20 15  1  0
 21 22  2  0
 21 10  1  0
 23 21  1  0
 24 25  1  6
 24 23  1  0
 25 26  1  0
 27 24  1  0
 28 27  2  0
 29 27  1  0
M  END
$$$$
