NWC.pdb
     RDKit          3D

 29 30  0  0  1  0  0  0  0  0999 V2000
   17.7360  -14.5543  -14.7405 N   0  0  0  0  0  0  0  0  0  0  0  0
   17.2444  -13.5143  -15.5571 C   0  0  0  0  0  0  0  0  0  0  0  0
   15.9910  -13.4721  -15.7816 O   0  0  0  0  0  0  0  0  0  0  0  0
   18.1889  -12.5223  -16.1178 C   0  0  0  0  0  0  0  0  0  0  0  0
   17.8257  -11.1838  -15.4976 C   0  0  2  0  0  0  0  0  0  0  0  0
   16.5994  -10.6654  -16.0542 N   0  0  0  0  0  0  0  0  0  0  0  0
   18.9257  -10.2348  -15.8834 C   0  0  0  0  0  0  0  0  0  0  0  0
   20.0652  -10.6013  -15.5992 O   0  0  0  0  0  0  0  0  0  0  0  0
   18.6603   -9.0404  -16.5137 N   0  0  0  0  0  0  0  0  0  0  0  0
   19.5141   -8.0835  -17.1111 C   0  0  1  0  0  0  0  0  0  0  0  0
   19.3627   -7.7450  -18.5543 C   0  0  0  0  0  0  0  0  0  0  0  0
   19.5663   -8.9169  -19.4348 C   0  0  0  0  0  0  0  0  0  0  0  0
   18.6939   -9.8943  -19.8389 C   0  0  0  0  0  0  0  0  0  0  0  0
   19.3459  -10.7669  -20.5989 N   0  0  0  0  0  0  0  0  0  0  0  0
   20.6436  -10.4096  -20.7248 C   0  0  0  0  0  0  0  0  0  0  0  0
   21.7223  -10.9379  -21.3718 C   0  0  0  0  0  0  0  0  0  0  0  0
   22.9591  -10.3510  -21.3240 C   0  0  0  0  0  0  0  0  0  0  0  0
   23.1216   -9.1953  -20.6033 C   0  0  0  0  0  0  0  0  0  0  0  0
   22.0535   -8.6379  -19.9405 C   0  0  0  0  0  0  0  0  0  0  0  0
   20.7969   -9.2513  -20.0005 C   0  0  0  0  0  0  0  0  0  0  0  0
   19.7526   -6.9317  -16.2205 C   0  0  0  0  0  0  0  0  0  0  0  0
   18.7578   -6.3830  -15.6788 O   0  0  0  0  0  0  0  0  0  0  0  0
   21.0450   -6.4148  -15.9465 N   0  0  0  0  0  0  0  0  0  0  0  0
   21.1887   -5.2417  -15.1024 C   0  0  1  0  0  0  0  0  0  0  0  0
   21.9079   -5.6160  -13.8074 C   0  0  0  0  0  0  0  0  0  0  0  0
   22.3805   -4.1372  -12.8719 S   0  0  0  0  0  0  0  0  0  0  0  0
   21.8251   -4.1198  -15.8104 C   0  0  0  0  0  0  0  0  0  0  0  0
   22.7213   -4.2937  -16.6717 O   0  0  0  0  0  0  0  0  0  0  0  0
   21.4706   -2.7774  -15.5683 O   0  0  0  0  0  0  0  0  0  0  0  0
  1  2  1  0
  2  3  2  0
  4  5  1  0
  4  2  1  0
  5  6  1  6
  7  8  2  0
  7  5  1  0
  9  7  1  0
 10  9  1  0
 10 11  1  6
 11 12  1  0
 12 13  2  0
 12 20  1  0
 13 14  1  0
 14 15  1  0
 15 16  2  0
 16 17  1  0
 18 17  2  0
 19 18  1  0
 20 19  2  0
 20 15  1  0
 21 22  2  0
 21 10  1  0
 23 21  1  0
 24 25  1  1
 24 23  1  0
 25 26  1  0
 27 24  1  0
 28 27  2  0
 29 27  1  0
M  END
$$$$
