MPA.pdb
     RDKit          3D

 21 21  0  0  1  0  0  0  0  0999 V2000
    7.0129  -10.9517   26.5842 C   0  0  0  0  0  0  0  0  0  0  0  0
    6.6019  -12.3280   27.7141 S   0  0  0  0  0  0  0  0  0  0  0  0
    6.0044  -13.7370   26.7651 C   0  0  0  0  0  0  0  0  0  0  0  0
    7.1737  -14.4281   26.0551 C   0  0  0  0  0  0  0  0  0  0  0  0
    6.5965  -15.5771   25.2090 C   0  0  2  0  0  0  0  0  0  0  0  0
    6.0868  -16.5410   26.1135 N   0  0  0  0  0  0  0  0  0  0  0  0
    7.5517  -16.0258   24.2070 C   0  0  0  0  0  0  0  0  0  0  0  0
    8.2913  -17.0121   24.5601 O   0  0  0  0  0  0  0  0  0  0  0  0
    7.7565  -15.5036   22.8985 N   0  0  0  0  0  0  0  0  0  0  0  0
    7.0227  -14.4721   22.2078 C   0  0  0  0  0  0  0  0  0  0  0  0
    8.1526  -13.7174   21.4904 C   0  0  0  0  0  0  0  0  0  0  0  0
    8.8324  -14.9375   20.8431 C   0  0  0  0  0  0  0  0  0  0  0  0
    8.7858  -15.9619   21.9849 C   0  0  1  0  0  0  0  0  0  0  0  0
   10.1376  -15.9758   22.5746 C   0  0  0  0  0  0  0  0  0  0  0  0
   10.5269  -15.0163   23.2659 O   0  0  0  0  0  0  0  0  0  0  0  0
   12.6655  -18.6652   23.1191 C   0  0  0  0  0  0  0  0  0  0  0  0
   12.2905  -17.2083   23.0171 C   0  0  2  0  0  0  0  0  0  0  0  0
   10.9962  -17.0740   22.3594 N   0  0  0  0  0  0  0  0  0  0  0  0
   13.3234  -16.4524   22.3006 C   0  0  0  0  0  0  0  0  0  0  0  0
   14.3879  -16.0750   22.8181 O   0  0  0  0  0  0  0  0  0  0  0  0
   13.1081  -16.1345   20.9638 O   0  0  0  0  0  0  0  0  0  0  0  0
  2  1  1  0
  3  2  1  0
  4  5  1  0
  4  3  1  0
  5  6  1  1
  7  5  1  0
  8  7  2  0
  9 13  1  0
  9  7  1  0
 10  9  1  0
 11 10  1  0
 11 12  1  0
 12 13  1  0
 13 14  1  1
 14 15  2  0
 14 18  1  0
 17 19  1  0
 17 16  1  6
 18 17  1  0
 19 21  1  0
 20 19  2  0
M  END
$$$$
