MPA.pdb
     RDKit          3D

 21 21  0  0  1  0  0  0  0  0999 V2000
    7.3518  -11.8196   28.0971 C   0  0  0  0  0  0  0  0  0  0  0  0
    6.1263  -11.8345   26.7415 S   0  0  0  0  0  0  0  0  0  0  0  0
    5.7579  -13.5337   26.2726 C   0  0  0  0  0  0  0  0  0  0  0  0
    6.9951  -14.1878   25.6478 C   0  0  0  0  0  0  0  0  0  0  0  0
    6.5619  -15.5401   25.0537 C   0  0  2  0  0  0  0  0  0  0  0  0
    6.2132  -16.3773   26.1421 N   0  0  0  0  0  0  0  0  0  0  0  0
    7.5449  -16.0378   24.1031 C   0  0  0  0  0  0  0  0  0  0  0  0
    8.3257  -16.9506   24.5520 O   0  0  0  0  0  0  0  0  0  0  0  0
    7.7367  -15.6342   22.7514 N   0  0  0  0  0  0  0  0  0  0  0  0
    6.9131  -14.7776   21.9345 C   0  0  0  0  0  0  0  0  0  0  0  0
    7.9725  -13.9701   21.1687 C   0  0  0  0  0  0  0  0  0  0  0  0
    8.8163  -15.1592   20.6750 C   0  0  0  0  0  0  0  0  0  0  0  0
    8.8475  -16.0566   21.9196 C   0  0  1  0  0  0  0  0  0  0  0  0
   10.1677  -15.8440   22.5417 C   0  0  0  0  0  0  0  0  0  0  0  0
   10.3365  -14.9059   23.3425 O   0  0  0  0  0  0  0  0  0  0  0  0
   12.3657  -17.4249   24.2625 C   0  0  0  0  0  0  0  0  0  0  0  0
   12.5087  -16.6769   22.9611 C   0  0  2  0  0  0  0  0  0  0  0  0
   11.2452  -16.7006   22.2338 N   0  0  0  0  0  0  0  0  0  0  0  0
   13.5912  -17.2436   22.1495 C   0  0  0  0  0  0  0  0  0  0  0  0
   13.4123  -17.8185   21.0629 O   0  0  0  0  0  0  0  0  0  0  0  0
   14.8976  -17.1362   22.6148 O   0  0  0  0  0  0  0  0  0  0  0  0
  2  1  1  0
  3  2  1  0
  4  5  1  0
  4  3  1  0
  5  6  1  1
  7  5  1  0
  8  7  2  0
  9 13  1  0
  9  7  1  0
 10  9  1  0
 11 10  1  0
 11 12  1  0
 12 13  1  0
 13 14  1  1
 14 15  2  0
 14 18  1  0
 17 19  1  0
 17 16  1  1
 18 17  1  0
 19 21  1  0
 20 19  2  0
M  END
$$$$
