MPA.pdb
     RDKit          3D

 21 21  0  0  1  0  0  0  0  0999 V2000
    6.9565  -11.5618   26.3813 C   0  0  0  0  0  0  0  0  0  0  0  0
    6.1674  -13.2093   26.4346 S   0  0  0  0  0  0  0  0  0  0  0  0
    7.4310  -14.4914   26.3862 C   0  0  0  0  0  0  0  0  0  0  0  0
    6.7851  -15.8735   26.5328 C   0  0  0  0  0  0  0  0  0  0  0  0
    6.3193  -16.3248   25.1369 C   0  0  2  0  0  0  0  0  0  0  0  0
    5.5449  -17.4971   25.3183 N   0  0  0  0  0  0  0  0  0  0  0  0
    7.4336  -16.3860   24.2031 C   0  0  0  0  0  0  0  0  0  0  0  0
    8.2776  -17.3267   24.4203 O   0  0  0  0  0  0  0  0  0  0  0  0
    7.6911  -15.5341   23.0918 N   0  0  0  0  0  0  0  0  0  0  0  0
    6.9599  -14.3722   22.6504 C   0  0  0  0  0  0  0  0  0  0  0  0
    8.0998  -13.4330   22.2268 C   0  0  0  0  0  0  0  0  0  0  0  0
    8.8571  -14.4261   21.3268 C   0  0  0  0  0  0  0  0  0  0  0  0
    8.7846  -15.7154   22.1561 C   0  0  1  0  0  0  0  0  0  0  0  0
   10.1017  -15.8567   22.8046 C   0  0  0  0  0  0  0  0  0  0  0  0
   10.4409  -15.0690   23.7070 O   0  0  0  0  0  0  0  0  0  0  0  0
   12.6532  -18.5685   22.9248 C   0  0  0  0  0  0  0  0  0  0  0  0
   12.2706  -17.1156   23.0518 C   0  0  2  0  0  0  0  0  0  0  0  0
   10.9836  -16.8833   22.4071 N   0  0  0  0  0  0  0  0  0  0  0  0
   13.3074  -16.2507   22.4789 C   0  0  0  0  0  0  0  0  0  0  0  0
   14.3634  -15.9568   23.0637 O   0  0  0  0  0  0  0  0  0  0  0  0
   13.1063  -15.7237   21.2074 O   0  0  0  0  0  0  0  0  0  0  0  0
  2  1  1  0
  3  2  1  0
  4  5  1  0
  4  3  1  0
  5  6  1  1
  7  5  1  0
  8  7  2  0
  9 13  1  0
  9  7  1  0
 10  9  1  0
 11 10  1  0
 11 12  1  0
 12 13  1  0
 13 14  1  1
 14 15  2  0
 14 18  1  0
 17 19  1  0
 17 16  1  6
 18 17  1  0
 19 21  1  0
 20 19  2  0
M  END
$$$$
