MPA.pdb
     RDKit          3D

 21 21  0  0  1  0  0  0  0  0999 V2000
    7.5668  -12.1458   28.2490 C   0  0  0  0  0  0  0  0  0  0  0  0
    6.3807  -11.7996   26.9025 S   0  0  0  0  0  0  0  0  0  0  0  0
    5.8459  -13.3457   26.1499 C   0  0  0  0  0  0  0  0  0  0  0  0
    7.0632  -14.1646   25.7065 C   0  0  0  0  0  0  0  0  0  0  0  0
    6.5465  -15.4697   25.0749 C   0  0  2  0  0  0  0  0  0  0  0  0
    6.1565  -16.3185   26.1400 N   0  0  0  0  0  0  0  0  0  0  0  0
    7.4916  -15.9946   24.1008 C   0  0  0  0  0  0  0  0  0  0  0  0
    8.1707  -17.0101   24.4905 O   0  0  0  0  0  0  0  0  0  0  0  0
    7.7452  -15.5176   22.7835 N   0  0  0  0  0  0  0  0  0  0  0  0
    7.0627  -14.4837   22.0456 C   0  0  0  0  0  0  0  0  0  0  0  0
    8.2338  -13.7869   21.3358 C   0  0  0  0  0  0  0  0  0  0  0  0
    8.8889  -15.0465   20.7408 C   0  0  0  0  0  0  0  0  0  0  0  0
    8.7810  -16.0352   21.9097 C   0  0  1  0  0  0  0  0  0  0  0  0
   10.1168  -16.0752   22.5335 C   0  0  0  0  0  0  0  0  0  0  0  0
   10.5451  -15.0854   23.1555 O   0  0  0  0  0  0  0  0  0  0  0  0
   12.6618  -18.7911   23.0768 C   0  0  0  0  0  0  0  0  0  0  0  0
   12.2299  -17.3467   23.0511 C   0  0  2  0  0  0  0  0  0  0  0  0
   10.9160  -17.2328   22.4294 N   0  0  0  0  0  0  0  0  0  0  0  0
   13.2160  -16.5195   22.3477 C   0  0  0  0  0  0  0  0  0  0  0  0
   14.2487  -16.0751   22.8763 O   0  0  0  0  0  0  0  0  0  0  0  0
   12.9910  -16.2086   21.0107 O   0  0  0  0  0  0  0  0  0  0  0  0
  2  1  1  0
  3  2  1  0
  4  5  1  0
  4  3  1  0
  5  6  1  1
  7  5  1  0
  8  7  2  0
  9 13  1  0
  9  7  1  0
 10  9  1  0
 11 10  1  0
 11 12  1  0
 12 13  1  0
 13 14  1  1
 14 15  2  0
 14 18  1  0
 17 19  1  0
 17 16  1  6
 18 17  1  0
 19 21  1  0
 20 19  2  0
M  END
$$$$
