MPA.pdb
     RDKit          3D

 21 21  0  0  1  0  0  0  0  0999 V2000
    7.9481  -11.9537   28.7037 C   0  0  0  0  0  0  0  0  0  0  0  0
    7.0950  -11.7723   27.0978 S   0  0  0  0  0  0  0  0  0  0  0  0
    6.4387  -13.3653   26.5738 C   0  0  0  0  0  0  0  0  0  0  0  0
    7.4895  -14.1250   25.7566 C   0  0  0  0  0  0  0  0  0  0  0  0
    6.8330  -15.4136   25.2295 C   0  0  2  0  0  0  0  0  0  0  0  0
    6.5045  -16.2025   26.3594 N   0  0  0  0  0  0  0  0  0  0  0  0
    7.6394  -16.0274   24.1852 C   0  0  0  0  0  0  0  0  0  0  0  0
    8.2938  -17.0707   24.5423 O   0  0  0  0  0  0  0  0  0  0  0  0
    7.7832  -15.6091   22.8319 N   0  0  0  0  0  0  0  0  0  0  0  0
    7.0134  -14.6370   22.0957 C   0  0  0  0  0  0  0  0  0  0  0  0
    8.1059  -13.9382   21.2718 C   0  0  0  0  0  0  0  0  0  0  0  0
    8.7640  -15.2037   20.6927 C   0  0  0  0  0  0  0  0  0  0  0  0
    8.7740  -16.1352   21.9123 C   0  0  1  0  0  0  0  0  0  0  0  0
   10.1506  -16.0991   22.4407 C   0  0  0  0  0  0  0  0  0  0  0  0
   10.6103  -15.0431   22.9132 O   0  0  0  0  0  0  0  0  0  0  0  0
   12.7435  -18.7421   23.1137 C   0  0  0  0  0  0  0  0  0  0  0  0
   12.2918  -17.3090   22.9898 C   0  0  2  0  0  0  0  0  0  0  0  0
   10.9532  -17.2587   22.4138 N   0  0  0  0  0  0  0  0  0  0  0  0
   13.2386  -16.5310   22.1837 C   0  0  0  0  0  0  0  0  0  0  0  0
   14.3196  -16.0965   22.6149 O   0  0  0  0  0  0  0  0  0  0  0  0
   12.9168  -16.2584   20.8583 O   0  0  0  0  0  0  0  0  0  0  0  0
  2  1  1  0
  3  2  1  0
  4  5  1  0
  4  3  1  0
  5  6  1  1
  7  5  1  0
  8  7  2  0
  9 13  1  0
  9  7  1  0
 10  9  1  0
 11 10  1  0
 11 12  1  0
 12 13  1  0
 13 14  1  1
 14 15  2  0
 14 18  1  0
 17 19  1  0
 17 16  1  6
 18 17  1  0
 19 21  1  0
 20 19  2  0
M  END
$$$$
