MPA.pdb
     RDKit          3D

 21 21  0  0  1  0  0  0  0  0999 V2000
    8.2587  -11.8560   27.0599 C   0  0  0  0  0  0  0  0  0  0  0  0
    6.4544  -12.0830   27.2411 S   0  0  0  0  0  0  0  0  0  0  0  0
    5.9611  -13.6508   26.5052 C   0  0  0  0  0  0  0  0  0  0  0  0
    7.1566  -14.3013   25.8006 C   0  0  0  0  0  0  0  0  0  0  0  0
    6.6583  -15.5909   25.1239 C   0  0  2  0  0  0  0  0  0  0  0  0
    6.3044  -16.4910   26.1591 N   0  0  0  0  0  0  0  0  0  0  0  0
    7.5984  -16.0541   24.1144 C   0  0  0  0  0  0  0  0  0  0  0  0
    8.3034  -17.0713   24.4501 O   0  0  0  0  0  0  0  0  0  0  0  0
    7.8222  -15.5161   22.8154 N   0  0  0  0  0  0  0  0  0  0  0  0
    7.1061  -14.4679   22.1314 C   0  0  0  0  0  0  0  0  0  0  0  0
    8.2509  -13.7149   21.4364 C   0  0  0  0  0  0  0  0  0  0  0  0
    8.9254  -14.9327   20.7794 C   0  0  0  0  0  0  0  0  0  0  0  0
    8.8567  -15.9721   21.9064 C   0  0  1  0  0  0  0  0  0  0  0  0
   10.2019  -16.0076   22.5100 C   0  0  0  0  0  0  0  0  0  0  0  0
   10.5719  -15.0891   23.2646 O   0  0  0  0  0  0  0  0  0  0  0  0
   12.7796  -18.6667   22.9272 C   0  0  0  0  0  0  0  0  0  0  0  0
   12.3873  -17.2124   22.8603 C   0  0  2  0  0  0  0  0  0  0  0  0
   11.0760  -17.0804   22.2365 N   0  0  0  0  0  0  0  0  0  0  0  0
   13.3945  -16.4329   22.1328 C   0  0  0  0  0  0  0  0  0  0  0  0
   13.2656  -16.0667   20.9527 O   0  0  0  0  0  0  0  0  0  0  0  0
   14.5659  -16.0781   22.7937 O   0  0  0  0  0  0  0  0  0  0  0  0
  2  1  1  0
  3  2  1  0
  4  5  1  0
  4  3  1  0
  5  6  1  1
  7  5  1  0
  8  7  2  0
  9 13  1  0
  9  7  1  0
 10  9  1  0
 11 10  1  0
 11 12  1  0
 12 13  1  0
 13 14  1  1
 14 15  2  0
 14 18  1  0
 17 19  1  0
 17 16  1  6
 18 17  1  0
 19 21  1  0
 20 19  2  0
M  END
$$$$
