MPA.pdb
     RDKit          3D

 21 21  0  0  1  0  0  0  0  0999 V2000
    6.6135  -11.6436   26.3875 C   0  0  0  0  0  0  0  0  0  0  0  0
    7.5587  -12.7862   27.4556 S   0  0  0  0  0  0  0  0  0  0  0  0
    7.5622  -14.4346   26.7306 C   0  0  0  0  0  0  0  0  0  0  0  0
    6.4705  -14.5418   25.6603 C   0  0  0  0  0  0  0  0  0  0  0  0
    6.3916  -16.0132   25.2155 C   0  0  2  0  0  0  0  0  0  0  0  0
    6.4168  -16.8027   26.3915 N   0  0  0  0  0  0  0  0  0  0  0  0
    7.3732  -16.3052   24.1817 C   0  0  0  0  0  0  0  0  0  0  0  0
    8.1305  -17.3131   24.4162 O   0  0  0  0  0  0  0  0  0  0  0  0
    7.5865  -15.6108   22.9571 N   0  0  0  0  0  0  0  0  0  0  0  0
    6.8176  -14.5381   22.3763 C   0  0  0  0  0  0  0  0  0  0  0  0
    7.9246  -13.6422   21.7996 C   0  0  0  0  0  0  0  0  0  0  0  0
    8.6881  -14.7340   21.0284 C   0  0  0  0  0  0  0  0  0  0  0  0
    8.6649  -15.8966   22.0300 C   0  0  1  0  0  0  0  0  0  0  0  0
    9.9981  -15.9173   22.6604 C   0  0  0  0  0  0  0  0  0  0  0  0
   10.3149  -15.0350   23.4796 O   0  0  0  0  0  0  0  0  0  0  0  0
   12.6359  -18.4768   23.0986 C   0  0  0  0  0  0  0  0  0  0  0  0
   12.2405  -17.0292   22.9520 C   0  0  2  0  0  0  0  0  0  0  0  0
   10.9207  -16.9349   22.3396 N   0  0  0  0  0  0  0  0  0  0  0  0
   13.2366  -16.2930   22.1664 C   0  0  0  0  0  0  0  0  0  0  0  0
   14.3692  -16.0011   22.5852 O   0  0  0  0  0  0  0  0  0  0  0  0
   12.9036  -15.8938   20.8763 O   0  0  0  0  0  0  0  0  0  0  0  0
  2  1  1  0
  3  2  1  0
  4  5  1  0
  4  3  1  0
  5  6  1  1
  7  5  1  0
  8  7  2  0
  9 13  1  0
  9  7  1  0
 10  9  1  0
 11 10  1  0
 11 12  1  0
 12 13  1  0
 13 14  1  1
 14 15  2  0
 14 18  1  0
 17 19  1  0
 17 16  1  6
 18 17  1  0
 19 21  1  0
 20 19  2  0
M  END
$$$$
