MPA.pdb
     RDKit          3D

 21 21  0  0  1  0  0  0  0  0999 V2000
    8.2246  -12.0515   27.5237 C   0  0  0  0  0  0  0  0  0  0  0  0
    6.6620  -12.3401   26.6212 S   0  0  0  0  0  0  0  0  0  0  0  0
    6.2616  -14.0957   26.6431 C   0  0  0  0  0  0  0  0  0  0  0  0
    7.3911  -14.9018   25.9924 C   0  0  0  0  0  0  0  0  0  0  0  0
    6.7466  -15.9971   25.1241 C   0  0  2  0  0  0  0  0  0  0  0  0
    6.4646  -17.0906   25.9796 N   0  0  0  0  0  0  0  0  0  0  0  0
    7.5366  -16.2566   23.9299 C   0  0  0  0  0  0  0  0  0  0  0  0
    8.2274  -17.3366   23.9556 O   0  0  0  0  0  0  0  0  0  0  0  0
    7.6293  -15.4610   22.7528 N   0  0  0  0  0  0  0  0  0  0  0  0
    6.9234  -14.2488   22.4188 C   0  0  0  0  0  0  0  0  0  0  0  0
    8.0259  -13.4294   21.7305 C   0  0  0  0  0  0  0  0  0  0  0  0
    8.4940  -14.5108   20.7399 C   0  0  0  0  0  0  0  0  0  0  0  0
    8.4862  -15.7660   21.6228 C   0  0  1  0  0  0  0  0  0  0  0  0
    9.8923  -16.0107   21.9947 C   0  0  0  0  0  0  0  0  0  0  0  0
   10.7051  -16.4045   21.1379 O   0  0  0  0  0  0  0  0  0  0  0  0
   11.9265  -15.2869   25.0714 C   0  0  0  0  0  0  0  0  0  0  0  0
   11.7139  -15.9517   23.7349 C   0  0  2  0  0  0  0  0  0  0  0  0
   10.3241  -15.8004   23.3210 N   0  0  0  0  0  0  0  0  0  0  0  0
   12.0932  -17.3675   23.7898 C   0  0  0  0  0  0  0  0  0  0  0  0
   13.2569  -17.7652   23.9661 O   0  0  0  0  0  0  0  0  0  0  0  0
   11.0996  -18.3288   23.6367 O   0  0  0  0  0  0  0  0  0  0  0  0
  2  1  1  0
  3  2  1  0
  4  5  1  0
  4  3  1  0
  5  6  1  1
  7  5  1  0
  8  7  2  0
  9 13  1  0
  9  7  1  0
 10  9  1  0
 11 10  1  0
 11 12  1  0
 12 13  1  0
 13 14  1  1
 14 15  2  0
 14 18  1  0
 17 19  1  0
 17 16  1  1
 18 17  1  0
 19 21  1  0
 20 19  2  0
M  END
$$$$
