MPA.pdb
     RDKit          3D

 21 21  0  0  1  0  0  0  0  0999 V2000
    7.3689  -10.8769   26.4798 C   0  0  0  0  0  0  0  0  0  0  0  0
    6.8337  -12.2091   27.6106 S   0  0  0  0  0  0  0  0  0  0  0  0
    6.1003  -13.5536   26.6634 C   0  0  0  0  0  0  0  0  0  0  0  0
    7.1908  -14.3238   25.9107 C   0  0  0  0  0  0  0  0  0  0  0  0
    6.5031  -15.4275   25.0873 C   0  0  2  0  0  0  0  0  0  0  0  0
    5.9580  -16.3534   26.0106 N   0  0  0  0  0  0  0  0  0  0  0  0
    7.3874  -15.9424   24.0526 C   0  0  0  0  0  0  0  0  0  0  0  0
    7.9491  -17.0632   24.3219 O   0  0  0  0  0  0  0  0  0  0  0  0
    7.6962  -15.3536   22.7936 N   0  0  0  0  0  0  0  0  0  0  0  0
    7.0685  -14.2337   22.1371 C   0  0  0  0  0  0  0  0  0  0  0  0
    8.2816  -13.5129   21.5292 C   0  0  0  0  0  0  0  0  0  0  0  0
    8.9165  -14.7326   20.8372 C   0  0  0  0  0  0  0  0  0  0  0  0
    8.7425  -15.8215   21.9046 C   0  0  1  0  0  0  0  0  0  0  0  0
   10.0565  -15.9633   22.5593 C   0  0  0  0  0  0  0  0  0  0  0  0
   10.4683  -15.0773   23.3309 O   0  0  0  0  0  0  0  0  0  0  0  0
   12.5853  -18.7409   22.7717 C   0  0  0  0  0  0  0  0  0  0  0  0
   12.1544  -17.3060   22.9413 C   0  0  2  0  0  0  0  0  0  0  0  0
   10.8534  -17.1014   22.3157 N   0  0  0  0  0  0  0  0  0  0  0  0
   13.1548  -16.3909   22.3817 C   0  0  0  0  0  0  0  0  0  0  0  0
   13.0737  -15.8868   21.2491 O   0  0  0  0  0  0  0  0  0  0  0  0
   14.2624  -16.0621   23.1560 O   0  0  0  0  0  0  0  0  0  0  0  0
  2  1  1  0
  3  2  1  0
  4  5  1  0
  4  3  1  0
  5  6  1  1
  7  5  1  0
  8  7  2  0
  9 13  1  0
  9  7  1  0
 10  9  1  0
 11 10  1  0
 11 12  1  0
 12 13  1  0
 13 14  1  1
 14 15  2  0
 14 18  1  0
 17 19  1  0
 17 16  1  6
 18 17  1  0
 19 21  1  0
 20 19  2  0
M  END
$$$$
