WHH.pdb
     RDKit          3D

 35 38  0  0  1  0  0  0  0  0999 V2000
   20.9614  -30.3799   -8.1667 N   0  0  0  0  0  0  0  0  0  0  0  0
   21.6259  -30.7271   -9.3899 C   0  0  1  0  0  0  0  0  0  0  0  0
   21.8464  -32.2128   -9.4428 C   0  0  0  0  0  0  0  0  0  0  0  0
   22.9483  -32.6038   -8.5377 C   0  0  0  0  0  0  0  0  0  0  0  0
   22.7579  -33.1416   -7.2569 C   0  0  0  0  0  0  0  0  0  0  0  0
   23.9525  -33.4166   -6.7134 N   0  0  0  0  0  0  0  0  0  0  0  0
   24.8994  -33.0726   -7.6024 C   0  0  0  0  0  0  0  0  0  0  0  0
   26.2870  -33.1524   -7.5156 C   0  0  0  0  0  0  0  0  0  0  0  0
   27.0497  -32.7139   -8.5896 C   0  0  0  0  0  0  0  0  0  0  0  0
   26.4828  -32.2099   -9.7206 C   0  0  0  0  0  0  0  0  0  0  0  0
   25.1020  -32.1438   -9.7764 C   0  0  0  0  0  0  0  0  0  0  0  0
   24.3075  -32.5665   -8.7397 C   0  0  0  0  0  0  0  0  0  0  0  0
   20.7920  -30.3398  -10.5756 C   0  0  0  0  0  0  0  0  0  0  0  0
   19.6045  -30.7297  -10.7158 O   0  0  0  0  0  0  0  0  0  0  0  0
   21.3282  -29.5053  -11.5953 N   0  0  0  0  0  0  0  0  0  0  0  0
   20.5958  -29.1908  -12.7828 C   0  0  1  0  0  0  0  0  0  0  0  0
   20.8541  -27.7172  -13.1104 C   0  0  0  0  0  0  0  0  0  0  0  0
   20.0546  -26.8162  -12.2290 C   0  0  0  0  0  0  0  0  0  0  0  0
   19.1842  -27.1966  -11.2381 C   0  0  0  0  0  0  0  0  0  0  0  0
   18.6866  -26.0713  -10.7024 N   0  0  0  0  0  0  0  0  0  0  0  0
   19.2072  -24.9996  -11.3145 C   0  0  0  0  0  0  0  0  0  0  0  0
   20.0466  -25.4676  -12.2511 N   0  0  0  0  0  0  0  0  0  0  0  0
   20.9746  -30.0112  -13.9572 C   0  0  0  0  0  0  0  0  0  0  0  0
   22.1934  -30.3167  -14.1666 O   0  0  0  0  0  0  0  0  0  0  0  0
   20.0366  -30.4994  -14.8984 N   0  0  0  0  0  0  0  0  0  0  0  0
   20.4057  -31.3887  -16.0128 C   0  0  1  0  0  0  0  0  0  0  0  0
   20.8162  -32.7350  -15.4619 C   0  0  0  0  0  0  0  0  0  0  0  0
   22.2745  -32.8266  -15.3709 C   0  0  0  0  0  0  0  0  0  0  0  0
   23.1409  -31.9851  -16.0876 C   0  0  0  0  0  0  0  0  0  0  0  0
   24.4053  -32.3091  -15.7974 N   0  0  0  0  0  0  0  0  0  0  0  0
   24.3902  -33.3130  -14.9334 C   0  0  0  0  0  0  0  0  0  0  0  0
   23.1066  -33.6146  -14.6852 N   0  0  0  0  0  0  0  0  0  0  0  0
   19.1686  -31.5637  -16.7898 C   0  0  0  0  0  0  0  0  0  0  0  0
   18.1206  -30.9691  -16.4958 O   0  0  0  0  0  0  0  0  0  0  0  0
   19.1358  -32.4044  -17.8834 O   0  0  0  0  0  0  0  0  0  0  0  0
  2  1  1  1
  3  2  1  0
  4  3  1  0
  5  4  2  0
  6  7  1  0
  6  5  1  0
  7 12  2  0
  8  7  1  0
  8  9  2  0
  9 10  1  0
 10 11  2  0
 12  4  1  0
 12 11  1  0
 13  2  1  0
 13 14  2  0
 15 13  1  0
 16 17  1  6
 16 15  1  0
 18 22  1  0
 18 17  1  0
 19 18  2  0
 20 19  1  0
 20 21  1  0
 21 22  2  0
 23 16  1  0
 24 23  2  0
 25 23  1  0
 26 27  1  1
 26 25  1  0
 27 28  1  0
 28 29  2  0
 29 30  1  0
 31 30  1  0
 32 28  1  0
 32 31  2  0
 33 35  1  0
 33 26  1  0
 34 33  2  0
M  END
$$$$
