WHH.pdb
     RDKit          3D

 35 38  0  0  1  0  0  0  0  0999 V2000
   26.9932  -22.2306  -13.8202 N   0  0  0  0  0  0  0  0  0  0  0  0
   25.9644  -21.5434  -13.0938 C   0  0  1  0  0  0  0  0  0  0  0  0
   26.4773  -20.2095  -12.6285 C   0  0  0  0  0  0  0  0  0  0  0  0
   27.4139  -20.3823  -11.4976 C   0  0  0  0  0  0  0  0  0  0  0  0
   28.8099  -20.3353  -11.6210 C   0  0  0  0  0  0  0  0  0  0  0  0
   29.3640  -20.4955  -10.4105 N   0  0  0  0  0  0  0  0  0  0  0  0
   28.3705  -20.6437   -9.5182 C   0  0  0  0  0  0  0  0  0  0  0  0
   28.4202  -20.8457   -8.1412 C   0  0  0  0  0  0  0  0  0  0  0  0
   27.2281  -20.9791   -7.4423 C   0  0  0  0  0  0  0  0  0  0  0  0
   26.0166  -20.9187   -8.0614 C   0  0  0  0  0  0  0  0  0  0  0  0
   26.0006  -20.7169   -9.4301 C   0  0  0  0  0  0  0  0  0  0  0  0
   27.1535  -20.5786  -10.1622 C   0  0  0  0  0  0  0  0  0  0  0  0
   24.7688  -21.3012  -13.9673 C   0  0  0  0  0  0  0  0  0  0  0  0
   24.8722  -21.1039  -15.2051 O   0  0  0  0  0  0  0  0  0  0  0  0
   23.4589  -21.2871  -13.4127 N   0  0  0  0  0  0  0  0  0  0  0  0
   22.2949  -21.0851  -14.2187 C   0  0  1  0  0  0  0  0  0  0  0  0
   21.0861  -21.5829  -13.4207 C   0  0  0  0  0  0  0  0  0  0  0  0
   19.8411  -21.5506  -14.2433 C   0  0  0  0  0  0  0  0  0  0  0  0
   19.4014  -22.5226  -15.1071 C   0  0  0  0  0  0  0  0  0  0  0  0
   18.2467  -22.0848  -15.6322 N   0  0  0  0  0  0  0  0  0  0  0  0
   17.9417  -20.8789  -15.1353 C   0  0  0  0  0  0  0  0  0  0  0  0
   18.9275  -20.5591  -14.2827 N   0  0  0  0  0  0  0  0  0  0  0  0
   22.0638  -19.6711  -14.5967 C   0  0  0  0  0  0  0  0  0  0  0  0
   22.5438  -18.7261  -13.8901 O   0  0  0  0  0  0  0  0  0  0  0  0
   21.3183  -19.2838  -15.7361 N   0  0  0  0  0  0  0  0  0  0  0  0
   21.1510  -17.8795  -16.1471 C   0  0  1  0  0  0  0  0  0  0  0  0
   21.5235  -16.9747  -14.9952 C   0  0  0  0  0  0  0  0  0  0  0  0
   20.3463  -16.6783  -14.1769 C   0  0  0  0  0  0  0  0  0  0  0  0
   20.0626  -17.3446  -12.9736 C   0  0  0  0  0  0  0  0  0  0  0  0
   18.9286  -16.8568  -12.4599 N   0  0  0  0  0  0  0  0  0  0  0  0
   18.4746  -15.9145  -13.2727 C   0  0  0  0  0  0  0  0  0  0  0  0
   19.3334  -15.8165  -14.2988 N   0  0  0  0  0  0  0  0  0  0  0  0
   22.1271  -17.6777  -17.2293 C   0  0  0  0  0  0  0  0  0  0  0  0
   22.2743  -16.5772  -17.7820 O   0  0  0  0  0  0  0  0  0  0  0  0
   22.9193  -18.7189  -17.6675 O   0  0  0  0  0  0  0  0  0  0  0  0
  2  1  1  6
  3  2  1  0
  4  3  1  0
  5  4  2  0
  6  7  1  0
  6  5  1  0
  7 12  2  0
  8  7  1  0
  8  9  2  0
  9 10  1  0
 10 11  2  0
 12  4  1  0
 12 11  1  0
 13  2  1  0
 13 14  2  0
 15 13  1  0
 16 17  1  1
 16 15  1  0
 18 22  1  0
 18 17  1  0
 19 18  2  0
 20 19  1  0
 20 21  1  0
 21 22  2  0
 23 16  1  0
 24 23  2  0
 25 23  1  0
 26 27  1  1
 26 25  1  0
 27 28  1  0
 28 29  2  0
 29 30  1  0
 31 30  1  0
 32 28  1  0
 32 31  2  0
 33 35  1  0
 33 26  1  0
 34 33  2  0
M  END
$$$$
