WHH.pdb
     RDKit          3D

 35 38  0  0  1  0  0  0  0  0999 V2000
   19.3180  -12.1385  -15.3884 N   0  0  0  0  0  0  0  0  0  0  0  0
   19.4242  -10.9129  -16.1266 C   0  0  1  0  0  0  0  0  0  0  0  0
   18.0590  -10.3121  -16.3104 C   0  0  0  0  0  0  0  0  0  0  0  0
   17.3339  -11.0012  -17.3992 C   0  0  0  0  0  0  0  0  0  0  0  0
   17.1648  -12.3912  -17.4721 C   0  0  0  0  0  0  0  0  0  0  0  0
   16.4377  -12.6894  -18.5586 N   0  0  0  0  0  0  0  0  0  0  0  0
   16.1369  -11.5381  -19.1826 C   0  0  0  0  0  0  0  0  0  0  0  0
   15.4128  -11.3097  -20.3500 C   0  0  0  0  0  0  0  0  0  0  0  0
   15.2529  -10.0033  -20.7919 C   0  0  0  0  0  0  0  0  0  0  0  0
   15.7817   -8.9433  -20.1201 C   0  0  0  0  0  0  0  0  0  0  0  0
   16.4957   -9.2030  -18.9638 C   0  0  0  0  0  0  0  0  0  0  0  0
   16.6786  -10.4776  -18.4883 C   0  0  0  0  0  0  0  0  0  0  0  0
   20.2720   -9.9198  -15.3876 C   0  0  0  0  0  0  0  0  0  0  0  0
   20.1260   -9.6973  -14.1584 O   0  0  0  0  0  0  0  0  0  0  0  0
   21.2846   -9.1865  -16.0664 N   0  0  0  0  0  0  0  0  0  0  0  0
   21.9995   -8.1188  -15.4385 C   0  0  1  0  0  0  0  0  0  0  0  0
   23.4236   -8.1196  -16.0022 C   0  0  0  0  0  0  0  0  0  0  0  0
   24.1876   -9.3183  -15.5469 C   0  0  0  0  0  0  0  0  0  0  0  0
   23.7366  -10.3135  -14.7161 C   0  0  0  0  0  0  0  0  0  0  0  0
   24.7442  -11.1881  -14.5719 N   0  0  0  0  0  0  0  0  0  0  0  0
   25.8094  -10.7850  -15.2767 C   0  0  0  0  0  0  0  0  0  0  0  0
   25.4576   -9.6351  -15.8724 N   0  0  0  0  0  0  0  0  0  0  0  0
   21.4014   -6.7817  -15.6629 C   0  0  0  0  0  0  0  0  0  0  0  0
   21.9709   -5.7349  -15.2129 O   0  0  0  0  0  0  0  0  0  0  0  0
   20.1936   -6.5807  -16.3732 N   0  0  0  0  0  0  0  0  0  0  0  0
   19.5671   -5.2575  -16.5339 C   0  0  1  0  0  0  0  0  0  0  0  0
   18.7026   -5.2620  -17.7737 C   0  0  0  0  0  0  0  0  0  0  0  0
   19.5199   -5.0367  -18.9672 C   0  0  0  0  0  0  0  0  0  0  0  0
   20.9056   -4.8136  -18.9155 C   0  0  0  0  0  0  0  0  0  0  0  0
   21.3682   -4.6434  -20.1585 N   0  0  0  0  0  0  0  0  0  0  0  0
   20.3501   -4.7463  -20.9996 C   0  0  0  0  0  0  0  0  0  0  0  0
   19.2470   -4.9822  -20.2734 N   0  0  0  0  0  0  0  0  0  0  0  0
   18.6933   -5.1018  -15.3604 C   0  0  0  0  0  0  0  0  0  0  0  0
   18.0922   -4.0424  -15.1271 O   0  0  0  0  0  0  0  0  0  0  0  0
   18.5128   -6.1426  -14.4728 O   0  0  0  0  0  0  0  0  0  0  0  0
  2  1  1  1
  3  2  1  0
  4  3  1  0
  5  4  2  0
  6  7  1  0
  6  5  1  0
  7 12  2  0
  8  7  1  0
  8  9  2  0
  9 10  1  0
 10 11  2  0
 12  4  1  0
 12 11  1  0
 13  2  1  0
 13 14  2  0
 15 13  1  0
 16 17  1  6
 16 15  1  0
 18 22  1  0
 18 17  1  0
 19 18  2  0
 20 19  1  0
 20 21  1  0
 21 22  2  0
 23 16  1  0
 24 23  2  0
 25 23  1  0
 26 27  1  6
 26 25  1  0
 27 28  1  0
 28 29  2  0
 29 30  1  0
 31 30  1  0
 32 28  1  0
 32 31  2  0
 33 35  1  0
 33 26  1  0
 34 33  2  0
M  END
$$$$
