WHH.pdb
     RDKit          3D

 35 38  0  0  1  0  0  0  0  0999 V2000
   28.6264  -21.3910  -10.6695 N   0  0  0  0  0  0  0  0  0  0  0  0
   27.2215  -21.2333  -10.4251 C   0  0  1  0  0  0  0  0  0  0  0  0
   27.0083  -20.2431   -9.3148 C   0  0  0  0  0  0  0  0  0  0  0  0
   28.1017  -20.3352   -8.3238 C   0  0  0  0  0  0  0  0  0  0  0  0
   29.4246  -20.6719   -8.6442 C   0  0  0  0  0  0  0  0  0  0  0  0
   30.1698  -20.6358   -7.5301 N   0  0  0  0  0  0  0  0  0  0  0  0
   29.3687  -20.2882   -6.5089 C   0  0  0  0  0  0  0  0  0  0  0  0
   29.6558  -20.1210   -5.1564 C   0  0  0  0  0  0  0  0  0  0  0  0
   28.6279  -19.7619   -4.2950 C   0  0  0  0  0  0  0  0  0  0  0  0
   27.3526  -19.5694   -4.7321 C   0  0  0  0  0  0  0  0  0  0  0  0
   27.0995  -19.7429   -6.0812 C   0  0  0  0  0  0  0  0  0  0  0  0
   28.0840  -20.0966   -6.9701 C   0  0  0  0  0  0  0  0  0  0  0  0
   26.5245  -20.7152  -11.6485 C   0  0  0  0  0  0  0  0  0  0  0  0
   26.9198  -19.6906  -12.2616 O   0  0  0  0  0  0  0  0  0  0  0  0
   25.3752  -21.3782  -12.1616 N   0  0  0  0  0  0  0  0  0  0  0  0
   24.7815  -21.0128  -13.4103 C   0  0  1  0  0  0  0  0  0  0  0  0
   24.7856  -22.2545  -14.3068 C   0  0  0  0  0  0  0  0  0  0  0  0
   26.1129  -22.4478  -14.9616 C   0  0  0  0  0  0  0  0  0  0  0  0
   26.9236  -21.4691  -15.4805 C   0  0  0  0  0  0  0  0  0  0  0  0
   28.0128  -22.0826  -15.9684 N   0  0  0  0  0  0  0  0  0  0  0  0
   27.9213  -23.4053  -15.7785 C   0  0  0  0  0  0  0  0  0  0  0  0
   26.7503  -23.6199  -15.1591 N   0  0  0  0  0  0  0  0  0  0  0  0
   23.3898  -20.5179  -13.2919 C   0  0  0  0  0  0  0  0  0  0  0  0
   22.7218  -20.2115  -14.3323 O   0  0  0  0  0  0  0  0  0  0  0  0
   22.7254  -20.3582  -12.0522 N   0  0  0  0  0  0  0  0  0  0  0  0
   21.3700  -19.7941  -11.9342 C   0  0  1  0  0  0  0  0  0  0  0  0
   21.2689  -18.5546  -12.7932 C   0  0  0  0  0  0  0  0  0  0  0  0
   19.8904  -18.0624  -12.8197 C   0  0  0  0  0  0  0  0  0  0  0  0
   18.8519  -18.6534  -12.0817 C   0  0  0  0  0  0  0  0  0  0  0  0
   17.7168  -17.9846  -12.3103 N   0  0  0  0  0  0  0  0  0  0  0  0
   17.9775  -16.9983  -13.1553 C   0  0  0  0  0  0  0  0  0  0  0  0
   19.2843  -17.0551  -13.4535 N   0  0  0  0  0  0  0  0  0  0  0  0
   20.4772  -20.8205  -12.4949 C   0  0  0  0  0  0  0  0  0  0  0  0
   20.7850  -21.4780  -13.5005 O   0  0  0  0  0  0  0  0  0  0  0  0
   19.2555  -21.0871  -11.9117 O   0  0  0  0  0  0  0  0  0  0  0  0
  2  1  1  6
  3  2  1  0
  4  3  1  0
  5  4  2  0
  6  7  1  0
  6  5  1  0
  7 12  2  0
  8  7  1  0
  8  9  2  0
  9 10  1  0
 10 11  2  0
 12  4  1  0
 12 11  1  0
 13  2  1  0
 13 14  2  0
 15 13  1  0
 16 17  1  6
 16 15  1  0
 18 22  1  0
 18 17  1  0
 19 18  2  0
 20 19  1  0
 20 21  1  0
 21 22  2  0
 23 16  1  0
 24 23  2  0
 25 23  1  0
 26 27  1  6
 26 25  1  0
 27 28  1  0
 28 29  2  0
 29 30  1  0
 31 30  1  0
 32 28  1  0
 32 31  2  0
 33 35  1  0
 33 26  1  0
 34 33  2  0
M  END
$$$$
