WHH.pdb
     RDKit          3D

 35 38  0  0  1  0  0  0  0  0999 V2000
   25.5855  -11.6657  -20.6550 N   0  0  0  0  0  0  0  0  0  0  0  0
   24.1778  -11.3903  -20.6275 C   0  0  1  0  0  0  0  0  0  0  0  0
   23.4555  -12.5116  -19.9349 C   0  0  0  0  0  0  0  0  0  0  0  0
   23.4070  -13.7081  -20.8020 C   0  0  0  0  0  0  0  0  0  0  0  0
   24.1226  -14.8878  -20.5518 C   0  0  0  0  0  0  0  0  0  0  0  0
   23.8356  -15.7867  -21.5045 N   0  0  0  0  0  0  0  0  0  0  0  0
   22.9619  -15.2221  -22.3549 C   0  0  0  0  0  0  0  0  0  0  0  0
   22.3661  -15.7341  -23.5048 C   0  0  0  0  0  0  0  0  0  0  0  0
   21.4920  -14.9269  -24.2202 C   0  0  0  0  0  0  0  0  0  0  0  0
   21.2016  -13.6543  -23.8320 C   0  0  0  0  0  0  0  0  0  0  0  0
   21.8093  -13.1746  -22.6854 C   0  0  0  0  0  0  0  0  0  0  0  0
   22.6792  -13.9365  -21.9457 C   0  0  0  0  0  0  0  0  0  0  0  0
   23.8992  -10.1236  -19.8732 C   0  0  0  0  0  0  0  0  0  0  0  0
   24.5705   -9.7819  -18.8661 O   0  0  0  0  0  0  0  0  0  0  0  0
   22.8488   -9.2551  -20.2810 N   0  0  0  0  0  0  0  0  0  0  0  0
   22.5240   -8.0645  -19.5585 C   0  0  1  0  0  0  0  0  0  0  0  0
   22.0551   -7.0188  -20.5745 C   0  0  0  0  0  0  0  0  0  0  0  0
   23.2120   -6.3362  -21.2252 C   0  0  0  0  0  0  0  0  0  0  0  0
   24.5409   -6.5075  -20.9272 C   0  0  0  0  0  0  0  0  0  0  0  0
   25.2322   -5.7034  -21.7497 N   0  0  0  0  0  0  0  0  0  0  0  0
   24.3944   -5.0339  -22.5521 C   0  0  0  0  0  0  0  0  0  0  0  0
   23.1552   -5.4295  -22.2222 N   0  0  0  0  0  0  0  0  0  0  0  0
   21.4607   -8.2492  -18.5430 C   0  0  0  0  0  0  0  0  0  0  0  0
   20.5370   -9.1077  -18.7227 O   0  0  0  0  0  0  0  0  0  0  0  0
   21.4006   -7.5084  -17.3382 N   0  0  0  0  0  0  0  0  0  0  0  0
   20.3560   -7.7136  -16.3205 C   0  0  1  0  0  0  0  0  0  0  0  0
   20.4705   -9.1140  -15.7633 C   0  0  0  0  0  0  0  0  0  0  0  0
   19.4801   -9.3258  -14.7063 C   0  0  0  0  0  0  0  0  0  0  0  0
   18.6272   -8.3114  -14.2414 C   0  0  0  0  0  0  0  0  0  0  0  0
   17.8402   -8.8072  -13.2808 N   0  0  0  0  0  0  0  0  0  0  0  0
   18.1468  -10.0843  -13.1090 C   0  0  0  0  0  0  0  0  0  0  0  0
   19.1316  -10.3838  -13.9695 N   0  0  0  0  0  0  0  0  0  0  0  0
   20.6743   -6.7600  -15.2462 C   0  0  0  0  0  0  0  0  0  0  0  0
   21.6736   -6.0271  -15.2957 O   0  0  0  0  0  0  0  0  0  0  0  0
   19.8606   -6.6497  -14.1374 O   0  0  0  0  0  0  0  0  0  0  0  0
  2  1  1  1
  3  2  1  0
  4  3  1  0
  5  4  2  0
  6  7  1  0
  6  5  1  0
  7 12  2  0
  8  7  1  0
  8  9  2  0
  9 10  1  0
 10 11  2  0
 12  4  1  0
 12 11  1  0
 13  2  1  0
 13 14  2  0
 15 13  1  0
 16 17  1  6
 16 15  1  0
 18 22  1  0
 18 17  1  0
 19 18  2  0
 20 19  1  0
 20 21  1  0
 21 22  2  0
 23 16  1  0
 24 23  2  0
 25 23  1  0
 26 27  1  1
 26 25  1  0
 27 28  1  0
 28 29  2  0
 29 30  1  0
 31 30  1  0
 32 28  1  0
 32 31  2  0
 33 35  1  0
 33 26  1  0
 34 33  2  0
M  END
$$$$
