WHH.pdb
     RDKit          3D

 35 38  0  0  1  0  0  0  0  0999 V2000
   15.4960  -14.6702    5.0555 N   0  0  0  0  0  0  0  0  0  0  0  0
   16.7200  -15.2695    5.5038 C   0  0  1  0  0  0  0  0  0  0  0  0
   17.3302  -14.4257    6.5875 C   0  0  0  0  0  0  0  0  0  0  0  0
   18.2532  -13.4275    6.0066 C   0  0  0  0  0  0  0  0  0  0  0  0
   17.9236  -12.5838    4.9362 C   0  0  0  0  0  0  0  0  0  0  0  0
   18.9639  -11.7794    4.6738 N   0  0  0  0  0  0  0  0  0  0  0  0
   19.9468  -12.0804    5.5390 C   0  0  0  0  0  0  0  0  0  0  0  0
   21.2233  -11.5402    5.6746 C   0  0  0  0  0  0  0  0  0  0  0  0
   22.0610  -12.0451    6.6598 C   0  0  0  0  0  0  0  0  0  0  0  0
   21.6726  -13.0492    7.4939 C   0  0  0  0  0  0  0  0  0  0  0  0
   20.3987  -13.5647    7.3341 C   0  0  0  0  0  0  0  0  0  0  0  0
   19.5356  -13.0964    6.3749 C   0  0  0  0  0  0  0  0  0  0  0  0
   16.4664  -16.6364    6.0681 C   0  0  0  0  0  0  0  0  0  0  0  0
   15.4943  -16.8776    6.8288 O   0  0  0  0  0  0  0  0  0  0  0  0
   17.3327  -17.7204    5.7547 N   0  0  0  0  0  0  0  0  0  0  0  0
   17.1392  -19.0290    6.2981 C   0  0  1  0  0  0  0  0  0  0  0  0
   17.5465  -20.0421    5.2240 C   0  0  0  0  0  0  0  0  0  0  0  0
   16.4675  -20.2206    4.2083 C   0  0  0  0  0  0  0  0  0  0  0  0
   15.2358  -19.6149    4.2027 C   0  0  0  0  0  0  0  0  0  0  0  0
   14.5879  -20.0578    3.1141 N   0  0  0  0  0  0  0  0  0  0  0  0
   15.3600  -20.9163    2.4351 C   0  0  0  0  0  0  0  0  0  0  0  0
   16.5130  -21.0098    3.1154 N   0  0  0  0  0  0  0  0  0  0  0  0
   17.9294  -19.2936    7.5235 C   0  0  0  0  0  0  0  0  0  0  0  0
   19.1448  -18.9204    7.6023 O   0  0  0  0  0  0  0  0  0  0  0  0
   17.4038  -19.9573    8.6580 N   0  0  0  0  0  0  0  0  0  0  0  0
   18.2127  -20.2808    9.8455 C   0  0  1  0  0  0  0  0  0  0  0  0
   17.6420  -19.5648   11.0481 C   0  0  0  0  0  0  0  0  0  0  0  0
   18.0504  -18.1590   11.0471 C   0  0  0  0  0  0  0  0  0  0  0  0
   17.2209  -17.1209   10.5924 C   0  0  0  0  0  0  0  0  0  0  0  0
   17.8680  -15.9573   10.7164 N   0  0  0  0  0  0  0  0  0  0  0  0
   19.0664  -16.1994   11.2262 C   0  0  0  0  0  0  0  0  0  0  0  0
   19.1641  -17.5234   11.4203 N   0  0  0  0  0  0  0  0  0  0  0  0
   18.0412  -21.7286   10.0437 C   0  0  0  0  0  0  0  0  0  0  0  0
   17.3168  -22.4100    9.3027 O   0  0  0  0  0  0  0  0  0  0  0  0
   18.6895  -22.3811   11.0721 O   0  0  0  0  0  0  0  0  0  0  0  0
  2  1  1  1
  3  2  1  0
  4  3  1  0
  5  4  2  0
  6  7  1  0
  6  5  1  0
  7 12  2  0
  8  7  1  0
  8  9  2  0
  9 10  1  0
 10 11  2  0
 12  4  1  0
 12 11  1  0
 13  2  1  0
 13 14  2  0
 15 13  1  0
 16 17  1  6
 16 15  1  0
 18 22  1  0
 18 17  1  0
 19 18  2  0
 20 19  1  0
 20 21  1  0
 21 22  2  0
 23 16  1  0
 24 23  2  0
 25 23  1  0
 26 27  1  1
 26 25  1  0
 27 28  1  0
 28 29  2  0
 29 30  1  0
 31 30  1  0
 32 28  1  0
 32 31  2  0
 33 35  1  0
 33 26  1  0
 34 33  2  0
M  END
$$$$
