WHH.pdb
     RDKit          3D

 35 38  0  0  1  0  0  0  0  0999 V2000
   27.2040  -32.9799   -7.3945 N   0  0  0  0  0  0  0  0  0  0  0  0
   25.9973  -33.4621   -6.7864 C   0  0  1  0  0  0  0  0  0  0  0  0
   25.4176  -34.5702   -7.6199 C   0  0  0  0  0  0  0  0  0  0  0  0
   24.9225  -34.0419   -8.9090 C   0  0  0  0  0  0  0  0  0  0  0  0
   25.6929  -33.9792  -10.0790 C   0  0  0  0  0  0  0  0  0  0  0  0
   24.9431  -33.4818  -11.0732 N   0  0  0  0  0  0  0  0  0  0  0  0
   23.7206  -33.2241  -10.5788 C   0  0  0  0  0  0  0  0  0  0  0  0
   22.5915  -32.6963  -11.2001 C   0  0  0  0  0  0  0  0  0  0  0  0
   21.4376  -32.5185  -10.4489 C   0  0  0  0  0  0  0  0  0  0  0  0
   21.3780  -32.8435   -9.1277 C   0  0  0  0  0  0  0  0  0  0  0  0
   22.5162  -33.3657   -8.5395 C   0  0  0  0  0  0  0  0  0  0  0  0
   23.6790  -33.5601   -9.2426 C   0  0  0  0  0  0  0  0  0  0  0  0
   26.2745  -34.0086   -5.4169 C   0  0  0  0  0  0  0  0  0  0  0  0
   25.3928  -34.5951   -4.7383 O   0  0  0  0  0  0  0  0  0  0  0  0
   27.5654  -33.8778   -4.8337 N   0  0  0  0  0  0  0  0  0  0  0  0
   27.8848  -34.4457   -3.5606 C   0  0  1  0  0  0  0  0  0  0  0  0
   29.4032  -34.6390   -3.5068 C   0  0  0  0  0  0  0  0  0  0  0  0
   29.8340  -35.7950   -4.3470 C   0  0  0  0  0  0  0  0  0  0  0  0
   29.0399  -36.8122   -4.8147 C   0  0  0  0  0  0  0  0  0  0  0  0
   29.8320  -37.6317   -5.5231 N   0  0  0  0  0  0  0  0  0  0  0  0
   31.0904  -37.1729   -5.5207 C   0  0  0  0  0  0  0  0  0  0  0  0
   31.0816  -36.0439   -4.7953 N   0  0  0  0  0  0  0  0  0  0  0  0
   27.4722  -33.6094   -2.4090 C   0  0  0  0  0  0  0  0  0  0  0  0
   27.2371  -32.3670   -2.5635 O   0  0  0  0  0  0  0  0  0  0  0  0
   27.3131  -34.1180   -1.0976 N   0  0  0  0  0  0  0  0  0  0  0  0
   26.8875  -33.2856    0.0405 C   0  0  1  0  0  0  0  0  0  0  0  0
   25.4242  -32.9397   -0.1141 C   0  0  0  0  0  0  0  0  0  0  0  0
   24.9495  -32.1940    1.0528 C   0  0  0  0  0  0  0  0  0  0  0  0
   25.7887  -31.3897    1.8411 C   0  0  0  0  0  0  0  0  0  0  0  0
   25.0703  -30.8414    2.8265 N   0  0  0  0  0  0  0  0  0  0  0  0
   23.8172  -31.2540    2.7077 C   0  0  0  0  0  0  0  0  0  0  0  0
   23.7572  -32.0647    1.6403 N   0  0  0  0  0  0  0  0  0  0  0  0
   27.0374  -34.1474    1.2234 C   0  0  0  0  0  0  0  0  0  0  0  0
   27.0362  -35.3846    1.1370 O   0  0  0  0  0  0  0  0  0  0  0  0
   27.1867  -33.5992    2.4808 O   0  0  0  0  0  0  0  0  0  0  0  0
  2  1  1  6
  3  2  1  0
  4  3  1  0
  5  4  2  0
  6  7  1  0
  6  5  1  0
  7 12  2  0
  8  7  1  0
  8  9  2  0
  9 10  1  0
 10 11  2  0
 12  4  1  0
 12 11  1  0
 13  2  1  0
 13 14  2  0
 15 13  1  0
 16 17  1  6
 16 15  1  0
 18 22  1  0
 18 17  1  0
 19 18  2  0
 20 19  1  0
 20 21  1  0
 21 22  2  0
 23 16  1  0
 24 23  2  0
 25 23  1  0
 26 27  1  6
 26 25  1  0
 27 28  1  0
 28 29  2  0
 29 30  1  0
 31 30  1  0
 32 28  1  0
 32 31  2  0
 33 35  1  0
 33 26  1  0
 34 33  2  0
M  END
$$$$
