WHH.pdb
     RDKit          3D

 35 38  0  0  1  0  0  0  0  0999 V2000
   26.9011  -19.7994  -11.1976 N   0  0  0  0  0  0  0  0  0  0  0  0
   26.3466  -21.1225  -11.1774 C   0  0  1  0  0  0  0  0  0  0  0  0
   25.6422  -21.3568   -9.8707 C   0  0  0  0  0  0  0  0  0  0  0  0
   26.4179  -20.7754   -8.7543 C   0  0  0  0  0  0  0  0  0  0  0  0
   25.8858  -19.8883   -7.8077 C   0  0  0  0  0  0  0  0  0  0  0  0
   26.8364  -19.5753   -6.9152 N   0  0  0  0  0  0  0  0  0  0  0  0
   27.9575  -20.2313   -7.2593 C   0  0  0  0  0  0  0  0  0  0  0  0
   29.2159  -20.2370   -6.6628 C   0  0  0  0  0  0  0  0  0  0  0  0
   30.2214  -21.0063   -7.2324 C   0  0  0  0  0  0  0  0  0  0  0  0
   30.0140  -21.7521   -8.3529 C   0  0  0  0  0  0  0  0  0  0  0  0
   28.7531  -21.7255   -8.9217 C   0  0  0  0  0  0  0  0  0  0  0  0
   27.7282  -20.9808   -8.3932 C   0  0  0  0  0  0  0  0  0  0  0  0
   25.3454  -21.2955  -12.2813 C   0  0  0  0  0  0  0  0  0  0  0  0
   24.8187  -20.3156  -12.8681 O   0  0  0  0  0  0  0  0  0  0  0  0
   24.9541  -22.5958  -12.7056 N   0  0  0  0  0  0  0  0  0  0  0  0
   24.0618  -22.7998  -13.8045 C   0  0  1  0  0  0  0  0  0  0  0  0
   24.1491  -24.2754  -14.2050 C   0  0  0  0  0  0  0  0  0  0  0  0
   25.2171  -24.5001  -15.2232 C   0  0  0  0  0  0  0  0  0  0  0  0
   25.9362  -23.5369  -15.8860 C   0  0  0  0  0  0  0  0  0  0  0  0
   26.7849  -24.1776  -16.7046 N   0  0  0  0  0  0  0  0  0  0  0  0
   26.6299  -25.5027  -16.5846 C   0  0  0  0  0  0  0  0  0  0  0  0
   25.6641  -25.6909  -15.6720 N   0  0  0  0  0  0  0  0  0  0  0  0
   22.6488  -22.4739  -13.4996 C   0  0  0  0  0  0  0  0  0  0  0  0
   22.3027  -22.1370  -12.3208 O   0  0  0  0  0  0  0  0  0  0  0  0
   21.6170  -22.5111  -14.4681 N   0  0  0  0  0  0  0  0  0  0  0  0
   20.5025  -21.5486  -14.4915 C   0  0  1  0  0  0  0  0  0  0  0  0
   21.0459  -20.1621  -14.7498 C   0  0  0  0  0  0  0  0  0  0  0  0
   20.7923  -19.2915  -13.6005 C   0  0  0  0  0  0  0  0  0  0  0  0
   20.0712  -19.7073  -12.4692 C   0  0  0  0  0  0  0  0  0  0  0  0
   20.0078  -18.6975  -11.5951 N   0  0  0  0  0  0  0  0  0  0  0  0
   20.6506  -17.6600  -12.1098 C   0  0  0  0  0  0  0  0  0  0  0  0
   21.1167  -18.0284  -13.3127 N   0  0  0  0  0  0  0  0  0  0  0  0
   19.6774  -21.9450  -15.6434 C   0  0  0  0  0  0  0  0  0  0  0  0
   20.1578  -22.5410  -16.6191 O   0  0  0  0  0  0  0  0  0  0  0  0
   18.3271  -21.6632  -15.6737 O   0  0  0  0  0  0  0  0  0  0  0  0
  2  1  1  1
  3  2  1  0
  4  3  1  0
  5  4  2  0
  6  7  1  0
  6  5  1  0
  7 12  2  0
  8  7  1  0
  8  9  2  0
  9 10  1  0
 10 11  2  0
 12  4  1  0
 12 11  1  0
 13  2  1  0
 13 14  2  0
 15 13  1  0
 16 17  1  1
 16 15  1  0
 18 22  1  0
 18 17  1  0
 19 18  2  0
 20 19  1  0
 20 21  1  0
 21 22  2  0
 23 16  1  0
 24 23  2  0
 25 23  1  0
 26 27  1  6
 26 25  1  0
 27 28  1  0
 28 29  2  0
 29 30  1  0
 31 30  1  0
 32 28  1  0
 32 31  2  0
 33 35  1  0
 33 26  1  0
 34 33  2  0
M  END
$$$$
