WHH.pdb
     RDKit          3D

 35 38  0  0  1  0  0  0  0  0999 V2000
   23.1965  -11.6963  -21.0753 N   0  0  0  0  0  0  0  0  0  0  0  0
   22.7505  -11.5440  -19.7201 C   0  0  1  0  0  0  0  0  0  0  0  0
   23.3216  -12.6454  -18.8719 C   0  0  0  0  0  0  0  0  0  0  0  0
   22.9588  -13.9664  -19.4281 C   0  0  0  0  0  0  0  0  0  0  0  0
   23.8321  -14.7696  -20.1755 C   0  0  0  0  0  0  0  0  0  0  0  0
   23.2092  -15.9113  -20.5016 N   0  0  0  0  0  0  0  0  0  0  0  0
   21.9680  -15.8652  -19.9889 C   0  0  0  0  0  0  0  0  0  0  0  0
   20.9323  -16.7939  -20.0540 C   0  0  0  0  0  0  0  0  0  0  0  0
   19.7256  -16.4929  -19.4370 C   0  0  0  0  0  0  0  0  0  0  0  0
   19.5260  -15.3207  -18.7731 C   0  0  0  0  0  0  0  0  0  0  0  0
   20.5742  -14.4188  -18.7261 C   0  0  0  0  0  0  0  0  0  0  0  0
   21.7851  -14.6738  -19.3203 C   0  0  0  0  0  0  0  0  0  0  0  0
   23.2135  -10.2345  -19.1527 C   0  0  0  0  0  0  0  0  0  0  0  0
   24.3697   -9.7852  -19.3610 O   0  0  0  0  0  0  0  0  0  0  0  0
   22.3441   -9.4472  -18.3478 N   0  0  0  0  0  0  0  0  0  0  0  0
   22.7285   -8.1651  -17.8441 C   0  0  1  0  0  0  0  0  0  0  0  0
   23.1341   -7.2993  -19.0405 C   0  0  0  0  0  0  0  0  0  0  0  0
   22.0071   -6.4292  -19.4887 C   0  0  0  0  0  0  0  0  0  0  0  0
   20.7734   -6.3134  -18.8983 C   0  0  0  0  0  0  0  0  0  0  0  0
   20.0749   -5.4270  -19.6244 N   0  0  0  0  0  0  0  0  0  0  0  0
   20.8170   -4.9807  -20.6462 C   0  0  0  0  0  0  0  0  0  0  0  0
   22.0027   -5.6024  -20.5543 N   0  0  0  0  0  0  0  0  0  0  0  0
   21.6566   -7.4676  -17.0956 C   0  0  0  0  0  0  0  0  0  0  0  0
   21.7778   -6.2373  -16.7883 O   0  0  0  0  0  0  0  0  0  0  0  0
   20.4587   -8.1001  -16.6844 N   0  0  0  0  0  0  0  0  0  0  0  0
   20.2633   -8.6477  -15.3313 C   0  0  1  0  0  0  0  0  0  0  0  0
   21.1524   -9.8563  -15.1490 C   0  0  0  0  0  0  0  0  0  0  0  0
   20.5058  -11.0527  -15.6909 C   0  0  0  0  0  0  0  0  0  0  0  0
   19.2199  -11.0391  -16.2555 C   0  0  0  0  0  0  0  0  0  0  0  0
   18.9061  -12.2744  -16.6596 N   0  0  0  0  0  0  0  0  0  0  0  0
   19.9245  -13.0747  -16.3822 C   0  0  0  0  0  0  0  0  0  0  0  0
   20.8779  -12.3305  -15.8014 N   0  0  0  0  0  0  0  0  0  0  0  0
   20.7259   -7.5902  -14.4189 C   0  0  0  0  0  0  0  0  0  0  0  0
   21.4018   -6.6300  -14.8181 O   0  0  0  0  0  0  0  0  0  0  0  0
   20.4178   -7.6342  -13.0747 O   0  0  0  0  0  0  0  0  0  0  0  0
  2  1  1  6
  3  2  1  0
  4  3  1  0
  5  4  2  0
  6  7  1  0
  6  5  1  0
  7 12  2  0
  8  7  1  0
  8  9  2  0
  9 10  1  0
 10 11  2  0
 12  4  1  0
 12 11  1  0
 13  2  1  0
 13 14  2  0
 15 13  1  0
 16 17  1  6
 16 15  1  0
 18 22  1  0
 18 17  1  0
 19 18  2  0
 20 19  1  0
 20 21  1  0
 21 22  2  0
 23 16  1  0
 24 23  2  0
 25 23  1  0
 26 27  1  6
 26 25  1  0
 27 28  1  0
 28 29  2  0
 29 30  1  0
 31 30  1  0
 32 28  1  0
 32 31  2  0
 33 35  1  0
 33 26  1  0
 34 33  2  0
M  END
$$$$
