WHH.pdb
     RDKit          3D

 35 38  0  0  1  0  0  0  0  0999 V2000
   22.1787  -11.0081  -20.3251 N   0  0  0  0  0  0  0  0  0  0  0  0
   21.1473  -10.0210  -20.1823 C   0  0  1  0  0  0  0  0  0  0  0  0
   20.0675  -10.5437  -19.2771 C   0  0  0  0  0  0  0  0  0  0  0  0
   19.1872  -11.4787  -20.0097 C   0  0  0  0  0  0  0  0  0  0  0  0
   19.4703  -12.8393  -20.1966 C   0  0  0  0  0  0  0  0  0  0  0  0
   18.4612  -13.4099  -20.8706 N   0  0  0  0  0  0  0  0  0  0  0  0
   17.5436  -12.4609  -21.1212 C   0  0  0  0  0  0  0  0  0  0  0  0
   16.3261  -12.5412  -21.7926 C   0  0  0  0  0  0  0  0  0  0  0  0
   15.5588  -11.3916  -21.9239 C   0  0  0  0  0  0  0  0  0  0  0  0
   15.9604  -10.1928  -21.4177 C   0  0  0  0  0  0  0  0  0  0  0  0
   17.1746  -10.1457  -20.7559 C   0  0  0  0  0  0  0  0  0  0  0  0
   17.9662  -11.2565  -20.6009 C   0  0  0  0  0  0  0  0  0  0  0  0
   21.6956   -8.7645  -19.5725 C   0  0  0  0  0  0  0  0  0  0  0  0
   22.6166   -8.7818  -18.7162 O   0  0  0  0  0  0  0  0  0  0  0  0
   21.1815   -7.4931  -19.9504 N   0  0  0  0  0  0  0  0  0  0  0  0
   21.6849   -6.2748  -19.3959 C   0  0  1  0  0  0  0  0  0  0  0  0
   21.5786   -5.1946  -20.4764 C   0  0  0  0  0  0  0  0  0  0  0  0
   22.6060   -5.3883  -21.5416 C   0  0  0  0  0  0  0  0  0  0  0  0
   23.5953   -6.3395  -21.5659 C   0  0  0  0  0  0  0  0  0  0  0  0
   24.2883   -6.1531  -22.6998 N   0  0  0  0  0  0  0  0  0  0  0  0
   23.7767   -5.1251  -23.3895 C   0  0  0  0  0  0  0  0  0  0  0  0
   22.7433   -4.6617  -22.6697 N   0  0  0  0  0  0  0  0  0  0  0  0
   20.9532   -5.8151  -18.1921 C   0  0  0  0  0  0  0  0  0  0  0  0
   19.6813   -5.8699  -18.1483 O   0  0  0  0  0  0  0  0  0  0  0  0
   21.5973   -5.3008  -17.0412 N   0  0  0  0  0  0  0  0  0  0  0  0
   20.8707   -4.9116  -15.8207 C   0  0  1  0  0  0  0  0  0  0  0  0
   21.5388   -5.5415  -14.6201 C   0  0  0  0  0  0  0  0  0  0  0  0
   21.2353   -6.9723  -14.5586 C   0  0  0  0  0  0  0  0  0  0  0  0
   20.4484   -7.6302  -15.5181 C   0  0  0  0  0  0  0  0  0  0  0  0
   20.3518   -8.9235  -15.1928 N   0  0  0  0  0  0  0  0  0  0  0  0
   21.0357   -9.1245  -14.0764 C   0  0  0  0  0  0  0  0  0  0  0  0
   21.5611   -7.9470  -13.7057 N   0  0  0  0  0  0  0  0  0  0  0  0
   21.0312   -3.4520  -15.7276 C   0  0  0  0  0  0  0  0  0  0  0  0
   21.6756   -2.8088  -16.5697 O   0  0  0  0  0  0  0  0  0  0  0  0
   20.4621   -2.7450  -14.6884 O   0  0  0  0  0  0  0  0  0  0  0  0
  2  1  1  1
  3  2  1  0
  4  3  1  0
  5  4  2  0
  6  7  1  0
  6  5  1  0
  7 12  2  0
  8  7  1  0
  8  9  2  0
  9 10  1  0
 10 11  2  0
 12  4  1  0
 12 11  1  0
 13  2  1  0
 13 14  2  0
 15 13  1  0
 16 17  1  6
 16 15  1  0
 18 22  1  0
 18 17  1  0
 19 18  2  0
 20 19  1  0
 20 21  1  0
 21 22  2  0
 23 16  1  0
 24 23  2  0
 25 23  1  0
 26 27  1  1
 26 25  1  0
 27 28  1  0
 28 29  2  0
 29 30  1  0
 31 30  1  0
 32 28  1  0
 32 31  2  0
 33 35  1  0
 33 26  1  0
 34 33  2  0
M  END
$$$$
