WHH.pdb
     RDKit          3D

 35 38  0  0  1  0  0  0  0  0999 V2000
   22.3300  -14.0916  -15.6784 N   0  0  0  0  0  0  0  0  0  0  0  0
   22.7668  -12.7389  -15.8729 C   0  0  1  0  0  0  0  0  0  0  0  0
   23.5988  -12.6496  -17.1213 C   0  0  0  0  0  0  0  0  0  0  0  0
   24.9320  -13.2485  -16.8973 C   0  0  0  0  0  0  0  0  0  0  0  0
   25.1846  -14.6277  -16.9105 C   0  0  0  0  0  0  0  0  0  0  0  0
   26.4934  -14.8370  -16.7072 N   0  0  0  0  0  0  0  0  0  0  0  0
   27.0855  -13.6394  -16.5640 C   0  0  0  0  0  0  0  0  0  0  0  0
   28.4198  -13.3175  -16.3283 C   0  0  0  0  0  0  0  0  0  0  0  0
   28.7732  -11.9802  -16.2097 C   0  0  0  0  0  0  0  0  0  0  0  0
   27.8571  -10.9782  -16.3165 C   0  0  0  0  0  0  0  0  0  0  0  0
   26.5398  -11.3304  -16.5510 C   0  0  0  0  0  0  0  0  0  0  0  0
   26.1441  -12.6388  -16.6763 C   0  0  0  0  0  0  0  0  0  0  0  0
   21.5921  -11.8193  -16.0320 C   0  0  0  0  0  0  0  0  0  0  0  0
   20.4249  -12.2492  -16.2184 O   0  0  0  0  0  0  0  0  0  0  0  0
   21.7653  -10.4084  -15.9761 N   0  0  0  0  0  0  0  0  0  0  0  0
   20.7225   -9.5317  -15.5408 C   0  0  1  0  0  0  0  0  0  0  0  0
   20.3454   -9.9332  -14.1118 C   0  0  0  0  0  0  0  0  0  0  0  0
   19.0872   -9.2610  -13.6724 C   0  0  0  0  0  0  0  0  0  0  0  0
   18.3260   -8.3833  -14.4034 C   0  0  0  0  0  0  0  0  0  0  0  0
   17.2905   -8.0255  -13.6284 N   0  0  0  0  0  0  0  0  0  0  0  0
   17.3684   -8.6409  -12.4413 C   0  0  0  0  0  0  0  0  0  0  0  0
   18.4759   -9.3979  -12.4780 N   0  0  0  0  0  0  0  0  0  0  0  0
   21.1005   -8.0989  -15.5469 C   0  0  0  0  0  0  0  0  0  0  0  0
   22.0322   -7.6728  -14.7898 O   0  0  0  0  0  0  0  0  0  0  0  0
   20.4732   -7.1339  -16.3709 N   0  0  0  0  0  0  0  0  0  0  0  0
   20.9247   -5.7345  -16.4554 C   0  0  1  0  0  0  0  0  0  0  0  0
   20.1677   -5.0318  -17.5589 C   0  0  0  0  0  0  0  0  0  0  0  0
   21.0974   -4.3594  -18.4681 C   0  0  0  0  0  0  0  0  0  0  0  0
   22.1589   -5.0219  -19.1058 C   0  0  0  0  0  0  0  0  0  0  0  0
   22.8254   -4.1486  -19.8680 N   0  0  0  0  0  0  0  0  0  0  0  0
   22.2443   -2.9641  -19.7496 C   0  0  0  0  0  0  0  0  0  0  0  0
   21.2092   -3.1031  -18.9074 N   0  0  0  0  0  0  0  0  0  0  0  0
   20.5395   -5.1290  -15.1710 C   0  0  0  0  0  0  0  0  0  0  0  0
   19.4689   -5.4076  -14.6102 O   0  0  0  0  0  0  0  0  0  0  0  0
   21.3679   -4.2221  -14.5425 O   0  0  0  0  0  0  0  0  0  0  0  0
  2  1  1  6
  3  2  1  0
  4  3  1  0
  5  4  2  0
  6  7  1  0
  6  5  1  0
  7 12  2  0
  8  7  1  0
  8  9  2  0
  9 10  1  0
 10 11  2  0
 12  4  1  0
 12 11  1  0
 13  2  1  0
 13 14  2  0
 15 13  1  0
 16 17  1  1
 16 15  1  0
 18 22  1  0
 18 17  1  0
 19 18  2  0
 20 19  1  0
 20 21  1  0
 21 22  2  0
 23 16  1  0
 24 23  2  0
 25 23  1  0
 26 27  1  6
 26 25  1  0
 27 28  1  0
 28 29  2  0
 29 30  1  0
 31 30  1  0
 32 28  1  0
 32 31  2  0
 33 35  1  0
 33 26  1  0
 34 33  2  0
M  END
$$$$
