AVT.pdb
     RDKit          3D

 20 19  0  0  1  0  0  0  0  0999 V2000
   18.3182   -9.5090  -19.2027 C   0  0  0  0  0  0  0  0  0  0  0  0
   18.9697  -10.6235  -18.4165 C   0  0  2  0  0  0  0  0  0  0  0  0
   17.8940  -11.5189  -17.9955 N   0  0  0  0  0  0  0  0  0  0  0  0
   19.5668  -10.0659  -17.1741 C   0  0  0  0  0  0  0  0  0  0  0  0
   18.8788   -9.6903  -16.1877 O   0  0  0  0  0  0  0  0  0  0  0  0
   23.4920   -9.9865  -14.1993 C   0  0  0  0  0  0  0  0  0  0  0  0
   22.8221  -10.3833  -15.4716 C   0  0  1  0  0  0  0  0  0  0  0  0
   22.3604  -11.8190  -15.3477 C   0  0  0  0  0  0  0  0  0  0  0  0
   21.6184   -9.5339  -15.8114 C   0  0  2  0  0  0  0  0  0  0  0  0
   20.9967   -9.9285  -17.0440 N   0  0  0  0  0  0  0  0  0  0  0  0
   21.9935   -8.0837  -15.8183 C   0  0  0  0  0  0  0  0  0  0  0  0
   22.7916   -7.6700  -16.6978 O   0  0  0  0  0  0  0  0  0  0  0  0
   19.9308   -5.0569  -16.4501 C   0  0  0  0  0  0  0  0  0  0  0  0
   20.6140   -4.8740  -15.1322 C   0  0  1  0  0  0  0  0  0  0  0  0
   19.6812   -5.0454  -14.1210 O   0  0  0  0  0  0  0  0  0  0  0  0
   21.8256   -5.7452  -14.9602 C   0  0  2  0  0  0  0  0  0  0  0  0
   21.4984   -7.1510  -14.8877 N   0  0  0  0  0  0  0  0  0  0  0  0
   22.5135   -5.3265  -13.6999 C   0  0  0  0  0  0  0  0  0  0  0  0
   22.5560   -6.1519  -12.5842 O   0  0  0  0  0  0  0  0  0  0  0  0
   23.0803   -4.2081  -13.6040 O   0  0  0  0  0  0  0  0  0  0  0  0
  2  1  1  6
  2  3  1  0
  4 10  1  0
  4  2  1  0
  5  4  2  0
  7  6  1  1
  7  8  1  0
  9  7  1  0
  9 10  1  6
 11 17  1  0
 11  9  1  0
 12 11  2  0
 14 13  1  6
 14 15  1  0
 16 17  1  1
 16 14  1  0
 18 19  1  0
 18 16  1  0
 20 18  2  0
M  END
$$$$
