AVT.pdb
     RDKit          3D

 20 19  0  0  1  0  0  0  0  0999 V2000
   19.4307  -14.7764  -15.4606 C   0  0  0  0  0  0  0  0  0  0  0  0
   18.0411  -14.3258  -15.8490 C   0  0  2  0  0  0  0  0  0  0  0  0
   17.5743  -15.2558  -16.8753 N   0  0  0  0  0  0  0  0  0  0  0  0
   18.1195  -12.9883  -16.4941 C   0  0  0  0  0  0  0  0  0  0  0  0
   18.6301  -12.8005  -17.6305 O   0  0  0  0  0  0  0  0  0  0  0  0
   16.4023   -8.4086  -16.9116 C   0  0  0  0  0  0  0  0  0  0  0  0
   16.3315   -9.8610  -16.5795 C   0  0  1  0  0  0  0  0  0  0  0  0
   15.6134  -10.5792  -17.7013 C   0  0  0  0  0  0  0  0  0  0  0  0
   17.6868  -10.5077  -16.4037 C   0  0  2  0  0  0  0  0  0  0  0  0
   17.6000  -11.8197  -15.8271 N   0  0  0  0  0  0  0  0  0  0  0  0
   18.5890   -9.6119  -15.6117 C   0  0  0  0  0  0  0  0  0  0  0  0
   18.3704   -9.4688  -14.3814 O   0  0  0  0  0  0  0  0  0  0  0  0
   21.8036   -7.4037  -17.4343 C   0  0  0  0  0  0  0  0  0  0  0  0
   21.9035   -7.8938  -16.0247 C   0  0  1  0  0  0  0  0  0  0  0  0
   22.7180   -7.0286  -15.3105 O   0  0  0  0  0  0  0  0  0  0  0  0
   20.5687   -8.1101  -15.3703 C   0  0  2  0  0  0  0  0  0  0  0  0
   19.6764   -8.9158  -16.1722 N   0  0  0  0  0  0  0  0  0  0  0  0
   19.9535   -6.7675  -15.1340 C   0  0  0  0  0  0  0  0  0  0  0  0
   20.2381   -6.0258  -13.9953 O   0  0  0  0  0  0  0  0  0  0  0  0
   19.1533   -6.2595  -15.9605 O   0  0  0  0  0  0  0  0  0  0  0  0
  2  1  1  6
  2  3  1  0
  4 10  1  0
  4  2  1  0
  5  4  2  0
  7  6  1  6
  7  8  1  0
  9  7  1  0
  9 10  1  1
 11 17  1  0
 11  9  1  0
 12 11  2  0
 14 13  1  6
 14 15  1  0
 16 17  1  6
 16 14  1  0
 18 19  1  0
 18 16  1  0
 20 18  2  0
M  END
$$$$
