AVT.pdb
     RDKit          3D

 20 19  0  0  1  0  0  0  0  0999 V2000
   27.4364  -12.8609  -21.0121 C   0  0  0  0  0  0  0  0  0  0  0  0
   26.8805  -11.4671  -20.8299 C   0  0  2  0  0  0  0  0  0  0  0  0
   28.0094  -10.6141  -20.4635 N   0  0  0  0  0  0  0  0  0  0  0  0
   25.9484  -11.4562  -19.6714 C   0  0  0  0  0  0  0  0  0  0  0  0
   24.8857  -12.1322  -19.6360 O   0  0  0  0  0  0  0  0  0  0  0  0
   26.6822  -12.2359  -16.0065 C   0  0  0  0  0  0  0  0  0  0  0  0
   26.0658  -10.8792  -16.0739 C   0  0  1  0  0  0  0  0  0  0  0  0
   27.1575   -9.8435  -15.9146 C   0  0  0  0  0  0  0  0  0  0  0  0
   25.3493  -10.6050  -17.3767 C   0  0  2  0  0  0  0  0  0  0  0  0
   26.2304  -10.6496  -18.5095 N   0  0  0  0  0  0  0  0  0  0  0  0
   24.6118   -9.3036  -17.2980 C   0  0  0  0  0  0  0  0  0  0  0  0
   25.2393   -8.2384  -17.5291 O   0  0  0  0  0  0  0  0  0  0  0  0
   20.5128   -6.7140  -17.8156 C   0  0  0  0  0  0  0  0  0  0  0  0
   21.2464   -8.0164  -17.7634 C   0  0  1  0  0  0  0  0  0  0  0  0
   21.4122   -8.4848  -19.0577 O   0  0  0  0  0  0  0  0  0  0  0  0
   22.5383   -7.9453  -17.0001 C   0  0  2  0  0  0  0  0  0  0  0  0
   23.2448   -9.2058  -16.9772 N   0  0  0  0  0  0  0  0  0  0  0  0
   22.2189   -7.5259  -15.6005 C   0  0  0  0  0  0  0  0  0  0  0  0
   22.1371   -6.1871  -15.2418 O   0  0  0  0  0  0  0  0  0  0  0  0
   22.0120   -8.3730  -14.6944 O   0  0  0  0  0  0  0  0  0  0  0  0
  2  1  1  1
  2  3  1  0
  4 10  1  0
  4  2  1  0
  5  4  2  0
  7  6  1  6
  7  8  1  0
  9  7  1  0
  9 10  1  6
 11 17  1  0
 11  9  1  0
 12 11  2  0
 14 13  1  6
 14 15  1  0
 16 17  1  1
 16 14  1  0
 18 19  1  0
 18 16  1  0
 20 18  2  0
M  END
$$$$
