AVT.pdb
     RDKit          3D

 20 19  0  0  1  0  0  0  0  0999 V2000
   18.4026  -10.4685  -18.7919 C   0  0  0  0  0  0  0  0  0  0  0  0
   19.1360  -11.4867  -17.9492 C   0  0  2  0  0  0  0  0  0  0  0  0
   18.1266  -12.4205  -17.4538 N   0  0  0  0  0  0  0  0  0  0  0  0
   19.7127  -10.8141  -16.7551 C   0  0  0  0  0  0  0  0  0  0  0  0
   19.0213  -10.4593  -15.7633 O   0  0  0  0  0  0  0  0  0  0  0  0
   23.6815  -10.2939  -13.9009 C   0  0  0  0  0  0  0  0  0  0  0  0
   22.9992  -10.8073  -15.1239 C   0  0  1  0  0  0  0  0  0  0  0  0
   22.6130  -12.2518  -14.8920 C   0  0  0  0  0  0  0  0  0  0  0  0
   21.7462  -10.0414  -15.4835 C   0  0  2  0  0  0  0  0  0  0  0  0
   21.1254  -10.5329  -16.6812 N   0  0  0  0  0  0  0  0  0  0  0  0
   22.0430   -8.5759  -15.5733 C   0  0  0  0  0  0  0  0  0  0  0  0
   22.8777   -8.1795  -16.4265 O   0  0  0  0  0  0  0  0  0  0  0  0
   20.0406   -5.7659  -16.7856 C   0  0  0  0  0  0  0  0  0  0  0  0
   20.4372   -5.4569  -15.3769 C   0  0  1  0  0  0  0  0  0  0  0  0
   19.3457   -5.6746  -14.5503 O   0  0  0  0  0  0  0  0  0  0  0  0
   21.6655   -6.1946  -14.9255 C   0  0  2  0  0  0  0  0  0  0  0  0
   21.4349   -7.6103  -14.7494 N   0  0  0  0  0  0  0  0  0  0  0  0
   22.1071   -5.5949  -13.6285 C   0  0  0  0  0  0  0  0  0  0  0  0
   22.7063   -4.3437  -13.5708 O   0  0  0  0  0  0  0  0  0  0  0  0
   21.9514   -6.2037  -12.5392 O   0  0  0  0  0  0  0  0  0  0  0  0
  2  1  1  6
  2  3  1  0
  4 10  1  0
  4  2  1  0
  5  4  2  0
  7  6  1  1
  7  8  1  0
  9  7  1  0
  9 10  1  6
 11 17  1  0
 11  9  1  0
 12 11  2  0
 14 13  1  6
 14 15  1  0
 16 17  1  1
 16 14  1  0
 18 19  1  0
 18 16  1  0
 20 18  2  0
M  END
$$$$
