AVT.pdb
     RDKit          3D

 20 19  0  0  1  0  0  0  0  0999 V2000
   17.8759   -9.6402  -13.9329 C   0  0  0  0  0  0  0  0  0  0  0  0
   17.0951  -10.6116  -13.0776 C   0  0  2  0  0  0  0  0  0  0  0  0
   16.4088  -11.5166  -13.9975 N   0  0  0  0  0  0  0  0  0  0  0  0
   16.0353   -9.8755  -12.3388 C   0  0  0  0  0  0  0  0  0  0  0  0
   14.9661   -9.4827  -12.8774 O   0  0  0  0  0  0  0  0  0  0  0  0
   13.7248   -8.7163   -8.2006 C   0  0  0  0  0  0  0  0  0  0  0  0
   14.6447   -9.5418   -9.0356 C   0  0  1  0  0  0  0  0  0  0  0  0
   13.8750  -10.7277   -9.5751 C   0  0  0  0  0  0  0  0  0  0  0  0
   15.2307   -8.7923  -10.2107 C   0  0  2  0  0  0  0  0  0  0  0  0
   16.1921   -9.5729  -10.9373 N   0  0  0  0  0  0  0  0  0  0  0  0
   15.8057   -7.4858   -9.7567 C   0  0  0  0  0  0  0  0  0  0  0  0
   16.8384   -7.4967   -9.0391 O   0  0  0  0  0  0  0  0  0  0  0  0
   17.0188   -4.3635  -11.8417 C   0  0  0  0  0  0  0  0  0  0  0  0
   15.9673   -4.0109  -10.8381 C   0  0  1  0  0  0  0  0  0  0  0  0
   14.7622   -3.8355  -11.5006 O   0  0  0  0  0  0  0  0  0  0  0  0
   15.8706   -4.9906   -9.7034 C   0  0  2  0  0  0  0  0  0  0  0  0
   15.2499   -6.2367  -10.0913 N   0  0  0  0  0  0  0  0  0  0  0  0
   15.0690   -4.3505   -8.6150 C   0  0  0  0  0  0  0  0  0  0  0  0
   13.7972   -4.8000   -8.2860 O   0  0  0  0  0  0  0  0  0  0  0  0
   15.5189   -3.3786   -7.9558 O   0  0  0  0  0  0  0  0  0  0  0  0
  2  1  1  6
  2  3  1  0
  4 10  1  0
  4  2  1  0
  5  4  2  0
  7  6  1  6
  7  8  1  0
  9  7  1  0
  9 10  1  1
 11 17  1  0
 11  9  1  0
 12 11  2  0
 14 13  1  6
 14 15  1  0
 16 17  1  6
 16 14  1  0
 18 19  1  0
 18 16  1  0
 20 18  2  0
M  END
$$$$
