AVT.pdb
     RDKit          3D

 20 19  0  0  1  0  0  0  0  0999 V2000
   20.3129  -12.3826  -19.9450 C   0  0  0  0  0  0  0  0  0  0  0  0
   21.3670  -12.8910  -18.9883 C   0  0  2  0  0  0  0  0  0  0  0  0
   21.1097  -14.3182  -18.8066 N   0  0  0  0  0  0  0  0  0  0  0  0
   21.1739  -12.2536  -17.6589 C   0  0  0  0  0  0  0  0  0  0  0  0
   20.2183  -12.5409  -16.8895 O   0  0  0  0  0  0  0  0  0  0  0  0
   23.0819  -12.3416  -14.5810 C   0  0  0  0  0  0  0  0  0  0  0  0
   23.0008  -10.8941  -14.9319 C   0  0  1  0  0  0  0  0  0  0  0  0
   24.3236  -10.4665  -15.5296 C   0  0  0  0  0  0  0  0  0  0  0  0
   21.9122  -10.5745  -15.9313 C   0  0  2  0  0  0  0  0  0  0  0  0
   22.0975  -11.2533  -17.1828 N   0  0  0  0  0  0  0  0  0  0  0  0
   21.7974   -9.0924  -16.1154 C   0  0  0  0  0  0  0  0  0  0  0  0
   22.7116   -8.4873  -16.7318 O   0  0  0  0  0  0  0  0  0  0  0  0
   19.3273   -7.0807  -18.0585 C   0  0  0  0  0  0  0  0  0  0  0  0
   19.3345   -6.5764  -16.6504 C   0  0  1  0  0  0  0  0  0  0  0  0
   18.1876   -7.0236  -16.0126 O   0  0  0  0  0  0  0  0  0  0  0  0
   20.5894   -6.9183  -15.8987 C   0  0  2  0  0  0  0  0  0  0  0  0
   20.7147   -8.3333  -15.6331 N   0  0  0  0  0  0  0  0  0  0  0  0
   20.5656   -6.1672  -14.6056 C   0  0  0  0  0  0  0  0  0  0  0  0
   20.3717   -6.8125  -13.3916 O   0  0  0  0  0  0  0  0  0  0  0  0
   20.7209   -4.9198  -14.5702 O   0  0  0  0  0  0  0  0  0  0  0  0
  2  1  1  6
  2  3  1  0
  4 10  1  0
  4  2  1  0
  5  4  2  0
  7  6  1  6
  7  8  1  0
  9  7  1  0
  9 10  1  6
 11 17  1  0
 11  9  1  0
 12 11  2  0
 14 13  1  6
 14 15  1  0
 16 17  1  1
 16 14  1  0
 18 19  1  0
 18 16  1  0
 20 18  2  0
M  END
$$$$
