AVT.pdb
     RDKit          3D

 20 19  0  0  1  0  0  0  0  0999 V2000
   18.0763  -10.7025  -18.2450 C   0  0  0  0  0  0  0  0  0  0  0  0
   19.1469  -11.4648  -17.4984 C   0  0  2  0  0  0  0  0  0  0  0  0
   18.5235  -12.6979  -17.0221 N   0  0  0  0  0  0  0  0  0  0  0  0
   19.5450  -10.6972  -16.2886 C   0  0  0  0  0  0  0  0  0  0  0  0
   18.7895  -10.5409  -15.2925 O   0  0  0  0  0  0  0  0  0  0  0  0
   22.0922  -11.7335  -14.0837 C   0  0  0  0  0  0  0  0  0  0  0  0
   22.4687  -10.3209  -14.3798 C   0  0  1  0  0  0  0  0  0  0  0  0
   23.6231  -10.3230  -15.3582 C   0  0  0  0  0  0  0  0  0  0  0  0
   21.3454   -9.5102  -14.9853 C   0  0  2  0  0  0  0  0  0  0  0  0
   20.8476  -10.0837  -16.2038 N   0  0  0  0  0  0  0  0  0  0  0  0
   21.7777   -8.0889  -15.1768 C   0  0  0  0  0  0  0  0  0  0  0  0
   22.5003   -7.8050  -16.1663 O   0  0  0  0  0  0  0  0  0  0  0  0
   20.0489   -5.1641  -16.3082 C   0  0  0  0  0  0  0  0  0  0  0  0
   20.5970   -4.8257  -14.9584 C   0  0  1  0  0  0  0  0  0  0  0  0
   19.5648   -4.8772  -14.0343 O   0  0  0  0  0  0  0  0  0  0  0  0
   21.7754   -5.6690  -14.5624 C   0  0  2  0  0  0  0  0  0  0  0  0
   21.4173   -7.0451  -14.3041 N   0  0  0  0  0  0  0  0  0  0  0  0
   22.3729   -5.0683  -13.3300 C   0  0  0  0  0  0  0  0  0  0  0  0
   22.3023   -5.7079  -12.0997 O   0  0  0  0  0  0  0  0  0  0  0  0
   22.9630   -3.9582  -13.3628 O   0  0  0  0  0  0  0  0  0  0  0  0
  2  1  1  1
  2  3  1  0
  4 10  1  0
  4  2  1  0
  5  4  2  0
  7  6  1  6
  7  8  1  0
  9  7  1  0
  9 10  1  6
 11 17  1  0
 11  9  1  0
 12 11  2  0
 14 13  1  6
 14 15  1  0
 16 17  1  1
 16 14  1  0
 18 19  1  0
 18 16  1  0
 20 18  2  0
M  END
$$$$
