AVT.pdb
     RDKit          3D

 20 19  0  0  1  0  0  0  0  0999 V2000
   19.2626  -13.4313  -19.2858 C   0  0  0  0  0  0  0  0  0  0  0  0
   20.4558  -14.0232  -18.5712 C   0  0  2  0  0  0  0  0  0  0  0  0
   20.0506  -15.3516  -18.1159 N   0  0  0  0  0  0  0  0  0  0  0  0
   20.7430  -13.2263  -17.3491 C   0  0  0  0  0  0  0  0  0  0  0  0
   20.0131  -13.2525  -16.3224 O   0  0  0  0  0  0  0  0  0  0  0  0
   23.8473  -13.3735  -15.2162 C   0  0  0  0  0  0  0  0  0  0  0  0
   23.6559  -11.9525  -15.6271 C   0  0  1  0  0  0  0  0  0  0  0  0
   24.6085  -11.6447  -16.7618 C   0  0  0  0  0  0  0  0  0  0  0  0
   22.2531  -11.6434  -16.0988 C   0  0  2  0  0  0  0  0  0  0  0  0
   21.9001  -12.3675  -17.2874 N   0  0  0  0  0  0  0  0  0  0  0  0
   22.0805  -10.1662  -16.2770 C   0  0  0  0  0  0  0  0  0  0  0  0
   22.6599   -9.6018  -17.2400 O   0  0  0  0  0  0  0  0  0  0  0  0
   19.4930   -8.0772  -17.5431 C   0  0  0  0  0  0  0  0  0  0  0  0
   19.7466   -7.6110  -16.1447 C   0  0  1  0  0  0  0  0  0  0  0  0
   18.7381   -8.0947  -15.3257 O   0  0  0  0  0  0  0  0  0  0  0  0
   21.1200   -7.9515  -15.6402 C   0  0  2  0  0  0  0  0  0  0  0  0
   21.2997   -9.3684  -15.4197 N   0  0  0  0  0  0  0  0  0  0  0  0
   21.3296   -7.2152  -14.3554 C   0  0  0  0  0  0  0  0  0  0  0  0
   21.4006   -7.8793  -13.1381 O   0  0  0  0  0  0  0  0  0  0  0  0
   21.4497   -5.9636  -14.3303 O   0  0  0  0  0  0  0  0  0  0  0  0
  2  1  1  1
  2  3  1  0
  4 10  1  0
  4  2  1  0
  5  4  2  0
  7  6  1  6
  7  8  1  0
  9  7  1  0
  9 10  1  6
 11 17  1  0
 11  9  1  0
 12 11  2  0
 14 13  1  6
 14 15  1  0
 16 17  1  1
 16 14  1  0
 18 19  1  0
 18 16  1  0
 20 18  2  0
M  END
$$$$
