AVT.pdb
     RDKit          3D

 20 19  0  0  1  0  0  0  0  0999 V2000
   15.5282  -12.2144  -12.4145 C   0  0  0  0  0  0  0  0  0  0  0  0
   14.9065  -11.9166  -11.0694 C   0  0  2  0  0  0  0  0  0  0  0  0
   13.6035  -12.5786  -11.0581 N   0  0  0  0  0  0  0  0  0  0  0  0
   14.6408  -10.4576  -10.9619 C   0  0  0  0  0  0  0  0  0  0  0  0
   13.6302   -9.9022  -11.4696 O   0  0  0  0  0  0  0  0  0  0  0  0
   15.7144   -6.0719   -8.9091 C   0  0  0  0  0  0  0  0  0  0  0  0
   15.5627   -7.5557   -8.8917 C   0  0  1  0  0  0  0  0  0  0  0  0
   14.3222   -7.9057   -8.0990 C   0  0  0  0  0  0  0  0  0  0  0  0
   15.4240   -8.1652  -10.2683 C   0  0  2  0  0  0  0  0  0  0  0  0
   15.5538   -9.5950  -10.2528 N   0  0  0  0  0  0  0  0  0  0  0  0
   16.3946   -7.5300  -11.2160 C   0  0  0  0  0  0  0  0  0  0  0  0
   17.6261   -7.6890  -11.0165 O   0  0  0  0  0  0  0  0  0  0  0  0
   17.5197   -5.8832  -15.6863 C   0  0  0  0  0  0  0  0  0  0  0  0
   16.4929   -6.3223  -14.6913 C   0  0  1  0  0  0  0  0  0  0  0  0
   16.0644   -7.5969  -15.0287 O   0  0  0  0  0  0  0  0  0  0  0  0
   16.9591   -6.2229  -13.2668 C   0  0  2  0  0  0  0  0  0  0  0  0
   16.0019   -6.7588  -12.3260 N   0  0  0  0  0  0  0  0  0  0  0  0
   17.2007   -4.7780  -12.9656 C   0  0  0  0  0  0  0  0  0  0  0  0
   18.4740   -4.2265  -13.0139 O   0  0  0  0  0  0  0  0  0  0  0  0
   16.2565   -4.0070  -12.6565 O   0  0  0  0  0  0  0  0  0  0  0  0
  2  1  1  6
  2  3  1  0
  4 10  1  0
  4  2  1  0
  5  4  2  0
  7  6  1  6
  7  8  1  0
  9  7  1  0
  9 10  1  1
 11 17  1  0
 11  9  1  0
 12 11  2  0
 14 13  1  6
 14 15  1  0
 16 17  1  1
 16 14  1  0
 18 19  1  0
 18 16  1  0
 20 18  2  0
M  END
$$$$
