AVT.pdb
     RDKit          3D

 20 19  0  0  1  0  0  0  0  0999 V2000
   18.2937  -25.5761   -8.2314 C   0  0  0  0  0  0  0  0  0  0  0  0
   18.9790  -24.5942   -7.3089 C   0  0  2  0  0  0  0  0  0  0  0  0
   18.0497  -24.3380   -6.2103 N   0  0  0  0  0  0  0  0  0  0  0  0
   19.1641  -23.2999   -8.0171 C   0  0  0  0  0  0  0  0  0  0  0  0
   18.2855  -22.3972   -8.0432 O   0  0  0  0  0  0  0  0  0  0  0  0
   22.2197  -19.9334   -9.9324 C   0  0  0  0  0  0  0  0  0  0  0  0
   21.9797  -21.2147   -9.2074 C   0  0  1  0  0  0  0  0  0  0  0  0
   22.1477  -20.9695   -7.7236 C   0  0  0  0  0  0  0  0  0  0  0  0
   20.5984  -21.7868   -9.4322 C   0  0  2  0  0  0  0  0  0  0  0  0
   20.3902  -23.0173   -8.7223 N   0  0  0  0  0  0  0  0  0  0  0  0
   20.3341  -21.9404  -10.8986 C   0  0  0  0  0  0  0  0  0  0  0  0
   20.9875  -22.7998  -11.5438 O   0  0  0  0  0  0  0  0  0  0  0  0
   16.9462  -22.7674  -12.8274 C   0  0  0  0  0  0  0  0  0  0  0  0
   17.5790  -21.4740  -13.2320 C   0  0  1  0  0  0  0  0  0  0  0  0
   16.8989  -20.4349  -12.6156 O   0  0  0  0  0  0  0  0  0  0  0  0
   19.0598  -21.4288  -12.9836 C   0  0  2  0  0  0  0  0  0  0  0  0
   19.3876  -21.1703  -11.6001 N   0  0  0  0  0  0  0  0  0  0  0  0
   19.6339  -20.3482  -13.8436 C   0  0  0  0  0  0  0  0  0  0  0  0
   19.6463  -20.4483  -15.2284 O   0  0  0  0  0  0  0  0  0  0  0  0
   20.1281  -19.3060  -13.3425 O   0  0  0  0  0  0  0  0  0  0  0  0
  2  1  1  6
  2  3  1  0
  4 10  1  0
  4  2  1  0
  5  4  2  0
  7  6  1  6
  7  8  1  0
  9  7  1  0
  9 10  1  1
 11 17  1  0
 11  9  1  0
 12 11  2  0
 14 13  1  1
 14 15  1  0
 16 17  1  1
 16 14  1  0
 18 19  1  0
 18 16  1  0
 20 18  2  0
M  END
$$$$
