AVT.pdb
     RDKit          3D

 20 19  0  0  1  0  0  0  0  0999 V2000
   19.0104  -14.5817  -18.0261 C   0  0  0  0  0  0  0  0  0  0  0  0
   19.2525  -13.1195  -18.3234 C   0  0  2  0  0  0  0  0  0  0  0  0
   20.2571  -13.0720  -19.3839 N   0  0  0  0  0  0  0  0  0  0  0  0
   19.8624  -12.4694  -17.1333 C   0  0  0  0  0  0  0  0  0  0  0  0
   19.2948  -12.4185  -16.0096 O   0  0  0  0  0  0  0  0  0  0  0  0
   23.8053  -10.6160  -14.8096 C   0  0  0  0  0  0  0  0  0  0  0  0
   23.1706  -11.4540  -15.8679 C   0  0  1  0  0  0  0  0  0  0  0  0
   23.2217  -12.9025  -15.4331 C   0  0  0  0  0  0  0  0  0  0  0  0
   21.7257  -11.0979  -16.1353 C   0  0  2  0  0  0  0  0  0  0  0  0
   21.1640  -11.8539  -17.2189 N   0  0  0  0  0  0  0  0  0  0  0  0
   21.5888   -9.6230  -16.3578 C   0  0  0  0  0  0  0  0  0  0  0  0
   22.2837   -9.0799  -17.2545 O   0  0  0  0  0  0  0  0  0  0  0  0
   18.5995   -7.5820  -17.4842 C   0  0  0  0  0  0  0  0  0  0  0  0
   19.1099   -7.0412  -16.1864 C   0  0  1  0  0  0  0  0  0  0  0  0
   18.2510   -7.4361  -15.1723 O   0  0  0  0  0  0  0  0  0  0  0  0
   20.5418   -7.4012  -15.9098 C   0  0  2  0  0  0  0  0  0  0  0  0
   20.7187   -8.8045  -15.6133 N   0  0  0  0  0  0  0  0  0  0  0  0
   21.0014   -6.5826  -14.7456 C   0  0  0  0  0  0  0  0  0  0  0  0
   21.1682   -5.2076  -14.8422 O   0  0  0  0  0  0  0  0  0  0  0  0
   21.2545   -7.1112  -13.6329 O   0  0  0  0  0  0  0  0  0  0  0  0
  2  1  1  1
  2  3  1  0
  4 10  1  0
  4  2  1  0
  5  4  2  0
  7  6  1  1
  7  8  1  0
  9  7  1  0
  9 10  1  6
 11 17  1  0
 11  9  1  0
 12 11  2  0
 14 13  1  6
 14 15  1  0
 16 17  1  1
 16 14  1  0
 18 19  1  0
 18 16  1  0
 20 18  2  0
M  END
$$$$
