RCF.pdb
     RDKit          3D

 29 29  0  0  1  0  0  0  0  0999 V2000
   30.8796  -24.8306  -15.4863 N   0  0  0  0  0  0  0  0  0  0  0  0
   30.5818  -25.1487  -16.8381 C   0  0  0  0  0  0  0  0  0  0  0  0
   31.2020  -26.0959  -17.4448 N   0  0  0  0  0  0  0  0  0  0  0  0
   29.5743  -24.3899  -17.5441 N   0  0  0  0  0  0  0  0  0  0  0  0
   28.7981  -23.4351  -16.8581 C   0  0  0  0  0  0  0  0  0  0  0  0
   29.4201  -22.4708  -15.9446 C   0  0  0  0  0  0  0  0  0  0  0  0
   28.6391  -21.4228  -15.2737 C   0  0  0  0  0  0  0  0  0  0  0  0
   27.1680  -21.3412  -15.4612 C   0  0  2  0  0  0  0  0  0  0  0  0
   26.8306  -20.7148  -16.6868 N   0  0  0  0  0  0  0  0  0  0  0  0
   26.4062  -20.7937  -14.3299 C   0  0  0  0  0  0  0  0  0  0  0  0
   26.2284  -19.5236  -14.3450 O   0  0  0  0  0  0  0  0  0  0  0  0
   30.9495  -26.3036  -18.4313 N   0  0  0  0  0  0  0  0  0  0  0  0
   25.8454  -21.4569  -13.2273 C   0  0  2  0  0  0  0  0  0  0  0  0
   25.2118  -20.7753  -12.1142 C   0  0  0  0  0  0  0  0  0  0  0  0
   23.7752  -21.1767  -11.9568 S   0  0  0  0  0  0  0  0  0  0  0  0
   22.8226  -20.8844  -13.4658 C   0  0  0  0  0  0  0  0  0  0  0  0
   25.8834  -21.0541  -10.8261 O   0  0  0  0  0  0  0  0  0  0  0  0
   26.1293  -22.2577  -10.5827 N   0  0  0  0  0  0  0  0  0  0  0  0
   26.2669  -20.0993   -9.8597 C   0  0  2  0  0  0  0  0  0  0  0  0
   26.8138  -20.4106   -8.5853 C   0  0  0  0  0  0  0  0  0  0  0  0
   27.7116  -19.3829   -7.9894 C   0  0  0  0  0  0  0  0  0  0  0  0
   28.2344  -19.6828   -6.6506 C   0  0  0  0  0  0  0  0  0  0  0  0
   29.3030  -20.5305   -6.4376 C   0  0  0  0  0  0  0  0  0  0  0  0
   29.7729  -20.8043   -5.1697 C   0  0  0  0  0  0  0  0  0  0  0  0
   29.1699  -20.2237   -4.0758 C   0  0  0  0  0  0  0  0  0  0  0  0
   28.1137  -19.3838   -4.2620 C   0  0  0  0  0  0  0  0  0  0  0  0
   27.6625  -19.1256   -5.5348 C   0  0  0  0  0  0  0  0  0  0  0  0
   25.7329  -20.7032   -7.6164 O   0  0  0  0  0  0  0  0  0  0  0  0
   25.9305  -21.6404   -6.5862 O   0  0  0  0  0  0  0  0  0  0  0  0
  1  2  1  0
  2  4  1  0
  2  3  2  0
  4  5  1  0
  5  6  1  0
  6  7  1  0
  7  8  1  0
  8 10  1  0
  8  9  1  6
 10 11  2  0
 12 13  1  0
 12 10  1  0
 14 15  1  0
 13 14  1  6
 16 17  2  0
 16 13  1  0
 18 16  1  0
 19 18  1  0
 19 27  1  0
 19 20  1  1
 21 20  1  0
 22 21  2  0
 23 22  1  0
 24 23  2  0
 24 25  1  0
 25 26  2  0
 26 21  1  0
 27 29  2  0
 27 28  1  0
M  END
$$$$
