RCF.pdb
     RDKit          3D

 29 29  0  0  1  0  0  0  0  0999 V2000
   28.2212  -20.4889  -18.6495 N   0  0  0  0  0  0  0  0  0  0  0  0
   28.8740  -19.2439  -18.8518 C   0  0  0  0  0  0  0  0  0  0  0  0
   29.0179  -18.7590  -20.0325 N   0  0  0  0  0  0  0  0  0  0  0  0
   29.3924  -18.5173  -17.7149 N   0  0  0  0  0  0  0  0  0  0  0  0
   28.8592  -18.7402  -16.4301 C   0  0  0  0  0  0  0  0  0  0  0  0
   27.4283  -19.0006  -16.2406 C   0  0  0  0  0  0  0  0  0  0  0  0
   26.8762  -19.3846  -14.9345 C   0  0  0  0  0  0  0  0  0  0  0  0
   27.1634  -20.7227  -14.3576 C   0  0  2  0  0  0  0  0  0  0  0  0
   27.5643  -21.6472  -15.3541 N   0  0  0  0  0  0  0  0  0  0  0  0
   26.1291  -21.2753  -13.4717 C   0  0  0  0  0  0  0  0  0  0  0  0
   25.2912  -22.0712  -14.0280 O   0  0  0  0  0  0  0  0  0  0  0  0
   29.5692  -17.8854  -20.1474 N   0  0  0  0  0  0  0  0  0  0  0  0
   25.9179  -21.0566  -12.1014 C   0  0  2  0  0  0  0  0  0  0  0  0
   24.6574  -21.3118  -11.4299 C   0  0  0  0  0  0  0  0  0  0  0  0
   24.7218  -20.9714   -9.9706 S   0  0  0  0  0  0  0  0  0  0  0  0
   26.0548  -19.8048   -9.6070 C   0  0  0  0  0  0  0  0  0  0  0  0
   23.5420  -20.5312  -12.0083 O   0  0  0  0  0  0  0  0  0  0  0  0
   23.8611  -19.4880  -12.6235 N   0  0  0  0  0  0  0  0  0  0  0  0
   22.1694  -20.8514  -11.9309 C   0  0  1  0  0  0  0  0  0  0  0  0
   21.1858  -20.4345  -12.8682 C   0  0  0  0  0  0  0  0  0  0  0  0
   21.4649  -20.7537  -14.2957 C   0  0  0  0  0  0  0  0  0  0  0  0
   21.7194  -19.6055  -15.1746 C   0  0  0  0  0  0  0  0  0  0  0  0
   20.7575  -19.0770  -16.0121 C   0  0  0  0  0  0  0  0  0  0  0  0
   21.0211  -18.0021  -16.8357 C   0  0  0  0  0  0  0  0  0  0  0  0
   22.2737  -17.4290  -16.8339 C   0  0  0  0  0  0  0  0  0  0  0  0
   23.2386  -17.9339  -16.0155 C   0  0  0  0  0  0  0  0  0  0  0  0
   22.9532  -19.0059  -15.2032 C   0  0  0  0  0  0  0  0  0  0  0  0
   19.8630  -20.9983  -12.5149 O   0  0  0  0  0  0  0  0  0  0  0  0
   18.6866  -20.4661  -13.0731 O   0  0  0  0  0  0  0  0  0  0  0  0
  1  2  1  0
  2  4  1  0
  2  3  2  0
  4  5  1  0
  5  6  1  0
  6  7  1  0
  7  8  1  0
  8 10  1  0
  8  9  1  6
 10 11  2  0
 12 13  1  0
 12 10  1  0
 14 15  1  0
 13 14  1  1
 16 17  2  0
 16 13  1  0
 18 16  1  0
 19 18  1  0
 19 27  1  0
 19 20  1  1
 21 20  1  0
 22 21  2  0
 23 22  1  0
 24 23  2  0
 24 25  1  0
 25 26  2  0
 26 21  1  0
 27 29  2  0
 27 28  1  0
M  END
$$$$
