RCF.pdb
     RDKit          3D

 29 29  0  0  1  0  0  0  0  0999 V2000
   27.7313  -17.7197  -18.3876 N   0  0  0  0  0  0  0  0  0  0  0  0
   28.5104  -16.6155  -17.9509 C   0  0  0  0  0  0  0  0  0  0  0  0
   29.2312  -15.9484  -18.7788 N   0  0  0  0  0  0  0  0  0  0  0  0
   28.5001  -16.2431  -16.5543 N   0  0  0  0  0  0  0  0  0  0  0  0
   27.8933  -17.0857  -15.6022 C   0  0  0  0  0  0  0  0  0  0  0  0
   27.0370  -18.2017  -16.0175 C   0  0  0  0  0  0  0  0  0  0  0  0
   26.3807  -19.0809  -15.0405 C   0  0  0  0  0  0  0  0  0  0  0  0
   27.1678  -20.0857  -14.2811 C   0  0  2  0  0  0  0  0  0  0  0  0
   27.9304  -20.9131  -15.1426 N   0  0  0  0  0  0  0  0  0  0  0  0
   26.4220  -20.8632  -13.2814 C   0  0  0  0  0  0  0  0  0  0  0  0
   25.8289  -21.9106  -13.7246 O   0  0  0  0  0  0  0  0  0  0  0  0
   29.7980  -15.1555  -18.4179 N   0  0  0  0  0  0  0  0  0  0  0  0
   26.2574  -20.6261  -11.9079 C   0  0  2  0  0  0  0  0  0  0  0  0
   25.0972  -21.0552  -11.1498 C   0  0  0  0  0  0  0  0  0  0  0  0
   25.1723  -20.6188   -9.7168 S   0  0  0  0  0  0  0  0  0  0  0  0
   26.8410  -20.7962   -9.0429 C   0  0  0  0  0  0  0  0  0  0  0  0
   23.8336  -20.5186  -11.7006 O   0  0  0  0  0  0  0  0  0  0  0  0
   23.9243  -19.4478  -12.3436 N   0  0  0  0  0  0  0  0  0  0  0  0
   22.5524  -21.0965  -11.5689 C   0  0  1  0  0  0  0  0  0  0  0  0
   21.4736  -20.8902  -12.4709 C   0  0  0  0  0  0  0  0  0  0  0  0
   21.7459  -21.2062  -13.9004 C   0  0  0  0  0  0  0  0  0  0  0  0
   21.9250  -20.0536  -14.7920 C   0  0  0  0  0  0  0  0  0  0  0  0
   20.8764  -19.2536  -15.2000 C   0  0  0  0  0  0  0  0  0  0  0  0
   21.0666  -18.1798  -16.0449 C   0  0  0  0  0  0  0  0  0  0  0  0
   22.3317  -17.8845  -16.5029 C   0  0  0  0  0  0  0  0  0  0  0  0
   23.3816  -18.6602  -16.1135 C   0  0  0  0  0  0  0  0  0  0  0  0
   23.1682  -19.7255  -15.2708 C   0  0  0  0  0  0  0  0  0  0  0  0
   20.2855  -21.6624  -12.0412 O   0  0  0  0  0  0  0  0  0  0  0  0
   18.9966  -21.1086  -12.1455 O   0  0  0  0  0  0  0  0  0  0  0  0
  1  2  1  0
  2  4  1  0
  2  3  2  0
  4  5  1  0
  5  6  1  0
  6  7  1  0
  7  8  1  0
  8 10  1  0
  8  9  1  6
 10 11  2  0
 12 13  1  0
 12 10  1  0
 14 15  1  0
 13 14  1  6
 16 17  2  0
 16 13  1  0
 18 16  1  0
 19 18  1  0
 19 27  1  0
 19 20  1  1
 21 20  1  0
 22 21  2  0
 23 22  1  0
 24 23  2  0
 24 25  1  0
 25 26  2  0
 26 21  1  0
 27 29  2  0
 27 28  1  0
M  END
$$$$
