MMT.pdb
     RDKit          3D

 24 23  0  0  1  0  0  0  0  0999 V2000
   29.4643  -23.9115  -16.4973 C   0  0  0  0  0  0  0  0  0  0  0  0
   29.8363  -22.3401  -17.2860 S   0  0  0  0  0  0  0  0  0  0  0  0
   28.6557  -21.0841  -16.6851 C   0  0  0  0  0  0  0  0  0  0  0  0
   27.9106  -21.6751  -15.5199 C   0  0  0  0  0  0  0  0  0  0  0  0
   26.8365  -20.7787  -14.9587 C   0  0  2  0  0  0  0  0  0  0  0  0
   27.4980  -19.4879  -14.7209 N   0  0  0  0  0  0  0  0  0  0  0  0
   26.4717  -21.2800  -13.6040 C   0  0  0  0  0  0  0  0  0  0  0  0
   26.0187  -22.4723  -13.5546 O   0  0  0  0  0  0  0  0  0  0  0  0
   28.2209  -20.1986   -7.3401 C   0  0  0  0  0  0  0  0  0  0  0  0
   26.4510  -20.3923   -7.2078 S   0  0  0  0  0  0  0  0  0  0  0  0
   25.6156  -20.6582   -8.7499 C   0  0  0  0  0  0  0  0  0  0  0  0
   26.3550  -20.4446  -10.0061 C   0  0  0  0  0  0  0  0  0  0  0  0
   25.7172  -20.6826  -11.3161 C   0  0  2  0  0  0  0  0  0  0  0  0
   26.6088  -20.5029  -12.4260 N   0  0  0  0  0  0  0  0  0  0  0  0
   24.3753  -20.1315  -11.5184 C   0  0  0  0  0  0  0  0  0  0  0  0
   24.1496  -18.9833  -11.9913 O   0  0  0  0  0  0  0  0  0  0  0  0
   22.9557  -19.6195  -13.6968 C   0  0  0  0  0  0  0  0  0  0  0  0
   21.8789  -20.4911  -13.0944 C   0  0  1  0  0  0  0  0  0  0  0  0
   22.0271  -21.7710  -13.6004 O   0  0  0  0  0  0  0  0  0  0  0  0
   21.8953  -20.4446  -11.5836 C   0  0  2  0  0  0  0  0  0  0  0  0
   23.2337  -20.8940  -11.1793 N   0  0  0  0  0  0  0  0  0  0  0  0
   20.8517  -21.3229  -11.0377 C   0  0  0  0  0  0  0  0  0  0  0  0
   21.1382  -22.4799  -10.3151 O   0  0  0  0  0  0  0  0  0  0  0  0
   19.6537  -20.9943  -11.2450 O   0  0  0  0  0  0  0  0  0  0  0  0
  1  2  1  0
  3  2  1  0
  4  3  1  0
  5  4  1  0
  5  6  1  1
  7  8  2  0
  7  5  1  0
  9 10  1  0
 10 11  1  0
 11 12  1  0
 13 12  1  1
 13 14  1  0
 14  7  1  0
 15 21  1  0
 15 13  1  0
 16 15  2  0
 18 17  1  6
 18 20  1  0
 19 18  1  0
 20 21  1  1
 20 22  1  0
 22 23  1  0
 24 22  2  0
M  END
$$$$
