MMT.pdb
     RDKit          3D

 24 23  0  0  1  0  0  0  0  0999 V2000
   20.3530  -27.3974  -10.5954 C   0  0  0  0  0  0  0  0  0  0  0  0
   19.1157  -27.8097  -11.8319 S   0  0  0  0  0  0  0  0  0  0  0  0
   19.7568  -27.3602  -13.4809 C   0  0  0  0  0  0  0  0  0  0  0  0
   20.5841  -26.1135  -13.3275 C   0  0  0  0  0  0  0  0  0  0  0  0
   21.1844  -25.6118  -14.6159 C   0  0  2  0  0  0  0  0  0  0  0  0
   22.4976  -26.2653  -14.7088 N   0  0  0  0  0  0  0  0  0  0  0  0
   21.4861  -24.1617  -14.4559 C   0  0  0  0  0  0  0  0  0  0  0  0
   22.0005  -23.8196  -13.3390 O   0  0  0  0  0  0  0  0  0  0  0  0
   25.7590  -19.1233  -16.6812 C   0  0  0  0  0  0  0  0  0  0  0  0
   24.0940  -19.2444  -17.3141 S   0  0  0  0  0  0  0  0  0  0  0  0
   22.8979  -19.8419  -16.1484 C   0  0  0  0  0  0  0  0  0  0  0  0
   22.5206  -21.2656  -16.1820 C   0  0  0  0  0  0  0  0  0  0  0  0
   21.5142  -21.8099  -15.2490 C   0  0  2  0  0  0  0  0  0  0  0  0
   21.2283  -23.1994  -15.4649 N   0  0  0  0  0  0  0  0  0  0  0  0
   20.3373  -20.9821  -14.9749 C   0  0  0  0  0  0  0  0  0  0  0  0
   19.2439  -21.0849  -15.5969 O   0  0  0  0  0  0  0  0  0  0  0  0
   20.2372  -18.8556  -11.4036 C   0  0  0  0  0  0  0  0  0  0  0  0
   19.0016  -19.2972  -12.1520 C   0  0  1  0  0  0  0  0  0  0  0  0
   17.9284  -18.5562  -11.6879 O   0  0  0  0  0  0  0  0  0  0  0  0
   19.1850  -19.2021  -13.6494 C   0  0  2  0  0  0  0  0  0  0  0  0
   20.3802  -19.9962  -13.9620 N   0  0  0  0  0  0  0  0  0  0  0  0
   19.3580  -17.7997  -14.0514 C   0  0  0  0  0  0  0  0  0  0  0  0
   18.2846  -16.9482  -14.3077 O   0  0  0  0  0  0  0  0  0  0  0  0
   20.5373  -17.3719  -14.1625 O   0  0  0  0  0  0  0  0  0  0  0  0
  1  2  1  0
  3  2  1  0
  4  3  1  0
  5  4  1  0
  5  6  1  1
  7  8  2  0
  7  5  1  0
  9 10  1  0
 10 11  1  0
 11 12  1  0
 13 12  1  6
 13 14  1  0
 14  7  1  0
 15 21  1  0
 15 13  1  0
 16 15  2  0
 18 17  1  1
 18 20  1  0
 19 18  1  0
 20 21  1  1
 20 22  1  0
 22 23  1  0
 24 22  2  0
M  END
$$$$
