MMT.pdb
     RDKit          3D

 24 23  0  0  1  0  0  0  0  0999 V2000
   26.2313  -17.2239  -17.5482 C   0  0  0  0  0  0  0  0  0  0  0  0
   27.7866  -16.8590  -16.7251 S   0  0  0  0  0  0  0  0  0  0  0  0
   28.4481  -18.4000  -16.0038 C   0  0  0  0  0  0  0  0  0  0  0  0
   27.3173  -19.1007  -15.3021 C   0  0  0  0  0  0  0  0  0  0  0  0
   27.7373  -20.3257  -14.5309 C   0  0  2  0  0  0  0  0  0  0  0  0
   27.9634  -21.3621  -15.5483 N   0  0  0  0  0  0  0  0  0  0  0  0
   26.5663  -20.8061  -13.7451 C   0  0  0  0  0  0  0  0  0  0  0  0
   25.8040  -21.6421  -14.3360 O   0  0  0  0  0  0  0  0  0  0  0  0
   26.2287  -19.4733   -7.2910 C   0  0  0  0  0  0  0  0  0  0  0  0
   26.5374  -21.1406   -7.8499 S   0  0  0  0  0  0  0  0  0  0  0  0
   26.3431  -21.3866   -9.5959 C   0  0  0  0  0  0  0  0  0  0  0  0
   25.1992  -20.7593  -10.2802 C   0  0  0  0  0  0  0  0  0  0  0  0
   25.0872  -20.7786  -11.7521 C   0  0  2  0  0  0  0  0  0  0  0  0
   26.2916  -20.3783  -12.4215 N   0  0  0  0  0  0  0  0  0  0  0  0
   23.8576  -20.2395  -12.3379 C   0  0  0  0  0  0  0  0  0  0  0  0
   23.5080  -19.0299  -12.2513 O   0  0  0  0  0  0  0  0  0  0  0  0
   22.8529  -19.9652  -15.7576 C   0  0  0  0  0  0  0  0  0  0  0  0
   21.7854  -20.8018  -15.0926 C   0  0  1  0  0  0  0  0  0  0  0  0
   22.0133  -22.1283  -15.4162 O   0  0  0  0  0  0  0  0  0  0  0  0
   21.7237  -20.5567  -13.6023 C   0  0  2  0  0  0  0  0  0  0  0  0
   22.9787  -21.0858  -13.0528 N   0  0  0  0  0  0  0  0  0  0  0  0
   20.5594  -21.2406  -13.0233 C   0  0  0  0  0  0  0  0  0  0  0  0
   19.2459  -20.8908  -13.3317 O   0  0  0  0  0  0  0  0  0  0  0  0
   20.7843  -22.1805  -12.2158 O   0  0  0  0  0  0  0  0  0  0  0  0
  1  2  1  0
  3  2  1  0
  4  3  1  0
  5  4  1  0
  5  6  1  6
  7  8  2  0
  7  5  1  0
  9 10  1  0
 10 11  1  0
 11 12  1  0
 13 12  1  1
 13 14  1  0
 14  7  1  0
 15 21  1  0
 15 13  1  0
 16 15  2  0
 18 17  1  1
 18 20  1  0
 19 18  1  0
 20 21  1  1
 20 22  1  0
 22 23  1  0
 24 22  2  0
M  END
$$$$
