MMT.pdb
     RDKit          3D

 24 23  0  0  1  0  0  0  0  0999 V2000
   29.9795  -20.4328   -8.0632 C   0  0  0  0  0  0  0  0  0  0  0  0
   28.7876  -20.5476   -6.7231 S   0  0  0  0  0  0  0  0  0  0  0  0
   27.1211  -20.2048   -7.3846 C   0  0  0  0  0  0  0  0  0  0  0  0
   27.1427  -20.5012   -8.8590 C   0  0  0  0  0  0  0  0  0  0  0  0
   25.8952  -20.0753   -9.5899 C   0  0  2  0  0  0  0  0  0  0  0  0
   24.8569  -21.0245   -9.1644 N   0  0  0  0  0  0  0  0  0  0  0  0
   26.0911  -20.3440  -11.0421 C   0  0  0  0  0  0  0  0  0  0  0  0
   27.0338  -21.1524  -11.3369 O   0  0  0  0  0  0  0  0  0  0  0  0
   25.1969  -24.8045  -13.7709 C   0  0  0  0  0  0  0  0  0  0  0  0
   25.3634  -23.8622  -15.2782 S   0  0  0  0  0  0  0  0  0  0  0  0
   25.4445  -22.1049  -15.0504 C   0  0  0  0  0  0  0  0  0  0  0  0
   25.3485  -21.5588  -13.6856 C   0  0  0  0  0  0  0  0  0  0  0  0
   25.4706  -20.1092  -13.4339 C   0  0  2  0  0  0  0  0  0  0  0  0
   25.2947  -19.7525  -12.0552 N   0  0  0  0  0  0  0  0  0  0  0  0
   24.8166  -19.2065  -14.3842 C   0  0  0  0  0  0  0  0  0  0  0  0
   23.5756  -18.9772  -14.3975 O   0  0  0  0  0  0  0  0  0  0  0  0
   26.4611  -15.7342  -15.1178 C   0  0  0  0  0  0  0  0  0  0  0  0
   26.0683  -16.4398  -16.3944 C   0  0  1  0  0  0  0  0  0  0  0  0
   27.2102  -16.9881  -16.9528 O   0  0  0  0  0  0  0  0  0  0  0  0
   24.9738  -17.4564  -16.1632 C   0  0  2  0  0  0  0  0  0  0  0  0
   25.5796  -18.5284  -15.3628 N   0  0  0  0  0  0  0  0  0  0  0  0
   24.4765  -17.9676  -17.4476 C   0  0  0  0  0  0  0  0  0  0  0  0
   23.8530  -17.1566  -18.3944 O   0  0  0  0  0  0  0  0  0  0  0  0
   24.6322  -19.1956  -17.6798 O   0  0  0  0  0  0  0  0  0  0  0  0
  1  2  1  0
  3  2  1  0
  4  3  1  0
  5  4  1  0
  5  6  1  1
  7  8  2  0
  7  5  1  0
  9 10  1  0
 10 11  1  0
 11 12  1  0
 13 12  1  1
 13 14  1  0
 14  7  1  0
 15 21  1  0
 15 13  1  0
 16 15  2  0
 18 17  1  1
 18 20  1  0
 19 18  1  0
 20 21  1  1
 20 22  1  0
 22 23  1  0
 24 22  2  0
M  END
$$$$
