PPC.pdb
     RDKit          3D

 21 22  0  0  1  0  0  0  0  0999 V2000
    8.7559  -14.1945   21.1574 N   0  0  0  0  0  0  0  0  0  0  0  0
    7.8968  -13.8016   20.0210 C   0  0  0  0  0  0  0  0  0  0  0  0
    6.5627  -14.4404   20.3902 C   0  0  0  0  0  0  0  0  0  0  0  0
    6.6557  -14.7223   21.8915 C   0  0  0  0  0  0  0  0  0  0  0  0
    7.8842  -13.9016   22.2504 C   0  0  1  0  0  0  0  0  0  0  0  0
    8.3974  -14.1513   23.5944 C   0  0  0  0  0  0  0  0  0  0  0  0
    9.4371  -14.8833   23.6734 O   0  0  0  0  0  0  0  0  0  0  0  0
    7.8191  -13.6420   24.7546 N   0  0  0  0  0  0  0  0  0  0  0  0
    6.6767  -12.7693   24.8553 C   0  0  0  0  0  0  0  0  0  0  0  0
    6.2289  -12.8162   26.3232 C   0  0  0  0  0  0  0  0  0  0  0  0
    7.4645  -13.2399   27.0848 C   0  0  0  0  0  0  0  0  0  0  0  0
    8.3304  -13.9608   26.1015 C   0  0  1  0  0  0  0  0  0  0  0  0
    8.3238  -15.4149   26.3424 C   0  0  0  0  0  0  0  0  0  0  0  0
    7.2969  -16.0903   26.0764 O   0  0  0  0  0  0  0  0  0  0  0  0
    9.4338  -16.0961   26.8660 N   0  0  0  0  0  0  0  0  0  0  0  0
    9.5869  -17.4941   27.0241 C   0  0  1  0  0  0  0  0  0  0  0  0
   10.6818  -18.1143   26.2105 C   0  0  0  0  0  0  0  0  0  0  0  0
   12.1880  -17.1379   26.5019 S   0  0  0  0  0  0  0  0  0  0  0  0
    9.8350  -17.8141   28.4447 C   0  0  0  0  0  0  0  0  0  0  0  0
    9.9265  -19.1075   28.9339 O   0  0  0  0  0  0  0  0  0  0  0  0
    9.9715  -16.8737   29.2590 O   0  0  0  0  0  0  0  0  0  0  0  0
  2  1  1  0
  3  2  1  0
  4  3  1  0
  4  5  1  0
  5  1  1  0
  6  8  1  0
  5  6  1  1
  7  6  2  0
  8 12  1  0
  9  8  1  0
 10  9  1  0
 10 11  1  0
 11 12  1  0
 12 13  1  1
 13 15  1  0
 13 14  2  0
 15 16  1  0
 16 17  1  6
 17 18  1  0
 19 16  1  0
 19 20  1  0
 21 19  2  0
M  END
$$$$
