PPC.pdb
     RDKit          3D

 21 22  0  0  1  0  0  0  0  0999 V2000
    8.7486  -14.6715   21.1933 N   0  0  0  0  0  0  0  0  0  0  0  0
    7.9228  -14.3154   20.0207 C   0  0  0  0  0  0  0  0  0  0  0  0
    6.5354  -14.7774   20.4517 C   0  0  0  0  0  0  0  0  0  0  0  0
    6.6128  -14.9100   21.9743 C   0  0  0  0  0  0  0  0  0  0  0  0
    7.9192  -14.1821   22.2483 C   0  0  1  0  0  0  0  0  0  0  0  0
    8.4166  -14.3408   23.6119 C   0  0  0  0  0  0  0  0  0  0  0  0
    9.4829  -15.0247   23.7466 O   0  0  0  0  0  0  0  0  0  0  0  0
    7.7969  -13.7962   24.7340 N   0  0  0  0  0  0  0  0  0  0  0  0
    6.6452  -12.9304   24.7666 C   0  0  0  0  0  0  0  0  0  0  0  0
    6.1499  -12.9296   26.2199 C   0  0  0  0  0  0  0  0  0  0  0  0
    7.3631  -13.3155   27.0357 C   0  0  0  0  0  0  0  0  0  0  0  0
    8.2660  -14.0630   26.1073 C   0  0  1  0  0  0  0  0  0  0  0  0
    8.2625  -15.5077   26.3991 C   0  0  0  0  0  0  0  0  0  0  0  0
    7.2203  -16.1844   26.2057 O   0  0  0  0  0  0  0  0  0  0  0  0
    9.3921  -16.1784   26.8934 N   0  0  0  0  0  0  0  0  0  0  0  0
    9.5048  -17.5538   27.2075 C   0  0  1  0  0  0  0  0  0  0  0  0
   10.5766  -18.2939   26.4666 C   0  0  0  0  0  0  0  0  0  0  0  0
   10.3772  -17.9054   24.7014 S   0  0  0  0  0  0  0  0  0  0  0  0
    9.7510  -17.7193   28.6545 C   0  0  0  0  0  0  0  0  0  0  0  0
    9.8764  -18.9527   29.2741 O   0  0  0  0  0  0  0  0  0  0  0  0
    9.8536  -16.6970   29.3689 O   0  0  0  0  0  0  0  0  0  0  0  0
  2  1  1  0
  3  2  1  0
  4  3  1  0
  4  5  1  0
  5  1  1  0
  6  8  1  0
  5  6  1  1
  7  6  2  0
  8 12  1  0
  9  8  1  0
 10  9  1  0
 10 11  1  0
 11 12  1  0
 12 13  1  1
 13 15  1  0
 13 14  2  0
 15 16  1  0
 16 17  1  6
 17 18  1  0
 19 16  1  0
 19 20  1  0
 21 19  2  0
M  END
$$$$
