PPC.pdb
     RDKit          3D

 21 22  0  0  1  0  0  0  0  0999 V2000
    8.0133  -16.3286   22.2617 N   0  0  0  0  0  0  0  0  0  0  0  0
    7.0276  -17.3309   21.8061 C   0  0  0  0  0  0  0  0  0  0  0  0
    6.6681  -18.0426   23.1055 C   0  0  0  0  0  0  0  0  0  0  0  0
    7.1084  -17.0896   24.2189 C   0  0  0  0  0  0  0  0  0  0  0  0
    7.3451  -15.8196   23.4172 C   0  0  1  0  0  0  0  0  0  0  0  0
    8.0201  -14.7604   24.1618 C   0  0  0  0  0  0  0  0  0  0  0  0
    9.2815  -14.6767   24.0039 O   0  0  0  0  0  0  0  0  0  0  0  0
    7.3674  -13.8681   25.0090 N   0  0  0  0  0  0  0  0  0  0  0  0
    5.9834  -13.8919   25.4100 C   0  0  0  0  0  0  0  0  0  0  0  0
    5.8694  -12.9472   26.6150 C   0  0  0  0  0  0  0  0  0  0  0  0
    7.0437  -12.0053   26.4726 C   0  0  0  0  0  0  0  0  0  0  0  0
    8.0568  -12.7285   25.6439 C   0  0  1  0  0  0  0  0  0  0  0  0
    9.1955  -13.1842   26.4613 C   0  0  0  0  0  0  0  0  0  0  0  0
   10.0301  -12.3496   26.8953 O   0  0  0  0  0  0  0  0  0  0  0  0
    9.3965  -14.5351   26.7853 N   0  0  0  0  0  0  0  0  0  0  0  0
   10.2334  -15.0595   27.7990 C   0  0  1  0  0  0  0  0  0  0  0  0
    9.7326  -14.8791   29.1997 C   0  0  0  0  0  0  0  0  0  0  0  0
   11.0939  -15.3252   30.3197 S   0  0  0  0  0  0  0  0  0  0  0  0
   10.4508  -16.5030   27.5731 C   0  0  0  0  0  0  0  0  0  0  0  0
   11.6323  -17.1575   27.8833 O   0  0  0  0  0  0  0  0  0  0  0  0
    9.5243  -17.1810   27.0750 O   0  0  0  0  0  0  0  0  0  0  0  0
  2  1  1  0
  3  2  1  0
  4  3  1  0
  4  5  1  0
  5  1  1  0
  6  8  1  0
  5  6  1  1
  7  6  2  0
  8 12  1  0
  9  8  1  0
 10  9  1  0
 10 11  1  0
 11 12  1  0
 12 13  1  1
 13 15  1  0
 13 14  2  0
 15 16  1  0
 16 17  1  1
 17 18  1  0
 19 16  1  0
 19 20  1  0
 21 19  2  0
M  END
$$$$
