PPC.pdb
     RDKit          3D

 21 22  0  0  1  0  0  0  0  0999 V2000
    9.4594  -14.1173   17.2866 N   0  0  0  0  0  0  0  0  0  0  0  0
    8.4741  -14.0588   16.1868 C   0  0  0  0  0  0  0  0  0  0  0  0
    7.5495  -15.2240   16.5206 C   0  0  0  0  0  0  0  0  0  0  0  0
    7.8072  -15.5289   17.9980 C   0  0  0  0  0  0  0  0  0  0  0  0
    8.5858  -14.2877   18.4038 C   0  0  1  0  0  0  0  0  0  0  0  0
    9.2048  -14.3760   19.7234 C   0  0  0  0  0  0  0  0  0  0  0  0
   10.4625  -14.5781   19.7432 O   0  0  0  0  0  0  0  0  0  0  0  0
    8.5040  -14.2537   20.9208 N   0  0  0  0  0  0  0  0  0  0  0  0
    7.1099  -13.9313   21.0924 C   0  0  0  0  0  0  0  0  0  0  0  0
    6.7618  -14.2907   22.5440 C   0  0  0  0  0  0  0  0  0  0  0  0
    8.0848  -14.2464   23.2748 C   0  0  0  0  0  0  0  0  0  0  0  0
    9.1392  -14.4612   22.2363 C   0  0  1  0  0  0  0  0  0  0  0  0
    9.7273  -15.8090   22.3362 C   0  0  0  0  0  0  0  0  0  0  0  0
    9.1759  -16.7788   21.7556 O   0  0  0  0  0  0  0  0  0  0  0  0
   10.8991  -16.0668   23.0646 N   0  0  0  0  0  0  0  0  0  0  0  0
   11.5745  -17.3036   23.1947 C   0  0  1  0  0  0  0  0  0  0  0  0
   13.0456  -17.2624   22.9129 C   0  0  0  0  0  0  0  0  0  0  0  0
   13.6771  -18.9574   23.0994 S   0  0  0  0  0  0  0  0  0  0  0  0
   11.3847  -17.8378   24.5588 C   0  0  0  0  0  0  0  0  0  0  0  0
   11.2897  -19.1903   24.8454 O   0  0  0  0  0  0  0  0  0  0  0  0
   11.3041  -17.0340   25.5146 O   0  0  0  0  0  0  0  0  0  0  0  0
  2  1  1  0
  3  2  1  0
  4  3  1  0
  4  5  1  0
  5  1  1  0
  6  8  1  0
  5  6  1  1
  7  6  2  0
  8 12  1  0
  9  8  1  0
 10  9  1  0
 10 11  1  0
 11 12  1  0
 12 13  1  6
 13 15  1  0
 13 14  2  0
 15 16  1  0
 16 17  1  1
 17 18  1  0
 19 16  1  0
 19 20  1  0
 21 19  2  0
M  END
$$$$
