PPC.pdb
     RDKit          3D

 21 22  0  0  1  0  0  0  0  0999 V2000
    8.7814  -14.4127   21.2561 N   0  0  0  0  0  0  0  0  0  0  0  0
    7.9494  -14.0883   20.0787 C   0  0  0  0  0  0  0  0  0  0  0  0
    6.5899  -14.6488   20.4809 C   0  0  0  0  0  0  0  0  0  0  0  0
    6.6560  -14.8061   22.0018 C   0  0  0  0  0  0  0  0  0  0  0  0
    7.9079  -13.9997   22.3081 C   0  0  1  0  0  0  0  0  0  0  0  0
    8.3968  -14.1523   23.6755 C   0  0  0  0  0  0  0  0  0  0  0  0
    9.4666  -14.8290   23.8190 O   0  0  0  0  0  0  0  0  0  0  0  0
    7.7656  -13.6095   24.7922 N   0  0  0  0  0  0  0  0  0  0  0  0
    6.5739  -12.7996   24.8191 C   0  0  0  0  0  0  0  0  0  0  0  0
    6.0976  -12.7853   26.2787 C   0  0  0  0  0  0  0  0  0  0  0  0
    7.3383  -13.0914   27.0869 C   0  0  0  0  0  0  0  0  0  0  0  0
    8.2646  -13.8182   26.1650 C   0  0  1  0  0  0  0  0  0  0  0  0
    8.3348  -15.2534   26.4929 C   0  0  0  0  0  0  0  0  0  0  0  0
    7.3357  -15.9915   26.2962 O   0  0  0  0  0  0  0  0  0  0  0  0
    9.4890  -15.8481   27.0259 N   0  0  0  0  0  0  0  0  0  0  0  0
    9.6918  -17.2176   27.3196 C   0  0  1  0  0  0  0  0  0  0  0  0
   10.8578  -17.8551   26.6272 C   0  0  0  0  0  0  0  0  0  0  0  0
   10.7195  -17.4527   24.8592 S   0  0  0  0  0  0  0  0  0  0  0  0
    9.8697  -17.3975   28.7750 C   0  0  0  0  0  0  0  0  0  0  0  0
   10.0156  -18.6349   29.3817 O   0  0  0  0  0  0  0  0  0  0  0  0
    9.8911  -16.3841   29.5090 O   0  0  0  0  0  0  0  0  0  0  0  0
  2  1  1  0
  3  2  1  0
  4  3  1  0
  4  5  1  0
  5  1  1  0
  6  8  1  0
  5  6  1  1
  7  6  2  0
  8 12  1  0
  9  8  1  0
 10  9  1  0
 10 11  1  0
 11 12  1  0
 12 13  1  1
 13 15  1  0
 13 14  2  0
 15 16  1  0
 16 17  1  6
 17 18  1  0
 19 16  1  0
 19 20  1  0
 21 19  2  0
M  END
$$$$
