PPC.pdb
     RDKit          3D

 21 22  0  0  1  0  0  0  0  0999 V2000
    8.4838  -14.7768   21.3258 N   0  0  0  0  0  0  0  0  0  0  0  0
    7.4506  -14.9659   20.2862 C   0  0  0  0  0  0  0  0  0  0  0  0
    6.4453  -15.8689   20.9920 C   0  0  0  0  0  0  0  0  0  0  0  0
    6.7531  -15.7212   22.4838 C   0  0  0  0  0  0  0  0  0  0  0  0
    7.6591  -14.5005   22.4588 C   0  0  1  0  0  0  0  0  0  0  0  0
    8.3369  -14.2339   23.7243 C   0  0  0  0  0  0  0  0  0  0  0  0
    9.5515  -14.6104   23.8029 O   0  0  0  0  0  0  0  0  0  0  0  0
    7.7341  -13.6080   24.8127 N   0  0  0  0  0  0  0  0  0  0  0  0
    6.4060  -13.0524   24.8801 C   0  0  0  0  0  0  0  0  0  0  0  0
    6.1067  -12.8354   26.3703 C   0  0  0  0  0  0  0  0  0  0  0  0
    7.4678  -12.7291   27.0203 C   0  0  0  0  0  0  0  0  0  0  0  0
    8.4189  -13.4361   26.1083 C   0  0  1  0  0  0  0  0  0  0  0  0
    8.8353  -14.7353   26.6661 C   0  0  0  0  0  0  0  0  0  0  0  0
    8.0701  -15.7295   26.5796 O   0  0  0  0  0  0  0  0  0  0  0  0
   10.0725  -14.9191   27.3030 N   0  0  0  0  0  0  0  0  0  0  0  0
   10.5923  -16.1217   27.8384 C   0  0  1  0  0  0  0  0  0  0  0  0
   12.0726  -16.3009   27.6909 C   0  0  0  0  0  0  0  0  0  0  0  0
   12.5074  -17.8722   28.4964 S   0  0  0  0  0  0  0  0  0  0  0  0
   10.2607  -16.2158   29.2748 C   0  0  0  0  0  0  0  0  0  0  0  0
   10.2150  -17.4117   29.9736 O   0  0  0  0  0  0  0  0  0  0  0  0
   10.0057  -15.1647   29.9043 O   0  0  0  0  0  0  0  0  0  0  0  0
  2  1  1  0
  3  2  1  0
  4  3  1  0
  4  5  1  0
  5  1  1  0
  6  8  1  0
  5  6  1  1
  7  6  2  0
  8 12  1  0
  9  8  1  0
 10  9  1  0
 10 11  1  0
 11 12  1  0
 12 13  1  1
 13 15  1  0
 13 14  2  0
 15 16  1  0
 16 17  1  1
 17 18  1  0
 19 16  1  0
 19 20  1  0
 21 19  2  0
M  END
$$$$
