YDF.pdb
     RDKit          3D

 32 33  0  0  1  0  0  0  0  0999 V2000
   10.0605  -28.1155   12.5446 O   0  0  0  0  0  0  0  0  0  0  0  0
   10.1850  -26.7599   12.2418 C   0  0  0  0  0  0  0  0  0  0  0  0
   11.2287  -26.0033   12.7413 C   0  0  0  0  0  0  0  0  0  0  0  0
   11.3241  -24.6663   12.4238 C   0  0  0  0  0  0  0  0  0  0  0  0
   10.4151  -24.0183   11.6145 C   0  0  0  0  0  0  0  0  0  0  0  0
   10.5325  -22.5709   11.2807 C   0  0  0  0  0  0  0  0  0  0  0  0
    9.6054  -21.8153   12.2019 C   0  0  2  0  0  0  0  0  0  0  0  0
    9.5729  -20.4391   11.7412 N   0  0  0  0  0  0  0  0  0  0  0  0
   10.1889  -21.8402   13.5751 C   0  0  0  0  0  0  0  0  0  0  0  0
   11.1939  -21.1392   13.8610 O   0  0  0  0  0  0  0  0  0  0  0  0
    9.3664  -24.7775   11.1123 C   0  0  0  0  0  0  0  0  0  0  0  0
    9.2731  -26.1162   11.4317 C   0  0  0  0  0  0  0  0  0  0  0  0
    9.6441  -22.6462   14.6108 N   0  0  0  0  0  0  0  0  0  0  0  0
   10.1783  -22.6405   15.9783 C   0  0  1  0  0  0  0  0  0  0  0  0
    9.0746  -22.5090   16.9831 C   0  0  0  0  0  0  0  0  0  0  0  0
    9.6628  -22.2908   18.3212 C   0  0  0  0  0  0  0  0  0  0  0  0
   10.0206  -21.1706   18.7419 O   0  0  0  0  0  0  0  0  0  0  0  0
   11.1117  -23.7457   16.1920 C   0  0  0  0  0  0  0  0  0  0  0  0
   11.1363  -24.7454   15.4327 O   0  0  0  0  0  0  0  0  0  0  0  0
    9.8525  -23.3667   19.2092 O   0  0  0  0  0  0  0  0  0  0  0  0
   12.0619  -23.7846   17.2658 N   0  0  0  0  0  0  0  0  0  0  0  0
   12.9823  -24.8865   17.4747 C   0  0  1  0  0  0  0  0  0  0  0  0
   14.1577  -24.6164   16.5516 C   0  0  0  0  0  0  0  0  0  0  0  0
   14.4138  -25.6656   15.5766 C   0  0  0  0  0  0  0  0  0  0  0  0
   14.1453  -26.9756   15.8787 C   0  0  0  0  0  0  0  0  0  0  0  0
   14.3716  -28.0029   14.9796 C   0  0  0  0  0  0  0  0  0  0  0  0
   14.8840  -27.6829   13.7439 C   0  0  0  0  0  0  0  0  0  0  0  0
   15.1503  -26.3779   13.4459 C   0  0  0  0  0  0  0  0  0  0  0  0
   14.9240  -25.3584   14.3425 C   0  0  0  0  0  0  0  0  0  0  0  0
   13.3635  -25.0403   18.8837 C   0  0  0  0  0  0  0  0  0  0  0  0
   14.0917  -26.1128   19.3846 O   0  0  0  0  0  0  0  0  0  0  0  0
   13.0157  -24.1522   19.7017 O   0  0  0  0  0  0  0  0  0  0  0  0
  2  1  1  0
  3  2  2  0
  4  3  1  0
  5 11  1  0
  5  4  2  0
  6  5  1  0
  6  7  1  0
  7  8  1  6
  9 10  2  0
  9  7  1  0
 11 12  2  0
 12  2  1  0
 13  9  1  0
 14 15  1  1
 14 13  1  0
 16 15  1  0
 16 20  1  0
 17 16  2  0
 18 14  1  0
 19 18  2  0
 21 18  1  0
 22 21  1  0
 22 23  1  6
 24 23  1  0
 25 24  2  0
 26 25  1  0
 27 26  2  0
 27 28  1  0
 28 29  2  0
 29 24  1  0
 30 31  1  0
 30 22  1  0
 32 30  2  0
M  END
$$$$
