YDF.pdb
     RDKit          3D

 32 33  0  0  1  0  0  0  0  0999 V2000
    7.1848  -12.0693   17.9069 O   0  0  0  0  0  0  0  0  0  0  0  0
    7.3909  -12.9078   19.0020 C   0  0  0  0  0  0  0  0  0  0  0  0
    8.4134  -12.6769   19.9033 C   0  0  0  0  0  0  0  0  0  0  0  0
    8.5913  -13.5236   20.9752 C   0  0  0  0  0  0  0  0  0  0  0  0
    7.7878  -14.6192   21.2102 C   0  0  0  0  0  0  0  0  0  0  0  0
    7.9935  -15.5256   22.3748 C   0  0  0  0  0  0  0  0  0  0  0  0
    9.1620  -16.4247   22.0500 C   0  0  2  0  0  0  0  0  0  0  0  0
    8.8047  -17.1781   20.8618 N   0  0  0  0  0  0  0  0  0  0  0  0
    9.3426  -17.3825   23.1800 C   0  0  0  0  0  0  0  0  0  0  0  0
    9.0871  -18.6059   23.0350 O   0  0  0  0  0  0  0  0  0  0  0  0
    6.7604  -14.8519   20.3054 C   0  0  0  0  0  0  0  0  0  0  0  0
    6.5844  -14.0026   19.2328 C   0  0  0  0  0  0  0  0  0  0  0  0
    9.8057  -16.9632   24.4564 N   0  0  0  0  0  0  0  0  0  0  0  0
   11.2327  -16.8136   24.7675 C   0  0  1  0  0  0  0  0  0  0  0  0
   11.9876  -16.2970   23.5808 C   0  0  0  0  0  0  0  0  0  0  0  0
   12.8581  -17.3704   23.0572 C   0  0  0  0  0  0  0  0  0  0  0  0
   12.4542  -18.5265   22.8118 O   0  0  0  0  0  0  0  0  0  0  0  0
   11.4331  -16.0873   26.0208 C   0  0  0  0  0  0  0  0  0  0  0  0
   12.5753  -15.7326   26.4031 O   0  0  0  0  0  0  0  0  0  0  0  0
   14.2223  -17.1325   22.8033 O   0  0  0  0  0  0  0  0  0  0  0  0
   10.3647  -15.7235   26.9059 N   0  0  0  0  0  0  0  0  0  0  0  0
   10.5557  -15.4672   28.3211 C   0  0  1  0  0  0  0  0  0  0  0  0
    9.3128  -14.7192   28.7713 C   0  0  0  0  0  0  0  0  0  0  0  0
    8.5631  -14.0903   27.6946 C   0  0  0  0  0  0  0  0  0  0  0  0
    9.0312  -12.9492   27.0961 C   0  0  0  0  0  0  0  0  0  0  0  0
    8.3507  -12.3213   26.0676 C   0  0  0  0  0  0  0  0  0  0  0  0
    7.1648  -12.8732   25.6420 C   0  0  0  0  0  0  0  0  0  0  0  0
    6.7012  -14.0092   26.2396 C   0  0  0  0  0  0  0  0  0  0  0  0
    7.3806  -14.6313   27.2624 C   0  0  0  0  0  0  0  0  0  0  0  0
   10.8130  -16.6942   29.0844 C   0  0  0  0  0  0  0  0  0  0  0  0
   10.6620  -17.9784   28.5752 O   0  0  0  0  0  0  0  0  0  0  0  0
   11.1953  -16.5921   30.2769 O   0  0  0  0  0  0  0  0  0  0  0  0
  2  1  1  0
  3  2  2  0
  4  3  1  0
  5 11  1  0
  5  4  2  0
  6  5  1  0
  6  7  1  0
  7  8  1  6
  9 10  2  0
  9  7  1  0
 11 12  2  0
 12  2  1  0
 13  9  1  0
 14 15  1  6
 14 13  1  0
 16 15  1  0
 16 20  1  0
 17 16  2  0
 18 14  1  0
 19 18  2  0
 21 18  1  0
 22 21  1  0
 22 23  1  1
 24 23  1  0
 25 24  2  0
 26 25  1  0
 27 26  2  0
 27 28  1  0
 28 29  2  0
 29 24  1  0
 30 31  1  0
 30 22  1  0
 32 30  2  0
M  END
$$$$
