YDF.pdb
     RDKit          3D

 32 33  0  0  1  0  0  0  0  0999 V2000
    8.8782  -11.8228   19.7377 O   0  0  0  0  0  0  0  0  0  0  0  0
    8.2165  -12.8210   20.4522 C   0  0  0  0  0  0  0  0  0  0  0  0
    7.3005  -13.6571   19.8414 C   0  0  0  0  0  0  0  0  0  0  0  0
    6.6632  -14.6338   20.5745 C   0  0  0  0  0  0  0  0  0  0  0  0
    6.8903  -14.8335   21.9198 C   0  0  0  0  0  0  0  0  0  0  0  0
    6.1924  -15.8949   22.6987 C   0  0  0  0  0  0  0  0  0  0  0  0
    6.8075  -17.2191   22.3150 C   0  0  2  0  0  0  0  0  0  0  0  0
    5.8644  -18.2549   22.6955 N   0  0  0  0  0  0  0  0  0  0  0  0
    8.0565  -17.4020   23.1108 C   0  0  0  0  0  0  0  0  0  0  0  0
    8.0180  -17.9016   24.2649 O   0  0  0  0  0  0  0  0  0  0  0  0
    7.8102  -13.9942   22.5342 C   0  0  0  0  0  0  0  0  0  0  0  0
    8.4470  -13.0169   21.7978 C   0  0  0  0  0  0  0  0  0  0  0  0
    9.3315  -17.0254   22.6090 N   0  0  0  0  0  0  0  0  0  0  0  0
   10.5594  -17.1460   23.4049 C   0  0  1  0  0  0  0  0  0  0  0  0
   11.7733  -16.9535   22.5479 C   0  0  0  0  0  0  0  0  0  0  0  0
   11.6468  -17.7900   21.3361 C   0  0  0  0  0  0  0  0  0  0  0  0
   11.7403  -19.0354   21.3460 O   0  0  0  0  0  0  0  0  0  0  0  0
   10.4935  -16.3294   24.6161 C   0  0  0  0  0  0  0  0  0  0  0  0
   11.0379  -15.1998   24.6814 O   0  0  0  0  0  0  0  0  0  0  0  0
   11.4081  -17.2047   20.0781 O   0  0  0  0  0  0  0  0  0  0  0  0
    9.8152  -16.7382   25.8120 N   0  0  0  0  0  0  0  0  0  0  0  0
   10.0239  -16.1061   27.1012 C   0  0  1  0  0  0  0  0  0  0  0  0
    8.6457  -15.6749   27.5716 C   0  0  0  0  0  0  0  0  0  0  0  0
    8.0914  -14.5365   26.8546 C   0  0  0  0  0  0  0  0  0  0  0  0
    6.9818  -14.6867   26.0638 C   0  0  0  0  0  0  0  0  0  0  0  0
    6.4217  -13.6300   25.3675 C   0  0  0  0  0  0  0  0  0  0  0  0
    7.0101  -12.3921   25.4829 C   0  0  0  0  0  0  0  0  0  0  0  0
    8.1148  -12.2455   26.2709 C   0  0  0  0  0  0  0  0  0  0  0  0
    8.6694  -13.2988   26.9622 C   0  0  0  0  0  0  0  0  0  0  0  0
   10.7222  -16.9820   28.0496 C   0  0  0  0  0  0  0  0  0  0  0  0
   11.0479  -18.3089   27.7952 O   0  0  0  0  0  0  0  0  0  0  0  0
   11.0531  -16.5154   29.1683 O   0  0  0  0  0  0  0  0  0  0  0  0
  2  1  1  0
  3  2  2  0
  4  3  1  0
  5 11  1  0
  5  4  2  0
  6  5  1  0
  6  7  1  0
  7  8  1  1
  9 10  2  0
  9  7  1  0
 11 12  2  0
 12  2  1  0
 13  9  1  0
 14 15  1  6
 14 13  1  0
 16 15  1  0
 16 20  1  0
 17 16  2  0
 18 14  1  0
 19 18  2  0
 21 18  1  0
 22 21  1  0
 22 23  1  1
 24 23  1  0
 25 24  2  0
 26 25  1  0
 27 26  2  0
 27 28  1  0
 28 29  2  0
 29 24  1  0
 30 31  1  0
 30 22  1  0
 32 30  2  0
M  END
$$$$
