YDF.pdb
     RDKit          3D

 32 33  0  0  1  0  0  0  0  0999 V2000
    0.9009  -19.2999   20.0097 O   0  0  0  0  0  0  0  0  0  0  0  0
    2.0851  -18.9032   20.6302 C   0  0  0  0  0  0  0  0  0  0  0  0
    3.0231  -18.1342   19.9669 C   0  0  0  0  0  0  0  0  0  0  0  0
    4.1834  -17.7584   20.6073 C   0  0  0  0  0  0  0  0  0  0  0  0
    4.4740  -18.1131   21.9075 C   0  0  0  0  0  0  0  0  0  0  0  0
    5.7341  -17.6984   22.5861 C   0  0  0  0  0  0  0  0  0  0  0  0
    6.8860  -18.2624   21.7897 C   0  0  2  0  0  0  0  0  0  0  0  0
    6.7422  -19.7068   21.7940 N   0  0  0  0  0  0  0  0  0  0  0  0
    8.1552  -17.9120   22.4920 C   0  0  0  0  0  0  0  0  0  0  0  0
    8.5214  -18.5453   23.5157 O   0  0  0  0  0  0  0  0  0  0  0  0
    3.5324  -18.8855   22.5747 C   0  0  0  0  0  0  0  0  0  0  0  0
    2.3713  -19.2606   21.9312 C   0  0  0  0  0  0  0  0  0  0  0  0
    8.9990  -16.8603   22.0433 N   0  0  0  0  0  0  0  0  0  0  0  0
   10.1780  -16.4185   22.7983 C   0  0  1  0  0  0  0  0  0  0  0  0
   11.0650  -15.5589   21.9502 C   0  0  0  0  0  0  0  0  0  0  0  0
   11.5855  -16.3637   20.8252 C   0  0  0  0  0  0  0  0  0  0  0  0
   11.9836  -17.5411   20.9470 O   0  0  0  0  0  0  0  0  0  0  0  0
    9.8033  -15.8659   24.0993 C   0  0  0  0  0  0  0  0  0  0  0  0
    9.3584  -14.6976   24.2172 O   0  0  0  0  0  0  0  0  0  0  0  0
   11.6587  -15.8246   19.5267 O   0  0  0  0  0  0  0  0  0  0  0  0
    9.9086  -16.5945   25.3304 N   0  0  0  0  0  0  0  0  0  0  0  0
    9.5357  -16.0397   26.6181 C   0  0  1  0  0  0  0  0  0  0  0  0
    8.0423  -15.7773   26.5318 C   0  0  0  0  0  0  0  0  0  0  0  0
    7.6836  -14.3770   26.3652 C   0  0  0  0  0  0  0  0  0  0  0  0
    7.4393  -13.5874   27.4588 C   0  0  0  0  0  0  0  0  0  0  0  0
    7.0982  -12.2511   27.3445 C   0  0  0  0  0  0  0  0  0  0  0  0
    7.0050  -11.7107   26.0830 C   0  0  0  0  0  0  0  0  0  0  0  0
    7.2487  -12.4992   24.9960 C   0  0  0  0  0  0  0  0  0  0  0  0
    7.5878  -13.8281   25.1133 C   0  0  0  0  0  0  0  0  0  0  0  0
    9.9166  -16.9108   27.7363 C   0  0  0  0  0  0  0  0  0  0  0  0
   10.3798  -18.2130   27.5911 O   0  0  0  0  0  0  0  0  0  0  0  0
    9.8229  -16.4634   28.9067 O   0  0  0  0  0  0  0  0  0  0  0  0
  2  1  1  0
  3  2  2  0
  4  3  1  0
  5 11  1  0
  5  4  2  0
  6  5  1  0
  6  7  1  0
  7  8  1  1
  9 10  2  0
  9  7  1  0
 11 12  2  0
 12  2  1  0
 13  9  1  0
 14 15  1  6
 14 13  1  0
 16 15  1  0
 16 20  1  0
 17 16  2  0
 18 14  1  0
 19 18  2  0
 21 18  1  0
 22 21  1  0
 22 23  1  6
 24 23  1  0
 25 24  2  0
 26 25  1  0
 27 26  2  0
 27 28  1  0
 28 29  2  0
 29 24  1  0
 30 31  1  0
 30 22  1  0
 32 30  2  0
M  END
$$$$
