NDL.pdb
     RDKit          3D

 25 24  0  0  1  0  0  0  0  0999 V2000
   16.9690  -12.8694  -15.2707 N   0  0  0  0  0  0  0  0  0  0  0  0
   16.5712  -11.5132  -15.2525 C   0  0  0  0  0  0  0  0  0  0  0  0
   15.4094  -11.2417  -15.6096 O   0  0  0  0  0  0  0  0  0  0  0  0
   17.4970  -10.4488  -14.8255 C   0  0  0  0  0  0  0  0  0  0  0  0
   17.4885   -9.2419  -15.7256 C   0  0  2  0  0  0  0  0  0  0  0  0
   17.8987   -9.5213  -17.0787 N   0  0  0  0  0  0  0  0  0  0  0  0
   18.3108   -8.1591  -15.1359 C   0  0  0  0  0  0  0  0  0  0  0  0
   17.9569   -7.7499  -13.9777 O   0  0  0  0  0  0  0  0  0  0  0  0
   19.4338   -7.5871  -15.7939 N   0  0  0  0  0  0  0  0  0  0  0  0
   20.0865   -6.4734  -15.1881 C   0  0  1  0  0  0  0  0  0  0  0  0
   21.5377   -6.7702  -14.9204 C   0  0  0  0  0  0  0  0  0  0  0  0
   22.2594   -5.6436  -14.2840 C   0  0  0  0  0  0  0  0  0  0  0  0
   21.7628   -5.0992  -13.2539 O   0  0  0  0  0  0  0  0  0  0  0  0
   19.9167   -5.2119  -15.9686 C   0  0  0  0  0  0  0  0  0  0  0  0
   20.1449   -5.2087  -17.2029 O   0  0  0  0  0  0  0  0  0  0  0  0
   23.4597   -5.1473  -14.7588 O   0  0  0  0  0  0  0  0  0  0  0  0
   17.0179   -2.4677  -17.9896 C   0  0  0  0  0  0  0  0  0  0  0  0
   16.9490   -3.0503  -16.5710 C   0  0  2  0  0  0  0  0  0  0  0  0
   15.5738   -2.7002  -16.0450 C   0  0  0  0  0  0  0  0  0  0  0  0
   17.9604   -2.3092  -15.7498 C   0  0  0  0  0  0  0  0  0  0  0  0
   19.3896   -2.7429  -15.9928 C   0  0  2  0  0  0  0  0  0  0  0  0
   19.5053   -4.0457  -15.3161 N   0  0  0  0  0  0  0  0  0  0  0  0
   20.3851   -1.7936  -15.4744 C   0  0  0  0  0  0  0  0  0  0  0  0
   20.5576   -0.6652  -15.9782 O   0  0  0  0  0  0  0  0  0  0  0  0
   21.1593   -2.1651  -14.3878 O   0  0  0  0  0  0  0  0  0  0  0  0
  1  2  1  0
  2  3  2  0
  4  2  1  0
  5  4  1  0
  5  6  1  6
  7  5  1  0
  7  8  2  0
  9  7  1  0
 10 14  1  0
 10  9  1  0
 10 11  1  6
 12 11  1  0
 12 16  1  0
 13 12  2  0
 14 22  1  0
 15 14  2  0
 18 19  1  1
 18 17  1  0
 20 18  1  0
 21 20  1  1
 22 21  1  0
 23 25  1  0
 23 21  1  0
 24 23  2  0
M  END
$$$$
