NDL.pdb
     RDKit          3D

 25 24  0  0  1  0  0  0  0  0999 V2000
   12.8508  -15.1370  -13.3908 N   0  0  0  0  0  0  0  0  0  0  0  0
   13.7396  -15.1640  -12.2921 C   0  0  0  0  0  0  0  0  0  0  0  0
   13.7788  -16.1981  -11.5993 O   0  0  0  0  0  0  0  0  0  0  0  0
   14.5958  -14.0081  -11.9708 C   0  0  0  0  0  0  0  0  0  0  0  0
   14.3383  -12.8043  -12.8376 C   0  0  2  0  0  0  0  0  0  0  0  0
   14.5359  -13.0466  -14.2446 N   0  0  0  0  0  0  0  0  0  0  0  0
   15.1581  -11.6586  -12.3774 C   0  0  0  0  0  0  0  0  0  0  0  0
   15.1459  -11.4260  -11.1205 O   0  0  0  0  0  0  0  0  0  0  0  0
   15.9247  -10.8460  -13.2567 N   0  0  0  0  0  0  0  0  0  0  0  0
   16.7374   -9.8150  -12.7000 C   0  0  1  0  0  0  0  0  0  0  0  0
   17.7729   -9.3438  -13.6856 C   0  0  0  0  0  0  0  0  0  0  0  0
   18.6600   -8.2875  -13.1447 C   0  0  0  0  0  0  0  0  0  0  0  0
   18.3161   -7.0746  -13.2661 O   0  0  0  0  0  0  0  0  0  0  0  0
   15.9350   -8.6785  -12.1580 C   0  0  0  0  0  0  0  0  0  0  0  0
   15.0212   -8.1741  -12.8551 O   0  0  0  0  0  0  0  0  0  0  0  0
   19.8574   -8.5562  -12.5072 O   0  0  0  0  0  0  0  0  0  0  0  0
   14.9239   -6.8157   -6.4885 C   0  0  0  0  0  0  0  0  0  0  0  0
   14.6445   -6.4467   -7.9522 C   0  0  2  0  0  0  0  0  0  0  0  0
   13.1561   -6.6350   -8.1508 C   0  0  0  0  0  0  0  0  0  0  0  0
   15.3555   -7.4605   -8.7967 C   0  0  0  0  0  0  0  0  0  0  0  0
   15.4535   -7.0852  -10.2594 C   0  0  2  0  0  0  0  0  0  0  0  0
   16.2099   -8.1869  -10.8782 N   0  0  0  0  0  0  0  0  0  0  0  0
   16.1230   -5.7969  -10.4892 C   0  0  0  0  0  0  0  0  0  0  0  0
   17.3648   -5.6908  -10.5486 O   0  0  0  0  0  0  0  0  0  0  0  0
   15.3475   -4.6601  -10.6453 O   0  0  0  0  0  0  0  0  0  0  0  0
  1  2  1  0
  2  3  2  0
  4  2  1  0
  5  4  1  0
  5  6  1  6
  7  5  1  0
  7  8  2  0
  9  7  1  0
 10 14  1  0
 10  9  1  0
 10 11  1  6
 12 11  1  0
 12 16  1  0
 13 12  2  0
 14 22  1  0
 15 14  2  0
 18 19  1  1
 18 17  1  0
 20 18  1  0
 21 20  1  1
 22 21  1  0
 23 25  1  0
 23 21  1  0
 24 23  2  0
M  END
$$$$
