NDL.pdb
     RDKit          3D

 25 24  0  0  1  0  0  0  0  0999 V2000
   13.0666  -12.5452  -15.1673 N   0  0  0  0  0  0  0  0  0  0  0  0
   12.6342  -11.8469  -14.0170 C   0  0  0  0  0  0  0  0  0  0  0  0
   11.4081  -11.7295  -13.8329 O   0  0  0  0  0  0  0  0  0  0  0  0
   13.5985  -11.2732  -13.0613 C   0  0  0  0  0  0  0  0  0  0  0  0
   15.0363  -11.4546  -13.4696 C   0  0  2  0  0  0  0  0  0  0  0  0
   15.5335  -12.7930  -13.2728 N   0  0  0  0  0  0  0  0  0  0  0  0
   15.8932  -10.4641  -12.7758 C   0  0  0  0  0  0  0  0  0  0  0  0
   16.2389  -10.7574  -11.5806 O   0  0  0  0  0  0  0  0  0  0  0  0
   16.3230   -9.2493  -13.3764 N   0  0  0  0  0  0  0  0  0  0  0  0
   17.0717   -8.3255  -12.5893 C   0  0  1  0  0  0  0  0  0  0  0  0
   18.1389   -7.6499  -13.4081 C   0  0  0  0  0  0  0  0  0  0  0  0
   19.1501   -8.5906  -13.9447 C   0  0  0  0  0  0  0  0  0  0  0  0
   19.9688   -9.1343  -13.1459 O   0  0  0  0  0  0  0  0  0  0  0  0
   16.2053   -7.3331  -11.8866 C   0  0  0  0  0  0  0  0  0  0  0  0
   15.2840   -6.7568  -12.5147 O   0  0  0  0  0  0  0  0  0  0  0  0
   19.2507   -8.9111  -15.2863 O   0  0  0  0  0  0  0  0  0  0  0  0
   12.9201   -6.9638   -9.3413 C   0  0  0  0  0  0  0  0  0  0  0  0
   14.1457   -7.7114   -8.7975 C   0  0  2  0  0  0  0  0  0  0  0  0
   13.7242   -8.2818   -7.4606 C   0  0  0  0  0  0  0  0  0  0  0  0
   15.2046   -6.6807   -8.5471 C   0  0  0  0  0  0  0  0  0  0  0  0
   15.7114   -6.0000   -9.8000 C   0  0  2  0  0  0  0  0  0  0  0  0
   16.4293   -7.0554  -10.5346 N   0  0  0  0  0  0  0  0  0  0  0  0
   16.5954   -4.8575   -9.5282 C   0  0  0  0  0  0  0  0  0  0  0  0
   17.8328   -4.9206   -9.6758 O   0  0  0  0  0  0  0  0  0  0  0  0
   16.0347   -3.6684   -9.0927 O   0  0  0  0  0  0  0  0  0  0  0  0
  1  2  1  0
  2  3  2  0
  4  2  1  0
  5  4  1  0
  5  6  1  1
  7  5  1  0
  7  8  2  0
  9  7  1  0
 10 14  1  0
 10  9  1  0
 10 11  1  6
 12 11  1  0
 12 16  1  0
 13 12  2  0
 14 22  1  0
 15 14  2  0
 18 19  1  1
 18 17  1  0
 20 18  1  0
 21 20  1  1
 22 21  1  0
 23 25  1  0
 23 21  1  0
 24 23  2  0
M  END
$$$$
