NDL.pdb
     RDKit          3D

 25 24  0  0  1  0  0  0  0  0999 V2000
   15.4973  -13.6475  -15.2408 N   0  0  0  0  0  0  0  0  0  0  0  0
   16.8486  -13.4964  -14.8549 C   0  0  0  0  0  0  0  0  0  0  0  0
   17.3507  -14.3778  -14.1325 O   0  0  0  0  0  0  0  0  0  0  0  0
   17.6443  -12.3346  -15.2903 C   0  0  0  0  0  0  0  0  0  0  0  0
   16.8721  -11.3523  -16.1303 C   0  0  2  0  0  0  0  0  0  0  0  0
   16.5704  -11.8303  -17.4562 N   0  0  0  0  0  0  0  0  0  0  0  0
   17.5860  -10.0547  -16.1849 C   0  0  0  0  0  0  0  0  0  0  0  0
   18.4884   -9.9455  -17.0837 O   0  0  0  0  0  0  0  0  0  0  0  0
   17.3073   -8.9744  -15.3037 N   0  0  0  0  0  0  0  0  0  0  0  0
   17.9734   -7.7313  -15.5148 C   0  0  1  0  0  0  0  0  0  0  0  0
   17.0028   -6.5810  -15.4919 C   0  0  0  0  0  0  0  0  0  0  0  0
   17.6353   -5.2737  -15.7852 C   0  0  0  0  0  0  0  0  0  0  0  0
   17.3802   -4.2855  -15.0352 O   0  0  0  0  0  0  0  0  0  0  0  0
   19.1057   -7.5161  -14.5656 C   0  0  0  0  0  0  0  0  0  0  0  0
   18.9532   -7.7742  -13.3468 O   0  0  0  0  0  0  0  0  0  0  0  0
   18.4991   -5.0705  -16.8459 O   0  0  0  0  0  0  0  0  0  0  0  0
   22.8988   -9.4234  -13.4643 C   0  0  0  0  0  0  0  0  0  0  0  0
   22.5820   -8.9836  -14.9005 C   0  0  2  0  0  0  0  0  0  0  0  0
   23.7175   -9.5054  -15.7543 C   0  0  0  0  0  0  0  0  0  0  0  0
   22.6417   -7.4861  -14.9171 C   0  0  0  0  0  0  0  0  0  0  0  0
   21.5009   -6.8151  -14.1833 C   0  0  2  0  0  0  0  0  0  0  0  0
   20.3255   -7.0285  -15.0445 N   0  0  0  0  0  0  0  0  0  0  0  0
   21.7217   -5.3816  -13.9447 C   0  0  0  0  0  0  0  0  0  0  0  0
   21.2923   -4.5019  -14.7184 O   0  0  0  0  0  0  0  0  0  0  0  0
   22.4316   -4.9935  -12.8207 O   0  0  0  0  0  0  0  0  0  0  0  0
  1  2  1  0
  2  3  2  0
  4  2  1  0
  5  4  1  0
  5  6  1  6
  7  5  1  0
  7  8  2  0
  9  7  1  0
 10 14  1  0
 10  9  1  0
 10 11  1  1
 12 11  1  0
 12 16  1  0
 13 12  2  0
 14 22  1  0
 15 14  2  0
 18 19  1  6
 18 17  1  0
 20 18  1  0
 21 20  1  6
 22 21  1  0
 23 25  1  0
 23 21  1  0
 24 23  2  0
M  END
$$$$
