NDL.pdb
     RDKit          3D

 25 24  0  0  1  0  0  0  0  0999 V2000
   14.9601   -6.8248   -6.6816 N   0  0  0  0  0  0  0  0  0  0  0  0
   14.9744   -6.2553   -7.9751 C   0  0  0  0  0  0  0  0  0  0  0  0
   14.2207   -5.2886   -8.1947 O   0  0  0  0  0  0  0  0  0  0  0  0
   15.8513   -6.7838   -9.0353 C   0  0  0  0  0  0  0  0  0  0  0  0
   15.1259   -7.6062  -10.0670 C   0  0  2  0  0  0  0  0  0  0  0  0
   14.5793   -8.8365   -9.5523 N   0  0  0  0  0  0  0  0  0  0  0  0
   16.0099   -7.8644  -11.2282 C   0  0  0  0  0  0  0  0  0  0  0  0
   16.7275   -8.9205  -11.1661 O   0  0  0  0  0  0  0  0  0  0  0  0
   16.0792   -7.0075  -12.3605 N   0  0  0  0  0  0  0  0  0  0  0  0
   16.9376   -7.3698  -13.4400 C   0  0  1  0  0  0  0  0  0  0  0  0
   16.2654   -7.1520  -14.7691 C   0  0  0  0  0  0  0  0  0  0  0  0
   17.1105   -7.5357  -15.9239 C   0  0  0  0  0  0  0  0  0  0  0  0
   17.3278   -6.6846  -16.8362 O   0  0  0  0  0  0  0  0  0  0  0  0
   18.2642   -6.6877  -13.3749 C   0  0  0  0  0  0  0  0  0  0  0  0
   18.3505   -5.5425  -12.8685 O   0  0  0  0  0  0  0  0  0  0  0  0
   17.6816   -8.7876  -16.0625 O   0  0  0  0  0  0  0  0  0  0  0  0
   22.1847   -8.5532  -11.9595 C   0  0  0  0  0  0  0  0  0  0  0  0
   21.6133   -9.0272  -13.3032 C   0  0  2  0  0  0  0  0  0  0  0  0
   22.5718  -10.0818  -13.8128 C   0  0  0  0  0  0  0  0  0  0  0  0
   21.6757   -7.8562  -14.2365 C   0  0  0  0  0  0  0  0  0  0  0  0
   20.7397   -6.7250  -13.8703 C   0  0  2  0  0  0  0  0  0  0  0  0
   19.3979   -7.3320  -13.8795 N   0  0  0  0  0  0  0  0  0  0  0  0
   20.8058   -5.5872  -14.7986 C   0  0  0  0  0  0  0  0  0  0  0  0
   21.7720   -4.7980  -14.8199 O   0  0  0  0  0  0  0  0  0  0  0  0
   19.7582   -5.3840  -15.6813 O   0  0  0  0  0  0  0  0  0  0  0  0
  1  2  1  0
  2  3  2  0
  4  2  1  0
  5  4  1  0
  5  6  1  1
  7  5  1  0
  7  8  2  0
  9  7  1  0
 10 14  1  0
 10  9  1  0
 10 11  1  6
 12 11  1  0
 12 16  1  0
 13 12  2  0
 14 22  1  0
 15 14  2  0
 18 19  1  6
 18 17  1  0
 20 18  1  0
 21 20  1  6
 22 21  1  0
 23 25  1  0
 23 21  1  0
 24 23  2  0
M  END
$$$$
