NDL.pdb
     RDKit          3D

 25 24  0  0  1  0  0  0  0  0999 V2000
   26.8815  -17.8085  -18.5979 N   0  0  0  0  0  0  0  0  0  0  0  0
   26.1146  -16.6669  -18.2718 C   0  0  0  0  0  0  0  0  0  0  0  0
   26.6045  -15.5475  -18.5121 O   0  0  0  0  0  0  0  0  0  0  0  0
   24.7764  -16.7902  -17.6664 C   0  0  0  0  0  0  0  0  0  0  0  0
   24.3689  -18.2115  -17.3826 C   0  0  2  0  0  0  0  0  0  0  0  0
   23.9201  -18.9325  -18.5471 N   0  0  0  0  0  0  0  0  0  0  0  0
   23.3448  -18.2452  -16.3118 C   0  0  0  0  0  0  0  0  0  0  0  0
   23.7090  -17.8012  -15.1698 O   0  0  0  0  0  0  0  0  0  0  0  0
   22.0255  -18.7363  -16.5105 N   0  0  0  0  0  0  0  0  0  0  0  0
   21.1231  -18.7368  -15.4064 C   0  0  1  0  0  0  0  0  0  0  0  0
   19.7161  -18.4392  -15.8509 C   0  0  0  0  0  0  0  0  0  0  0  0
   18.7409  -18.4169  -14.7357 C   0  0  0  0  0  0  0  0  0  0  0  0
   17.6070  -18.9568  -14.9000 O   0  0  0  0  0  0  0  0  0  0  0  0
   21.1937  -19.9950  -14.6055 C   0  0  0  0  0  0  0  0  0  0  0  0
   21.0266  -21.1028  -15.1715 O   0  0  0  0  0  0  0  0  0  0  0  0
   19.0035  -17.8317  -13.5105 O   0  0  0  0  0  0  0  0  0  0  0  0
   22.0794  -19.5167   -9.9073 C   0  0  0  0  0  0  0  0  0  0  0  0
   22.8329  -20.8217  -10.2006 C   0  0  2  0  0  0  0  0  0  0  0  0
   24.2332  -20.6222   -9.6624 C   0  0  0  0  0  0  0  0  0  0  0  0
   22.9238  -20.9424  -11.6918 C   0  0  0  0  0  0  0  0  0  0  0  0
   21.5872  -21.1186  -12.3790 C   0  0  2  0  0  0  0  0  0  0  0  0
   21.4451  -19.9264  -13.2318 N   0  0  0  0  0  0  0  0  0  0  0  0
   20.4587  -21.2306  -11.4436 C   0  0  0  0  0  0  0  0  0  0  0  0
   19.6683  -20.2880  -11.2349 O   0  0  0  0  0  0  0  0  0  0  0  0
   20.2661  -22.4252  -10.7699 O   0  0  0  0  0  0  0  0  0  0  0  0
  1  2  1  0
  2  3  2  0
  4  2  1  0
  5  4  1  0
  5  6  1  6
  7  5  1  0
  7  8  2  0
  9  7  1  0
 10 14  1  0
 10  9  1  0
 10 11  1  6
 12 11  1  0
 12 16  1  0
 13 12  2  0
 14 22  1  0
 15 14  2  0
 18 19  1  1
 18 17  1  0
 20 18  1  0
 21 20  1  1
 22 21  1  0
 23 25  1  0
 23 21  1  0
 24 23  2  0
M  END
$$$$
