NDL.pdb
     RDKit          3D

 25 24  0  0  1  0  0  0  0  0999 V2000
   13.7317  -14.3248  -15.5826 N   0  0  0  0  0  0  0  0  0  0  0  0
   13.4267  -13.9979  -14.2418 C   0  0  0  0  0  0  0  0  0  0  0  0
   12.4550  -14.5666  -13.7097 O   0  0  0  0  0  0  0  0  0  0  0  0
   14.2292  -13.0156  -13.4911 C   0  0  0  0  0  0  0  0  0  0  0  0
   15.4274  -12.5075  -14.2481 C   0  0  2  0  0  0  0  0  0  0  0  0
   16.4477  -13.5031  -14.4603 N   0  0  0  0  0  0  0  0  0  0  0  0
   15.9868  -11.3111  -13.5757 C   0  0  0  0  0  0  0  0  0  0  0  0
   16.3259  -11.4594  -12.3522 O   0  0  0  0  0  0  0  0  0  0  0  0
   16.1500  -10.0570  -14.2253 N   0  0  0  0  0  0  0  0  0  0  0  0
   16.7802   -8.9951  -13.5122 C   0  0  1  0  0  0  0  0  0  0  0  0
   17.5422   -8.0895  -14.4423 C   0  0  0  0  0  0  0  0  0  0  0  0
   18.2540   -6.9946  -13.7426 C   0  0  0  0  0  0  0  0  0  0  0  0
   17.9092   -5.7964  -13.9652 O   0  0  0  0  0  0  0  0  0  0  0  0
   15.8255   -8.2295  -12.6569 C   0  0  0  0  0  0  0  0  0  0  0  0
   14.7108   -7.8872  -13.1216 O   0  0  0  0  0  0  0  0  0  0  0  0
   19.2872   -7.2115  -12.8492 O   0  0  0  0  0  0  0  0  0  0  0  0
   14.8767   -6.6246   -7.3527 C   0  0  0  0  0  0  0  0  0  0  0  0
   13.9365   -7.1688   -8.4374 C   0  0  2  0  0  0  0  0  0  0  0  0
   13.0581   -8.1918   -7.7501 C   0  0  0  0  0  0  0  0  0  0  0  0
   14.7953   -7.8903   -9.4315 C   0  0  0  0  0  0  0  0  0  0  0  0
   15.3893   -6.9956  -10.4977 C   0  0  2  0  0  0  0  0  0  0  0  0
   16.1831   -7.9008  -11.3457 N   0  0  0  0  0  0  0  0  0  0  0  0
   16.2276   -5.9167   -9.9555 C   0  0  0  0  0  0  0  0  0  0  0  0
   15.7486   -4.8382   -9.5503 O   0  0  0  0  0  0  0  0  0  0  0  0
   17.5984   -6.1041   -9.8922 O   0  0  0  0  0  0  0  0  0  0  0  0
  1  2  1  0
  2  3  2  0
  4  2  1  0
  5  4  1  0
  5  6  1  1
  7  5  1  0
  7  8  2  0
  9  7  1  0
 10 14  1  0
 10  9  1  0
 10 11  1  6
 12 11  1  0
 12 16  1  0
 13 12  2  0
 14 22  1  0
 15 14  2  0
 18 19  1  1
 18 17  1  0
 20 18  1  0
 21 20  1  1
 22 21  1  0
 23 25  1  0
 23 21  1  0
 24 23  2  0
M  END
$$$$
