NDL.pdb
     RDKit          3D

 25 24  0  0  1  0  0  0  0  0999 V2000
   29.2245  -20.0303  -16.7131 N   0  0  0  0  0  0  0  0  0  0  0  0
   28.4994  -18.8644  -16.3776 C   0  0  0  0  0  0  0  0  0  0  0  0
   28.5788  -17.8873  -17.1455 O   0  0  0  0  0  0  0  0  0  0  0  0
   27.6733  -18.8002  -15.1586 C   0  0  0  0  0  0  0  0  0  0  0  0
   27.6871  -20.0704  -14.3503 C   0  0  2  0  0  0  0  0  0  0  0  0
   27.2304  -21.2283  -15.0769 N   0  0  0  0  0  0  0  0  0  0  0  0
   26.9108  -19.8893  -13.1009 C   0  0  0  0  0  0  0  0  0  0  0  0
   27.0180  -18.7500  -12.5312 O   0  0  0  0  0  0  0  0  0  0  0  0
   26.0859  -20.9034  -12.5422 N   0  0  0  0  0  0  0  0  0  0  0  0
   25.3270  -20.6001  -11.3736 C   0  0  1  0  0  0  0  0  0  0  0  0
   23.9199  -21.1231  -11.4853 C   0  0  0  0  0  0  0  0  0  0  0  0
   22.9021  -20.0513  -11.5886 C   0  0  0  0  0  0  0  0  0  0  0  0
   23.2726  -18.8792  -11.8934 O   0  0  0  0  0  0  0  0  0  0  0  0
   25.9900  -21.0653  -10.1194 C   0  0  0  0  0  0  0  0  0  0  0  0
   26.5460  -22.1903  -10.0902 O   0  0  0  0  0  0  0  0  0  0  0  0
   21.5534  -20.2629  -11.3675 O   0  0  0  0  0  0  0  0  0  0  0  0
   28.1746  -18.3053   -5.2267 C   0  0  0  0  0  0  0  0  0  0  0  0
   27.6943  -19.6824   -5.7058 C   0  0  2  0  0  0  0  0  0  0  0  0
   28.9190  -20.5715   -5.7078 C   0  0  0  0  0  0  0  0  0  0  0  0
   27.2437  -19.5132   -7.1252 C   0  0  0  0  0  0  0  0  0  0  0  0
   26.4583  -20.6875   -7.6673 C   0  0  2  0  0  0  0  0  0  0  0  0
   25.9847  -20.2426   -8.9888 N   0  0  0  0  0  0  0  0  0  0  0  0
   25.3295  -21.0811   -6.8119 C   0  0  0  0  0  0  0  0  0  0  0  0
   24.1844  -20.6074   -6.9575 O   0  0  0  0  0  0  0  0  0  0  0  0
   25.5447  -22.0112   -5.8086 O   0  0  0  0  0  0  0  0  0  0  0  0
  1  2  1  0
  2  3  2  0
  4  2  1  0
  5  4  1  0
  5  6  1  6
  7  5  1  0
  7  8  2  0
  9  7  1  0
 10 14  1  0
 10  9  1  0
 10 11  1  6
 12 11  1  0
 12 16  1  0
 13 12  2  0
 14 22  1  0
 15 14  2  0
 18 19  1  6
 18 17  1  0
 20 18  1  0
 21 20  1  1
 22 21  1  0
 23 25  1  0
 23 21  1  0
 24 23  2  0
M  END
$$$$
