NDL.pdb
     RDKit          3D

 25 24  0  0  1  0  0  0  0  0999 V2000
   18.2642  -14.2117  -14.9771 N   0  0  0  0  0  0  0  0  0  0  0  0
   18.0496  -13.3024  -16.0377 C   0  0  0  0  0  0  0  0  0  0  0  0
   18.3975  -13.6490  -17.1821 O   0  0  0  0  0  0  0  0  0  0  0  0
   17.4339  -11.9839  -15.8036 C   0  0  0  0  0  0  0  0  0  0  0  0
   17.9527  -10.9031  -16.7145 C   0  0  2  0  0  0  0  0  0  0  0  0
   19.3886  -10.7789  -16.7123 N   0  0  0  0  0  0  0  0  0  0  0  0
   17.3088   -9.6084  -16.3895 C   0  0  0  0  0  0  0  0  0  0  0  0
   16.0562   -9.6496  -16.1379 O   0  0  0  0  0  0  0  0  0  0  0  0
   18.0147   -8.3750  -16.3513 N   0  0  0  0  0  0  0  0  0  0  0  0
   17.3021   -7.1905  -16.0010 C   0  0  1  0  0  0  0  0  0  0  0  0
   16.6219   -7.3371  -14.6662 C   0  0  0  0  0  0  0  0  0  0  0  0
   15.9375   -6.1019  -14.2177 C   0  0  0  0  0  0  0  0  0  0  0  0
   15.0960   -5.5514  -14.9877 O   0  0  0  0  0  0  0  0  0  0  0  0
   18.1571   -5.9675  -16.0525 C   0  0  0  0  0  0  0  0  0  0  0  0
   19.2329   -5.9330  -15.4067 O   0  0  0  0  0  0  0  0  0  0  0  0
   16.1701   -5.5097  -12.9898 O   0  0  0  0  0  0  0  0  0  0  0  0
   19.9475   -3.6645  -19.6152 C   0  0  0  0  0  0  0  0  0  0  0  0
   18.4273   -3.7808  -19.4364 C   0  0  2  0  0  0  0  0  0  0  0  0
   17.8144   -3.0876  -20.6341 C   0  0  0  0  0  0  0  0  0  0  0  0
   18.0741   -2.9894  -18.2136 C   0  0  0  0  0  0  0  0  0  0  0  0
   18.5262   -3.6239  -16.9163 C   0  0  2  0  0  0  0  0  0  0  0  0
   17.7503   -4.8719  -16.8201 N   0  0  0  0  0  0  0  0  0  0  0  0
   18.2985   -2.7739  -15.7389 C   0  0  0  0  0  0  0  0  0  0  0  0
   17.4598   -3.0603  -14.8606 O   0  0  0  0  0  0  0  0  0  0  0  0
   19.0418   -1.6137  -15.5994 O   0  0  0  0  0  0  0  0  0  0  0  0
  1  2  1  0
  2  3  2  0
  4  2  1  0
  5  4  1  0
  5  6  1  1
  7  5  1  0
  7  8  2  0
  9  7  1  0
 10 14  1  0
 10  9  1  0
 10 11  1  1
 12 11  1  0
 12 16  1  0
 13 12  2  0
 14 22  1  0
 15 14  2  0
 18 19  1  6
 18 17  1  0
 20 18  1  0
 21 20  1  6
 22 21  1  0
 23 25  1  0
 23 21  1  0
 24 23  2  0
M  END
$$$$
