NDL.pdb
     RDKit          3D

 25 24  0  0  1  0  0  0  0  0999 V2000
   21.0227  -16.8107  -17.0064 N   0  0  0  0  0  0  0  0  0  0  0  0
   20.4089  -15.7532  -17.7154 C   0  0  0  0  0  0  0  0  0  0  0  0
   19.3986  -16.0157  -18.3945 O   0  0  0  0  0  0  0  0  0  0  0  0
   20.9425  -14.3805  -17.6572 C   0  0  0  0  0  0  0  0  0  0  0  0
   21.2265  -13.7834  -19.0099 C   0  0  2  0  0  0  0  0  0  0  0  0
   22.2492  -14.4784  -19.7504 N   0  0  0  0  0  0  0  0  0  0  0  0
   21.5561  -12.3449  -18.8744 C   0  0  0  0  0  0  0  0  0  0  0  0
   22.7791  -12.0680  -18.6262 O   0  0  0  0  0  0  0  0  0  0  0  0
   20.5917  -11.3087  -19.0069 N   0  0  0  0  0  0  0  0  0  0  0  0
   21.0266   -9.9541  -18.9101 C   0  0  1  0  0  0  0  0  0  0  0  0
   20.0963   -9.0279  -19.6467 C   0  0  0  0  0  0  0  0  0  0  0  0
   20.5569   -7.6197  -19.6566 C   0  0  0  0  0  0  0  0  0  0  0  0
   21.7853   -7.3762  -19.8452 O   0  0  0  0  0  0  0  0  0  0  0  0
   21.2367   -9.5161  -17.4983 C   0  0  0  0  0  0  0  0  0  0  0  0
   20.4289   -9.8776  -16.6082 O   0  0  0  0  0  0  0  0  0  0  0  0
   19.7089   -6.5435  -19.4686 O   0  0  0  0  0  0  0  0  0  0  0  0
   23.8285  -10.4614  -14.1493 C   0  0  0  0  0  0  0  0  0  0  0  0
   24.4080   -9.9865  -15.4892 C   0  0  2  0  0  0  0  0  0  0  0  0
   25.9099  -10.1243  -15.3640 C   0  0  0  0  0  0  0  0  0  0  0  0
   24.0859   -8.5274  -15.6063 C   0  0  0  0  0  0  0  0  0  0  0  0
   22.6161   -8.2350  -15.8158 C   0  0  2  0  0  0  0  0  0  0  0  0
   22.3319   -8.7066  -17.1817 N   0  0  0  0  0  0  0  0  0  0  0  0
   22.2764   -6.8120  -15.6721 C   0  0  0  0  0  0  0  0  0  0  0  0
   22.3704   -6.2096  -14.5835 O   0  0  0  0  0  0  0  0  0  0  0  0
   21.8365   -6.1150  -16.7851 O   0  0  0  0  0  0  0  0  0  0  0  0
  1  2  1  0
  2  3  2  0
  4  2  1  0
  5  4  1  0
  5  6  1  1
  7  5  1  0
  7  8  2  0
  9  7  1  0
 10 14  1  0
 10  9  1  0
 10 11  1  1
 12 11  1  0
 12 16  1  0
 13 12  2  0
 14 22  1  0
 15 14  2  0
 18 19  1  1
 18 17  1  0
 20 18  1  0
 21 20  1  6
 22 21  1  0
 23 25  1  0
 23 21  1  0
 24 23  2  0
M  END
$$$$
