NDL.pdb
     RDKit          3D

 25 24  0  0  1  0  0  0  0  0999 V2000
   14.4273  -13.9944  -16.4765 N   0  0  0  0  0  0  0  0  0  0  0  0
   14.6696  -12.8967  -15.6197 C   0  0  0  0  0  0  0  0  0  0  0  0
   13.7770  -12.5802  -14.8111 O   0  0  0  0  0  0  0  0  0  0  0  0
   15.9366  -12.1457  -15.6763 C   0  0  0  0  0  0  0  0  0  0  0  0
   16.8536  -12.5880  -16.7855 C   0  0  2  0  0  0  0  0  0  0  0  0
   17.4632  -13.8743  -16.5594 N   0  0  0  0  0  0  0  0  0  0  0  0
   17.8822  -11.5523  -17.0416 C   0  0  0  0  0  0  0  0  0  0  0  0
   19.0944  -11.8970  -16.8273 O   0  0  0  0  0  0  0  0  0  0  0  0
   17.5721  -10.2425  -17.4993 N   0  0  0  0  0  0  0  0  0  0  0  0
   18.6445   -9.3526  -17.8015 C   0  0  1  0  0  0  0  0  0  0  0  0
   18.2510   -8.3653  -18.8674 C   0  0  0  0  0  0  0  0  0  0  0  0
   18.0156   -8.9917  -20.1893 C   0  0  0  0  0  0  0  0  0  0  0  0
   18.9407   -9.6758  -20.7187 O   0  0  0  0  0  0  0  0  0  0  0  0
   19.1846   -8.6687  -16.5891 C   0  0  0  0  0  0  0  0  0  0  0  0
   18.3995   -8.2973  -15.6829 O   0  0  0  0  0  0  0  0  0  0  0  0
   16.8270   -8.8686  -20.8856 O   0  0  0  0  0  0  0  0  0  0  0  0
   22.0750   -9.9920  -13.4575 C   0  0  0  0  0  0  0  0  0  0  0  0
   22.5931   -9.8566  -14.8963 C   0  0  2  0  0  0  0  0  0  0  0  0
   24.0387  -10.3031  -14.8604 C   0  0  0  0  0  0  0  0  0  0  0  0
   22.5689   -8.3953  -15.2285 C   0  0  0  0  0  0  0  0  0  0  0  0
   21.1785   -7.8030  -15.3047 C   0  0  2  0  0  0  0  0  0  0  0  0
   20.5606   -8.4484  -16.4754 N   0  0  0  0  0  0  0  0  0  0  0  0
   21.1729   -6.3402  -15.4498 C   0  0  0  0  0  0  0  0  0  0  0  0
   20.9794   -5.7787  -16.5471 O   0  0  0  0  0  0  0  0  0  0  0  0
   21.3902   -5.5573  -14.3282 O   0  0  0  0  0  0  0  0  0  0  0  0
  1  2  1  0
  2  3  2  0
  4  2  1  0
  5  4  1  0
  5  6  1  1
  7  5  1  0
  7  8  2  0
  9  7  1  0
 10 14  1  0
 10  9  1  0
 10 11  1  6
 12 11  1  0
 12 16  1  0
 13 12  2  0
 14 22  1  0
 15 14  2  0
 18 19  1  1
 18 17  1  0
 20 18  1  0
 21 20  1  6
 22 21  1  0
 23 25  1  0
 23 21  1  0
 24 23  2  0
M  END
$$$$
