LWG.pdb
     RDKit          3D

 27 28  0  0  1  0  0  0  0  0999 V2000
   28.7530  -19.0936   -4.7543 C   0  0  0  0  0  0  0  0  0  0  0  0
   28.6183  -19.5531   -6.2155 C   0  0  1  0  0  0  0  0  0  0  0  0
   29.1830  -20.9710   -6.2926 C   0  0  0  0  0  0  0  0  0  0  0  0
   27.1669  -19.5642   -6.5664 C   0  0  0  0  0  0  0  0  0  0  0  0
   26.8715  -20.1153   -7.9499 C   0  0  2  0  0  0  0  0  0  0  0  0
   27.5842  -19.2811   -8.9094 N   0  0  0  0  0  0  0  0  0  0  0  0
   25.4086  -19.9959   -8.2087 C   0  0  0  0  0  0  0  0  0  0  0  0
   24.8727  -18.8882   -8.0177 O   0  0  0  0  0  0  0  0  0  0  0  0
   24.6582  -21.1117   -8.6631 N   0  0  0  0  0  0  0  0  0  0  0  0
   23.2676  -21.2392   -8.8548 C   0  0  1  0  0  0  0  0  0  0  0  0
   22.8232  -21.6785  -10.2456 C   0  0  0  0  0  0  0  0  0  0  0  0
   23.2816  -20.7541  -11.3015 C   0  0  0  0  0  0  0  0  0  0  0  0
   24.3731  -19.9327  -11.2346 C   0  0  0  0  0  0  0  0  0  0  0  0
   24.4108  -19.2360  -12.3936 N   0  0  0  0  0  0  0  0  0  0  0  0
   23.3841  -19.5881  -13.1875 C   0  0  0  0  0  0  0  0  0  0  0  0
   22.9968  -19.1555  -14.4631 C   0  0  0  0  0  0  0  0  0  0  0  0
   21.8779  -19.6825  -15.0705 C   0  0  0  0  0  0  0  0  0  0  0  0
   21.1674  -20.6383  -14.3826 C   0  0  0  0  0  0  0  0  0  0  0  0
   21.5434  -21.0662  -13.1318 C   0  0  0  0  0  0  0  0  0  0  0  0
   22.6669  -20.5459  -12.5050 C   0  0  0  0  0  0  0  0  0  0  0  0
   22.5026  -21.9021   -7.7901 C   0  0  0  0  0  0  0  0  0  0  0  0
   22.9780  -22.7738   -7.0330 O   0  0  0  0  0  0  0  0  0  0  0  0
   21.1359  -21.5462   -7.5850 N   0  0  0  0  0  0  0  0  0  0  0  0
   20.3450  -22.1403   -6.5215 C   0  0  0  0  0  0  0  0  0  0  0  0
   19.5761  -23.2812   -7.0719 C   0  0  0  0  0  0  0  0  0  0  0  0
   19.6286  -23.6412   -8.2735 O   0  0  0  0  0  0  0  0  0  0  0  0
   18.7337  -24.0190   -6.2278 O   0  0  0  0  0  0  0  0  0  0  0  0
  2  4  1  0
  2  1  1  1
  3  2  1  0
  5  4  1  0
  5  6  1  6
  7  5  1  0
  8  7  2  0
  9  7  1  0
 10  9  1  0
 10 11  1  6
 11 12  1  0
 12 20  1  0
 12 13  2  0
 13 14  1  0
 15 14  1  0
 15 16  2  0
 17 16  1  0
 18 17  2  0
 19 18  1  0
 19 20  2  0
 20 15  1  0
 21 22  2  0
 21 10  1  0
 23 21  1  0
 24 23  1  0
 25 24  1  0
 26 25  2  0
 27 25  1  0
M  END
$$$$
