LWG.pdb
     RDKit          3D

 27 28  0  0  1  0  0  0  0  0999 V2000
   19.3022  -19.2866  -12.7736 C   0  0  0  0  0  0  0  0  0  0  0  0
   20.2697  -20.4365  -13.0991 C   0  0  1  0  0  0  0  0  0  0  0  0
   20.1074  -20.7506  -14.5859 C   0  0  0  0  0  0  0  0  0  0  0  0
   21.6600  -19.9637  -12.8283 C   0  0  0  0  0  0  0  0  0  0  0  0
   22.7396  -20.9199  -13.3030 C   0  0  2  0  0  0  0  0  0  0  0  0
   22.5643  -22.1683  -12.5716 N   0  0  0  0  0  0  0  0  0  0  0  0
   24.0709  -20.3468  -12.9556 C   0  0  0  0  0  0  0  0  0  0  0  0
   24.2245  -19.1171  -13.0780 O   0  0  0  0  0  0  0  0  0  0  0  0
   25.1229  -21.1812  -12.4956 N   0  0  0  0  0  0  0  0  0  0  0  0
   26.5024  -20.9107  -12.3931 C   0  0  1  0  0  0  0  0  0  0  0  0
   27.2181  -21.5356  -11.2006 C   0  0  0  0  0  0  0  0  0  0  0  0
   26.8475  -20.8957   -9.9228 C   0  0  0  0  0  0  0  0  0  0  0  0
   25.6015  -20.4506   -9.5765 C   0  0  0  0  0  0  0  0  0  0  0  0
   25.7090  -19.9050   -8.3433 N   0  0  0  0  0  0  0  0  0  0  0  0
   26.9758  -19.9899   -7.9004 C   0  0  0  0  0  0  0  0  0  0  0  0
   27.5793  -19.5727   -6.7062 C   0  0  0  0  0  0  0  0  0  0  0  0
   28.9251  -19.7782   -6.4936 C   0  0  0  0  0  0  0  0  0  0  0  0
   29.6414  -20.4022   -7.4883 C   0  0  0  0  0  0  0  0  0  0  0  0
   29.0542  -20.8136   -8.6607 C   0  0  0  0  0  0  0  0  0  0  0  0
   27.7004  -20.6141   -8.8918 C   0  0  0  0  0  0  0  0  0  0  0  0
   27.2955  -20.9972  -13.6267 C   0  0  0  0  0  0  0  0  0  0  0  0
   27.5202  -22.0644  -14.2345 O   0  0  0  0  0  0  0  0  0  0  0  0
   27.8505  -19.8076  -14.1866 N   0  0  0  0  0  0  0  0  0  0  0  0
   28.6657  -19.8392  -15.3883 C   0  0  0  0  0  0  0  0  0  0  0  0
   27.7938  -19.6312  -16.5683 C   0  0  0  0  0  0  0  0  0  0  0  0
   26.6003  -20.0160  -16.6286 O   0  0  0  0  0  0  0  0  0  0  0  0
   28.3024  -18.9712  -17.6962 O   0  0  0  0  0  0  0  0  0  0  0  0
  2  4  1  0
  2  1  1  6
  3  2  1  0
  5  4  1  0
  5  6  1  1
  7  5  1  0
  8  7  2  0
  9  7  1  0
 10  9  1  0
 10 11  1  1
 11 12  1  0
 12 20  1  0
 12 13  2  0
 13 14  1  0
 15 14  1  0
 15 16  2  0
 17 16  1  0
 18 17  2  0
 19 18  1  0
 19 20  2  0
 20 15  1  0
 21 22  2  0
 21 10  1  0
 23 21  1  0
 24 23  1  0
 25 24  1  0
 26 25  2  0
 27 25  1  0
M  END
$$$$
