LWG.pdb
     RDKit          3D

 27 28  0  0  1  0  0  0  0  0999 V2000
   24.3896  -20.4169  -17.8740 C   0  0  0  0  0  0  0  0  0  0  0  0
   25.5773  -20.4577  -16.8984 C   0  0  1  0  0  0  0  0  0  0  0  0
   25.9848  -19.0098  -16.6285 C   0  0  0  0  0  0  0  0  0  0  0  0
   25.1156  -21.1003  -15.6321 C   0  0  0  0  0  0  0  0  0  0  0  0
   26.0958  -20.9672  -14.4803 C   0  0  2  0  0  0  0  0  0  0  0  0
   27.2169  -21.8553  -14.7610 N   0  0  0  0  0  0  0  0  0  0  0  0
   25.4270  -21.4245  -13.2293 C   0  0  0  0  0  0  0  0  0  0  0  0
   25.0787  -22.6180  -13.1590 O   0  0  0  0  0  0  0  0  0  0  0  0
   25.2028  -20.5243  -12.1551 N   0  0  0  0  0  0  0  0  0  0  0  0
   24.5841  -20.7514  -10.9091 C   0  0  1  0  0  0  0  0  0  0  0  0
   25.2036  -20.0324   -9.7157 C   0  0  0  0  0  0  0  0  0  0  0  0
   26.6101  -20.4213   -9.4918 C   0  0  0  0  0  0  0  0  0  0  0  0
   27.3271  -21.3152  -10.2384 C   0  0  0  0  0  0  0  0  0  0  0  0
   28.5535  -21.4023   -9.6741 N   0  0  0  0  0  0  0  0  0  0  0  0
   28.6353  -20.5968   -8.6005 C   0  0  0  0  0  0  0  0  0  0  0  0
   29.6775  -20.3435   -7.6983 C   0  0  0  0  0  0  0  0  0  0  0  0
   29.5019  -19.4576   -6.6576 C   0  0  0  0  0  0  0  0  0  0  0  0
   28.2782  -18.8401   -6.5434 C   0  0  0  0  0  0  0  0  0  0  0  0
   27.2533  -19.0847   -7.4258 C   0  0  0  0  0  0  0  0  0  0  0  0
   27.4125  -19.9743   -8.4790 C   0  0  0  0  0  0  0  0  0  0  0  0
   23.1157  -20.7239  -10.8754 C   0  0  0  0  0  0  0  0  0  0  0  0
   22.4423  -20.8625   -9.8331 O   0  0  0  0  0  0  0  0  0  0  0  0
   22.3914  -20.5259  -12.0889 N   0  0  0  0  0  0  0  0  0  0  0  0
   20.9584  -20.2890  -12.0913 C   0  0  0  0  0  0  0  0  0  0  0  0
   20.2571  -21.5766  -12.3063 C   0  0  0  0  0  0  0  0  0  0  0  0
   19.0074  -21.6973  -12.3066 O   0  0  0  0  0  0  0  0  0  0  0  0
   21.0043  -22.7432  -12.5237 O   0  0  0  0  0  0  0  0  0  0  0  0
  2  4  1  0
  2  1  1  6
  3  2  1  0
  5  4  1  0
  5  6  1  6
  7  5  1  0
  8  7  2  0
  9  7  1  0
 10  9  1  0
 10 11  1  1
 11 12  1  0
 12 20  1  0
 12 13  2  0
 13 14  1  0
 15 14  1  0
 15 16  2  0
 17 16  1  0
 18 17  2  0
 19 18  1  0
 19 20  2  0
 20 15  1  0
 21 22  2  0
 21 10  1  0
 23 21  1  0
 24 23  1  0
 25 24  1  0
 26 25  2  0
 27 25  1  0
M  END
$$$$
