LWG.pdb
     RDKit          3D

 27 28  0  0  1  0  0  0  0  0999 V2000
   30.2016  -22.5110  -16.6957 C   0  0  0  0  0  0  0  0  0  0  0  0
   29.2012  -21.3798  -16.4064 C   0  0  1  0  0  0  0  0  0  0  0  0
   28.2863  -21.2689  -17.6255 C   0  0  0  0  0  0  0  0  0  0  0  0
   28.4022  -21.7632  -15.2046 C   0  0  0  0  0  0  0  0  0  0  0  0
   27.3414  -20.7474  -14.8200 C   0  0  2  0  0  0  0  0  0  0  0  0
   28.0295  -19.6021  -14.2378 N   0  0  0  0  0  0  0  0  0  0  0  0
   26.4574  -21.3503  -13.7825 C   0  0  0  0  0  0  0  0  0  0  0  0
   26.0632  -22.5179  -13.9614 O   0  0  0  0  0  0  0  0  0  0  0  0
   26.0856  -20.6132  -12.6279 N   0  0  0  0  0  0  0  0  0  0  0  0
   25.0810  -20.8830  -11.6768 C   0  0  1  0  0  0  0  0  0  0  0  0
   25.3753  -20.4340  -10.2497 C   0  0  0  0  0  0  0  0  0  0  0  0
   26.7462  -20.7771   -9.8227 C   0  0  0  0  0  0  0  0  0  0  0  0
   27.5976  -21.6359  -10.4617 C   0  0  0  0  0  0  0  0  0  0  0  0
   28.7292  -21.6882   -9.7223 N   0  0  0  0  0  0  0  0  0  0  0  0
   28.6222  -20.8947   -8.6420 C   0  0  0  0  0  0  0  0  0  0  0  0
   29.5095  -20.6177   -7.5931 C   0  0  0  0  0  0  0  0  0  0  0  0
   29.1500  -19.7523   -6.5829 C   0  0  0  0  0  0  0  0  0  0  0  0
   27.9014  -19.1788   -6.6466 C   0  0  0  0  0  0  0  0  0  0  0  0
   27.0280  -19.4468   -7.6733 C   0  0  0  0  0  0  0  0  0  0  0  0
   27.3732  -20.3163   -8.6984 C   0  0  0  0  0  0  0  0  0  0  0  0
   23.6930  -20.6084  -12.0722 C   0  0  0  0  0  0  0  0  0  0  0  0
   23.2443  -19.4621  -12.2811 O   0  0  0  0  0  0  0  0  0  0  0  0
   22.7842  -21.6962  -12.2376 N   0  0  0  0  0  0  0  0  0  0  0  0
   21.4450  -21.4974  -12.7634 C   0  0  0  0  0  0  0  0  0  0  0  0
   20.5704  -20.9944  -11.6780 C   0  0  0  0  0  0  0  0  0  0  0  0
   19.9397  -19.9105  -11.7379 O   0  0  0  0  0  0  0  0  0  0  0  0
   20.4194  -21.7491  -10.5058 O   0  0  0  0  0  0  0  0  0  0  0  0
  2  4  1  0
  2  1  1  6
  3  2  1  0
  5  4  1  0
  5  6  1  1
  7  5  1  0
  8  7  2  0
  9  7  1  0
 10  9  1  0
 10 11  1  1
 11 12  1  0
 12 20  1  0
 12 13  2  0
 13 14  1  0
 15 14  1  0
 15 16  2  0
 17 16  1  0
 18 17  2  0
 19 18  1  0
 19 20  2  0
 20 15  1  0
 21 22  2  0
 21 10  1  0
 23 21  1  0
 24 23  1  0
 25 24  1  0
 26 25  2  0
 27 25  1  0
M  END
$$$$
