LWG.pdb
     RDKit          3D

 27 28  0  0  1  0  0  0  0  0999 V2000
   26.3542  -18.2291  -17.1157 C   0  0  0  0  0  0  0  0  0  0  0  0
   27.4405  -18.8571  -16.2270 C   0  0  1  0  0  0  0  0  0  0  0  0
   28.4077  -17.7376  -15.8439 C   0  0  0  0  0  0  0  0  0  0  0  0
   26.7812  -19.4004  -15.0023 C   0  0  0  0  0  0  0  0  0  0  0  0
   27.7535  -19.9115  -13.9541 C   0  0  2  0  0  0  0  0  0  0  0  0
   28.4802  -21.0280  -14.5454 N   0  0  0  0  0  0  0  0  0  0  0  0
   26.9754  -20.4141  -12.7864 C   0  0  0  0  0  0  0  0  0  0  0  0
   25.8031  -20.7841  -12.9846 O   0  0  0  0  0  0  0  0  0  0  0  0
   27.5604  -20.4712  -11.4945 N   0  0  0  0  0  0  0  0  0  0  0  0
   26.9923  -20.8769  -10.2700 C   0  0  1  0  0  0  0  0  0  0  0  0
   27.9601  -21.0207   -9.1006 C   0  0  0  0  0  0  0  0  0  0  0  0
   27.2929  -20.8563   -7.7939 C   0  0  0  0  0  0  0  0  0  0  0  0
   26.0129  -21.2304   -7.4905 C   0  0  0  0  0  0  0  0  0  0  0  0
   25.7937  -20.8703   -6.2050 N   0  0  0  0  0  0  0  0  0  0  0  0
   26.8876  -20.2836   -5.6880 C   0  0  0  0  0  0  0  0  0  0  0  0
   27.1505  -19.7465   -4.4204 C   0  0  0  0  0  0  0  0  0  0  0  0
   28.3777  -19.1869   -4.1387 C   0  0  0  0  0  0  0  0  0  0  0  0
   29.3213  -19.1785   -5.1393 C   0  0  0  0  0  0  0  0  0  0  0  0
   29.0687  -19.7044   -6.3836 C   0  0  0  0  0  0  0  0  0  0  0  0
   27.8382  -20.2711   -6.6849 C   0  0  0  0  0  0  0  0  0  0  0  0
   25.7299  -20.2389   -9.8732 C   0  0  0  0  0  0  0  0  0  0  0  0
   25.6395  -19.0511   -9.4993 O   0  0  0  0  0  0  0  0  0  0  0  0
   24.5209  -20.9964   -9.9108 N   0  0  0  0  0  0  0  0  0  0  0  0
   23.2246  -20.3735   -9.7080 C   0  0  0  0  0  0  0  0  0  0  0  0
   22.3470  -20.7015  -10.8561 C   0  0  0  0  0  0  0  0  0  0  0  0
   22.6824  -21.4680  -11.7922 O   0  0  0  0  0  0  0  0  0  0  0  0
   21.0646  -20.1389  -10.9291 O   0  0  0  0  0  0  0  0  0  0  0  0
  2  4  1  0
  2  1  1  6
  3  2  1  0
  5  4  1  0
  5  6  1  6
  7  5  1  0
  8  7  2  0
  9  7  1  0
 10  9  1  0
 10 11  1  1
 11 12  1  0
 12 20  1  0
 12 13  2  0
 13 14  1  0
 15 14  1  0
 15 16  2  0
 17 16  1  0
 18 17  2  0
 19 18  1  0
 19 20  2  0
 20 15  1  0
 21 22  2  0
 21 10  1  0
 23 21  1  0
 24 23  1  0
 25 24  1  0
 26 25  2  0
 27 25  1  0
M  END
$$$$
