LWG.pdb
     RDKit          3D

 27 28  0  0  1  0  0  0  0  0999 V2000
   30.1099  -18.8757  -16.4827 C   0  0  0  0  0  0  0  0  0  0  0  0
   28.6425  -19.2456  -16.7550 C   0  0  1  0  0  0  0  0  0  0  0  0
   28.5335  -19.5787  -18.2424 C   0  0  0  0  0  0  0  0  0  0  0  0
   28.3086  -20.4504  -15.9385 C   0  0  0  0  0  0  0  0  0  0  0  0
   26.8998  -20.9724  -16.1576 C   0  0  2  0  0  0  0  0  0  0  0  0
   26.0930  -19.8551  -16.6319 N   0  0  0  0  0  0  0  0  0  0  0  0
   26.3532  -21.4339  -14.8501 C   0  0  0  0  0  0  0  0  0  0  0  0
   26.7950  -22.4983  -14.3783 O   0  0  0  0  0  0  0  0  0  0  0  0
   25.3653  -20.6766  -14.1681 N   0  0  0  0  0  0  0  0  0  0  0  0
   24.6632  -20.9784  -12.9838 C   0  0  1  0  0  0  0  0  0  0  0  0
   24.9390  -20.0661  -11.7937 C   0  0  0  0  0  0  0  0  0  0  0  0
   26.2468  -20.3395  -11.1656 C   0  0  0  0  0  0  0  0  0  0  0  0
   27.4223  -20.5767  -11.8234 C   0  0  0  0  0  0  0  0  0  0  0  0
   28.3603  -20.8114  -10.8773 N   0  0  0  0  0  0  0  0  0  0  0  0
   27.8194  -20.7310   -9.6488 C   0  0  0  0  0  0  0  0  0  0  0  0
   28.3715  -20.8942   -8.3710 C   0  0  0  0  0  0  0  0  0  0  0  0
   27.5856  -20.7605   -7.2471 C   0  0  0  0  0  0  0  0  0  0  0  0
   26.2550  -20.4633   -7.4292 C   0  0  0  0  0  0  0  0  0  0  0  0
   25.7091  -20.3017   -8.6800 C   0  0  0  0  0  0  0  0  0  0  0  0
   26.4856  -20.4335   -9.8226 C   0  0  0  0  0  0  0  0  0  0  0  0
   23.2373  -21.3067  -13.1155 C   0  0  0  0  0  0  0  0  0  0  0  0
   22.5082  -20.8790  -14.0345 O   0  0  0  0  0  0  0  0  0  0  0  0
   22.6249  -22.1643  -12.1532 N   0  0  0  0  0  0  0  0  0  0  0  0
   21.2386  -22.5800  -12.2756 C   0  0  0  0  0  0  0  0  0  0  0  0
   20.3616  -21.4715  -11.8307 C   0  0  0  0  0  0  0  0  0  0  0  0
   20.7289  -20.2722  -11.7759 O   0  0  0  0  0  0  0  0  0  0  0  0
   19.0425  -21.7465  -11.4425 O   0  0  0  0  0  0  0  0  0  0  0  0
  2  4  1  0
  2  1  1  6
  3  2  1  0
  5  4  1  0
  5  6  1  1
  7  5  1  0
  8  7  2  0
  9  7  1  0
 10  9  1  0
 10 11  1  1
 11 12  1  0
 12 20  1  0
 12 13  2  0
 13 14  1  0
 15 14  1  0
 15 16  2  0
 17 16  1  0
 18 17  2  0
 19 18  1  0
 19 20  2  0
 20 15  1  0
 21 22  2  0
 21 10  1  0
 23 21  1  0
 24 23  1  0
 25 24  1  0
 26 25  2  0
 27 25  1  0
M  END
$$$$
