LWG.pdb
     RDKit          3D

 27 28  0  0  1  0  0  0  0  0999 V2000
   26.8653  -17.4612  -17.3368 C   0  0  0  0  0  0  0  0  0  0  0  0
   27.7492  -18.2945  -16.3941 C   0  0  1  0  0  0  0  0  0  0  0  0
   28.4512  -17.3139  -15.4555 C   0  0  0  0  0  0  0  0  0  0  0  0
   26.8620  -19.2032  -15.6088 C   0  0  0  0  0  0  0  0  0  0  0  0
   27.5719  -19.9395  -14.4867 C   0  0  2  0  0  0  0  0  0  0  0  0
   28.5052  -20.8732  -15.1042 N   0  0  0  0  0  0  0  0  0  0  0  0
   26.5628  -20.7162  -13.7123 C   0  0  0  0  0  0  0  0  0  0  0  0
   26.0910  -21.7422  -14.2370 O   0  0  0  0  0  0  0  0  0  0  0  0
   26.1616  -20.2968  -12.4170 N   0  0  0  0  0  0  0  0  0  0  0  0
   25.1656  -20.8258  -11.5716 C   0  0  1  0  0  0  0  0  0  0  0  0
   25.3607  -20.5850  -10.0787 C   0  0  0  0  0  0  0  0  0  0  0  0
   26.7553  -20.8094   -9.6495 C   0  0  0  0  0  0  0  0  0  0  0  0
   27.6932  -21.5504  -10.3142 C   0  0  0  0  0  0  0  0  0  0  0  0
   28.8182  -21.5232   -9.5634 N   0  0  0  0  0  0  0  0  0  0  0  0
   28.6237  -20.7930   -8.4512 C   0  0  0  0  0  0  0  0  0  0  0  0
   29.4702  -20.4762   -7.3800 C   0  0  0  0  0  0  0  0  0  0  0  0
   29.0179  -19.6964   -6.3380 C   0  0  0  0  0  0  0  0  0  0  0  0
   27.7191  -19.2471   -6.3927 C   0  0  0  0  0  0  0  0  0  0  0  0
   26.8853  -19.5544   -7.4411 C   0  0  0  0  0  0  0  0  0  0  0  0
   27.3239  -20.3391   -8.4984 C   0  0  0  0  0  0  0  0  0  0  0  0
   23.7683  -20.6444  -11.9873 C   0  0  0  0  0  0  0  0  0  0  0  0
   23.2017  -19.5336  -12.0522 O   0  0  0  0  0  0  0  0  0  0  0  0
   22.9911  -21.7861  -12.3464 N   0  0  0  0  0  0  0  0  0  0  0  0
   21.6699  -21.6544  -12.9351 C   0  0  0  0  0  0  0  0  0  0  0  0
   20.6724  -21.4956  -11.8509 C   0  0  0  0  0  0  0  0  0  0  0  0
   20.8997  -21.7777  -10.6488 O   0  0  0  0  0  0  0  0  0  0  0  0
   19.3938  -21.0056  -12.1538 O   0  0  0  0  0  0  0  0  0  0  0  0
  2  4  1  0
  2  1  1  6
  3  2  1  0
  5  4  1  0
  5  6  1  6
  7  5  1  0
  8  7  2  0
  9  7  1  0
 10  9  1  0
 10 11  1  1
 11 12  1  0
 12 20  1  0
 12 13  2  0
 13 14  1  0
 15 14  1  0
 15 16  2  0
 17 16  1  0
 18 17  2  0
 19 18  1  0
 19 20  2  0
 20 15  1  0
 21 22  2  0
 21 10  1  0
 23 21  1  0
 24 23  1  0
 25 24  1  0
 26 25  2  0
 27 25  1  0
M  END
$$$$
