LWG.pdb
     RDKit          3D

 27 28  0  0  1  0  0  0  0  0999 V2000
   28.5379  -15.3816  -14.2678 C   0  0  0  0  0  0  0  0  0  0  0  0
   27.4402  -16.4583  -14.2544 C   0  0  1  0  0  0  0  0  0  0  0  0
   27.3675  -17.0409  -15.6654 C   0  0  0  0  0  0  0  0  0  0  0  0
   27.8443  -17.5207  -13.2861 C   0  0  0  0  0  0  0  0  0  0  0  0
   26.8884  -18.6990  -13.2295 C   0  0  2  0  0  0  0  0  0  0  0  0
   25.5523  -18.1620  -13.0042 N   0  0  0  0  0  0  0  0  0  0  0  0
   27.2586  -19.5583  -12.0693 C   0  0  0  0  0  0  0  0  0  0  0  0
   28.4281  -19.9818  -12.0091 O   0  0  0  0  0  0  0  0  0  0  0  0
   26.3050  -19.8750  -11.0668 N   0  0  0  0  0  0  0  0  0  0  0  0
   26.0849  -21.0922  -10.3911 C   0  0  1  0  0  0  0  0  0  0  0  0
   25.7366  -20.9801   -8.9109 C   0  0  0  0  0  0  0  0  0  0  0  0
   26.4949  -19.9098   -8.2333 C   0  0  0  0  0  0  0  0  0  0  0  0
   26.6268  -18.6188   -8.6654 C   0  0  0  0  0  0  0  0  0  0  0  0
   27.4243  -17.9869   -7.7740 N   0  0  0  0  0  0  0  0  0  0  0  0
   27.7994  -18.8315   -6.7972 C   0  0  0  0  0  0  0  0  0  0  0  0
   28.6106  -18.6548   -5.6680 C   0  0  0  0  0  0  0  0  0  0  0  0
   28.8475  -19.7033   -4.8060 C   0  0  0  0  0  0  0  0  0  0  0  0
   28.2620  -20.9137   -5.0956 C   0  0  0  0  0  0  0  0  0  0  0  0
   27.4654  -21.0919   -6.2012 C   0  0  0  0  0  0  0  0  0  0  0  0
   27.2167  -20.0472   -7.0802 C   0  0  0  0  0  0  0  0  0  0  0  0
   25.2716  -22.1033  -11.0798 C   0  0  0  0  0  0  0  0  0  0  0  0
   25.1549  -23.2838  -10.6903 O   0  0  0  0  0  0  0  0  0  0  0  0
   24.5604  -21.7419  -12.2631 N   0  0  0  0  0  0  0  0  0  0  0  0
   23.8172  -22.7224  -13.0351 C   0  0  0  0  0  0  0  0  0  0  0  0
   22.3699  -22.4217  -12.9312 C   0  0  0  0  0  0  0  0  0  0  0  0
   21.9039  -21.4624  -12.2687 O   0  0  0  0  0  0  0  0  0  0  0  0
   21.4445  -23.2368  -13.5988 O   0  0  0  0  0  0  0  0  0  0  0  0
  2  4  1  0
  2  1  1  6
  3  2  1  0
  5  4  1  0
  5  6  1  1
  7  5  1  0
  8  7  2  0
  9  7  1  0
 10  9  1  0
 10 11  1  1
 11 12  1  0
 12 20  1  0
 12 13  2  0
 13 14  1  0
 15 14  1  0
 15 16  2  0
 17 16  1  0
 18 17  2  0
 19 18  1  0
 19 20  2  0
 20 15  1  0
 21 22  2  0
 21 10  1  0
 23 21  1  0
 24 23  1  0
 25 24  1  0
 26 25  2  0
 27 25  1  0
M  END
$$$$
