LWG.pdb
     RDKit          3D

 27 28  0  0  1  0  0  0  0  0999 V2000
   29.3391  -19.7757  -16.9624 C   0  0  0  0  0  0  0  0  0  0  0  0
   28.0530  -19.2667  -16.2906 C   0  0  1  0  0  0  0  0  0  0  0  0
   26.9144  -19.4749  -17.2885 C   0  0  0  0  0  0  0  0  0  0  0  0
   27.8128  -20.0878  -15.0668 C   0  0  0  0  0  0  0  0  0  0  0  0
   26.5422  -19.7233  -14.3197 C   0  0  2  0  0  0  0  0  0  0  0  0
   26.6243  -18.3055  -13.9920 N   0  0  0  0  0  0  0  0  0  0  0  0
   26.4942  -20.5038  -13.0509 C   0  0  0  0  0  0  0  0  0  0  0  0
   26.3621  -21.7393  -13.1328 O   0  0  0  0  0  0  0  0  0  0  0  0
   26.6016  -19.8535  -11.7939 N   0  0  0  0  0  0  0  0  0  0  0  0
   26.3997  -20.3687  -10.4976 C   0  0  1  0  0  0  0  0  0  0  0  0
   27.4092  -19.9324   -9.4414 C   0  0  0  0  0  0  0  0  0  0  0  0
   27.0106  -20.3389   -8.0793 C   0  0  0  0  0  0  0  0  0  0  0  0
   25.9046  -21.0727   -7.7491 C   0  0  0  0  0  0  0  0  0  0  0  0
   25.8996  -21.1890   -6.4013 N   0  0  0  0  0  0  0  0  0  0  0  0
   26.9608  -20.5560   -5.8708 C   0  0  0  0  0  0  0  0  0  0  0  0
   27.3862  -20.3925   -4.5455 C   0  0  0  0  0  0  0  0  0  0  0  0
   28.5314  -19.6810   -4.2611 C   0  0  0  0  0  0  0  0  0  0  0  0
   29.2306  -19.1461   -5.3180 C   0  0  0  0  0  0  0  0  0  0  0  0
   28.8179  -19.3041   -6.6193 C   0  0  0  0  0  0  0  0  0  0  0  0
   27.6668  -20.0169   -6.9238 C   0  0  0  0  0  0  0  0  0  0  0  0
   25.0230  -20.3717   -9.9848 C   0  0  0  0  0  0  0  0  0  0  0  0
   24.7007  -20.8161   -8.8634 O   0  0  0  0  0  0  0  0  0  0  0  0
   23.9741  -19.8391  -10.7927 N   0  0  0  0  0  0  0  0  0  0  0  0
   22.5901  -19.8549  -10.3526 C   0  0  0  0  0  0  0  0  0  0  0  0
   21.8505  -20.8817  -11.1237 C   0  0  0  0  0  0  0  0  0  0  0  0
   21.6731  -20.8264  -12.3653 O   0  0  0  0  0  0  0  0  0  0  0  0
   21.3061  -21.9885  -10.4566 O   0  0  0  0  0  0  0  0  0  0  0  0
  2  4  1  0
  2  1  1  6
  3  2  1  0
  5  4  1  0
  5  6  1  1
  7  5  1  0
  8  7  2  0
  9  7  1  0
 10  9  1  0
 10 11  1  1
 11 12  1  0
 12 20  1  0
 12 13  2  0
 13 14  1  0
 15 14  1  0
 15 16  2  0
 17 16  1  0
 18 17  2  0
 19 18  1  0
 19 20  2  0
 20 15  1  0
 21 22  2  0
 21 10  1  0
 23 21  1  0
 24 23  1  0
 25 24  1  0
 26 25  2  0
 27 25  1  0
M  END
$$$$
