LWG.pdb
     RDKit          3D

 27 28  0  0  1  0  0  0  0  0999 V2000
   30.2465  -19.4459  -14.6097 C   0  0  0  0  0  0  0  0  0  0  0  0
   28.7219  -19.4703  -14.4118 C   0  0  1  0  0  0  0  0  0  0  0  0
   28.1139  -20.0479  -15.6894 C   0  0  0  0  0  0  0  0  0  0  0  0
   28.4185  -20.3647  -13.2552 C   0  0  0  0  0  0  0  0  0  0  0  0
   26.9350  -20.5392  -12.9835 C   0  0  2  0  0  0  0  0  0  0  0  0
   26.3220  -19.2193  -13.0637 N   0  0  0  0  0  0  0  0  0  0  0  0
   26.7618  -21.0618  -11.5985 C   0  0  0  0  0  0  0  0  0  0  0  0
   27.2890  -22.1549  -11.3193 O   0  0  0  0  0  0  0  0  0  0  0  0
   26.0232  -20.3291  -10.6330 N   0  0  0  0  0  0  0  0  0  0  0  0
   25.3044  -20.7928   -9.5128 C   0  0  1  0  0  0  0  0  0  0  0  0
   25.5350  -20.0333   -8.2109 C   0  0  0  0  0  0  0  0  0  0  0  0
   26.9663  -19.9321   -7.8638 C   0  0  0  0  0  0  0  0  0  0  0  0
   28.0078  -19.8783   -8.7487 C   0  0  0  0  0  0  0  0  0  0  0  0
   29.1430  -19.8245   -8.0150 N   0  0  0  0  0  0  0  0  0  0  0  0
   28.8553  -19.8426   -6.7016 C   0  0  0  0  0  0  0  0  0  0  0  0
   29.6734  -19.8083   -5.5641 C   0  0  0  0  0  0  0  0  0  0  0  0
   29.1195  -19.8429   -4.3029 C   0  0  0  0  0  0  0  0  0  0  0  0
   27.7490  -19.9105   -4.2082 C   0  0  0  0  0  0  0  0  0  0  0  0
   26.9425  -19.9437   -5.3205 C   0  0  0  0  0  0  0  0  0  0  0  0
   27.4833  -19.9104   -6.5982 C   0  0  0  0  0  0  0  0  0  0  0  0
   23.8894  -21.1305   -9.7176 C   0  0  0  0  0  0  0  0  0  0  0  0
   23.1012  -21.4111   -8.7908 O   0  0  0  0  0  0  0  0  0  0  0  0
   23.3576  -21.1432  -11.0419 N   0  0  0  0  0  0  0  0  0  0  0  0
   21.9992  -21.5798  -11.3136 C   0  0  0  0  0  0  0  0  0  0  0  0
   21.1429  -20.3889  -11.5240 C   0  0  0  0  0  0  0  0  0  0  0  0
   21.5930  -19.2332  -11.7189 O   0  0  0  0  0  0  0  0  0  0  0  0
   19.7477  -20.5291  -11.5095 O   0  0  0  0  0  0  0  0  0  0  0  0
  2  4  1  0
  2  1  1  6
  3  2  1  0
  5  4  1  0
  5  6  1  1
  7  5  1  0
  8  7  2  0
  9  7  1  0
 10  9  1  0
 10 11  1  1
 11 12  1  0
 12 20  1  0
 12 13  2  0
 13 14  1  0
 15 14  1  0
 15 16  2  0
 17 16  1  0
 18 17  2  0
 19 18  1  0
 19 20  2  0
 20 15  1  0
 21 22  2  0
 21 10  1  0
 23 21  1  0
 24 23  1  0
 25 24  1  0
 26 25  2  0
 27 25  1  0
M  END
$$$$
