AWM.pdb
     RDKit          3D

 28 29  0  0  1  0  0  0  0  0999 V2000
   24.5313  -17.2130  -15.4016 C   0  0  0  0  0  0  0  0  0  0  0  0
   25.6401  -17.0169  -14.3895 C   0  0  2  0  0  0  0  0  0  0  0  0
   26.5202  -15.9880  -14.8651 N   0  0  0  0  0  0  0  0  0  0  0  0
   26.3207  -18.3328  -14.2275 C   0  0  0  0  0  0  0  0  0  0  0  0
   27.4643  -18.4426  -14.7167 O   0  0  0  0  0  0  0  0  0  0  0  0
   25.7430  -19.4276  -13.5635 N   0  0  0  0  0  0  0  0  0  0  0  0
   26.5017  -20.6459  -13.3739 C   0  0  1  0  0  0  0  0  0  0  0  0
   25.9031  -21.5203  -12.2976 C   0  0  0  0  0  0  0  0  0  0  0  0
   26.2444  -20.9743  -10.9573 C   0  0  0  0  0  0  0  0  0  0  0  0
   25.3903  -20.3115  -10.0754 C   0  0  0  0  0  0  0  0  0  0  0  0
   26.1019  -19.9899   -8.9858 N   0  0  0  0  0  0  0  0  0  0  0  0
   27.3599  -20.4180   -9.1406 C   0  0  0  0  0  0  0  0  0  0  0  0
   28.4468  -20.3194   -8.2957 C   0  0  0  0  0  0  0  0  0  0  0  0
   29.6870  -20.8432   -8.6604 C   0  0  0  0  0  0  0  0  0  0  0  0
   29.8150  -21.4644   -9.8823 C   0  0  0  0  0  0  0  0  0  0  0  0
   28.7313  -21.5580  -10.7147 C   0  0  0  0  0  0  0  0  0  0  0  0
   27.4885  -21.0451  -10.3742 C   0  0  0  0  0  0  0  0  0  0  0  0
   26.6495  -21.3642  -14.6656 C   0  0  0  0  0  0  0  0  0  0  0  0
   25.6621  -21.4567  -15.4485 O   0  0  0  0  0  0  0  0  0  0  0  0
   32.2172  -22.4094  -18.4129 C   0  0  0  0  0  0  0  0  0  0  0  0
   31.2162  -23.9310  -18.4353 S   0  0  0  0  0  0  0  0  0  0  0  0
   29.4996  -23.5928  -18.0129 C   0  0  0  0  0  0  0  0  0  0  0  0
   29.3811  -22.9998  -16.6276 C   0  0  0  0  0  0  0  0  0  0  0  0
   27.9410  -22.6484  -16.3387 C   0  0  2  0  0  0  0  0  0  0  0  0
   27.8572  -21.9631  -15.0779 N   0  0  0  0  0  0  0  0  0  0  0  0
   27.0789  -23.8601  -16.3684 C   0  0  0  0  0  0  0  0  0  0  0  0
   26.4422  -24.1382  -17.4316 O   0  0  0  0  0  0  0  0  0  0  0  0
   26.9218  -24.7125  -15.3078 O   0  0  0  0  0  0  0  0  0  0  0  0
  2  1  1  6
  2  3  1  0
  4  2  1  0
  5  4  2  0
  6  4  1  0
  7  6  1  0
  7  8  1  1
  9  8  1  0
  9 17  1  0
 10 11  1  0
 10  9  2  0
 11 12  1  0
 12 17  2  0
 12 13  1  0
 13 14  2  0
 14 15  1  0
 16 15  2  0
 17 16  1  0
 18  7  1  0
 18 19  2  0
 21 20  1  0
 22 21  1  0
 23 22  1  0
 24 23  1  1
 24 25  1  0
 25 18  1  0
 26 24  1  0
 27 26  2  0
 28 26  1  0
M  END
$$$$
