AWM.pdb
     RDKit          3D

 28 29  0  0  1  0  0  0  0  0999 V2000
   19.8801  -10.1112  -19.2127 C   0  0  0  0  0  0  0  0  0  0  0  0
   20.3875   -8.7592  -19.6675 C   0  0  2  0  0  0  0  0  0  0  0  0
   21.6012   -8.9492  -20.4091 N   0  0  0  0  0  0  0  0  0  0  0  0
   20.5795   -7.9309  -18.4436 C   0  0  0  0  0  0  0  0  0  0  0  0
   19.5541   -7.6270  -17.7991 O   0  0  0  0  0  0  0  0  0  0  0  0
   21.8355   -7.4888  -17.9961 N   0  0  0  0  0  0  0  0  0  0  0  0
   21.9401   -6.6991  -16.7874 C   0  0  1  0  0  0  0  0  0  0  0  0
   23.0982   -7.1412  -15.9244 C   0  0  0  0  0  0  0  0  0  0  0  0
   22.7090   -8.3390  -15.1341 C   0  0  0  0  0  0  0  0  0  0  0  0
   23.1069   -9.6583  -15.3531 C   0  0  0  0  0  0  0  0  0  0  0  0
   22.5274  -10.4184  -14.4133 N   0  0  0  0  0  0  0  0  0  0  0  0
   21.7858   -9.6414  -13.6158 C   0  0  0  0  0  0  0  0  0  0  0  0
   21.0120   -9.9674  -12.5203 C   0  0  0  0  0  0  0  0  0  0  0  0
   20.3097   -8.9852  -11.8220 C   0  0  0  0  0  0  0  0  0  0  0  0
   20.3982   -7.6770  -12.2416 C   0  0  0  0  0  0  0  0  0  0  0  0
   21.1683   -7.3622  -13.3297 C   0  0  0  0  0  0  0  0  0  0  0  0
   21.8755   -8.3210  -14.0398 C   0  0  0  0  0  0  0  0  0  0  0  0
   22.0076   -5.2538  -17.1232 C   0  0  0  0  0  0  0  0  0  0  0  0
   22.7527   -4.8630  -18.0660 O   0  0  0  0  0  0  0  0  0  0  0  0
   17.8712   -0.2233  -18.2542 C   0  0  0  0  0  0  0  0  0  0  0  0
   18.5528   -1.4725  -19.3911 S   0  0  0  0  0  0  0  0  0  0  0  0
   20.1072   -2.1400  -18.7764 C   0  0  0  0  0  0  0  0  0  0  0  0
   20.0529   -2.3740  -17.2841 C   0  0  0  0  0  0  0  0  0  0  0  0
   21.3874   -2.8826  -16.7930 C   0  0  2  0  0  0  0  0  0  0  0  0
   21.2706   -4.2695  -16.4339 N   0  0  0  0  0  0  0  0  0  0  0  0
   21.8900   -2.0582  -15.6616 C   0  0  0  0  0  0  0  0  0  0  0  0
   21.4105   -2.2464  -14.5006 O   0  0  0  0  0  0  0  0  0  0  0  0
   22.8524   -1.0919  -15.7885 O   0  0  0  0  0  0  0  0  0  0  0  0
  2  1  1  1
  2  3  1  0
  4  2  1  0
  5  4  2  0
  6  4  1  0
  7  6  1  0
  7  8  1  6
  9  8  1  0
  9 17  1  0
 10 11  1  0
 10  9  2  0
 11 12  1  0
 12 17  2  0
 12 13  1  0
 13 14  2  0
 14 15  1  0
 16 15  2  0
 17 16  1  0
 18  7  1  0
 18 19  2  0
 21 20  1  0
 22 21  1  0
 23 22  1  0
 24 23  1  1
 24 25  1  0
 25 18  1  0
 26 24  1  0
 27 26  2  0
 28 26  1  0
M  END
$$$$
