AWM.pdb
     RDKit          3D

 28 29  0  0  1  0  0  0  0  0999 V2000
   26.2186  -22.1287  -15.5466 C   0  0  0  0  0  0  0  0  0  0  0  0
   27.2601  -21.4777  -14.6614 C   0  0  2  0  0  0  0  0  0  0  0  0
   28.4768  -22.2333  -14.7504 N   0  0  0  0  0  0  0  0  0  0  0  0
   26.6991  -21.4425  -13.2811 C   0  0  0  0  0  0  0  0  0  0  0  0
   25.5247  -21.8415  -13.1370 O   0  0  0  0  0  0  0  0  0  0  0  0
   27.4194  -20.9904  -12.1631 N   0  0  0  0  0  0  0  0  0  0  0  0
   26.7987  -20.9764  -10.8553 C   0  0  1  0  0  0  0  0  0  0  0  0
   27.7286  -20.4330   -9.7964 C   0  0  0  0  0  0  0  0  0  0  0  0
   27.0735  -20.5087   -8.4637 C   0  0  0  0  0  0  0  0  0  0  0  0
   25.7838  -20.9615   -8.1837 C   0  0  0  0  0  0  0  0  0  0  0  0
   25.5968  -20.8610   -6.8601 N   0  0  0  0  0  0  0  0  0  0  0  0
   26.7051  -20.3677   -6.2961 C   0  0  0  0  0  0  0  0  0  0  0  0
   26.9861  -20.0900   -4.9736 C   0  0  0  0  0  0  0  0  0  0  0  0
   28.2255  -19.5715   -4.5986 C   0  0  0  0  0  0  0  0  0  0  0  0
   29.1722  -19.3383   -5.5706 C   0  0  0  0  0  0  0  0  0  0  0  0
   28.8852  -19.6168   -6.8806 C   0  0  0  0  0  0  0  0  0  0  0  0
   27.6605  -20.1325   -7.2777 C   0  0  0  0  0  0  0  0  0  0  0  0
   25.5109  -20.2379  -10.9067 C   0  0  0  0  0  0  0  0  0  0  0  0
   25.5080  -18.9984  -11.1519 O   0  0  0  0  0  0  0  0  0  0  0  0
   20.3887  -17.7723  -15.1977 C   0  0  0  0  0  0  0  0  0  0  0  0
   21.8679  -18.7197  -14.7162 S   0  0  0  0  0  0  0  0  0  0  0  0
   21.8541  -19.1087  -12.9589 C   0  0  0  0  0  0  0  0  0  0  0  0
   23.1155  -19.8322  -12.5463 C   0  0  0  0  0  0  0  0  0  0  0  0
   23.0444  -20.1988  -11.0830 C   0  0  2  0  0  0  0  0  0  0  0  0
   24.2619  -20.8554  -10.6923 N   0  0  0  0  0  0  0  0  0  0  0  0
   21.8483  -21.0362  -10.7995 C   0  0  0  0  0  0  0  0  0  0  0  0
   20.8333  -20.4987  -10.2573 O   0  0  0  0  0  0  0  0  0  0  0  0
   21.7650  -22.3725  -11.0885 O   0  0  0  0  0  0  0  0  0  0  0  0
  2  1  1  6
  2  3  1  0
  4  2  1  0
  5  4  2  0
  6  4  1  0
  7  6  1  0
  7  8  1  1
  9  8  1  0
  9 17  1  0
 10 11  1  0
 10  9  2  0
 11 12  1  0
 12 17  2  0
 12 13  1  0
 13 14  2  0
 14 15  1  0
 16 15  2  0
 17 16  1  0
 18  7  1  0
 18 19  2  0
 21 20  1  0
 22 21  1  0
 23 22  1  0
 24 23  1  6
 24 25  1  0
 25 18  1  0
 26 24  1  0
 27 26  2  0
 28 26  1  0
M  END
$$$$
