AWM.pdb
     RDKit          3D

 28 29  0  0  1  0  0  0  0  0999 V2000
   26.0888  -21.0893   -9.4261 C   0  0  0  0  0  0  0  0  0  0  0  0
   26.8663  -21.3306  -10.7025 C   0  0  2  0  0  0  0  0  0  0  0  0
   28.1757  -20.7616  -10.5581 N   0  0  0  0  0  0  0  0  0  0  0  0
   26.0854  -20.7141  -11.8122 C   0  0  0  0  0  0  0  0  0  0  0  0
   26.0309  -19.4670  -11.8412 O   0  0  0  0  0  0  0  0  0  0  0  0
   25.4245  -21.4598  -12.8024 N   0  0  0  0  0  0  0  0  0  0  0  0
   24.7003  -20.7850  -13.8586 C   0  0  1  0  0  0  0  0  0  0  0  0
   25.2816  -21.0844  -15.2202 C   0  0  0  0  0  0  0  0  0  0  0  0
   26.5152  -20.2811  -15.4289 C   0  0  0  0  0  0  0  0  0  0  0  0
   27.8247  -20.7552  -15.5136 C   0  0  0  0  0  0  0  0  0  0  0  0
   28.6274  -19.6986  -15.7045 N   0  0  0  0  0  0  0  0  0  0  0  0
   27.8863  -18.5855  -15.7437 C   0  0  0  0  0  0  0  0  0  0  0  0
   28.2618  -17.2688  -15.9180 C   0  0  0  0  0  0  0  0  0  0  0  0
   27.3110  -16.2482  -15.9264 C   0  0  0  0  0  0  0  0  0  0  0  0
   25.9837  -16.5724  -15.7575 C   0  0  0  0  0  0  0  0  0  0  0  0
   25.6197  -17.8816  -15.5852 C   0  0  0  0  0  0  0  0  0  0  0  0
   26.5466  -18.9133  -15.5732 C   0  0  0  0  0  0  0  0  0  0  0  0
   23.2537  -21.1131  -13.7793 C   0  0  0  0  0  0  0  0  0  0  0  0
   22.8918  -22.2730  -13.4327 O   0  0  0  0  0  0  0  0  0  0  0  0
   18.3560  -18.2520  -10.6457 C   0  0  0  0  0  0  0  0  0  0  0  0
   17.7078  -18.4750  -12.3333 S   0  0  0  0  0  0  0  0  0  0  0  0
   18.6260  -19.7393  -13.2266 C   0  0  0  0  0  0  0  0  0  0  0  0
   20.1094  -19.4489  -13.2200 C   0  0  0  0  0  0  0  0  0  0  0  0
   20.8525  -20.5451  -13.9460 C   0  0  2  0  0  0  0  0  0  0  0  0
   22.2373  -20.1824  -14.0758 N   0  0  0  0  0  0  0  0  0  0  0  0
   20.2288  -20.8301  -15.2658 C   0  0  0  0  0  0  0  0  0  0  0  0
   20.6855  -20.2536  -16.3013 O   0  0  0  0  0  0  0  0  0  0  0  0
   19.1758  -21.6877  -15.4443 O   0  0  0  0  0  0  0  0  0  0  0  0
  2  1  1  1
  2  3  1  0
  4  2  1  0
  5  4  2  0
  6  4  1  0
  7  6  1  0
  7  8  1  6
  9  8  1  0
  9 17  1  0
 10 11  1  0
 10  9  2  0
 11 12  1  0
 12 17  2  0
 12 13  1  0
 13 14  2  0
 14 15  1  0
 16 15  2  0
 17 16  1  0
 18  7  1  0
 18 19  2  0
 21 20  1  0
 22 21  1  0
 23 22  1  0
 24 23  1  6
 24 25  1  0
 25 18  1  0
 26 24  1  0
 27 26  2  0
 28 26  1  0
M  END
$$$$
