AWM.pdb
     RDKit          3D

 28 29  0  0  1  0  0  0  0  0999 V2000
   27.3223  -19.7165  -15.5081 C   0  0  0  0  0  0  0  0  0  0  0  0
   28.1486  -20.6467  -14.6455 C   0  0  2  0  0  0  0  0  0  0  0  0
   28.3721  -21.8664  -15.3677 N   0  0  0  0  0  0  0  0  0  0  0  0
   27.3920  -20.8537  -13.3782 C   0  0  0  0  0  0  0  0  0  0  0  0
   26.5497  -21.7753  -13.3659 O   0  0  0  0  0  0  0  0  0  0  0  0
   27.5829  -20.0739  -12.2255 N   0  0  0  0  0  0  0  0  0  0  0  0
   26.9011  -20.4160  -10.9952 C   0  0  1  0  0  0  0  0  0  0  0  0
   27.4789  -19.6819   -9.8083 C   0  0  0  0  0  0  0  0  0  0  0  0
   26.8421  -20.1689   -8.5560 C   0  0  0  0  0  0  0  0  0  0  0  0
   25.6485  -20.8820   -8.4403 C   0  0  0  0  0  0  0  0  0  0  0  0
   25.4426  -21.1200   -7.1372 N   0  0  0  0  0  0  0  0  0  0  0  0
   26.4478  -20.5916   -6.4300 C   0  0  0  0  0  0  0  0  0  0  0  0
   26.6725  -20.5814   -5.0682 C   0  0  0  0  0  0  0  0  0  0  0  0
   27.8031  -19.9638   -4.5337 C   0  0  0  0  0  0  0  0  0  0  0  0
   28.6988  -19.3598   -5.3870 C   0  0  0  0  0  0  0  0  0  0  0  0
   28.4683  -19.3745   -6.7371 C   0  0  0  0  0  0  0  0  0  0  0  0
   27.3517  -19.9821   -7.2919 C   0  0  0  0  0  0  0  0  0  0  0  0
   25.4398  -20.1917  -11.1392 C   0  0  0  0  0  0  0  0  0  0  0  0
   25.0061  -19.0360  -11.4089 O   0  0  0  0  0  0  0  0  0  0  0  0
   18.8652  -23.6997  -13.6351 C   0  0  0  0  0  0  0  0  0  0  0  0
   20.5707  -23.8606  -13.0163 S   0  0  0  0  0  0  0  0  0  0  0  0
   21.2537  -22.2611  -12.5529 C   0  0  0  0  0  0  0  0  0  0  0  0
   22.6740  -22.3941  -12.0530 C   0  0  0  0  0  0  0  0  0  0  0  0
   23.1581  -21.0678  -11.5168 C   0  0  2  0  0  0  0  0  0  0  0  0
   24.4862  -21.2190  -10.9884 N   0  0  0  0  0  0  0  0  0  0  0  0
   22.2164  -20.5264  -10.5008 C   0  0  0  0  0  0  0  0  0  0  0  0
   22.3432  -20.8851   -9.2890 O   0  0  0  0  0  0  0  0  0  0  0  0
   21.2028  -19.6510  -10.7880 O   0  0  0  0  0  0  0  0  0  0  0  0
  2  1  1  6
  2  3  1  0
  4  2  1  0
  5  4  2  0
  6  4  1  0
  7  6  1  0
  7  8  1  1
  9  8  1  0
  9 17  1  0
 10 11  1  0
 10  9  2  0
 11 12  1  0
 12 17  2  0
 12 13  1  0
 13 14  2  0
 14 15  1  0
 16 15  2  0
 17 16  1  0
 18  7  1  0
 18 19  2  0
 21 20  1  0
 22 21  1  0
 23 22  1  0
 24 23  1  1
 24 25  1  0
 25 18  1  0
 26 24  1  0
 27 26  2  0
 28 26  1  0
M  END
$$$$
