AWM.pdb
     RDKit          3D

 28 29  0  0  1  0  0  0  0  0999 V2000
   27.4853  -19.5840  -15.6075 C   0  0  0  0  0  0  0  0  0  0  0  0
   28.2484  -20.3249  -14.5301 C   0  0  2  0  0  0  0  0  0  0  0  0
   29.0237  -21.3631  -15.1469 N   0  0  0  0  0  0  0  0  0  0  0  0
   27.2416  -20.8492  -13.5644 C   0  0  0  0  0  0  0  0  0  0  0  0
   26.6302  -21.8875  -13.8919 O   0  0  0  0  0  0  0  0  0  0  0  0
   26.9592  -20.2385  -12.3313 N   0  0  0  0  0  0  0  0  0  0  0  0
   25.9875  -20.8272  -11.4341 C   0  0  1  0  0  0  0  0  0  0  0  0
   26.0690  -20.2334  -10.0477 C   0  0  0  0  0  0  0  0  0  0  0  0
   27.3213  -20.6793   -9.3815 C   0  0  0  0  0  0  0  0  0  0  0  0
   28.3279  -21.4764   -9.9274 C   0  0  0  0  0  0  0  0  0  0  0  0
   29.2725  -21.6362   -8.9898 N   0  0  0  0  0  0  0  0  0  0  0  0
   28.9083  -20.9789   -7.8830 C   0  0  0  0  0  0  0  0  0  0  0  0
   29.5503  -20.8527   -6.6676 C   0  0  0  0  0  0  0  0  0  0  0  0
   28.9839  -20.1088   -5.6326 C   0  0  0  0  0  0  0  0  0  0  0  0
   27.7679  -19.4973   -5.8392 C   0  0  0  0  0  0  0  0  0  0  0  0
   27.1376  -19.6276   -7.0482 C   0  0  0  0  0  0  0  0  0  0  0  0
   27.6807  -20.3617   -8.0921 C   0  0  0  0  0  0  0  0  0  0  0  0
   24.6238  -20.7204  -12.0133 C   0  0  0  0  0  0  0  0  0  0  0  0
   24.1734  -19.5897  -12.3528 O   0  0  0  0  0  0  0  0  0  0  0  0
   21.2103  -24.8615  -16.0684 C   0  0  0  0  0  0  0  0  0  0  0  0
   20.0795  -24.3701  -14.7277 S   0  0  0  0  0  0  0  0  0  0  0  0
   20.6248  -22.8493  -13.9343 C   0  0  0  0  0  0  0  0  0  0  0  0
   22.0359  -22.9793  -13.4084 C   0  0  0  0  0  0  0  0  0  0  0  0
   22.4789  -21.6735  -12.7924 C   0  0  2  0  0  0  0  0  0  0  0  0
   23.7832  -21.8347  -12.2103 N   0  0  0  0  0  0  0  0  0  0  0  0
   21.4852  -21.1874  -11.7980 C   0  0  0  0  0  0  0  0  0  0  0  0
   21.6261  -21.5089  -10.5774 O   0  0  0  0  0  0  0  0  0  0  0  0
   20.4086  -20.4022  -12.1147 O   0  0  0  0  0  0  0  0  0  0  0  0
  2  1  1  6
  2  3  1  0
  4  2  1  0
  5  4  2  0
  6  4  1  0
  7  6  1  0
  7  8  1  1
  9  8  1  0
  9 17  1  0
 10 11  1  0
 10  9  2  0
 11 12  1  0
 12 17  2  0
 12 13  1  0
 13 14  2  0
 14 15  1  0
 16 15  2  0
 17 16  1  0
 18  7  1  0
 18 19  2  0
 21 20  1  0
 22 21  1  0
 23 22  1  0
 24 23  1  1
 24 25  1  0
 25 18  1  0
 26 24  1  0
 27 26  2  0
 28 26  1  0
M  END
$$$$
