HLP.pdb
     RDKit          3D

 26 27  0  0  1  0  0  0  0  0999 V2000
    8.3138  -16.8379   21.2534 N   0  0  0  0  0  0  0  0  0  0  0  0
    9.5961  -16.2115   21.4625 C   0  0  1  0  0  0  0  0  0  0  0  0
   10.0606  -15.4086   20.2881 C   0  0  0  0  0  0  0  0  0  0  0  0
    8.9806  -14.5937   19.6821 C   0  0  0  0  0  0  0  0  0  0  0  0
    8.8209  -13.2327   19.6390 C   0  0  0  0  0  0  0  0  0  0  0  0
    7.6834  -12.9465   18.9793 N   0  0  0  0  0  0  0  0  0  0  0  0
    7.1358  -14.1340   18.6120 C   0  0  0  0  0  0  0  0  0  0  0  0
    7.9310  -15.1406   19.0429 N   0  0  0  0  0  0  0  0  0  0  0  0
    9.4813  -15.2838   22.6238 C   0  0  0  0  0  0  0  0  0  0  0  0
   10.4216  -14.5089   22.8545 O   0  0  0  0  0  0  0  0  0  0  0  0
    7.5998  -11.7388   25.9715 C   0  0  0  0  0  0  0  0  0  0  0  0
    7.0345  -13.0945   26.2297 C   0  0  1  0  0  0  0  0  0  0  0  0
    5.6552  -12.9066   26.8653 C   0  0  0  0  0  0  0  0  0  0  0  0
    6.9677  -14.0193   25.0640 C   0  0  0  0  0  0  0  0  0  0  0  0
    8.2708  -14.7217   24.7655 C   0  0  2  0  0  0  0  0  0  0  0  0
    8.3368  -15.2547   23.4743 N   0  0  0  0  0  0  0  0  0  0  0  0
    8.7267  -15.5357   25.9063 C   0  0  0  0  0  0  0  0  0  0  0  0
    8.0176  -16.6207   26.0259 O   0  0  0  0  0  0  0  0  0  0  0  0
    9.7689  -15.2677   26.7963 N   0  0  0  0  0  0  0  0  0  0  0  0
   10.6545  -14.1209   26.7577 C   0  0  0  0  0  0  0  0  0  0  0  0
   10.7759  -13.7542   28.2500 C   0  0  0  0  0  0  0  0  0  0  0  0
   10.1089  -14.9108   29.0037 C   0  0  0  0  0  0  0  0  0  0  0  0
   10.2844  -15.9855   27.9220 C   0  0  1  0  0  0  0  0  0  0  0  0
    9.8718  -17.2937   28.2610 C   0  0  0  0  0  0  0  0  0  0  0  0
    8.9896  -18.0570   27.8412 O   0  0  0  0  0  0  0  0  0  0  0  0
   10.6191  -17.8920   29.3175 O   0  0  0  0  0  0  0  0  0  0  0  0
  2  9  1  0
  2  3  1  0
  2  1  1  6
  4  8  1  0
  4  3  1  0
  5  4  2  0
  6  5  1  0
  6  7  1  0
  7  8  2  0
  9 10  2  0
 12 11  1  6
 13 12  1  0
 14 12  1  0
 15 14  1  1
 16 15  1  0
 16  9  1  0
 17 18  2  0
 17 15  1  0
 19 17  1  0
 20 19  1  0
 21 20  1  0
 22 21  1  0
 22 23  1  0
 23 19  1  0
 23 24  1  1
 24 26  1  0
 25 24  2  0
M  END
$$$$
