HLP.pdb
     RDKit          3D

 26 27  0  0  1  0  0  0  0  0999 V2000
   10.7029  -16.0527   20.7693 N   0  0  0  0  0  0  0  0  0  0  0  0
    9.7381  -16.5549   21.7167 C   0  0  1  0  0  0  0  0  0  0  0  0
   10.0517  -17.9343   22.2050 C   0  0  0  0  0  0  0  0  0  0  0  0
    9.5725  -18.9949   21.2869 C   0  0  0  0  0  0  0  0  0  0  0  0
    9.3878  -18.9685   19.9286 C   0  0  0  0  0  0  0  0  0  0  0  0
    8.9355  -20.1700   19.5253 N   0  0  0  0  0  0  0  0  0  0  0  0
    8.8394  -20.9443   20.6371 C   0  0  0  0  0  0  0  0  0  0  0  0
    9.2296  -20.2235   21.7139 N   0  0  0  0  0  0  0  0  0  0  0  0
    9.7291  -15.6501   22.9015 C   0  0  0  0  0  0  0  0  0  0  0  0
   10.8156  -15.2540   23.3490 O   0  0  0  0  0  0  0  0  0  0  0  0
    7.6939  -11.6556   26.0338 C   0  0  0  0  0  0  0  0  0  0  0  0
    7.0844  -13.0075   26.1929 C   0  0  1  0  0  0  0  0  0  0  0  0
    5.6585  -12.8131   26.7132 C   0  0  0  0  0  0  0  0  0  0  0  0
    7.1033  -13.8900   24.9932 C   0  0  0  0  0  0  0  0  0  0  0  0
    8.4114  -14.6163   24.7891 C   0  0  2  0  0  0  0  0  0  0  0  0
    8.5241  -15.2258   23.5356 N   0  0  0  0  0  0  0  0  0  0  0  0
    8.8153  -15.3634   25.9936 C   0  0  0  0  0  0  0  0  0  0  0  0
    8.0387  -16.3881   26.1966 O   0  0  0  0  0  0  0  0  0  0  0  0
    9.8730  -15.0916   26.8639 N   0  0  0  0  0  0  0  0  0  0  0  0
   10.8370  -14.0174   26.7309 C   0  0  0  0  0  0  0  0  0  0  0  0
   10.9827  -13.5302   28.1861 C   0  0  0  0  0  0  0  0  0  0  0  0
   10.2355  -14.5665   29.0338 C   0  0  0  0  0  0  0  0  0  0  0  0
   10.3360  -15.7418   28.0518 C   0  0  1  0  0  0  0  0  0  0  0  0
    9.8322  -16.9830   28.5014 C   0  0  0  0  0  0  0  0  0  0  0  0
    8.9104  -17.7256   28.1326 O   0  0  0  0  0  0  0  0  0  0  0  0
   10.5181  -17.5240   29.6281 O   0  0  0  0  0  0  0  0  0  0  0  0
  2  9  1  0
  2  3  1  0
  2  1  1  6
  4  8  1  0
  4  3  1  0
  5  4  2  0
  6  5  1  0
  6  7  1  0
  7  8  2  0
  9 10  2  0
 12 11  1  6
 13 12  1  0
 14 12  1  0
 15 14  1  1
 16 15  1  0
 16  9  1  0
 17 18  2  0
 17 15  1  0
 19 17  1  0
 20 19  1  0
 21 20  1  0
 22 21  1  0
 22 23  1  0
 23 19  1  0
 23 24  1  1
 24 26  1  0
 25 24  2  0
M  END
$$$$
