HLP.pdb
     RDKit          3D

 26 27  0  0  1  0  0  0  0  0999 V2000
   10.6483  -16.2572   20.8442 N   0  0  0  0  0  0  0  0  0  0  0  0
    9.5789  -16.7029   21.7033 C   0  0  1  0  0  0  0  0  0  0  0  0
    9.7130  -18.1338   22.1206 C   0  0  0  0  0  0  0  0  0  0  0  0
   10.6896  -18.8864   21.2975 C   0  0  0  0  0  0  0  0  0  0  0  0
   10.9753  -18.7904   19.9600 C   0  0  0  0  0  0  0  0  0  0  0  0
   11.9387  -19.6786   19.6537 N   0  0  0  0  0  0  0  0  0  0  0  0
   12.2516  -20.3277   20.8051 C   0  0  0  0  0  0  0  0  0  0  0  0
   11.4863  -19.8416   21.8097 N   0  0  0  0  0  0  0  0  0  0  0  0
    9.5930  -15.8710   22.9403 C   0  0  0  0  0  0  0  0  0  0  0  0
   10.6741  -15.3964   23.3192 O   0  0  0  0  0  0  0  0  0  0  0  0
    7.5224  -11.7235   25.8879 C   0  0  0  0  0  0  0  0  0  0  0  0
    7.0252  -13.1070   26.1385 C   0  0  1  0  0  0  0  0  0  0  0  0
    5.6151  -12.9926   26.7217 C   0  0  0  0  0  0  0  0  0  0  0  0
    7.0536  -14.0429   24.9801 C   0  0  0  0  0  0  0  0  0  0  0  0
    8.3333  -14.8367   24.8668 C   0  0  2  0  0  0  0  0  0  0  0  0
    8.4159  -15.6024   23.6996 N   0  0  0  0  0  0  0  0  0  0  0  0
    8.7174  -15.4409   26.1549 C   0  0  0  0  0  0  0  0  0  0  0  0
    7.8582  -16.3449   26.5277 O   0  0  0  0  0  0  0  0  0  0  0  0
    9.8324  -15.1535   26.9450 N   0  0  0  0  0  0  0  0  0  0  0  0
   10.8175  -14.1206   26.6927 C   0  0  0  0  0  0  0  0  0  0  0  0
   11.0635  -13.5547   28.1053 C   0  0  0  0  0  0  0  0  0  0  0  0
   10.3382  -14.5153   29.0551 C   0  0  0  0  0  0  0  0  0  0  0  0
   10.3461  -15.7483   28.1411 C   0  0  1  0  0  0  0  0  0  0  0  0
    9.8342  -16.9443   28.6924 C   0  0  0  0  0  0  0  0  0  0  0  0
    8.8784  -17.6836   28.4147 O   0  0  0  0  0  0  0  0  0  0  0  0
   10.5590  -17.4310   29.8195 O   0  0  0  0  0  0  0  0  0  0  0  0
  2  9  1  0
  2  3  1  0
  2  1  1  6
  4  8  1  0
  4  3  1  0
  5  4  2  0
  6  5  1  0
  6  7  1  0
  7  8  2  0
  9 10  2  0
 12 11  1  6
 13 12  1  0
 14 12  1  0
 15 14  1  1
 16 15  1  0
 16  9  1  0
 17 18  2  0
 17 15  1  0
 19 17  1  0
 20 19  1  0
 21 20  1  0
 22 21  1  0
 22 23  1  0
 23 19  1  0
 23 24  1  1
 24 26  1  0
 25 24  2  0
M  END
$$$$
