HLP.pdb
     RDKit          3D

 26 27  0  0  1  0  0  0  0  0999 V2000
    7.4271  -15.4678   20.8479 N   0  0  0  0  0  0  0  0  0  0  0  0
    8.7418  -14.9574   21.1503 C   0  0  1  0  0  0  0  0  0  0  0  0
    9.2509  -13.9915   20.1269 C   0  0  0  0  0  0  0  0  0  0  0  0
    8.8744  -14.3648   18.7426 C   0  0  0  0  0  0  0  0  0  0  0  0
    7.8912  -13.8622   17.9299 C   0  0  0  0  0  0  0  0  0  0  0  0
    7.9223  -14.5127   16.7522 N   0  0  0  0  0  0  0  0  0  0  0  0
    8.9281  -15.4217   16.8348 C   0  0  0  0  0  0  0  0  0  0  0  0
    9.5094  -15.3297   18.0533 N   0  0  0  0  0  0  0  0  0  0  0  0
    8.6773  -14.2379   22.4543 C   0  0  0  0  0  0  0  0  0  0  0  0
    8.4616  -13.0168   22.4439 O   0  0  0  0  0  0  0  0  0  0  0  0
    7.4283  -11.6376   26.4779 C   0  0  0  0  0  0  0  0  0  0  0  0
    6.9226  -13.0332   26.3341 C   0  0  1  0  0  0  0  0  0  0  0  0
    5.4238  -13.0156   26.6423 C   0  0  0  0  0  0  0  0  0  0  0  0
    7.1963  -13.7082   25.0348 C   0  0  0  0  0  0  0  0  0  0  0  0
    8.5445  -14.3855   24.9700 C   0  0  2  0  0  0  0  0  0  0  0  0
    8.8536  -14.8981   23.7062 N   0  0  0  0  0  0  0  0  0  0  0  0
    8.8001  -15.2092   26.1650 C   0  0  0  0  0  0  0  0  0  0  0  0
    7.9334  -16.1748   26.2677 O   0  0  0  0  0  0  0  0  0  0  0  0
    9.8097  -15.0580   27.1179 N   0  0  0  0  0  0  0  0  0  0  0  0
   10.7068  -13.9264   27.2430 C   0  0  0  0  0  0  0  0  0  0  0  0
   10.7740  -13.7328   28.7708 C   0  0  0  0  0  0  0  0  0  0  0  0
   10.0677  -14.9581   29.3627 C   0  0  0  0  0  0  0  0  0  0  0  0
   10.2748  -15.9056   28.1731 C   0  0  1  0  0  0  0  0  0  0  0  0
    9.8372  -17.2381   28.3455 C   0  0  0  0  0  0  0  0  0  0  0  0
    8.8805  -17.8960   27.9109 O   0  0  0  0  0  0  0  0  0  0  0  0
   10.6608  -18.0220   29.2056 O   0  0  0  0  0  0  0  0  0  0  0  0
  2  9  1  0
  2  3  1  0
  2  1  1  6
  4  8  1  0
  4  3  1  0
  5  4  2  0
  6  5  1  0
  6  7  1  0
  7  8  2  0
  9 10  2  0
 12 11  1  6
 13 12  1  0
 14 12  1  0
 15 14  1  6
 16 15  1  0
 16  9  1  0
 17 18  2  0
 17 15  1  0
 19 17  1  0
 20 19  1  0
 21 20  1  0
 22 21  1  0
 22 23  1  0
 23 19  1  0
 23 24  1  1
 24 26  1  0
 25 24  2  0
M  END
$$$$
