HLP.pdb
     RDKit          3D

 26 27  0  0  1  0  0  0  0  0999 V2000
    9.7567  -15.6515   20.8446 N   0  0  0  0  0  0  0  0  0  0  0  0
    8.9186  -16.2333   21.8642 C   0  0  1  0  0  0  0  0  0  0  0  0
    9.2336  -17.6701   22.1398 C   0  0  0  0  0  0  0  0  0  0  0  0
    8.8678  -18.5671   21.0178 C   0  0  0  0  0  0  0  0  0  0  0  0
    8.4403  -18.2654   19.7506 C   0  0  0  0  0  0  0  0  0  0  0  0
    8.2272  -19.4105   19.0766 N   0  0  0  0  0  0  0  0  0  0  0  0
    8.5236  -20.4259   19.9287 C   0  0  0  0  0  0  0  0  0  0  0  0
    8.9153  -19.9079   21.1158 N   0  0  0  0  0  0  0  0  0  0  0  0
    9.1274  -15.4764   23.1315 C   0  0  0  0  0  0  0  0  0  0  0  0
   10.2606  -15.0355   23.3749 O   0  0  0  0  0  0  0  0  0  0  0  0
    5.1377  -12.4438   25.6250 C   0  0  0  0  0  0  0  0  0  0  0  0
    6.4619  -12.9876   25.2066 C   0  0  1  0  0  0  0  0  0  0  0  0
    7.4731  -11.8407   25.2696 C   0  0  0  0  0  0  0  0  0  0  0  0
    6.9549  -14.1804   25.9499 C   0  0  0  0  0  0  0  0  0  0  0  0
    8.2200  -14.7762   25.3796 C   0  0  2  0  0  0  0  0  0  0  0  0
    8.0783  -15.2421   24.0688 N   0  0  0  0  0  0  0  0  0  0  0  0
    8.9259  -15.6094   26.3692 C   0  0  0  0  0  0  0  0  0  0  0  0
    8.4322  -16.8131   26.4117 O   0  0  0  0  0  0  0  0  0  0  0  0
    9.9923  -15.2506   27.1963 N   0  0  0  0  0  0  0  0  0  0  0  0
   10.8566  -14.0992   27.0284 C   0  0  0  0  0  0  0  0  0  0  0  0
   11.0212  -13.6027   28.4784 C   0  0  0  0  0  0  0  0  0  0  0  0
   10.3992  -14.6987   29.3517 C   0  0  0  0  0  0  0  0  0  0  0  0
   10.5570  -15.8607   28.3613 C   0  0  1  0  0  0  0  0  0  0  0  0
   10.1781  -17.1402   28.8259 C   0  0  0  0  0  0  0  0  0  0  0  0
    9.3441  -17.9806   28.4580 O   0  0  0  0  0  0  0  0  0  0  0  0
   10.8992  -17.5885   29.9711 O   0  0  0  0  0  0  0  0  0  0  0  0
  2  9  1  0
  2  3  1  0
  2  1  1  6
  4  8  1  0
  4  3  1  0
  5  4  2  0
  6  5  1  0
  6  7  1  0
  7  8  2  0
  9 10  2  0
 12 11  1  1
 13 12  1  0
 14 12  1  0
 15 14  1  1
 16 15  1  0
 16  9  1  0
 17 18  2  0
 17 15  1  0
 19 17  1  0
 20 19  1  0
 21 20  1  0
 22 21  1  0
 22 23  1  0
 23 19  1  0
 23 24  1  1
 24 26  1  0
 25 24  2  0
M  END
$$$$
