HLP.pdb
     RDKit          3D

 26 27  0  0  1  0  0  0  0  0999 V2000
   10.8950  -16.1690   20.8908 N   0  0  0  0  0  0  0  0  0  0  0  0
    9.8606  -16.7043   21.7417 C   0  0  1  0  0  0  0  0  0  0  0  0
   10.1100  -18.1204   22.1565 C   0  0  0  0  0  0  0  0  0  0  0  0
    9.9685  -19.0832   21.0383 C   0  0  0  0  0  0  0  0  0  0  0  0
   10.8144  -19.3523   19.9934 C   0  0  0  0  0  0  0  0  0  0  0  0
   10.2655  -20.3080   19.2212 N   0  0  0  0  0  0  0  0  0  0  0  0
    9.0751  -20.6328   19.7890 C   0  0  0  0  0  0  0  0  0  0  0  0
    8.8952  -19.8823   20.9006 N   0  0  0  0  0  0  0  0  0  0  0  0
    9.7977  -15.8776   22.9806 C   0  0  0  0  0  0  0  0  0  0  0  0
   10.8531  -15.4044   23.4277 O   0  0  0  0  0  0  0  0  0  0  0  0
    7.3844  -11.8922   26.0100 C   0  0  0  0  0  0  0  0  0  0  0  0
    6.9877  -13.3194   26.1836 C   0  0  1  0  0  0  0  0  0  0  0  0
    5.5659  -13.3381   26.7491 C   0  0  0  0  0  0  0  0  0  0  0  0
    7.0994  -14.1908   24.9808 C   0  0  0  0  0  0  0  0  0  0  0  0
    8.4276  -14.8993   24.8604 C   0  0  2  0  0  0  0  0  0  0  0  0
    8.5758  -15.6125   23.6667 N   0  0  0  0  0  0  0  0  0  0  0  0
    8.8284  -15.5284   26.1314 C   0  0  0  0  0  0  0  0  0  0  0  0
    8.0873  -16.5640   26.4005 O   0  0  0  0  0  0  0  0  0  0  0  0
    9.8516  -15.1433   27.0003 N   0  0  0  0  0  0  0  0  0  0  0  0
   10.7200  -13.9933   26.8445 C   0  0  0  0  0  0  0  0  0  0  0  0
   10.8112  -13.4578   28.2871 C   0  0  0  0  0  0  0  0  0  0  0  0
   10.1498  -14.5327   29.1576 C   0  0  0  0  0  0  0  0  0  0  0  0
   10.3596  -15.7199   28.2077 C   0  0  1  0  0  0  0  0  0  0  0  0
    9.9616  -16.9881   28.6870 C   0  0  0  0  0  0  0  0  0  0  0  0
    8.8964  -17.6223   28.6707 O   0  0  0  0  0  0  0  0  0  0  0  0
   10.9954  -17.7227   29.3384 O   0  0  0  0  0  0  0  0  0  0  0  0
  2  9  1  0
  2  3  1  0
  2  1  1  6
  4  8  1  0
  4  3  1  0
  5  4  2  0
  6  5  1  0
  6  7  1  0
  7  8  2  0
  9 10  2  0
 12 11  1  6
 13 12  1  0
 14 12  1  0
 15 14  1  1
 16 15  1  0
 16  9  1  0
 17 18  2  0
 17 15  1  0
 19 17  1  0
 20 19  1  0
 21 20  1  0
 22 21  1  0
 22 23  1  0
 23 19  1  0
 23 24  1  1
 24 26  1  0
 25 24  2  0
M  END
$$$$
