PFT.pdb
     RDKit          3D

 26 27  0  0  1  0  0  0  0  0999 V2000
    7.5534  -15.0752   19.6298 N   0  0  0  0  0  0  0  0  0  0  0  0
    6.9057  -14.3057   18.5895 C   0  0  0  0  0  0  0  0  0  0  0  0
    7.4121  -12.8962   18.7112 C   0  0  0  0  0  0  0  0  0  0  0  0
    8.6351  -12.9495   19.5648 C   0  0  0  0  0  0  0  0  0  0  0  0
    8.7218  -14.3622   20.0295 C   0  0  1  0  0  0  0  0  0  0  0  0
    8.9540  -14.4420   21.5099 C   0  0  0  0  0  0  0  0  0  0  0  0
   10.0351  -13.9921   21.9383 O   0  0  0  0  0  0  0  0  0  0  0  0
    8.0129  -14.9926   22.3888 N   0  0  0  0  0  0  0  0  0  0  0  0
    8.2813  -14.9629   23.8442 C   0  0  1  0  0  0  0  0  0  0  0  0
    6.9954  -14.7785   24.5725 C   0  0  0  0  0  0  0  0  0  0  0  0
    7.0012  -13.7219   25.5907 C   0  0  0  0  0  0  0  0  0  0  0  0
    6.0113  -12.7291   25.6116 C   0  0  0  0  0  0  0  0  0  0  0  0
    6.0007  -11.7731   26.6004 C   0  0  0  0  0  0  0  0  0  0  0  0
    6.9515  -11.7433   27.6090 C   0  0  0  0  0  0  0  0  0  0  0  0
    7.9214  -12.7184   27.5859 C   0  0  0  0  0  0  0  0  0  0  0  0
    7.9450  -13.6706   26.6140 C   0  0  0  0  0  0  0  0  0  0  0  0
    8.9018  -16.2557   24.1771 C   0  0  0  0  0  0  0  0  0  0  0  0
    8.2233  -17.3175   23.9035 O   0  0  0  0  0  0  0  0  0  0  0  0
   11.5159  -18.0822   22.8704 C   0  0  0  0  0  0  0  0  0  0  0  0
   11.8108  -18.1848   24.3375 C   0  0  1  0  0  0  0  0  0  0  0  0
   12.8510  -17.3078   24.6235 O   0  0  0  0  0  0  0  0  0  0  0  0
   10.5644  -17.7886   25.1423 C   0  0  2  0  0  0  0  0  0  0  0  0
   10.1763  -16.4502   24.7621 N   0  0  0  0  0  0  0  0  0  0  0  0
   10.7598  -18.0064   26.5709 C   0  0  0  0  0  0  0  0  0  0  0  0
   11.1260  -19.2948   27.0070 O   0  0  0  0  0  0  0  0  0  0  0  0
   10.6200  -17.1190   27.4121 O   0  0  0  0  0  0  0  0  0  0  0  0
  1  5  1  0
  1  2  1  0
  2  3  1  0
  4  3  1  0
  5  6  1  1
  5  4  1  0
  6  7  2  0
  8  9  1  0
  8  6  1  0
  9 10  1  1
 11 16  1  0
 11 10  1  0
 12 11  2  0
 13 14  2  0
 13 12  1  0
 14 15  1  0
 15 16  2  0
 17  9  1  0
 18 17  2  0
 20 19  1  6
 20 22  1  0
 21 20  1  0
 22 23  1  1
 23 17  1  0
 24 25  1  0
 24 22  1  0
 26 24  2  0
M  END
$$$$
