PFT.pdb
     RDKit          3D

 26 27  0  0  1  0  0  0  0  0999 V2000
    7.5630  -15.2483   19.1018 N   0  0  0  0  0  0  0  0  0  0  0  0
    7.0484  -14.6124   17.9082 C   0  0  0  0  0  0  0  0  0  0  0  0
    7.7090  -13.2662   17.8128 C   0  0  0  0  0  0  0  0  0  0  0  0
    8.8844  -13.2964   18.7320 C   0  0  0  0  0  0  0  0  0  0  0  0
    8.7898  -14.6044   19.4387 C   0  0  1  0  0  0  0  0  0  0  0  0
    8.9548  -14.4426   20.9215 C   0  0  0  0  0  0  0  0  0  0  0  0
   10.0916  -14.1402   21.3348 O   0  0  0  0  0  0  0  0  0  0  0  0
    7.8938  -14.6187   21.8185 N   0  0  0  0  0  0  0  0  0  0  0  0
    8.0758  -14.2321   23.2358 C   0  0  1  0  0  0  0  0  0  0  0  0
    6.7961  -13.6764   23.7567 C   0  0  0  0  0  0  0  0  0  0  0  0
    6.8519  -13.1643   25.1308 C   0  0  0  0  0  0  0  0  0  0  0  0
    6.3172  -13.8965   26.2003 C   0  0  0  0  0  0  0  0  0  0  0  0
    6.4196  -13.4275   27.4891 C   0  0  0  0  0  0  0  0  0  0  0  0
    7.0458  -12.2279   27.7909 C   0  0  0  0  0  0  0  0  0  0  0  0
    7.5693  -11.5117   26.7398 C   0  0  0  0  0  0  0  0  0  0  0  0
    7.4757  -11.9628   25.4593 C   0  0  0  0  0  0  0  0  0  0  0  0
    8.4553  -15.4598   23.9541 C   0  0  0  0  0  0  0  0  0  0  0  0
    7.6995  -16.4912   23.7888 O   0  0  0  0  0  0  0  0  0  0  0  0
   12.1682  -16.7814   24.6439 C   0  0  0  0  0  0  0  0  0  0  0  0
   10.9268  -17.6228   24.6132 C   0  0  1  0  0  0  0  0  0  0  0  0
   11.2249  -18.8409   25.2135 O   0  0  0  0  0  0  0  0  0  0  0  0
    9.8087  -16.9201   25.3968 C   0  0  2  0  0  0  0  0  0  0  0  0
    9.5753  -15.6235   24.8045 N   0  0  0  0  0  0  0  0  0  0  0  0
   10.0804  -16.9188   26.8296 C   0  0  0  0  0  0  0  0  0  0  0  0
   10.3075  -18.1537   27.4683 O   0  0  0  0  0  0  0  0  0  0  0  0
   10.1205  -15.8914   27.5060 O   0  0  0  0  0  0  0  0  0  0  0  0
  1  5  1  0
  1  2  1  0
  2  3  1  0
  4  3  1  0
  5  6  1  1
  5  4  1  0
  6  7  2  0
  8  9  1  0
  8  6  1  0
  9 10  1  1
 11 16  1  0
 11 10  1  0
 12 11  2  0
 13 14  2  0
 13 12  1  0
 14 15  1  0
 15 16  2  0
 17  9  1  0
 18 17  2  0
 20 19  1  1
 20 22  1  0
 21 20  1  0
 22 23  1  6
 23 17  1  0
 24 25  1  0
 24 22  1  0
 26 24  2  0
M  END
$$$$
