PFT.pdb
     RDKit          3D

 26 27  0  0  1  0  0  0  0  0999 V2000
    7.3798  -14.9474   19.9465 N   0  0  0  0  0  0  0  0  0  0  0  0
    6.7668  -14.0420   18.9987 C   0  0  0  0  0  0  0  0  0  0  0  0
    7.4540  -12.7152   19.1571 C   0  0  0  0  0  0  0  0  0  0  0  0
    8.7145  -12.9699   19.9145 C   0  0  0  0  0  0  0  0  0  0  0  0
    8.6528  -14.4086   20.2964 C   0  0  1  0  0  0  0  0  0  0  0  0
    8.9708  -14.6070   21.7494 C   0  0  0  0  0  0  0  0  0  0  0  0
   10.1223  -14.3083   22.1227 O   0  0  0  0  0  0  0  0  0  0  0  0
    8.0321  -15.1039   22.6623 N   0  0  0  0  0  0  0  0  0  0  0  0
    8.3812  -15.1557   24.0998 C   0  0  1  0  0  0  0  0  0  0  0  0
    7.1423  -14.9837   24.9081 C   0  0  0  0  0  0  0  0  0  0  0  0
    7.0107  -13.6855   25.5795 C   0  0  0  0  0  0  0  0  0  0  0  0
    5.7771  -13.2525   26.0861 C   0  0  0  0  0  0  0  0  0  0  0  0
    5.6779  -12.0555   26.7561 C   0  0  0  0  0  0  0  0  0  0  0  0
    6.7734  -11.2307   26.9609 C   0  0  0  0  0  0  0  0  0  0  0  0
    7.9822  -11.6580   26.4627 C   0  0  0  0  0  0  0  0  0  0  0  0
    8.0959  -12.8398   25.7976 C   0  0  0  0  0  0  0  0  0  0  0  0
    8.9891  -16.4765   24.3307 C   0  0  0  0  0  0  0  0  0  0  0  0
    8.2327  -17.5063   24.1582 O   0  0  0  0  0  0  0  0  0  0  0  0
   11.5580  -18.1172   22.5690 C   0  0  0  0  0  0  0  0  0  0  0  0
   11.9409  -18.3839   23.9946 C   0  0  1  0  0  0  0  0  0  0  0  0
   12.9909  -17.5319   24.3183 O   0  0  0  0  0  0  0  0  0  0  0  0
   10.7425  -18.0993   24.9116 C   0  0  2  0  0  0  0  0  0  0  0  0
   10.3276  -16.7296   24.7164 N   0  0  0  0  0  0  0  0  0  0  0  0
   11.0224  -18.4828   26.2905 C   0  0  0  0  0  0  0  0  0  0  0  0
   10.8323  -17.5224   27.3033 O   0  0  0  0  0  0  0  0  0  0  0  0
   11.4163  -19.6040   26.6104 O   0  0  0  0  0  0  0  0  0  0  0  0
  1  5  1  0
  1  2  1  0
  2  3  1  0
  4  3  1  0
  5  6  1  1
  5  4  1  0
  6  7  2  0
  8  9  1  0
  8  6  1  0
  9 10  1  1
 11 16  1  0
 11 10  1  0
 12 11  2  0
 13 14  2  0
 13 12  1  0
 14 15  1  0
 15 16  2  0
 17  9  1  0
 18 17  2  0
 20 19  1  6
 20 22  1  0
 21 20  1  0
 22 23  1  1
 23 17  1  0
 24 25  1  0
 24 22  1  0
 26 24  2  0
M  END
$$$$
