PFT.pdb
     RDKit          3D

 26 27  0  0  1  0  0  0  0  0999 V2000
    9.6550  -16.4670   19.1296 N   0  0  0  0  0  0  0  0  0  0  0  0
    9.8454  -17.7368   18.4625 C   0  0  0  0  0  0  0  0  0  0  0  0
    9.2200  -18.7864   19.3371 C   0  0  0  0  0  0  0  0  0  0  0  0
    8.3358  -18.0714   20.3038 C   0  0  0  0  0  0  0  0  0  0  0  0
    8.5823  -16.6232   20.0560 C   0  0  1  0  0  0  0  0  0  0  0  0
    8.8278  -15.8794   21.3360 C   0  0  0  0  0  0  0  0  0  0  0  0
   10.0075  -15.5667   21.5916 O   0  0  0  0  0  0  0  0  0  0  0  0
    7.7938  -15.5414   22.2181 N   0  0  0  0  0  0  0  0  0  0  0  0
    8.1173  -14.8036   23.4598 C   0  0  1  0  0  0  0  0  0  0  0  0
    6.9184  -14.0349   23.8954 C   0  0  0  0  0  0  0  0  0  0  0  0
    7.0384  -13.3805   25.2034 C   0  0  0  0  0  0  0  0  0  0  0  0
    7.9304  -12.3175   25.4038 C   0  0  0  0  0  0  0  0  0  0  0  0
    7.9977  -11.6813   26.6213 C   0  0  0  0  0  0  0  0  0  0  0  0
    7.2008  -12.0523   27.6934 C   0  0  0  0  0  0  0  0  0  0  0  0
    6.3267  -13.0955   27.4940 C   0  0  0  0  0  0  0  0  0  0  0  0
    6.2489  -13.7347   26.2951 C   0  0  0  0  0  0  0  0  0  0  0  0
    8.4915  -15.8183   24.4586 C   0  0  0  0  0  0  0  0  0  0  0  0
    7.6165  -16.7272   24.7247 O   0  0  0  0  0  0  0  0  0  0  0  0
   10.6947  -18.4011   24.1751 C   0  0  0  0  0  0  0  0  0  0  0  0
   11.0612  -17.8816   25.5336 C   0  0  1  0  0  0  0  0  0  0  0  0
   12.2207  -17.1260   25.4004 O   0  0  0  0  0  0  0  0  0  0  0  0
    9.9265  -16.9971   26.0702 C   0  0  2  0  0  0  0  0  0  0  0  0
    9.7231  -15.9006   25.1521 N   0  0  0  0  0  0  0  0  0  0  0  0
   10.1545  -16.6209   27.4605 C   0  0  0  0  0  0  0  0  0  0  0  0
   10.2931  -17.6461   28.4166 O   0  0  0  0  0  0  0  0  0  0  0  0
   10.2314  -15.4518   27.8374 O   0  0  0  0  0  0  0  0  0  0  0  0
  1  5  1  0
  1  2  1  0
  2  3  1  0
  4  3  1  0
  5  6  1  1
  5  4  1  0
  6  7  2  0
  8  9  1  0
  8  6  1  0
  9 10  1  1
 11 16  1  0
 11 10  1  0
 12 11  2  0
 13 14  2  0
 13 12  1  0
 14 15  1  0
 15 16  2  0
 17  9  1  0
 18 17  2  0
 20 19  1  6
 20 22  1  0
 21 20  1  0
 22 23  1  6
 23 17  1  0
 24 25  1  0
 24 22  1  0
 26 24  2  0
M  END
$$$$
