PFT.pdb
     RDKit          3D

 26 27  0  0  1  0  0  0  0  0999 V2000
    7.7532  -15.3256   19.1899 N   0  0  0  0  0  0  0  0  0  0  0  0
    7.1959  -14.7322   17.9936 C   0  0  0  0  0  0  0  0  0  0  0  0
    7.7162  -13.3245   17.9227 C   0  0  0  0  0  0  0  0  0  0  0  0
    8.8731  -13.2444   18.8622 C   0  0  0  0  0  0  0  0  0  0  0  0
    8.9016  -14.5632   19.5546 C   0  0  1  0  0  0  0  0  0  0  0  0
    9.0246  -14.4023   21.0415 C   0  0  0  0  0  0  0  0  0  0  0  0
   10.1528  -14.1160   21.4884 O   0  0  0  0  0  0  0  0  0  0  0  0
    7.9348  -14.5617   21.9065 N   0  0  0  0  0  0  0  0  0  0  0  0
    8.0931  -14.2174   23.3374 C   0  0  1  0  0  0  0  0  0  0  0  0
    6.8421  -13.5725   23.8241 C   0  0  0  0  0  0  0  0  0  0  0  0
    6.8696  -13.1355   25.2246 C   0  0  0  0  0  0  0  0  0  0  0  0
    6.0048  -13.6943   26.1763 C   0  0  0  0  0  0  0  0  0  0  0  0
    6.0745  -13.3105   27.4951 C   0  0  0  0  0  0  0  0  0  0  0  0
    6.9875  -12.3679   27.9427 C   0  0  0  0  0  0  0  0  0  0  0  0
    7.8346  -11.8212   27.0069 C   0  0  0  0  0  0  0  0  0  0  0  0
    7.7774  -12.1910   25.6985 C   0  0  0  0  0  0  0  0  0  0  0  0
    8.3487  -15.4844   24.0421 C   0  0  0  0  0  0  0  0  0  0  0  0
    7.4146  -16.3724   24.0055 O   0  0  0  0  0  0  0  0  0  0  0  0
    9.8464  -18.3203   23.3654 C   0  0  0  0  0  0  0  0  0  0  0  0
   10.4255  -18.0758   24.7273 C   0  0  1  0  0  0  0  0  0  0  0  0
   11.7007  -17.5483   24.5577 O   0  0  0  0  0  0  0  0  0  0  0  0
    9.5474  -17.0715   25.4877 C   0  0  2  0  0  0  0  0  0  0  0  0
    9.5245  -15.8290   24.7513 N   0  0  0  0  0  0  0  0  0  0  0  0
    9.9443  -16.9676   26.8871 C   0  0  0  0  0  0  0  0  0  0  0  0
    9.8696  -18.1220   27.6908 O   0  0  0  0  0  0  0  0  0  0  0  0
   10.3407  -15.9205   27.3981 O   0  0  0  0  0  0  0  0  0  0  0  0
  1  5  1  0
  1  2  1  0
  2  3  1  0
  4  3  1  0
  5  6  1  1
  5  4  1  0
  6  7  2  0
  8  9  1  0
  8  6  1  0
  9 10  1  1
 11 16  1  0
 11 10  1  0
 12 11  2  0
 13 14  2  0
 13 12  1  0
 14 15  1  0
 15 16  2  0
 17  9  1  0
 18 17  2  0
 20 19  1  6
 20 22  1  0
 21 20  1  0
 22 23  1  6
 23 17  1  0
 24 25  1  0
 24 22  1  0
 26 24  2  0
M  END
$$$$
