QAK.pdb
     RDKit          3D

 24 23  0  0  1  0  0  0  0  0999 V2000
    6.4946  -12.9570   18.2541 N   0  0  0  0  0  0  0  0  0  0  0  0
    7.7704  -13.5172   18.0119 C   0  0  0  0  0  0  0  0  0  0  0  0
    8.0418  -13.9110   16.8430 O   0  0  0  0  0  0  0  0  0  0  0  0
    8.7832  -13.6493   19.0914 C   0  0  0  0  0  0  0  0  0  0  0  0
    9.2347  -15.0838   19.2280 C   0  0  0  0  0  0  0  0  0  0  0  0
    8.5079  -15.8268   20.3016 C   0  0  2  0  0  0  0  0  0  0  0  0
    7.1029  -15.6350   20.1309 N   0  0  0  0  0  0  0  0  0  0  0  0
    8.9838  -15.4829   21.6647 C   0  0  0  0  0  0  0  0  0  0  0  0
   10.1997  -15.5724   21.9749 O   0  0  0  0  0  0  0  0  0  0  0  0
    7.3822  -14.0847   24.7530 C   0  0  0  0  0  0  0  0  0  0  0  0
    8.5232  -14.8477   24.0673 C   0  0  2  0  0  0  0  0  0  0  0  0
    8.1118  -15.0357   22.6969 N   0  0  0  0  0  0  0  0  0  0  0  0
    8.8321  -16.0999   24.7682 C   0  0  0  0  0  0  0  0  0  0  0  0
    8.0111  -17.0285   24.7182 O   0  0  0  0  0  0  0  0  0  0  0  0
   10.0379  -16.3235   25.5178 N   0  0  0  0  0  0  0  0  0  0  0  0
   10.5440  -17.5607   25.9379 C   0  0  1  0  0  0  0  0  0  0  0  0
   11.7229  -18.1859   25.3309 C   0  0  0  0  0  0  0  0  0  0  0  0
   12.1712  -19.5250   25.8047 C   0  0  0  0  0  0  0  0  0  0  0  0
   13.3160  -20.1730   25.1426 C   0  0  0  0  0  0  0  0  0  0  0  0
   13.4760  -21.5682   25.7924 C   0  0  0  0  0  0  0  0  0  0  0  0
   14.6381  -22.2411   25.2920 N   0  0  0  0  0  0  0  0  0  0  0  0
   10.5297  -17.6814   27.4380 C   0  0  0  0  0  0  0  0  0  0  0  0
   10.7233  -18.7912   27.9842 O   0  0  0  0  0  0  0  0  0  0  0  0
   10.3061  -16.5913   28.2580 O   0  0  0  0  0  0  0  0  0  0  0  0
  2  1  1  0
  2  3  2  0
  4  5  1  0
  4  2  1  0
  6  8  1  0
  6  7  1  1
  6  5  1  0
  8  9  2  0
 11 10  1  1
 11 13  1  0
 12 11  1  0
 12  8  1  0
 13 14  2  0
 13 15  1  0
 15 16  1  0
 16 22  1  0
 16 17  1  1
 18 17  1  0
 19 18  1  0
 20 19  1  0
 21 20  1  0
 22 23  2  0
 22 24  1  0
M  END
$$$$
