QAK.pdb
     RDKit          3D

 24 23  0  0  1  0  0  0  0  0999 V2000
    7.3925  -13.1409   17.3023 N   0  0  0  0  0  0  0  0  0  0  0  0
    8.3915  -12.9136   18.2772 C   0  0  0  0  0  0  0  0  0  0  0  0
    9.6015  -12.9463   17.9169 O   0  0  0  0  0  0  0  0  0  0  0  0
    8.0492  -12.6408   19.6974 C   0  0  0  0  0  0  0  0  0  0  0  0
    7.4081  -13.8505   20.3345 C   0  0  0  0  0  0  0  0  0  0  0  0
    8.3117  -15.0399   20.3735 C   0  0  2  0  0  0  0  0  0  0  0  0
    7.8562  -16.0019   19.4210 N   0  0  0  0  0  0  0  0  0  0  0  0
    8.4710  -15.5990   21.7391 C   0  0  0  0  0  0  0  0  0  0  0  0
    7.5267  -15.5746   22.5700 O   0  0  0  0  0  0  0  0  0  0  0  0
   10.8454  -17.9485   23.3008 C   0  0  0  0  0  0  0  0  0  0  0  0
    9.8342  -16.8099   23.4893 C   0  0  2  0  0  0  0  0  0  0  0  0
    9.6825  -16.1911   22.1944 N   0  0  0  0  0  0  0  0  0  0  0  0
   10.2598  -15.8797   24.5421 C   0  0  0  0  0  0  0  0  0  0  0  0
   11.1957  -15.1005   24.3056 O   0  0  0  0  0  0  0  0  0  0  0  0
    9.6561  -15.8114   25.8446 N   0  0  0  0  0  0  0  0  0  0  0  0
   10.0111  -14.9442   26.8864 C   0  0  1  0  0  0  0  0  0  0  0  0
    9.3823  -13.6343   27.0807 C   0  0  0  0  0  0  0  0  0  0  0  0
    7.9525  -13.4425   26.7099 C   0  0  0  0  0  0  0  0  0  0  0  0
    7.3372  -12.1167   26.8896 C   0  0  0  0  0  0  0  0  0  0  0  0
    5.8606  -12.2462   26.4458 C   0  0  0  0  0  0  0  0  0  0  0  0
    5.1504  -11.0182   26.6485 N   0  0  0  0  0  0  0  0  0  0  0  0
   10.2141  -15.6889   28.1785 C   0  0  0  0  0  0  0  0  0  0  0  0
   10.6243  -15.0869   29.1966 O   0  0  0  0  0  0  0  0  0  0  0  0
    9.9602  -17.0430   28.2905 O   0  0  0  0  0  0  0  0  0  0  0  0
  2  1  1  0
  2  3  2  0
  4  5  1  0
  4  2  1  0
  6  8  1  0
  6  7  1  6
  6  5  1  0
  8  9  2  0
 11 10  1  6
 11 13  1  0
 12 11  1  0
 12  8  1  0
 13 14  2  0
 13 15  1  0
 15 16  1  0
 16 22  1  0
 16 17  1  1
 18 17  1  0
 19 18  1  0
 20 19  1  0
 21 20  1  0
 22 23  2  0
 22 24  1  0
M  END
$$$$
