QAK.pdb
     RDKit          3D

 24 23  0  0  1  0  0  0  0  0999 V2000
    9.7188  -17.1764   15.2337 N   0  0  0  0  0  0  0  0  0  0  0  0
    8.4100  -16.7321   14.9340 C   0  0  0  0  0  0  0  0  0  0  0  0
    7.7673  -17.3263   14.0234 O   0  0  0  0  0  0  0  0  0  0  0  0
    7.7856  -15.5955   15.6597 C   0  0  0  0  0  0  0  0  0  0  0  0
    8.6600  -15.1490   16.8071 C   0  0  0  0  0  0  0  0  0  0  0  0
    7.9911  -14.1559   17.7010 C   0  0  2  0  0  0  0  0  0  0  0  0
    7.9926  -12.8788   17.0612 N   0  0  0  0  0  0  0  0  0  0  0  0
    8.5712  -14.1265   19.0668 C   0  0  0  0  0  0  0  0  0  0  0  0
    9.8152  -14.1635   19.2500 O   0  0  0  0  0  0  0  0  0  0  0  0
    7.1580  -13.6911   22.5133 C   0  0  0  0  0  0  0  0  0  0  0  0
    8.3146  -14.0743   21.5807 C   0  0  2  0  0  0  0  0  0  0  0  0
    7.7731  -14.0555   20.2431 N   0  0  0  0  0  0  0  0  0  0  0  0
    8.9084  -15.3622   21.9593 C   0  0  0  0  0  0  0  0  0  0  0  0
    8.4493  -16.4000   21.4582 O   0  0  0  0  0  0  0  0  0  0  0  0
   10.0002  -15.5016   22.8837 N   0  0  0  0  0  0  0  0  0  0  0  0
   10.5530  -16.7018   23.3499 C   0  0  1  0  0  0  0  0  0  0  0  0
   11.9689  -17.0434   23.1835 C   0  0  0  0  0  0  0  0  0  0  0  0
   12.4604  -18.3779   23.6263 C   0  0  0  0  0  0  0  0  0  0  0  0
   13.8974  -18.6829   23.5223 C   0  0  0  0  0  0  0  0  0  0  0  0
   14.0765  -20.1500   23.9807 C   0  0  0  0  0  0  0  0  0  0  0  0
   15.4629  -20.5071   24.0407 N   0  0  0  0  0  0  0  0  0  0  0  0
   10.0254  -17.0586   24.7135 C   0  0  0  0  0  0  0  0  0  0  0  0
    9.4685  -16.1899   25.4225 O   0  0  0  0  0  0  0  0  0  0  0  0
   10.1328  -18.3369   25.2284 O   0  0  0  0  0  0  0  0  0  0  0  0
  2  1  1  0
  2  3  2  0
  4  5  1  0
  4  2  1  0
  6  8  1  0
  6  7  1  6
  6  5  1  0
  8  9  2  0
 11 10  1  1
 11 13  1  0
 12 11  1  0
 12  8  1  0
 13 14  2  0
 13 15  1  0
 15 16  1  0
 16 22  1  0
 16 17  1  1
 18 17  1  0
 19 18  1  0
 20 19  1  0
 21 20  1  0
 22 23  2  0
 22 24  1  0
M  END
$$$$
