QAK.pdb
     RDKit          3D

 24 23  0  0  1  0  0  0  0  0999 V2000
    8.4225  -12.9243   17.4112 N   0  0  0  0  0  0  0  0  0  0  0  0
    7.9363  -13.8616   18.3521 C   0  0  0  0  0  0  0  0  0  0  0  0
    7.8942  -15.0795   18.0204 O   0  0  0  0  0  0  0  0  0  0  0  0
    7.4805  -13.4464   19.7043 C   0  0  0  0  0  0  0  0  0  0  0  0
    8.4350  -13.9403   20.7651 C   0  0  0  0  0  0  0  0  0  0  0  0
    7.7412  -14.5599   21.9344 C   0  0  2  0  0  0  0  0  0  0  0  0
    6.3355  -14.3373   21.8131 N   0  0  0  0  0  0  0  0  0  0  0  0
    8.2940  -14.1121   23.2370 C   0  0  0  0  0  0  0  0  0  0  0  0
    9.5220  -14.2058   23.4932 O   0  0  0  0  0  0  0  0  0  0  0  0
    6.9522  -12.4014   26.2801 C   0  0  0  0  0  0  0  0  0  0  0  0
    7.9285  -13.3920   25.6320 C   0  0  2  0  0  0  0  0  0  0  0  0
    7.4861  -13.5553   24.2680 N   0  0  0  0  0  0  0  0  0  0  0  0
    7.9987  -14.6503   26.3846 C   0  0  0  0  0  0  0  0  0  0  0  0
    7.1632  -15.5353   26.1445 O   0  0  0  0  0  0  0  0  0  0  0  0
    8.9839  -14.9278   27.3936 N   0  0  0  0  0  0  0  0  0  0  0  0
    9.5238  -16.1807   27.7131 C   0  0  1  0  0  0  0  0  0  0  0  0
   10.0844  -17.0861   26.7056 C   0  0  0  0  0  0  0  0  0  0  0  0
   11.5239  -17.4627   26.7748 C   0  0  0  0  0  0  0  0  0  0  0  0
   12.0807  -18.3576   25.7463 C   0  0  0  0  0  0  0  0  0  0  0  0
   13.5660  -18.5892   26.1131 C   0  0  0  0  0  0  0  0  0  0  0  0
   14.1716  -19.5473   25.2363 N   0  0  0  0  0  0  0  0  0  0  0  0
   10.3550  -16.1195   28.9663 C   0  0  0  0  0  0  0  0  0  0  0  0
   10.5780  -17.1589   29.6276 O   0  0  0  0  0  0  0  0  0  0  0  0
   10.8957  -14.9344   29.4288 O   0  0  0  0  0  0  0  0  0  0  0  0
  2  1  1  0
  2  3  2  0
  4  5  1  0
  4  2  1  0
  6  8  1  0
  6  7  1  1
  6  5  1  0
  8  9  2  0
 11 10  1  1
 11 13  1  0
 12 11  1  0
 12  8  1  0
 13 14  2  0
 13 15  1  0
 15 16  1  0
 16 22  1  0
 16 17  1  6
 18 17  1  0
 19 18  1  0
 20 19  1  0
 21 20  1  0
 22 23  2  0
 22 24  1  0
M  END
$$$$
