QAK.pdb
     RDKit          3D

 24 23  0  0  1  0  0  0  0  0999 V2000
    8.7812  -12.9053   17.3561 N   0  0  0  0  0  0  0  0  0  0  0  0
    8.4017  -14.1406   16.7815 C   0  0  0  0  0  0  0  0  0  0  0  0
    7.8007  -14.1273   15.6707 O   0  0  0  0  0  0  0  0  0  0  0  0
    8.6926  -15.4354   17.4503 C   0  0  0  0  0  0  0  0  0  0  0  0
    9.4599  -15.2143   18.7320 C   0  0  0  0  0  0  0  0  0  0  0  0
    8.9492  -16.0375   19.8696 C   0  0  2  0  0  0  0  0  0  0  0  0
    7.6411  -16.5133   19.5493 N   0  0  0  0  0  0  0  0  0  0  0  0
    9.0103  -15.3252   21.1703 C   0  0  0  0  0  0  0  0  0  0  0  0
   10.0848  -14.8256   21.5925 O   0  0  0  0  0  0  0  0  0  0  0  0
    6.9680  -13.2632   23.1267 C   0  0  0  0  0  0  0  0  0  0  0  0
    7.9122  -14.4632   23.2772 C   0  0  2  0  0  0  0  0  0  0  0  0
    7.8763  -15.1613   22.0147 N   0  0  0  0  0  0  0  0  0  0  0  0
    7.5421  -15.2998   24.4253 C   0  0  0  0  0  0  0  0  0  0  0  0
    6.3489  -15.5996   24.5836 O   0  0  0  0  0  0  0  0  0  0  0  0
    8.4829  -15.8004   25.3896 N   0  0  0  0  0  0  0  0  0  0  0  0
    8.7555  -17.1456   25.6717 C   0  0  1  0  0  0  0  0  0  0  0  0
    8.7220  -18.1958   24.6494 C   0  0  0  0  0  0  0  0  0  0  0  0
    7.5393  -19.0967   24.5590 C   0  0  0  0  0  0  0  0  0  0  0  0
    7.5297  -20.1673   23.5477 C   0  0  0  0  0  0  0  0  0  0  0  0
    6.1661  -20.8877   23.6736 C   0  0  0  0  0  0  0  0  0  0  0  0
    6.0999  -22.0243   22.8035 N   0  0  0  0  0  0  0  0  0  0  0  0
    9.9226  -17.2863   26.6114 C   0  0  0  0  0  0  0  0  0  0  0  0
   11.0782  -16.9893   26.2321 O   0  0  0  0  0  0  0  0  0  0  0  0
    9.7681  -17.7409   27.9076 O   0  0  0  0  0  0  0  0  0  0  0  0
  2  1  1  0
  2  3  2  0
  4  5  1  0
  4  2  1  0
  6  8  1  0
  6  7  1  6
  6  5  1  0
  8  9  2  0
 11 10  1  6
 11 13  1  0
 12 11  1  0
 12  8  1  0
 13 14  2  0
 13 15  1  0
 15 16  1  0
 16 22  1  0
 16 17  1  6
 18 17  1  0
 19 18  1  0
 20 19  1  0
 21 20  1  0
 22 23  2  0
 22 24  1  0
M  END
$$$$
