QAK.pdb
     RDKit          3D

 24 23  0  0  1  0  0  0  0  0999 V2000
   13.6441  -23.6722   25.1899 N   0  0  0  0  0  0  0  0  0  0  0  0
   12.4701  -23.5105   24.4181 C   0  0  0  0  0  0  0  0  0  0  0  0
   12.4378  -24.0143   23.2604 O   0  0  0  0  0  0  0  0  0  0  0  0
   11.2906  -22.7696   24.9362 C   0  0  0  0  0  0  0  0  0  0  0  0
   11.5246  -22.3197   26.3585 C   0  0  0  0  0  0  0  0  0  0  0  0
   10.9897  -23.2790   27.3717 C   0  0  2  0  0  0  0  0  0  0  0  0
    9.5805  -23.4166   27.1838 N   0  0  0  0  0  0  0  0  0  0  0  0
   11.3617  -22.9167   28.7620 C   0  0  0  0  0  0  0  0  0  0  0  0
   11.9035  -21.8129   29.0276 O   0  0  0  0  0  0  0  0  0  0  0  0
   10.9565  -24.5818   32.1049 C   0  0  0  0  0  0  0  0  0  0  0  0
   11.5350  -23.4676   31.2227 C   0  0  2  0  0  0  0  0  0  0  0  0
   11.1348  -23.7789   29.8715 N   0  0  0  0  0  0  0  0  0  0  0  0
   12.9874  -23.3431   31.3946 C   0  0  0  0  0  0  0  0  0  0  0  0
   13.7321  -23.7776   30.5026 O   0  0  0  0  0  0  0  0  0  0  0  0
   13.6111  -22.7435   32.5423 N   0  0  0  0  0  0  0  0  0  0  0  0
   14.9836  -22.5393   32.7370 C   0  0  1  0  0  0  0  0  0  0  0  0
   15.8696  -22.0305   31.6856 C   0  0  0  0  0  0  0  0  0  0  0  0
   17.3175  -21.8348   31.9750 C   0  0  0  0  0  0  0  0  0  0  0  0
   18.1786  -21.2293   30.9451 C   0  0  0  0  0  0  0  0  0  0  0  0
   19.6084  -21.1751   31.5344 C   0  0  0  0  0  0  0  0  0  0  0  0
   20.5145  -20.5268   30.6332 N   0  0  0  0  0  0  0  0  0  0  0  0
   15.2641  -21.9240   34.0815 C   0  0  0  0  0  0  0  0  0  0  0  0
   16.3409  -22.1636   34.6735 O   0  0  0  0  0  0  0  0  0  0  0  0
   14.3601  -21.0848   34.7053 O   0  0  0  0  0  0  0  0  0  0  0  0
  2  1  1  0
  2  3  2  0
  4  5  1  0
  4  2  1  0
  6  8  1  0
  6  7  1  1
  6  5  1  0
  8  9  2  0
 11 10  1  1
 11 13  1  0
 12 11  1  0
 12  8  1  0
 13 14  2  0
 13 15  1  0
 15 16  1  0
 16 22  1  0
 16 17  1  6
 18 17  1  0
 19 18  1  0
 20 19  1  0
 21 20  1  0
 22 23  2  0
 22 24  1  0
M  END
$$$$
