QAK.pdb
     RDKit          3D

 24 23  0  0  1  0  0  0  0  0999 V2000
    8.2502  -13.0957   14.4223 N   0  0  0  0  0  0  0  0  0  0  0  0
    7.7326  -14.1951   13.6988 C   0  0  0  0  0  0  0  0  0  0  0  0
    7.5043  -14.0489   12.4652 O   0  0  0  0  0  0  0  0  0  0  0  0
    7.4562  -15.5004   14.3531 C   0  0  0  0  0  0  0  0  0  0  0  0
    8.7272  -16.1026   14.9027 C   0  0  0  0  0  0  0  0  0  0  0  0
    8.5714  -16.6329   16.2910 C   0  0  2  0  0  0  0  0  0  0  0  0
    7.2296  -17.0901   16.4666 N   0  0  0  0  0  0  0  0  0  0  0  0
    8.9997  -15.6637   17.3303 C   0  0  0  0  0  0  0  0  0  0  0  0
   10.1847  -15.2449   17.3853 O   0  0  0  0  0  0  0  0  0  0  0  0
    7.4217  -13.3099   19.6600 C   0  0  0  0  0  0  0  0  0  0  0  0
    8.5407  -14.3343   19.4303 C   0  0  2  0  0  0  0  0  0  0  0  0
    8.1141  -15.1504   18.3191 N   0  0  0  0  0  0  0  0  0  0  0  0
    8.8290  -15.1001   20.6490 C   0  0  0  0  0  0  0  0  0  0  0  0
    7.9663  -15.8803   21.0801 O   0  0  0  0  0  0  0  0  0  0  0  0
   10.0602  -15.0042   21.3844 N   0  0  0  0  0  0  0  0  0  0  0  0
   10.8498  -16.0701   21.8358 C   0  0  1  0  0  0  0  0  0  0  0  0
   11.1302  -17.2546   21.0188 C   0  0  0  0  0  0  0  0  0  0  0  0
   10.0493  -18.2485   20.7690 C   0  0  0  0  0  0  0  0  0  0  0  0
   10.3215  -19.3971   19.8885 C   0  0  0  0  0  0  0  0  0  0  0  0
    9.0118  -20.2171   19.8070 C   0  0  0  0  0  0  0  0  0  0  0  0
    9.1668  -21.3546   18.9493 N   0  0  0  0  0  0  0  0  0  0  0  0
   12.0600  -15.5809   22.5849 C   0  0  0  0  0  0  0  0  0  0  0  0
   12.9282  -14.8928   22.0018 O   0  0  0  0  0  0  0  0  0  0  0  0
   12.2577  -15.8669   23.9228 O   0  0  0  0  0  0  0  0  0  0  0  0
  2  1  1  0
  2  3  2  0
  4  5  1  0
  4  2  1  0
  6  8  1  0
  6  7  1  1
  6  5  1  0
  8  9  2  0
 11 10  1  1
 11 13  1  0
 12 11  1  0
 12  8  1  0
 13 14  2  0
 13 15  1  0
 15 16  1  0
 16 22  1  0
 16 17  1  6
 18 17  1  0
 19 18  1  0
 20 19  1  0
 21 20  1  0
 22 23  2  0
 22 24  1  0
M  END
$$$$
