QAK.pdb
     RDKit          3D

 24 23  0  0  1  0  0  0  0  0999 V2000
    6.7073  -13.0958   18.5527 N   0  0  0  0  0  0  0  0  0  0  0  0
    7.9973  -13.6752   18.5673 C   0  0  0  0  0  0  0  0  0  0  0  0
    8.4189  -14.2301   17.5140 O   0  0  0  0  0  0  0  0  0  0  0  0
    8.8540  -13.6439   19.7812 C   0  0  0  0  0  0  0  0  0  0  0  0
    9.2589  -15.0413   20.1858 C   0  0  0  0  0  0  0  0  0  0  0  0
    8.4520  -15.5786   21.3229 C   0  0  2  0  0  0  0  0  0  0  0  0
    7.0876  -15.6880   20.9147 N   0  0  0  0  0  0  0  0  0  0  0  0
    8.6276  -14.7994   22.5738 C   0  0  0  0  0  0  0  0  0  0  0  0
    9.7701  -14.5774   23.0512 O   0  0  0  0  0  0  0  0  0  0  0  0
    6.3679  -12.9564   24.9218 C   0  0  0  0  0  0  0  0  0  0  0  0
    7.6385  -13.7767   24.6628 C   0  0  2  0  0  0  0  0  0  0  0  0
    7.5337  -14.2590   23.3067 N   0  0  0  0  0  0  0  0  0  0  0  0
    7.8039  -14.8431   25.6578 C   0  0  0  0  0  0  0  0  0  0  0  0
    7.7904  -14.5421   26.8612 O   0  0  0  0  0  0  0  0  0  0  0  0
    7.9826  -16.2299   25.3254 N   0  0  0  0  0  0  0  0  0  0  0  0
    8.1004  -17.2972   26.2256 C   0  0  1  0  0  0  0  0  0  0  0  0
    7.3353  -18.5404   26.0907 C   0  0  0  0  0  0  0  0  0  0  0  0
    7.4713  -19.6036   27.1250 C   0  0  0  0  0  0  0  0  0  0  0  0
    6.7856  -20.8912   26.9234 C   0  0  0  0  0  0  0  0  0  0  0  0
    7.0088  -21.7217   28.2098 C   0  0  0  0  0  0  0  0  0  0  0  0
    6.2693  -22.9484   28.1678 N   0  0  0  0  0  0  0  0  0  0  0  0
    9.5352  -17.5367   26.6119 C   0  0  0  0  0  0  0  0  0  0  0  0
    9.8526  -17.6608   27.8166 O   0  0  0  0  0  0  0  0  0  0  0  0
   10.5417  -17.6277   25.6688 O   0  0  0  0  0  0  0  0  0  0  0  0
  2  1  1  0
  2  3  2  0
  4  5  1  0
  4  2  1  0
  6  8  1  0
  6  7  1  6
  6  5  1  0
  8  9  2  0
 11 10  1  1
 11 13  1  0
 12 11  1  0
 12  8  1  0
 13 14  2  0
 13 15  1  0
 15 16  1  0
 16 22  1  0
 16 17  1  6
 18 17  1  0
 19 18  1  0
 20 19  1  0
 21 20  1  0
 22 23  2  0
 22 24  1  0
M  END
$$$$
