QAK.pdb
     RDKit          3D

 24 23  0  0  1  0  0  0  0  0999 V2000
    8.8700  -12.5110   18.0496 N   0  0  0  0  0  0  0  0  0  0  0  0
    8.4216  -13.8511   18.1060 C   0  0  0  0  0  0  0  0  0  0  0  0
    8.7352  -14.6300   17.1626 O   0  0  0  0  0  0  0  0  0  0  0  0
    7.6001  -14.3529   19.2382 C   0  0  0  0  0  0  0  0  0  0  0  0
    8.4309  -15.2107   20.1623 C   0  0  0  0  0  0  0  0  0  0  0  0
    7.6742  -15.6826   21.3613 C   0  0  2  0  0  0  0  0  0  0  0  0
    6.2745  -15.5480   21.1109 N   0  0  0  0  0  0  0  0  0  0  0  0
    8.1102  -15.0205   22.6160 C   0  0  0  0  0  0  0  0  0  0  0  0
    9.3068  -15.0719   23.0010 O   0  0  0  0  0  0  0  0  0  0  0  0
    6.5780  -12.5320   24.9210 C   0  0  0  0  0  0  0  0  0  0  0  0
    7.6283  -13.6207   24.6646 C   0  0  2  0  0  0  0  0  0  0  0  0
    7.2194  -14.2943   23.4555 N   0  0  0  0  0  0  0  0  0  0  0  0
    7.7707  -14.5153   25.8197 C   0  0  0  0  0  0  0  0  0  0  0  0
    7.0817  -15.5459   25.8631 O   0  0  0  0  0  0  0  0  0  0  0  0
    8.6668  -14.2725   26.9169 N   0  0  0  0  0  0  0  0  0  0  0  0
    9.3347  -15.2390   27.6805 C   0  0  1  0  0  0  0  0  0  0  0  0
   10.0428  -16.3754   27.0834 C   0  0  0  0  0  0  0  0  0  0  0  0
   10.6162  -17.4301   27.9651 C   0  0  0  0  0  0  0  0  0  0  0  0
   11.2637  -18.6023   27.3523 C   0  0  0  0  0  0  0  0  0  0  0  0
   11.6917  -19.5328   28.5121 C   0  0  0  0  0  0  0  0  0  0  0  0
   12.3723  -20.6935   28.0192 N   0  0  0  0  0  0  0  0  0  0  0  0
   10.0953  -14.6133   28.8186 C   0  0  0  0  0  0  0  0  0  0  0  0
   10.1161  -15.1640   29.9427 O   0  0  0  0  0  0  0  0  0  0  0  0
   10.7888  -13.4268   28.6707 O   0  0  0  0  0  0  0  0  0  0  0  0
  2  1  1  0
  2  3  2  0
  4  5  1  0
  4  2  1  0
  6  8  1  0
  6  7  1  6
  6  5  1  0
  8  9  2  0
 11 10  1  1
 11 13  1  0
 12 11  1  0
 12  8  1  0
 13 14  2  0
 13 15  1  0
 15 16  1  0
 16 22  1  0
 16 17  1  6
 18 17  1  0
 19 18  1  0
 20 19  1  0
 21 20  1  0
 22 23  2  0
 22 24  1  0
M  END
$$$$
