RQI.pdb
     RDKit          3D

 29 28  0  0  1  0  0  0  0  0999 V2000
   10.3716  -13.4642   18.8850 N   0  0  0  0  0  0  0  0  0  0  0  0
    9.0449  -13.0231   18.6949 C   0  0  0  0  0  0  0  0  0  0  0  0
    8.6752  -11.8818   19.1295 N   0  0  0  0  0  0  0  0  0  0  0  0
    8.0625  -13.8387   18.0079 N   0  0  0  0  0  0  0  0  0  0  0  0
    7.8978  -15.2006   18.3719 C   0  0  0  0  0  0  0  0  0  0  0  0
    6.6119  -15.5238   19.0186 C   0  0  0  0  0  0  0  0  0  0  0  0
    6.5509  -15.7382   20.4846 C   0  0  0  0  0  0  0  0  0  0  0  0
    6.7561  -17.0981   20.9767 C   0  0  2  0  0  0  0  0  0  0  0  0
    5.7356  -18.0347   20.5361 N   0  0  0  0  0  0  0  0  0  0  0  0
    6.8133  -17.2031   22.4659 C   0  0  0  0  0  0  0  0  0  0  0  0
    5.7540  -16.9609   23.0804 O   0  0  0  0  0  0  0  0  0  0  0  0
    7.7072  -11.5540   18.9890 N   0  0  0  0  0  0  0  0  0  0  0  0
    5.5002  -20.4455   24.9831 C   0  0  0  0  0  0  0  0  0  0  0  0
    6.7673  -20.2580   25.6060 O   0  0  0  0  0  0  0  0  0  0  0  0
    6.8033  -20.2867   26.8610 C   0  0  0  0  0  0  0  0  0  0  0  0
    7.9978  -20.0367   24.7882 C   0  0  0  0  0  0  0  0  0  0  0  0
    8.6456  -18.7613   25.2145 C   0  0  2  0  0  0  0  0  0  0  0  0
    7.9728  -17.5316   24.6457 N   0  0  0  0  0  0  0  0  0  0  0  0
    7.9482  -17.5471   23.2023 C   0  0  0  0  0  0  0  0  0  0  0  0
    8.6718  -16.3609   25.2247 O   0  0  0  0  0  0  0  0  0  0  0  0
    9.6488  -15.8576   24.6408 C   0  0  0  0  0  0  0  0  0  0  0  0
    5.8557  -12.3183   26.8214 C   0  0  0  0  0  0  0  0  0  0  0  0
    6.9964  -13.2046   26.3304 C   0  0  2  0  0  0  0  0  0  0  0  0
    7.8800  -13.6320   27.4540 C   0  0  0  0  0  0  0  0  0  0  0  0
    8.5359  -12.4052   28.0406 C   0  0  2  0  0  0  0  0  0  0  0  0
    8.9233  -14.6296   26.9698 N   0  0  0  0  0  0  0  0  0  0  0  0
    8.2212  -15.8188   26.4448 C   0  0  0  0  0  0  0  0  0  0  0  0
    9.8600  -15.0603   28.0363 O   0  0  0  0  0  0  0  0  0  0  0  0
   10.7645  -14.3521   28.5308 O   0  0  0  0  0  0  0  0  0  0  0  0
  2  3  2  0
  2  1  1  0
  4  2  1  0
  5  4  1  0
  6  5  1  0
  7  6  1  0
  8  7  1  0
  8  9  1  1
 10  8  1  0
 10 11  2  0
 13 12  1  0
 13 14  2  0
 15 16  1  0
 15 13  1  0
 17 16  1  1
 17 18  1  0
 17 19  1  0
 18 10  1  0
 19 20  2  0
 19 26  1  0
 22 21  1  0
 23 22  1  0
 23 25  1  0
 23 24  1  1
 25 27  1  0
 25 26  1  6
 27 28  2  0
 27 29  1  0
M  END
$$$$
