RQI.pdb
     RDKit          3D

 29 28  0  0  1  0  0  0  0  0999 V2000
    7.2810  -15.2743   13.8433 N   0  0  0  0  0  0  0  0  0  0  0  0
    8.5626  -15.3947   14.4208 C   0  0  0  0  0  0  0  0  0  0  0  0
    9.5556  -15.7756   13.7158 N   0  0  0  0  0  0  0  0  0  0  0  0
    8.7986  -15.0950   15.8197 N   0  0  0  0  0  0  0  0  0  0  0  0
    7.7190  -14.6848   16.6448 C   0  0  0  0  0  0  0  0  0  0  0  0
    7.9032  -13.3831   17.3140 C   0  0  0  0  0  0  0  0  0  0  0  0
    7.6424  -13.2518   18.7678 C   0  0  0  0  0  0  0  0  0  0  0  0
    8.7900  -13.3253   19.6685 C   0  0  2  0  0  0  0  0  0  0  0  0
    9.9782  -13.8889   19.0493 N   0  0  0  0  0  0  0  0  0  0  0  0
    8.5396  -14.1214   20.9077 C   0  0  0  0  0  0  0  0  0  0  0  0
    7.5676  -13.7685   21.6071 O   0  0  0  0  0  0  0  0  0  0  0  0
   10.5045  -15.8104   14.1192 N   0  0  0  0  0  0  0  0  0  0  0  0
   11.1562  -19.6039   22.6934 C   0  0  0  0  0  0  0  0  0  0  0  0
   10.1278  -19.4207   23.6618 O   0  0  0  0  0  0  0  0  0  0  0  0
    9.9499  -20.3425   24.4960 C   0  0  0  0  0  0  0  0  0  0  0  0
    9.3002  -18.1771   23.6746 C   0  0  0  0  0  0  0  0  0  0  0  0
    9.7331  -17.2900   22.5549 C   0  0  2  0  0  0  0  0  0  0  0  0
    8.9802  -15.9788   22.5077 N   0  0  0  0  0  0  0  0  0  0  0  0
    9.3035  -15.2115   21.3283 C   0  0  0  0  0  0  0  0  0  0  0  0
    9.2691  -15.2789   23.7808 O   0  0  0  0  0  0  0  0  0  0  0  0
   10.3385  -14.6605   23.9319 C   0  0  0  0  0  0  0  0  0  0  0  0
    5.6836  -12.0872   25.5490 C   0  0  0  0  0  0  0  0  0  0  0  0
    7.0127  -12.7889   25.2866 C   0  0  2  0  0  0  0  0  0  0  0  0
    7.3654  -13.7250   26.3936 C   0  0  0  0  0  0  0  0  0  0  0  0
    7.5830  -12.9187   27.6513 C   0  0  2  0  0  0  0  0  0  0  0  0
    8.6073  -14.5324   26.0416 N   0  0  0  0  0  0  0  0  0  0  0  0
    8.3216  -15.3175   24.8231 C   0  0  0  0  0  0  0  0  0  0  0  0
    9.0267  -15.4604   27.1201 O   0  0  0  0  0  0  0  0  0  0  0  0
    9.8028  -15.1727   28.0576 O   0  0  0  0  0  0  0  0  0  0  0  0
  2  3  2  0
  2  1  1  0
  4  2  1  0
  5  4  1  0
  6  5  1  0
  7  6  1  0
  8  7  1  0
  8  9  1  6
 10  8  1  0
 10 11  2  0
 13 12  1  0
 13 14  2  0
 15 16  1  0
 15 13  1  0
 17 16  1  6
 17 18  1  0
 17 19  1  0
 18 10  1  0
 19 20  2  0
 19 26  1  0
 22 21  1  0
 23 22  1  0
 23 25  1  0
 23 24  1  1
 25 27  1  0
 25 26  1  6
 27 28  2  0
 27 29  1  0
M  END
$$$$
