RQI.pdb
     RDKit          3D

 29 28  0  0  1  0  0  0  0  0999 V2000
    9.4069  -14.8197   16.3816 N   0  0  0  0  0  0  0  0  0  0  0  0
    8.3176  -14.0235   15.9691 C   0  0  0  0  0  0  0  0  0  0  0  0
    7.9224  -14.0480   14.7561 N   0  0  0  0  0  0  0  0  0  0  0  0
    7.6141  -13.1573   16.8949 N   0  0  0  0  0  0  0  0  0  0  0  0
    7.7245  -13.3806   18.2922 C   0  0  0  0  0  0  0  0  0  0  0  0
    7.5304  -14.7793   18.7190 C   0  0  0  0  0  0  0  0  0  0  0  0
    7.4300  -15.1087   20.1613 C   0  0  0  0  0  0  0  0  0  0  0  0
    7.1995  -16.5059   20.5198 C   0  0  2  0  0  0  0  0  0  0  0  0
    5.8987  -17.0044   20.1047 N   0  0  0  0  0  0  0  0  0  0  0  0
    7.3129  -16.7842   21.9832 C   0  0  0  0  0  0  0  0  0  0  0  0
    6.2901  -16.5770   22.6684 O   0  0  0  0  0  0  0  0  0  0  0  0
    7.1559  -13.4340   14.4403 N   0  0  0  0  0  0  0  0  0  0  0  0
   11.1243  -20.4862   25.2736 C   0  0  0  0  0  0  0  0  0  0  0  0
   10.4893  -19.7382   26.3061 O   0  0  0  0  0  0  0  0  0  0  0  0
   10.7623  -20.0456   27.4928 C   0  0  0  0  0  0  0  0  0  0  0  0
    9.5380  -18.6341   25.9780 C   0  0  0  0  0  0  0  0  0  0  0  0
    9.4647  -18.4760   24.4956 C   0  0  2  0  0  0  0  0  0  0  0  0
    8.5712  -17.3354   24.0609 N   0  0  0  0  0  0  0  0  0  0  0  0
    8.4619  -17.2511   22.6238 C   0  0  0  0  0  0  0  0  0  0  0  0
    9.1084  -16.1107   24.6980 O   0  0  0  0  0  0  0  0  0  0  0  0
   10.1427  -15.5742   24.2608 C   0  0  0  0  0  0  0  0  0  0  0  0
    5.9543  -12.0941   25.9396 C   0  0  0  0  0  0  0  0  0  0  0  0
    7.1624  -12.9549   25.5825 C   0  0  2  0  0  0  0  0  0  0  0  0
    7.8945  -13.4037   26.8027 C   0  0  0  0  0  0  0  0  0  0  0  0
    8.4240  -12.1846   27.5188 C   0  0  2  0  0  0  0  0  0  0  0  0
    9.0256  -14.3538   26.4336 N   0  0  0  0  0  0  0  0  0  0  0  0
    8.4377  -15.5549   25.8057 C   0  0  0  0  0  0  0  0  0  0  0  0
    9.8398  -14.7746   27.5999 O   0  0  0  0  0  0  0  0  0  0  0  0
    9.5781  -15.7392   28.3517 O   0  0  0  0  0  0  0  0  0  0  0  0
  2  3  2  0
  2  1  1  0
  4  2  1  0
  5  4  1  0
  6  5  1  0
  7  6  1  0
  8  7  1  0
  8  9  1  1
 10  8  1  0
 10 11  2  0
 13 12  1  0
 13 14  2  0
 15 16  1  0
 15 13  1  0
 17 16  1  1
 17 18  1  0
 17 19  1  0
 18 10  1  0
 19 20  2  0
 19 26  1  0
 22 21  1  0
 23 22  1  0
 23 25  1  0
 23 24  1  1
 25 27  1  0
 25 26  1  6
 27 28  2  0
 27 29  1  0
M  END
$$$$
