RQI.pdb
     RDKit          3D

 29 28  0  0  1  0  0  0  0  0999 V2000
    9.8094  -15.4968   15.3006 N   0  0  0  0  0  0  0  0  0  0  0  0
    8.6438  -14.7018   15.2898 C   0  0  0  0  0  0  0  0  0  0  0  0
    8.0183  -14.4874   14.1985 N   0  0  0  0  0  0  0  0  0  0  0  0
    8.1182  -14.1046   16.5020 N   0  0  0  0  0  0  0  0  0  0  0  0
    8.8830  -14.1451   17.6969 C   0  0  0  0  0  0  0  0  0  0  0  0
    8.2441  -13.5181   18.8696 C   0  0  0  0  0  0  0  0  0  0  0  0
    7.1546  -14.2228   19.5873 C   0  0  0  0  0  0  0  0  0  0  0  0
    7.4099  -15.5935   20.0230 C   0  0  2  0  0  0  0  0  0  0  0  0
    6.6949  -16.5921   19.2455 N   0  0  0  0  0  0  0  0  0  0  0  0
    7.0705  -15.8487   21.4553 C   0  0  0  0  0  0  0  0  0  0  0  0
    6.0394  -15.2942   21.8887 O   0  0  0  0  0  0  0  0  0  0  0  0
    7.0846  -14.0487   14.2050 N   0  0  0  0  0  0  0  0  0  0  0  0
    8.2696  -20.7614   25.0594 C   0  0  0  0  0  0  0  0  0  0  0  0
    7.6192  -19.8869   25.9765 O   0  0  0  0  0  0  0  0  0  0  0  0
    7.3007  -20.3582   27.0962 C   0  0  0  0  0  0  0  0  0  0  0  0
    7.3328  -18.4674   25.6097 C   0  0  0  0  0  0  0  0  0  0  0  0
    7.6909  -18.2506   24.1770 C   0  0  1  0  0  0  0  0  0  0  0  0
    7.4560  -16.8305   23.7118 N   0  0  0  0  0  0  0  0  0  0  0  0
    7.8133  -16.6494   22.3247 C   0  0  0  0  0  0  0  0  0  0  0  0
    8.1972  -15.9513   24.6455 O   0  0  0  0  0  0  0  0  0  0  0  0
    9.3739  -15.6253   24.4048 C   0  0  0  0  0  0  0  0  0  0  0  0
    5.4668  -11.9393   26.9294 C   0  0  0  0  0  0  0  0  0  0  0  0
    6.5609  -12.7948   26.2978 C   0  0  2  0  0  0  0  0  0  0  0  0
    7.2881  -13.5981   27.3235 C   0  0  0  0  0  0  0  0  0  0  0  0
    7.9720  -12.6493   28.2782 C   0  0  2  0  0  0  0  0  0  0  0  0
    8.2962  -14.5290   26.6637 N   0  0  0  0  0  0  0  0  0  0  0  0
    7.5587  -15.4844   25.8116 C   0  0  0  0  0  0  0  0  0  0  0  0
    9.1137  -15.2914   27.6389 O   0  0  0  0  0  0  0  0  0  0  0  0
    8.8123  -16.4075   28.1158 O   0  0  0  0  0  0  0  0  0  0  0  0
  2  3  2  0
  2  1  1  0
  4  2  1  0
  5  4  1  0
  6  5  1  0
  7  6  1  0
  8  7  1  0
  8  9  1  6
 10  8  1  0
 10 11  2  0
 13 12  1  0
 13 14  2  0
 15 16  1  0
 15 13  1  0
 17 16  1  6
 17 18  1  0
 17 19  1  0
 18 10  1  0
 19 20  2  0
 19 26  1  0
 22 21  1  0
 23 22  1  0
 23 25  1  0
 23 24  1  1
 25 27  1  0
 25 26  1  6
 27 28  2  0
 27 29  1  0
M  END
$$$$
