RQI.pdb
     RDKit          3D

 29 28  0  0  1  0  0  0  0  0999 V2000
    8.4975  -12.3483   19.1336 N   0  0  0  0  0  0  0  0  0  0  0  0
    8.4239  -13.6963   18.7234 C   0  0  0  0  0  0  0  0  0  0  0  0
    8.4438  -13.9961   17.4833 N   0  0  0  0  0  0  0  0  0  0  0  0
    8.3237  -14.7795   19.6821 N   0  0  0  0  0  0  0  0  0  0  0  0
    7.2209  -14.8319   20.5740 C   0  0  0  0  0  0  0  0  0  0  0  0
    6.1433  -15.7598   20.1820 C   0  0  0  0  0  0  0  0  0  0  0  0
    6.4296  -17.2061   20.0231 C   0  0  0  0  0  0  0  0  0  0  0  0
    5.7242  -18.1342   20.9033 C   0  0  2  0  0  0  0  0  0  0  0  0
    4.3165  -18.2883   20.5754 N   0  0  0  0  0  0  0  0  0  0  0  0
    5.7845  -17.7645   22.3496 C   0  0  0  0  0  0  0  0  0  0  0  0
    4.7886  -17.1709   22.8127 O   0  0  0  0  0  0  0  0  0  0  0  0
    8.4699  -14.9821   17.1810 N   0  0  0  0  0  0  0  0  0  0  0  0
    8.8747  -20.4373   27.0429 C   0  0  0  0  0  0  0  0  0  0  0  0
    8.1544  -19.4030   27.7064 O   0  0  0  0  0  0  0  0  0  0  0  0
    8.1804  -19.3957   28.9620 C   0  0  0  0  0  0  0  0  0  0  0  0
    7.4015  -18.3733   26.9287 C   0  0  0  0  0  0  0  0  0  0  0  0
    7.5120  -18.6827   25.4727 C   0  0  2  0  0  0  0  0  0  0  0  0
    6.8649  -17.6383   24.5903 N   0  0  0  0  0  0  0  0  0  0  0  0
    6.8573  -18.0326   23.2015 C   0  0  0  0  0  0  0  0  0  0  0  0
    7.5746  -16.3646   24.8520 O   0  0  0  0  0  0  0  0  0  0  0  0
    8.7160  -16.1732   24.3943 C   0  0  0  0  0  0  0  0  0  0  0  0
    6.2993  -10.5374   26.3127 C   0  0  0  0  0  0  0  0  0  0  0  0
    7.2990  -11.6898   26.3326 C   0  0  2  0  0  0  0  0  0  0  0  0
    6.6299  -12.9992   26.0799 C   0  0  0  0  0  0  0  0  0  0  0  0
    5.7850  -13.3451   27.2823 C   0  0  2  0  0  0  0  0  0  0  0  0
    7.6598  -14.0866   25.8057 N   0  0  0  0  0  0  0  0  0  0  0  0
    6.9465  -15.3677   25.6248 C   0  0  0  0  0  0  0  0  0  0  0  0
    8.6510  -14.2422   26.8982 O   0  0  0  0  0  0  0  0  0  0  0  0
    9.6369  -13.4967   27.0889 O   0  0  0  0  0  0  0  0  0  0  0  0
  2  3  2  0
  2  1  1  0
  4  2  1  0
  5  4  1  0
  6  5  1  0
  7  6  1  0
  8  7  1  0
  8  9  1  6
 10  8  1  0
 10 11  2  0
 13 12  1  0
 13 14  2  0
 15 16  1  0
 15 13  1  0
 17 16  1  1
 17 18  1  0
 17 19  1  0
 18 10  1  0
 19 20  2  0
 19 26  1  0
 22 21  1  0
 23 22  1  0
 23 25  1  0
 23 24  1  6
 25 27  1  0
 25 26  1  1
 27 28  2  0
 27 29  1  0
M  END
$$$$
