RQI.pdb
     RDKit          3D

 29 28  0  0  1  0  0  0  0  0999 V2000
    7.6717  -12.9133   16.9970 N   0  0  0  0  0  0  0  0  0  0  0  0
    8.2561  -14.1706   16.7353 C   0  0  0  0  0  0  0  0  0  0  0  0
    7.9796  -14.8002   15.6605 N   0  0  0  0  0  0  0  0  0  0  0  0
    9.1810  -14.7887   17.6652 N   0  0  0  0  0  0  0  0  0  0  0  0
    8.7252  -15.1997   18.9449 C   0  0  0  0  0  0  0  0  0  0  0  0
    7.5190  -14.5040   19.4320 C   0  0  0  0  0  0  0  0  0  0  0  0
    6.9825  -14.8040   20.7815 C   0  0  0  0  0  0  0  0  0  0  0  0
    6.8855  -16.2081   21.1722 C   0  0  2  0  0  0  0  0  0  0  0  0
    5.8842  -16.9505   20.4245 N   0  0  0  0  0  0  0  0  0  0  0  0
    6.5749  -16.4161   22.6187 C   0  0  0  0  0  0  0  0  0  0  0  0
    5.6697  -15.7037   23.1000 O   0  0  0  0  0  0  0  0  0  0  0  0
    8.4804  -15.6683   15.4159 N   0  0  0  0  0  0  0  0  0  0  0  0
    6.6985  -21.2382   26.3701 C   0  0  0  0  0  0  0  0  0  0  0  0
    7.9705  -20.8750   25.8420 O   0  0  0  0  0  0  0  0  0  0  0  0
    8.8776  -21.7430   25.8737 C   0  0  0  0  0  0  0  0  0  0  0  0
    8.2043  -19.5126   25.2756 C   0  0  0  0  0  0  0  0  0  0  0  0
    6.9853  -18.6782   25.4897 C   0  0  1  0  0  0  0  0  0  0  0  0
    7.0975  -17.2938   24.8904 N   0  0  0  0  0  0  0  0  0  0  0  0
    7.2153  -17.3348   23.4520 C   0  0  0  0  0  0  0  0  0  0  0  0
    8.2335  -16.6292   25.5701 O   0  0  0  0  0  0  0  0  0  0  0  0
    9.3492  -16.5701   25.0218 C   0  0  0  0  0  0  0  0  0  0  0  0
    7.4438  -11.9304   27.4830 C   0  0  0  0  0  0  0  0  0  0  0  0
    8.1252  -13.1770   26.9267 C   0  0  2  0  0  0  0  0  0  0  0  0
    8.6827  -14.0289   28.0174 C   0  0  0  0  0  0  0  0  0  0  0  0
    9.7986  -13.2702   28.6945 C   0  0  2  0  0  0  0  0  0  0  0  0
    9.1832  -15.3556   27.4627 N   0  0  0  0  0  0  0  0  0  0  0  0
    8.0417  -16.0619   26.8456 C   0  0  0  0  0  0  0  0  0  0  0  0
    9.7847  -16.2323   28.4970 O   0  0  0  0  0  0  0  0  0  0  0  0
    9.1773  -17.1260   29.1268 O   0  0  0  0  0  0  0  0  0  0  0  0
  2  3  2  0
  2  1  1  0
  4  2  1  0
  5  4  1  0
  6  5  1  0
  7  6  1  0
  8  7  1  0
  8  9  1  6
 10  8  1  0
 10 11  2  0
 13 12  1  0
 13 14  2  0
 15 16  1  0
 15 13  1  0
 17 16  1  6
 17 18  1  0
 17 19  1  0
 18 10  1  0
 19 20  2  0
 19 26  1  0
 22 21  1  0
 23 22  1  0
 23 25  1  0
 23 24  1  1
 25 27  1  0
 25 26  1  6
 27 28  2  0
 27 29  1  0
M  END
$$$$
