RQI.pdb
     RDKit          3D

 29 28  0  0  1  0  0  0  0  0999 V2000
    8.5352  -12.0096   18.4558 N   0  0  0  0  0  0  0  0  0  0  0  0
    7.6473  -13.0463   18.0985 C   0  0  0  0  0  0  0  0  0  0  0  0
    6.5615  -13.2186   18.7461 N   0  0  0  0  0  0  0  0  0  0  0  0
    7.9303  -13.9450   16.9964 N   0  0  0  0  0  0  0  0  0  0  0  0
    8.4928  -15.2222   17.2546 C   0  0  0  0  0  0  0  0  0  0  0  0
    7.5663  -16.2051   17.8478 C   0  0  0  0  0  0  0  0  0  0  0  0
    7.2170  -16.1225   19.2866 C   0  0  0  0  0  0  0  0  0  0  0  0
    8.3067  -16.2351   20.2528 C   0  0  2  0  0  0  0  0  0  0  0  0
    9.2312  -17.3182   19.9610 N   0  0  0  0  0  0  0  0  0  0  0  0
    7.8511  -16.4348   21.6616 C   0  0  0  0  0  0  0  0  0  0  0  0
    6.9886  -15.6373   22.0843 O   0  0  0  0  0  0  0  0  0  0  0  0
    5.9216  -13.9908   18.5040 N   0  0  0  0  0  0  0  0  0  0  0  0
    7.6553  -18.4839   27.1739 C   0  0  0  0  0  0  0  0  0  0  0  0
    6.7721  -19.2917   26.4017 O   0  0  0  0  0  0  0  0  0  0  0  0
    5.7724  -19.7762   26.9875 C   0  0  0  0  0  0  0  0  0  0  0  0
    7.0350  -19.5455   24.9532 C   0  0  0  0  0  0  0  0  0  0  0  0
    8.2706  -18.8143   24.5450 C   0  0  2  0  0  0  0  0  0  0  0  0
    7.9871  -17.4635   23.9260 N   0  0  0  0  0  0  0  0  0  0  0  0
    8.3149  -17.4329   22.5203 C   0  0  0  0  0  0  0  0  0  0  0  0
    8.7190  -16.4639   24.7381 O   0  0  0  0  0  0  0  0  0  0  0  0
    9.9592  -16.3841   24.6724 C   0  0  0  0  0  0  0  0  0  0  0  0
    6.0872  -12.4146   27.9372 C   0  0  0  0  0  0  0  0  0  0  0  0
    6.6660  -13.6699   27.2915 C   0  0  2  0  0  0  0  0  0  0  0  0
    7.9423  -13.3784   26.5756 C   0  0  0  0  0  0  0  0  0  0  0  0
    7.6107  -12.7709   25.2339 C   0  0  1  0  0  0  0  0  0  0  0  0
    8.7696  -14.6460   26.4111 N   0  0  0  0  0  0  0  0  0  0  0  0
    7.9990  -15.6006   25.5879 C   0  0  0  0  0  0  0  0  0  0  0  0
    9.1096  -15.2941   27.7013 O   0  0  0  0  0  0  0  0  0  0  0  0
    8.6336  -16.3748   28.1129 O   0  0  0  0  0  0  0  0  0  0  0  0
  2  3  2  0
  2  1  1  0
  4  2  1  0
  5  4  1  0
  6  5  1  0
  7  6  1  0
  8  7  1  0
  8  9  1  6
 10  8  1  0
 10 11  2  0
 13 12  1  0
 13 14  2  0
 15 16  1  0
 15 13  1  0
 17 16  1  6
 17 18  1  0
 17 19  1  0
 18 10  1  0
 19 20  2  0
 19 26  1  0
 22 21  1  0
 23 22  1  0
 23 25  1  0
 23 24  1  1
 25 27  1  0
 25 26  1  6
 27 28  2  0
 27 29  1  0
M  END
$$$$
