RQI.pdb
     RDKit          3D

 29 28  0  0  1  0  0  0  0  0999 V2000
    9.0233  -13.5479   17.5451 N   0  0  0  0  0  0  0  0  0  0  0  0
    8.7556  -12.9431   18.7914 C   0  0  0  0  0  0  0  0  0  0  0  0
    9.4073  -11.9104   19.1615 N   0  0  0  0  0  0  0  0  0  0  0  0
    7.7433  -13.4646   19.6890 N   0  0  0  0  0  0  0  0  0  0  0  0
    6.6949  -14.2723   19.1764 C   0  0  0  0  0  0  0  0  0  0  0  0
    7.0065  -15.7106   19.0741 C   0  0  0  0  0  0  0  0  0  0  0  0
    7.7081  -16.3994   20.1841 C   0  0  0  0  0  0  0  0  0  0  0  0
    7.0647  -17.5769   20.7614 C   0  0  2  0  0  0  0  0  0  0  0  0
    5.8281  -17.9482   20.0938 N   0  0  0  0  0  0  0  0  0  0  0  0
    6.7383  -17.4405   22.2129 C   0  0  0  0  0  0  0  0  0  0  0  0
    5.7687  -16.7073   22.4972 O   0  0  0  0  0  0  0  0  0  0  0  0
    9.2469  -11.4925   20.0909 N   0  0  0  0  0  0  0  0  0  0  0  0
    8.8190  -19.7056   28.7143 C   0  0  0  0  0  0  0  0  0  0  0  0
    7.7391  -19.8331   27.7943 O   0  0  0  0  0  0  0  0  0  0  0  0
    7.1964  -20.9612   27.6942 C   0  0  0  0  0  0  0  0  0  0  0  0
    7.2792  -18.6639   26.9860 C   0  0  0  0  0  0  0  0  0  0  0  0
    7.5959  -18.9086   25.5480 C   0  0  2  0  0  0  0  0  0  0  0  0
    7.1742  -17.7724   24.6427 N   0  0  0  0  0  0  0  0  0  0  0  0
    7.4301  -18.0649   23.2523 C   0  0  0  0  0  0  0  0  0  0  0  0
    7.8610  -16.5578   25.1401 O   0  0  0  0  0  0  0  0  0  0  0  0
    8.9057  -16.1566   24.5957 C   0  0  0  0  0  0  0  0  0  0  0  0
    5.0297  -12.3711   26.7812 C   0  0  0  0  0  0  0  0  0  0  0  0
    6.0860  -13.3315   26.2431 C   0  0  2  0  0  0  0  0  0  0  0  0
    7.0965  -13.6740   27.2861 C   0  0  0  0  0  0  0  0  0  0  0  0
    7.8057  -12.4071   27.7000 C   0  0  2  0  0  0  0  0  0  0  0  0
    8.0851  -14.7058   26.7605 N   0  0  0  0  0  0  0  0  0  0  0  0
    7.3215  -15.8572   26.2372 C   0  0  0  0  0  0  0  0  0  0  0  0
    9.0303  -15.1906   27.7959 O   0  0  0  0  0  0  0  0  0  0  0  0
    8.8717  -16.2165   28.4934 O   0  0  0  0  0  0  0  0  0  0  0  0
  2  3  2  0
  2  1  1  0
  4  2  1  0
  5  4  1  0
  6  5  1  0
  7  6  1  0
  8  7  1  0
  8  9  1  6
 10  8  1  0
 10 11  2  0
 13 12  1  0
 13 14  2  0
 15 16  1  0
 15 13  1  0
 17 16  1  6
 17 18  1  0
 17 19  1  0
 18 10  1  0
 19 20  2  0
 19 26  1  0
 22 21  1  0
 23 22  1  0
 23 25  1  0
 23 24  1  1
 25 27  1  0
 25 26  1  6
 27 28  2  0
 27 29  1  0
M  END
$$$$
