EDM.pdb
     RDKit          3D

 26 25  0  0  1  0  0  0  0  0999 V2000
   15.7501  -11.7549  -17.6429 N   0  0  0  0  0  0  0  0  0  0  0  0
   16.8142  -11.7717  -16.6215 C   0  0  1  0  0  0  0  0  0  0  0  0
   17.8128  -12.7743  -17.0983 C   0  0  0  0  0  0  0  0  0  0  0  0
   17.4777  -14.2011  -16.8310 C   0  0  0  0  0  0  0  0  0  0  0  0
   17.4552  -14.4089  -15.3449 C   0  0  0  0  0  0  0  0  0  0  0  0
   16.8484  -13.6421  -14.5662 O   0  0  0  0  0  0  0  0  0  0  0  0
   17.4225  -10.4119  -16.6055 C   0  0  0  0  0  0  0  0  0  0  0  0
   18.0265   -9.9635  -17.6143 O   0  0  0  0  0  0  0  0  0  0  0  0
   18.1277  -15.4888  -14.7899 O   0  0  0  0  0  0  0  0  0  0  0  0
   17.3483   -9.5606  -15.4515 N   0  0  0  0  0  0  0  0  0  0  0  0
   17.9306   -8.2591  -15.4973 C   0  0  1  0  0  0  0  0  0  0  0  0
   16.9069   -7.2158  -15.1062 C   0  0  0  0  0  0  0  0  0  0  0  0
   17.4758   -5.8830  -15.3199 C   0  0  0  0  0  0  0  0  0  0  0  0
   17.3006   -5.0367  -14.3946 O   0  0  0  0  0  0  0  0  0  0  0  0
   19.1170   -8.1293  -14.5934 C   0  0  0  0  0  0  0  0  0  0  0  0
   19.2448   -8.9885  -13.6995 O   0  0  0  0  0  0  0  0  0  0  0  0
   18.1805   -5.4581  -16.4245 O   0  0  0  0  0  0  0  0  0  0  0  0
   25.6423   -9.5841  -14.3629 C   0  0  0  0  0  0  0  0  0  0  0  0
   23.8476   -9.4829  -14.4965 S   0  0  0  0  0  0  0  0  0  0  0  0
   23.4621   -8.3319  -15.8587 C   0  0  0  0  0  0  0  0  0  0  0  0
   21.9865   -8.1721  -15.8957 C   0  0  0  0  0  0  0  0  0  0  0  0
   21.4767   -7.1533  -14.8773 C   0  0  2  0  0  0  0  0  0  0  0  0
   20.0589   -7.0909  -14.7289 N   0  0  0  0  0  0  0  0  0  0  0  0
   22.1668   -5.8859  -15.0712 C   0  0  0  0  0  0  0  0  0  0  0  0
   21.8345   -5.1795  -16.0560 O   0  0  0  0  0  0  0  0  0  0  0  0
   23.1710   -5.3805  -14.2572 O   0  0  0  0  0  0  0  0  0  0  0  0
  2  1  1  6
  3  2  1  0
  3  4  1  0
  5  4  1  0
  5  6  2  0
  7  2  1  0
  7  8  2  0
  9  5  1  0
 10  7  1  0
 11 10  1  0
 11 12  1  1
 13 12  1  0
 13 17  1  0
 14 13  2  0
 15 11  1  0
 16 15  2  0
 18 19  1  0
 19 20  1  0
 20 21  1  0
 22 21  1  6
 22 23  1  0
 22 24  1  0
 23 15  1  0
 24 26  1  0
 25 24  2  0
M  END
$$$$
