EDM.pdb
     RDKit          3D

 26 25  0  0  1  0  0  0  0  0999 V2000
   18.8205  -21.9178  -11.7309 N   0  0  0  0  0  0  0  0  0  0  0  0
   19.3366  -22.6861  -12.8794 C   0  0  1  0  0  0  0  0  0  0  0  0
   18.1637  -23.4339  -13.4222 C   0  0  0  0  0  0  0  0  0  0  0  0
   17.1165  -23.8064  -12.4303 C   0  0  0  0  0  0  0  0  0  0  0  0
   17.7186  -24.7695  -11.4493 C   0  0  0  0  0  0  0  0  0  0  0  0
   18.9320  -25.0699  -11.4577 O   0  0  0  0  0  0  0  0  0  0  0  0
   19.8205  -21.6962  -13.8820 C   0  0  0  0  0  0  0  0  0  0  0  0
   20.1526  -22.0604  -15.0399 O   0  0  0  0  0  0  0  0  0  0  0  0
   16.9158  -25.3630  -10.4851 O   0  0  0  0  0  0  0  0  0  0  0  0
   19.9288  -20.2973  -13.5765 N   0  0  0  0  0  0  0  0  0  0  0  0
   20.4426  -19.3993  -14.5587 C   0  0  1  0  0  0  0  0  0  0  0  0
   19.7683  -18.0503  -14.4355 C   0  0  0  0  0  0  0  0  0  0  0  0
   18.3255  -18.2170  -14.6259 C   0  0  0  0  0  0  0  0  0  0  0  0
   17.5876  -17.9470  -13.6331 O   0  0  0  0  0  0  0  0  0  0  0  0
   21.9229  -19.2077  -14.4425 C   0  0  0  0  0  0  0  0  0  0  0  0
   22.3596  -18.8244  -13.3398 O   0  0  0  0  0  0  0  0  0  0  0  0
   17.6917  -18.6376  -15.7742 O   0  0  0  0  0  0  0  0  0  0  0  0
   26.3738  -21.9383  -11.6783 C   0  0  0  0  0  0  0  0  0  0  0  0
   26.1978  -22.6570  -13.3220 S   0  0  0  0  0  0  0  0  0  0  0  0
   25.9635  -21.2836  -14.5001 C   0  0  0  0  0  0  0  0  0  0  0  0
   24.5078  -20.9977  -14.5588 C   0  0  0  0  0  0  0  0  0  0  0  0
   24.1684  -19.8525  -15.5118 C   0  0  2  0  0  0  0  0  0  0  0  0
   22.8011  -19.4441  -15.5179 N   0  0  0  0  0  0  0  0  0  0  0  0
   24.7778  -20.1043  -16.8100 C   0  0  0  0  0  0  0  0  0  0  0  0
   24.1458  -20.8188  -17.6282 O   0  0  0  0  0  0  0  0  0  0  0  0
   26.0088  -19.6211  -17.2315 O   0  0  0  0  0  0  0  0  0  0  0  0
  2  1  1  1
  3  2  1  0
  3  4  1  0
  5  4  1  0
  5  6  2  0
  7  2  1  0
  7  8  2  0
  9  5  1  0
 10  7  1  0
 11 10  1  0
 11 12  1  1
 13 12  1  0
 13 17  1  0
 14 13  2  0
 15 11  1  0
 16 15  2  0
 18 19  1  0
 19 20  1  0
 20 21  1  0
 22 21  1  1
 22 23  1  0
 22 24  1  0
 23 15  1  0
 24 26  1  0
 25 24  2  0
M  END
$$$$
