EDM.pdb
     RDKit          3D

 26 25  0  0  1  0  0  0  0  0999 V2000
   26.7909  -20.2042  -15.7934 N   0  0  0  0  0  0  0  0  0  0  0  0
   27.7743  -19.9258  -14.7298 C   0  0  1  0  0  0  0  0  0  0  0  0
   28.4479  -18.6542  -15.1283 C   0  0  0  0  0  0  0  0  0  0  0  0
   28.5968  -18.4306  -16.5937 C   0  0  0  0  0  0  0  0  0  0  0  0
   27.8405  -17.1869  -16.9593 C   0  0  0  0  0  0  0  0  0  0  0  0
   28.0128  -16.0964  -16.3732 O   0  0  0  0  0  0  0  0  0  0  0  0
   27.0058  -19.7241  -13.4696 C   0  0  0  0  0  0  0  0  0  0  0  0
   27.0135  -18.6124  -12.8801 O   0  0  0  0  0  0  0  0  0  0  0  0
   26.9072  -17.2249  -17.9859 O   0  0  0  0  0  0  0  0  0  0  0  0
   26.2300  -20.7771  -12.8768 N   0  0  0  0  0  0  0  0  0  0  0  0
   25.4247  -20.5004  -11.7322 C   0  0  1  0  0  0  0  0  0  0  0  0
   24.0756  -21.1717  -11.8692 C   0  0  0  0  0  0  0  0  0  0  0  0
   23.3348  -20.5393  -12.9632 C   0  0  0  0  0  0  0  0  0  0  0  0
   23.0036  -19.3285  -12.7981 O   0  0  0  0  0  0  0  0  0  0  0  0
   26.0619  -20.9602  -10.4578 C   0  0  0  0  0  0  0  0  0  0  0  0
   26.7639  -21.9886  -10.5143 O   0  0  0  0  0  0  0  0  0  0  0  0
   22.9624  -21.1283  -14.1514 O   0  0  0  0  0  0  0  0  0  0  0  0
   29.2501  -19.4138   -3.5363 C   0  0  0  0  0  0  0  0  0  0  0  0
   28.7407  -18.8529   -5.1719 S   0  0  0  0  0  0  0  0  0  0  0  0
   27.5791  -20.0910   -5.8402 C   0  0  0  0  0  0  0  0  0  0  0  0
   27.2082  -19.6526   -7.2093 C   0  0  0  0  0  0  0  0  0  0  0  0
   26.2862  -20.6439   -7.9179 C   0  0  2  0  0  0  0  0  0  0  0  0
   25.8894  -20.2767   -9.2385 N   0  0  0  0  0  0  0  0  0  0  0  0
   25.2242  -21.0536   -7.0099 C   0  0  0  0  0  0  0  0  0  0  0  0
   24.0355  -20.8620   -7.3699 O   0  0  0  0  0  0  0  0  0  0  0  0
   25.4074  -21.6438   -5.7671 O   0  0  0  0  0  0  0  0  0  0  0  0
  2  1  1  6
  3  2  1  0
  3  4  1  0
  5  4  1  0
  5  6  2  0
  7  2  1  0
  7  8  2  0
  9  5  1  0
 10  7  1  0
 11 10  1  0
 11 12  1  6
 13 12  1  0
 13 17  1  0
 14 13  2  0
 15 11  1  0
 16 15  2  0
 18 19  1  0
 19 20  1  0
 20 21  1  0
 22 21  1  1
 22 23  1  0
 22 24  1  0
 23 15  1  0
 24 26  1  0
 25 24  2  0
M  END
$$$$
