EDM.pdb
     RDKit          3D

 26 25  0  0  1  0  0  0  0  0999 V2000
   17.8406  -12.2455  -14.8079 N   0  0  0  0  0  0  0  0  0  0  0  0
   18.2431  -11.9371  -16.1931 C   0  0  1  0  0  0  0  0  0  0  0  0
   16.9962  -12.0455  -17.0073 C   0  0  0  0  0  0  0  0  0  0  0  0
   15.7984  -12.5691  -16.2927 C   0  0  0  0  0  0  0  0  0  0  0  0
   15.1324  -13.5861  -17.1728 C   0  0  0  0  0  0  0  0  0  0  0  0
   14.1916  -13.2976  -17.9437 O   0  0  0  0  0  0  0  0  0  0  0  0
   18.7372  -10.5316  -16.1992 C   0  0  0  0  0  0  0  0  0  0  0  0
   19.6040  -10.1562  -17.0305 O   0  0  0  0  0  0  0  0  0  0  0  0
   15.5611  -14.9059  -17.1469 O   0  0  0  0  0  0  0  0  0  0  0  0
   18.2523   -9.5525  -15.2674 N   0  0  0  0  0  0  0  0  0  0  0  0
   18.7959   -8.2337  -15.2844 C   0  0  1  0  0  0  0  0  0  0  0  0
   17.9287   -7.3015  -14.4668 C   0  0  0  0  0  0  0  0  0  0  0  0
   16.6745   -7.0615  -15.1844 C   0  0  0  0  0  0  0  0  0  0  0  0
   15.6100   -7.4235  -14.6025 O   0  0  0  0  0  0  0  0  0  0  0  0
   20.1930   -8.1821  -14.7487 C   0  0  0  0  0  0  0  0  0  0  0  0
   20.5341   -9.0917  -13.9677 O   0  0  0  0  0  0  0  0  0  0  0  0
   16.5368   -6.4829  -16.4268 O   0  0  0  0  0  0  0  0  0  0  0  0
   26.8815   -9.8395  -14.8738 C   0  0  0  0  0  0  0  0  0  0  0  0
   25.0796   -9.8070  -14.9147 S   0  0  0  0  0  0  0  0  0  0  0  0
   24.5792   -8.4054  -15.9702 C   0  0  0  0  0  0  0  0  0  0  0  0
   23.0949   -8.3740  -15.9855 C   0  0  0  0  0  0  0  0  0  0  0  0
   22.5208   -7.1938  -15.2029 C   0  0  2  0  0  0  0  0  0  0  0  0
   21.0980   -7.1611  -15.0982 N   0  0  0  0  0  0  0  0  0  0  0  0
   23.1696   -5.9636  -15.6341 C   0  0  0  0  0  0  0  0  0  0  0  0
   24.2949   -5.6896  -15.1465 O   0  0  0  0  0  0  0  0  0  0  0  0
   22.6518   -5.0544  -16.5461 O   0  0  0  0  0  0  0  0  0  0  0  0
  2  1  1  1
  3  2  1  0
  3  4  1  0
  5  4  1  0
  5  6  2  0
  7  2  1  0
  7  8  2  0
  9  5  1  0
 10  7  1  0
 11 10  1  0
 11 12  1  1
 13 12  1  0
 13 17  1  0
 14 13  2  0
 15 11  1  0
 16 15  2  0
 18 19  1  0
 19 20  1  0
 20 21  1  0
 22 21  1  6
 22 23  1  0
 22 24  1  0
 23 15  1  0
 24 26  1  0
 25 24  2  0
M  END
$$$$
