EDM.pdb
     RDKit          3D

 26 25  0  0  1  0  0  0  0  0999 V2000
   15.3931   -8.8879  -16.5003 N   0  0  0  0  0  0  0  0  0  0  0  0
   16.0676   -7.8025  -17.2371 C   0  0  1  0  0  0  0  0  0  0  0  0
   16.0832   -6.6347  -16.3067 C   0  0  0  0  0  0  0  0  0  0  0  0
   16.3956   -6.9437  -14.8832 C   0  0  0  0  0  0  0  0  0  0  0  0
   16.1105   -5.7200  -14.0624 C   0  0  0  0  0  0  0  0  0  0  0  0
   15.2032   -5.6808  -13.2035 O   0  0  0  0  0  0  0  0  0  0  0  0
   17.4595   -8.2601  -17.5066 C   0  0  0  0  0  0  0  0  0  0  0  0
   17.9941   -9.1517  -16.7975 O   0  0  0  0  0  0  0  0  0  0  0  0
   16.8715   -4.5740  -14.2469 O   0  0  0  0  0  0  0  0  0  0  0  0
   18.2456   -7.7110  -18.5755 N   0  0  0  0  0  0  0  0  0  0  0  0
   19.5440   -8.2400  -18.8390 C   0  0  1  0  0  0  0  0  0  0  0  0
   20.0644   -7.7119  -20.1580 C   0  0  0  0  0  0  0  0  0  0  0  0
   21.2447   -8.4851  -20.5513 C   0  0  0  0  0  0  0  0  0  0  0  0
   22.3292   -7.8428  -20.6713 O   0  0  0  0  0  0  0  0  0  0  0  0
   20.5302   -7.9018  -17.7645 C   0  0  0  0  0  0  0  0  0  0  0  0
   20.3792   -6.8114  -17.1799 O   0  0  0  0  0  0  0  0  0  0  0  0
   21.2934   -9.8383  -20.8039 O   0  0  0  0  0  0  0  0  0  0  0  0
   26.9565  -10.8045  -14.0417 C   0  0  0  0  0  0  0  0  0  0  0  0
   25.8842  -10.8834  -15.4886 S   0  0  0  0  0  0  0  0  0  0  0  0
   24.7121   -9.4894  -15.3804 C   0  0  0  0  0  0  0  0  0  0  0  0
   23.7257   -9.6577  -16.4773 C   0  0  0  0  0  0  0  0  0  0  0  0
   22.6397   -8.5828  -16.4655 C   0  0  2  0  0  0  0  0  0  0  0  0
   21.5885   -8.7623  -17.4136 N   0  0  0  0  0  0  0  0  0  0  0  0
   23.2602   -7.2661  -16.4238 C   0  0  0  0  0  0  0  0  0  0  0  0
   23.1906   -6.6163  -15.3505 O   0  0  0  0  0  0  0  0  0  0  0  0
   23.9299   -6.6556  -17.4751 O   0  0  0  0  0  0  0  0  0  0  0  0
  2  1  1  1
  3  2  1  0
  3  4  1  0
  5  4  1  0
  5  6  2  0
  7  2  1  0
  7  8  2  0
  9  5  1  0
 10  7  1  0
 11 10  1  0
 11 12  1  6
 13 12  1  0
 13 17  1  0
 14 13  2  0
 15 11  1  0
 16 15  2  0
 18 19  1  0
 19 20  1  0
 20 21  1  0
 22 21  1  6
 22 23  1  0
 22 24  1  0
 23 15  1  0
 24 26  1  0
 25 24  2  0
M  END
$$$$
