EDM.pdb
     RDKit          3D

 26 25  0  0  1  0  0  0  0  0999 V2000
   17.2846  -12.5919  -14.6812 N   0  0  0  0  0  0  0  0  0  0  0  0
   17.8029  -12.4017  -16.0491 C   0  0  1  0  0  0  0  0  0  0  0  0
   16.6665  -12.7337  -16.9590 C   0  0  0  0  0  0  0  0  0  0  0  0
   15.3029  -12.5207  -16.3981 C   0  0  0  0  0  0  0  0  0  0  0  0
   14.2988  -12.8531  -17.4628 C   0  0  0  0  0  0  0  0  0  0  0  0
   13.7850  -11.9838  -18.1997 O   0  0  0  0  0  0  0  0  0  0  0  0
   18.1604  -10.9616  -16.1819 C   0  0  0  0  0  0  0  0  0  0  0  0
   18.6778  -10.5204  -17.2407 O   0  0  0  0  0  0  0  0  0  0  0  0
   13.9096  -14.1713  -17.6555 O   0  0  0  0  0  0  0  0  0  0  0  0
   17.9334  -10.0221  -15.1199 N   0  0  0  0  0  0  0  0  0  0  0  0
   18.3282   -8.6614  -15.2866 C   0  0  1  0  0  0  0  0  0  0  0  0
   17.1859   -7.7386  -14.9219 C   0  0  0  0  0  0  0  0  0  0  0  0
   17.5617   -6.3603  -15.2455 C   0  0  0  0  0  0  0  0  0  0  0  0
   17.8721   -5.6135  -14.2713 O   0  0  0  0  0  0  0  0  0  0  0  0
   19.5189   -8.3033  -14.4526 C   0  0  0  0  0  0  0  0  0  0  0  0
   19.6990   -8.9621  -13.4098 O   0  0  0  0  0  0  0  0  0  0  0  0
   17.6109   -5.7955  -16.5009 O   0  0  0  0  0  0  0  0  0  0  0  0
   26.5730   -9.8054  -14.7347 C   0  0  0  0  0  0  0  0  0  0  0  0
   24.8650   -9.8344  -15.3102 S   0  0  0  0  0  0  0  0  0  0  0  0
   24.0594   -8.3085  -14.7173 C   0  0  0  0  0  0  0  0  0  0  0  0
   22.6231   -8.3989  -15.0820 C   0  0  0  0  0  0  0  0  0  0  0  0
   21.8215   -7.1778  -14.6334 C   0  0  2  0  0  0  0  0  0  0  0  0
   20.4088   -7.2721  -14.8110 N   0  0  0  0  0  0  0  0  0  0  0  0
   22.4603   -5.9678  -15.1317 C   0  0  0  0  0  0  0  0  0  0  0  0
   21.9838   -5.4332  -16.1643 O   0  0  0  0  0  0  0  0  0  0  0  0
   23.5615   -5.3433  -14.5628 O   0  0  0  0  0  0  0  0  0  0  0  0
  2  1  1  1
  3  2  1  0
  3  4  1  0
  5  4  1  0
  5  6  2  0
  7  2  1  0
  7  8  2  0
  9  5  1  0
 10  7  1  0
 11 10  1  0
 11 12  1  1
 13 12  1  0
 13 17  1  0
 14 13  2  0
 15 11  1  0
 16 15  2  0
 18 19  1  0
 19 20  1  0
 20 21  1  0
 22 21  1  6
 22 23  1  0
 22 24  1  0
 23 15  1  0
 24 26  1  0
 25 24  2  0
M  END
$$$$
