EDM.pdb
     RDKit          3D

 26 25  0  0  1  0  0  0  0  0999 V2000
   20.1407  -14.3814  -18.5039 N   0  0  0  0  0  0  0  0  0  0  0  0
   18.9765  -13.7998  -17.8095 C   0  0  1  0  0  0  0  0  0  0  0  0
   18.9356  -14.4608  -16.4712 C   0  0  0  0  0  0  0  0  0  0  0  0
   18.5834  -15.9083  -16.4732 C   0  0  0  0  0  0  0  0  0  0  0  0
   18.3838  -16.3462  -15.0517 C   0  0  0  0  0  0  0  0  0  0  0  0
   17.4162  -15.9647  -14.3583 O   0  0  0  0  0  0  0  0  0  0  0  0
   19.2474  -12.3434  -17.6523 C   0  0  0  0  0  0  0  0  0  0  0  0
   20.3963  -11.8746  -17.8613 O   0  0  0  0  0  0  0  0  0  0  0  0
   19.2972  -17.2089  -14.4618 O   0  0  0  0  0  0  0  0  0  0  0  0
   18.2215  -11.4184  -17.2597 N   0  0  0  0  0  0  0  0  0  0  0  0
   18.5185  -10.0249  -17.1891 C   0  0  1  0  0  0  0  0  0  0  0  0
   17.2402   -9.2248  -17.0657 C   0  0  0  0  0  0  0  0  0  0  0  0
   16.4154   -9.4536  -18.2544 C   0  0  0  0  0  0  0  0  0  0  0  0
   16.7082   -8.7803  -19.2859 O   0  0  0  0  0  0  0  0  0  0  0  0
   19.4096   -9.6861  -16.0347 C   0  0  0  0  0  0  0  0  0  0  0  0
   19.6037  -10.5796  -15.1876 O   0  0  0  0  0  0  0  0  0  0  0  0
   15.3547  -10.3257  -18.3628 O   0  0  0  0  0  0  0  0  0  0  0  0
   24.5185  -11.3078  -14.5979 C   0  0  0  0  0  0  0  0  0  0  0  0
   24.9713   -9.6562  -15.1605 S   0  0  0  0  0  0  0  0  0  0  0  0
   23.6149   -8.5271  -14.6977 C   0  0  0  0  0  0  0  0  0  0  0  0
   22.4439   -8.8771  -15.5405 C   0  0  0  0  0  0  0  0  0  0  0  0
   21.2058   -8.0463  -15.2062 C   0  0  2  0  0  0  0  0  0  0  0  0
   20.0120   -8.4210  -15.8923 N   0  0  0  0  0  0  0  0  0  0  0  0
   21.5505   -6.6318  -15.2258 C   0  0  0  0  0  0  0  0  0  0  0  0
   21.7873   -6.0684  -14.1277 O   0  0  0  0  0  0  0  0  0  0  0  0
   21.6424   -5.8387  -16.3612 O   0  0  0  0  0  0  0  0  0  0  0  0
  2  1  1  6
  3  2  1  0
  3  4  1  0
  5  4  1  0
  5  6  2  0
  7  2  1  0
  7  8  2  0
  9  5  1  0
 10  7  1  0
 11 10  1  0
 11 12  1  1
 13 12  1  0
 13 17  1  0
 14 13  2  0
 15 11  1  0
 16 15  2  0
 18 19  1  0
 19 20  1  0
 20 21  1  0
 22 21  1  6
 22 23  1  0
 22 24  1  0
 23 15  1  0
 24 26  1  0
 25 24  2  0
M  END
$$$$
