EDM.pdb
     RDKit          3D

 26 25  0  0  1  0  0  0  0  0999 V2000
   18.3693  -12.0928  -18.2423 N   0  0  0  0  0  0  0  0  0  0  0  0
   17.6035  -11.4760  -17.1428 C   0  0  1  0  0  0  0  0  0  0  0  0
   17.7646  -12.3943  -15.9765 C   0  0  0  0  0  0  0  0  0  0  0  0
   16.9795  -13.6592  -16.0336 C   0  0  0  0  0  0  0  0  0  0  0  0
   17.1366  -14.3703  -14.7213 C   0  0  0  0  0  0  0  0  0  0  0  0
   16.4160  -14.1232  -13.7302 O   0  0  0  0  0  0  0  0  0  0  0  0
   18.2429  -10.1624  -16.8515 C   0  0  0  0  0  0  0  0  0  0  0  0
   19.3974   -9.8985  -17.2770 O   0  0  0  0  0  0  0  0  0  0  0  0
   18.1143  -15.3451  -14.5787 O   0  0  0  0  0  0  0  0  0  0  0  0
   17.5788   -9.1491  -16.0807 N   0  0  0  0  0  0  0  0  0  0  0  0
   18.2108   -7.8853  -15.8847 C   0  0  1  0  0  0  0  0  0  0  0  0
   17.1934   -6.8564  -15.4427 C   0  0  0  0  0  0  0  0  0  0  0  0
   16.0471   -6.8941  -16.3540 C   0  0  0  0  0  0  0  0  0  0  0  0
   16.2859   -6.6616  -17.5754 O   0  0  0  0  0  0  0  0  0  0  0  0
   19.3070   -7.9439  -14.8666 C   0  0  0  0  0  0  0  0  0  0  0  0
   19.3189   -8.9291  -14.1031 O   0  0  0  0  0  0  0  0  0  0  0  0
   14.7377   -7.1562  -16.0164 O   0  0  0  0  0  0  0  0  0  0  0  0
   26.2399   -9.9393  -14.3586 C   0  0  0  0  0  0  0  0  0  0  0  0
   24.5920   -9.7851  -15.0726 S   0  0  0  0  0  0  0  0  0  0  0  0
   23.7951   -8.3333  -14.3070 C   0  0  0  0  0  0  0  0  0  0  0  0
   22.4368   -8.2159  -14.8947 C   0  0  0  0  0  0  0  0  0  0  0  0
   21.6493   -7.0337  -14.3313 C   0  0  2  0  0  0  0  0  0  0  0  0
   20.2909   -6.9420  -14.7586 N   0  0  0  0  0  0  0  0  0  0  0  0
   22.4487   -5.8216  -14.4404 C   0  0  0  0  0  0  0  0  0  0  0  0
   22.3338   -5.1328  -15.4851 O   0  0  0  0  0  0  0  0  0  0  0  0
   23.3376   -5.3518  -13.4835 O   0  0  0  0  0  0  0  0  0  0  0  0
  2  1  1  6
  3  2  1  0
  3  4  1  0
  5  4  1  0
  5  6  2  0
  7  2  1  0
  7  8  2  0
  9  5  1  0
 10  7  1  0
 11 10  1  0
 11 12  1  1
 13 12  1  0
 13 17  1  0
 14 13  2  0
 15 11  1  0
 16 15  2  0
 18 19  1  0
 19 20  1  0
 20 21  1  0
 22 21  1  6
 22 23  1  0
 22 24  1  0
 23 15  1  0
 24 26  1  0
 25 24  2  0
M  END
$$$$
