EDM.pdb
     RDKit          3D

 26 25  0  0  1  0  0  0  0  0999 V2000
   19.2478  -11.9260  -15.3780 N   0  0  0  0  0  0  0  0  0  0  0  0
   18.3502  -10.7563  -15.3325 C   0  0  1  0  0  0  0  0  0  0  0  0
   16.9987  -11.2996  -15.0040 C   0  0  0  0  0  0  0  0  0  0  0  0
   16.2829  -11.9770  -16.1212 C   0  0  0  0  0  0  0  0  0  0  0  0
   14.8900  -12.2966  -15.6627 C   0  0  0  0  0  0  0  0  0  0  0  0
   13.8824  -12.0892  -16.3728 O   0  0  0  0  0  0  0  0  0  0  0  0
   18.8322   -9.8817  -14.2270 C   0  0  0  0  0  0  0  0  0  0  0  0
   19.2249  -10.3754  -13.1382 O   0  0  0  0  0  0  0  0  0  0  0  0
   14.6879  -12.8448  -14.4037 O   0  0  0  0  0  0  0  0  0  0  0  0
   18.8702   -8.4517  -14.3520 N   0  0  0  0  0  0  0  0  0  0  0  0
   19.3527   -7.6620  -13.2663 C   0  0  1  0  0  0  0  0  0  0  0  0
   20.4885   -6.7764  -13.7300 C   0  0  0  0  0  0  0  0  0  0  0  0
   21.0079   -6.0248  -12.5850 C   0  0  0  0  0  0  0  0  0  0  0  0
   21.0465   -6.6353  -11.4764 O   0  0  0  0  0  0  0  0  0  0  0  0
   18.2863   -6.7993  -12.6661 C   0  0  0  0  0  0  0  0  0  0  0  0
   17.6593   -6.0518  -13.4417 O   0  0  0  0  0  0  0  0  0  0  0  0
   21.4574   -4.7228  -12.5927 O   0  0  0  0  0  0  0  0  0  0  0  0
   13.5852   -6.2363   -6.3455 C   0  0  0  0  0  0  0  0  0  0  0  0
   15.0222   -7.0272   -7.0929 S   0  0  0  0  0  0  0  0  0  0  0  0
   15.5612   -5.9820   -8.4879 C   0  0  0  0  0  0  0  0  0  0  0  0
   16.6704   -6.6955   -9.1696 C   0  0  0  0  0  0  0  0  0  0  0  0
   16.9538   -6.1485  -10.5680 C   0  0  2  0  0  0  0  0  0  0  0  0
   17.9884   -6.8156  -11.2897 N   0  0  0  0  0  0  0  0  0  0  0  0
   17.0309   -4.6955  -10.5145 C   0  0  0  0  0  0  0  0  0  0  0  0
   18.1703   -4.1656  -10.5289 O   0  0  0  0  0  0  0  0  0  0  0  0
   15.9468   -3.8313  -10.4481 O   0  0  0  0  0  0  0  0  0  0  0  0
  2  1  1  1
  3  2  1  0
  3  4  1  0
  5  4  1  0
  5  6  2  0
  7  2  1  0
  7  8  2  0
  9  5  1  0
 10  7  1  0
 11 10  1  0
 11 12  1  6
 13 12  1  0
 13 17  1  0
 14 13  2  0
 15 11  1  0
 16 15  2  0
 18 19  1  0
 19 20  1  0
 20 21  1  0
 22 21  1  1
 22 23  1  0
 22 24  1  0
 23 15  1  0
 24 26  1  0
 25 24  2  0
M  END
$$$$
