YCQ.pdb
     RDKit          3D

 28 28  0  0  1  0  0  0  0  0999 V2000
   16.7431  -19.7185   14.3653 O   0  0  0  0  0  0  0  0  0  0  0  0
   15.7540  -20.4414   15.0601 C   0  0  0  0  0  0  0  0  0  0  0  0
   15.6385  -20.3277   16.4210 C   0  0  0  0  0  0  0  0  0  0  0  0
   14.6576  -21.0477   17.0912 C   0  0  0  0  0  0  0  0  0  0  0  0
   13.7869  -21.8819   16.4244 C   0  0  0  0  0  0  0  0  0  0  0  0
   12.7520  -22.6355   17.1730 C   0  0  0  0  0  0  0  0  0  0  0  0
   11.5843  -21.7058   17.3801 C   0  0  2  0  0  0  0  0  0  0  0  0
   11.4466  -20.9057   16.1896 N   0  0  0  0  0  0  0  0  0  0  0  0
   11.6992  -20.8863   18.6067 C   0  0  0  0  0  0  0  0  0  0  0  0
   11.6730  -19.6362   18.4890 O   0  0  0  0  0  0  0  0  0  0  0  0
   13.9246  -21.9781   15.0560 C   0  0  0  0  0  0  0  0  0  0  0  0
   14.8972  -21.2684   14.3652 C   0  0  0  0  0  0  0  0  0  0  0  0
   11.8371  -21.4410   19.9056 N   0  0  0  0  0  0  0  0  0  0  0  0
   11.8347  -20.6368   21.1341 C   0  0  1  0  0  0  0  0  0  0  0  0
   10.5729  -19.8012   21.1763 C   0  0  0  0  0  0  0  0  0  0  0  0
   10.2927  -18.9285   22.6928 S   0  0  0  0  0  0  0  0  0  0  0  0
   12.0464  -21.4750   22.3162 C   0  0  0  0  0  0  0  0  0  0  0  0
   11.3430  -22.5117   22.5661 O   0  0  0  0  0  0  0  0  0  0  0  0
   14.2769  -24.3492   20.9997 N   0  0  0  0  0  0  0  0  0  0  0  0
   15.6444  -24.3480   21.4754 C   0  0  0  0  0  0  0  0  0  0  0  0
   16.3457  -25.3518   21.2402 O   0  0  0  0  0  0  0  0  0  0  0  0
   16.0741  -23.1402   22.1986 C   0  0  0  0  0  0  0  0  0  0  0  0
   14.9895  -22.1031   22.1514 C   0  0  0  0  0  0  0  0  0  0  0  0
   14.2151  -22.0560   23.4179 C   0  0  2  0  0  0  0  0  0  0  0  0
   13.0621  -21.1660   23.2476 N   0  0  0  0  0  0  0  0  0  0  0  0
   15.1320  -21.4912   24.4699 C   0  0  0  0  0  0  0  0  0  0  0  0
   15.3764  -22.2490   25.5950 O   0  0  0  0  0  0  0  0  0  0  0  0
   15.6761  -20.3698   24.3632 O   0  0  0  0  0  0  0  0  0  0  0  0
  2  1  1  0
  3  2  2  0
  4  3  1  0
  5  4  2  0
  5 11  1  0
  6  5  1  0
  7  6  1  0
  7  9  1  0
  7  8  1  6
  9 10  2  0
 11 12  2  0
 12  2  1  0
 13  9  1  0
 13 14  1  0
 14 15  1  1
 15 16  1  0
 17 14  1  0
 17 18  2  0
 20 22  1  0
 20 19  1  0
 21 20  2  0
 23 22  1  0
 24 23  1  6
 24 25  1  0
 25 17  1  0
 26 27  1  0
 26 24  1  0
 28 26  2  0
M  END
$$$$
