YCQ.pdb
     RDKit          3D

 28 28  0  0  1  0  0  0  0  0999 V2000
    6.4402  -10.8352   26.7572 O   0  0  0  0  0  0  0  0  0  0  0  0
    6.5823  -12.2289   26.6112 C   0  0  0  0  0  0  0  0  0  0  0  0
    7.1085  -12.9832   27.6273 C   0  0  0  0  0  0  0  0  0  0  0  0
    7.2419  -14.3566   27.4672 C   0  0  0  0  0  0  0  0  0  0  0  0
    6.8578  -14.9925   26.3067 C   0  0  0  0  0  0  0  0  0  0  0  0
    7.0154  -16.4609   26.1710 C   0  0  0  0  0  0  0  0  0  0  0  0
    6.2949  -16.8733   24.9134 C   0  0  2  0  0  0  0  0  0  0  0  0
    5.8146  -18.2182   25.1063 N   0  0  0  0  0  0  0  0  0  0  0  0
    7.1203  -16.7332   23.6934 C   0  0  0  0  0  0  0  0  0  0  0  0
    8.0979  -17.5079   23.5468 O   0  0  0  0  0  0  0  0  0  0  0  0
    6.3315  -14.2106   25.3004 C   0  0  0  0  0  0  0  0  0  0  0  0
    6.1889  -12.8367   25.4379 C   0  0  0  0  0  0  0  0  0  0  0  0
    6.8630  -15.7698   22.6837 N   0  0  0  0  0  0  0  0  0  0  0  0
    7.8011  -15.4666   21.5956 C   0  0  1  0  0  0  0  0  0  0  0  0
    7.2182  -14.3695   20.7306 C   0  0  0  0  0  0  0  0  0  0  0  0
    8.2883  -13.7602   19.4564 S   0  0  0  0  0  0  0  0  0  0  0  0
    9.1405  -15.1818   22.1151 C   0  0  0  0  0  0  0  0  0  0  0  0
    9.3602  -14.3169   23.0292 O   0  0  0  0  0  0  0  0  0  0  0  0
   12.0330  -16.8613   25.9858 N   0  0  0  0  0  0  0  0  0  0  0  0
   11.3987  -17.8255   25.1116 C   0  0  0  0  0  0  0  0  0  0  0  0
   11.0927  -18.9355   25.5903 O   0  0  0  0  0  0  0  0  0  0  0  0
   11.1746  -17.3880   23.7243 C   0  0  0  0  0  0  0  0  0  0  0  0
   11.7255  -16.0050   23.5291 C   0  0  0  0  0  0  0  0  0  0  0  0
   11.6127  -15.5600   22.1166 C   0  0  2  0  0  0  0  0  0  0  0  0
   10.2691  -15.8698   21.6173 N   0  0  0  0  0  0  0  0  0  0  0  0
   12.6312  -16.3411   21.3298 C   0  0  0  0  0  0  0  0  0  0  0  0
   12.1778  -17.2135   20.3639 O   0  0  0  0  0  0  0  0  0  0  0  0
   13.8630  -16.2298   21.5174 O   0  0  0  0  0  0  0  0  0  0  0  0
  2  1  1  0
  3  2  2  0
  4  3  1  0
  5  4  2  0
  5 11  1  0
  6  5  1  0
  7  6  1  0
  7  9  1  0
  7  8  1  1
  9 10  2  0
 11 12  2  0
 12  2  1  0
 13  9  1  0
 13 14  1  0
 14 15  1  1
 15 16  1  0
 17 14  1  0
 17 18  2  0
 20 22  1  0
 20 19  1  0
 21 20  2  0
 23 22  1  0
 24 23  1  1
 24 25  1  0
 25 17  1  0
 26 27  1  0
 26 24  1  0
 28 26  2  0
M  END
$$$$
