YCQ.pdb
     RDKit          3D

 28 28  0  0  1  0  0  0  0  0999 V2000
    8.6330  -13.0235   15.7438 O   0  0  0  0  0  0  0  0  0  0  0  0
    8.2403  -13.3112   17.0654 C   0  0  0  0  0  0  0  0  0  0  0  0
    9.1201  -13.8945   17.9395 C   0  0  0  0  0  0  0  0  0  0  0  0
    8.7170  -14.1718   19.2397 C   0  0  0  0  0  0  0  0  0  0  0  0
    7.4467  -13.8761   19.6840 C   0  0  0  0  0  0  0  0  0  0  0  0
    7.0510  -14.1867   21.0792 C   0  0  0  0  0  0  0  0  0  0  0  0
    7.9003  -15.3442   21.5374 C   0  0  2  0  0  0  0  0  0  0  0  0
    7.6345  -16.4554   20.6594 N   0  0  0  0  0  0  0  0  0  0  0  0
    7.7036  -15.6857   22.9635 C   0  0  0  0  0  0  0  0  0  0  0  0
    6.5778  -15.4674   23.4756 O   0  0  0  0  0  0  0  0  0  0  0  0
    6.5815  -13.2897   18.7848 C   0  0  0  0  0  0  0  0  0  0  0  0
    6.9622  -13.0035   17.4809 C   0  0  0  0  0  0  0  0  0  0  0  0
    8.7208  -16.2460   23.7792 N   0  0  0  0  0  0  0  0  0  0  0  0
    8.5227  -16.6044   25.1892 C   0  0  1  0  0  0  0  0  0  0  0  0
    7.3544  -17.5610   25.2975 C   0  0  0  0  0  0  0  0  0  0  0  0
    7.0542  -18.2098   26.9189 S   0  0  0  0  0  0  0  0  0  0  0  0
    9.7649  -17.0941   25.7908 C   0  0  0  0  0  0  0  0  0  0  0  0
   10.0808  -18.3317   25.8190 O   0  0  0  0  0  0  0  0  0  0  0  0
    8.1960  -14.9094   27.8948 N   0  0  0  0  0  0  0  0  0  0  0  0
    9.1682  -13.8395   27.9756 C   0  0  0  0  0  0  0  0  0  0  0  0
    8.7919  -12.6854   27.6904 O   0  0  0  0  0  0  0  0  0  0  0  0
   10.5237  -14.2306   28.3953 C   0  0  0  0  0  0  0  0  0  0  0  0
   10.5540  -15.6950   28.7251 C   0  0  0  0  0  0  0  0  0  0  0  0
   11.2729  -16.4795   27.6890 C   0  0  2  0  0  0  0  0  0  0  0  0
   10.6867  -16.1974   26.3747 N   0  0  0  0  0  0  0  0  0  0  0  0
   11.0726  -17.9334   28.0244 C   0  0  0  0  0  0  0  0  0  0  0  0
   10.3234  -18.2471   29.1380 O   0  0  0  0  0  0  0  0  0  0  0  0
   11.5559  -18.8602   27.3371 O   0  0  0  0  0  0  0  0  0  0  0  0
  2  1  1  0
  3  2  2  0
  4  3  1  0
  5  4  2  0
  5 11  1  0
  6  5  1  0
  7  6  1  0
  7  9  1  0
  7  8  1  6
  9 10  2  0
 11 12  2  0
 12  2  1  0
 13  9  1  0
 13 14  1  0
 14 15  1  6
 15 16  1  0
 17 14  1  0
 17 18  2  0
 20 22  1  0
 20 19  1  0
 21 20  2  0
 23 22  1  0
 24 23  1  1
 24 25  1  0
 25 17  1  0
 26 27  1  0
 26 24  1  0
 28 26  2  0
M  END
$$$$
