YCQ.pdb
     RDKit          3D

 28 28  0  0  1  0  0  0  0  0999 V2000
    8.4015  -14.8326   15.5246 O   0  0  0  0  0  0  0  0  0  0  0  0
    8.3046  -14.3962   16.8602 C   0  0  0  0  0  0  0  0  0  0  0  0
    9.4218  -14.3294   17.6514 C   0  0  0  0  0  0  0  0  0  0  0  0
    9.3091  -13.8968   18.9666 C   0  0  0  0  0  0  0  0  0  0  0  0
    8.0967  -13.5286   19.5079 C   0  0  0  0  0  0  0  0  0  0  0  0
    8.0141  -13.0720   20.9165 C   0  0  0  0  0  0  0  0  0  0  0  0
    8.1857  -14.2872   21.7911 C   0  0  2  0  0  0  0  0  0  0  0  0
    7.1907  -15.2524   21.3976 N   0  0  0  0  0  0  0  0  0  0  0  0
    8.1389  -13.9785   23.2373 C   0  0  0  0  0  0  0  0  0  0  0  0
    7.9679  -12.7834   23.5832 O   0  0  0  0  0  0  0  0  0  0  0  0
    6.9888  -13.6051   18.6908 C   0  0  0  0  0  0  0  0  0  0  0  0
    7.0774  -14.0343   17.3736 C   0  0  0  0  0  0  0  0  0  0  0  0
    8.2773  -14.9629   24.2501 N   0  0  0  0  0  0  0  0  0  0  0  0
    8.6705  -14.6546   25.6308 C   0  0  1  0  0  0  0  0  0  0  0  0
    7.6917  -13.6574   26.2133 C   0  0  0  0  0  0  0  0  0  0  0  0
    7.8284  -13.3936   27.9602 S   0  0  0  0  0  0  0  0  0  0  0  0
    8.8326  -15.8771   26.4208 C   0  0  0  0  0  0  0  0  0  0  0  0
    8.0105  -16.8533   26.3643 O   0  0  0  0  0  0  0  0  0  0  0  0
   11.5245  -20.0961   25.3496 N   0  0  0  0  0  0  0  0  0  0  0  0
   12.4165  -18.9691   25.5240 C   0  0  0  0  0  0  0  0  0  0  0  0
   13.4748  -18.9542   24.8648 O   0  0  0  0  0  0  0  0  0  0  0  0
   11.9738  -17.9381   26.4766 C   0  0  0  0  0  0  0  0  0  0  0  0
   10.6437  -18.3186   27.0601 C   0  0  0  0  0  0  0  0  0  0  0  0
   10.1444  -17.2930   28.0112 C   0  0  2  0  0  0  0  0  0  0  0  0
    9.9313  -16.0313   27.2948 N   0  0  0  0  0  0  0  0  0  0  0  0
   11.2161  -17.1029   29.0513 C   0  0  0  0  0  0  0  0  0  0  0  0
   11.7997  -15.8594   29.1645 O   0  0  0  0  0  0  0  0  0  0  0  0
   11.5942  -18.0225   29.8104 O   0  0  0  0  0  0  0  0  0  0  0  0
  2  1  1  0
  3  2  2  0
  4  3  1  0
  5  4  2  0
  5 11  1  0
  6  5  1  0
  7  6  1  0
  7  9  1  0
  7  8  1  6
  9 10  2  0
 11 12  2  0
 12  2  1  0
 13  9  1  0
 13 14  1  0
 14 15  1  1
 15 16  1  0
 17 14  1  0
 17 18  2  0
 20 22  1  0
 20 19  1  0
 21 20  2  0
 23 22  1  0
 24 23  1  6
 24 25  1  0
 25 17  1  0
 26 27  1  0
 26 24  1  0
 28 26  2  0
M  END
$$$$
