YCQ.pdb
     RDKit          3D

 28 28  0  0  1  0  0  0  0  0999 V2000
    5.4218  -23.6516   28.1529 O   0  0  0  0  0  0  0  0  0  0  0  0
    5.9743  -22.4419   27.6892 C   0  0  0  0  0  0  0  0  0  0  0  0
    7.0722  -22.4498   26.8687 C   0  0  0  0  0  0  0  0  0  0  0  0
    7.6050  -21.2479   26.4201 C   0  0  0  0  0  0  0  0  0  0  0  0
    7.0594  -20.0341   26.7773 C   0  0  0  0  0  0  0  0  0  0  0  0
    7.6552  -18.7706   26.2795 C   0  0  0  0  0  0  0  0  0  0  0  0
    6.8327  -18.3234   25.0986 C   0  0  2  0  0  0  0  0  0  0  0  0
    7.0441  -19.2720   24.0348 N   0  0  0  0  0  0  0  0  0  0  0  0
    7.1131  -16.9311   24.6839 C   0  0  0  0  0  0  0  0  0  0  0  0
    8.0784  -16.7270   23.9068 O   0  0  0  0  0  0  0  0  0  0  0  0
    5.9556  -20.0544   27.6033 C   0  0  0  0  0  0  0  0  0  0  0  0
    5.4061  -21.2430   28.0638 C   0  0  0  0  0  0  0  0  0  0  0  0
    6.3479  -15.8181   25.1193 N   0  0  0  0  0  0  0  0  0  0  0  0
    6.9310  -14.5082   25.4355 C   0  0  1  0  0  0  0  0  0  0  0  0
    5.8298  -13.4697   25.4631 C   0  0  0  0  0  0  0  0  0  0  0  0
    6.3076  -11.8748   26.0698 S   0  0  0  0  0  0  0  0  0  0  0  0
    7.7381  -14.5684   26.6560 C   0  0  0  0  0  0  0  0  0  0  0  0
    7.2692  -14.9573   27.7789 O   0  0  0  0  0  0  0  0  0  0  0  0
   10.5857  -18.0931   29.0525 N   0  0  0  0  0  0  0  0  0  0  0  0
   11.1135  -17.7794   27.7413 C   0  0  0  0  0  0  0  0  0  0  0  0
   11.6714  -18.6932   27.1021 O   0  0  0  0  0  0  0  0  0  0  0  0
   10.9323  -16.3905   27.2889 C   0  0  0  0  0  0  0  0  0  0  0  0
   10.1068  -15.6314   28.2872 C   0  0  0  0  0  0  0  0  0  0  0  0
    9.8963  -14.2213   27.8711 C   0  0  2  0  0  0  0  0  0  0  0  0
    9.0997  -14.1935   26.6402 N   0  0  0  0  0  0  0  0  0  0  0  0
   11.2574  -13.6380   27.5995 C   0  0  0  0  0  0  0  0  0  0  0  0
   11.5714  -13.2955   26.3019 O   0  0  0  0  0  0  0  0  0  0  0  0
   12.1073  -13.4538   28.4987 O   0  0  0  0  0  0  0  0  0  0  0  0
  2  1  1  0
  3  2  2  0
  4  3  1  0
  5  4  2  0
  5 11  1  0
  6  5  1  0
  7  6  1  0
  7  9  1  0
  7  8  1  6
  9 10  2  0
 11 12  2  0
 12  2  1  0
 13  9  1  0
 13 14  1  0
 14 15  1  1
 15 16  1  0
 17 14  1  0
 17 18  2  0
 20 22  1  0
 20 19  1  0
 21 20  2  0
 23 22  1  0
 24 23  1  6
 24 25  1  0
 25 17  1  0
 26 27  1  0
 26 24  1  0
 28 26  2  0
M  END
$$$$
