YCQ.pdb
     RDKit          3D

 28 28  0  0  1  0  0  0  0  0999 V2000
    5.4311  -10.6222   27.1987 O   0  0  0  0  0  0  0  0  0  0  0  0
    6.1190  -11.7738   26.7693 C   0  0  0  0  0  0  0  0  0  0  0  0
    5.8163  -13.0010   27.2990 C   0  0  0  0  0  0  0  0  0  0  0  0
    6.5042  -14.1270   26.8646 C   0  0  0  0  0  0  0  0  0  0  0  0
    7.4922  -14.0491   25.9074 C   0  0  0  0  0  0  0  0  0  0  0  0
    8.2060  -15.2726   25.4679 C   0  0  0  0  0  0  0  0  0  0  0  0
    7.3330  -15.9575   24.4483 C   0  0  2  0  0  0  0  0  0  0  0  0
    6.1785  -16.4743   25.1386 N   0  0  0  0  0  0  0  0  0  0  0  0
    8.0448  -16.9968   23.6722 C   0  0  0  0  0  0  0  0  0  0  0  0
    7.4251  -18.0508   23.3852 O   0  0  0  0  0  0  0  0  0  0  0  0
    7.7770  -12.8029   25.3909 C   0  0  0  0  0  0  0  0  0  0  0  0
    7.1029  -11.6641   25.8098 C   0  0  0  0  0  0  0  0  0  0  0  0
    9.3889  -16.8623   23.2372 N   0  0  0  0  0  0  0  0  0  0  0  0
    9.7811  -16.8086   21.8233 C   0  0  1  0  0  0  0  0  0  0  0  0
    8.8202  -15.9078   21.0769 C   0  0  0  0  0  0  0  0  0  0  0  0
    8.7609  -16.1515   19.3227 S   0  0  0  0  0  0  0  0  0  0  0  0
   11.1917  -16.4426   21.6785 C   0  0  0  0  0  0  0  0  0  0  0  0
   11.5996  -15.2321   21.6990 O   0  0  0  0  0  0  0  0  0  0  0  0
   12.9048  -18.8914   26.5081 N   0  0  0  0  0  0  0  0  0  0  0  0
   11.8818  -18.8523   25.4844 C   0  0  0  0  0  0  0  0  0  0  0  0
   10.6901  -18.8212   25.8502 O   0  0  0  0  0  0  0  0  0  0  0  0
   12.3620  -18.8512   24.0930 C   0  0  0  0  0  0  0  0  0  0  0  0
   12.9972  -17.5291   23.7725 C   0  0  0  0  0  0  0  0  0  0  0  0
   13.3884  -17.4367   22.3428 C   0  0  2  0  0  0  0  0  0  0  0  0
   12.1815  -17.4359   21.5097 N   0  0  0  0  0  0  0  0  0  0  0  0
   14.2084  -18.6609   22.0341 C   0  0  0  0  0  0  0  0  0  0  0  0
   15.4605  -18.7653   22.6008 O   0  0  0  0  0  0  0  0  0  0  0  0
   13.8006  -19.5795   21.2892 O   0  0  0  0  0  0  0  0  0  0  0  0
  2  1  1  0
  3  2  2  0
  4  3  1  0
  5  4  2  0
  5 11  1  0
  6  5  1  0
  7  6  1  0
  7  9  1  0
  7  8  1  1
  9 10  2  0
 11 12  2  0
 12  2  1  0
 13  9  1  0
 13 14  1  0
 14 15  1  6
 15 16  1  0
 17 14  1  0
 17 18  2  0
 20 22  1  0
 20 19  1  0
 21 20  2  0
 23 22  1  0
 24 23  1  1
 24 25  1  0
 25 17  1  0
 26 27  1  0
 26 24  1  0
 28 26  2  0
M  END
$$$$
