YCQ.pdb
     RDKit          3D

 28 28  0  0  1  0  0  0  0  0999 V2000
    9.0568  -12.3706   17.6598 O   0  0  0  0  0  0  0  0  0  0  0  0
    8.4002  -13.0029   18.7334 C   0  0  0  0  0  0  0  0  0  0  0  0
    7.0383  -13.1561   18.7209 C   0  0  0  0  0  0  0  0  0  0  0  0
    6.4061  -13.7821   19.7878 C   0  0  0  0  0  0  0  0  0  0  0  0
    7.1119  -14.2595   20.8706 C   0  0  0  0  0  0  0  0  0  0  0  0
    6.4032  -14.9223   21.9921 C   0  0  0  0  0  0  0  0  0  0  0  0
    6.6273  -16.4055   21.8482 C   0  0  2  0  0  0  0  0  0  0  0  0
    5.6007  -16.9198   20.9775 N   0  0  0  0  0  0  0  0  0  0  0  0
    6.6838  -17.1173   23.1441 C   0  0  0  0  0  0  0  0  0  0  0  0
    5.6044  -17.3369   23.7473 O   0  0  0  0  0  0  0  0  0  0  0  0
    8.4805  -14.0926   20.8581 C   0  0  0  0  0  0  0  0  0  0  0  0
    9.1337  -13.4703   19.8032 C   0  0  0  0  0  0  0  0  0  0  0  0
    7.8934  -17.5627   23.7375 N   0  0  0  0  0  0  0  0  0  0  0  0
    7.9717  -18.1278   25.0905 C   0  0  1  0  0  0  0  0  0  0  0  0
    7.8165  -19.6315   25.0087 C   0  0  0  0  0  0  0  0  0  0  0  0
    8.0020  -20.4969   26.5438 S   0  0  0  0  0  0  0  0  0  0  0  0
    9.1825  -17.6802   25.7821 C   0  0  0  0  0  0  0  0  0  0  0  0
   10.3569  -17.8677   25.3158 O   0  0  0  0  0  0  0  0  0  0  0  0
    9.2803  -12.6745   29.0185 N   0  0  0  0  0  0  0  0  0  0  0  0
    8.6066  -13.0385   27.7898 C   0  0  0  0  0  0  0  0  0  0  0  0
    7.8058  -12.2191   27.2977 O   0  0  0  0  0  0  0  0  0  0  0  0
    8.9435  -14.3605   27.2373 C   0  0  0  0  0  0  0  0  0  0  0  0
    9.9533  -15.0398   28.1166 C   0  0  0  0  0  0  0  0  0  0  0  0
   10.2908  -16.3988   27.6218 C   0  0  2  0  0  0  0  0  0  0  0  0
    9.0988  -17.0047   27.0197 N   0  0  0  0  0  0  0  0  0  0  0  0
   10.7123  -17.2077   28.8196 C   0  0  0  0  0  0  0  0  0  0  0  0
    9.9567  -18.3091   29.1596 O   0  0  0  0  0  0  0  0  0  0  0  0
   11.7137  -16.9211   29.5124 O   0  0  0  0  0  0  0  0  0  0  0  0
  2  1  1  0
  3  2  2  0
  4  3  1  0
  5  4  2  0
  5 11  1  0
  6  5  1  0
  7  6  1  0
  7  9  1  0
  7  8  1  6
  9 10  2  0
 11 12  2  0
 12  2  1  0
 13  9  1  0
 13 14  1  0
 14 15  1  6
 15 16  1  0
 17 14  1  0
 17 18  2  0
 20 22  1  0
 20 19  1  0
 21 20  2  0
 23 22  1  0
 24 23  1  1
 24 25  1  0
 25 17  1  0
 26 27  1  0
 26 24  1  0
 28 26  2  0
M  END
$$$$
