YCQ.pdb
     RDKit          3D

 28 28  0  0  1  0  0  0  0  0999 V2000
    7.1497  -14.3054   14.2976 O   0  0  0  0  0  0  0  0  0  0  0  0
    7.1395  -14.2661   15.7055 C   0  0  0  0  0  0  0  0  0  0  0  0
    6.7577  -15.3666   16.4277 C   0  0  0  0  0  0  0  0  0  0  0  0
    6.7531  -15.3114   17.8158 C   0  0  0  0  0  0  0  0  0  0  0  0
    7.1243  -14.1732   18.4978 C   0  0  0  0  0  0  0  0  0  0  0  0
    7.1069  -14.1505   19.9806 C   0  0  0  0  0  0  0  0  0  0  0  0
    8.5356  -14.2654   20.4462 C   0  0  2  0  0  0  0  0  0  0  0  0
    9.0544  -15.5181   19.9584 N   0  0  0  0  0  0  0  0  0  0  0  0
    8.6874  -14.1178   21.9105 C   0  0  0  0  0  0  0  0  0  0  0  0
    8.3037  -13.0462   22.4413 O   0  0  0  0  0  0  0  0  0  0  0  0
    7.5041  -13.0806   17.7474 C   0  0  0  0  0  0  0  0  0  0  0  0
    7.5164  -13.1126   16.3598 C   0  0  0  0  0  0  0  0  0  0  0  0
    9.2435  -15.1238   22.7427 N   0  0  0  0  0  0  0  0  0  0  0  0
    8.7855  -15.3861   24.1128 C   0  0  1  0  0  0  0  0  0  0  0  0
    7.2844  -15.5823   24.1041 C   0  0  0  0  0  0  0  0  0  0  0  0
    6.5493  -15.8748   25.6896 S   0  0  0  0  0  0  0  0  0  0  0  0
    9.5370  -16.4861   24.7210 C   0  0  0  0  0  0  0  0  0  0  0  0
    9.7310  -17.6027   24.1314 O   0  0  0  0  0  0  0  0  0  0  0  0
   11.1595  -15.7669   29.9709 N   0  0  0  0  0  0  0  0  0  0  0  0
   11.0633  -14.6279   29.0823 C   0  0  0  0  0  0  0  0  0  0  0  0
   10.6765  -13.5438   29.5620 O   0  0  0  0  0  0  0  0  0  0  0  0
   11.4402  -14.8705   27.6804 C   0  0  0  0  0  0  0  0  0  0  0  0
   11.9628  -16.2696   27.5264 C   0  0  0  0  0  0  0  0  0  0  0  0
   11.3997  -16.9404   26.3270 C   0  0  2  0  0  0  0  0  0  0  0  0
   10.0933  -16.3531   26.0124 N   0  0  0  0  0  0  0  0  0  0  0  0
   11.2229  -18.3929   26.6813 C   0  0  0  0  0  0  0  0  0  0  0  0
    9.9401  -18.8883   26.7753 O   0  0  0  0  0  0  0  0  0  0  0  0
   12.1874  -19.1612   26.8919 O   0  0  0  0  0  0  0  0  0  0  0  0
  2  1  1  0
  3  2  2  0
  4  3  1  0
  5  4  2  0
  5 11  1  0
  6  5  1  0
  7  6  1  0
  7  9  1  0
  7  8  1  1
  9 10  2  0
 11 12  2  0
 12  2  1  0
 13  9  1  0
 13 14  1  0
 14 15  1  6
 15 16  1  0
 17 14  1  0
 17 18  2  0
 20 22  1  0
 20 19  1  0
 21 20  2  0
 23 22  1  0
 24 23  1  1
 24 25  1  0
 25 17  1  0
 26 27  1  0
 26 24  1  0
 28 26  2  0
M  END
$$$$
