YCQ.pdb
     RDKit          3D

 28 28  0  0  1  0  0  0  0  0999 V2000
    5.2742  -10.6693   28.3996 O   0  0  0  0  0  0  0  0  0  0  0  0
    5.9452  -11.6122   27.5970 C   0  0  0  0  0  0  0  0  0  0  0  0
    5.4270  -11.9855   26.3843 C   0  0  0  0  0  0  0  0  0  0  0  0
    6.1013  -12.9168   25.6047 C   0  0  0  0  0  0  0  0  0  0  0  0
    7.2878  -13.4840   26.0159 C   0  0  0  0  0  0  0  0  0  0  0  0
    7.9800  -14.4756   25.1573 C   0  0  0  0  0  0  0  0  0  0  0  0
    6.9321  -15.4262   24.6384 C   0  0  2  0  0  0  0  0  0  0  0  0
    6.6117  -16.3453   25.7010 N   0  0  0  0  0  0  0  0  0  0  0  0
    7.3327  -16.1148   23.3916 C   0  0  0  0  0  0  0  0  0  0  0  0
    7.8424  -17.2589   23.4838 O   0  0  0  0  0  0  0  0  0  0  0  0
    7.7872  -13.0912   27.2395 C   0  0  0  0  0  0  0  0  0  0  0  0
    7.1309  -12.1624   28.0354 C   0  0  0  0  0  0  0  0  0  0  0  0
    7.1701  -15.5484   22.1006 N   0  0  0  0  0  0  0  0  0  0  0  0
    8.0819  -15.8114   20.9802 C   0  0  1  0  0  0  0  0  0  0  0  0
    7.6936  -14.9336   19.8094 C   0  0  0  0  0  0  0  0  0  0  0  0
    8.6702  -15.1466   18.3463 S   0  0  0  0  0  0  0  0  0  0  0  0
    9.4808  -15.6851   21.3947 C   0  0  0  0  0  0  0  0  0  0  0  0
    9.8901  -14.7672   22.1834 O   0  0  0  0  0  0  0  0  0  0  0  0
   12.0698  -17.9840   25.4690 N   0  0  0  0  0  0  0  0  0  0  0  0
   12.1169  -19.0976   24.5448 C   0  0  0  0  0  0  0  0  0  0  0  0
   12.4043  -20.2225   24.9997 O   0  0  0  0  0  0  0  0  0  0  0  0
   11.8137  -18.7822   23.1395 C   0  0  0  0  0  0  0  0  0  0  0  0
   11.3960  -17.3453   23.0168 C   0  0  0  0  0  0  0  0  0  0  0  0
   11.7055  -16.7932   21.6732 C   0  0  2  0  0  0  0  0  0  0  0  0
   10.4560  -16.5957   20.9314 N   0  0  0  0  0  0  0  0  0  0  0  0
   12.5515  -17.8171   20.9643 C   0  0  0  0  0  0  0  0  0  0  0  0
   11.9647  -18.5709   19.9707 O   0  0  0  0  0  0  0  0  0  0  0  0
   13.7566  -18.0086   21.2401 O   0  0  0  0  0  0  0  0  0  0  0  0
  2  1  1  0
  3  2  2  0
  4  3  1  0
  5  4  2  0
  5 11  1  0
  6  5  1  0
  7  6  1  0
  7  9  1  0
  7  8  1  1
  9 10  2  0
 11 12  2  0
 12  2  1  0
 13  9  1  0
 13 14  1  0
 14 15  1  6
 15 16  1  0
 17 14  1  0
 17 18  2  0
 20 22  1  0
 20 19  1  0
 21 20  2  0
 23 22  1  0
 24 23  1  1
 24 25  1  0
 25 17  1  0
 26 27  1  0
 26 24  1  0
 28 26  2  0
M  END
$$$$
