YCQ.pdb
     RDKit          3D

 28 28  0  0  1  0  0  0  0  0999 V2000
    0.3587  -20.2887   18.8145 O   0  0  0  0  0  0  0  0  0  0  0  0
    1.2436  -19.6740   19.7216 C   0  0  0  0  0  0  0  0  0  0  0  0
    0.9406  -19.6181   21.0571 C   0  0  0  0  0  0  0  0  0  0  0  0
    1.8242  -19.0082   21.9385 C   0  0  0  0  0  0  0  0  0  0  0  0
    3.0090  -18.4512   21.5088 C   0  0  0  0  0  0  0  0  0  0  0  0
    3.9281  -17.8077   22.4786 C   0  0  0  0  0  0  0  0  0  0  0  0
    5.1529  -18.6798   22.5800 C   0  0  2  0  0  0  0  0  0  0  0  0
    4.7115  -20.0209   22.8679 N   0  0  0  0  0  0  0  0  0  0  0  0
    6.1447  -18.1842   23.5597 C   0  0  0  0  0  0  0  0  0  0  0  0
    6.2023  -16.9475   23.7711 O   0  0  0  0  0  0  0  0  0  0  0  0
    3.2895  -18.5210   20.1607 C   0  0  0  0  0  0  0  0  0  0  0  0
    2.4218  -19.1254   19.2615 C   0  0  0  0  0  0  0  0  0  0  0  0
    7.0315  -19.0342   24.2703 N   0  0  0  0  0  0  0  0  0  0  0  0
    7.9257  -18.5630   25.3354 C   0  0  1  0  0  0  0  0  0  0  0  0
    7.1048  -17.8632   26.3976 C   0  0  0  0  0  0  0  0  0  0  0  0
    7.9340  -17.5929   27.9400 S   0  0  0  0  0  0  0  0  0  0  0  0
    8.7684  -19.6498   25.8388 C   0  0  0  0  0  0  0  0  0  0  0  0
    8.3031  -20.6382   26.5012 O   0  0  0  0  0  0  0  0  0  0  0  0
   14.0963  -22.3567   23.4067 N   0  0  0  0  0  0  0  0  0  0  0  0
   14.3044  -22.0199   24.7993 C   0  0  0  0  0  0  0  0  0  0  0  0
   15.4694  -21.7824   25.1752 O   0  0  0  0  0  0  0  0  0  0  0  0
   13.0983  -21.9902   25.6424 C   0  0  0  0  0  0  0  0  0  0  0  0
   12.2353  -20.8230   25.2589 C   0  0  0  0  0  0  0  0  0  0  0  0
   10.9969  -20.7598   26.0764 C   0  0  2  0  0  0  0  0  0  0  0  0
   10.1612  -19.6511   25.6043 N   0  0  0  0  0  0  0  0  0  0  0  0
   11.4234  -20.4957   27.4959 C   0  0  0  0  0  0  0  0  0  0  0  0
   11.9104  -21.5514   28.2362 O   0  0  0  0  0  0  0  0  0  0  0  0
   11.3532  -19.3643   28.0250 O   0  0  0  0  0  0  0  0  0  0  0  0
  2  1  1  0
  3  2  2  0
  4  3  1  0
  5  4  2  0
  5 11  1  0
  6  5  1  0
  7  6  1  0
  7  9  1  0
  7  8  1  1
  9 10  2  0
 11 12  2  0
 12  2  1  0
 13  9  1  0
 13 14  1  0
 14 15  1  1
 15 16  1  0
 17 14  1  0
 17 18  2  0
 20 22  1  0
 20 19  1  0
 21 20  2  0
 23 22  1  0
 24 23  1  6
 24 25  1  0
 25 17  1  0
 26 27  1  0
 26 24  1  0
 28 26  2  0
M  END
$$$$
