YCQ.pdb
     RDKit          3D

 28 28  0  0  1  0  0  0  0  0999 V2000
    7.6589  -13.8783   14.9094 O   0  0  0  0  0  0  0  0  0  0  0  0
    7.7013  -13.7600   16.3122 C   0  0  0  0  0  0  0  0  0  0  0  0
    7.1170  -12.6889   16.9364 C   0  0  0  0  0  0  0  0  0  0  0  0
    7.1678  -12.5871   18.3209 C   0  0  0  0  0  0  0  0  0  0  0  0
    7.7937  -13.5390   19.0959 C   0  0  0  0  0  0  0  0  0  0  0  0
    7.8286  -13.3973   20.5717 C   0  0  0  0  0  0  0  0  0  0  0  0
    7.6100  -14.7684   21.1577 C   0  0  2  0  0  0  0  0  0  0  0  0
    6.2266  -15.1156   20.9521 N   0  0  0  0  0  0  0  0  0  0  0  0
    8.0178  -14.8702   22.5763 C   0  0  0  0  0  0  0  0  0  0  0  0
    7.6424  -13.9697   23.3672 O   0  0  0  0  0  0  0  0  0  0  0  0
    8.3733  -14.6062   18.4431 C   0  0  0  0  0  0  0  0  0  0  0  0
    8.3351  -14.7288   17.0610 C   0  0  0  0  0  0  0  0  0  0  0  0
    8.8096  -15.9317   23.0862 N   0  0  0  0  0  0  0  0  0  0  0  0
    9.5259  -15.8652   24.3662 C   0  0  1  0  0  0  0  0  0  0  0  0
    8.5503  -15.4879   25.4605 C   0  0  0  0  0  0  0  0  0  0  0  0
    9.1488  -15.6987   27.1150 S   0  0  0  0  0  0  0  0  0  0  0  0
   10.2734  -17.0988   24.6196 C   0  0  0  0  0  0  0  0  0  0  0  0
    9.7224  -18.2512   24.6424 O   0  0  0  0  0  0  0  0  0  0  0  0
   15.8804  -15.7599   22.7596 N   0  0  0  0  0  0  0  0  0  0  0  0
   14.8050  -16.7293   22.7482 C   0  0  0  0  0  0  0  0  0  0  0  0
   14.1980  -16.9158   21.6751 O   0  0  0  0  0  0  0  0  0  0  0  0
   14.5356  -17.4080   24.0261 C   0  0  0  0  0  0  0  0  0  0  0  0
   13.4123  -18.3897   23.8566 C   0  0  0  0  0  0  0  0  0  0  0  0
   12.4344  -18.3076   24.9714 C   0  0  2  0  0  0  0  0  0  0  0  0
   11.6662  -17.0642   24.8510 N   0  0  0  0  0  0  0  0  0  0  0  0
   13.2298  -18.2825   26.2494 C   0  0  0  0  0  0  0  0  0  0  0  0
   13.9094  -19.4244   26.6154 O   0  0  0  0  0  0  0  0  0  0  0  0
   13.2971  -17.2736   26.9859 O   0  0  0  0  0  0  0  0  0  0  0  0
  2  1  1  0
  3  2  2  0
  4  3  1  0
  5  4  2  0
  5 11  1  0
  6  5  1  0
  7  6  1  0
  7  9  1  0
  7  8  1  1
  9 10  2  0
 11 12  2  0
 12  2  1  0
 13  9  1  0
 13 14  1  0
 14 15  1  1
 15 16  1  0
 17 14  1  0
 17 18  2  0
 20 22  1  0
 20 19  1  0
 21 20  2  0
 23 22  1  0
 24 23  1  6
 24 25  1  0
 25 17  1  0
 26 27  1  0
 26 24  1  0
 28 26  2  0
M  END
$$$$
