SFR.pdb
     RDKit          3D

 29 29  0  0  1  0  0  0  0  0999 V2000
   26.1426  -19.8798  -18.7097 O   0  0  0  0  0  0  0  0  0  0  0  0
   27.2707  -19.2052  -18.2573 C   0  0  0  0  0  0  0  0  0  0  0  0
   28.1829  -20.2029  -17.6192 C   0  0  2  0  0  0  0  0  0  0  0  0
   28.5273  -21.2640  -18.5461 N   0  0  0  0  0  0  0  0  0  0  0  0
   27.6177  -20.7770  -16.3567 C   0  0  0  0  0  0  0  0  0  0  0  0
   27.3273  -21.9937  -16.2510 O   0  0  0  0  0  0  0  0  0  0  0  0
   27.4016  -19.9230  -15.2428 N   0  0  0  0  0  0  0  0  0  0  0  0
   26.8097  -20.4813  -14.0209 C   0  0  1  0  0  0  0  0  0  0  0  0
   27.3762  -19.7805  -12.8487 C   0  0  0  0  0  0  0  0  0  0  0  0
   26.8628  -20.0894  -11.5371 C   0  0  0  0  0  0  0  0  0  0  0  0
   25.7341  -19.4608  -11.0583 C   0  0  0  0  0  0  0  0  0  0  0  0
   25.2184  -19.7391   -9.7980 C   0  0  0  0  0  0  0  0  0  0  0  0
   25.8343  -20.6684   -8.9798 C   0  0  0  0  0  0  0  0  0  0  0  0
   26.9575  -21.3052   -9.4353 C   0  0  0  0  0  0  0  0  0  0  0  0
   27.4585  -21.0141  -10.6975 C   0  0  0  0  0  0  0  0  0  0  0  0
   25.3694  -20.6147  -14.1424 C   0  0  0  0  0  0  0  0  0  0  0  0
   24.7457  -19.6749  -14.7625 O   0  0  0  0  0  0  0  0  0  0  0  0
   18.6308  -26.4588  -12.9300 N   0  0  0  0  0  0  0  0  0  0  0  0
   18.1244  -25.1410  -13.1310 C   0  0  0  0  0  0  0  0  0  0  0  0
   16.9149  -24.8389  -12.8466 N   0  0  0  0  0  0  0  0  0  0  0  0
   18.9918  -24.1478  -13.6597 N   0  0  0  0  0  0  0  0  0  0  0  0
   20.4008  -24.0910  -13.3517 C   0  0  0  0  0  0  0  0  0  0  0  0
   21.0388  -22.9706  -14.1815 C   0  0  0  0  0  0  0  0  0  0  0  0
   22.5237  -22.9806  -13.9713 C   0  0  0  0  0  0  0  0  0  0  0  0
   23.0595  -21.5940  -13.8598 C   0  0  2  0  0  0  0  0  0  0  0  0
   24.5360  -21.6536  -13.6729 N   0  0  0  0  0  0  0  0  0  0  0  0
   22.4458  -20.8419  -12.7566 C   0  0  0  0  0  0  0  0  0  0  0  0
   22.9618  -20.9058  -11.6018 O   0  0  0  0  0  0  0  0  0  0  0  0
   21.3255  -20.0534  -12.8958 O   0  0  0  0  0  0  0  0  0  0  0  0
  2  1  1  0
  3  2  1  0
  3  5  1  0
  3  4  1  6
  5  6  2  0
  7  5  1  0
  7  8  1  0
  8  9  1  1
 10  9  1  0
 11 10  2  0
 12 11  1  0
 13 14  1  0
 13 12  2  0
 14 15  2  0
 15 10  1  0
 16  8  1  0
 16 17  2  0
 19 21  1  0
 19 18  1  0
 20 19  2  0
 22 23  1  0
 22 21  1  0
 23 24  1  0
 25 24  1  1
 25 26  1  0
 25 27  1  0
 26 16  1  0
 27 29  1  0
 28 27  2  0
M  END
$$$$
