SFR.pdb
     RDKit          3D

 29 29  0  0  1  0  0  0  0  0999 V2000
   25.9114  -22.9993  -19.2782 O   0  0  0  0  0  0  0  0  0  0  0  0
   26.3200  -22.0559  -18.3424 C   0  0  0  0  0  0  0  0  0  0  0  0
   27.1933  -22.7429  -17.3424 C   0  0  2  0  0  0  0  0  0  0  0  0
   27.5539  -24.0743  -17.7904 N   0  0  0  0  0  0  0  0  0  0  0  0
   26.5747  -22.8015  -15.9797 C   0  0  0  0  0  0  0  0  0  0  0  0
   26.1557  -23.8766  -15.4851 O   0  0  0  0  0  0  0  0  0  0  0  0
   26.4558  -21.6072  -15.2204 N   0  0  0  0  0  0  0  0  0  0  0  0
   25.8507  -21.6694  -13.8843 C   0  0  1  0  0  0  0  0  0  0  0  0
   26.5570  -20.7251  -12.9924 C   0  0  0  0  0  0  0  0  0  0  0  0
   26.1640  -20.6487  -11.6070 C   0  0  0  0  0  0  0  0  0  0  0  0
   26.8605  -21.3399  -10.6399 C   0  0  0  0  0  0  0  0  0  0  0  0
   26.5029  -21.2844   -9.2979 C   0  0  0  0  0  0  0  0  0  0  0  0
   25.4223  -20.5224   -8.8929 C   0  0  0  0  0  0  0  0  0  0  0  0
   24.7156  -19.8272   -9.8372 C   0  0  0  0  0  0  0  0  0  0  0  0
   25.0876  -19.8947  -11.1737 C   0  0  0  0  0  0  0  0  0  0  0  0
   24.4014  -21.6314  -13.9562 C   0  0  0  0  0  0  0  0  0  0  0  0
   23.8803  -20.8526  -14.8387 O   0  0  0  0  0  0  0  0  0  0  0  0
   17.9870  -26.0455  -10.1990 N   0  0  0  0  0  0  0  0  0  0  0  0
   18.6807  -26.2087  -11.4342 C   0  0  0  0  0  0  0  0  0  0  0  0
   18.8542  -27.3630  -11.9562 N   0  0  0  0  0  0  0  0  0  0  0  0
   19.1868  -25.0558  -12.0923 N   0  0  0  0  0  0  0  0  0  0  0  0
   19.0431  -23.7216  -11.5608 C   0  0  0  0  0  0  0  0  0  0  0  0
   19.7748  -22.7436  -12.4878 C   0  0  0  0  0  0  0  0  0  0  0  0
   21.2499  -23.0059  -12.4219 C   0  0  0  0  0  0  0  0  0  0  0  0
   22.0008  -22.0766  -13.3135 C   0  0  2  0  0  0  0  0  0  0  0  0
   23.4599  -22.3466  -13.1840 N   0  0  0  0  0  0  0  0  0  0  0  0
   21.7250  -20.6649  -13.0132 C   0  0  0  0  0  0  0  0  0  0  0  0
   22.3558  -20.0976  -12.0729 O   0  0  0  0  0  0  0  0  0  0  0  0
   20.8098  -19.8993  -13.7005 O   0  0  0  0  0  0  0  0  0  0  0  0
  2  1  1  0
  3  2  1  0
  3  5  1  0
  3  4  1  6
  5  6  2  0
  7  5  1  0
  7  8  1  0
  8  9  1  1
 10  9  1  0
 11 10  2  0
 12 11  1  0
 13 14  1  0
 13 12  2  0
 14 15  2  0
 15 10  1  0
 16  8  1  0
 16 17  2  0
 19 21  1  0
 19 18  1  0
 20 19  2  0
 22 23  1  0
 22 21  1  0
 23 24  1  0
 25 24  1  1
 25 26  1  0
 25 27  1  0
 26 16  1  0
 27 29  1  0
 28 27  2  0
M  END
$$$$
