SFR.pdb
     RDKit          3D

 29 29  0  0  1  0  0  0  0  0999 V2000
   28.7803  -19.3159  -12.5975 O   0  0  0  0  0  0  0  0  0  0  0  0
   29.4934  -20.5065  -12.5178 C   0  0  0  0  0  0  0  0  0  0  0  0
   29.6356  -20.8661  -11.0738 C   0  0  2  0  0  0  0  0  0  0  0  0
   30.4658  -22.0436  -10.9075 N   0  0  0  0  0  0  0  0  0  0  0  0
   28.3149  -21.0596  -10.3945 C   0  0  0  0  0  0  0  0  0  0  0  0
   27.7389  -22.1746  -10.3655 O   0  0  0  0  0  0  0  0  0  0  0  0
   27.6912  -19.9510   -9.7629 N   0  0  0  0  0  0  0  0  0  0  0  0
   26.3496  -20.1186   -9.1909 C   0  0  1  0  0  0  0  0  0  0  0  0
   26.2404  -19.2907   -7.9708 C   0  0  0  0  0  0  0  0  0  0  0  0
   27.0466  -19.6298   -6.8243 C   0  0  0  0  0  0  0  0  0  0  0  0
   28.0452  -18.7844   -6.3927 C   0  0  0  0  0  0  0  0  0  0  0  0
   28.8372  -19.0869   -5.2913 C   0  0  0  0  0  0  0  0  0  0  0  0
   28.6402  -20.2623   -4.5898 C   0  0  0  0  0  0  0  0  0  0  0  0
   27.6533  -21.1174   -5.0012 C   0  0  0  0  0  0  0  0  0  0  0  0
   26.8717  -20.7984   -6.1041 C   0  0  0  0  0  0  0  0  0  0  0  0
   25.3220  -20.0206  -10.2115 C   0  0  0  0  0  0  0  0  0  0  0  0
   25.1347  -18.8633  -10.7430 O   0  0  0  0  0  0  0  0  0  0  0  0
   24.5605  -26.3202  -14.5557 N   0  0  0  0  0  0  0  0  0  0  0  0
   23.4436  -25.4889  -14.8639 C   0  0  0  0  0  0  0  0  0  0  0  0
   22.3466  -25.9784  -15.3021 N   0  0  0  0  0  0  0  0  0  0  0  0
   23.5625  -24.0857  -14.6763 N   0  0  0  0  0  0  0  0  0  0  0  0
   24.7074  -23.4717  -14.0474 C   0  0  0  0  0  0  0  0  0  0  0  0
   24.2564  -22.8279  -12.7309 C   0  0  0  0  0  0  0  0  0  0  0  0
   23.7552  -21.4407  -13.0024 C   0  0  0  0  0  0  0  0  0  0  0  0
   23.4353  -20.7275  -11.7330 C   0  0  2  0  0  0  0  0  0  0  0  0
   24.4835  -21.0363  -10.7209 N   0  0  0  0  0  0  0  0  0  0  0  0
   22.1110  -21.0852  -11.2063 C   0  0  0  0  0  0  0  0  0  0  0  0
   21.0812  -20.8369  -11.9004 O   0  0  0  0  0  0  0  0  0  0  0  0
   21.9086  -21.6872   -9.9845 O   0  0  0  0  0  0  0  0  0  0  0  0
  2  1  1  0
  3  2  1  0
  3  5  1  0
  3  4  1  6
  5  6  2  0
  7  5  1  0
  7  8  1  0
  8  9  1  1
 10  9  1  0
 11 10  2  0
 12 11  1  0
 13 14  1  0
 13 12  2  0
 14 15  2  0
 15 10  1  0
 16  8  1  0
 16 17  2  0
 19 21  1  0
 19 18  1  0
 20 19  2  0
 22 23  1  0
 22 21  1  0
 23 24  1  0
 25 24  1  6
 25 26  1  0
 25 27  1  0
 26 16  1  0
 27 29  1  0
 28 27  2  0
M  END
$$$$
