SFR.pdb
     RDKit          3D

 29 29  0  0  1  0  0  0  0  0999 V2000
   27.7381  -20.0033  -13.9870 O   0  0  0  0  0  0  0  0  0  0  0  0
   29.0478  -19.8155  -13.5607 C   0  0  0  0  0  0  0  0  0  0  0  0
   29.5442  -21.1106  -13.0030 C   0  0  2  0  0  0  0  0  0  0  0  0
   29.2560  -22.2116  -13.9021 N   0  0  0  0  0  0  0  0  0  0  0  0
   29.0004  -21.3972  -11.6373 C   0  0  0  0  0  0  0  0  0  0  0  0
   28.1314  -22.2813  -11.4395 O   0  0  0  0  0  0  0  0  0  0  0  0
   29.4789  -20.6485  -10.5295 N   0  0  0  0  0  0  0  0  0  0  0  0
   28.8063  -20.7867   -9.2319 C   0  0  1  0  0  0  0  0  0  0  0  0
   29.6505  -20.1722   -8.1851 C   0  0  0  0  0  0  0  0  0  0  0  0
   29.0918  -19.9657   -6.8718 C   0  0  0  0  0  0  0  0  0  0  0  0
   28.3920  -18.8157   -6.5787 C   0  0  0  0  0  0  0  0  0  0  0  0
   27.8438  -18.5911   -5.3213 C   0  0  0  0  0  0  0  0  0  0  0  0
   27.9890  -19.5305   -4.3170 C   0  0  0  0  0  0  0  0  0  0  0  0
   28.6808  -20.6809   -4.5861 C   0  0  0  0  0  0  0  0  0  0  0  0
   29.2218  -20.8881   -5.8484 C   0  0  0  0  0  0  0  0  0  0  0  0
   27.4040  -20.4222   -9.3199 C   0  0  0  0  0  0  0  0  0  0  0  0
   27.1031  -19.4401  -10.0956 O   0  0  0  0  0  0  0  0  0  0  0  0
   20.4919  -21.7028  -13.0385 N   0  0  0  0  0  0  0  0  0  0  0  0
   21.0948  -20.5059  -13.5257 C   0  0  0  0  0  0  0  0  0  0  0  0
   20.4392  -19.6675  -14.2344 N   0  0  0  0  0  0  0  0  0  0  0  0
   22.4559  -20.2481  -13.2107 N   0  0  0  0  0  0  0  0  0  0  0  0
   23.3032  -21.2078  -12.5441 C   0  0  0  0  0  0  0  0  0  0  0  0
   23.3850  -20.8400  -11.0578 C   0  0  0  0  0  0  0  0  0  0  0  0
   24.7800  -21.0802  -10.5626 C   0  0  0  0  0  0  0  0  0  0  0  0
   24.9058  -20.7271   -9.1198 C   0  0  2  0  0  0  0  0  0  0  0  0
   26.2968  -21.0072   -8.6670 N   0  0  0  0  0  0  0  0  0  0  0  0
   23.9491  -21.4581   -8.2773 C   0  0  0  0  0  0  0  0  0  0  0  0
   24.3632  -22.4144   -7.5576 O   0  0  0  0  0  0  0  0  0  0  0  0
   22.6048  -21.1669   -8.2135 O   0  0  0  0  0  0  0  0  0  0  0  0
  2  1  1  0
  3  2  1  0
  3  5  1  0
  3  4  1  6
  5  6  2  0
  7  5  1  0
  7  8  1  0
  8  9  1  1
 10  9  1  0
 11 10  2  0
 12 11  1  0
 13 14  1  0
 13 12  2  0
 14 15  2  0
 15 10  1  0
 16  8  1  0
 16 17  2  0
 19 21  1  0
 19 18  1  0
 20 19  2  0
 22 23  1  0
 22 21  1  0
 23 24  1  0
 25 24  1  6
 25 26  1  0
 25 27  1  0
 26 16  1  0
 27 29  1  0
 28 27  2  0
M  END
$$$$
