SFR.pdb
     RDKit          3D

 29 29  0  0  1  0  0  0  0  0999 V2000
   26.5682  -20.0619  -17.8614 O   0  0  0  0  0  0  0  0  0  0  0  0
   27.8938  -19.9509  -17.4578 C   0  0  0  0  0  0  0  0  0  0  0  0
   28.2600  -21.1987  -16.7205 C   0  0  2  0  0  0  0  0  0  0  0  0
   28.2816  -22.3442  -17.6099 N   0  0  0  0  0  0  0  0  0  0  0  0
   27.3615  -21.4633  -15.5519 C   0  0  0  0  0  0  0  0  0  0  0  0
   26.5495  -22.4207  -15.5406 O   0  0  0  0  0  0  0  0  0  0  0  0
   27.4260  -20.6078  -14.4202 N   0  0  0  0  0  0  0  0  0  0  0  0
   26.5611  -20.8851  -13.2669 C   0  0  1  0  0  0  0  0  0  0  0  0
   27.1184  -20.2108  -12.0749 C   0  0  0  0  0  0  0  0  0  0  0  0
   26.3734  -20.2489  -10.8409 C   0  0  0  0  0  0  0  0  0  0  0  0
   26.8149  -21.0041   -9.7765 C   0  0  0  0  0  0  0  0  0  0  0  0
   26.1162  -21.0590   -8.5762 C   0  0  0  0  0  0  0  0  0  0  0  0
   24.9419  -20.3462   -8.4172 C   0  0  0  0  0  0  0  0  0  0  0  0
   24.4845  -19.5888   -9.4620 C   0  0  0  0  0  0  0  0  0  0  0  0
   25.1961  -19.5461  -10.6540 C   0  0  0  0  0  0  0  0  0  0  0  0
   25.1599  -20.7010  -13.5984 C   0  0  0  0  0  0  0  0  0  0  0  0
   24.8635  -19.6962  -14.3464 O   0  0  0  0  0  0  0  0  0  0  0  0
   18.0493  -24.4928  -16.8959 N   0  0  0  0  0  0  0  0  0  0  0  0
   18.7879  -24.8758  -15.7378 C   0  0  0  0  0  0  0  0  0  0  0  0
   18.4870  -25.9234  -15.0691 N   0  0  0  0  0  0  0  0  0  0  0  0
   19.8816  -24.0683  -15.3256 N   0  0  0  0  0  0  0  0  0  0  0  0
   20.3428  -22.9268  -16.0791 C   0  0  0  0  0  0  0  0  0  0  0  0
   20.8019  -21.8437  -15.0956 C   0  0  0  0  0  0  0  0  0  0  0  0
   22.1747  -22.1785  -14.5932 C   0  0  0  0  0  0  0  0  0  0  0  0
   22.6730  -21.1324  -13.6552 C   0  0  2  0  0  0  0  0  0  0  0  0
   24.0510  -21.4867  -13.2147 N   0  0  0  0  0  0  0  0  0  0  0  0
   21.8008  -20.9669  -12.4842 C   0  0  0  0  0  0  0  0  0  0  0  0
   22.2063  -21.3591  -11.3503 O   0  0  0  0  0  0  0  0  0  0  0  0
   20.5470  -20.4000  -12.5358 O   0  0  0  0  0  0  0  0  0  0  0  0
  2  1  1  0
  3  2  1  0
  3  5  1  0
  3  4  1  6
  5  6  2  0
  7  5  1  0
  7  8  1  0
  8  9  1  1
 10  9  1  0
 11 10  2  0
 12 11  1  0
 13 14  1  0
 13 12  2  0
 14 15  2  0
 15 10  1  0
 16  8  1  0
 16 17  2  0
 19 21  1  0
 19 18  1  0
 20 19  2  0
 22 23  1  0
 22 21  1  0
 23 24  1  0
 25 24  1  6
 25 26  1  0
 25 27  1  0
 26 16  1  0
 27 29  1  0
 28 27  2  0
M  END
$$$$
