AVF.pdb
     RDKit          3D

 24 24  0  0  1  0  0  0  0  0999 V2000
   22.2902  -22.6146  -13.6650 C   0  0  0  0  0  0  0  0  0  0  0  0
   23.4618  -21.9869  -14.3617 C   0  0  2  0  0  0  0  0  0  0  0  0
   23.5964  -22.4395  -15.7177 N   0  0  0  0  0  0  0  0  0  0  0  0
   24.7238  -22.1423  -13.5883 C   0  0  0  0  0  0  0  0  0  0  0  0
   25.2491  -23.2605  -13.4481 O   0  0  0  0  0  0  0  0  0  0  0  0
   26.8948  -18.5729  -12.8049 C   0  0  0  0  0  0  0  0  0  0  0  0
   27.4412  -19.9573  -12.9136 C   0  0  2  0  0  0  0  0  0  0  0  0
   27.7313  -20.3266  -14.3712 C   0  0  0  0  0  0  0  0  0  0  0  0
   26.6149  -21.0440  -12.3171 C   0  0  2  0  0  0  0  0  0  0  0  0
   25.3209  -21.0037  -13.0132 N   0  0  0  0  0  0  0  0  0  0  0  0
   26.4103  -20.9450  -10.8540 C   0  0  0  0  0  0  0  0  0  0  0  0
   25.2463  -20.6115  -10.4271 O   0  0  0  0  0  0  0  0  0  0  0  0
   27.4095  -21.1949   -9.8892 N   0  0  0  0  0  0  0  0  0  0  0  0
   27.1920  -20.9706   -8.4617 C   0  0  1  0  0  0  0  0  0  0  0  0
   28.5225  -20.5822   -7.8954 C   0  0  0  0  0  0  0  0  0  0  0  0
   28.4989  -20.1493   -6.4849 C   0  0  0  0  0  0  0  0  0  0  0  0
   28.4057  -18.8239   -6.1210 C   0  0  0  0  0  0  0  0  0  0  0  0
   28.3768  -18.4303   -4.7785 C   0  0  0  0  0  0  0  0  0  0  0  0
   28.4412  -19.3622   -3.7648 C   0  0  0  0  0  0  0  0  0  0  0  0
   28.5348  -20.6886   -4.1308 C   0  0  0  0  0  0  0  0  0  0  0  0
   28.5633  -21.0787   -5.4532 C   0  0  0  0  0  0  0  0  0  0  0  0
   26.2451  -19.8535   -8.3112 C   0  0  0  0  0  0  0  0  0  0  0  0
   26.4943  -18.6368   -8.9150 O   0  0  0  0  0  0  0  0  0  0  0  0
   25.2021  -19.9868   -7.6361 O   0  0  0  0  0  0  0  0  0  0  0  0
  2  1  1  1
  2  4  1  0
  3  2  1  0
  4 10  1  0
  4  5  2  0
  7  6  1  6
  7  8  1  0
  9 11  1  0
  9  7  1  0
  9 10  1  6
 11 12  2  0
 13 14  1  0
 13 11  1  0
 14 15  1  1
 15 16  1  0
 16 21  2  0
 17 18  2  0
 17 16  1  0
 18 19  1  0
 19 20  2  0
 21 20  1  0
 22 14  1  0
 23 22  1  0
 24 22  2  0
M  END
$$$$
