AVF.pdb
     RDKit          3D

 24 24  0  0  1  0  0  0  0  0999 V2000
   16.0427  -10.6272  -13.9824 C   0  0  0  0  0  0  0  0  0  0  0  0
   16.3921  -10.8285  -15.4279 C   0  0  2  0  0  0  0  0  0  0  0  0
   16.3001  -12.2054  -15.8246 N   0  0  0  0  0  0  0  0  0  0  0  0
   17.7092  -10.2290  -15.7756 C   0  0  0  0  0  0  0  0  0  0  0  0
   18.7506  -10.9058  -15.7160 O   0  0  0  0  0  0  0  0  0  0  0  0
   20.0715   -7.2121  -18.6101 C   0  0  0  0  0  0  0  0  0  0  0  0
   18.8399   -7.6855  -17.9128 C   0  0  2  0  0  0  0  0  0  0  0  0
   17.7672   -6.5931  -17.8784 C   0  0  0  0  0  0  0  0  0  0  0  0
   19.0203   -8.2003  -16.5266 C   0  0  2  0  0  0  0  0  0  0  0  0
   17.7650   -8.8796  -16.1753 N   0  0  0  0  0  0  0  0  0  0  0  0
   19.3443   -7.1711  -15.5126 C   0  0  0  0  0  0  0  0  0  0  0  0
   18.4092   -6.3749  -15.1385 O   0  0  0  0  0  0  0  0  0  0  0  0
   20.6154   -7.0036  -14.9228 N   0  0  0  0  0  0  0  0  0  0  0  0
   20.8670   -6.0182  -13.8734 C   0  0  1  0  0  0  0  0  0  0  0  0
   22.1653   -6.4102  -13.2389 C   0  0  0  0  0  0  0  0  0  0  0  0
   23.2179   -6.8364  -14.1812 C   0  0  0  0  0  0  0  0  0  0  0  0
   23.4646   -8.1622  -14.4618 C   0  0  0  0  0  0  0  0  0  0  0  0
   24.4617   -8.5497  -15.3640 C   0  0  0  0  0  0  0  0  0  0  0  0
   25.2384   -7.6108  -16.0084 C   0  0  0  0  0  0  0  0  0  0  0  0
   24.9904   -6.2839  -15.7261 C   0  0  0  0  0  0  0  0  0  0  0  0
   24.0082   -5.8999  -14.8375 C   0  0  0  0  0  0  0  0  0  0  0  0
   21.0054   -4.6969  -14.5077 C   0  0  0  0  0  0  0  0  0  0  0  0
   20.9513   -3.5452  -13.7477 O   0  0  0  0  0  0  0  0  0  0  0  0
   21.1738   -4.5951  -15.7417 O   0  0  0  0  0  0  0  0  0  0  0  0
  2  1  1  1
  2  4  1  0
  3  2  1  0
  4 10  1  0
  4  5  2  0
  7  6  1  1
  7  8  1  0
  9 11  1  0
  9  7  1  0
  9 10  1  1
 11 12  2  0
 13 14  1  0
 13 11  1  0
 14 15  1  6
 15 16  1  0
 16 21  2  0
 17 18  2  0
 17 16  1  0
 18 19  1  0
 19 20  2  0
 21 20  1  0
 22 14  1  0
 23 22  1  0
 24 22  2  0
M  END
$$$$
