AVF.pdb
     RDKit          3D

 24 24  0  0  1  0  0  0  0  0999 V2000
   29.3389  -22.6212  -18.0462 C   0  0  0  0  0  0  0  0  0  0  0  0
   28.0708  -22.6657  -17.2449 C   0  0  2  0  0  0  0  0  0  0  0  0
   26.9264  -22.2609  -18.0119 N   0  0  0  0  0  0  0  0  0  0  0  0
   28.1877  -21.9118  -15.9670 C   0  0  0  0  0  0  0  0  0  0  0  0
   29.0411  -22.2270  -15.1195 O   0  0  0  0  0  0  0  0  0  0  0  0
   27.0006  -17.6589  -13.7366 C   0  0  0  0  0  0  0  0  0  0  0  0
   27.0704  -18.6447  -14.8548 C   0  0  2  0  0  0  0  0  0  0  0  0
   25.8015  -18.6033  -15.7112 C   0  0  0  0  0  0  0  0  0  0  0  0
   27.3244  -20.0621  -14.4729 C   0  0  2  0  0  0  0  0  0  0  0  0
   27.3170  -20.8314  -15.7255 N   0  0  0  0  0  0  0  0  0  0  0  0
   26.3528  -20.6375  -13.5153 C   0  0  0  0  0  0  0  0  0  0  0  0
   25.2179  -21.0316  -13.9682 O   0  0  0  0  0  0  0  0  0  0  0  0
   26.5878  -20.7865  -12.1318 N   0  0  0  0  0  0  0  0  0  0  0  0
   25.6147  -21.4069  -11.2354 C   0  0  1  0  0  0  0  0  0  0  0  0
   26.4112  -22.0983  -10.1727 C   0  0  0  0  0  0  0  0  0  0  0  0
   26.9316  -21.2175   -9.1093 C   0  0  0  0  0  0  0  0  0  0  0  0
   26.1559  -20.2534   -8.5040 C   0  0  0  0  0  0  0  0  0  0  0  0
   26.6623  -19.4311   -7.4913 C   0  0  0  0  0  0  0  0  0  0  0  0
   27.9657  -19.5577   -7.0607 C   0  0  0  0  0  0  0  0  0  0  0  0
   28.7410  -20.5231   -7.6679 C   0  0  0  0  0  0  0  0  0  0  0  0
   28.2439  -21.3346   -8.6660 C   0  0  0  0  0  0  0  0  0  0  0  0
   24.8026  -20.3391  -10.6291 C   0  0  0  0  0  0  0  0  0  0  0  0
   23.5748  -20.6260  -10.0658 O   0  0  0  0  0  0  0  0  0  0  0  0
   25.2093  -19.1577  -10.6139 O   0  0  0  0  0  0  0  0  0  0  0  0
  2  1  1  6
  2  4  1  0
  3  2  1  0
  4 10  1  0
  4  5  2  0
  7  6  1  1
  7  8  1  0
  9 11  1  0
  9  7  1  0
  9 10  1  6
 11 12  2  0
 13 14  1  0
 13 11  1  0
 14 15  1  1
 15 16  1  0
 16 21  2  0
 17 18  2  0
 17 16  1  0
 18 19  1  0
 19 20  2  0
 21 20  1  0
 22 14  1  0
 23 22  1  0
 24 22  2  0
M  END
$$$$
