AVF.pdb
     RDKit          3D

 24 24  0  0  1  0  0  0  0  0999 V2000
   29.7030  -23.2570  -15.5714 C   0  0  0  0  0  0  0  0  0  0  0  0
   28.5676  -22.6304  -16.3267 C   0  0  2  0  0  0  0  0  0  0  0  0
   28.9484  -22.2329  -17.6529 N   0  0  0  0  0  0  0  0  0  0  0  0
   27.9329  -21.5196  -15.5662 C   0  0  0  0  0  0  0  0  0  0  0  0
   28.3855  -20.3636  -15.6342 O   0  0  0  0  0  0  0  0  0  0  0  0
   23.9511  -19.3646  -14.5091 C   0  0  0  0  0  0  0  0  0  0  0  0
   24.8751  -20.4422  -14.9695 C   0  0  2  0  0  0  0  0  0  0  0  0
   24.1199  -21.7502  -15.2222 C   0  0  0  0  0  0  0  0  0  0  0  0
   26.0357  -20.7419  -14.0849 C   0  0  2  0  0  0  0  0  0  0  0  0
   26.8078  -21.7923  -14.7639 N   0  0  0  0  0  0  0  0  0  0  0  0
   25.6836  -21.1738  -12.7131 C   0  0  0  0  0  0  0  0  0  0  0  0
   25.3120  -22.3903  -12.5385 O   0  0  0  0  0  0  0  0  0  0  0  0
   25.7299  -20.3387  -11.5764 N   0  0  0  0  0  0  0  0  0  0  0  0
   25.3891  -20.8186  -10.2389 C   0  0  1  0  0  0  0  0  0  0  0  0
   25.7537  -19.7139   -9.2963 C   0  0  0  0  0  0  0  0  0  0  0  0
   27.0192  -19.9101   -8.5632 C   0  0  0  0  0  0  0  0  0  0  0  0
   27.3142  -19.2271   -7.4039 C   0  0  0  0  0  0  0  0  0  0  0  0
   28.5158  -19.4303   -6.7162 C   0  0  0  0  0  0  0  0  0  0  0  0
   29.4542  -20.3280   -7.1784 C   0  0  0  0  0  0  0  0  0  0  0  0
   29.1575  -21.0108   -8.3393 C   0  0  0  0  0  0  0  0  0  0  0  0
   27.9738  -20.8121   -9.0186 C   0  0  0  0  0  0  0  0  0  0  0  0
   23.9362  -21.0509  -10.1904 C   0  0  0  0  0  0  0  0  0  0  0  0
   23.4060  -22.0011   -9.3401 O   0  0  0  0  0  0  0  0  0  0  0  0
   23.1597  -20.3939  -10.9163 O   0  0  0  0  0  0  0  0  0  0  0  0
  2  1  1  1
  2  4  1  0
  3  2  1  0
  4 10  1  0
  4  5  2  0
  7  6  1  1
  7  8  1  0
  9 11  1  0
  9  7  1  0
  9 10  1  6
 11 12  2  0
 13 14  1  0
 13 11  1  0
 14 15  1  1
 15 16  1  0
 16 21  2  0
 17 18  2  0
 17 16  1  0
 18 19  1  0
 19 20  2  0
 21 20  1  0
 22 14  1  0
 23 22  1  0
 24 22  2  0
M  END
$$$$
