AVF.pdb
     RDKit          3D

 24 24  0  0  1  0  0  0  0  0999 V2000
   27.0077  -13.9906  -20.3155 C   0  0  0  0  0  0  0  0  0  0  0  0
   27.9451  -15.1626  -20.3185 C   0  0  2  0  0  0  0  0  0  0  0  0
   28.6477  -15.2957  -21.5636 N   0  0  0  0  0  0  0  0  0  0  0  0
   27.2666  -16.4249  -19.9170 C   0  0  0  0  0  0  0  0  0  0  0  0
   26.4532  -16.9783  -20.6773 O   0  0  0  0  0  0  0  0  0  0  0  0
   28.6280  -18.4368  -16.3055 C   0  0  0  0  0  0  0  0  0  0  0  0
   28.0180  -19.0207  -17.5359 C   0  0  2  0  0  0  0  0  0  0  0  0
   29.0820  -19.3119  -18.5982 C   0  0  0  0  0  0  0  0  0  0  0  0
   26.9305  -18.2287  -18.1757 C   0  0  2  0  0  0  0  0  0  0  0  0
   27.5564  -16.9899  -18.6598 N   0  0  0  0  0  0  0  0  0  0  0  0
   25.7846  -17.9103  -17.2939 C   0  0  0  0  0  0  0  0  0  0  0  0
   25.8926  -16.9071  -16.4999 O   0  0  0  0  0  0  0  0  0  0  0  0
   24.5735  -18.6342  -17.2655 N   0  0  0  0  0  0  0  0  0  0  0  0
   23.4358  -18.2236  -16.4456 C   0  0  1  0  0  0  0  0  0  0  0  0
   22.6804  -17.2180  -17.2579 C   0  0  0  0  0  0  0  0  0  0  0  0
   22.1748  -17.7134  -18.5528 C   0  0  0  0  0  0  0  0  0  0  0  0
   20.9520  -18.3349  -18.6787 C   0  0  0  0  0  0  0  0  0  0  0  0
   20.4836  -18.7922  -19.9155 C   0  0  0  0  0  0  0  0  0  0  0  0
   21.2353  -18.6357  -21.0603 C   0  0  0  0  0  0  0  0  0  0  0  0
   22.4594  -18.0135  -20.9324 C   0  0  0  0  0  0  0  0  0  0  0  0
   22.9229  -17.5620  -19.7146 C   0  0  0  0  0  0  0  0  0  0  0  0
   22.5897  -19.4050  -16.2093 C   0  0  0  0  0  0  0  0  0  0  0  0
   21.4784  -19.3198  -15.3939 O   0  0  0  0  0  0  0  0  0  0  0  0
   22.8620  -20.5024  -16.7411 O   0  0  0  0  0  0  0  0  0  0  0  0
  2  1  1  6
  2  4  1  0
  3  2  1  0
  4 10  1  0
  4  5  2  0
  7  6  1  1
  7  8  1  0
  9 11  1  0
  9  7  1  0
  9 10  1  1
 11 12  2  0
 13 14  1  0
 13 11  1  0
 14 15  1  6
 15 16  1  0
 16 21  2  0
 17 18  2  0
 17 16  1  0
 18 19  1  0
 19 20  2  0
 21 20  1  0
 22 14  1  0
 23 22  1  0
 24 22  2  0
M  END
$$$$
