AVF.pdb
     RDKit          3D

 24 24  0  0  1  0  0  0  0  0999 V2000
   28.4245  -20.5259  -15.8496 C   0  0  0  0  0  0  0  0  0  0  0  0
   27.0112  -20.9935  -15.6598 C   0  0  2  0  0  0  0  0  0  0  0  0
   26.2659  -20.9894  -16.8871 N   0  0  0  0  0  0  0  0  0  0  0  0
   26.3147  -20.2492  -14.5754 C   0  0  0  0  0  0  0  0  0  0  0  0
   25.6271  -19.2460  -14.8341 O   0  0  0  0  0  0  0  0  0  0  0  0
   23.9326  -22.0701  -12.3935 C   0  0  0  0  0  0  0  0  0  0  0  0
   24.2135  -20.6058  -12.4561 C   0  0  2  0  0  0  0  0  0  0  0  0
   23.8336  -20.0257  -13.8215 C   0  0  0  0  0  0  0  0  0  0  0  0
   25.6089  -20.1855  -12.1472 C   0  0  2  0  0  0  0  0  0  0  0  0
   26.4427  -20.6946  -13.2455 N   0  0  0  0  0  0  0  0  0  0  0  0
   26.1334  -20.6599  -10.8465 C   0  0  0  0  0  0  0  0  0  0  0  0
   26.4496  -21.8995  -10.7374 O   0  0  0  0  0  0  0  0  0  0  0  0
   26.3139  -19.8407   -9.7115 N   0  0  0  0  0  0  0  0  0  0  0  0
   26.8240  -20.3607   -8.4447 C   0  0  1  0  0  0  0  0  0  0  0  0
   27.5607  -19.2289   -7.7982 C   0  0  0  0  0  0  0  0  0  0  0  0
   28.1461  -19.5367   -6.4790 C   0  0  0  0  0  0  0  0  0  0  0  0
   27.5883  -19.0894   -5.3016 C   0  0  0  0  0  0  0  0  0  0  0  0
   28.1515  -19.3967   -4.0579 C   0  0  0  0  0  0  0  0  0  0  0  0
   29.2934  -20.1635   -3.9667 C   0  0  0  0  0  0  0  0  0  0  0  0
   29.8506  -20.6102   -5.1464 C   0  0  0  0  0  0  0  0  0  0  0  0
   29.2972  -20.3087   -6.3731 C   0  0  0  0  0  0  0  0  0  0  0  0
   25.6741  -20.7440   -7.6091 C   0  0  0  0  0  0  0  0  0  0  0  0
   25.8152  -21.6910   -6.6140 O   0  0  0  0  0  0  0  0  0  0  0  0
   24.5534  -20.2202   -7.7856 O   0  0  0  0  0  0  0  0  0  0  0  0
  2  1  1  6
  2  4  1  0
  3  2  1  0
  4 10  1  0
  4  5  2  0
  7  6  1  6
  7  8  1  0
  9 11  1  0
  9  7  1  0
  9 10  1  6
 11 12  2  0
 13 14  1  0
 13 11  1  0
 14 15  1  1
 15 16  1  0
 16 21  2  0
 17 18  2  0
 17 16  1  0
 18 19  1  0
 19 20  2  0
 21 20  1  0
 22 14  1  0
 23 22  1  0
 24 22  2  0
M  END
$$$$
