AVF.pdb
     RDKit          3D

 24 24  0  0  1  0  0  0  0  0999 V2000
   26.5979  -35.9076  -11.9655 C   0  0  0  0  0  0  0  0  0  0  0  0
   25.9554  -34.5517  -11.9370 C   0  0  2  0  0  0  0  0  0  0  0  0
   26.1980  -33.8078  -13.1409 N   0  0  0  0  0  0  0  0  0  0  0  0
   26.3215  -33.7828  -10.7164 C   0  0  0  0  0  0  0  0  0  0  0  0
   27.3562  -33.0940  -10.6863 O   0  0  0  0  0  0  0  0  0  0  0  0
   23.2456  -32.6020   -8.2985 C   0  0  0  0  0  0  0  0  0  0  0  0
   24.6405  -32.0728   -8.2615 C   0  0  2  0  0  0  0  0  0  0  0  0
   24.8645  -31.0220   -9.3528 C   0  0  0  0  0  0  0  0  0  0  0  0
   25.7336  -33.0803   -8.3585 C   0  0  2  0  0  0  0  0  0  0  0  0
   25.4795  -33.8432   -9.5889 N   0  0  0  0  0  0  0  0  0  0  0  0
   25.8443  -33.9988   -7.2025 C   0  0  0  0  0  0  0  0  0  0  0  0
   25.2180  -35.1182   -7.2571 O   0  0  0  0  0  0  0  0  0  0  0  0
   26.5959  -33.7305   -6.0386 N   0  0  0  0  0  0  0  0  0  0  0  0
   26.6451  -34.6559   -4.9087 C   0  0  1  0  0  0  0  0  0  0  0  0
   28.0969  -34.8869   -4.6245 C   0  0  0  0  0  0  0  0  0  0  0  0
   28.6270  -36.1819   -5.0929 C   0  0  0  0  0  0  0  0  0  0  0  0
   27.9816  -37.3746   -4.8512 C   0  0  0  0  0  0  0  0  0  0  0  0
   28.4937  -38.5937   -5.3091 C   0  0  0  0  0  0  0  0  0  0  0  0
   29.6715  -38.6445   -6.0236 C   0  0  0  0  0  0  0  0  0  0  0  0
   30.3165  -37.4496   -6.2644 C   0  0  0  0  0  0  0  0  0  0  0  0
   29.8136  -36.2470   -5.8142 C   0  0  0  0  0  0  0  0  0  0  0  0
   26.0124  -34.0019   -3.7514 C   0  0  0  0  0  0  0  0  0  0  0  0
   25.9270  -34.6545   -2.5374 O   0  0  0  0  0  0  0  0  0  0  0  0
   25.5429  -32.8479   -3.8476 O   0  0  0  0  0  0  0  0  0  0  0  0
  2  1  1  6
  2  4  1  0
  3  2  1  0
  4 10  1  0
  4  5  2  0
  7  6  1  6
  7  8  1  0
  9 11  1  0
  9  7  1  0
  9 10  1  6
 11 12  2  0
 13 14  1  0
 13 11  1  0
 14 15  1  1
 15 16  1  0
 16 21  2  0
 17 18  2  0
 17 16  1  0
 18 19  1  0
 19 20  2  0
 21 20  1  0
 22 14  1  0
 23 22  1  0
 24 22  2  0
M  END
$$$$
