AVF.pdb
     RDKit          3D

 24 24  0  0  1  0  0  0  0  0999 V2000
   28.5187  -17.6325  -15.3075 C   0  0  0  0  0  0  0  0  0  0  0  0
   27.9076  -18.9479  -14.9222 C   0  0  2  0  0  0  0  0  0  0  0  0
   27.2223  -19.5728  -16.0183 N   0  0  0  0  0  0  0  0  0  0  0  0
   27.0487  -18.8347  -13.7120 C   0  0  0  0  0  0  0  0  0  0  0  0
   26.5887  -17.7343  -13.3605 O   0  0  0  0  0  0  0  0  0  0  0  0
   25.0042  -22.3131  -12.4647 C   0  0  0  0  0  0  0  0  0  0  0  0
   24.6876  -20.8727  -12.2364 C   0  0  2  0  0  0  0  0  0  0  0  0
   24.0264  -20.2478  -13.4683 C   0  0  0  0  0  0  0  0  0  0  0  0
   25.8253  -20.0010  -11.8302 C   0  0  2  0  0  0  0  0  0  0  0  0
   26.7603  -19.9928  -12.9643 N   0  0  0  0  0  0  0  0  0  0  0  0
   26.5258  -20.4193  -10.5947 C   0  0  0  0  0  0  0  0  0  0  0  0
   27.4111  -21.3448  -10.6848 O   0  0  0  0  0  0  0  0  0  0  0  0
   26.2897  -19.8680   -9.3172 N   0  0  0  0  0  0  0  0  0  0  0  0
   26.9009  -20.4106   -8.1059 C   0  0  1  0  0  0  0  0  0  0  0  0
   27.5481  -19.2520   -7.4128 C   0  0  0  0  0  0  0  0  0  0  0  0
   28.2053  -19.5775   -6.1323 C   0  0  0  0  0  0  0  0  0  0  0  0
   29.4091  -20.2440   -6.0690 C   0  0  0  0  0  0  0  0  0  0  0  0
   30.0232  -20.5384   -4.8465 C   0  0  0  0  0  0  0  0  0  0  0  0
   29.4403  -20.1691   -3.6532 C   0  0  0  0  0  0  0  0  0  0  0  0
   28.2350  -19.5021   -3.7183 C   0  0  0  0  0  0  0  0  0  0  0  0
   27.6281  -19.2109   -4.9220 C   0  0  0  0  0  0  0  0  0  0  0  0
   25.8303  -20.9594   -7.2573 C   0  0  0  0  0  0  0  0  0  0  0  0
   26.1268  -21.8419   -6.2374 O   0  0  0  0  0  0  0  0  0  0  0  0
   24.6377  -20.6370   -7.4451 O   0  0  0  0  0  0  0  0  0  0  0  0
  2  1  1  6
  2  4  1  0
  3  2  1  0
  4 10  1  0
  4  5  2  0
  7  6  1  6
  7  8  1  0
  9 11  1  0
  9  7  1  0
  9 10  1  6
 11 12  2  0
 13 14  1  0
 13 11  1  0
 14 15  1  1
 15 16  1  0
 16 21  2  0
 17 18  2  0
 17 16  1  0
 18 19  1  0
 19 20  2  0
 21 20  1  0
 22 14  1  0
 23 22  1  0
 24 22  2  0
M  END
$$$$
