DKW.pdb
     RDKit          3D

 32 33  0  0  1  0  0  0  0  0999 V2000
    9.6498  -15.8036   17.9640 N   0  0  0  0  0  0  0  0  0  0  0  0
    9.3665  -14.7867   18.9277 C   0  0  1  0  0  0  0  0  0  0  0  0
    8.1585  -13.9813   18.4991 C   0  0  0  0  0  0  0  0  0  0  0  0
    8.3146  -13.4327   17.1379 C   0  0  0  0  0  0  0  0  0  0  0  0
    9.2906  -13.6146   16.3984 O   0  0  0  0  0  0  0  0  0  0  0  0
    9.0159  -15.3973   20.2649 C   0  0  0  0  0  0  0  0  0  0  0  0
    7.8587  -15.2093   20.6872 O   0  0  0  0  0  0  0  0  0  0  0  0
    7.2594  -12.6432   16.6611 O   0  0  0  0  0  0  0  0  0  0  0  0
    9.9672  -16.1482   20.9990 N   0  0  0  0  0  0  0  0  0  0  0  0
    9.7442  -16.9894   22.1196 C   0  0  1  0  0  0  0  0  0  0  0  0
   10.1453  -18.4317   21.8744 C   0  0  0  0  0  0  0  0  0  0  0  0
    9.3290  -19.0842   20.8264 C   0  0  0  0  0  0  0  0  0  0  0  0
    9.4198  -20.5699   20.8584 C   0  0  0  0  0  0  0  0  0  0  0  0
   10.3084  -21.2330   19.8727 C   0  0  0  0  0  0  0  0  0  0  0  0
   10.3589  -22.6567   20.0607 N   0  0  0  0  0  0  0  0  0  0  0  0
   10.1517  -16.4651   23.4381 C   0  0  0  0  0  0  0  0  0  0  0  0
   11.1824  -15.7748   23.5520 O   0  0  0  0  0  0  0  0  0  0  0  0
    9.4071  -16.7191   24.5927 N   0  0  0  0  0  0  0  0  0  0  0  0
    9.8152  -16.1865   25.9136 C   0  0  1  0  0  0  0  0  0  0  0  0
    8.6104  -15.8953   26.7300 C   0  0  0  0  0  0  0  0  0  0  0  0
    7.5291  -15.1713   26.0727 C   0  0  0  0  0  0  0  0  0  0  0  0
    6.4926  -15.7155   25.2994 C   0  0  0  0  0  0  0  0  0  0  0  0
    5.6991  -14.7521   24.8215 N   0  0  0  0  0  0  0  0  0  0  0  0
    6.1677  -13.5686   25.2498 C   0  0  0  0  0  0  0  0  0  0  0  0
    5.6755  -12.3000   25.0297 C   0  0  0  0  0  0  0  0  0  0  0  0
    6.3370  -11.2125   25.6085 C   0  0  0  0  0  0  0  0  0  0  0  0
    7.4585  -11.4272   26.3814 C   0  0  0  0  0  0  0  0  0  0  0  0
    7.9301  -12.7020   26.5855 C   0  0  0  0  0  0  0  0  0  0  0  0
    7.2887  -13.8087   26.0178 C   0  0  0  0  0  0  0  0  0  0  0  0
   10.7685  -17.0478   26.5745 C   0  0  0  0  0  0  0  0  0  0  0  0
   11.2947  -16.7347   27.6950 O   0  0  0  0  0  0  0  0  0  0  0  0
   11.1511  -18.2524   26.0295 O   0  0  0  0  0  0  0  0  0  0  0  0
  2  1  1  6
  2  3  1  0
  3  4  1  0
  4  8  1  0
  5  4  2  0
  6  2  1  0
  7  6  2  0
  9  6  1  0
 10  9  1  0
 10 11  1  6
 11 12  1  0
 12 13  1  0
 13 14  1  0
 14 15  1  0
 16 18  1  0
 16 10  1  0
 17 16  2  0
 19 18  1  0
 19 20  1  1
 21 20  1  0
 21 29  1  0
 22 23  1  0
 22 21  2  0
 23 24  1  0
 24 25  1  0
 24 29  2  0
 25 26  2  0
 26 27  1  0
 28 27  2  0
 29 28  1  0
 30 19  1  0
 30 32  1  0
 31 30  2  0
M  END
$$$$
