DKW.pdb
     RDKit          3D

 32 33  0  0  1  0  0  0  0  0999 V2000
    8.1350  -17.4813   19.8497 N   0  0  0  0  0  0  0  0  0  0  0  0
    8.9587  -16.4920   20.4708 C   0  0  1  0  0  0  0  0  0  0  0  0
    8.2322  -15.1651   20.5253 C   0  0  0  0  0  0  0  0  0  0  0  0
    8.0085  -14.6017   19.1796 C   0  0  0  0  0  0  0  0  0  0  0  0
    8.3515  -15.1305   18.1141 O   0  0  0  0  0  0  0  0  0  0  0  0
    9.2621  -16.8681   21.9027 C   0  0  0  0  0  0  0  0  0  0  0  0
    8.2905  -16.9994   22.6717 O   0  0  0  0  0  0  0  0  0  0  0  0
    7.3515  -13.3650   19.1248 O   0  0  0  0  0  0  0  0  0  0  0  0
   10.5952  -17.0604   22.3425 N   0  0  0  0  0  0  0  0  0  0  0  0
   11.0432  -17.5205   23.6078 C   0  0  1  0  0  0  0  0  0  0  0  0
   12.4329  -18.1270   23.5664 C   0  0  0  0  0  0  0  0  0  0  0  0
   12.5630  -19.1947   22.5497 C   0  0  0  0  0  0  0  0  0  0  0  0
   13.9330  -19.2870   21.9744 C   0  0  0  0  0  0  0  0  0  0  0  0
   14.1991  -20.3570   20.9817 C   0  0  0  0  0  0  0  0  0  0  0  0
   13.0838  -21.2513   20.8372 N   0  0  0  0  0  0  0  0  0  0  0  0
   10.8067  -16.6311   24.7621 C   0  0  0  0  0  0  0  0  0  0  0  0
   11.1635  -15.4382   24.7236 O   0  0  0  0  0  0  0  0  0  0  0  0
   10.1819  -17.0867   25.9258 N   0  0  0  0  0  0  0  0  0  0  0  0
   10.1888  -16.2899   27.1747 C   0  0  1  0  0  0  0  0  0  0  0  0
    8.7983  -16.1094   27.6612 C   0  0  0  0  0  0  0  0  0  0  0  0
    7.8816  -15.3923   26.7832 C   0  0  0  0  0  0  0  0  0  0  0  0
    6.9639  -15.9493   25.8798 C   0  0  0  0  0  0  0  0  0  0  0  0
    6.3124  -14.9921   25.2123 N   0  0  0  0  0  0  0  0  0  0  0  0
    6.7618  -13.8003   25.6383 C   0  0  0  0  0  0  0  0  0  0  0  0
    6.3789  -12.5325   25.2565 C   0  0  0  0  0  0  0  0  0  0  0  0
    6.9879  -11.4332   25.8696 C   0  0  0  0  0  0  0  0  0  0  0  0
    7.9506  -11.6359   26.8358 C   0  0  0  0  0  0  0  0  0  0  0  0
    8.3156  -12.9104   27.1987 C   0  0  0  0  0  0  0  0  0  0  0  0
    7.7236  -14.0288   26.6011 C   0  0  0  0  0  0  0  0  0  0  0  0
   11.0821  -16.8435   28.1662 C   0  0  0  0  0  0  0  0  0  0  0  0
   11.6861  -17.9536   27.9830 O   0  0  0  0  0  0  0  0  0  0  0  0
   11.3298  -16.1964   29.3554 O   0  0  0  0  0  0  0  0  0  0  0  0
  2  1  1  1
  2  3  1  0
  3  4  1  0
  4  8  1  0
  5  4  2  0
  6  2  1  0
  7  6  2  0
  9  6  1  0
 10  9  1  0
 10 11  1  6
 11 12  1  0
 12 13  1  0
 13 14  1  0
 14 15  1  0
 16 18  1  0
 16 10  1  0
 17 16  2  0
 19 18  1  0
 19 20  1  1
 21 20  1  0
 21 29  1  0
 22 23  1  0
 22 21  2  0
 23 24  1  0
 24 25  1  0
 24 29  2  0
 25 26  2  0
 26 27  1  0
 28 27  2  0
 29 28  1  0
 30 19  1  0
 30 32  1  0
 31 30  2  0
M  END
$$$$
