DKW.pdb
     RDKit          3D

 32 33  0  0  1  0  0  0  0  0999 V2000
    9.5516  -15.8982   17.3543 N   0  0  0  0  0  0  0  0  0  0  0  0
    9.4526  -14.7394   18.1852 C   0  0  1  0  0  0  0  0  0  0  0  0
    8.4705  -13.7521   17.5917 C   0  0  0  0  0  0  0  0  0  0  0  0
    8.6077  -13.6494   16.1258 C   0  0  0  0  0  0  0  0  0  0  0  0
    9.5966  -14.0041   15.4709 O   0  0  0  0  0  0  0  0  0  0  0  0
    8.9158  -15.1022   19.5505 C   0  0  0  0  0  0  0  0  0  0  0  0
    8.6843  -14.1628   20.3358 O   0  0  0  0  0  0  0  0  0  0  0  0
    7.5171  -13.1024   15.4362 O   0  0  0  0  0  0  0  0  0  0  0  0
    8.6894  -16.4531   19.9131 N   0  0  0  0  0  0  0  0  0  0  0  0
    8.3377  -16.9720   21.1859 C   0  0  1  0  0  0  0  0  0  0  0  0
    7.7867  -18.3840   21.1251 C   0  0  0  0  0  0  0  0  0  0  0  0
    6.6655  -18.5219   20.1689 C   0  0  0  0  0  0  0  0  0  0  0  0
    6.1022  -19.8993   20.1268 C   0  0  0  0  0  0  0  0  0  0  0  0
    4.9040  -20.1345   19.2841 C   0  0  0  0  0  0  0  0  0  0  0  0
    4.4610  -21.5002   19.3416 N   0  0  0  0  0  0  0  0  0  0  0  0
    9.2954  -16.7444   22.2861 C   0  0  0  0  0  0  0  0  0  0  0  0
   10.5199  -16.8677   22.0930 O   0  0  0  0  0  0  0  0  0  0  0  0
    8.8711  -16.3866   23.5683 N   0  0  0  0  0  0  0  0  0  0  0  0
    9.8363  -16.0495   24.6406 C   0  0  1  0  0  0  0  0  0  0  0  0
    9.4405  -14.7737   25.2876 C   0  0  0  0  0  0  0  0  0  0  0  0
    8.0275  -14.6077   25.6059 C   0  0  0  0  0  0  0  0  0  0  0  0
    7.0315  -15.5955   25.5800 C   0  0  0  0  0  0  0  0  0  0  0  0
    5.8400  -15.0785   25.8949 N   0  0  0  0  0  0  0  0  0  0  0  0
    5.9997  -13.7667   26.1348 C   0  0  0  0  0  0  0  0  0  0  0  0
    5.0654  -12.8247   26.5086 C   0  0  0  0  0  0  0  0  0  0  0  0
    5.4865  -11.5086   26.7228 C   0  0  0  0  0  0  0  0  0  0  0  0
    6.8157  -11.1808   26.5580 C   0  0  0  0  0  0  0  0  0  0  0  0
    7.7281  -12.1385   26.1841 C   0  0  0  0  0  0  0  0  0  0  0  0
    7.3346  -13.4630   25.9621 C   0  0  0  0  0  0  0  0  0  0  0  0
   10.0152  -17.1399   25.5714 C   0  0  0  0  0  0  0  0  0  0  0  0
   10.9346  -17.1246   26.4574 O   0  0  0  0  0  0  0  0  0  0  0  0
    9.1976  -18.2469   25.5513 O   0  0  0  0  0  0  0  0  0  0  0  0
  2  1  1  6
  2  3  1  0
  3  4  1  0
  4  8  1  0
  5  4  2  0
  6  2  1  0
  7  6  2  0
  9  6  1  0
 10  9  1  0
 10 11  1  6
 11 12  1  0
 12 13  1  0
 13 14  1  0
 14 15  1  0
 16 18  1  0
 16 10  1  0
 17 16  2  0
 19 18  1  0
 19 20  1  1
 21 20  1  0
 21 29  1  0
 22 23  1  0
 22 21  2  0
 23 24  1  0
 24 25  1  0
 24 29  2  0
 25 26  2  0
 26 27  1  0
 28 27  2  0
 29 28  1  0
 30 19  1  0
 30 32  1  0
 31 30  2  0
M  END
$$$$
