DKW.pdb
     RDKit          3D

 32 33  0  0  1  0  0  0  0  0999 V2000
   12.5626  -15.4892   18.0495 N   0  0  0  0  0  0  0  0  0  0  0  0
   13.2936  -15.3913   19.2739 C   0  0  1  0  0  0  0  0  0  0  0  0
   14.2672  -14.2338   19.2112 C   0  0  0  0  0  0  0  0  0  0  0  0
   15.2119  -14.3665   18.0851 C   0  0  0  0  0  0  0  0  0  0  0  0
   15.6985  -13.4271   17.4421 O   0  0  0  0  0  0  0  0  0  0  0  0
   12.3659  -15.1024   20.4313 C   0  0  0  0  0  0  0  0  0  0  0  0
   12.8829  -14.6571   21.4739 O   0  0  0  0  0  0  0  0  0  0  0  0
   15.5760  -15.6723   17.7297 O   0  0  0  0  0  0  0  0  0  0  0  0
   10.9715  -15.3311   20.3268 N   0  0  0  0  0  0  0  0  0  0  0  0
    9.9689  -15.0961   21.3029 C   0  0  1  0  0  0  0  0  0  0  0  0
    8.5777  -14.9658   20.7125 C   0  0  0  0  0  0  0  0  0  0  0  0
    8.4747  -13.8709   19.7221 C   0  0  0  0  0  0  0  0  0  0  0  0
    8.1540  -14.3542   18.3510 C   0  0  0  0  0  0  0  0  0  0  0  0
    8.0628  -13.3491   17.2636 C   0  0  0  0  0  0  0  0  0  0  0  0
    7.7217  -13.9457   16.0017 N   0  0  0  0  0  0  0  0  0  0  0  0
   10.0297  -15.9135   22.5307 C   0  0  0  0  0  0  0  0  0  0  0  0
   10.4890  -17.0709   22.4967 O   0  0  0  0  0  0  0  0  0  0  0  0
    9.5811  -15.4269   23.7612 N   0  0  0  0  0  0  0  0  0  0  0  0
    9.6931  -16.2289   25.0018 C   0  0  1  0  0  0  0  0  0  0  0  0
    9.3625  -15.3835   26.1761 C   0  0  0  0  0  0  0  0  0  0  0  0
    8.0402  -14.7697   26.1940 C   0  0  0  0  0  0  0  0  0  0  0  0
    6.8050  -15.4139   26.0277 C   0  0  0  0  0  0  0  0  0  0  0  0
    5.8002  -14.5335   26.0657 N   0  0  0  0  0  0  0  0  0  0  0  0
    6.3191  -13.3092   26.2543 C   0  0  0  0  0  0  0  0  0  0  0  0
    5.6777  -12.0952   26.3762 C   0  0  0  0  0  0  0  0  0  0  0  0
    6.4466  -10.9474   26.5917 C   0  0  0  0  0  0  0  0  0  0  0  0
    7.8190  -11.0502   26.6777 C   0  0  0  0  0  0  0  0  0  0  0  0
    8.4351  -12.2724   26.5521 C   0  0  0  0  0  0  0  0  0  0  0  0
    7.6907  -13.4373   26.3350 C   0  0  0  0  0  0  0  0  0  0  0  0
    8.9216  -17.4484   24.9305 C   0  0  0  0  0  0  0  0  0  0  0  0
    8.0208  -17.6241   24.0427 O   0  0  0  0  0  0  0  0  0  0  0  0
    9.1256  -18.4837   25.8143 O   0  0  0  0  0  0  0  0  0  0  0  0
  2  1  1  6
  2  3  1  0
  3  4  1  0
  4  8  1  0
  5  4  2  0
  6  2  1  0
  7  6  2  0
  9  6  1  0
 10  9  1  0
 10 11  1  6
 11 12  1  0
 12 13  1  0
 13 14  1  0
 14 15  1  0
 16 18  1  0
 16 10  1  0
 17 16  2  0
 19 18  1  0
 19 20  1  1
 21 20  1  0
 21 29  1  0
 22 23  1  0
 22 21  2  0
 23 24  1  0
 24 25  1  0
 24 29  2  0
 25 26  2  0
 26 27  1  0
 28 27  2  0
 29 28  1  0
 30 19  1  0
 30 32  1  0
 31 30  2  0
M  END
$$$$
