DKW.pdb
     RDKit          3D

 32 33  0  0  1  0  0  0  0  0999 V2000
    9.8533  -18.8131   20.1090 N   0  0  0  0  0  0  0  0  0  0  0  0
   11.1388  -18.1944   20.1969 C   0  0  1  0  0  0  0  0  0  0  0  0
   11.7054  -17.9657   18.8119 C   0  0  0  0  0  0  0  0  0  0  0  0
   12.1034  -19.2296   18.1619 C   0  0  0  0  0  0  0  0  0  0  0  0
   12.0561  -20.3511   18.6841 O   0  0  0  0  0  0  0  0  0  0  0  0
   11.0357  -16.8320   20.8427 C   0  0  0  0  0  0  0  0  0  0  0  0
   12.0755  -16.1469   20.8884 O   0  0  0  0  0  0  0  0  0  0  0  0
   12.5706  -19.1308   16.8443 O   0  0  0  0  0  0  0  0  0  0  0  0
    9.8073  -16.3629   21.3705 N   0  0  0  0  0  0  0  0  0  0  0  0
    9.5484  -15.1324   22.0278 C   0  0  1  0  0  0  0  0  0  0  0  0
    8.4897  -14.2952   21.3356 C   0  0  0  0  0  0  0  0  0  0  0  0
    8.7150  -14.1759   19.8777 C   0  0  0  0  0  0  0  0  0  0  0  0
    7.7197  -13.2966   19.2048 C   0  0  0  0  0  0  0  0  0  0  0  0
    7.8545  -13.0869   17.7423 C   0  0  0  0  0  0  0  0  0  0  0  0
    6.7897  -12.2822   17.2100 N   0  0  0  0  0  0  0  0  0  0  0  0
    9.4175  -15.1768   23.4976 C   0  0  0  0  0  0  0  0  0  0  0  0
    9.1462  -14.1438   24.1388 O   0  0  0  0  0  0  0  0  0  0  0  0
    9.5899  -16.3627   24.2159 N   0  0  0  0  0  0  0  0  0  0  0  0
    9.9824  -16.3560   25.6445 C   0  0  1  0  0  0  0  0  0  0  0  0
    8.7807  -16.5448   26.4948 C   0  0  0  0  0  0  0  0  0  0  0  0
    7.6601  -15.6421   26.2605 C   0  0  0  0  0  0  0  0  0  0  0  0
    6.4170  -15.9639   25.6950 C   0  0  0  0  0  0  0  0  0  0  0  0
    5.6428  -14.8787   25.5986 N   0  0  0  0  0  0  0  0  0  0  0  0
    6.3257  -13.8290   26.0840 C   0  0  0  0  0  0  0  0  0  0  0  0
    5.9366  -12.5125   26.2076 C   0  0  0  0  0  0  0  0  0  0  0  0
    6.8308  -11.5975   26.7719 C   0  0  0  0  0  0  0  0  0  0  0  0
    8.0732  -12.0251   27.1904 C   0  0  0  0  0  0  0  0  0  0  0  0
    8.4378  -13.3435   27.0556 C   0  0  0  0  0  0  0  0  0  0  0  0
    7.5636  -14.2806   26.4937 C   0  0  0  0  0  0  0  0  0  0  0  0
   11.0412  -17.2997   25.9203 C   0  0  0  0  0  0  0  0  0  0  0  0
   11.5378  -18.0402   25.0063 O   0  0  0  0  0  0  0  0  0  0  0  0
   11.5703  -17.4412   27.1830 O   0  0  0  0  0  0  0  0  0  0  0  0
  2  1  1  6
  2  3  1  0
  3  4  1  0
  4  8  1  0
  5  4  2  0
  6  2  1  0
  7  6  2  0
  9  6  1  0
 10  9  1  0
 10 11  1  6
 11 12  1  0
 12 13  1  0
 13 14  1  0
 14 15  1  0
 16 18  1  0
 16 10  1  0
 17 16  2  0
 19 18  1  0
 19 20  1  1
 21 20  1  0
 21 29  1  0
 22 23  1  0
 22 21  2  0
 23 24  1  0
 24 25  1  0
 24 29  2  0
 25 26  2  0
 26 27  1  0
 28 27  2  0
 29 28  1  0
 30 19  1  0
 30 32  1  0
 31 30  2  0
M  END
$$$$
