DKW.pdb
     RDKit          3D

 32 33  0  0  1  0  0  0  0  0999 V2000
   10.1332  -18.6998   17.4941 N   0  0  0  0  0  0  0  0  0  0  0  0
    9.1170  -17.9420   18.1545 C   0  0  1  0  0  0  0  0  0  0  0  0
    8.4413  -18.7851   19.2148 C   0  0  0  0  0  0  0  0  0  0  0  0
    7.7068  -19.9240   18.6303 C   0  0  0  0  0  0  0  0  0  0  0  0
    7.7002  -20.2347   17.4320 O   0  0  0  0  0  0  0  0  0  0  0  0
    9.7148  -16.7553   18.8742 C   0  0  0  0  0  0  0  0  0  0  0  0
   10.7386  -16.9621   19.5538 O   0  0  0  0  0  0  0  0  0  0  0  0
    6.9610  -20.7064   19.5223 O   0  0  0  0  0  0  0  0  0  0  0  0
    9.1303  -15.4684   18.7752 N   0  0  0  0  0  0  0  0  0  0  0  0
    9.5080  -14.2796   19.4514 C   0  0  1  0  0  0  0  0  0  0  0  0
    8.9162  -13.0264   18.8346 C   0  0  0  0  0  0  0  0  0  0  0  0
    7.7961  -13.3151   17.9113 C   0  0  0  0  0  0  0  0  0  0  0  0
    8.2489  -13.6465   16.5323 C   0  0  0  0  0  0  0  0  0  0  0  0
    7.2156  -13.7914   15.4777 C   0  0  0  0  0  0  0  0  0  0  0  0
    7.7932  -13.9679   14.1739 N   0  0  0  0  0  0  0  0  0  0  0  0
    9.4586  -14.3077   20.9266 C   0  0  0  0  0  0  0  0  0  0  0  0
    9.8978  -13.3501   21.5915 O   0  0  0  0  0  0  0  0  0  0  0  0
    8.9244  -15.3941   21.6241 N   0  0  0  0  0  0  0  0  0  0  0  0
    8.8449  -15.4049   23.1034 C   0  0  1  0  0  0  0  0  0  0  0  0
    7.4231  -15.3823   23.5286 C   0  0  0  0  0  0  0  0  0  0  0  0
    7.1554  -15.0052   24.9112 C   0  0  0  0  0  0  0  0  0  0  0  0
    6.7203  -15.8433   25.9489 C   0  0  0  0  0  0  0  0  0  0  0  0
    6.5429  -15.1504   27.0778 N   0  0  0  0  0  0  0  0  0  0  0  0
    6.8465  -13.8647   26.8355 C   0  0  0  0  0  0  0  0  0  0  0  0
    6.8320  -12.7849   27.6921 C   0  0  0  0  0  0  0  0  0  0  0  0
    7.2161  -11.5329   27.2020 C   0  0  0  0  0  0  0  0  0  0  0  0
    7.5988  -11.4030   25.8836 C   0  0  0  0  0  0  0  0  0  0  0  0
    7.6042  -12.4951   25.0491 C   0  0  0  0  0  0  0  0  0  0  0  0
    7.2238  -13.7597   25.5124 C   0  0  0  0  0  0  0  0  0  0  0  0
    9.6046  -16.4907   23.6793 C   0  0  0  0  0  0  0  0  0  0  0  0
    9.7108  -17.6215   23.0959 O   0  0  0  0  0  0  0  0  0  0  0  0
   10.2564  -16.3554   24.8840 O   0  0  0  0  0  0  0  0  0  0  0  0
  2  1  1  1
  2  3  1  0
  3  4  1  0
  4  8  1  0
  5  4  2  0
  6  2  1  0
  7  6  2  0
  9  6  1  0
 10  9  1  0
 10 11  1  6
 11 12  1  0
 12 13  1  0
 13 14  1  0
 14 15  1  0
 16 18  1  0
 16 10  1  0
 17 16  2  0
 19 18  1  0
 19 20  1  6
 21 20  1  0
 21 29  1  0
 22 23  1  0
 22 21  2  0
 23 24  1  0
 24 25  1  0
 24 29  2  0
 25 26  2  0
 26 27  1  0
 28 27  2  0
 29 28  1  0
 30 19  1  0
 30 32  1  0
 31 30  2  0
M  END
$$$$
