ANH.pdb
     RDKit          3D

 24 24  0  0  1  0  0  0  0  0999 V2000
    4.9081  -17.1825   20.3502 C   0  0  0  0  0  0  0  0  0  0  0  0
    6.0904  -18.0693   20.7478 C   0  0  2  0  0  0  0  0  0  0  0  0
    6.0698  -18.3252   22.1686 N   0  0  0  0  0  0  0  0  0  0  0  0
    7.3127  -17.3359   20.3308 C   0  0  0  0  0  0  0  0  0  0  0  0
    7.7046  -17.4295   19.1418 O   0  0  0  0  0  0  0  0  0  0  0  0
   10.6111  -13.4790   19.6930 N   0  0  0  0  0  0  0  0  0  0  0  0
    9.2289  -13.4554   19.3965 C   0  0  0  0  0  0  0  0  0  0  0  0
    8.7910  -12.5485   18.6608 O   0  0  0  0  0  0  0  0  0  0  0  0
    8.3447  -14.4779   19.9474 C   0  0  0  0  0  0  0  0  0  0  0  0
    9.0242  -15.5406   20.7661 C   0  0  2  0  0  0  0  0  0  0  0  0
    8.0821  -16.5193   21.2076 N   0  0  0  0  0  0  0  0  0  0  0  0
    9.7824  -14.9051   21.8752 C   0  0  0  0  0  0  0  0  0  0  0  0
    9.8476  -13.6584   21.8870 O   0  0  0  0  0  0  0  0  0  0  0  0
   10.4194  -15.6392   22.8959 N   0  0  0  0  0  0  0  0  0  0  0  0
    9.8884  -15.7359   24.2603 C   0  0  1  0  0  0  0  0  0  0  0  0
    8.3869  -15.8822   24.2421 C   0  0  0  0  0  0  0  0  0  0  0  0
    7.7728  -14.6338   24.7593 C   0  0  0  0  0  0  0  0  0  0  0  0
    8.4551  -13.4945   25.1366 C   0  0  0  0  0  0  0  0  0  0  0  0
    7.5781  -12.5683   25.5526 N   0  0  0  0  0  0  0  0  0  0  0  0
    6.3636  -13.1256   25.4353 C   0  0  0  0  0  0  0  0  0  0  0  0
    6.4694  -14.3765   24.9557 N   0  0  0  0  0  0  0  0  0  0  0  0
   10.5839  -16.8524   24.9267 C   0  0  0  0  0  0  0  0  0  0  0  0
   10.9226  -16.8028   26.2930 O   0  0  0  0  0  0  0  0  0  0  0  0
   10.9254  -17.9169   24.3475 O   0  0  0  0  0  0  0  0  0  0  0  0
  2  1  1  1
  3  2  1  0
  4  2  1  0
  5  4  2  0
  6  7  1  0
  7  8  2  0
  9  7  1  0
 10  9  1  1
 10 11  1  0
 10 12  1  0
 11  4  1  0
 12 14  1  0
 13 12  2  0
 14 15  1  0
 15 16  1  6
 15 22  1  0
 17 18  2  0
 17 16  1  0
 19 18  1  0
 20 21  2  0
 20 19  1  0
 21 17  1  0
 22 23  1  0
 24 22  2  0
M  END
$$$$
