ANH.pdb
     RDKit          3D

 24 24  0  0  1  0  0  0  0  0999 V2000
   10.8214  -20.8711   18.1514 C   0  0  0  0  0  0  0  0  0  0  0  0
   10.1368  -19.7391   18.9210 C   0  0  2  0  0  0  0  0  0  0  0  0
    9.1165  -19.1239   18.1056 N   0  0  0  0  0  0  0  0  0  0  0  0
   11.2118  -18.7816   19.2859 C   0  0  0  0  0  0  0  0  0  0  0  0
   12.1087  -19.1466   20.0850 O   0  0  0  0  0  0  0  0  0  0  0  0
   14.9240  -15.1197   19.0147 N   0  0  0  0  0  0  0  0  0  0  0  0
   13.7432  -14.6592   18.3880 C   0  0  0  0  0  0  0  0  0  0  0  0
   13.6497  -13.4478   18.1065 O   0  0  0  0  0  0  0  0  0  0  0  0
   12.6644  -15.5939   18.0828 C   0  0  0  0  0  0  0  0  0  0  0  0
   12.2493  -16.4879   19.2184 C   0  0  2  0  0  0  0  0  0  0  0  0
   11.2925  -17.4532   18.7792 N   0  0  0  0  0  0  0  0  0  0  0  0
   11.7746  -15.6583   20.3565 C   0  0  0  0  0  0  0  0  0  0  0  0
   12.5590  -14.7982   20.8078 O   0  0  0  0  0  0  0  0  0  0  0  0
   10.4980  -15.8004   20.9367 N   0  0  0  0  0  0  0  0  0  0  0  0
    9.9867  -14.8960   21.9729 C   0  0  1  0  0  0  0  0  0  0  0  0
    8.5909  -14.4317   21.6380 C   0  0  0  0  0  0  0  0  0  0  0  0
    8.5437  -14.0318   20.2094 C   0  0  0  0  0  0  0  0  0  0  0  0
    8.7746  -12.7625   19.7181 C   0  0  0  0  0  0  0  0  0  0  0  0
    8.6466  -12.7725   18.3827 N   0  0  0  0  0  0  0  0  0  0  0  0
    8.3393  -14.0343   18.0470 C   0  0  0  0  0  0  0  0  0  0  0  0
    8.2743  -14.8059   19.1455 N   0  0  0  0  0  0  0  0  0  0  0  0
   10.0815  -15.6041   23.2628 C   0  0  0  0  0  0  0  0  0  0  0  0
    9.7857  -14.9633   24.4818 O   0  0  0  0  0  0  0  0  0  0  0  0
   10.4255  -16.8093   23.3823 O   0  0  0  0  0  0  0  0  0  0  0  0
  2  1  1  6
  3  2  1  0
  4  2  1  0
  5  4  2  0
  6  7  1  0
  7  8  2  0
  9  7  1  0
 10  9  1  6
 10 11  1  0
 10 12  1  0
 11  4  1  0
 12 14  1  0
 13 12  2  0
 14 15  1  0
 15 16  1  6
 15 22  1  0
 17 18  2  0
 17 16  1  0
 19 18  1  0
 20 21  2  0
 20 19  1  0
 21 17  1  0
 22 23  1  0
 24 22  2  0
M  END
$$$$
