ANH.pdb
     RDKit          3D

 24 24  0  0  1  0  0  0  0  0999 V2000
    7.6461  -20.1054   20.9042 C   0  0  0  0  0  0  0  0  0  0  0  0
    7.8956  -19.0775   19.7982 C   0  0  2  0  0  0  0  0  0  0  0  0
    8.8194  -19.6052   18.8221 N   0  0  0  0  0  0  0  0  0  0  0  0
    8.4294  -17.8677   20.4744 C   0  0  0  0  0  0  0  0  0  0  0  0
    9.6353  -17.8456   20.8233 O   0  0  0  0  0  0  0  0  0  0  0  0
    7.0369  -11.9337   21.6022 N   0  0  0  0  0  0  0  0  0  0  0  0
    7.8913  -13.0545   21.4896 C   0  0  0  0  0  0  0  0  0  0  0  0
    9.0881  -12.9288   21.8176 O   0  0  0  0  0  0  0  0  0  0  0  0
    7.3695  -14.3260   20.9982 C   0  0  0  0  0  0  0  0  0  0  0  0
    8.1576  -15.5418   21.4009 C   0  0  2  0  0  0  0  0  0  0  0  0
    7.6485  -16.7112   20.7576 N   0  0  0  0  0  0  0  0  0  0  0  0
    8.1877  -15.6464   22.8831 C   0  0  0  0  0  0  0  0  0  0  0  0
    7.2012  -16.1678   23.4431 O   0  0  0  0  0  0  0  0  0  0  0  0
    9.2652  -15.1891   23.6682 N   0  0  0  0  0  0  0  0  0  0  0  0
    9.2473  -15.2050   25.1354 C   0  0  1  0  0  0  0  0  0  0  0  0
    7.8326  -15.1346   25.6549 C   0  0  0  0  0  0  0  0  0  0  0  0
    7.3940  -13.7167   25.6736 C   0  0  0  0  0  0  0  0  0  0  0  0
    8.2025  -12.6185   25.4586 C   0  0  0  0  0  0  0  0  0  0  0  0
    7.4673  -11.5002   25.5513 N   0  0  0  0  0  0  0  0  0  0  0  0
    6.2151  -11.8985   25.8210 C   0  0  0  0  0  0  0  0  0  0  0  0
    6.1589  -13.2391   25.8973 N   0  0  0  0  0  0  0  0  0  0  0  0
    9.9794  -16.4079   25.5728 C   0  0  0  0  0  0  0  0  0  0  0  0
   10.5776  -17.2866   24.6486 O   0  0  0  0  0  0  0  0  0  0  0  0
   10.1286  -16.7438   26.7770 O   0  0  0  0  0  0  0  0  0  0  0  0
  2  1  1  1
  3  2  1  0
  4  2  1  0
  5  4  2  0
  6  7  1  0
  7  8  2  0
  9  7  1  0
 10  9  1  1
 10 11  1  0
 10 12  1  0
 11  4  1  0
 12 14  1  0
 13 12  2  0
 14 15  1  0
 15 16  1  6
 15 22  1  0
 17 18  2  0
 17 16  1  0
 19 18  1  0
 20 21  2  0
 20 19  1  0
 21 17  1  0
 22 23  1  0
 24 22  2  0
M  END
$$$$
