ANH.pdb
     RDKit          3D

 24 24  0  0  1  0  0  0  0  0999 V2000
   10.9124  -17.3791   17.9020 C   0  0  0  0  0  0  0  0  0  0  0  0
   10.4672  -17.6912   19.3327 C   0  0  2  0  0  0  0  0  0  0  0  0
    9.3148  -18.5608   19.3209 N   0  0  0  0  0  0  0  0  0  0  0  0
   10.1707  -16.3808   19.9658 C   0  0  0  0  0  0  0  0  0  0  0  0
   11.1169  -15.5918   20.2071 O   0  0  0  0  0  0  0  0  0  0  0  0
    7.7317  -12.3613   18.5832 N   0  0  0  0  0  0  0  0  0  0  0  0
    7.4579  -13.7025   18.9369 C   0  0  0  0  0  0  0  0  0  0  0  0
    7.3212  -14.5445   18.0269 O   0  0  0  0  0  0  0  0  0  0  0  0
    7.3405  -14.0794   20.3422 C   0  0  0  0  0  0  0  0  0  0  0  0
    8.5698  -14.7015   20.9448 C   0  0  2  0  0  0  0  0  0  0  0  0
    8.8599  -15.9543   20.3230 N   0  0  0  0  0  0  0  0  0  0  0  0
    8.4080  -14.7950   22.4192 C   0  0  0  0  0  0  0  0  0  0  0  0
    7.3092  -14.4491   22.9004 O   0  0  0  0  0  0  0  0  0  0  0  0
    9.4263  -15.2501   23.2810 N   0  0  0  0  0  0  0  0  0  0  0  0
    9.1549  -16.0125   24.5050 C   0  0  1  0  0  0  0  0  0  0  0  0
    8.2706  -17.1993   24.2122 C   0  0  0  0  0  0  0  0  0  0  0  0
    8.0120  -17.9335   25.4760 C   0  0  0  0  0  0  0  0  0  0  0  0
    7.8619  -17.3639   26.7246 C   0  0  0  0  0  0  0  0  0  0  0  0
    7.6412  -18.3290   27.6300 N   0  0  0  0  0  0  0  0  0  0  0  0
    7.6540  -19.4864   26.9519 C   0  0  0  0  0  0  0  0  0  0  0  0
    7.8778  -19.2589   25.6464 N   0  0  0  0  0  0  0  0  0  0  0  0
   10.4558  -16.3753   25.0967 C   0  0  0  0  0  0  0  0  0  0  0  0
   11.6470  -16.3338   24.3463 O   0  0  0  0  0  0  0  0  0  0  0  0
   10.6094  -16.7433   26.2910 O   0  0  0  0  0  0  0  0  0  0  0  0
  2  1  1  6
  3  2  1  0
  4  2  1  0
  5  4  2  0
  6  7  1  0
  7  8  2  0
  9  7  1  0
 10  9  1  6
 10 11  1  0
 10 12  1  0
 11  4  1  0
 12 14  1  0
 13 12  2  0
 14 15  1  0
 15 16  1  6
 15 22  1  0
 17 18  2  0
 17 16  1  0
 19 18  1  0
 20 21  2  0
 20 19  1  0
 21 17  1  0
 22 23  1  0
 24 22  2  0
M  END
$$$$
