ANH.pdb
     RDKit          3D

 24 24  0  0  1  0  0  0  0  0999 V2000
    7.5926  -12.6578   19.5095 C   0  0  0  0  0  0  0  0  0  0  0  0
    7.9845  -14.0293   20.0644 C   0  0  2  0  0  0  0  0  0  0  0  0
    6.9161  -14.9780   19.8573 N   0  0  0  0  0  0  0  0  0  0  0  0
    8.2744  -13.8216   21.5061 C   0  0  0  0  0  0  0  0  0  0  0  0
    9.3135  -13.1992   21.8361 O   0  0  0  0  0  0  0  0  0  0  0  0
    5.7218  -13.1688   27.0088 N   0  0  0  0  0  0  0  0  0  0  0  0
    6.8059  -13.3919   26.1291 C   0  0  0  0  0  0  0  0  0  0  0  0
    7.9658  -13.3380   26.5846 O   0  0  0  0  0  0  0  0  0  0  0  0
    6.5576  -13.6785   24.7196 C   0  0  0  0  0  0  0  0  0  0  0  0
    7.7495  -14.1685   23.9446 C   0  0  2  0  0  0  0  0  0  0  0  0
    7.4354  -14.2911   22.5565 N   0  0  0  0  0  0  0  0  0  0  0  0
    8.2538  -15.4279   24.5516 C   0  0  0  0  0  0  0  0  0  0  0  0
    7.4244  -16.3365   24.7638 O   0  0  0  0  0  0  0  0  0  0  0  0
    9.6060  -15.6345   24.8913 N   0  0  0  0  0  0  0  0  0  0  0  0
   10.0948  -16.8751   25.5037 C   0  0  1  0  0  0  0  0  0  0  0  0
   11.4389  -17.2596   24.9364 C   0  0  0  0  0  0  0  0  0  0  0  0
   11.2918  -17.5300   23.4844 C   0  0  0  0  0  0  0  0  0  0  0  0
   10.3137  -18.3124   22.9038 C   0  0  0  0  0  0  0  0  0  0  0  0
   10.4908  -18.3315   21.5741 N   0  0  0  0  0  0  0  0  0  0  0  0
   11.5674  -17.5694   21.3303 C   0  0  0  0  0  0  0  0  0  0  0  0
   12.0608  -17.0788   22.4801 N   0  0  0  0  0  0  0  0  0  0  0  0
   10.1048  -16.6724   26.9642 C   0  0  0  0  0  0  0  0  0  0  0  0
    9.6616  -15.4690   27.5469 O   0  0  0  0  0  0  0  0  0  0  0  0
   10.4995  -17.5339   27.7932 O   0  0  0  0  0  0  0  0  0  0  0  0
  2  1  1  1
  3  2  1  0
  4  2  1  0
  5  4  2  0
  6  7  1  0
  7  8  2  0
  9  7  1  0
 10  9  1  1
 10 11  1  0
 10 12  1  0
 11  4  1  0
 12 14  1  0
 13 12  2  0
 14 15  1  0
 15 16  1  6
 15 22  1  0
 17 18  2  0
 17 16  1  0
 19 18  1  0
 20 21  2  0
 20 19  1  0
 21 17  1  0
 22 23  1  0
 24 22  2  0
M  END
$$$$
