QTT.pdb
     RDKit          3D

 24 23  0  0  1  0  0  0  0  0999 V2000
    7.2642  -19.7308   15.7353 N   0  0  0  0  0  0  0  0  0  0  0  0
    8.5881  -19.6455   15.2550 C   0  0  0  0  0  0  0  0  0  0  0  0
    9.0519  -20.5726   14.5666 O   0  0  0  0  0  0  0  0  0  0  0  0
    9.4093  -18.4674   15.5688 C   0  0  0  0  0  0  0  0  0  0  0  0
    8.6222  -17.5425   16.4592 C   0  0  0  0  0  0  0  0  0  0  0  0
    9.0229  -16.0911   16.2484 C   0  0  2  0  0  0  0  0  0  0  0  0
   10.0880  -16.0849   15.2635 N   0  0  0  0  0  0  0  0  0  0  0  0
    9.5355  -15.5898   17.5662 C   0  0  0  0  0  0  0  0  0  0  0  0
   10.7689  -15.4414   17.7824 O   0  0  0  0  0  0  0  0  0  0  0  0
    7.7622  -12.7399   19.6325 C   0  0  0  0  0  0  0  0  0  0  0  0
    8.0447  -13.9183   20.5047 C   0  0  1  0  0  0  0  0  0  0  0  0
    6.8745  -14.6275   20.7295 O   0  0  0  0  0  0  0  0  0  0  0  0
    9.1357  -14.8130   19.9066 C   0  0  2  0  0  0  0  0  0  0  0  0
    8.6585  -15.2585   18.6326 N   0  0  0  0  0  0  0  0  0  0  0  0
    9.4641  -15.9280   20.8251 C   0  0  0  0  0  0  0  0  0  0  0  0
    9.3669  -17.1304   20.4710 O   0  0  0  0  0  0  0  0  0  0  0  0
   12.5906  -18.1080   23.2540 C   0  0  0  0  0  0  0  0  0  0  0  0
   11.8572  -17.2067   22.2828 C   0  0  1  0  0  0  0  0  0  0  0  0
   11.5652  -17.8268   21.0881 O   0  0  0  0  0  0  0  0  0  0  0  0
   10.5750  -16.7498   22.9414 C   0  0  2  0  0  0  0  0  0  0  0  0
    9.9123  -15.7145   22.1722 N   0  0  0  0  0  0  0  0  0  0  0  0
   10.8235  -16.2982   24.3442 C   0  0  0  0  0  0  0  0  0  0  0  0
   10.5393  -17.0996   25.4400 O   0  0  0  0  0  0  0  0  0  0  0  0
   11.3044  -15.1598   24.5569 O   0  0  0  0  0  0  0  0  0  0  0  0
  2  1  1  0
  2  3  2  0
  4  2  1  0
  5  4  1  0
  6  8  1  0
  6  5  1  0
  6  7  1  6
  8 14  1  0
  9  8  2  0
 11 10  1  6
 11 12  1  0
 13 11  1  0
 13 14  1  6
 15 21  1  0
 15 13  1  0
 16 15  2  0
 18 20  1  0
 18 17  1  1
 19 18  1  0
 20 21  1  6
 20 22  1  0
 22 23  1  0
 24 22  2  0
M  END
$$$$
