QTT.pdb
     RDKit          3D

 24 23  0  0  1  0  0  0  0  0999 V2000
   13.8374  -14.6598   19.6919 N   0  0  0  0  0  0  0  0  0  0  0  0
   13.6809  -14.1324   18.3926 C   0  0  0  0  0  0  0  0  0  0  0  0
   14.6754  -13.7009   17.7818 O   0  0  0  0  0  0  0  0  0  0  0  0
   12.3498  -14.0952   17.7699 C   0  0  0  0  0  0  0  0  0  0  0  0
   11.4400  -15.0497   18.4972 C   0  0  0  0  0  0  0  0  0  0  0  0
   10.0782  -15.1414   17.8274 C   0  0  2  0  0  0  0  0  0  0  0  0
    9.8772  -13.8992   17.1054 N   0  0  0  0  0  0  0  0  0  0  0  0
    9.0651  -15.2693   18.9264 C   0  0  0  0  0  0  0  0  0  0  0  0
    8.4234  -14.2712   19.3532 O   0  0  0  0  0  0  0  0  0  0  0  0
    7.7485  -19.1202   20.2929 C   0  0  0  0  0  0  0  0  0  0  0  0
    6.9668  -17.8487   20.3265 C   0  0  1  0  0  0  0  0  0  0  0  0
    5.9336  -17.9567   21.2451 O   0  0  0  0  0  0  0  0  0  0  0  0
    7.8636  -16.6440   20.6315 C   0  0  2  0  0  0  0  0  0  0  0  0
    8.7798  -16.5182   19.5388 N   0  0  0  0  0  0  0  0  0  0  0  0
    8.5399  -16.8091   21.9392 C   0  0  0  0  0  0  0  0  0  0  0  0
    9.7920  -16.8656   22.0366 O   0  0  0  0  0  0  0  0  0  0  0  0
    8.8506  -15.9901   26.6612 C   0  0  0  0  0  0  0  0  0  0  0  0
    8.3322  -15.7302   25.2622 C   0  0  1  0  0  0  0  0  0  0  0  0
    8.9906  -14.7007   24.6267 O   0  0  0  0  0  0  0  0  0  0  0  0
    8.4881  -17.0016   24.4588 C   0  0  2  0  0  0  0  0  0  0  0  0
    7.8181  -16.9150   23.1757 N   0  0  0  0  0  0  0  0  0  0  0  0
    8.0109  -18.1876   25.2328 C   0  0  0  0  0  0  0  0  0  0  0  0
    8.7405  -18.7285   26.2811 O   0  0  0  0  0  0  0  0  0  0  0  0
    6.9165  -18.7248   24.9390 O   0  0  0  0  0  0  0  0  0  0  0  0
  2  1  1  0
  2  3  2  0
  4  2  1  0
  5  4  1  0
  6  8  1  0
  6  5  1  0
  6  7  1  1
  8 14  1  0
  9  8  2  0
 11 10  1  1
 11 12  1  0
 13 11  1  0
 13 14  1  6
 15 21  1  0
 15 13  1  0
 16 15  2  0
 18 20  1  0
 18 17  1  1
 19 18  1  0
 20 21  1  6
 20 22  1  0
 22 23  1  0
 24 22  2  0
M  END
$$$$
