QTT.pdb
     RDKit          3D

 24 23  0  0  1  0  0  0  0  0999 V2000
   13.2370  -19.7477   17.0456 N   0  0  0  0  0  0  0  0  0  0  0  0
   12.4884  -19.8934   15.8586 C   0  0  0  0  0  0  0  0  0  0  0  0
   13.0806  -20.0227   14.7718 O   0  0  0  0  0  0  0  0  0  0  0  0
   11.0193  -19.8919   15.9113 C   0  0  0  0  0  0  0  0  0  0  0  0
   10.5452  -21.2178   16.4447 C   0  0  0  0  0  0  0  0  0  0  0  0
    9.0387  -21.2294   16.6501 C   0  0  2  0  0  0  0  0  0  0  0  0
    8.5091  -20.0662   15.9638 N   0  0  0  0  0  0  0  0  0  0  0  0
    8.8043  -21.1085   18.1270 C   0  0  0  0  0  0  0  0  0  0  0  0
    8.4782  -20.0117   18.6568 O   0  0  0  0  0  0  0  0  0  0  0  0
    7.6836  -23.5455   22.2419 C   0  0  0  0  0  0  0  0  0  0  0  0
    7.9903  -23.4864   20.7819 C   0  0  1  0  0  0  0  0  0  0  0  0
    6.8397  -23.7374   20.0497 O   0  0  0  0  0  0  0  0  0  0  0  0
    8.6204  -22.1447   20.3926 C   0  0  2  0  0  0  0  0  0  0  0  0
    8.9379  -22.2212   18.9989 N   0  0  0  0  0  0  0  0  0  0  0  0
    9.7990  -21.8510   21.2407 C   0  0  0  0  0  0  0  0  0  0  0  0
   10.9401  -22.3050   20.9717 O   0  0  0  0  0  0  0  0  0  0  0  0
   11.1484  -18.4719   22.2391 C   0  0  0  0  0  0  0  0  0  0  0  0
   10.9526  -19.2298   23.5356 C   0  0  1  0  0  0  0  0  0  0  0  0
    9.8115  -18.8563   24.2105 O   0  0  0  0  0  0  0  0  0  0  0  0
   10.8884  -20.7056   23.2129 C   0  0  2  0  0  0  0  0  0  0  0  0
    9.7205  -21.0343   22.4188 N   0  0  0  0  0  0  0  0  0  0  0  0
   10.9381  -21.5301   24.4584 C   0  0  0  0  0  0  0  0  0  0  0  0
   12.1160  -21.7381   25.1607 O   0  0  0  0  0  0  0  0  0  0  0  0
    9.8898  -22.0592   24.8981 O   0  0  0  0  0  0  0  0  0  0  0  0
  2  1  1  0
  2  3  2  0
  4  2  1  0
  5  4  1  0
  6  8  1  0
  6  5  1  0
  6  7  1  6
  8 14  1  0
  9  8  2  0
 11 10  1  1
 11 12  1  0
 13 11  1  0
 13 14  1  6
 15 21  1  0
 15 13  1  0
 16 15  2  0
 18 20  1  0
 18 17  1  6
 19 18  1  0
 20 21  1  1
 20 22  1  0
 22 23  1  0
 24 22  2  0
M  END
$$$$
