QTT.pdb
     RDKit          3D

 24 23  0  0  1  0  0  0  0  0999 V2000
    9.1680  -20.4426   16.1373 N   0  0  0  0  0  0  0  0  0  0  0  0
    8.8546  -19.8400   14.9006 C   0  0  0  0  0  0  0  0  0  0  0  0
    8.7737  -20.5444   13.8780 O   0  0  0  0  0  0  0  0  0  0  0  0
    8.6263  -18.3897   14.8267 C   0  0  0  0  0  0  0  0  0  0  0  0
    8.8110  -17.7926   16.1967 C   0  0  0  0  0  0  0  0  0  0  0  0
    8.2029  -16.4018   16.2850 C   0  0  2  0  0  0  0  0  0  0  0  0
    8.5032  -15.7286   15.0355 N   0  0  0  0  0  0  0  0  0  0  0  0
    8.8860  -15.7044   17.4242 C   0  0  0  0  0  0  0  0  0  0  0  0
   10.0481  -15.2293   17.3069 O   0  0  0  0  0  0  0  0  0  0  0  0
    7.3816  -12.9671   19.6631 C   0  0  0  0  0  0  0  0  0  0  0  0
    7.8771  -14.0793   20.5271 C   0  0  1  0  0  0  0  0  0  0  0  0
    6.8079  -14.8466   20.9641 O   0  0  0  0  0  0  0  0  0  0  0  0
    8.9205  -14.9349   19.8006 C   0  0  2  0  0  0  0  0  0  0  0  0
    8.2584  -15.5455   18.6879 N   0  0  0  0  0  0  0  0  0  0  0  0
    9.5295  -15.9197   20.7248 C   0  0  0  0  0  0  0  0  0  0  0  0
    9.1903  -17.1303   20.7224 O   0  0  0  0  0  0  0  0  0  0  0  0
   13.0093  -17.2427   23.9607 C   0  0  0  0  0  0  0  0  0  0  0  0
   12.5370  -16.2256   22.9429 C   0  0  1  0  0  0  0  0  0  0  0  0
   13.2786  -16.2410   21.7823 O   0  0  0  0  0  0  0  0  0  0  0  0
   11.0891  -16.5193   22.6211 C   0  0  2  0  0  0  0  0  0  0  0  0
   10.5407  -15.5628   21.6792 N   0  0  0  0  0  0  0  0  0  0  0  0
   10.2639  -16.5782   23.8658 C   0  0  0  0  0  0  0  0  0  0  0  0
   10.1917  -17.7189   24.6515 O   0  0  0  0  0  0  0  0  0  0  0  0
    9.6082  -15.5724   24.2274 O   0  0  0  0  0  0  0  0  0  0  0  0
  2  1  1  0
  2  3  2  0
  4  2  1  0
  5  4  1  0
  6  8  1  0
  6  5  1  0
  6  7  1  6
  8 14  1  0
  9  8  2  0
 11 10  1  6
 11 12  1  0
 13 11  1  0
 13 14  1  6
 15 21  1  0
 15 13  1  0
 16 15  2  0
 18 20  1  0
 18 17  1  1
 19 18  1  0
 20 21  1  6
 20 22  1  0
 22 23  1  0
 24 22  2  0
M  END
$$$$
