QTT.pdb
     RDKit          3D

 24 23  0  0  1  0  0  0  0  0999 V2000
   14.3589  -16.1850   19.8090 N   0  0  0  0  0  0  0  0  0  0  0  0
   14.0345  -15.4794   18.6311 C   0  0  0  0  0  0  0  0  0  0  0  0
   14.8767  -14.7195   18.1196 O   0  0  0  0  0  0  0  0  0  0  0  0
   12.7093  -15.6446   18.0167 C   0  0  0  0  0  0  0  0  0  0  0  0
   11.9279  -16.6656   18.8006 C   0  0  0  0  0  0  0  0  0  0  0  0
   10.5261  -16.8453   18.2399 C   0  0  2  0  0  0  0  0  0  0  0  0
   10.5178  -16.2430   16.9201 N   0  0  0  0  0  0  0  0  0  0  0  0
    9.5979  -16.1001   19.1531 C   0  0  0  0  0  0  0  0  0  0  0  0
    9.2410  -14.9155   18.9095 O   0  0  0  0  0  0  0  0  0  0  0  0
    6.3527  -17.2202   19.8489 C   0  0  0  0  0  0  0  0  0  0  0  0
    6.8757  -16.9260   21.2161 C   0  0  1  0  0  0  0  0  0  0  0  0
    7.1369  -18.1127   21.8844 O   0  0  0  0  0  0  0  0  0  0  0  0
    8.1165  -16.0282   21.1633 C   0  0  2  0  0  0  0  0  0  0  0  0
    9.0769  -16.6913   20.3343 N   0  0  0  0  0  0  0  0  0  0  0  0
    8.6225  -15.7490   22.5274 C   0  0  0  0  0  0  0  0  0  0  0  0
    9.7809  -16.0802   22.8865 O   0  0  0  0  0  0  0  0  0  0  0  0
    7.8190  -12.4719   25.0099 C   0  0  0  0  0  0  0  0  0  0  0  0
    7.4934  -13.8264   25.6040 C   0  0  1  0  0  0  0  0  0  0  0  0
    6.1567  -14.1464   25.5144 O   0  0  0  0  0  0  0  0  0  0  0  0
    8.3122  -14.8686   24.8762 C   0  0  2  0  0  0  0  0  0  0  0  0
    7.8316  -15.0862   23.5255 N   0  0  0  0  0  0  0  0  0  0  0  0
    8.3530  -16.1507   25.6429 C   0  0  0  0  0  0  0  0  0  0  0  0
    8.9899  -16.2581   26.8703 O   0  0  0  0  0  0  0  0  0  0  0  0
    7.7981  -17.1741   25.1766 O   0  0  0  0  0  0  0  0  0  0  0  0
  2  1  1  0
  2  3  2  0
  4  2  1  0
  5  4  1  0
  6  8  1  0
  6  5  1  0
  6  7  1  6
  8 14  1  0
  9  8  2  0
 11 10  1  6
 11 12  1  0
 13 11  1  0
 13 14  1  6
 15 21  1  0
 15 13  1  0
 16 15  2  0
 18 20  1  0
 18 17  1  6
 19 18  1  0
 20 21  1  6
 20 22  1  0
 22 23  1  0
 24 22  2  0
M  END
$$$$
