QTT.pdb
     RDKit          3D

 24 23  0  0  1  0  0  0  0  0999 V2000
   13.6009  -15.1269   20.7013 N   0  0  0  0  0  0  0  0  0  0  0  0
   13.4783  -14.6101   19.3942 C   0  0  0  0  0  0  0  0  0  0  0  0
   14.4889  -14.5169   18.6741 O   0  0  0  0  0  0  0  0  0  0  0  0
   12.1635  -14.1864   18.8917 C   0  0  0  0  0  0  0  0  0  0  0  0
   11.1447  -14.3400   19.9899 C   0  0  0  0  0  0  0  0  0  0  0  0
    9.9165  -15.0964   19.5090 C   0  0  2  0  0  0  0  0  0  0  0  0
    9.4477  -14.4244   18.3118 N   0  0  0  0  0  0  0  0  0  0  0  0
    8.8899  -14.9877   20.5974 C   0  0  0  0  0  0  0  0  0  0  0  0
    7.9742  -14.1216   20.5583 O   0  0  0  0  0  0  0  0  0  0  0  0
    6.4065  -17.1901   24.1417 C   0  0  0  0  0  0  0  0  0  0  0  0
    7.4302  -17.1747   23.0550 C   0  0  1  0  0  0  0  0  0  0  0  0
    6.9112  -17.7648   21.9124 O   0  0  0  0  0  0  0  0  0  0  0  0
    7.9314  -15.7541   22.7734 C   0  0  2  0  0  0  0  0  0  0  0  0
    8.8990  -15.8532   21.7231 N   0  0  0  0  0  0  0  0  0  0  0  0
    8.4733  -15.1335   24.0045 C   0  0  0  0  0  0  0  0  0  0  0  0
    9.6863  -15.2334   24.3197 O   0  0  0  0  0  0  0  0  0  0  0  0
    7.3351  -11.5139   25.7061 C   0  0  0  0  0  0  0  0  0  0  0  0
    7.2862  -12.6921   26.6563 C   0  0  1  0  0  0  0  0  0  0  0  0
    6.0164  -13.2005   26.8186 O   0  0  0  0  0  0  0  0  0  0  0  0
    8.1970  -13.7711   26.1153 C   0  0  2  0  0  0  0  0  0  0  0  0
    7.6577  -14.3812   24.9154 N   0  0  0  0  0  0  0  0  0  0  0  0
    8.4848  -14.8028   27.1575 C   0  0  0  0  0  0  0  0  0  0  0  0
    9.1988  -14.5102   28.3101 O   0  0  0  0  0  0  0  0  0  0  0  0
    8.0751  -15.9777   27.0017 O   0  0  0  0  0  0  0  0  0  0  0  0
  2  1  1  0
  2  3  2  0
  4  2  1  0
  5  4  1  0
  6  8  1  0
  6  5  1  0
  6  7  1  6
  8 14  1  0
  9  8  2  0
 11 10  1  1
 11 12  1  0
 13 11  1  0
 13 14  1  6
 15 21  1  0
 15 13  1  0
 16 15  2  0
 18 20  1  0
 18 17  1  6
 19 18  1  0
 20 21  1  6
 20 22  1  0
 22 23  1  0
 24 22  2  0
M  END
$$$$
