QTT.pdb
     RDKit          3D

 24 23  0  0  1  0  0  0  0  0999 V2000
   -0.1895  -27.0638   32.4572 N   0  0  0  0  0  0  0  0  0  0  0  0
    0.3174  -27.8464   31.3984 C   0  0  0  0  0  0  0  0  0  0  0  0
    1.1761  -28.7155   31.6345 O   0  0  0  0  0  0  0  0  0  0  0  0
   -0.1690  -27.6322   30.0278 C   0  0  0  0  0  0  0  0  0  0  0  0
   -1.2980  -26.6362   30.0570 C   0  0  0  0  0  0  0  0  0  0  0  0
   -1.8154  -26.3391   28.6585 C   0  0  2  0  0  0  0  0  0  0  0  0
   -0.6549  -26.1857   27.8017 N   0  0  0  0  0  0  0  0  0  0  0  0
   -2.5688  -25.0446   28.7437 C   0  0  0  0  0  0  0  0  0  0  0  0
   -2.0768  -24.0294   29.3068 O   0  0  0  0  0  0  0  0  0  0  0  0
   -3.3952  -22.8507   26.2325 C   0  0  0  0  0  0  0  0  0  0  0  0
   -4.7301  -23.1432   26.8337 C   0  0  1  0  0  0  0  0  0  0  0  0
   -5.4230  -24.0342   26.0280 O   0  0  0  0  0  0  0  0  0  0  0  0
   -4.5992  -23.6695   28.2670 C   0  0  2  0  0  0  0  0  0  0  0  0
   -3.8706  -24.8996   28.1954 N   0  0  0  0  0  0  0  0  0  0  0  0
   -5.9321  -23.8207   28.8959 C   0  0  0  0  0  0  0  0  0  0  0  0
   -6.4422  -24.9502   29.1068 O   0  0  0  0  0  0  0  0  0  0  0  0
   -7.1239  -24.8369   31.2247 C   0  0  0  0  0  0  0  0  0  0  0  0
   -7.7131  -23.4555   31.4198 C   0  0  1  0  0  0  0  0  0  0  0  0
   -6.8986  -22.6213   32.1532 O   0  0  0  0  0  0  0  0  0  0  0  0
   -7.9578  -22.8512   30.0555 C   0  0  2  0  0  0  0  0  0  0  0  0
   -6.7268  -22.6972   29.3047 N   0  0  0  0  0  0  0  0  0  0  0  0
   -8.6831  -21.5494   30.1672 C   0  0  0  0  0  0  0  0  0  0  0  0
  -10.0236  -21.4776   30.5161 O   0  0  0  0  0  0  0  0  0  0  0  0
   -8.0756  -20.4758   29.9417 O   0  0  0  0  0  0  0  0  0  0  0  0
  2  1  1  0
  2  3  2  0
  4  2  1  0
  5  4  1  0
  6  8  1  0
  6  5  1  0
  6  7  1  6
  8 14  1  0
  9  8  2  0
 11 10  1  6
 11 12  1  0
 13 11  1  0
 13 14  1  6
 15 21  1  0
 15 13  1  0
 16 15  2  0
 18 20  1  0
 18 17  1  6
 19 18  1  0
 20 21  1  1
 20 22  1  0
 22 23  1  0
 24 22  2  0
M  END
$$$$
