QTT.pdb
     RDKit          3D

 24 23  0  0  1  0  0  0  0  0999 V2000
    9.8445  -13.4123   19.2905 N   0  0  0  0  0  0  0  0  0  0  0  0
    8.6873  -13.0017   18.5956 C   0  0  0  0  0  0  0  0  0  0  0  0
    8.7922  -12.5566   17.4382 O   0  0  0  0  0  0  0  0  0  0  0  0
    7.3694  -13.1012   19.2391 C   0  0  0  0  0  0  0  0  0  0  0  0
    7.5378  -13.6867   20.6162 C   0  0  0  0  0  0  0  0  0  0  0  0
    8.1173  -15.0912   20.5577 C   0  0  2  0  0  0  0  0  0  0  0  0
    7.2416  -15.8751   19.7073 N   0  0  0  0  0  0  0  0  0  0  0  0
    8.0913  -15.6268   21.9587 C   0  0  0  0  0  0  0  0  0  0  0  0
    7.0164  -15.9945   22.5059 O   0  0  0  0  0  0  0  0  0  0  0  0
    9.3516  -18.5881   23.0629 C   0  0  0  0  0  0  0  0  0  0  0  0
   10.0200  -17.6286   23.9912 C   0  0  1  0  0  0  0  0  0  0  0  0
   11.3409  -17.4485   23.6094 O   0  0  0  0  0  0  0  0  0  0  0  0
    9.2694  -16.2942   24.0582 C   0  0  2  0  0  0  0  0  0  0  0  0
    9.2737  -15.7458   22.7359 N   0  0  0  0  0  0  0  0  0  0  0  0
    9.8845  -15.3941   25.0613 C   0  0  0  0  0  0  0  0  0  0  0  0
   10.2392  -14.2229   24.7733 O   0  0  0  0  0  0  0  0  0  0  0  0
    9.4255  -12.9714   26.2687 C   0  0  0  0  0  0  0  0  0  0  0  0
    9.4452  -13.7355   27.5761 C   0  0  1  0  0  0  0  0  0  0  0  0
    8.2202  -14.2726   27.9044 O   0  0  0  0  0  0  0  0  0  0  0  0
   10.4674  -14.8435   27.4582 C   0  0  2  0  0  0  0  0  0  0  0  0
   10.1162  -15.7937   26.4205 N   0  0  0  0  0  0  0  0  0  0  0  0
   10.6661  -15.5322   28.7695 C   0  0  0  0  0  0  0  0  0  0  0  0
   11.2904  -14.9133   29.8424 O   0  0  0  0  0  0  0  0  0  0  0  0
   10.2615  -16.7091   28.9235 O   0  0  0  0  0  0  0  0  0  0  0  0
  2  1  1  0
  2  3  2  0
  4  2  1  0
  5  4  1  0
  6  8  1  0
  6  5  1  0
  6  7  1  6
  8 14  1  0
  9  8  2  0
 11 10  1  6
 11 12  1  0
 13 11  1  0
 13 14  1  6
 15 21  1  0
 15 13  1  0
 16 15  2  0
 18 20  1  0
 18 17  1  6
 19 18  1  0
 20 21  1  6
 20 22  1  0
 22 23  1  0
 24 22  2  0
M  END
$$$$
