KHV.pdb
     RDKit          3D

 27 27  0  0  1  0  0  0  0  0999 V2000
   19.6577  -16.1064  -18.2127 N   0  0  0  0  0  0  0  0  0  0  0  0
   18.6244  -15.1359  -18.2862 C   0  0  1  0  0  0  0  0  0  0  0  0
   17.4422  -15.3630  -17.4107 C   0  0  0  0  0  0  0  0  0  0  0  0
   17.6696  -16.3120  -16.2773 C   0  0  0  0  0  0  0  0  0  0  0  0
   16.5413  -16.4571  -15.3203 C   0  0  0  0  0  0  0  0  0  0  0  0
   16.8430  -17.4389  -14.2051 C   0  0  0  0  0  0  0  0  0  0  0  0
   15.8222  -17.4147  -13.1845 N   0  0  0  0  0  0  0  0  0  0  0  0
   19.0998  -13.7341  -18.0792 C   0  0  0  0  0  0  0  0  0  0  0  0
   20.3024  -13.4405  -18.3353 O   0  0  0  0  0  0  0  0  0  0  0  0
   18.2916  -12.6731  -17.6058 N   0  0  0  0  0  0  0  0  0  0  0  0
   18.7220  -11.2823  -17.5863 C   0  0  1  0  0  0  0  0  0  0  0  0
   17.5145  -10.3641  -17.7205 C   0  0  0  0  0  0  0  0  0  0  0  0
   17.8434   -8.9524  -17.6916 C   0  0  0  0  0  0  0  0  0  0  0  0
   17.9145   -8.0974  -16.6128 C   0  0  0  0  0  0  0  0  0  0  0  0
   18.2388   -6.8730  -17.0809 N   0  0  0  0  0  0  0  0  0  0  0  0
   18.3729   -6.9325  -18.4174 C   0  0  0  0  0  0  0  0  0  0  0  0
   18.1322   -8.1996  -18.7945 N   0  0  0  0  0  0  0  0  0  0  0  0
   19.4352  -10.9392  -16.3548 C   0  0  0  0  0  0  0  0  0  0  0  0
   19.0072  -11.3955  -15.2688 O   0  0  0  0  0  0  0  0  0  0  0  0
   23.4335   -9.8539  -13.8879 C   0  0  0  0  0  0  0  0  0  0  0  0
   22.7842  -10.1319  -15.2202 C   0  0  1  0  0  0  0  0  0  0  0  0
   23.1475  -11.4997  -15.6895 C   0  0  0  0  0  0  0  0  0  0  0  0
   21.2867   -9.9216  -15.0998 C   0  0  2  0  0  0  0  0  0  0  0  0
   20.6016  -10.1069  -16.3316 N   0  0  0  0  0  0  0  0  0  0  0  0
   21.0108   -8.5979  -14.4889 C   0  0  0  0  0  0  0  0  0  0  0  0
   20.6715   -7.4749  -15.2210 O   0  0  0  0  0  0  0  0  0  0  0  0
   21.0878   -8.4835  -13.2403 O   0  0  0  0  0  0  0  0  0  0  0  0
  2  1  1  1
  2  8  1  0
  2  3  1  0
  4  3  1  0
  5  4  1  0
  6  5  1  0
  7  6  1  0
  8  9  2  0
 10 11  1  0
 10  8  1  0
 11 12  1  1
 12 13  1  0
 13 14  2  0
 15 14  1  0
 16 15  1  0
 17 16  2  0
 17 13  1  0
 18 11  1  0
 19 18  2  0
 21 20  1  1
 21 23  1  0
 22 21  1  0
 23 25  1  0
 23 24  1  6
 24 18  1  0
 25 26  1  0
 27 25  2  0
M  END
$$$$
