KHV.pdb
     RDKit          3D

 27 27  0  0  1  0  0  0  0  0999 V2000
   28.3879  -23.8833  -18.1025 N   0  0  0  0  0  0  0  0  0  0  0  0
   29.2597  -23.3376  -17.1242 C   0  0  1  0  0  0  0  0  0  0  0  0
   30.6100  -22.9279  -17.5984 C   0  0  0  0  0  0  0  0  0  0  0  0
   31.4099  -24.0161  -18.2410 C   0  0  0  0  0  0  0  0  0  0  0  0
   31.9534  -25.0482  -17.3195 C   0  0  0  0  0  0  0  0  0  0  0  0
   32.7427  -26.1213  -18.0436 C   0  0  0  0  0  0  0  0  0  0  0  0
   33.2921  -27.0892  -17.1241 N   0  0  0  0  0  0  0  0  0  0  0  0
   28.6665  -22.2004  -16.3570 C   0  0  0  0  0  0  0  0  0  0  0  0
   29.3866  -21.5575  -15.5406 O   0  0  0  0  0  0  0  0  0  0  0  0
   27.3238  -21.7679  -16.4706 N   0  0  0  0  0  0  0  0  0  0  0  0
   26.7672  -20.6645  -15.7009 C   0  0  1  0  0  0  0  0  0  0  0  0
   25.9101  -19.7846  -16.6013 C   0  0  0  0  0  0  0  0  0  0  0  0
   25.4108  -18.5886  -15.9516 C   0  0  0  0  0  0  0  0  0  0  0  0
   25.6444  -18.1311  -14.6726 C   0  0  0  0  0  0  0  0  0  0  0  0
   24.9494  -16.9843  -14.5140 N   0  0  0  0  0  0  0  0  0  0  0  0
   24.2877  -16.7083  -15.6515 C   0  0  0  0  0  0  0  0  0  0  0  0
   24.5663  -17.6848  -16.5315 N   0  0  0  0  0  0  0  0  0  0  0  0
   25.9457  -21.1274  -14.5812 C   0  0  0  0  0  0  0  0  0  0  0  0
   25.0588  -21.9844  -14.8043 O   0  0  0  0  0  0  0  0  0  0  0  0
   27.2136  -21.4378  -10.8179 C   0  0  0  0  0  0  0  0  0  0  0  0
   25.7827  -20.9623  -10.8331 C   0  0  1  0  0  0  0  0  0  0  0  0
   25.7039  -19.5646  -10.3201 C   0  0  0  0  0  0  0  0  0  0  0  0
   25.2200  -21.1155  -12.2335 C   0  0  2  0  0  0  0  0  0  0  0  0
   26.1082  -20.6484  -13.2404 N   0  0  0  0  0  0  0  0  0  0  0  0
   23.8833  -20.4763  -12.3127 C   0  0  0  0  0  0  0  0  0  0  0  0
   23.6150  -19.3609  -13.0846 O   0  0  0  0  0  0  0  0  0  0  0  0
   22.9401  -20.9691  -11.6453 O   0  0  0  0  0  0  0  0  0  0  0  0
  2  1  1  6
  2  8  1  0
  2  3  1  0
  4  3  1  0
  5  4  1  0
  6  5  1  0
  7  6  1  0
  8  9  2  0
 10 11  1  0
 10  8  1  0
 11 12  1  6
 12 13  1  0
 13 14  2  0
 15 14  1  0
 16 15  1  0
 17 16  2  0
 17 13  1  0
 18 11  1  0
 19 18  2  0
 21 20  1  6
 21 23  1  0
 22 21  1  0
 23 25  1  0
 23 24  1  6
 24 18  1  0
 25 26  1  0
 27 25  2  0
M  END
$$$$
