KHV.pdb
     RDKit          3D

 27 27  0  0  1  0  0  0  0  0999 V2000
   17.3631  -11.5844  -14.2807 N   0  0  0  0  0  0  0  0  0  0  0  0
   16.5423  -10.4550  -14.0249 C   0  0  1  0  0  0  0  0  0  0  0  0
   15.0837  -10.7171  -13.8854 C   0  0  0  0  0  0  0  0  0  0  0  0
   14.6001  -11.9645  -14.5542 C   0  0  0  0  0  0  0  0  0  0  0  0
   13.1511  -12.2589  -14.4011 C   0  0  0  0  0  0  0  0  0  0  0  0
   12.7204  -13.4918  -15.1714 C   0  0  0  0  0  0  0  0  0  0  0  0
   11.3190  -13.7783  -14.9762 N   0  0  0  0  0  0  0  0  0  0  0  0
   16.9873   -9.6409  -12.8532 C   0  0  0  0  0  0  0  0  0  0  0  0
   17.0954  -10.1893  -11.7192 O   0  0  0  0  0  0  0  0  0  0  0  0
   17.3087   -8.2637  -12.9070 N   0  0  0  0  0  0  0  0  0  0  0  0
   17.8496   -7.5201  -11.7780 C   0  0  1  0  0  0  0  0  0  0  0  0
   19.0028   -6.6401  -12.2415 C   0  0  0  0  0  0  0  0  0  0  0  0
   20.1082   -7.3770  -12.8220 C   0  0  0  0  0  0  0  0  0  0  0  0
   20.4942   -7.4699  -14.1419 C   0  0  0  0  0  0  0  0  0  0  0  0
   21.5688   -8.2859  -14.1982 N   0  0  0  0  0  0  0  0  0  0  0  0
   21.8685   -8.7074  -12.9571 C   0  0  0  0  0  0  0  0  0  0  0  0
   20.9796   -8.1554  -12.1141 N   0  0  0  0  0  0  0  0  0  0  0  0
   16.8425   -6.6719  -11.1383 C   0  0  0  0  0  0  0  0  0  0  0  0
   16.0604   -6.0183  -11.8675 O   0  0  0  0  0  0  0  0  0  0  0  0
   13.9546   -5.4469   -7.4256 C   0  0  0  0  0  0  0  0  0  0  0  0
   15.1406   -6.2736   -7.8543 C   0  0  1  0  0  0  0  0  0  0  0  0
   14.7745   -7.7187   -7.8754 C   0  0  0  0  0  0  0  0  0  0  0  0
   15.6453   -5.7673   -9.1923 C   0  0  2  0  0  0  0  0  0  0  0  0
   16.7068   -6.5541   -9.7165 N   0  0  0  0  0  0  0  0  0  0  0  0
   16.0005   -4.3305   -9.0865 C   0  0  0  0  0  0  0  0  0  0  0  0
   17.3001   -3.8602   -9.1302 O   0  0  0  0  0  0  0  0  0  0  0  0
   15.0766   -3.4906   -8.9495 O   0  0  0  0  0  0  0  0  0  0  0  0
  2  1  1  1
  2  8  1  0
  2  3  1  0
  4  3  1  0
  5  4  1  0
  6  5  1  0
  7  6  1  0
  8  9  2  0
 10 11  1  0
 10  8  1  0
 11 12  1  6
 12 13  1  0
 13 14  2  0
 15 14  1  0
 16 15  1  0
 17 16  2  0
 17 13  1  0
 18 11  1  0
 19 18  2  0
 21 20  1  6
 21 23  1  0
 22 21  1  0
 23 25  1  0
 23 24  1  1
 24 18  1  0
 25 26  1  0
 27 25  2  0
M  END
$$$$
