KHV.pdb
     RDKit          3D

 27 27  0  0  1  0  0  0  0  0999 V2000
   27.9892  -19.5022  -18.8760 N   0  0  0  0  0  0  0  0  0  0  0  0
   28.4491  -18.9343  -17.6591 C   0  0  1  0  0  0  0  0  0  0  0  0
   29.1364  -17.6180  -17.7632 C   0  0  0  0  0  0  0  0  0  0  0  0
   30.2789  -17.5775  -18.7276 C   0  0  0  0  0  0  0  0  0  0  0  0
   31.0476  -18.8416  -18.8713 C   0  0  0  0  0  0  0  0  0  0  0  0
   32.2619  -18.6890  -19.7664 C   0  0  0  0  0  0  0  0  0  0  0  0
   33.0232  -19.9132  -19.8433 N   0  0  0  0  0  0  0  0  0  0  0  0
   27.3930  -18.8306  -16.6066 C   0  0  0  0  0  0  0  0  0  0  0  0
   27.6809  -18.3266  -15.4835 O   0  0  0  0  0  0  0  0  0  0  0  0
   26.0547  -19.2624  -16.7657 N   0  0  0  0  0  0  0  0  0  0  0  0
   25.0276  -19.0870  -15.7487 C   0  0  1  0  0  0  0  0  0  0  0  0
   23.6507  -19.0740  -16.3993 C   0  0  0  0  0  0  0  0  0  0  0  0
   22.5580  -18.9149  -15.4597 C   0  0  0  0  0  0  0  0  0  0  0  0
   22.6005  -18.8038  -14.0866 C   0  0  0  0  0  0  0  0  0  0  0  0
   21.3292  -18.6927  -13.6448 N   0  0  0  0  0  0  0  0  0  0  0  0
   20.4917  -18.7307  -14.6960 C   0  0  0  0  0  0  0  0  0  0  0  0
   21.2373  -18.8665  -15.8056 N   0  0  0  0  0  0  0  0  0  0  0  0
   25.0579  -20.1479  -14.7404 C   0  0  0  0  0  0  0  0  0  0  0  0
   24.9847  -21.3391  -15.1232 O   0  0  0  0  0  0  0  0  0  0  0  0
   26.8008  -19.5255  -11.2951 C   0  0  0  0  0  0  0  0  0  0  0  0
   26.3437  -20.9521  -11.4671 C   0  0  1  0  0  0  0  0  0  0  0  0
   26.0228  -21.5489  -10.1389 C   0  0  0  0  0  0  0  0  0  0  0  0
   25.1760  -20.9896  -12.4348 C   0  0  2  0  0  0  0  0  0  0  0  0
   25.1687  -19.8896  -13.3352 N   0  0  0  0  0  0  0  0  0  0  0  0
   23.9028  -21.1188  -11.6840 C   0  0  0  0  0  0  0  0  0  0  0  0
   22.9056  -20.1610  -11.7014 O   0  0  0  0  0  0  0  0  0  0  0  0
   23.7135  -22.1508  -10.9932 O   0  0  0  0  0  0  0  0  0  0  0  0
  2  1  1  6
  2  8  1  0
  2  3  1  0
  4  3  1  0
  5  4  1  0
  6  5  1  0
  7  6  1  0
  8  9  2  0
 10 11  1  0
 10  8  1  0
 11 12  1  6
 12 13  1  0
 13 14  2  0
 15 14  1  0
 16 15  1  0
 17 16  2  0
 17 13  1  0
 18 11  1  0
 19 18  2  0
 21 20  1  1
 21 23  1  0
 22 21  1  0
 23 25  1  0
 23 24  1  1
 24 18  1  0
 25 26  1  0
 27 25  2  0
M  END
$$$$
