KHV.pdb
     RDKit          3D

 27 27  0  0  1  0  0  0  0  0999 V2000
   27.4602  -22.5113  -17.4891 N   0  0  0  0  0  0  0  0  0  0  0  0
   27.8119  -21.1796  -17.1460 C   0  0  1  0  0  0  0  0  0  0  0  0
   28.0531  -20.2474  -18.2812 C   0  0  0  0  0  0  0  0  0  0  0  0
   27.0646  -20.3459  -19.3993 C   0  0  0  0  0  0  0  0  0  0  0  0
   27.0350  -21.6443  -20.1225 C   0  0  0  0  0  0  0  0  0  0  0  0
   26.1470  -21.6094  -21.3509 C   0  0  0  0  0  0  0  0  0  0  0  0
   25.9627  -22.9269  -21.9116 N   0  0  0  0  0  0  0  0  0  0  0  0
   26.8551  -20.5295  -16.1997 C   0  0  0  0  0  0  0  0  0  0  0  0
   27.0481  -19.3316  -15.8445 O   0  0  0  0  0  0  0  0  0  0  0  0
   25.7142  -21.1611  -15.6499 N   0  0  0  0  0  0  0  0  0  0  0  0
   24.8231  -20.5197  -14.6937 C   0  0  1  0  0  0  0  0  0  0  0  0
   23.3952  -20.5376  -15.2228 C   0  0  0  0  0  0  0  0  0  0  0  0
   23.0033  -19.3164  -15.8987 C   0  0  0  0  0  0  0  0  0  0  0  0
   23.6981  -18.1333  -16.0301 C   0  0  0  0  0  0  0  0  0  0  0  0
   22.9204  -17.2763  -16.7260 N   0  0  0  0  0  0  0  0  0  0  0  0
   21.7611  -17.8834  -17.0347 C   0  0  0  0  0  0  0  0  0  0  0  0
   21.8072  -19.1286  -16.5316 N   0  0  0  0  0  0  0  0  0  0  0  0
   24.8452  -21.1779  -13.3863 C   0  0  0  0  0  0  0  0  0  0  0  0
   24.6535  -22.4155  -13.3365 O   0  0  0  0  0  0  0  0  0  0  0  0
   27.4939  -20.9885  -10.6939 C   0  0  0  0  0  0  0  0  0  0  0  0
   26.1705  -20.8106   -9.9935 C   0  0  1  0  0  0  0  0  0  0  0  0
   26.0470  -19.4153   -9.4825 C   0  0  0  0  0  0  0  0  0  0  0  0
   25.0489  -21.2006  -10.9375 C   0  0  2  0  0  0  0  0  0  0  0  0
   25.0771  -20.4746  -12.1594 N   0  0  0  0  0  0  0  0  0  0  0  0
   23.7431  -21.0923  -10.2414 C   0  0  0  0  0  0  0  0  0  0  0  0
   23.3820  -21.8859   -9.1681 O   0  0  0  0  0  0  0  0  0  0  0  0
   22.9161  -20.2364  -10.6430 O   0  0  0  0  0  0  0  0  0  0  0  0
  2  1  1  6
  2  8  1  0
  2  3  1  0
  4  3  1  0
  5  4  1  0
  6  5  1  0
  7  6  1  0
  8  9  2  0
 10 11  1  0
 10  8  1  0
 11 12  1  6
 12 13  1  0
 13 14  2  0
 15 14  1  0
 16 15  1  0
 17 16  2  0
 17 13  1  0
 18 11  1  0
 19 18  2  0
 21 20  1  6
 21 23  1  0
 22 21  1  0
 23 25  1  0
 23 24  1  6
 24 18  1  0
 25 26  1  0
 27 25  2  0
M  END
$$$$
