KHV.pdb
     RDKit          3D

 27 27  0  0  1  0  0  0  0  0999 V2000
   24.2353  -12.2972  -18.0995 N   0  0  0  0  0  0  0  0  0  0  0  0
   23.6454  -11.3436  -18.9698 C   0  0  1  0  0  0  0  0  0  0  0  0
   23.0031  -11.8814  -20.2002 C   0  0  0  0  0  0  0  0  0  0  0  0
   23.2058  -13.3455  -20.4293 C   0  0  0  0  0  0  0  0  0  0  0  0
   24.6063  -13.7704  -20.6895 C   0  0  0  0  0  0  0  0  0  0  0  0
   24.7184  -15.2469  -21.0154 C   0  0  0  0  0  0  0  0  0  0  0  0
   26.0843  -15.6304  -21.2825 N   0  0  0  0  0  0  0  0  0  0  0  0
   22.6737  -10.4316  -18.2931 C   0  0  0  0  0  0  0  0  0  0  0  0
   22.0323   -9.5856  -18.9795 O   0  0  0  0  0  0  0  0  0  0  0  0
   22.4014  -10.4351  -16.9043 N   0  0  0  0  0  0  0  0  0  0  0  0
   21.4200   -9.5624  -16.2758 C   0  0  1  0  0  0  0  0  0  0  0  0
   20.5695  -10.3597  -15.2959 C   0  0  0  0  0  0  0  0  0  0  0  0
   19.5002  -11.1121  -15.9225 C   0  0  0  0  0  0  0  0  0  0  0  0
   19.1192  -11.1443  -17.2467 C   0  0  0  0  0  0  0  0  0  0  0  0
   18.0595  -11.9752  -17.3481 N   0  0  0  0  0  0  0  0  0  0  0  0
   17.7639  -12.4644  -16.1311 C   0  0  0  0  0  0  0  0  0  0  0  0
   18.6405  -11.9401  -15.2579 N   0  0  0  0  0  0  0  0  0  0  0  0
   22.0452   -8.4518  -15.5555 C   0  0  0  0  0  0  0  0  0  0  0  0
   23.0434   -8.6917  -14.8366 O   0  0  0  0  0  0  0  0  0  0  0  0
   21.3072   -4.3648  -16.4399 C   0  0  0  0  0  0  0  0  0  0  0  0
   22.5999   -4.8915  -15.8695 C   0  0  1  0  0  0  0  0  0  0  0  0
   23.3322   -3.7975  -15.1695 C   0  0  0  0  0  0  0  0  0  0  0  0
   22.3034   -6.0786  -14.9728 C   0  0  2  0  0  0  0  0  0  0  0  0
   21.5710   -7.1018  -15.6342 N   0  0  0  0  0  0  0  0  0  0  0  0
   21.6398   -5.6175  -13.7284 C   0  0  0  0  0  0  0  0  0  0  0  0
   22.2873   -4.9024  -12.7378 O   0  0  0  0  0  0  0  0  0  0  0  0
   20.4249   -5.8877  -13.5586 O   0  0  0  0  0  0  0  0  0  0  0  0
  2  1  1  1
  2  8  1  0
  2  3  1  0
  4  3  1  0
  5  4  1  0
  6  5  1  0
  7  6  1  0
  8  9  2  0
 10 11  1  0
 10  8  1  0
 11 12  1  1
 12 13  1  0
 13 14  2  0
 15 14  1  0
 16 15  1  0
 17 16  2  0
 17 13  1  0
 18 11  1  0
 19 18  2  0
 21 20  1  1
 21 23  1  0
 22 21  1  0
 23 25  1  0
 23 24  1  6
 24 18  1  0
 25 26  1  0
 27 25  2  0
M  END
$$$$
