KHV.pdb
     RDKit          3D

 27 27  0  0  1  0  0  0  0  0999 V2000
   21.7456  -11.6390  -18.7183 N   0  0  0  0  0  0  0  0  0  0  0  0
   20.5284  -11.5825  -19.4463 C   0  0  1  0  0  0  0  0  0  0  0  0
   20.0447  -12.8662  -20.0242 C   0  0  0  0  0  0  0  0  0  0  0  0
   20.8926  -14.0579  -19.7115 C   0  0  0  0  0  0  0  0  0  0  0  0
   20.3338  -15.3732  -20.1207 C   0  0  0  0  0  0  0  0  0  0  0  0
   21.2384  -16.5329  -19.7527 C   0  0  0  0  0  0  0  0  0  0  0  0
   20.6551  -17.8007  -20.1226 N   0  0  0  0  0  0  0  0  0  0  0  0
   19.4031  -10.9548  -18.6891 C   0  0  0  0  0  0  0  0  0  0  0  0
   18.2863  -10.7888  -19.2579 O   0  0  0  0  0  0  0  0  0  0  0  0
   19.4839  -10.5168  -17.3458 N   0  0  0  0  0  0  0  0  0  0  0  0
   18.4136   -9.7980  -16.6693 C   0  0  1  0  0  0  0  0  0  0  0  0
   18.2063  -10.3704  -15.2733 C   0  0  0  0  0  0  0  0  0  0  0  0
   17.3531  -11.5421  -15.2390 C   0  0  0  0  0  0  0  0  0  0  0  0
   16.7238  -12.1908  -16.2796 C   0  0  0  0  0  0  0  0  0  0  0  0
   16.0227  -13.2199  -15.7569 N   0  0  0  0  0  0  0  0  0  0  0  0
   16.1919  -13.2370  -14.4232 C   0  0  0  0  0  0  0  0  0  0  0  0
   17.0029  -12.2147  -14.1027 N   0  0  0  0  0  0  0  0  0  0  0  0
   18.6950   -8.3664  -16.5501 C   0  0  0  0  0  0  0  0  0  0  0  0
   19.8608   -8.0081  -16.2613 O   0  0  0  0  0  0  0  0  0  0  0  0
   16.0613   -5.3142  -17.9043 C   0  0  0  0  0  0  0  0  0  0  0  0
   17.5591   -5.1582  -17.8262 C   0  0  1  0  0  0  0  0  0  0  0  0
   17.9171   -3.7146  -17.7218 C   0  0  0  0  0  0  0  0  0  0  0  0
   18.0885   -5.9882  -16.6720 C   0  0  2  0  0  0  0  0  0  0  0  0
   17.7009   -7.3537  -16.7496 N   0  0  0  0  0  0  0  0  0  0  0  0
   17.7068   -5.3608  -15.3828 C   0  0  0  0  0  0  0  0  0  0  0  0
   18.3486   -4.2573  -14.8512 O   0  0  0  0  0  0  0  0  0  0  0  0
   16.7506   -5.8530  -14.7336 O   0  0  0  0  0  0  0  0  0  0  0  0
  2  1  1  1
  2  8  1  0
  2  3  1  0
  4  3  1  0
  5  4  1  0
  6  5  1  0
  7  6  1  0
  8  9  2  0
 10 11  1  0
 10  8  1  0
 11 12  1  1
 12 13  1  0
 13 14  2  0
 15 14  1  0
 16 15  1  0
 17 16  2  0
 17 13  1  0
 18 11  1  0
 19 18  2  0
 21 20  1  1
 21 23  1  0
 22 21  1  0
 23 25  1  0
 23 24  1  1
 24 18  1  0
 25 26  1  0
 27 25  2  0
M  END
$$$$
