KHV.pdb
     RDKit          3D

 27 27  0  0  1  0  0  0  0  0999 V2000
   22.0360  -29.4184  -12.1962 N   0  0  0  0  0  0  0  0  0  0  0  0
   21.4449  -28.6221  -13.2117 C   0  0  1  0  0  0  0  0  0  0  0  0
   20.3086  -29.2345  -13.9531 C   0  0  0  0  0  0  0  0  0  0  0  0
   20.6393  -30.4972  -14.6834 C   0  0  0  0  0  0  0  0  0  0  0  0
   20.8332  -30.3624  -16.1510 C   0  0  0  0  0  0  0  0  0  0  0  0
   21.1529  -31.6837  -16.8224 C   0  0  0  0  0  0  0  0  0  0  0  0
   21.2743  -31.5375  -18.2535 N   0  0  0  0  0  0  0  0  0  0  0  0
   21.0243  -27.2661  -12.7446 C   0  0  0  0  0  0  0  0  0  0  0  0
   20.8159  -27.0688  -11.5133 O   0  0  0  0  0  0  0  0  0  0  0  0
   20.8338  -26.1478  -13.5908 N   0  0  0  0  0  0  0  0  0  0  0  0
   20.4672  -24.8254  -13.1044 C   0  0  1  0  0  0  0  0  0  0  0  0
   20.6441  -23.7974  -14.2141 C   0  0  0  0  0  0  0  0  0  0  0  0
   20.6660  -22.4253  -13.7464 C   0  0  0  0  0  0  0  0  0  0  0  0
   20.3750  -21.9282  -12.4943 C   0  0  0  0  0  0  0  0  0  0  0  0
   20.5157  -20.5860  -12.5433 N   0  0  0  0  0  0  0  0  0  0  0  0
   20.8850  -20.2259  -13.7849 C   0  0  0  0  0  0  0  0  0  0  0  0
   20.9777  -21.3452  -14.5226 N   0  0  0  0  0  0  0  0  0  0  0  0
   19.0821  -24.7712  -12.6338 C   0  0  0  0  0  0  0  0  0  0  0  0
   18.1792  -25.2175  -13.3797 O   0  0  0  0  0  0  0  0  0  0  0  0
   17.5199  -26.0283   -9.3706 C   0  0  0  0  0  0  0  0  0  0  0  0
   17.0776  -24.6005   -9.5693 C   0  0  1  0  0  0  0  0  0  0  0  0
   17.7570  -23.7136   -8.5819 C   0  0  0  0  0  0  0  0  0  0  0  0
   17.3316  -24.1942  -11.0086 C   0  0  2  0  0  0  0  0  0  0  0  0
   18.7087  -24.2331  -11.3592 N   0  0  0  0  0  0  0  0  0  0  0  0
   16.7135  -22.8721  -11.2761 C   0  0  0  0  0  0  0  0  0  0  0  0
   15.3479  -22.6549  -11.2813 O   0  0  0  0  0  0  0  0  0  0  0  0
   17.4645  -21.8931  -11.5115 O   0  0  0  0  0  0  0  0  0  0  0  0
  2  1  1  1
  2  8  1  0
  2  3  1  0
  4  3  1  0
  5  4  1  0
  6  5  1  0
  7  6  1  0
  8  9  2  0
 10 11  1  0
 10  8  1  0
 11 12  1  6
 12 13  1  0
 13 14  2  0
 15 14  1  0
 16 15  1  0
 17 16  2  0
 17 13  1  0
 18 11  1  0
 19 18  2  0
 21 20  1  6
 21 23  1  0
 22 21  1  0
 23 25  1  0
 23 24  1  1
 24 18  1  0
 25 26  1  0
 27 25  2  0
M  END
$$$$
