KHV.pdb
     RDKit          3D

 27 27  0  0  1  0  0  0  0  0999 V2000
   16.9552   -7.6185  -19.0821 N   0  0  0  0  0  0  0  0  0  0  0  0
   17.4774   -6.6069  -18.2342 C   0  0  1  0  0  0  0  0  0  0  0  0
   16.6279   -5.3989  -18.0473 C   0  0  0  0  0  0  0  0  0  0  0  0
   15.2484   -5.6705  -17.5372 C   0  0  0  0  0  0  0  0  0  0  0  0
   14.3827   -4.4768  -17.3497 C   0  0  0  0  0  0  0  0  0  0  0  0
   13.0125   -4.8281  -16.8039 C   0  0  0  0  0  0  0  0  0  0  0  0
   12.1809   -3.6567  -16.6601 N   0  0  0  0  0  0  0  0  0  0  0  0
   17.8888   -7.1048  -16.8864 C   0  0  0  0  0  0  0  0  0  0  0  0
   17.3518   -8.1491  -16.4180 O   0  0  0  0  0  0  0  0  0  0  0  0
   18.8601   -6.4867  -16.0634 N   0  0  0  0  0  0  0  0  0  0  0  0
   19.2275   -6.9810  -14.7441 C   0  0  1  0  0  0  0  0  0  0  0  0
   20.7291   -6.8360  -14.5358 C   0  0  0  0  0  0  0  0  0  0  0  0
   21.1841   -7.2565  -13.2250 C   0  0  0  0  0  0  0  0  0  0  0  0
   21.5862   -6.4862  -12.1551 C   0  0  0  0  0  0  0  0  0  0  0  0
   21.9395   -7.3239  -11.1566 N   0  0  0  0  0  0  0  0  0  0  0  0
   21.7723   -8.5937  -11.5658 C   0  0  0  0  0  0  0  0  0  0  0  0
   21.3116   -8.5574  -12.8276 N   0  0  0  0  0  0  0  0  0  0  0  0
   18.5357   -6.2654  -13.6706 C   0  0  0  0  0  0  0  0  0  0  0  0
   18.4829   -5.0143  -13.7231 O   0  0  0  0  0  0  0  0  0  0  0  0
   15.3679   -7.7630  -11.5194 C   0  0  0  0  0  0  0  0  0  0  0  0
   15.7209   -6.3044  -11.6667 C   0  0  1  0  0  0  0  0  0  0  0  0
   14.9967   -5.4981  -10.6427 C   0  0  0  0  0  0  0  0  0  0  0  0
   17.2277   -6.1450  -11.5938 C   0  0  2  0  0  0  0  0  0  0  0  0
   17.9139   -6.9275  -12.5622 N   0  0  0  0  0  0  0  0  0  0  0  0
   17.6968   -6.4108  -10.2115 C   0  0  0  0  0  0  0  0  0  0  0  0
   17.5065   -5.5344   -9.1590 O   0  0  0  0  0  0  0  0  0  0  0  0
   18.3001   -7.4875   -9.9772 O   0  0  0  0  0  0  0  0  0  0  0  0
  2  1  1  1
  2  8  1  0
  2  3  1  0
  4  3  1  0
  5  4  1  0
  6  5  1  0
  7  6  1  0
  8  9  2  0
 10 11  1  0
 10  8  1  0
 11 12  1  1
 12 13  1  0
 13 14  2  0
 15 14  1  0
 16 15  1  0
 17 16  2  0
 17 13  1  0
 18 11  1  0
 19 18  2  0
 21 20  1  1
 21 23  1  0
 22 21  1  0
 23 25  1  0
 23 24  1  6
 24 18  1  0
 25 26  1  0
 27 25  2  0
M  END
$$$$
