TPK.pdb
     RDKit          3D

 24 24  0  0  1  0  0  0  0  0999 V2000
    5.9215  -15.2033   21.2943 C   0  0  0  0  0  0  0  0  0  0  0  0
    7.1839  -14.8097   20.5531 C   0  0  1  0  0  0  0  0  0  0  0  0
    6.7162  -14.3496   19.2942 O   0  0  0  0  0  0  0  0  0  0  0  0
    7.7578  -13.5705   21.2236 C   0  0  2  0  0  0  0  0  0  0  0  0
    8.5905  -12.8359   20.3040 N   0  0  0  0  0  0  0  0  0  0  0  0
    8.3138  -13.7952   22.5441 C   0  0  0  0  0  0  0  0  0  0  0  0
    9.3940  -14.4865   22.5774 O   0  0  0  0  0  0  0  0  0  0  0  0
    7.8213  -13.3521   23.7911 N   0  0  0  0  0  0  0  0  0  0  0  0
    6.7416  -12.4430   24.0267 C   0  0  0  0  0  0  0  0  0  0  0  0
    6.0716  -13.0509   25.2759 C   0  0  0  0  0  0  0  0  0  0  0  0
    7.3418  -13.2299   26.1230 C   0  0  0  0  0  0  0  0  0  0  0  0
    8.3352  -13.7403   25.1015 C   0  0  1  0  0  0  0  0  0  0  0  0
    8.3970  -15.2177   25.2470 C   0  0  0  0  0  0  0  0  0  0  0  0
    7.4798  -16.0108   24.9356 O   0  0  0  0  0  0  0  0  0  0  0  0
    9.5885  -15.7742   25.7804 N   0  0  0  0  0  0  0  0  0  0  0  0
    9.8367  -17.1916   25.9244 C   0  0  1  0  0  0  0  0  0  0  0  0
   10.5855  -17.8379   24.8461 C   0  0  0  0  0  0  0  0  0  0  0  0
   10.9534  -19.2340   24.7761 C   0  0  0  0  0  0  0  0  0  0  0  0
   11.7131  -19.8727   23.6995 C   0  0  0  0  0  0  0  0  0  0  0  0
   12.0011  -21.3194   23.7560 C   0  0  0  0  0  0  0  0  0  0  0  0
   12.9229  -21.6703   22.6642 N   0  0  0  0  0  0  0  0  0  0  0  0
   10.1571  -17.5377   27.3191 C   0  0  0  0  0  0  0  0  0  0  0  0
    9.9038  -18.7977   27.8273 O   0  0  0  0  0  0  0  0  0  0  0  0
   10.6718  -16.6906   28.0862 O   0  0  0  0  0  0  0  0  0  0  0  0
  2  1  1  1
  3  2  1  0
  4  6  1  0
  4  2  1  0
  4  5  1  6
  6  8  1  0
  6  7  2  0
  8 12  1  0
  9  8  1  0
  9 10  1  0
 10 11  1  0
 12 11  1  0
 13 15  1  0
 12 13  1  6
 14 13  2  0
 16 17  1  6
 16 15  1  0
 17 18  1  0
 18 19  1  0
 20 19  1  0
 21 20  1  0
 22 16  1  0
 22 23  1  0
 24 22  2  0
M  END
$$$$
