TPK.pdb
     RDKit          3D

 24 24  0  0  1  0  0  0  0  0999 V2000
    6.3986  -16.6133   22.9967 C   0  0  0  0  0  0  0  0  0  0  0  0
    7.5600  -16.3870   22.0491 C   0  0  1  0  0  0  0  0  0  0  0  0
    6.9935  -16.5654   20.7596 O   0  0  0  0  0  0  0  0  0  0  0  0
    7.9320  -14.9128   22.1022 C   0  0  2  0  0  0  0  0  0  0  0  0
    8.7124  -14.5446   20.9472 N   0  0  0  0  0  0  0  0  0  0  0  0
    8.4391  -14.4589   23.3829 C   0  0  0  0  0  0  0  0  0  0  0  0
    9.6062  -14.8886   23.6977 O   0  0  0  0  0  0  0  0  0  0  0  0
    7.8162  -13.6083   24.3224 N   0  0  0  0  0  0  0  0  0  0  0  0
    6.5866  -12.8932   24.1670 C   0  0  0  0  0  0  0  0  0  0  0  0
    5.9686  -12.9994   25.5762 C   0  0  0  0  0  0  0  0  0  0  0  0
    7.2066  -12.5631   26.3762 C   0  0  0  0  0  0  0  0  0  0  0  0
    8.3225  -13.2863   25.6535 C   0  0  1  0  0  0  0  0  0  0  0  0
    8.6287  -14.5142   26.4320 C   0  0  0  0  0  0  0  0  0  0  0  0
    7.9266  -15.5505   26.4476 O   0  0  0  0  0  0  0  0  0  0  0  0
    9.8090  -14.5132   27.2199 N   0  0  0  0  0  0  0  0  0  0  0  0
   10.2532  -15.6255   28.0301 C   0  0  1  0  0  0  0  0  0  0  0  0
   11.1161  -16.6091   27.3752 C   0  0  0  0  0  0  0  0  0  0  0  0
   11.6366  -17.8208   27.9671 C   0  0  0  0  0  0  0  0  0  0  0  0
   10.8436  -18.9418   28.4759 C   0  0  0  0  0  0  0  0  0  0  0  0
   11.5123  -20.0808   29.1351 C   0  0  0  0  0  0  0  0  0  0  0  0
   10.4921  -20.9708   29.7112 N   0  0  0  0  0  0  0  0  0  0  0  0
   10.5809  -15.1912   29.3982 C   0  0  0  0  0  0  0  0  0  0  0  0
   10.6460  -16.0904   30.4456 O   0  0  0  0  0  0  0  0  0  0  0  0
   10.8109  -13.9848   29.6483 O   0  0  0  0  0  0  0  0  0  0  0  0
  2  1  1  1
  3  2  1  0
  4  6  1  0
  4  2  1  0
  4  5  1  6
  6  8  1  0
  6  7  2  0
  8 12  1  0
  9  8  1  0
  9 10  1  0
 10 11  1  0
 12 11  1  0
 13 15  1  0
 12 13  1  1
 14 13  2  0
 16 17  1  6
 16 15  1  0
 17 18  1  0
 18 19  1  0
 20 19  1  0
 21 20  1  0
 22 16  1  0
 22 23  1  0
 24 22  2  0
M  END
$$$$
