TPK.pdb
     RDKit          3D

 24 24  0  0  1  0  0  0  0  0999 V2000
   53.5098  -69.3018    9.3780 C   0  0  0  0  0  0  0  0  0  0  0  0
   54.2319  -69.7463    8.1215 C   0  0  1  0  0  0  0  0  0  0  0  0
   53.4264  -70.7996    7.6143 O   0  0  0  0  0  0  0  0  0  0  0  0
   54.1061  -68.6374    7.0877 C   0  0  2  0  0  0  0  0  0  0  0  0
   55.4039  -68.1052    6.7540 N   0  0  0  0  0  0  0  0  0  0  0  0
   53.0710  -67.6604    7.3660 C   0  0  0  0  0  0  0  0  0  0  0  0
   52.2220  -67.4725    6.4227 O   0  0  0  0  0  0  0  0  0  0  0  0
   52.8786  -66.8943    8.5365 N   0  0  0  0  0  0  0  0  0  0  0  0
   52.9071  -65.4688    8.6575 C   0  0  0  0  0  0  0  0  0  0  0  0
   51.7869  -65.2074    9.6850 C   0  0  0  0  0  0  0  0  0  0  0  0
   52.2260  -66.2415   10.7343 C   0  0  0  0  0  0  0  0  0  0  0  0
   52.6157  -67.4227    9.8720 C   0  0  1  0  0  0  0  0  0  0  0  0
   51.4664  -68.3644    9.8692 C   0  0  0  0  0  0  0  0  0  0  0  0
   51.5553  -69.6090    9.9701 O   0  0  0  0  0  0  0  0  0  0  0  0
   50.1660  -67.8107    9.7421 N   0  0  0  0  0  0  0  0  0  0  0  0
   49.1317  -67.9116   10.7476 C   0  0  1  0  0  0  0  0  0  0  0  0
   47.9584  -67.0561   10.5681 C   0  0  0  0  0  0  0  0  0  0  0  0
   46.9594  -66.7515   11.5674 C   0  0  0  0  0  0  0  0  0  0  0  0
   45.6190  -66.2196   11.3129 C   0  0  0  0  0  0  0  0  0  0  0  0
   45.0742  -66.2149    9.9409 C   0  0  0  0  0  0  0  0  0  0  0  0
   45.5875  -67.3870    9.2146 N   0  0  0  0  0  0  0  0  0  0  0  0
   48.9354  -69.3077   11.1722 C   0  0  0  0  0  0  0  0  0  0  0  0
   49.7402  -70.3267   10.6990 O   0  0  0  0  0  0  0  0  0  0  0  0
   48.0257  -69.6085   11.9802 O   0  0  0  0  0  0  0  0  0  0  0  0
  2  1  1  1
  3  2  1  0
  4  6  1  0
  4  2  1  0
  4  5  1  1
  6  8  1  0
  6  7  2  0
  8 12  1  0
  9  8  1  0
  9 10  1  0
 10 11  1  0
 12 11  1  0
 13 15  1  0
 12 13  1  6
 14 13  2  0
 16 17  1  6
 16 15  1  0
 17 18  1  0
 18 19  1  0
 20 19  1  0
 21 20  1  0
 22 16  1  0
 22 23  1  0
 24 22  2  0
M  END
$$$$
