HHL.pdb
     RDKit          3D

 29 30  0  0  1  0  0  0  0  0999 V2000
    6.9059  -16.6718   19.3229 N   0  0  0  0  0  0  0  0  0  0  0  0
    7.7561  -15.8564   20.1665 C   0  0  1  0  0  0  0  0  0  0  0  0
    7.4936  -14.4041   19.8386 C   0  0  0  0  0  0  0  0  0  0  0  0
    7.9485  -14.1548   18.4551 C   0  0  0  0  0  0  0  0  0  0  0  0
    7.1907  -13.7434   17.3805 C   0  0  0  0  0  0  0  0  0  0  0  0
    7.9961  -13.6376   16.3031 N   0  0  0  0  0  0  0  0  0  0  0  0
    9.2165  -13.9807   16.7283 C   0  0  0  0  0  0  0  0  0  0  0  0
    9.2153  -14.3004   18.0360 N   0  0  0  0  0  0  0  0  0  0  0  0
    7.4503  -16.1511   21.6006 C   0  0  0  0  0  0  0  0  0  0  0  0
    6.3112  -15.8828   22.0628 O   0  0  0  0  0  0  0  0  0  0  0  0
    8.4578  -16.7397   22.4469 N   0  0  0  0  0  0  0  0  0  0  0  0
    8.0702  -17.0353   23.7959 C   0  0  1  0  0  0  0  0  0  0  0  0
    8.2631  -18.4644   24.1942 C   0  0  0  0  0  0  0  0  0  0  0  0
    7.8895  -18.7765   25.5712 C   0  0  0  0  0  0  0  0  0  0  0  0
    8.5823  -19.1320   26.6876 C   0  0  0  0  0  0  0  0  0  0  0  0
    7.7311  -19.2853   27.7300 N   0  0  0  0  0  0  0  0  0  0  0  0
    6.5146  -19.0280   27.2733 C   0  0  0  0  0  0  0  0  0  0  0  0
    6.5843  -18.7199   25.9794 N   0  0  0  0  0  0  0  0  0  0  0  0
    8.7356  -16.1374   24.7774 C   0  0  0  0  0  0  0  0  0  0  0  0
    9.9630  -15.9267   24.8465 O   0  0  0  0  0  0  0  0  0  0  0  0
    7.6768  -11.9432   25.6144 C   0  0  0  0  0  0  0  0  0  0  0  0
    6.6658  -12.9266   26.2189 C   0  0  2  0  0  0  0  0  0  0  0  0
    5.5223  -12.1245   26.7528 C   0  0  0  0  0  0  0  0  0  0  0  0
    7.3752  -13.7306   27.2598 C   0  0  0  0  0  0  0  0  0  0  0  0
    8.5142  -14.5698   26.7312 C   0  0  2  0  0  0  0  0  0  0  0  0
    7.9141  -15.4585   25.7184 N   0  0  0  0  0  0  0  0  0  0  0  0
    9.2316  -15.3273   27.7497 C   0  0  0  0  0  0  0  0  0  0  0  0
   10.2133  -14.7453   28.5234 O   0  0  0  0  0  0  0  0  0  0  0  0
    8.9619  -16.5354   27.9380 O   0  0  0  0  0  0  0  0  0  0  0  0
  2  3  1  0
  2  1  1  6
  3  4  1  0
  4  8  1  0
  5  4  2  0
  5  6  1  0
  6  7  1  0
  8  7  2  0
  9 10  2  0
  9  2  1  0
 11  9  1  0
 12 11  1  0
 13 14  1  0
 12 13  1  1
 14 18  1  0
 15 14  2  0
 15 16  1  0
 16 17  1  0
 18 17  2  0
 19 12  1  0
 19 26  1  0
 20 19  2  0
 22 21  1  1
 22 23  1  0
 24 22  1  0
 25 26  1  0
 25 24  1  1
 27 28  1  0
 27 25  1  0
 29 27  2  0
M  END
$$$$
