HHL.pdb
     RDKit          3D

 29 30  0  0  1  0  0  0  0  0999 V2000
    5.9669  -20.5416   21.8168 N   0  0  0  0  0  0  0  0  0  0  0  0
    5.6738  -19.1400   22.0388 C   0  0  1  0  0  0  0  0  0  0  0  0
    4.7722  -19.0316   23.2475 C   0  0  0  0  0  0  0  0  0  0  0  0
    3.3741  -19.1835   22.7943 C   0  0  0  0  0  0  0  0  0  0  0  0
    2.9288  -19.5201   21.5346 C   0  0  0  0  0  0  0  0  0  0  0  0
    1.5799  -19.5497   21.5501 N   0  0  0  0  0  0  0  0  0  0  0  0
    1.2253  -19.2355   22.8006 C   0  0  0  0  0  0  0  0  0  0  0  0
    2.2997  -19.0075   23.5792 N   0  0  0  0  0  0  0  0  0  0  0  0
    6.9557  -18.3994   22.2518 C   0  0  0  0  0  0  0  0  0  0  0  0
    7.8401  -18.8875   23.0020 O   0  0  0  0  0  0  0  0  0  0  0  0
    7.1741  -17.1327   21.5995 N   0  0  0  0  0  0  0  0  0  0  0  0
    8.4502  -16.5133   21.8113 C   0  0  1  0  0  0  0  0  0  0  0  0
    9.0754  -15.9495   20.5746 C   0  0  0  0  0  0  0  0  0  0  0  0
   10.3928  -15.3494   20.7682 C   0  0  0  0  0  0  0  0  0  0  0  0
   11.2096  -15.1737   21.8427 C   0  0  0  0  0  0  0  0  0  0  0  0
   12.3558  -14.5642   21.4566 N   0  0  0  0  0  0  0  0  0  0  0  0
   12.2609  -14.3590   20.1515 C   0  0  0  0  0  0  0  0  0  0  0  0
   11.0908  -14.8223   19.7154 N   0  0  0  0  0  0  0  0  0  0  0  0
    8.3972  -15.4753   22.8753 C   0  0  0  0  0  0  0  0  0  0  0  0
    7.9786  -14.3098   22.7266 O   0  0  0  0  0  0  0  0  0  0  0  0
    5.7370  -13.0895   26.5891 C   0  0  0  0  0  0  0  0  0  0  0  0
    7.2365  -13.4116   26.5374 C   0  0  2  0  0  0  0  0  0  0  0  0
    7.9721  -12.1136   26.4376 C   0  0  0  0  0  0  0  0  0  0  0  0
    7.4687  -14.3259   25.3785 C   0  0  0  0  0  0  0  0  0  0  0  0
    8.8870  -14.8305   25.2561 C   0  0  2  0  0  0  0  0  0  0  0  0
    8.8591  -15.8305   24.1721 N   0  0  0  0  0  0  0  0  0  0  0  0
    9.4392  -15.3887   26.4846 C   0  0  0  0  0  0  0  0  0  0  0  0
    9.4886  -16.7497   26.6998 O   0  0  0  0  0  0  0  0  0  0  0  0
    9.8823  -14.6278   27.3748 O   0  0  0  0  0  0  0  0  0  0  0  0
  2  3  1  0
  2  1  1  1
  3  4  1  0
  4  8  1  0
  5  4  2  0
  5  6  1  0
  6  7  1  0
  8  7  2  0
  9 10  2  0
  9  2  1  0
 11  9  1  0
 12 11  1  0
 13 14  1  0
 12 13  1  6
 14 18  1  0
 15 14  2  0
 15 16  1  0
 16 17  1  0
 18 17  2  0
 19 12  1  0
 19 26  1  0
 20 19  2  0
 22 21  1  6
 22 23  1  0
 24 22  1  0
 25 26  1  0
 25 24  1  1
 27 28  1  0
 27 25  1  0
 29 27  2  0
M  END
$$$$
