HHL.pdb
     RDKit          3D

 29 30  0  0  1  0  0  0  0  0999 V2000
    8.2110  -17.0346   18.9199 N   0  0  0  0  0  0  0  0  0  0  0  0
    8.6199  -16.0194   19.8694 C   0  0  1  0  0  0  0  0  0  0  0  0
    7.6683  -14.8507   19.7504 C   0  0  0  0  0  0  0  0  0  0  0  0
    7.9779  -14.1302   18.4981 C   0  0  0  0  0  0  0  0  0  0  0  0
    8.9028  -14.4727   17.5360 C   0  0  0  0  0  0  0  0  0  0  0  0
    8.8661  -13.5455   16.5564 N   0  0  0  0  0  0  0  0  0  0  0  0
    7.9331  -12.6627   16.9283 C   0  0  0  0  0  0  0  0  0  0  0  0
    7.3764  -12.9956   18.1080 N   0  0  0  0  0  0  0  0  0  0  0  0
    8.5947  -16.5995   21.2478 C   0  0  0  0  0  0  0  0  0  0  0  0
    7.5589  -17.1831   21.6595 O   0  0  0  0  0  0  0  0  0  0  0  0
    9.7532  -16.4889   22.0983 N   0  0  0  0  0  0  0  0  0  0  0  0
    9.6456  -17.0648   23.4075 C   0  0  1  0  0  0  0  0  0  0  0  0
   10.5792  -18.2066   23.6580 C   0  0  0  0  0  0  0  0  0  0  0  0
   10.3911  -19.3605   22.7827 C   0  0  0  0  0  0  0  0  0  0  0  0
   11.0561  -19.8533   21.7021 C   0  0  0  0  0  0  0  0  0  0  0  0
   10.4581  -20.9894   21.2706 N   0  0  0  0  0  0  0  0  0  0  0  0
    9.4272  -21.2092   22.0727 C   0  0  0  0  0  0  0  0  0  0  0  0
    9.3665  -20.2443   22.9888 N   0  0  0  0  0  0  0  0  0  0  0  0
    9.7881  -16.0440   24.4798 C   0  0  0  0  0  0  0  0  0  0  0  0
   10.8144  -15.3719   24.7049 O   0  0  0  0  0  0  0  0  0  0  0  0
    8.0731  -12.1204   25.9980 C   0  0  0  0  0  0  0  0  0  0  0  0
    7.0780  -13.2710   25.7962 C   0  0  2  0  0  0  0  0  0  0  0  0
    5.7038  -12.7183   26.0011 C   0  0  0  0  0  0  0  0  0  0  0  0
    7.4377  -14.3606   26.7534 C   0  0  0  0  0  0  0  0  0  0  0  0
    8.8032  -14.9651   26.5266 C   0  0  2  0  0  0  0  0  0  0  0  0
    8.6682  -15.8069   25.3230 N   0  0  0  0  0  0  0  0  0  0  0  0
    9.3235  -15.7262   27.6561 C   0  0  0  0  0  0  0  0  0  0  0  0
   10.0720  -15.1261   28.6464 O   0  0  0  0  0  0  0  0  0  0  0  0
    9.0945  -16.9541   27.7429 O   0  0  0  0  0  0  0  0  0  0  0  0
  2  3  1  0
  2  1  1  6
  3  4  1  0
  4  8  1  0
  5  4  2  0
  5  6  1  0
  6  7  1  0
  8  7  2  0
  9 10  2  0
  9  2  1  0
 11  9  1  0
 12 11  1  0
 13 14  1  0
 12 13  1  1
 14 18  1  0
 15 14  2  0
 15 16  1  0
 16 17  1  0
 18 17  2  0
 19 12  1  0
 19 26  1  0
 20 19  2  0
 22 21  1  1
 22 23  1  0
 24 22  1  0
 25 26  1  0
 25 24  1  1
 27 28  1  0
 27 25  1  0
 29 27  2  0
M  END
$$$$
