HHL.pdb
     RDKit          3D

 29 30  0  0  1  0  0  0  0  0999 V2000
   11.4763  -16.1761   18.5815 N   0  0  0  0  0  0  0  0  0  0  0  0
   11.9880  -15.8632   19.9005 C   0  0  1  0  0  0  0  0  0  0  0  0
   12.4553  -14.4255   19.8971 C   0  0  0  0  0  0  0  0  0  0  0  0
   13.7601  -14.3669   19.2063 C   0  0  0  0  0  0  0  0  0  0  0  0
   14.9288  -15.0063   19.5579 C   0  0  0  0  0  0  0  0  0  0  0  0
   15.8819  -14.6826   18.6593 N   0  0  0  0  0  0  0  0  0  0  0  0
   15.2909  -13.8621   17.7843 C   0  0  0  0  0  0  0  0  0  0  0  0
   13.9977  -13.6532   18.0946 N   0  0  0  0  0  0  0  0  0  0  0  0
   10.9049  -16.0778   20.9094 C   0  0  0  0  0  0  0  0  0  0  0  0
    9.8110  -15.4680   20.7887 O   0  0  0  0  0  0  0  0  0  0  0  0
   11.1163  -16.9796   22.0140 N   0  0  0  0  0  0  0  0  0  0  0  0
   10.0419  -17.1035   22.9560 C   0  0  1  0  0  0  0  0  0  0  0  0
    9.9238  -18.4567   23.5829 C   0  0  0  0  0  0  0  0  0  0  0  0
    9.4660  -19.5142   22.6855 C   0  0  0  0  0  0  0  0  0  0  0  0
    9.0933  -19.5564   21.3771 C   0  0  0  0  0  0  0  0  0  0  0  0
    8.7720  -20.8253   21.0292 N   0  0  0  0  0  0  0  0  0  0  0  0
    8.9417  -21.5740   22.1086 C   0  0  0  0  0  0  0  0  0  0  0  0
    9.3583  -20.8089   23.1161 N   0  0  0  0  0  0  0  0  0  0  0  0
   10.1001  -16.0557   24.0101 C   0  0  0  0  0  0  0  0  0  0  0  0
   11.1330  -15.4660   24.3855 O   0  0  0  0  0  0  0  0  0  0  0  0
    7.2766  -12.8700   27.5049 C   0  0  0  0  0  0  0  0  0  0  0  0
    7.7466  -12.4252   26.1135 C   0  0  2  0  0  0  0  0  0  0  0  0
    6.7753  -11.4028   25.6162 C   0  0  0  0  0  0  0  0  0  0  0  0
    7.8355  -13.6414   25.2498 C   0  0  0  0  0  0  0  0  0  0  0  0
    8.8719  -14.6469   25.6926 C   0  0  2  0  0  0  0  0  0  0  0  0
    8.8839  -15.6887   24.6485 N   0  0  0  0  0  0  0  0  0  0  0  0
    8.6369  -15.2167   27.0139 C   0  0  0  0  0  0  0  0  0  0  0  0
    9.3711  -14.8196   28.1114 O   0  0  0  0  0  0  0  0  0  0  0  0
    7.7518  -16.0881   27.1721 O   0  0  0  0  0  0  0  0  0  0  0  0
  2  3  1  0
  2  1  1  6
  3  4  1  0
  4  8  1  0
  5  4  2  0
  5  6  1  0
  6  7  1  0
  8  7  2  0
  9 10  2  0
  9  2  1  0
 11  9  1  0
 12 11  1  0
 13 14  1  0
 12 13  1  1
 14 18  1  0
 15 14  2  0
 15 16  1  0
 16 17  1  0
 18 17  2  0
 19 12  1  0
 19 26  1  0
 20 19  2  0
 22 21  1  1
 22 23  1  0
 24 22  1  0
 25 26  1  0
 25 24  1  6
 27 28  1  0
 27 25  1  0
 29 27  2  0
M  END
$$$$
