HHL.pdb
     RDKit          3D

 29 30  0  0  1  0  0  0  0  0999 V2000
    8.5512  -16.7859   18.7026 N   0  0  0  0  0  0  0  0  0  0  0  0
    8.7151  -15.6913   19.6377 C   0  0  1  0  0  0  0  0  0  0  0  0
    7.6177  -14.6833   19.3821 C   0  0  0  0  0  0  0  0  0  0  0  0
    7.8275  -14.1048   18.0387 C   0  0  0  0  0  0  0  0  0  0  0  0
    8.5289  -12.9644   17.7129 C   0  0  0  0  0  0  0  0  0  0  0  0
    8.4738  -12.7944   16.3755 N   0  0  0  0  0  0  0  0  0  0  0  0
    7.7502  -13.8181   15.9099 C   0  0  0  0  0  0  0  0  0  0  0  0
    7.3442  -14.6315   16.9028 N   0  0  0  0  0  0  0  0  0  0  0  0
    8.6454  -16.2248   21.0333 C   0  0  0  0  0  0  0  0  0  0  0  0
    7.7045  -16.9935   21.3603 O   0  0  0  0  0  0  0  0  0  0  0  0
    9.6527  -15.8582   21.9969 N   0  0  0  0  0  0  0  0  0  0  0  0
    9.7253  -16.6581   23.1853 C   0  0  1  0  0  0  0  0  0  0  0  0
   10.7768  -17.7216   23.1501 C   0  0  0  0  0  0  0  0  0  0  0  0
   10.9096  -18.4985   24.3797 C   0  0  0  0  0  0  0  0  0  0  0  0
   11.4368  -18.2500   25.6097 C   0  0  0  0  0  0  0  0  0  0  0  0
   11.2746  -19.3316   26.4087 N   0  0  0  0  0  0  0  0  0  0  0  0
   10.6508  -20.2513   25.6879 C   0  0  0  0  0  0  0  0  0  0  0  0
   10.4209  -19.7741   24.4659 N   0  0  0  0  0  0  0  0  0  0  0  0
    9.8805  -15.8269   24.4090 C   0  0  0  0  0  0  0  0  0  0  0  0
   10.8300  -15.0517   24.6394 O   0  0  0  0  0  0  0  0  0  0  0  0
    8.3589  -12.2982   26.1186 C   0  0  0  0  0  0  0  0  0  0  0  0
    7.3184  -13.4080   25.9178 C   0  0  2  0  0  0  0  0  0  0  0  0
    5.9676  -12.8011   26.1253 C   0  0  0  0  0  0  0  0  0  0  0  0
    7.6358  -14.5117   26.8739 C   0  0  0  0  0  0  0  0  0  0  0  0
    8.9867  -15.1528   26.6608 C   0  0  2  0  0  0  0  0  0  0  0  0
    8.8688  -15.9157   25.4039 N   0  0  0  0  0  0  0  0  0  0  0  0
    9.4355  -15.9990   27.7600 C   0  0  0  0  0  0  0  0  0  0  0  0
    9.4429  -17.3738   27.6550 O   0  0  0  0  0  0  0  0  0  0  0  0
    9.8256  -15.4806   28.8309 O   0  0  0  0  0  0  0  0  0  0  0  0
  2  3  1  0
  2  1  1  6
  3  4  1  0
  4  8  1  0
  5  4  2  0
  5  6  1  0
  6  7  1  0
  8  7  2  0
  9 10  2  0
  9  2  1  0
 11  9  1  0
 12 11  1  0
 13 14  1  0
 12 13  1  6
 14 18  1  0
 15 14  2  0
 15 16  1  0
 16 17  1  0
 18 17  2  0
 19 12  1  0
 19 26  1  0
 20 19  2  0
 22 21  1  1
 22 23  1  0
 24 22  1  0
 25 26  1  0
 25 24  1  1
 27 28  1  0
 27 25  1  0
 29 27  2  0
M  END
$$$$
