HHL.pdb
     RDKit          3D

 29 30  0  0  1  0  0  0  0  0999 V2000
    7.9421  -16.9741   19.6285 N   0  0  0  0  0  0  0  0  0  0  0  0
    8.5234  -16.0128   20.5436 C   0  0  1  0  0  0  0  0  0  0  0  0
    7.5938  -14.8239   20.6333 C   0  0  0  0  0  0  0  0  0  0  0  0
    7.8534  -13.9477   19.4722 C   0  0  0  0  0  0  0  0  0  0  0  0
    8.7731  -14.1362   18.4637 C   0  0  0  0  0  0  0  0  0  0  0  0
    8.6837  -13.1011   17.6027 N   0  0  0  0  0  0  0  0  0  0  0  0
    7.7248  -12.3066   18.0901 C   0  0  0  0  0  0  0  0  0  0  0  0
    7.2025  -12.7995   19.2288 N   0  0  0  0  0  0  0  0  0  0  0  0
    8.7068  -16.6582   21.8804 C   0  0  0  0  0  0  0  0  0  0  0  0
    7.7549  -17.2955   22.4006 O   0  0  0  0  0  0  0  0  0  0  0  0
    9.9694  -16.5489   22.5671 N   0  0  0  0  0  0  0  0  0  0  0  0
   10.0486  -17.1540   23.8651 C   0  0  1  0  0  0  0  0  0  0  0  0
   11.1200  -18.1895   23.9988 C   0  0  0  0  0  0  0  0  0  0  0  0
   10.9390  -19.3753   23.1656 C   0  0  0  0  0  0  0  0  0  0  0  0
   11.3616  -19.7390   21.9238 C   0  0  0  0  0  0  0  0  0  0  0  0
   10.9176  -20.9847   21.6315 N   0  0  0  0  0  0  0  0  0  0  0  0
   10.2229  -21.4006   22.6797 C   0  0  0  0  0  0  0  0  0  0  0  0
   10.2217  -20.4513   23.6140 N   0  0  0  0  0  0  0  0  0  0  0  0
   10.1797  -16.1411   24.9463 C   0  0  0  0  0  0  0  0  0  0  0  0
   11.0922  -15.2956   25.0366 O   0  0  0  0  0  0  0  0  0  0  0  0
    8.6644  -12.4646   26.3700 C   0  0  0  0  0  0  0  0  0  0  0  0
    7.6406  -13.6060   26.3079 C   0  0  2  0  0  0  0  0  0  0  0  0
    6.2844  -13.0043   26.4938 C   0  0  0  0  0  0  0  0  0  0  0  0
    8.0049  -14.6055   27.3573 C   0  0  0  0  0  0  0  0  0  0  0  0
    9.3482  -15.2648   27.1518 C   0  0  2  0  0  0  0  0  0  0  0  0
    9.1885  -16.1266   25.9654 N   0  0  0  0  0  0  0  0  0  0  0  0
    9.8337  -16.0204   28.3003 C   0  0  0  0  0  0  0  0  0  0  0  0
    9.8932  -17.3978   28.2843 O   0  0  0  0  0  0  0  0  0  0  0  0
   10.2085  -15.4192   29.3327 O   0  0  0  0  0  0  0  0  0  0  0  0
  2  3  1  0
  2  1  1  6
  3  4  1  0
  4  8  1  0
  5  4  2  0
  5  6  1  0
  6  7  1  0
  8  7  2  0
  9 10  2  0
  9  2  1  0
 11  9  1  0
 12 11  1  0
 13 14  1  0
 12 13  1  6
 14 18  1  0
 15 14  2  0
 15 16  1  0
 16 17  1  0
 18 17  2  0
 19 12  1  0
 19 26  1  0
 20 19  2  0
 22 21  1  1
 22 23  1  0
 24 22  1  0
 25 26  1  0
 25 24  1  1
 27 28  1  0
 27 25  1  0
 29 27  2  0
M  END
$$$$
