HHL.pdb
     RDKit          3D

 29 30  0  0  1  0  0  0  0  0999 V2000
    9.7461  -15.3051   18.9977 N   0  0  0  0  0  0  0  0  0  0  0  0
    8.5105  -14.9429   19.6623 C   0  0  1  0  0  0  0  0  0  0  0  0
    7.3576  -15.3904   18.7927 C   0  0  0  0  0  0  0  0  0  0  0  0
    7.4608  -14.6911   17.4952 C   0  0  0  0  0  0  0  0  0  0  0  0
    7.8611  -13.3924   17.2678 C   0  0  0  0  0  0  0  0  0  0  0  0
    7.8114  -13.1545   15.9406 N   0  0  0  0  0  0  0  0  0  0  0  0
    7.3877  -14.2941   15.3841 C   0  0  0  0  0  0  0  0  0  0  0  0
    7.1667  -15.2466   16.3094 N   0  0  0  0  0  0  0  0  0  0  0  0
    8.4644  -15.6027   21.0037 C   0  0  0  0  0  0  0  0  0  0  0  0
    7.4267  -15.5088   21.7090 O   0  0  0  0  0  0  0  0  0  0  0  0
    9.6050  -16.3419   21.4837 N   0  0  0  0  0  0  0  0  0  0  0  0
    9.5387  -16.8183   22.8350 C   0  0  1  0  0  0  0  0  0  0  0  0
   10.4493  -17.9682   23.1293 C   0  0  0  0  0  0  0  0  0  0  0  0
   10.0063  -19.2562   22.6021 C   0  0  0  0  0  0  0  0  0  0  0  0
    8.7938  -19.7898   22.2891 C   0  0  0  0  0  0  0  0  0  0  0  0
    8.9528  -21.0445   21.8045 N   0  0  0  0  0  0  0  0  0  0  0  0
   10.2530  -21.2972   21.8122 C   0  0  0  0  0  0  0  0  0  0  0  0
   10.9063  -20.2381   22.2869 N   0  0  0  0  0  0  0  0  0  0  0  0
    9.7575  -15.7280   23.8227 C   0  0  0  0  0  0  0  0  0  0  0  0
   10.7270  -14.9434   23.8288 O   0  0  0  0  0  0  0  0  0  0  0  0
    6.3280  -12.1836   27.2271 C   0  0  0  0  0  0  0  0  0  0  0  0
    7.7370  -12.7872   27.1541 C   0  0  2  0  0  0  0  0  0  0  0  0
    8.7020  -11.6575   26.9847 C   0  0  0  0  0  0  0  0  0  0  0  0
    7.7565  -13.7696   26.0283 C   0  0  0  0  0  0  0  0  0  0  0  0
    9.0178  -14.5961   25.9429 C   0  0  2  0  0  0  0  0  0  0  0  0
    8.7876  -15.5573   24.8481 N   0  0  0  0  0  0  0  0  0  0  0  0
    9.3828  -15.2733   27.1814 C   0  0  0  0  0  0  0  0  0  0  0  0
    9.0624  -16.5962   27.4013 O   0  0  0  0  0  0  0  0  0  0  0  0
   10.0013  -14.6529   28.0760 O   0  0  0  0  0  0  0  0  0  0  0  0
  2  3  1  0
  2  1  1  6
  3  4  1  0
  4  8  1  0
  5  4  2  0
  5  6  1  0
  6  7  1  0
  8  7  2  0
  9 10  2  0
  9  2  1  0
 11  9  1  0
 12 11  1  0
 13 14  1  0
 12 13  1  6
 14 18  1  0
 15 14  2  0
 15 16  1  0
 16 17  1  0
 18 17  2  0
 19 12  1  0
 19 26  1  0
 20 19  2  0
 22 21  1  6
 22 23  1  0
 24 22  1  0
 25 26  1  0
 25 24  1  1
 27 28  1  0
 27 25  1  0
 29 27  2  0
M  END
$$$$
