HHL.pdb
     RDKit          3D

 29 30  0  0  1  0  0  0  0  0999 V2000
    6.9556  -16.6451   18.6604 N   0  0  0  0  0  0  0  0  0  0  0  0
    7.8090  -15.8957   19.5601 C   0  0  1  0  0  0  0  0  0  0  0  0
    7.6051  -14.4228   19.2874 C   0  0  0  0  0  0  0  0  0  0  0  0
    8.0781  -14.1383   17.9168 C   0  0  0  0  0  0  0  0  0  0  0  0
    7.3877  -13.5161   16.8996 C   0  0  0  0  0  0  0  0  0  0  0  0
    8.1855  -13.4575   15.8130 N   0  0  0  0  0  0  0  0  0  0  0  0
    9.3350  -14.0361   16.1762 C   0  0  0  0  0  0  0  0  0  0  0  0
    9.2961  -14.4598   17.4534 N   0  0  0  0  0  0  0  0  0  0  0  0
    7.4534  -16.2389   20.9718 C   0  0  0  0  0  0  0  0  0  0  0  0
    6.3825  -15.8034   21.4682 O   0  0  0  0  0  0  0  0  0  0  0  0
    8.3355  -17.0649   21.7576 N   0  0  0  0  0  0  0  0  0  0  0  0
    7.9857  -17.2467   23.1366 C   0  0  1  0  0  0  0  0  0  0  0  0
    8.3651  -18.5801   23.6989 C   0  0  0  0  0  0  0  0  0  0  0  0
    8.0334  -18.7720   25.1083 C   0  0  0  0  0  0  0  0  0  0  0  0
    7.0572  -18.2966   25.9291 C   0  0  0  0  0  0  0  0  0  0  0  0
    7.2002  -18.8221   27.1692 N   0  0  0  0  0  0  0  0  0  0  0  0
    8.2561  -19.6208   27.1283 C   0  0  0  0  0  0  0  0  0  0  0  0
    8.7732  -19.6073   25.9010 N   0  0  0  0  0  0  0  0  0  0  0  0
    8.5223  -16.1584   23.9968 C   0  0  0  0  0  0  0  0  0  0  0  0
    9.6742  -15.6853   23.9278 O   0  0  0  0  0  0  0  0  0  0  0  0
    5.7347  -12.0344   27.5696 C   0  0  0  0  0  0  0  0  0  0  0  0
    7.1026  -12.5960   27.1591 C   0  0  2  0  0  0  0  0  0  0  0  0
    7.8807  -11.4783   26.5416 C   0  0  0  0  0  0  0  0  0  0  0  0
    6.8666  -13.7472   26.2361 C   0  0  0  0  0  0  0  0  0  0  0  0
    8.1172  -14.4953   25.8390 C   0  0  2  0  0  0  0  0  0  0  0  0
    7.6592  -15.6047   24.9816 N   0  0  0  0  0  0  0  0  0  0  0  0
    8.9146  -14.9793   26.9595 C   0  0  0  0  0  0  0  0  0  0  0  0
    8.6893  -16.2172   27.5233 O   0  0  0  0  0  0  0  0  0  0  0  0
    9.8285  -14.2660   27.4325 O   0  0  0  0  0  0  0  0  0  0  0  0
  2  3  1  0
  2  1  1  6
  3  4  1  0
  4  8  1  0
  5  4  2  0
  5  6  1  0
  6  7  1  0
  8  7  2  0
  9 10  2  0
  9  2  1  0
 11  9  1  0
 12 11  1  0
 13 14  1  0
 12 13  1  1
 14 18  1  0
 15 14  2  0
 15 16  1  0
 16 17  1  0
 18 17  2  0
 19 12  1  0
 19 26  1  0
 20 19  2  0
 22 21  1  6
 22 23  1  0
 24 22  1  0
 25 26  1  0
 25 24  1  1
 27 28  1  0
 27 25  1  0
 29 27  2  0
M  END
$$$$
