HHL.pdb
     RDKit          3D

 29 30  0  0  1  0  0  0  0  0999 V2000
    9.3511  -15.4495   18.7340 N   0  0  0  0  0  0  0  0  0  0  0  0
    8.1936  -14.6589   19.1009 C   0  0  1  0  0  0  0  0  0  0  0  0
    7.1722  -14.7742   17.9923 C   0  0  0  0  0  0  0  0  0  0  0  0
    7.7803  -14.2549   16.7498 C   0  0  0  0  0  0  0  0  0  0  0  0
    8.6986  -13.2355   16.6236 C   0  0  0  0  0  0  0  0  0  0  0  0
    8.9912  -13.0813   15.3155 N   0  0  0  0  0  0  0  0  0  0  0  0
    8.2584  -13.9951   14.6704 C   0  0  0  0  0  0  0  0  0  0  0  0
    7.5115  -14.7236   15.5212 N   0  0  0  0  0  0  0  0  0  0  0  0
    7.6452  -15.1656   20.3968 C   0  0  0  0  0  0  0  0  0  0  0  0
    6.6159  -14.6345   20.8882 O   0  0  0  0  0  0  0  0  0  0  0  0
    8.2951  -16.2575   21.0775 N   0  0  0  0  0  0  0  0  0  0  0  0
    7.7492  -16.6376   22.3482 C   0  0  1  0  0  0  0  0  0  0  0  0
    7.8811  -18.0935   22.6659 C   0  0  0  0  0  0  0  0  0  0  0  0
    6.9861  -18.9716   21.9170 C   0  0  0  0  0  0  0  0  0  0  0  0
    6.0053  -18.7682   20.9953 C   0  0  0  0  0  0  0  0  0  0  0  0
    5.4942  -19.9569   20.5949 N   0  0  0  0  0  0  0  0  0  0  0  0
    6.1478  -20.8988   21.2582 C   0  0  0  0  0  0  0  0  0  0  0  0
    7.0489  -20.3316   22.0583 N   0  0  0  0  0  0  0  0  0  0  0  0
    8.3027  -15.8200   23.4606 C   0  0  0  0  0  0  0  0  0  0  0  0
    9.5001  -15.4972   23.5927 O   0  0  0  0  0  0  0  0  0  0  0  0
    5.7163  -11.8966   27.3407 C   0  0  0  0  0  0  0  0  0  0  0  0
    7.0150  -12.6533   27.0318 C   0  0  2  0  0  0  0  0  0  0  0  0
    8.0663  -11.6354   26.7241 C   0  0  0  0  0  0  0  0  0  0  0  0
    6.7396  -13.5942   25.9041 C   0  0  0  0  0  0  0  0  0  0  0  0
    7.8821  -14.5257   25.5753 C   0  0  2  0  0  0  0  0  0  0  0  0
    7.4012  -15.3638   24.4608 N   0  0  0  0  0  0  0  0  0  0  0  0
    8.3426  -15.3379   26.6952 C   0  0  0  0  0  0  0  0  0  0  0  0
    7.7237  -16.5242   27.0281 O   0  0  0  0  0  0  0  0  0  0  0  0
    9.3210  -14.9629   27.3805 O   0  0  0  0  0  0  0  0  0  0  0  0
  2  3  1  0
  2  1  1  6
  3  4  1  0
  4  8  1  0
  5  4  2  0
  5  6  1  0
  6  7  1  0
  8  7  2  0
  9 10  2  0
  9  2  1  0
 11  9  1  0
 12 11  1  0
 13 14  1  0
 12 13  1  1
 14 18  1  0
 15 14  2  0
 15 16  1  0
 16 17  1  0
 18 17  2  0
 19 12  1  0
 19 26  1  0
 20 19  2  0
 22 21  1  6
 22 23  1  0
 24 22  1  0
 25 26  1  0
 25 24  1  1
 27 28  1  0
 27 25  1  0
 29 27  2  0
M  END
$$$$
