HHL.pdb
     RDKit          3D

 29 30  0  0  1  0  0  0  0  0999 V2000
    9.8572  -15.2308   19.5491 N   0  0  0  0  0  0  0  0  0  0  0  0
    8.5252  -14.8945   20.0096 C   0  0  1  0  0  0  0  0  0  0  0  0
    7.5376  -15.3106   18.9432 C   0  0  0  0  0  0  0  0  0  0  0  0
    7.8367  -14.5459   17.7148 C   0  0  0  0  0  0  0  0  0  0  0  0
    8.9081  -13.7114   17.4820 C   0  0  0  0  0  0  0  0  0  0  0  0
    8.8004  -13.2136   16.2324 N   0  0  0  0  0  0  0  0  0  0  0  0
    7.6814  -13.7432   15.7269 C   0  0  0  0  0  0  0  0  0  0  0  0
    7.0750  -14.5588   16.6098 N   0  0  0  0  0  0  0  0  0  0  0  0
    8.2595  -15.6034   21.2995 C   0  0  0  0  0  0  0  0  0  0  0  0
    7.1329  -15.4956   21.8492 O   0  0  0  0  0  0  0  0  0  0  0  0
    9.2912  -16.4056   21.9077 N   0  0  0  0  0  0  0  0  0  0  0  0
    9.0069  -16.9380   23.2088 C   0  0  1  0  0  0  0  0  0  0  0  0
    9.6278  -18.2720   23.4788 C   0  0  0  0  0  0  0  0  0  0  0  0
    9.0557  -19.3829   22.7225 C   0  0  0  0  0  0  0  0  0  0  0  0
    8.0218  -19.5042   21.8455 C   0  0  0  0  0  0  0  0  0  0  0  0
    7.9336  -20.7836   21.4098 N   0  0  0  0  0  0  0  0  0  0  0  0
    8.9033  -21.4602   22.0067 C   0  0  0  0  0  0  0  0  0  0  0  0
    9.5908  -20.6403   22.7999 N   0  0  0  0  0  0  0  0  0  0  0  0
    9.3594  -15.9821   24.2924 C   0  0  0  0  0  0  0  0  0  0  0  0
   10.4209  -15.3312   24.3637 O   0  0  0  0  0  0  0  0  0  0  0  0
    8.2518  -12.0301   26.0018 C   0  0  0  0  0  0  0  0  0  0  0  0
    7.1311  -13.0733   25.8988 C   0  0  2  0  0  0  0  0  0  0  0  0
    5.8442  -12.3846   26.2238 C   0  0  0  0  0  0  0  0  0  0  0  0
    7.4641  -14.1963   26.8267 C   0  0  0  0  0  0  0  0  0  0  0  0
    8.7429  -14.9260   26.4898 C   0  0  2  0  0  0  0  0  0  0  0  0
    8.4155  -15.7867   25.3375 N   0  0  0  0  0  0  0  0  0  0  0  0
    9.3077  -15.6976   27.5904 C   0  0  0  0  0  0  0  0  0  0  0  0
   10.0890  -15.1054   28.5599 O   0  0  0  0  0  0  0  0  0  0  0  0
    9.0878  -16.9276   27.6709 O   0  0  0  0  0  0  0  0  0  0  0  0
  2  3  1  0
  2  1  1  6
  3  4  1  0
  4  8  1  0
  5  4  2  0
  5  6  1  0
  6  7  1  0
  8  7  2  0
  9 10  2  0
  9  2  1  0
 11  9  1  0
 12 11  1  0
 13 14  1  0
 12 13  1  1
 14 18  1  0
 15 14  2  0
 15 16  1  0
 16 17  1  0
 18 17  2  0
 19 12  1  0
 19 26  1  0
 20 19  2  0
 22 21  1  1
 22 23  1  0
 24 22  1  0
 25 26  1  0
 25 24  1  1
 27 28  1  0
 27 25  1  0
 29 27  2  0
M  END
$$$$
