HHL.pdb
     RDKit          3D

 29 30  0  0  1  0  0  0  0  0999 V2000
   10.6227  -20.6152   22.6227 N   0  0  0  0  0  0  0  0  0  0  0  0
    9.5571  -19.8544   23.2431 C   0  0  1  0  0  0  0  0  0  0  0  0
    9.6818  -20.0027   24.7425 C   0  0  0  0  0  0  0  0  0  0  0  0
    9.3354  -21.3944   25.0981 C   0  0  0  0  0  0  0  0  0  0  0  0
    8.9472  -22.4087   24.2502 C   0  0  0  0  0  0  0  0  0  0  0  0
    8.7259  -23.5195   24.9834 N   0  0  0  0  0  0  0  0  0  0  0  0
    8.9782  -23.1734   26.2502 C   0  0  0  0  0  0  0  0  0  0  0  0
    9.3516  -21.8837   26.3478 N   0  0  0  0  0  0  0  0  0  0  0  0
    9.6734  -18.4217   22.8296 C   0  0  0  0  0  0  0  0  0  0  0  0
   10.8067  -17.9347   22.5817 O   0  0  0  0  0  0  0  0  0  0  0  0
    8.4909  -17.6053   22.7164 N   0  0  0  0  0  0  0  0  0  0  0  0
    8.6816  -16.2594   22.2587 C   0  0  1  0  0  0  0  0  0  0  0  0
    7.5741  -15.7372   21.3991 C   0  0  0  0  0  0  0  0  0  0  0  0
    7.7794  -14.3869   20.8817 C   0  0  0  0  0  0  0  0  0  0  0  0
    8.7668  -13.4588   21.0101 C   0  0  0  0  0  0  0  0  0  0  0  0
    8.4604  -12.3555   20.2867 N   0  0  0  0  0  0  0  0  0  0  0  0
    7.2916  -12.5879   19.7084 C   0  0  0  0  0  0  0  0  0  0  0  0
    6.8628  -13.8015   20.0507 N   0  0  0  0  0  0  0  0  0  0  0  0
    8.9429  -15.3196   23.3815 C   0  0  0  0  0  0  0  0  0  0  0  0
    9.3894  -14.1610   23.2642 O   0  0  0  0  0  0  0  0  0  0  0  0
    7.6568  -12.1106   25.8429 C   0  0  0  0  0  0  0  0  0  0  0  0
    6.8518  -13.3889   25.5730 C   0  0  2  0  0  0  0  0  0  0  0  0
    5.4357  -13.1210   25.9713 C   0  0  0  0  0  0  0  0  0  0  0  0
    7.4917  -14.5027   26.3365 C   0  0  0  0  0  0  0  0  0  0  0  0
    8.8741  -14.8754   25.8557 C   0  0  2  0  0  0  0  0  0  0  0  0
    8.6640  -15.7691   24.7012 N   0  0  0  0  0  0  0  0  0  0  0  0
    9.7194  -15.4983   26.8673 C   0  0  0  0  0  0  0  0  0  0  0  0
   10.2712  -16.7474   26.6764 O   0  0  0  0  0  0  0  0  0  0  0  0
    9.9588  -14.8982   27.9398 O   0  0  0  0  0  0  0  0  0  0  0  0
  2  3  1  0
  2  1  1  6
  3  4  1  0
  4  8  1  0
  5  4  2  0
  5  6  1  0
  6  7  1  0
  8  7  2  0
  9 10  2  0
  9  2  1  0
 11  9  1  0
 12 11  1  0
 13 14  1  0
 12 13  1  1
 14 18  1  0
 15 14  2  0
 15 16  1  0
 16 17  1  0
 18 17  2  0
 19 12  1  0
 19 26  1  0
 20 19  2  0
 22 21  1  1
 22 23  1  0
 24 22  1  0
 25 26  1  0
 25 24  1  1
 27 28  1  0
 27 25  1  0
 29 27  2  0
M  END
$$$$
