HHL.pdb
     RDKit          3D

 29 30  0  0  1  0  0  0  0  0999 V2000
    9.2006  -15.7690   19.9929 N   0  0  0  0  0  0  0  0  0  0  0  0
    8.3507  -14.7817   20.6271 C   0  0  1  0  0  0  0  0  0  0  0  0
    7.1817  -14.5052   19.7092 C   0  0  0  0  0  0  0  0  0  0  0  0
    7.7106  -14.2550   18.3523 C   0  0  0  0  0  0  0  0  0  0  0  0
    8.4846  -13.1954   17.9321 C   0  0  0  0  0  0  0  0  0  0  0  0
    8.7491  -13.3519   16.6183 N   0  0  0  0  0  0  0  0  0  0  0  0
    8.1419  -14.4880   16.2596 C   0  0  0  0  0  0  0  0  0  0  0  0
    7.5018  -15.0583   17.2976 N   0  0  0  0  0  0  0  0  0  0  0  0
    7.8884  -15.3094   21.9480 C   0  0  0  0  0  0  0  0  0  0  0  0
    7.0536  -14.6537   22.6235 O   0  0  0  0  0  0  0  0  0  0  0  0
    8.3987  -16.5635   22.4424 N   0  0  0  0  0  0  0  0  0  0  0  0
    8.0062  -16.9374   23.7704 C   0  0  1  0  0  0  0  0  0  0  0  0
    8.1970  -18.3875   24.0850 C   0  0  0  0  0  0  0  0  0  0  0  0
    7.6635  -18.8138   25.3760 C   0  0  0  0  0  0  0  0  0  0  0  0
    6.9346  -18.2059   26.3517 C   0  0  0  0  0  0  0  0  0  0  0  0
    6.6833  -19.0819   27.3538 N   0  0  0  0  0  0  0  0  0  0  0  0
    7.2484  -20.2297   27.0111 C   0  0  0  0  0  0  0  0  0  0  0  0
    7.8430  -20.0935   25.8271 N   0  0  0  0  0  0  0  0  0  0  0  0
    8.6683  -16.0990   24.8051 C   0  0  0  0  0  0  0  0  0  0  0  0
    9.8742  -15.7807   24.8131 O   0  0  0  0  0  0  0  0  0  0  0  0
    7.8956  -11.9513   25.8213 C   0  0  0  0  0  0  0  0  0  0  0  0
    6.7730  -12.9153   26.2275 C   0  0  2  0  0  0  0  0  0  0  0  0
    5.5998  -12.0884   26.6469 C   0  0  0  0  0  0  0  0  0  0  0  0
    7.3005  -13.8033   27.3075 C   0  0  0  0  0  0  0  0  0  0  0  0
    8.4412  -14.6961   26.8798 C   0  0  2  0  0  0  0  0  0  0  0  0
    7.8700  -15.6152   25.8775 N   0  0  0  0  0  0  0  0  0  0  0  0
    9.0818  -15.4235   27.9689 C   0  0  0  0  0  0  0  0  0  0  0  0
    8.9882  -16.7952   28.0730 O   0  0  0  0  0  0  0  0  0  0  0  0
    9.7351  -14.8027   28.8380 O   0  0  0  0  0  0  0  0  0  0  0  0
  2  3  1  0
  2  1  1  6
  3  4  1  0
  4  8  1  0
  5  4  2  0
  5  6  1  0
  6  7  1  0
  8  7  2  0
  9 10  2  0
  9  2  1  0
 11  9  1  0
 12 11  1  0
 13 14  1  0
 12 13  1  1
 14 18  1  0
 15 14  2  0
 15 16  1  0
 16 17  1  0
 18 17  2  0
 19 12  1  0
 19 26  1  0
 20 19  2  0
 22 21  1  1
 22 23  1  0
 24 22  1  0
 25 26  1  0
 25 24  1  1
 27 28  1  0
 27 25  1  0
 29 27  2  0
M  END
$$$$
