DIH.pdb
     RDKit          3D

 27 27  0  0  1  0  0  0  0  0999 V2000
   19.3871  -12.7662  -15.9317 N   0  0  0  0  0  0  0  0  0  0  0  0
   19.1336  -11.4025  -16.4884 C   0  0  1  0  0  0  0  0  0  0  0  0
   17.7497  -11.0350  -16.1284 C   0  0  0  0  0  0  0  0  0  0  0  0
   16.6836  -11.7268  -16.8600 C   0  0  0  0  0  0  0  0  0  0  0  0
   16.8454  -12.3629  -17.9291 O   0  0  0  0  0  0  0  0  0  0  0  0
   20.2142  -10.5956  -15.8805 C   0  0  0  0  0  0  0  0  0  0  0  0
   20.3076  -10.6046  -14.5932 O   0  0  0  0  0  0  0  0  0  0  0  0
   15.3932  -11.6680  -16.3186 O   0  0  0  0  0  0  0  0  0  0  0  0
   24.4093  -11.1799  -14.8130 C   0  0  0  0  0  0  0  0  0  0  0  0
   23.8254  -10.9132  -16.1837 C   0  0  0  0  0  0  0  0  0  0  0  0
   23.5007   -9.4657  -16.3137 C   0  0  2  0  0  0  0  0  0  0  0  0
   24.6479   -8.5713  -15.8845 C   0  0  0  0  0  0  0  0  0  0  0  0
   22.1901   -9.0254  -15.7489 C   0  0  2  0  0  0  0  0  0  0  0  0
   21.1719   -9.8004  -16.5148 N   0  0  0  0  0  0  0  0  0  0  0  0
   21.8791   -7.6010  -15.8329 C   0  0  0  0  0  0  0  0  0  0  0  0
   21.9168   -7.0404  -16.9892 O   0  0  0  0  0  0  0  0  0  0  0  0
   21.5299   -6.7435  -14.7814 N   0  0  0  0  0  0  0  0  0  0  0  0
   21.3107   -5.2890  -15.0029 C   0  0  1  0  0  0  0  0  0  0  0  0
   19.9371   -4.9209  -14.5774 C   0  0  0  0  0  0  0  0  0  0  0  0
   18.8463   -5.3442  -15.4695 C   0  0  0  0  0  0  0  0  0  0  0  0
   18.8289   -6.0094  -16.6644 C   0  0  0  0  0  0  0  0  0  0  0  0
   17.5690   -6.2424  -17.0893 N   0  0  0  0  0  0  0  0  0  0  0  0
   16.7862   -5.7182  -16.1484 C   0  0  0  0  0  0  0  0  0  0  0  0
   17.5135   -5.1780  -15.1742 N   0  0  0  0  0  0  0  0  0  0  0  0
   22.3697   -4.5724  -14.2114 C   0  0  0  0  0  0  0  0  0  0  0  0
   23.1598   -5.0822  -13.4118 O   0  0  0  0  0  0  0  0  0  0  0  0
   22.5191   -3.1724  -14.3584 O   0  0  0  0  0  0  0  0  0  0  0  0
  2  1  1  1
  2  3  1  0
  3  4  1  0
  4  5  2  0
  4  8  1  0
  6  2  1  0
  6  7  2  0
  9 10  1  0
 11 13  1  0
 11 10  1  0
 11 12  1  1
 13 14  1  6
 14  6  1  0
 15 13  1  0
 16 15  2  0
 17 15  1  0
 18 25  1  0
 18 17  1  0
 19 20  1  0
 18 19  1  1
 20 21  2  0
 21 22  1  0
 23 22  1  0
 24 20  1  0
 24 23  2  0
 25 27  1  0
 26 25  2  0
M  END
$$$$
