DIH.pdb
     RDKit          3D

 27 27  0  0  1  0  0  0  0  0999 V2000
   19.5626  -14.1664  -16.4203 N   0  0  0  0  0  0  0  0  0  0  0  0
   19.6134  -12.9407  -17.2742 C   0  0  1  0  0  0  0  0  0  0  0  0
   18.2274  -12.6354  -17.6813 C   0  0  0  0  0  0  0  0  0  0  0  0
   17.6570  -13.4866  -18.7304 C   0  0  0  0  0  0  0  0  0  0  0  0
   18.3142  -14.2853  -19.4402 O   0  0  0  0  0  0  0  0  0  0  0  0
   20.2785  -11.9563  -16.3929 C   0  0  0  0  0  0  0  0  0  0  0  0
   19.8290  -11.8405  -15.1886 O   0  0  0  0  0  0  0  0  0  0  0  0
   16.2766  -13.3948  -18.9493 O   0  0  0  0  0  0  0  0  0  0  0  0
   25.3085  -11.7674  -15.2912 C   0  0  0  0  0  0  0  0  0  0  0  0
   23.8010  -11.6806  -15.1879 C   0  0  0  0  0  0  0  0  0  0  0  0
   23.3442  -10.3491  -15.6737 C   0  0  2  0  0  0  0  0  0  0  0  0
   24.1005   -9.2036  -15.0287 C   0  0  0  0  0  0  0  0  0  0  0  0
   21.8685  -10.1200  -15.6950 C   0  0  2  0  0  0  0  0  0  0  0  0
   21.3495  -11.1076  -16.6844 N   0  0  0  0  0  0  0  0  0  0  0  0
   21.4125   -8.7817  -16.0609 C   0  0  0  0  0  0  0  0  0  0  0  0
   21.7413   -8.3253  -17.2168 O   0  0  0  0  0  0  0  0  0  0  0  0
   20.6346   -7.9081  -15.2898 N   0  0  0  0  0  0  0  0  0  0  0  0
   20.2579   -6.5573  -15.7857 C   0  0  1  0  0  0  0  0  0  0  0  0
   19.0116   -6.1092  -15.1152 C   0  0  0  0  0  0  0  0  0  0  0  0
   18.5658   -4.7411  -15.4219 C   0  0  0  0  0  0  0  0  0  0  0  0
   18.9820   -3.5107  -14.9936 C   0  0  0  0  0  0  0  0  0  0  0  0
   18.3119   -2.5134  -15.6087 N   0  0  0  0  0  0  0  0  0  0  0  0
   17.4657   -3.1258  -16.4345 C   0  0  0  0  0  0  0  0  0  0  0  0
   17.5918   -4.4473  -16.3472 N   0  0  0  0  0  0  0  0  0  0  0  0
   21.4247   -5.6547  -15.4938 C   0  0  0  0  0  0  0  0  0  0  0  0
   22.1310   -5.6716  -14.4817 O   0  0  0  0  0  0  0  0  0  0  0  0
   21.7938   -4.6680  -16.4395 O   0  0  0  0  0  0  0  0  0  0  0  0
  2  1  1  1
  2  3  1  0
  3  4  1  0
  4  5  2  0
  4  8  1  0
  6  2  1  0
  6  7  2  0
  9 10  1  0
 11 13  1  0
 11 10  1  0
 11 12  1  1
 13 14  1  6
 14  6  1  0
 15 13  1  0
 16 15  2  0
 17 15  1  0
 18 25  1  0
 18 17  1  0
 19 20  1  0
 18 19  1  1
 20 21  2  0
 21 22  1  0
 23 22  1  0
 24 20  1  0
 24 23  2  0
 25 27  1  0
 26 25  2  0
M  END
$$$$
