DIH.pdb
     RDKit          3D

 27 27  0  0  1  0  0  0  0  0999 V2000
   22.3047  -14.1047  -18.9929 N   0  0  0  0  0  0  0  0  0  0  0  0
   22.7699  -12.8057  -19.5675 C   0  0  1  0  0  0  0  0  0  0  0  0
   21.7017  -12.3173  -20.4621 C   0  0  0  0  0  0  0  0  0  0  0  0
   21.5028  -13.0689  -21.7056 C   0  0  0  0  0  0  0  0  0  0  0  0
   20.4599  -13.7001  -22.0015 O   0  0  0  0  0  0  0  0  0  0  0  0
   23.0473  -11.9958  -18.3612 C   0  0  0  0  0  0  0  0  0  0  0  0
   22.2320  -12.1143  -17.3676 O   0  0  0  0  0  0  0  0  0  0  0  0
   22.5599  -13.0774  -22.6245 O   0  0  0  0  0  0  0  0  0  0  0  0
   27.6409  -11.4733  -15.8665 C   0  0  0  0  0  0  0  0  0  0  0  0
   26.1729  -11.6192  -16.2050 C   0  0  0  0  0  0  0  0  0  0  0  0
   25.5967  -10.2803  -16.5103 C   0  0  2  0  0  0  0  0  0  0  0  0
   25.9266   -9.2490  -15.4484 C   0  0  0  0  0  0  0  0  0  0  0  0
   24.1573  -10.2514  -16.9078 C   0  0  2  0  0  0  0  0  0  0  0  0
   24.0902  -11.0935  -18.1367 N   0  0  0  0  0  0  0  0  0  0  0  0
   23.5742   -8.9415  -17.1852 C   0  0  0  0  0  0  0  0  0  0  0  0
   24.2217   -8.1418  -17.9560 O   0  0  0  0  0  0  0  0  0  0  0  0
   22.3597   -8.4328  -16.7066 N   0  0  0  0  0  0  0  0  0  0  0  0
   21.9325   -7.0375  -16.9947 C   0  0  1  0  0  0  0  0  0  0  0  0
   20.7419   -7.0530  -17.8812 C   0  0  0  0  0  0  0  0  0  0  0  0
   20.1649   -5.7416  -18.2154 C   0  0  0  0  0  0  0  0  0  0  0  0
   20.6612   -4.4682  -18.1644 C   0  0  0  0  0  0  0  0  0  0  0  0
   19.7777   -3.5669  -18.6431 N   0  0  0  0  0  0  0  0  0  0  0  0
   18.7143   -4.2841  -19.0005 C   0  0  0  0  0  0  0  0  0  0  0  0
   18.9126   -5.5773  -18.7596 N   0  0  0  0  0  0  0  0  0  0  0  0
   21.6514   -6.3939  -15.6649 C   0  0  0  0  0  0  0  0  0  0  0  0
   21.5128   -6.9729  -14.5837 O   0  0  0  0  0  0  0  0  0  0  0  0
   21.5223   -4.9863  -15.5874 O   0  0  0  0  0  0  0  0  0  0  0  0
  2  1  1  1
  2  3  1  0
  3  4  1  0
  4  5  2  0
  4  8  1  0
  6  2  1  0
  6  7  2  0
  9 10  1  0
 11 13  1  0
 11 10  1  0
 11 12  1  1
 13 14  1  6
 14  6  1  0
 15 13  1  0
 16 15  2  0
 17 15  1  0
 18 25  1  0
 18 17  1  0
 19 20  1  0
 18 19  1  6
 20 21  2  0
 21 22  1  0
 23 22  1  0
 24 20  1  0
 24 23  2  0
 25 27  1  0
 26 25  2  0
M  END
$$$$
