DIH.pdb
     RDKit          3D

 27 27  0  0  1  0  0  0  0  0999 V2000
   21.7406  -15.0460  -17.1850 N   0  0  0  0  0  0  0  0  0  0  0  0
   21.9373  -13.8743  -18.0918 C   0  0  1  0  0  0  0  0  0  0  0  0
   20.6538  -13.6370  -18.7820 C   0  0  0  0  0  0  0  0  0  0  0  0
   20.3096  -14.5776  -19.8531 C   0  0  0  0  0  0  0  0  0  0  0  0
   21.1298  -15.0691  -20.6652 O   0  0  0  0  0  0  0  0  0  0  0  0
   22.3977  -12.8176  -17.1647 C   0  0  0  0  0  0  0  0  0  0  0  0
   21.6942  -12.6143  -16.1019 O   0  0  0  0  0  0  0  0  0  0  0  0
   18.9643  -14.9492  -19.9709 O   0  0  0  0  0  0  0  0  0  0  0  0
   27.3698  -12.2291  -15.6480 C   0  0  0  0  0  0  0  0  0  0  0  0
   25.8594  -12.3147  -15.6945 C   0  0  0  0  0  0  0  0  0  0  0  0
   25.2976  -10.9935  -16.0905 C   0  0  2  0  0  0  0  0  0  0  0  0
   25.8317   -9.8561  -15.2413 C   0  0  0  0  0  0  0  0  0  0  0  0
   23.8162  -10.9278  -16.2681 C   0  0  2  0  0  0  0  0  0  0  0  0
   23.5120  -11.9822  -17.2778 N   0  0  0  0  0  0  0  0  0  0  0  0
   23.2598   -9.6537  -16.7151 C   0  0  0  0  0  0  0  0  0  0  0  0
   23.7574   -9.1128  -17.7699 O   0  0  0  0  0  0  0  0  0  0  0  0
   22.2179   -8.9268  -16.1244 N   0  0  0  0  0  0  0  0  0  0  0  0
   21.7525   -7.6327  -16.6911 C   0  0  1  0  0  0  0  0  0  0  0  0
   20.3234   -7.7422  -17.0774 C   0  0  0  0  0  0  0  0  0  0  0  0
   19.6690   -6.4950  -17.5028 C   0  0  0  0  0  0  0  0  0  0  0  0
   19.7975   -5.7118  -18.6166 C   0  0  0  0  0  0  0  0  0  0  0  0
   18.9265   -4.6806  -18.6068 N   0  0  0  0  0  0  0  0  0  0  0  0
   18.2418   -4.8196  -17.4732 C   0  0  0  0  0  0  0  0  0  0  0  0
   18.6584   -5.8863  -16.7962 N   0  0  0  0  0  0  0  0  0  0  0  0
   21.9834   -6.5938  -15.6287 C   0  0  0  0  0  0  0  0  0  0  0  0
   22.0885   -6.7950  -14.4155 O   0  0  0  0  0  0  0  0  0  0  0  0
   22.0986   -5.2328  -16.0008 O   0  0  0  0  0  0  0  0  0  0  0  0
  2  1  1  1
  2  3  1  0
  3  4  1  0
  4  5  2  0
  4  8  1  0
  6  2  1  0
  6  7  2  0
  9 10  1  0
 11 13  1  0
 11 10  1  0
 11 12  1  1
 13 14  1  6
 14  6  1  0
 15 13  1  0
 16 15  2  0
 17 15  1  0
 18 25  1  0
 18 17  1  0
 19 20  1  0
 18 19  1  1
 20 21  2  0
 21 22  1  0
 23 22  1  0
 24 20  1  0
 24 23  2  0
 25 27  1  0
 26 25  2  0
M  END
$$$$
