DIH.pdb
     RDKit          3D

 27 27  0  0  1  0  0  0  0  0999 V2000
   19.0605  -15.1688  -16.8645 N   0  0  0  0  0  0  0  0  0  0  0  0
   19.0526  -13.8785  -17.6188 C   0  0  1  0  0  0  0  0  0  0  0  0
   17.6622  -13.6354  -18.0521 C   0  0  0  0  0  0  0  0  0  0  0  0
   17.1558  -14.5001  -19.1228 C   0  0  0  0  0  0  0  0  0  0  0  0
   17.7173  -14.6699  -20.2317 O   0  0  0  0  0  0  0  0  0  0  0  0
   19.6193  -12.9249  -16.6403 C   0  0  0  0  0  0  0  0  0  0  0  0
   19.1237  -12.9343  -15.4486 O   0  0  0  0  0  0  0  0  0  0  0  0
   15.9568  -15.1828  -18.8812 O   0  0  0  0  0  0  0  0  0  0  0  0
   24.2954  -13.1539  -15.0943 C   0  0  0  0  0  0  0  0  0  0  0  0
   22.8026  -12.9150  -15.1680 C   0  0  0  0  0  0  0  0  0  0  0  0
   22.5428  -11.4915  -15.5201 C   0  0  2  0  0  0  0  0  0  0  0  0
   23.2843  -10.5242  -14.6175 C   0  0  0  0  0  0  0  0  0  0  0  0
   21.1136  -11.1065  -15.7194 C   0  0  2  0  0  0  0  0  0  0  0  0
   20.6383  -11.9870  -16.8252 N   0  0  0  0  0  0  0  0  0  0  0  0
   20.8460   -9.7121  -16.0610 C   0  0  0  0  0  0  0  0  0  0  0  0
   21.2578   -9.2779  -17.1988 O   0  0  0  0  0  0  0  0  0  0  0  0
   20.1729   -8.7604  -15.2837 N   0  0  0  0  0  0  0  0  0  0  0  0
   19.9813   -7.3633  -15.7570 C   0  0  1  0  0  0  0  0  0  0  0  0
   18.5865   -6.9323  -15.4881 C   0  0  0  0  0  0  0  0  0  0  0  0
   17.5502   -7.5081  -16.3594 C   0  0  0  0  0  0  0  0  0  0  0  0
   17.5945   -8.4198  -17.3780 C   0  0  0  0  0  0  0  0  0  0  0  0
   16.3623   -8.7018  -17.8515 N   0  0  0  0  0  0  0  0  0  0  0  0
   15.5343   -7.9588  -17.1198 C   0  0  0  0  0  0  0  0  0  0  0  0
   16.2081   -7.2396  -16.2260 N   0  0  0  0  0  0  0  0  0  0  0  0
   20.9937   -6.5232  -15.0285 C   0  0  0  0  0  0  0  0  0  0  0  0
   21.7365   -6.8954  -14.1158 O   0  0  0  0  0  0  0  0  0  0  0  0
   21.1519   -5.1619  -15.3835 O   0  0  0  0  0  0  0  0  0  0  0  0
  2  1  1  1
  2  3  1  0
  3  4  1  0
  4  5  2  0
  4  8  1  0
  6  2  1  0
  6  7  2  0
  9 10  1  0
 11 13  1  0
 11 10  1  0
 11 12  1  1
 13 14  1  6
 14  6  1  0
 15 13  1  0
 16 15  2  0
 17 15  1  0
 18 25  1  0
 18 17  1  0
 19 20  1  0
 18 19  1  1
 20 21  2  0
 21 22  1  0
 23 22  1  0
 24 20  1  0
 24 23  2  0
 25 27  1  0
 26 25  2  0
M  END
$$$$
