DIH.pdb
     RDKit          3D

 27 27  0  0  1  0  0  0  0  0999 V2000
   27.6972  -21.4727  -16.2543 N   0  0  0  0  0  0  0  0  0  0  0  0
   27.1779  -20.2242  -15.6176 C   0  0  1  0  0  0  0  0  0  0  0  0
   26.6414  -19.3740  -16.6989 C   0  0  0  0  0  0  0  0  0  0  0  0
   27.6309  -18.7220  -17.5628 C   0  0  0  0  0  0  0  0  0  0  0  0
   28.8711  -18.7466  -17.3761 O   0  0  0  0  0  0  0  0  0  0  0  0
   26.2019  -20.7412  -14.6335 C   0  0  0  0  0  0  0  0  0  0  0  0
   25.5178  -21.7831  -14.9688 O   0  0  0  0  0  0  0  0  0  0  0  0
   27.1470  -18.0225  -18.6757 O   0  0  0  0  0  0  0  0  0  0  0  0
   26.8501  -20.6033   -9.2956 C   0  0  0  0  0  0  0  0  0  0  0  0
   26.4972  -21.1380  -10.6668 C   0  0  0  0  0  0  0  0  0  0  0  0
   25.2126  -20.5365  -11.1205 C   0  0  2  0  0  0  0  0  0  0  0  0
   24.0840  -20.7612  -10.1326 C   0  0  0  0  0  0  0  0  0  0  0  0
   24.8055  -20.8229  -12.5286 C   0  0  2  0  0  0  0  0  0  0  0  0
   25.9022  -20.2494  -13.3605 N   0  0  0  0  0  0  0  0  0  0  0  0
   23.5253  -20.2768  -12.9708 C   0  0  0  0  0  0  0  0  0  0  0  0
   23.3311  -19.0121  -12.8454 O   0  0  0  0  0  0  0  0  0  0  0  0
   22.4515  -20.9774  -13.5356 N   0  0  0  0  0  0  0  0  0  0  0  0
   21.1770  -20.2965  -13.8886 C   0  0  1  0  0  0  0  0  0  0  0  0
   20.8961  -20.4817  -15.3344 C   0  0  0  0  0  0  0  0  0  0  0  0
   19.6446  -19.8903  -15.8330 C   0  0  0  0  0  0  0  0  0  0  0  0
   18.6948  -19.0978  -15.2496 C   0  0  0  0  0  0  0  0  0  0  0  0
   17.7366  -18.7352  -16.1285 N   0  0  0  0  0  0  0  0  0  0  0  0
   18.0904  -19.3063  -17.2781 C   0  0  0  0  0  0  0  0  0  0  0  0
   19.2178  -19.9982  -17.1358 N   0  0  0  0  0  0  0  0  0  0  0  0
   20.1136  -20.9009  -13.0137 C   0  0  0  0  0  0  0  0  0  0  0  0
   20.0911  -22.0547  -12.5761 O   0  0  0  0  0  0  0  0  0  0  0  0
   19.0043  -20.1130  -12.6232 O   0  0  0  0  0  0  0  0  0  0  0  0
  2  1  1  6
  2  3  1  0
  3  4  1  0
  4  5  2  0
  4  8  1  0
  6  2  1  0
  6  7  2  0
  9 10  1  0
 11 13  1  0
 11 10  1  0
 11 12  1  1
 13 14  1  6
 14  6  1  0
 15 13  1  0
 16 15  2  0
 17 15  1  0
 18 25  1  0
 18 17  1  0
 19 20  1  0
 18 19  1  6
 20 21  2  0
 21 22  1  0
 23 22  1  0
 24 20  1  0
 24 23  2  0
 25 27  1  0
 26 25  2  0
M  END
$$$$
