DFY.pdb
     RDKit          3D

 32 33  0  0  1  0  0  0  0  0999 V2000
   24.5792  -10.6279  -20.6179 N   0  0  0  0  0  0  0  0  0  0  0  0
   24.2213   -9.1555  -20.5784 C   0  0  1  0  0  0  0  0  0  0  0  0
   23.3463   -8.9451  -21.7666 C   0  0  0  0  0  0  0  0  0  0  0  0
   24.0007   -8.7778  -23.0406 C   0  0  0  0  0  0  0  0  0  0  0  0
   23.4363   -8.9043  -24.1355 O   0  0  0  0  0  0  0  0  0  0  0  0
   23.5557   -8.9988  -19.2676 C   0  0  0  0  0  0  0  0  0  0  0  0
   22.5889   -9.8003  -18.9776 O   0  0  0  0  0  0  0  0  0  0  0  0
   25.3794   -8.4470  -23.0870 O   0  0  0  0  0  0  0  0  0  0  0  0
   23.8538   -8.0627  -18.2626 N   0  0  0  0  0  0  0  0  0  0  0  0
   23.0765   -7.9754  -17.0216 C   0  0  1  0  0  0  0  0  0  0  0  0
   24.0577   -7.8964  -15.8857 C   0  0  0  0  0  0  0  0  0  0  0  0
   23.3895   -7.8840  -14.5756 C   0  0  0  0  0  0  0  0  0  0  0  0
   23.1563   -9.0441  -13.8727 C   0  0  0  0  0  0  0  0  0  0  0  0
   22.5308   -9.0637  -12.6401 C   0  0  0  0  0  0  0  0  0  0  0  0
   22.1313   -7.8509  -12.1116 C   0  0  0  0  0  0  0  0  0  0  0  0
   22.3605   -6.6815  -12.8088 C   0  0  0  0  0  0  0  0  0  0  0  0
   22.9849   -6.6758  -14.0362 C   0  0  0  0  0  0  0  0  0  0  0  0
   22.0773   -6.8926  -17.0422 C   0  0  0  0  0  0  0  0  0  0  0  0
   22.3990   -5.7422  -17.4082 O   0  0  0  0  0  0  0  0  0  0  0  0
   14.6208   -2.3603  -17.5845 O   0  0  0  0  0  0  0  0  0  0  0  0
   15.5512   -3.3949  -17.4990 C   0  0  0  0  0  0  0  0  0  0  0  0
   15.5026   -4.3186  -16.4732 C   0  0  0  0  0  0  0  0  0  0  0  0
   16.4411   -5.3334  -16.4173 C   0  0  0  0  0  0  0  0  0  0  0  0
   17.4472   -5.4813  -17.3478 C   0  0  0  0  0  0  0  0  0  0  0  0
   18.4413   -6.5666  -17.2718 C   0  0  0  0  0  0  0  0  0  0  0  0
   19.7040   -6.0869  -16.6825 C   0  0  2  0  0  0  0  0  0  0  0  0
   20.7485   -7.0958  -16.6612 N   0  0  0  0  0  0  0  0  0  0  0  0
   19.5535   -5.5212  -15.3519 C   0  0  0  0  0  0  0  0  0  0  0  0
   19.4970   -6.3009  -14.3539 O   0  0  0  0  0  0  0  0  0  0  0  0
   17.4947   -4.5572  -18.3730 C   0  0  0  0  0  0  0  0  0  0  0  0
   16.5605   -3.5446  -18.4311 C   0  0  0  0  0  0  0  0  0  0  0  0
   19.4664   -4.1745  -15.0667 O   0  0  0  0  0  0  0  0  0  0  0  0
  2  1  1  6
  2  3  1  0
  3  4  1  0
  4  5  2  0
  4  8  1  0
  6  2  1  0
  7  6  2  0
  9  6  1  0
 10  9  1  0
 11 12  1  0
 10 11  1  1
 12 17  1  0
 13 12  2  0
 14 13  1  0
 14 15  2  0
 15 16  1  0
 17 16  2  0
 18 10  1  0
 18 19  2  0
 21 20  1  0
 21 31  2  0
 22 21  1  0
 23 22  2  0
 23 24  1  0
 24 30  2  0
 25 24  1  0
 26 25  1  1
 26 27  1  0
 27 18  1  0
 28 32  1  0
 28 26  1  0
 29 28  2  0
 30 31  1  0
M  END
$$$$
