DFY.pdb
     RDKit          3D

 32 33  0  0  1  0  0  0  0  0999 V2000
   29.5653  -23.0352  -17.2429 N   0  0  0  0  0  0  0  0  0  0  0  0
   28.1283  -23.1177  -17.7185 C   0  0  1  0  0  0  0  0  0  0  0  0
   27.7388  -24.5406  -17.5054 C   0  0  0  0  0  0  0  0  0  0  0  0
   27.6010  -25.3651  -18.6804 C   0  0  0  0  0  0  0  0  0  0  0  0
   27.7446  -24.9549  -19.8399 O   0  0  0  0  0  0  0  0  0  0  0  0
   27.4269  -22.1356  -16.8646 C   0  0  0  0  0  0  0  0  0  0  0  0
   27.9053  -21.8998  -15.6912 O   0  0  0  0  0  0  0  0  0  0  0  0
   27.2808  -26.7402  -18.5432 O   0  0  0  0  0  0  0  0  0  0  0  0
   26.2724  -21.3984  -17.1788 N   0  0  0  0  0  0  0  0  0  0  0  0
   25.7437  -20.3588  -16.2890 C   0  0  1  0  0  0  0  0  0  0  0  0
   25.8990  -19.0432  -16.9992 C   0  0  0  0  0  0  0  0  0  0  0  0
   27.3073  -18.6322  -17.1036 C   0  0  0  0  0  0  0  0  0  0  0  0
   28.0323  -18.8249  -18.2575 C   0  0  0  0  0  0  0  0  0  0  0  0
   29.3566  -18.4494  -18.3851 C   0  0  0  0  0  0  0  0  0  0  0  0
   29.9564  -17.8561  -17.2906 C   0  0  0  0  0  0  0  0  0  0  0  0
   29.2378  -17.6584  -16.1285 C   0  0  0  0  0  0  0  0  0  0  0  0
   27.9188  -18.0371  -16.0144 C   0  0  0  0  0  0  0  0  0  0  0  0
   24.3759  -20.6422  -15.8200 C   0  0  0  0  0  0  0  0  0  0  0  0
   23.4874  -20.9820  -16.6299 O   0  0  0  0  0  0  0  0  0  0  0  0
   17.2492  -21.2049  -10.6336 O   0  0  0  0  0  0  0  0  0  0  0  0
   18.5629  -21.1067  -11.0897 C   0  0  0  0  0  0  0  0  0  0  0  0
   19.2271  -22.2044  -11.6012 C   0  0  0  0  0  0  0  0  0  0  0  0
   20.5306  -22.0732  -12.0456 C   0  0  0  0  0  0  0  0  0  0  0  0
   21.2235  -20.8822  -12.0070 C   0  0  0  0  0  0  0  0  0  0  0  0
   22.6134  -20.7603  -12.4815 C   0  0  0  0  0  0  0  0  0  0  0  0
   22.6665  -20.6992  -13.9530 C   0  0  2  0  0  0  0  0  0  0  0  0
   24.0136  -20.5466  -14.4740 N   0  0  0  0  0  0  0  0  0  0  0  0
   21.8084  -19.6773  -14.5296 C   0  0  0  0  0  0  0  0  0  0  0  0
   22.2346  -18.4857  -14.6049 O   0  0  0  0  0  0  0  0  0  0  0  0
   20.5583  -19.7854  -11.4953 C   0  0  0  0  0  0  0  0  0  0  0  0
   19.2590  -19.9135  -11.0518 C   0  0  0  0  0  0  0  0  0  0  0  0
   20.5367  -19.8916  -15.0191 O   0  0  0  0  0  0  0  0  0  0  0  0
  2  1  1  1
  2  3  1  0
  3  4  1  0
  4  5  2  0
  4  8  1  0
  6  2  1  0
  7  6  2  0
  9  6  1  0
 10  9  1  0
 11 12  1  0
 10 11  1  6
 12 17  1  0
 13 12  2  0
 14 13  1  0
 14 15  2  0
 15 16  1  0
 17 16  2  0
 18 10  1  0
 18 19  2  0
 21 20  1  0
 21 31  2  0
 22 21  1  0
 23 22  2  0
 23 24  1  0
 24 30  2  0
 25 24  1  0
 26 25  1  1
 26 27  1  0
 27 18  1  0
 28 32  1  0
 28 26  1  0
 29 28  2  0
 30 31  1  0
M  END
$$$$
