DFY.pdb
     RDKit          3D

 32 33  0  0  1  0  0  0  0  0999 V2000
   25.2795  -12.2787  -20.0104 N   0  0  0  0  0  0  0  0  0  0  0  0
   25.2695  -10.7629  -20.0118 C   0  0  1  0  0  0  0  0  0  0  0  0
   24.3371  -10.3902  -21.1134 C   0  0  0  0  0  0  0  0  0  0  0  0
   24.8561  -10.4447  -22.4576 C   0  0  0  0  0  0  0  0  0  0  0  0
   24.1952  -10.1800  -23.4707 O   0  0  0  0  0  0  0  0  0  0  0  0
   24.8076  -10.4211  -18.6497 C   0  0  0  0  0  0  0  0  0  0  0  0
   23.8459  -11.1136  -18.1429 O   0  0  0  0  0  0  0  0  0  0  0  0
   26.2059  -10.8215  -22.6775 O   0  0  0  0  0  0  0  0  0  0  0  0
   25.3007   -9.4102  -17.8071 N   0  0  0  0  0  0  0  0  0  0  0  0
   24.7565   -9.1783  -16.4647 C   0  0  1  0  0  0  0  0  0  0  0  0
   25.9051   -9.2571  -15.4984 C   0  0  0  0  0  0  0  0  0  0  0  0
   26.5235  -10.5914  -15.4796 C   0  0  0  0  0  0  0  0  0  0  0  0
   27.6904  -10.8564  -16.1595 C   0  0  0  0  0  0  0  0  0  0  0  0
   28.2945  -12.0998  -16.1604 C   0  0  0  0  0  0  0  0  0  0  0  0
   27.6792  -13.1049  -15.4387 C   0  0  0  0  0  0  0  0  0  0  0  0
   26.5083  -12.8494  -14.7534 C   0  0  0  0  0  0  0  0  0  0  0  0
   25.9167  -11.6060  -14.7606 C   0  0  0  0  0  0  0  0  0  0  0  0
   23.9624   -7.9407  -16.3703 C   0  0  0  0  0  0  0  0  0  0  0  0
   24.4475   -6.8488  -16.7356 O   0  0  0  0  0  0  0  0  0  0  0  0
   17.3909  -10.9646  -17.9095 O   0  0  0  0  0  0  0  0  0  0  0  0
   18.2887   -9.9122  -17.7370 C   0  0  0  0  0  0  0  0  0  0  0  0
   19.5343   -9.9286  -18.3336 C   0  0  0  0  0  0  0  0  0  0  0  0
   20.4018   -8.8681  -18.1423 C   0  0  0  0  0  0  0  0  0  0  0  0
   20.0892   -7.7685  -17.3722 C   0  0  0  0  0  0  0  0  0  0  0  0
   21.0265   -6.6483  -17.1759 C   0  0  0  0  0  0  0  0  0  0  0  0
   21.7575   -6.7869  -15.9038 C   0  0  2  0  0  0  0  0  0  0  0  0
   22.6551   -7.9284  -15.8777 N   0  0  0  0  0  0  0  0  0  0  0  0
   20.8967   -6.8241  -14.7330 C   0  0  0  0  0  0  0  0  0  0  0  0
   20.8756   -7.8701  -14.0169 O   0  0  0  0  0  0  0  0  0  0  0  0
   18.8435   -7.7533  -16.7763 C   0  0  0  0  0  0  0  0  0  0  0  0
   17.9768   -8.8090  -16.9654 C   0  0  0  0  0  0  0  0  0  0  0  0
   20.0785   -5.7950  -14.3157 O   0  0  0  0  0  0  0  0  0  0  0  0
  2  1  1  1
  2  3  1  0
  3  4  1  0
  4  5  2  0
  4  8  1  0
  6  2  1  0
  7  6  2  0
  9  6  1  0
 10  9  1  0
 11 12  1  0
 10 11  1  1
 12 17  1  0
 13 12  2  0
 14 13  1  0
 14 15  2  0
 15 16  1  0
 17 16  2  0
 18 10  1  0
 18 19  2  0
 21 20  1  0
 21 31  2  0
 22 21  1  0
 23 22  2  0
 23 24  1  0
 24 30  2  0
 25 24  1  0
 26 25  1  6
 26 27  1  0
 27 18  1  0
 28 32  1  0
 28 26  1  0
 29 28  2  0
 30 31  1  0
M  END
$$$$
