DFY.pdb
     RDKit          3D

 32 33  0  0  1  0  0  0  0  0999 V2000
   26.9457  -40.4728   -9.2767 N   0  0  0  0  0  0  0  0  0  0  0  0
   25.6887  -39.6284   -9.3470 C   0  0  1  0  0  0  0  0  0  0  0  0
   24.5743  -40.5838   -9.0881 C   0  0  0  0  0  0  0  0  0  0  0  0
   23.2512  -40.0264   -8.9548 C   0  0  0  0  0  0  0  0  0  0  0  0
   22.5180  -40.1998   -7.9720 O   0  0  0  0  0  0  0  0  0  0  0  0
   25.9020  -38.6071   -8.2996 C   0  0  0  0  0  0  0  0  0  0  0  0
   26.4455  -38.9779   -7.1913 O   0  0  0  0  0  0  0  0  0  0  0  0
   22.7171  -39.2217   -9.9938 O   0  0  0  0  0  0  0  0  0  0  0  0
   25.5836  -37.2396   -8.3600 N   0  0  0  0  0  0  0  0  0  0  0  0
   25.8200  -36.3323   -7.2317 C   0  0  1  0  0  0  0  0  0  0  0  0
   26.1061  -34.9728   -7.8054 C   0  0  0  0  0  0  0  0  0  0  0  0
   26.3977  -33.9801   -6.7601 C   0  0  0  0  0  0  0  0  0  0  0  0
   27.5504  -34.0381   -6.0104 C   0  0  0  0  0  0  0  0  0  0  0  0
   27.8515  -33.1200   -5.0217 C   0  0  0  0  0  0  0  0  0  0  0  0
   26.9378  -32.1082   -4.7956 C   0  0  0  0  0  0  0  0  0  0  0  0
   25.7785  -32.0412   -5.5422 C   0  0  0  0  0  0  0  0  0  0  0  0
   25.4905  -32.9623   -6.5245 C   0  0  0  0  0  0  0  0  0  0  0  0
   24.7362  -36.3587   -6.2338 C   0  0  0  0  0  0  0  0  0  0  0  0
   23.5503  -36.1793   -6.5834 O   0  0  0  0  0  0  0  0  0  0  0  0
   19.5336  -35.8398    0.6611 O   0  0  0  0  0  0  0  0  0  0  0  0
   20.4327  -36.2246   -0.3324 C   0  0  0  0  0  0  0  0  0  0  0  0
   21.5220  -37.0226   -0.0420 C   0  0  0  0  0  0  0  0  0  0  0  0
   22.3954  -37.3867   -1.0512 C   0  0  0  0  0  0  0  0  0  0  0  0
   22.2394  -36.9903   -2.3621 C   0  0  0  0  0  0  0  0  0  0  0  0
   23.1812  -37.3845   -3.4249 C   0  0  0  0  0  0  0  0  0  0  0  0
   24.0606  -36.2615   -3.7956 C   0  0  2  0  0  0  0  0  0  0  0  0
   24.9773  -36.5812   -4.8757 N   0  0  0  0  0  0  0  0  0  0  0  0
   24.8071  -35.7066   -2.6784 C   0  0  0  0  0  0  0  0  0  0  0  0
   24.1865  -35.3918   -1.6187 O   0  0  0  0  0  0  0  0  0  0  0  0
   21.1498  -36.1924   -2.6511 C   0  0  0  0  0  0  0  0  0  0  0  0
   20.2777  -35.8281   -1.6471 C   0  0  0  0  0  0  0  0  0  0  0  0
   26.1687  -35.4870   -2.6639 O   0  0  0  0  0  0  0  0  0  0  0  0
  2  1  1  1
  2  3  1  0
  3  4  1  0
  4  5  2  0
  4  8  1  0
  6  2  1  0
  7  6  2  0
  9  6  1  0
 10  9  1  0
 11 12  1  0
 10 11  1  6
 12 17  1  0
 13 12  2  0
 14 13  1  0
 14 15  2  0
 15 16  1  0
 17 16  2  0
 18 10  1  0
 18 19  2  0
 21 20  1  0
 21 31  2  0
 22 21  1  0
 23 22  2  0
 23 24  1  0
 24 30  2  0
 25 24  1  0
 26 25  1  1
 26 27  1  0
 27 18  1  0
 28 32  1  0
 28 26  1  0
 29 28  2  0
 30 31  1  0
M  END
$$$$
