DFY.pdb
     RDKit          3D

 32 33  0  0  1  0  0  0  0  0999 V2000
   19.0140  -10.7691  -15.4114 N   0  0  0  0  0  0  0  0  0  0  0  0
   18.1683   -9.5114  -15.3809 C   0  0  1  0  0  0  0  0  0  0  0  0
   16.7652   -9.9935  -15.5244 C   0  0  0  0  0  0  0  0  0  0  0  0
   16.3319  -10.3637  -16.8489 C   0  0  0  0  0  0  0  0  0  0  0  0
   15.6714  -11.3787  -17.1074 O   0  0  0  0  0  0  0  0  0  0  0  0
   18.4985   -8.9071  -14.0727 C   0  0  0  0  0  0  0  0  0  0  0  0
   18.3283   -9.6213  -13.0134 O   0  0  0  0  0  0  0  0  0  0  0  0
   16.6628   -9.5396  -17.9551 O   0  0  0  0  0  0  0  0  0  0  0  0
   18.9948   -7.6154  -13.8273 N   0  0  0  0  0  0  0  0  0  0  0  0
   19.2629   -7.1267  -12.4704 C   0  0  1  0  0  0  0  0  0  0  0  0
   20.7040   -6.7020  -12.4262 C   0  0  0  0  0  0  0  0  0  0  0  0
   21.6224   -7.8489  -12.4916 C   0  0  0  0  0  0  0  0  0  0  0  0
   22.2406   -8.2132  -13.6661 C   0  0  0  0  0  0  0  0  0  0  0  0
   23.1079   -9.2857  -13.7582 C   0  0  0  0  0  0  0  0  0  0  0  0
   23.3484  -10.0084  -12.6051 C   0  0  0  0  0  0  0  0  0  0  0  0
   22.7331   -9.6512  -11.4219 C   0  0  0  0  0  0  0  0  0  0  0  0
   21.8710   -8.5803  -11.3436 C   0  0  0  0  0  0  0  0  0  0  0  0
   18.3079   -6.0945  -12.0301 C   0  0  0  0  0  0  0  0  0  0  0  0
   17.9811   -5.1661  -12.7996 O   0  0  0  0  0  0  0  0  0  0  0  0
   13.3176  -10.3177   -8.6909 O   0  0  0  0  0  0  0  0  0  0  0  0
   13.8244   -9.1327   -9.2224 C   0  0  0  0  0  0  0  0  0  0  0  0
   14.4198   -9.1040  -10.4683 C   0  0  0  0  0  0  0  0  0  0  0  0
   14.9126   -7.9114  -10.9669 C   0  0  0  0  0  0  0  0  0  0  0  0
   14.8431   -6.7202  -10.2769 C   0  0  0  0  0  0  0  0  0  0  0  0
   15.3762   -5.4587  -10.8213 C   0  0  0  0  0  0  0  0  0  0  0  0
   16.7196   -5.1769  -10.2848 C   0  0  2  0  0  0  0  0  0  0  0  0
   17.7333   -6.1038  -10.7566 N   0  0  0  0  0  0  0  0  0  0  0  0
   16.7695   -5.1060   -8.8338 C   0  0  0  0  0  0  0  0  0  0  0  0
   17.5591   -5.8742   -8.2064 O   0  0  0  0  0  0  0  0  0  0  0  0
   14.2475   -6.7503   -9.0312 C   0  0  0  0  0  0  0  0  0  0  0  0
   13.7554   -7.9376   -8.5319 C   0  0  0  0  0  0  0  0  0  0  0  0
   16.0166   -4.2531   -8.0539 O   0  0  0  0  0  0  0  0  0  0  0  0
  2  1  1  1
  2  3  1  0
  3  4  1  0
  4  5  2  0
  4  8  1  0
  6  2  1  0
  7  6  2  0
  9  6  1  0
 10  9  1  0
 11 12  1  0
 10 11  1  6
 12 17  1  0
 13 12  2  0
 14 13  1  0
 14 15  2  0
 15 16  1  0
 17 16  2  0
 18 10  1  0
 18 19  2  0
 21 20  1  0
 21 31  2  0
 22 21  1  0
 23 22  2  0
 23 24  1  0
 24 30  2  0
 25 24  1  0
 26 25  1  1
 26 27  1  0
 27 18  1  0
 28 32  1  0
 28 26  1  0
 29 28  2  0
 30 31  1  0
M  END
$$$$
