DFY.pdb
     RDKit          3D

 32 33  0  0  1  0  0  0  0  0999 V2000
   18.1453   -8.1355  -20.6911 N   0  0  0  0  0  0  0  0  0  0  0  0
   17.5995   -7.8678  -19.3025 C   0  0  1  0  0  0  0  0  0  0  0  0
   17.6484   -9.1888  -18.6139 C   0  0  0  0  0  0  0  0  0  0  0  0
   16.5871  -10.1199  -18.9068 C   0  0  0  0  0  0  0  0  0  0  0  0
   16.6851  -11.3484  -18.7861 O   0  0  0  0  0  0  0  0  0  0  0  0
   18.5167   -6.8404  -18.7651 C   0  0  0  0  0  0  0  0  0  0  0  0
   19.7851   -7.0394  -18.8785 O   0  0  0  0  0  0  0  0  0  0  0  0
   15.3338   -9.6390  -19.3654 O   0  0  0  0  0  0  0  0  0  0  0  0
   18.1736   -5.6339  -18.1312 N   0  0  0  0  0  0  0  0  0  0  0  0
   19.1842   -4.7377  -17.5590 C   0  0  1  0  0  0  0  0  0  0  0  0
   18.7887   -3.3328  -17.9181 C   0  0  0  0  0  0  0  0  0  0  0  0
   19.0852   -3.0153  -19.3232 C   0  0  0  0  0  0  0  0  0  0  0  0
   20.3186   -2.5446  -19.7126 C   0  0  0  0  0  0  0  0  0  0  0  0
   20.6263   -2.2376  -21.0249 C   0  0  0  0  0  0  0  0  0  0  0  0
   19.6339   -2.4202  -21.9690 C   0  0  0  0  0  0  0  0  0  0  0  0
   18.3933   -2.8918  -21.5886 C   0  0  0  0  0  0  0  0  0  0  0  0
   18.0995   -3.1940  -20.2777 C   0  0  0  0  0  0  0  0  0  0  0  0
   19.4042   -4.9614  -16.1192 C   0  0  0  0  0  0  0  0  0  0  0  0
   18.5520   -4.5906  -15.2843 O   0  0  0  0  0  0  0  0  0  0  0  0
   23.8516  -10.9511  -16.6101 O   0  0  0  0  0  0  0  0  0  0  0  0
   23.0371  -10.0499  -15.9259 C   0  0  0  0  0  0  0  0  0  0  0  0
   23.2489   -9.7642  -14.5912 C   0  0  0  0  0  0  0  0  0  0  0  0
   22.4225   -8.8650  -13.9415 C   0  0  0  0  0  0  0  0  0  0  0  0
   21.3737   -8.2211  -14.5624 C   0  0  0  0  0  0  0  0  0  0  0  0
   20.5005   -7.2681  -13.8546 C   0  0  0  0  0  0  0  0  0  0  0  0
   20.8189   -5.8791  -14.2305 C   0  0  2  0  0  0  0  0  0  0  0  0
   20.5533   -5.5863  -15.6280 N   0  0  0  0  0  0  0  0  0  0  0  0
   22.1779   -5.4794  -13.9043 C   0  0  0  0  0  0  0  0  0  0  0  0
   22.5727   -5.5625  -12.7024 O   0  0  0  0  0  0  0  0  0  0  0  0
   21.1630   -8.5076  -15.8969 C   0  0  0  0  0  0  0  0  0  0  0  0
   21.9854   -9.4035  -16.5469 C   0  0  0  0  0  0  0  0  0  0  0  0
   23.1055   -5.0064  -14.8090 O   0  0  0  0  0  0  0  0  0  0  0  0
  2  1  1  6
  2  3  1  0
  3  4  1  0
  4  5  2  0
  4  8  1  0
  6  2  1  0
  7  6  2  0
  9  6  1  0
 10  9  1  0
 11 12  1  0
 10 11  1  1
 12 17  1  0
 13 12  2  0
 14 13  1  0
 14 15  2  0
 15 16  1  0
 17 16  2  0
 18 10  1  0
 18 19  2  0
 21 20  1  0
 21 31  2  0
 22 21  1  0
 23 22  2  0
 23 24  1  0
 24 30  2  0
 25 24  1  0
 26 25  1  6
 26 27  1  0
 27 18  1  0
 28 32  1  0
 28 26  1  0
 29 28  2  0
 30 31  1  0
M  END
$$$$
