DFY.pdb
     RDKit          3D

 32 33  0  0  1  0  0  0  0  0999 V2000
   28.4078  -22.5323  -16.6925 N   0  0  0  0  0  0  0  0  0  0  0  0
   27.9276  -21.1194  -16.4266 C   0  0  1  0  0  0  0  0  0  0  0  0
   27.1737  -20.7369  -17.6542 C   0  0  0  0  0  0  0  0  0  0  0  0
   27.9498  -20.4186  -18.8270 C   0  0  0  0  0  0  0  0  0  0  0  0
   27.7665  -20.9248  -19.9421 O   0  0  0  0  0  0  0  0  0  0  0  0
   27.1119  -21.2587  -15.2015 C   0  0  0  0  0  0  0  0  0  0  0  0
   26.3178  -22.2700  -15.1122 O   0  0  0  0  0  0  0  0  0  0  0  0
   29.0006  -19.4695  -18.7409 O   0  0  0  0  0  0  0  0  0  0  0  0
   27.0936  -20.4069  -14.0838 N   0  0  0  0  0  0  0  0  0  0  0  0
   26.1526  -20.5949  -12.9742 C   0  0  1  0  0  0  0  0  0  0  0  0
   26.7375  -19.9072  -11.7724 C   0  0  0  0  0  0  0  0  0  0  0  0
   27.8836  -20.6420  -11.2162 C   0  0  0  0  0  0  0  0  0  0  0  0
   29.0564  -20.7919  -11.9208 C   0  0  0  0  0  0  0  0  0  0  0  0
   30.1497  -21.4769  -11.4244 C   0  0  0  0  0  0  0  0  0  0  0  0
   30.0346  -22.0265  -10.1617 C   0  0  0  0  0  0  0  0  0  0  0  0
   28.8624  -21.8818   -9.4467 C   0  0  0  0  0  0  0  0  0  0  0  0
   27.7804  -21.1968   -9.9528 C   0  0  0  0  0  0  0  0  0  0  0  0
   24.7784  -20.1801  -13.3070 C   0  0  0  0  0  0  0  0  0  0  0  0
   24.5774  -19.1924  -14.0453 O   0  0  0  0  0  0  0  0  0  0  0  0
   16.4124  -19.7622  -15.5152 O   0  0  0  0  0  0  0  0  0  0  0  0
   17.7529  -20.0544  -15.2675 C   0  0  0  0  0  0  0  0  0  0  0  0
   18.7549  -19.1713  -15.6193 C   0  0  0  0  0  0  0  0  0  0  0  0
   20.0755  -19.4915  -15.3595 C   0  0  0  0  0  0  0  0  0  0  0  0
   20.4603  -20.6691  -14.7552 C   0  0  0  0  0  0  0  0  0  0  0  0
   21.8722  -20.9964  -14.4884 C   0  0  0  0  0  0  0  0  0  0  0  0
   22.2771  -20.5386  -13.1473 C   0  0  2  0  0  0  0  0  0  0  0  0
   23.6563  -20.8573  -12.8229 N   0  0  0  0  0  0  0  0  0  0  0  0
   21.4099  -21.0090  -12.0797 C   0  0  0  0  0  0  0  0  0  0  0  0
   21.5948  -22.1687  -11.6018 O   0  0  0  0  0  0  0  0  0  0  0  0
   19.4574  -21.5512  -14.4038 C   0  0  0  0  0  0  0  0  0  0  0  0
   18.1404  -21.2345  -14.6616 C   0  0  0  0  0  0  0  0  0  0  0  0
   20.3757  -20.2877  -11.5204 O   0  0  0  0  0  0  0  0  0  0  0  0
  2  1  1  6
  2  3  1  0
  3  4  1  0
  4  5  2  0
  4  8  1  0
  6  2  1  0
  7  6  2  0
  9  6  1  0
 10  9  1  0
 11 12  1  0
 10 11  1  1
 12 17  1  0
 13 12  2  0
 14 13  1  0
 14 15  2  0
 15 16  1  0
 17 16  2  0
 18 10  1  0
 18 19  2  0
 21 20  1  0
 21 31  2  0
 22 21  1  0
 23 22  2  0
 23 24  1  0
 24 30  2  0
 25 24  1  0
 26 25  1  6
 26 27  1  0
 27 18  1  0
 28 32  1  0
 28 26  1  0
 29 28  2  0
 30 31  1  0
M  END
$$$$
