DFY.pdb
     RDKit          3D

 32 33  0  0  1  0  0  0  0  0999 V2000
   26.8183  -23.0804  -17.3389 N   0  0  0  0  0  0  0  0  0  0  0  0
   26.5638  -21.6204  -17.0205 C   0  0  1  0  0  0  0  0  0  0  0  0
   25.6834  -21.1390  -18.1227 C   0  0  0  0  0  0  0  0  0  0  0  0
   26.3100  -20.8764  -19.3945 C   0  0  0  0  0  0  0  0  0  0  0  0
   25.8642  -21.2620  -20.4835 O   0  0  0  0  0  0  0  0  0  0  0  0
   25.9355  -21.6649  -15.6831 C   0  0  0  0  0  0  0  0  0  0  0  0
   24.9653  -22.4924  -15.4950 O   0  0  0  0  0  0  0  0  0  0  0  0
   27.5165  -20.1320  -19.4458 O   0  0  0  0  0  0  0  0  0  0  0  0
   26.2734  -20.9013  -14.5526 N   0  0  0  0  0  0  0  0  0  0  0  0
   25.4865  -20.9478  -13.3154 C   0  0  1  0  0  0  0  0  0  0  0  0
   26.3062  -20.2899  -12.2410 C   0  0  0  0  0  0  0  0  0  0  0  0
   25.6366  -20.3265  -10.9320 C   0  0  0  0  0  0  0  0  0  0  0  0
   25.8254  -21.3686  -10.0530 C   0  0  0  0  0  0  0  0  0  0  0  0
   25.2100  -21.4306   -8.8168 C   0  0  0  0  0  0  0  0  0  0  0  0
   24.3724  -20.3870   -8.4717 C   0  0  0  0  0  0  0  0  0  0  0  0
   24.1763  -19.3370   -9.3463 C   0  0  0  0  0  0  0  0  0  0  0  0
   24.7956  -19.2874  -10.5752 C   0  0  0  0  0  0  0  0  0  0  0  0
   24.1299  -20.3947  -13.4738 C   0  0  0  0  0  0  0  0  0  0  0  0
   23.9585  -19.2905  -14.0326 O   0  0  0  0  0  0  0  0  0  0  0  0
   19.5457  -15.8932  -16.8516 O   0  0  0  0  0  0  0  0  0  0  0  0
   19.8905  -17.0876  -16.2209 C   0  0  0  0  0  0  0  0  0  0  0  0
   21.1641  -17.6116  -16.3271 C   0  0  0  0  0  0  0  0  0  0  0  0
   21.4739  -18.7991  -15.6886 C   0  0  0  0  0  0  0  0  0  0  0  0
   20.5644  -19.5084  -14.9339 C   0  0  0  0  0  0  0  0  0  0  0  0
   20.9099  -20.7741  -14.2627 C   0  0  0  0  0  0  0  0  0  0  0  0
   21.6443  -20.5249  -13.0096 C   0  0  2  0  0  0  0  0  0  0  0  0
   22.9926  -21.0647  -13.0161 N   0  0  0  0  0  0  0  0  0  0  0  0
   20.9473  -20.9838  -11.8193 C   0  0  0  0  0  0  0  0  0  0  0  0
   21.4596  -21.9130  -11.1253 O   0  0  0  0  0  0  0  0  0  0  0  0
   19.2913  -18.9834  -14.8285 C   0  0  0  0  0  0  0  0  0  0  0  0
   18.9799  -17.7998  -15.4638 C   0  0  0  0  0  0  0  0  0  0  0  0
   19.7459  -20.4851  -11.3605 O   0  0  0  0  0  0  0  0  0  0  0  0
  2  1  1  6
  2  3  1  0
  3  4  1  0
  4  5  2  0
  4  8  1  0
  6  2  1  0
  7  6  2  0
  9  6  1  0
 10  9  1  0
 11 12  1  0
 10 11  1  1
 12 17  1  0
 13 12  2  0
 14 13  1  0
 14 15  2  0
 15 16  1  0
 17 16  2  0
 18 10  1  0
 18 19  2  0
 21 20  1  0
 21 31  2  0
 22 21  1  0
 23 22  2  0
 23 24  1  0
 24 30  2  0
 25 24  1  0
 26 25  1  6
 26 27  1  0
 27 18  1  0
 28 32  1  0
 28 26  1  0
 29 28  2  0
 30 31  1  0
M  END
$$$$
