DFY.pdb
     RDKit          3D

 32 33  0  0  1  0  0  0  0  0999 V2000
   35.8055  -33.9529  -17.5132 N   0  0  0  0  0  0  0  0  0  0  0  0
   35.2070  -33.2950  -16.2858 C   0  0  1  0  0  0  0  0  0  0  0  0
   36.2273  -33.4868  -15.2162 C   0  0  0  0  0  0  0  0  0  0  0  0
   36.3911  -34.8228  -14.6991 C   0  0  0  0  0  0  0  0  0  0  0  0
   37.2441  -35.1458  -13.8617 O   0  0  0  0  0  0  0  0  0  0  0  0
   34.9957  -31.8960  -16.7145 C   0  0  0  0  0  0  0  0  0  0  0  0
   34.2915  -31.1280  -15.9559 O   0  0  0  0  0  0  0  0  0  0  0  0
   35.5407  -35.8636  -15.1528 O   0  0  0  0  0  0  0  0  0  0  0  0
   35.4833  -31.2738  -17.8765 N   0  0  0  0  0  0  0  0  0  0  0  0
   35.2572  -29.8512  -18.1539 C   0  0  1  0  0  0  0  0  0  0  0  0
   36.5662  -29.1427  -17.9447 C   0  0  0  0  0  0  0  0  0  0  0  0
   37.0075  -29.1958  -16.5427 C   0  0  0  0  0  0  0  0  0  0  0  0
   36.5646  -28.2847  -15.6111 C   0  0  0  0  0  0  0  0  0  0  0  0
   36.9617  -28.3092  -14.2872 C   0  0  0  0  0  0  0  0  0  0  0  0
   37.8436  -29.3031  -13.9074 C   0  0  0  0  0  0  0  0  0  0  0  0
   38.2939  -30.2218  -14.8344 C   0  0  0  0  0  0  0  0  0  0  0  0
   37.8904  -30.1863  -16.1505 C   0  0  0  0  0  0  0  0  0  0  0  0
   34.6362  -29.6118  -19.4686 C   0  0  0  0  0  0  0  0  0  0  0  0
   34.8018  -30.4239  -20.4034 O   0  0  0  0  0  0  0  0  0  0  0  0
   30.1975  -27.8140  -26.5898 O   0  0  0  0  0  0  0  0  0  0  0  0
   30.7243  -28.1620  -25.3469 C   0  0  0  0  0  0  0  0  0  0  0  0
   30.0064  -27.9626  -24.1839 C   0  0  0  0  0  0  0  0  0  0  0  0
   30.5581  -28.3189  -22.9663 C   0  0  0  0  0  0  0  0  0  0  0  0
   31.8132  -28.8749  -22.8416 C   0  0  0  0  0  0  0  0  0  0  0  0
   32.3876  -29.2459  -21.5361 C   0  0  0  0  0  0  0  0  0  0  0  0
   33.2383  -28.1654  -21.0063 C   0  0  2  0  0  0  0  0  0  0  0  0
   33.8480  -28.4878  -19.7282 N   0  0  0  0  0  0  0  0  0  0  0  0
   32.5637  -26.8815  -20.9081 C   0  0  0  0  0  0  0  0  0  0  0  0
   32.0656  -26.3659  -21.9538 O   0  0  0  0  0  0  0  0  0  0  0  0
   32.5299  -29.0737  -24.0053 C   0  0  0  0  0  0  0  0  0  0  0  0
   31.9824  -28.7195  -25.2202 C   0  0  0  0  0  0  0  0  0  0  0  0
   32.4089  -26.1523  -19.7476 O   0  0  0  0  0  0  0  0  0  0  0  0
  2  1  1  6
  2  3  1  0
  3  4  1  0
  4  5  2  0
  4  8  1  0
  6  2  1  0
  7  6  2  0
  9  6  1  0
 10  9  1  0
 11 12  1  0
 10 11  1  6
 12 17  1  0
 13 12  2  0
 14 13  1  0
 14 15  2  0
 15 16  1  0
 17 16  2  0
 18 10  1  0
 18 19  2  0
 21 20  1  0
 21 31  2  0
 22 21  1  0
 23 22  2  0
 23 24  1  0
 24 30  2  0
 25 24  1  0
 26 25  1  1
 26 27  1  0
 27 18  1  0
 28 32  1  0
 28 26  1  0
 29 28  2  0
 30 31  1  0
M  END
$$$$
