DFY.pdb
     RDKit          3D

 32 33  0  0  1  0  0  0  0  0999 V2000
   32.8490  -20.2510   11.6284 N   0  0  0  0  0  0  0  0  0  0  0  0
   32.0326  -21.5148   11.8137 C   0  0  1  0  0  0  0  0  0  0  0  0
   30.6213  -21.0448   11.9097 C   0  0  0  0  0  0  0  0  0  0  0  0
   30.2183  -20.4305   13.1504 C   0  0  0  0  0  0  0  0  0  0  0  0
   30.9475  -20.3278   14.1459 O   0  0  0  0  0  0  0  0  0  0  0  0
   32.3535  -22.3106   10.6099 C   0  0  0  0  0  0  0  0  0  0  0  0
   31.5772  -23.2940   10.3072 O   0  0  0  0  0  0  0  0  0  0  0  0
   28.9104  -19.8969   13.2808 O   0  0  0  0  0  0  0  0  0  0  0  0
   33.4265  -22.1245    9.7216 N   0  0  0  0  0  0  0  0  0  0  0  0
   33.7089  -23.0637    8.6307 C   0  0  1  0  0  0  0  0  0  0  0  0
   34.1585  -22.2516    7.4485 C   0  0  0  0  0  0  0  0  0  0  0  0
   33.0303  -21.6158    6.7513 C   0  0  0  0  0  0  0  0  0  0  0  0
   32.6598  -21.9952    5.4812 C   0  0  0  0  0  0  0  0  0  0  0  0
   31.6048  -21.4162    4.8011 C   0  0  0  0  0  0  0  0  0  0  0  0
   30.9068  -20.4137    5.4472 C   0  0  0  0  0  0  0  0  0  0  0  0
   31.2706  -20.0257    6.7212 C   0  0  0  0  0  0  0  0  0  0  0  0
   32.3239  -20.6108    7.3879 C   0  0  0  0  0  0  0  0  0  0  0  0
   34.6372  -24.1392    9.0217 C   0  0  0  0  0  0  0  0  0  0  0  0
   35.6941  -23.8715    9.6317 O   0  0  0  0  0  0  0  0  0  0  0  0
   39.3450  -22.9228   12.3108 O   0  0  0  0  0  0  0  0  0  0  0  0
   38.3958  -23.8500   11.8833 C   0  0  0  0  0  0  0  0  0  0  0  0
   38.7419  -24.8978   11.0527 C   0  0  0  0  0  0  0  0  0  0  0  0
   37.7757  -25.8008   10.6466 C   0  0  0  0  0  0  0  0  0  0  0  0
   36.4549  -25.7148   11.0313 C   0  0  0  0  0  0  0  0  0  0  0  0
   35.4372  -26.6836   10.5869 C   0  0  0  0  0  0  0  0  0  0  0  0
   35.2267  -26.5992    9.1307 C   0  0  2  0  0  0  0  0  0  0  0  0
   34.3855  -25.4833    8.7350 N   0  0  0  0  0  0  0  0  0  0  0  0
   34.7122  -27.8236    8.5397 C   0  0  0  0  0  0  0  0  0  0  0  0
   35.3306  -28.9119    8.7412 O   0  0  0  0  0  0  0  0  0  0  0  0
   36.1101  -24.6667   11.8619 C   0  0  0  0  0  0  0  0  0  0  0  0
   37.0712  -23.7653   12.2682 C   0  0  0  0  0  0  0  0  0  0  0  0
   33.5785  -27.9135    7.7592 O   0  0  0  0  0  0  0  0  0  0  0  0
  2  1  1  6
  2  3  1  0
  3  4  1  0
  4  5  2  0
  4  8  1  0
  6  2  1  0
  7  6  2  0
  9  6  1  0
 10  9  1  0
 11 12  1  0
 10 11  1  6
 12 17  1  0
 13 12  2  0
 14 13  1  0
 14 15  2  0
 15 16  1  0
 17 16  2  0
 18 10  1  0
 18 19  2  0
 21 20  1  0
 21 31  2  0
 22 21  1  0
 23 22  2  0
 23 24  1  0
 24 30  2  0
 25 24  1  0
 26 25  1  1
 26 27  1  0
 27 18  1  0
 28 32  1  0
 28 26  1  0
 29 28  2  0
 30 31  1  0
M  END
$$$$
