LMN.pdb
     RDKit          3D

 25 24  0  0  1  0  0  0  0  0999 V2000
    8.2613  -14.5489   18.2639 C   0  0  0  0  0  0  0  0  0  0  0  0
    7.8315  -13.7145   19.4595 C   0  0  2  0  0  0  0  0  0  0  0  0
    7.6492  -12.2543   19.0326 C   0  0  0  0  0  0  0  0  0  0  0  0
    8.9171  -13.7527   20.5010 C   0  0  0  0  0  0  0  0  0  0  0  0
    8.8648  -15.0382   21.3023 C   0  0  2  0  0  0  0  0  0  0  0  0
    7.5685  -15.6431   21.0614 N   0  0  0  0  0  0  0  0  0  0  0  0
    9.1073  -14.8108   22.7479 C   0  0  0  0  0  0  0  0  0  0  0  0
   10.1872  -14.2991   23.1130 O   0  0  0  0  0  0  0  0  0  0  0  0
    6.2140  -10.2481   27.0140 C   0  0  0  0  0  0  0  0  0  0  0  0
    6.2888  -12.0522   27.1259 S   0  0  0  0  0  0  0  0  0  0  0  0
    7.1242  -12.7699   25.6843 C   0  0  0  0  0  0  0  0  0  0  0  0
    7.1637  -14.2721   25.8159 C   0  0  0  0  0  0  0  0  0  0  0  0
    8.3462  -14.8887   25.1428 C   0  0  2  0  0  0  0  0  0  0  0  0
    8.1411  -15.1603   23.7428 N   0  0  0  0  0  0  0  0  0  0  0  0
    8.7573  -16.1747   25.8101 C   0  0  0  0  0  0  0  0  0  0  0  0
    8.9421  -16.2219   27.0475 O   0  0  0  0  0  0  0  0  0  0  0  0
    6.0673  -18.9618   24.8773 N   0  0  0  0  0  0  0  0  0  0  0  0
    7.0696  -19.4069   25.7770 C   0  0  0  0  0  0  0  0  0  0  0  0
    6.7731  -19.5021   26.9900 O   0  0  0  0  0  0  0  0  0  0  0  0
    8.4101  -19.7404   25.2715 C   0  0  0  0  0  0  0  0  0  0  0  0
    9.3640  -18.6383   25.5167 C   0  0  2  0  0  0  0  0  0  0  0  0
    8.9445  -17.3609   25.0554 N   0  0  0  0  0  0  0  0  0  0  0  0
   10.7412  -19.0398   25.1897 C   0  0  0  0  0  0  0  0  0  0  0  0
   11.5935  -18.2470   24.4282 O   0  0  0  0  0  0  0  0  0  0  0  0
   11.1915  -20.1289   25.5947 O   0  0  0  0  0  0  0  0  0  0  0  0
  2  1  1  6
  2  3  1  0
  4  2  1  0
  4  5  1  0
  5  7  1  0
  5  6  1  1
  7  8  2  0
 10 11  1  0
 10  9  1  0
 11 12  1  0
 13 12  1  1
 14 13  1  0
 14  7  1  0
 15 16  2  0
 15 13  1  0
 17 18  1  0
 18 20  1  0
 18 19  2  0
 21 20  1  6
 21 23  1  0
 21 22  1  0
 22 15  1  0
 23 24  1  0
 25 23  2  0
M  END
$$$$
