LMN.pdb
     RDKit          3D

 25 24  0  0  1  0  0  0  0  0999 V2000
    7.4729  -21.0131   21.4403 C   0  0  0  0  0  0  0  0  0  0  0  0
    7.3806  -19.6687   20.7372 C   0  0  2  0  0  0  0  0  0  0  0  0
    8.2440  -19.6864   19.4715 C   0  0  0  0  0  0  0  0  0  0  0  0
    7.9259  -18.6004   21.6460 C   0  0  0  0  0  0  0  0  0  0  0  0
    7.5300  -17.2176   21.1679 C   0  0  2  0  0  0  0  0  0  0  0  0
    7.9020  -17.1230   19.7689 N   0  0  0  0  0  0  0  0  0  0  0  0
    8.1525  -16.1422   21.9780 C   0  0  0  0  0  0  0  0  0  0  0  0
    9.2607  -15.6804   21.6318 O   0  0  0  0  0  0  0  0  0  0  0  0
    6.5043  -11.9811   28.2189 C   0  0  0  0  0  0  0  0  0  0  0  0
    6.4422  -11.7583   26.4246 S   0  0  0  0  0  0  0  0  0  0  0  0
    7.7371  -12.7199   25.5940 C   0  0  0  0  0  0  0  0  0  0  0  0
    7.1055  -13.7154   24.6528 C   0  0  0  0  0  0  0  0  0  0  0  0
    8.1074  -14.5476   23.9212 C   0  0  2  0  0  0  0  0  0  0  0  0
    7.5231  -15.6142   23.1488 N   0  0  0  0  0  0  0  0  0  0  0  0
    9.1177  -15.1533   24.8596 C   0  0  0  0  0  0  0  0  0  0  0  0
    9.8293  -14.4256   25.5888 O   0  0  0  0  0  0  0  0  0  0  0  0
    7.2327  -18.8177   26.2770 N   0  0  0  0  0  0  0  0  0  0  0  0
    8.4182  -18.3962   26.9321 C   0  0  0  0  0  0  0  0  0  0  0  0
    8.3129  -17.8837   28.0699 O   0  0  0  0  0  0  0  0  0  0  0  0
    9.7204  -18.5689   26.2701 C   0  0  0  0  0  0  0  0  0  0  0  0
   10.2196  -17.2874   25.7287 C   0  0  2  0  0  0  0  0  0  0  0  0
    9.2874  -16.5591   24.9404 N   0  0  0  0  0  0  0  0  0  0  0  0
   11.5782  -17.4302   25.1823 C   0  0  0  0  0  0  0  0  0  0  0  0
   12.6136  -18.0293   25.8920 O   0  0  0  0  0  0  0  0  0  0  0  0
   11.8448  -17.0059   24.0413 O   0  0  0  0  0  0  0  0  0  0  0  0
  2  1  1  1
  2  3  1  0
  4  2  1  0
  4  5  1  0
  5  7  1  0
  5  6  1  6
  7  8  2  0
 10 11  1  0
 10  9  1  0
 11 12  1  0
 13 12  1  1
 14 13  1  0
 14  7  1  0
 15 16  2  0
 15 13  1  0
 17 18  1  0
 18 20  1  0
 18 19  2  0
 21 20  1  6
 21 23  1  0
 21 22  1  0
 22 15  1  0
 23 24  1  0
 25 23  2  0
M  END
$$$$
