LMN.pdb
     RDKit          3D

 25 24  0  0  1  0  0  0  0  0999 V2000
    8.9322  -13.9386   18.5678 C   0  0  0  0  0  0  0  0  0  0  0  0
    7.7628  -13.6098   19.4814 C   0  0  2  0  0  0  0  0  0  0  0  0
    7.1429  -12.2713   19.0670 C   0  0  0  0  0  0  0  0  0  0  0  0
    8.2674  -13.4613   20.8914 C   0  0  0  0  0  0  0  0  0  0  0  0
    8.8070  -14.7742   21.4230 C   0  0  2  0  0  0  0  0  0  0  0  0
    7.8584  -15.8090   21.0575 N   0  0  0  0  0  0  0  0  0  0  0  0
    9.0430  -14.7344   22.8869 C   0  0  0  0  0  0  0  0  0  0  0  0
    9.8799  -13.9299   23.3490 O   0  0  0  0  0  0  0  0  0  0  0  0
    6.5145  -11.2146   27.1132 C   0  0  0  0  0  0  0  0  0  0  0  0
    7.1407  -12.9055   27.2598 S   0  0  0  0  0  0  0  0  0  0  0  0
    6.6853  -13.9065   25.8168 C   0  0  0  0  0  0  0  0  0  0  0  0
    7.2406  -15.3007   25.9702 C   0  0  0  0  0  0  0  0  0  0  0  0
    8.5150  -15.5099   25.2193 C   0  0  2  0  0  0  0  0  0  0  0  0
    8.3409  -15.5913   23.7915 N   0  0  0  0  0  0  0  0  0  0  0  0
    9.2281  -16.7567   25.6722 C   0  0  0  0  0  0  0  0  0  0  0  0
    9.3396  -17.0223   26.8906 O   0  0  0  0  0  0  0  0  0  0  0  0
   11.0520  -19.2028   21.6453 N   0  0  0  0  0  0  0  0  0  0  0  0
   10.0490  -19.3161   22.6419 C   0  0  0  0  0  0  0  0  0  0  0  0
    8.8973  -18.9070   22.3687 O   0  0  0  0  0  0  0  0  0  0  0  0
   10.3806  -19.9018   23.9498 C   0  0  0  0  0  0  0  0  0  0  0  0
   10.5104  -18.8567   24.9869 C   0  0  2  0  0  0  0  0  0  0  0  0
    9.7894  -17.6584   24.7322 N   0  0  0  0  0  0  0  0  0  0  0  0
   11.9071  -18.7075   25.4246 C   0  0  0  0  0  0  0  0  0  0  0  0
   12.7114  -19.7942   25.7517 O   0  0  0  0  0  0  0  0  0  0  0  0
   12.4192  -17.5752   25.5180 O   0  0  0  0  0  0  0  0  0  0  0  0
  2  1  1  6
  2  3  1  0
  4  2  1  0
  4  5  1  0
  5  7  1  0
  5  6  1  1
  7  8  2  0
 10 11  1  0
 10  9  1  0
 11 12  1  0
 13 12  1  1
 14 13  1  0
 14  7  1  0
 15 16  2  0
 15 13  1  0
 17 18  1  0
 18 20  1  0
 18 19  2  0
 21 20  1  6
 21 23  1  0
 21 22  1  0
 22 15  1  0
 23 24  1  0
 25 23  2  0
M  END
$$$$
