LMN.pdb
     RDKit          3D

 25 24  0  0  1  0  0  0  0  0999 V2000
    8.2340  -13.0681   18.2806 C   0  0  0  0  0  0  0  0  0  0  0  0
    7.9594  -13.9879   19.4591 C   0  0  2  0  0  0  0  0  0  0  0  0
    6.9577  -13.3251   20.4104 C   0  0  0  0  0  0  0  0  0  0  0  0
    9.2383  -14.2040   20.2223 C   0  0  0  0  0  0  0  0  0  0  0  0
    9.1426  -15.4203   21.1216 C   0  0  2  0  0  0  0  0  0  0  0  0
    7.9352  -16.1346   20.7525 N   0  0  0  0  0  0  0  0  0  0  0  0
    9.1517  -15.0589   22.5602 C   0  0  0  0  0  0  0  0  0  0  0  0
   10.1313  -14.4404   23.0284 O   0  0  0  0  0  0  0  0  0  0  0  0
    6.9762  -11.2287   27.9765 C   0  0  0  0  0  0  0  0  0  0  0  0
    7.0464  -12.0462   26.3641 S   0  0  0  0  0  0  0  0  0  0  0  0
    6.4745  -13.7647   26.4688 C   0  0  0  0  0  0  0  0  0  0  0  0
    6.5662  -14.4141   25.1103 C   0  0  0  0  0  0  0  0  0  0  0  0
    7.9525  -14.8464   24.7597 C   0  0  2  0  0  0  0  0  0  0  0  0
    8.0709  -15.3974   23.4337 N   0  0  0  0  0  0  0  0  0  0  0  0
    8.4799  -15.8656   25.7349 C   0  0  0  0  0  0  0  0  0  0  0  0
    8.6133  -15.5811   26.9470 O   0  0  0  0  0  0  0  0  0  0  0  0
    6.3314  -19.7089   25.0203 N   0  0  0  0  0  0  0  0  0  0  0  0
    7.2261  -19.4484   26.0897 C   0  0  0  0  0  0  0  0  0  0  0  0
    6.7412  -19.1391   27.2022 O   0  0  0  0  0  0  0  0  0  0  0  0
    8.6771  -19.5466   25.8695 C   0  0  0  0  0  0  0  0  0  0  0  0
    9.3410  -18.2442   26.0880 C   0  0  2  0  0  0  0  0  0  0  0  0
    8.8374  -17.1693   25.3059 N   0  0  0  0  0  0  0  0  0  0  0  0
   10.8038  -18.3919   26.1448 C   0  0  0  0  0  0  0  0  0  0  0  0
   11.4305  -19.3663   26.9144 O   0  0  0  0  0  0  0  0  0  0  0  0
   11.5387  -17.6276   25.4900 O   0  0  0  0  0  0  0  0  0  0  0  0
  2  1  1  6
  2  3  1  0
  4  2  1  0
  4  5  1  0
  5  7  1  0
  5  6  1  6
  7  8  2  0
 10 11  1  0
 10  9  1  0
 11 12  1  0
 13 12  1  1
 14 13  1  0
 14  7  1  0
 15 16  2  0
 15 13  1  0
 17 18  1  0
 18 20  1  0
 18 19  2  0
 21 20  1  6
 21 23  1  0
 21 22  1  0
 22 15  1  0
 23 24  1  0
 25 23  2  0
M  END
$$$$
