LMN.pdb
     RDKit          3D

 25 24  0  0  1  0  0  0  0  0999 V2000
    8.0451  -14.5698   17.7267 C   0  0  0  0  0  0  0  0  0  0  0  0
    7.7486  -13.8061   19.0070 C   0  0  2  0  0  0  0  0  0  0  0  0
    7.5630  -12.3184   18.6909 C   0  0  0  0  0  0  0  0  0  0  0  0
    8.9248  -13.9311   19.9374 C   0  0  0  0  0  0  0  0  0  0  0  0
    8.8659  -15.2234   20.7272 C   0  0  2  0  0  0  0  0  0  0  0  0
    7.5792  -15.8357   20.4552 N   0  0  0  0  0  0  0  0  0  0  0  0
    9.0774  -15.0060   22.1791 C   0  0  0  0  0  0  0  0  0  0  0  0
   10.1864  -14.5926   22.5796 O   0  0  0  0  0  0  0  0  0  0  0  0
    7.3902  -11.2603   27.3539 C   0  0  0  0  0  0  0  0  0  0  0  0
    6.3337  -12.7255   27.2539 S   0  0  0  0  0  0  0  0  0  0  0  0
    7.2685  -14.1779   26.6989 C   0  0  0  0  0  0  0  0  0  0  0  0
    7.0713  -14.3725   25.2161 C   0  0  0  0  0  0  0  0  0  0  0  0
    8.2399  -15.0220   24.5496 C   0  0  2  0  0  0  0  0  0  0  0  0
    8.0487  -15.2558   23.1408 N   0  0  0  0  0  0  0  0  0  0  0  0
    8.5874  -16.3373   25.1957 C   0  0  0  0  0  0  0  0  0  0  0  0
    7.7163  -17.2232   25.3505 O   0  0  0  0  0  0  0  0  0  0  0  0
   10.6531  -18.7788   23.8403 N   0  0  0  0  0  0  0  0  0  0  0  0
   11.8369  -18.6523   24.6115 C   0  0  0  0  0  0  0  0  0  0  0  0
   12.9254  -18.9636   24.0763 O   0  0  0  0  0  0  0  0  0  0  0  0
   11.7581  -18.1665   25.9977 C   0  0  0  0  0  0  0  0  0  0  0  0
   10.3828  -17.7477   26.3407 C   0  0  2  0  0  0  0  0  0  0  0  0
    9.9065  -16.6043   25.6434 N   0  0  0  0  0  0  0  0  0  0  0  0
   10.1623  -17.7745   27.7952 C   0  0  0  0  0  0  0  0  0  0  0  0
    9.6889  -16.6746   28.5030 O   0  0  0  0  0  0  0  0  0  0  0  0
   10.4014  -18.8084   28.4485 O   0  0  0  0  0  0  0  0  0  0  0  0
  2  1  1  6
  2  3  1  0
  4  2  1  0
  4  5  1  0
  5  7  1  0
  5  6  1  1
  7  8  2  0
 10 11  1  0
 10  9  1  0
 11 12  1  0
 13 12  1  1
 14 13  1  0
 14  7  1  0
 15 16  2  0
 15 13  1  0
 17 18  1  0
 18 20  1  0
 18 19  2  0
 21 20  1  1
 21 23  1  0
 21 22  1  0
 22 15  1  0
 23 24  1  0
 25 23  2  0
M  END
$$$$
