LMN.pdb
     RDKit          3D

 25 24  0  0  1  0  0  0  0  0999 V2000
    7.6004  -14.1305   17.9664 C   0  0  0  0  0  0  0  0  0  0  0  0
    7.7869  -13.6393   19.3926 C   0  0  2  0  0  0  0  0  0  0  0  0
    7.8799  -12.1100   19.4051 C   0  0  0  0  0  0  0  0  0  0  0  0
    9.0837  -14.1791   19.9326 C   0  0  0  0  0  0  0  0  0  0  0  0
    8.8494  -15.3832   20.8229 C   0  0  2  0  0  0  0  0  0  0  0  0
    7.5285  -15.8968   20.5134 N   0  0  0  0  0  0  0  0  0  0  0  0
    8.9901  -15.0548   22.2625 C   0  0  0  0  0  0  0  0  0  0  0  0
   10.0852  -14.6289   22.6876 O   0  0  0  0  0  0  0  0  0  0  0  0
    6.6782  -10.7413   26.1723 C   0  0  0  0  0  0  0  0  0  0  0  0
    6.2484  -12.2488   27.0754 S   0  0  0  0  0  0  0  0  0  0  0  0
    7.3108  -13.6365   26.5886 C   0  0  0  0  0  0  0  0  0  0  0  0
    7.0732  -13.9733   25.1375 C   0  0  0  0  0  0  0  0  0  0  0  0
    8.0577  -14.9573   24.5953 C   0  0  2  0  0  0  0  0  0  0  0  0
    7.9083  -15.2111   23.1850 N   0  0  0  0  0  0  0  0  0  0  0  0
    7.9779  -16.2774   25.3158 C   0  0  0  0  0  0  0  0  0  0  0  0
    6.9838  -17.0249   25.1719 O   0  0  0  0  0  0  0  0  0  0  0  0
   11.5036  -20.4955   24.6889 N   0  0  0  0  0  0  0  0  0  0  0  0
   10.2613  -20.0977   25.2460 C   0  0  0  0  0  0  0  0  0  0  0  0
    9.6246  -20.9351   25.9256 O   0  0  0  0  0  0  0  0  0  0  0  0
    9.7599  -18.7342   25.0161 C   0  0  0  0  0  0  0  0  0  0  0  0
    9.5864  -18.0056   26.2904 C   0  0  2  0  0  0  0  0  0  0  0  0
    9.0241  -16.7054   26.1726 N   0  0  0  0  0  0  0  0  0  0  0  0
   10.7748  -18.1368   27.1479 C   0  0  0  0  0  0  0  0  0  0  0  0
   11.9264  -17.3807   26.9556 O   0  0  0  0  0  0  0  0  0  0  0  0
   10.7823  -18.9503   28.0919 O   0  0  0  0  0  0  0  0  0  0  0  0
  2  1  1  6
  2  3  1  0
  4  2  1  0
  4  5  1  0
  5  7  1  0
  5  6  1  1
  7  8  2  0
 10 11  1  0
 10  9  1  0
 11 12  1  0
 13 12  1  1
 14 13  1  0
 14  7  1  0
 15 16  2  0
 15 13  1  0
 17 18  1  0
 18 20  1  0
 18 19  2  0
 21 20  1  6
 21 23  1  0
 21 22  1  0
 22 15  1  0
 23 24  1  0
 25 23  2  0
M  END
$$$$
