LMN.pdb
     RDKit          3D

 25 24  0  0  1  0  0  0  0  0999 V2000
    8.5943  -14.0739   17.3048 C   0  0  0  0  0  0  0  0  0  0  0  0
    7.9009  -13.7889   18.6270 C   0  0  2  0  0  0  0  0  0  0  0  0
    7.3250  -12.3690   18.6137 C   0  0  0  0  0  0  0  0  0  0  0  0
    8.9133  -13.8596   19.7381 C   0  0  0  0  0  0  0  0  0  0  0  0
    8.7210  -15.1064   20.5782 C   0  0  2  0  0  0  0  0  0  0  0  0
    7.3911  -15.6135   20.2977 N   0  0  0  0  0  0  0  0  0  0  0  0
    8.9182  -14.8463   22.0252 C   0  0  0  0  0  0  0  0  0  0  0  0
   10.0349  -14.4577   22.4293 O   0  0  0  0  0  0  0  0  0  0  0  0
    7.8453  -11.1644   27.5352 C   0  0  0  0  0  0  0  0  0  0  0  0
    6.5422  -12.3373   27.0889 S   0  0  0  0  0  0  0  0  0  0  0  0
    7.2370  -13.9272   26.5591 C   0  0  0  0  0  0  0  0  0  0  0  0
    6.9785  -14.1290   25.0866 C   0  0  0  0  0  0  0  0  0  0  0  0
    8.0773  -14.8673   24.3944 C   0  0  2  0  0  0  0  0  0  0  0  0
    7.8670  -15.0270   22.9780 N   0  0  0  0  0  0  0  0  0  0  0  0
    8.2887  -16.2345   24.9896 C   0  0  0  0  0  0  0  0  0  0  0  0
    7.3921  -17.1059   24.9234 O   0  0  0  0  0  0  0  0  0  0  0  0
   13.1639  -18.8153   25.1405 N   0  0  0  0  0  0  0  0  0  0  0  0
   12.0084  -18.0760   24.7795 C   0  0  0  0  0  0  0  0  0  0  0  0
   12.1688  -16.9550   24.2446 O   0  0  0  0  0  0  0  0  0  0  0  0
   10.6725  -18.6348   25.0378 C   0  0  0  0  0  0  0  0  0  0  0  0
    9.9524  -17.8489   26.0617 C   0  0  2  0  0  0  0  0  0  0  0  0
    9.5054  -16.5679   25.6379 N   0  0  0  0  0  0  0  0  0  0  0  0
   10.6346  -17.9137   27.3638 C   0  0  0  0  0  0  0  0  0  0  0  0
   10.9515  -16.7785   28.1024 O   0  0  0  0  0  0  0  0  0  0  0  0
   10.9564  -19.0146   27.8509 O   0  0  0  0  0  0  0  0  0  0  0  0
  2  1  1  6
  2  3  1  0
  4  2  1  0
  4  5  1  0
  5  7  1  0
  5  6  1  1
  7  8  2  0
 10 11  1  0
 10  9  1  0
 11 12  1  0
 13 12  1  1
 14 13  1  0
 14  7  1  0
 15 16  2  0
 15 13  1  0
 17 18  1  0
 18 20  1  0
 18 19  2  0
 21 20  1  6
 21 23  1  0
 21 22  1  0
 22 15  1  0
 23 24  1  0
 25 23  2  0
M  END
$$$$
