LMN.pdb
     RDKit          3D

 25 24  0  0  1  0  0  0  0  0999 V2000
    8.6404  -14.4125   18.2372 C   0  0  0  0  0  0  0  0  0  0  0  0
    7.5241  -13.7363   19.0162 C   0  0  2  0  0  0  0  0  0  0  0  0
    7.2733  -12.3348   18.4499 C   0  0  0  0  0  0  0  0  0  0  0  0
    7.9516  -13.5784   20.4505 C   0  0  0  0  0  0  0  0  0  0  0  0
    8.3155  -14.9150   21.0657 C   0  0  2  0  0  0  0  0  0  0  0  0
    7.1370  -15.7576   20.9925 N   0  0  0  0  0  0  0  0  0  0  0  0
    8.8103  -14.7782   22.4574 C   0  0  0  0  0  0  0  0  0  0  0  0
    9.8703  -14.1518   22.6699 O   0  0  0  0  0  0  0  0  0  0  0  0
    6.8268  -11.9482   27.8335 C   0  0  0  0  0  0  0  0  0  0  0  0
    5.8808  -12.4534   26.3765 S   0  0  0  0  0  0  0  0  0  0  0  0
    6.9324  -13.3056   25.1685 C   0  0  0  0  0  0  0  0  0  0  0  0
    7.5875  -14.4991   25.8181 C   0  0  0  0  0  0  0  0  0  0  0  0
    8.5693  -15.1865   24.9264 C   0  0  2  0  0  0  0  0  0  0  0  0
    8.1106  -15.3431   23.5695 N   0  0  0  0  0  0  0  0  0  0  0  0
    8.9382  -16.5486   25.4521 C   0  0  0  0  0  0  0  0  0  0  0  0
    8.0648  -17.4326   25.6052 O   0  0  0  0  0  0  0  0  0  0  0  0
   12.0517  -18.7813   23.5306 N   0  0  0  0  0  0  0  0  0  0  0  0
   12.4994  -17.9807   24.6127 C   0  0  0  0  0  0  0  0  0  0  0  0
   13.1521  -16.9449   24.3493 O   0  0  0  0  0  0  0  0  0  0  0  0
   12.1909  -18.3800   25.9943 C   0  0  0  0  0  0  0  0  0  0  0  0
   10.7881  -18.0692   26.3408 C   0  0  2  0  0  0  0  0  0  0  0  0
   10.2805  -16.8631   25.7855 N   0  0  0  0  0  0  0  0  0  0  0  0
   10.5258  -18.3008   27.7699 C   0  0  0  0  0  0  0  0  0  0  0  0
   10.7792  -19.5189   28.3918 O   0  0  0  0  0  0  0  0  0  0  0  0
   10.0560  -17.3898   28.4786 O   0  0  0  0  0  0  0  0  0  0  0  0
  2  1  1  6
  2  3  1  0
  4  2  1  0
  4  5  1  0
  5  7  1  0
  5  6  1  1
  7  8  2  0
 10 11  1  0
 10  9  1  0
 11 12  1  0
 13 12  1  1
 14 13  1  0
 14  7  1  0
 15 16  2  0
 15 13  1  0
 17 18  1  0
 18 20  1  0
 18 19  2  0
 21 20  1  1
 21 23  1  0
 21 22  1  0
 22 15  1  0
 23 24  1  0
 25 23  2  0
M  END
$$$$
