LMN.pdb
     RDKit          3D

 25 24  0  0  1  0  0  0  0  0999 V2000
    5.9553  -16.9798   18.5675 C   0  0  0  0  0  0  0  0  0  0  0  0
    7.3556  -17.5531   18.7117 C   0  0  2  0  0  0  0  0  0  0  0  0
    7.2884  -19.0837   18.7325 C   0  0  0  0  0  0  0  0  0  0  0  0
    7.9373  -17.1046   20.0251 C   0  0  0  0  0  0  0  0  0  0  0  0
    7.9511  -15.5927   20.1324 C   0  0  2  0  0  0  0  0  0  0  0  0
    8.7644  -15.0912   19.0409 N   0  0  0  0  0  0  0  0  0  0  0  0
    8.4478  -15.1263   21.4499 C   0  0  0  0  0  0  0  0  0  0  0  0
    9.6788  -15.0943   21.6622 O   0  0  0  0  0  0  0  0  0  0  0  0
    6.0125  -10.7394   26.2218 C   0  0  0  0  0  0  0  0  0  0  0  0
    6.2506  -12.3880   26.9277 S   0  0  0  0  0  0  0  0  0  0  0  0
    7.5208  -13.3166   26.0246 C   0  0  0  0  0  0  0  0  0  0  0  0
    7.0354  -13.6141   24.6276 C   0  0  0  0  0  0  0  0  0  0  0  0
    8.0263  -14.3801   23.8135 C   0  0  2  0  0  0  0  0  0  0  0  0
    7.5597  -14.7104   22.4910 N   0  0  0  0  0  0  0  0  0  0  0  0
    8.4346  -15.6595   24.4950 C   0  0  0  0  0  0  0  0  0  0  0  0
    7.6175  -16.5978   24.6353 O   0  0  0  0  0  0  0  0  0  0  0  0
   12.5358  -16.7504   22.8367 N   0  0  0  0  0  0  0  0  0  0  0  0
   11.6764  -17.5390   23.6439 C   0  0  0  0  0  0  0  0  0  0  0  0
   10.9430  -18.3809   23.0768 O   0  0  0  0  0  0  0  0  0  0  0  0
   11.6682  -17.3519   25.1029 C   0  0  0  0  0  0  0  0  0  0  0  0
   10.3195  -16.9917   25.5887 C   0  0  2  0  0  0  0  0  0  0  0  0
    9.7512  -15.8328   24.9933 N   0  0  0  0  0  0  0  0  0  0  0  0
   10.2341  -17.0917   27.0541 C   0  0  0  0  0  0  0  0  0  0  0  0
   10.7058  -18.1934   27.7601 O   0  0  0  0  0  0  0  0  0  0  0  0
    9.7224  -16.1698   27.7184 O   0  0  0  0  0  0  0  0  0  0  0  0
  2  1  1  1
  2  3  1  0
  4  2  1  0
  4  5  1  0
  5  7  1  0
  5  6  1  6
  7  8  2  0
 10 11  1  0
 10  9  1  0
 11 12  1  0
 13 12  1  1
 14 13  1  0
 14  7  1  0
 15 16  2  0
 15 13  1  0
 17 18  1  0
 18 20  1  0
 18 19  2  0
 21 20  1  1
 21 23  1  0
 21 22  1  0
 22 15  1  0
 23 24  1  0
 25 23  2  0
M  END
$$$$
