LMN.pdb
     RDKit          3D

 25 24  0  0  1  0  0  0  0  0999 V2000
    8.6255  -14.7782   18.0938 C   0  0  0  0  0  0  0  0  0  0  0  0
    7.8312  -13.8978   19.0447 C   0  0  2  0  0  0  0  0  0  0  0  0
    7.5386  -12.5492   18.3788 C   0  0  0  0  0  0  0  0  0  0  0  0
    8.6586  -13.6295   20.2728 C   0  0  0  0  0  0  0  0  0  0  0  0
    8.7694  -14.8666   21.1417 C   0  0  2  0  0  0  0  0  0  0  0  0
    7.5916  -15.6755   20.8910 N   0  0  0  0  0  0  0  0  0  0  0  0
    8.9138  -14.5333   22.5798 C   0  0  0  0  0  0  0  0  0  0  0  0
    9.8728  -13.8224   22.9488 O   0  0  0  0  0  0  0  0  0  0  0  0
    7.3155  -10.6566   27.1368 C   0  0  0  0  0  0  0  0  0  0  0  0
    6.0975  -11.9940   27.1637 S   0  0  0  0  0  0  0  0  0  0  0  0
    6.8851  -13.6103   26.9221 C   0  0  0  0  0  0  0  0  0  0  0  0
    6.7960  -14.0066   25.4693 C   0  0  0  0  0  0  0  0  0  0  0  0
    8.0628  -14.5995   24.9446 C   0  0  2  0  0  0  0  0  0  0  0  0
    7.9870  -15.0019   23.5633 N   0  0  0  0  0  0  0  0  0  0  0  0
    8.4936  -15.7945   25.7536 C   0  0  0  0  0  0  0  0  0  0  0  0
    8.5984  -15.7190   26.9990 O   0  0  0  0  0  0  0  0  0  0  0  0
    6.1880  -19.2755   24.4922 N   0  0  0  0  0  0  0  0  0  0  0  0
    7.0611  -19.2187   25.6087 C   0  0  0  0  0  0  0  0  0  0  0  0
    6.5659  -18.9741   26.7327 O   0  0  0  0  0  0  0  0  0  0  0  0
    8.5025  -19.4450   25.4221 C   0  0  0  0  0  0  0  0  0  0  0  0
    9.2794  -18.2246   25.7249 C   0  0  2  0  0  0  0  0  0  0  0  0
    8.7903  -17.0316   25.1265 N   0  0  0  0  0  0  0  0  0  0  0  0
   10.7261  -18.4715   25.6205 C   0  0  0  0  0  0  0  0  0  0  0  0
   11.5852  -17.6206   24.9329 O   0  0  0  0  0  0  0  0  0  0  0  0
   11.2329  -19.4757   26.1570 O   0  0  0  0  0  0  0  0  0  0  0  0
  2  1  1  6
  2  3  1  0
  4  2  1  0
  4  5  1  0
  5  7  1  0
  5  6  1  1
  7  8  2  0
 10 11  1  0
 10  9  1  0
 11 12  1  0
 13 12  1  1
 14 13  1  0
 14  7  1  0
 15 16  2  0
 15 13  1  0
 17 18  1  0
 18 20  1  0
 18 19  2  0
 21 20  1  6
 21 23  1  0
 21 22  1  0
 22 15  1  0
 23 24  1  0
 25 23  2  0
M  END
$$$$
