CTC.pdb
     RDKit          3D

 20 19  0  0  1  0  0  0  0  0999 V2000
   22.8483  -14.0807  -19.0793 N   0  0  0  0  0  0  0  0  0  0  0  0
   23.9670  -13.8184  -18.1953 C   0  0  1  0  0  0  0  0  0  0  0  0
   25.2064  -14.3675  -18.9112 C   0  0  0  0  0  0  0  0  0  0  0  0
   24.9477  -16.1387  -19.1540 S   0  0  0  0  0  0  0  0  0  0  0  0
   24.1718  -12.3553  -18.0031 C   0  0  0  0  0  0  0  0  0  0  0  0
   25.2315  -11.8829  -17.5603 O   0  0  0  0  0  0  0  0  0  0  0  0
   23.8183   -9.7368  -20.5864 C   0  0  0  0  0  0  0  0  0  0  0  0
   22.8475   -9.4098  -19.4990 C   0  0  1  0  0  0  0  0  0  0  0  0
   21.5627   -9.8821  -19.8773 O   0  0  0  0  0  0  0  0  0  0  0  0
   23.2085  -10.0268  -18.1576 C   0  0  2  0  0  0  0  0  0  0  0  0
   23.0978  -11.4902  -18.3473 N   0  0  0  0  0  0  0  0  0  0  0  0
   22.3057   -9.6769  -17.0665 C   0  0  0  0  0  0  0  0  0  0  0  0
   21.2899  -10.4106  -16.8162 O   0  0  0  0  0  0  0  0  0  0  0  0
   22.4865   -8.5450  -16.2395 N   0  0  0  0  0  0  0  0  0  0  0  0
   21.5416   -8.2800  -15.1822 C   0  0  1  0  0  0  0  0  0  0  0  0
   22.3118   -8.2788  -13.8573 C   0  0  0  0  0  0  0  0  0  0  0  0
   22.6026  -10.0010  -13.3655 S   0  0  0  0  0  0  0  0  0  0  0  0
   20.8937   -6.9602  -15.3610 C   0  0  0  0  0  0  0  0  0  0  0  0
   21.4404   -6.1400  -16.1432 O   0  0  0  0  0  0  0  0  0  0  0  0
   19.7190   -6.5919  -14.7082 O   0  0  0  0  0  0  0  0  0  0  0  0
  2  3  1  0
  2  5  1  0
  2  1  1  6
  4  3  1  0
  5  6  2  0
  8  7  1  6
  8  9  1  0
  8 10  1  0
 10 12  1  0
 10 11  1  6
 11  5  1  0
 12 13  2  0
 14 12  1  0
 14 15  1  0
 15 18  1  0
 16 17  1  0
 15 16  1  1
 18 19  2  0
 18 20  1  0
M  END
$$$$
