CTC.pdb
     RDKit          3D

 20 19  0  0  1  0  0  0  0  0999 V2000
   19.0145  -12.8282  -15.9314 N   0  0  0  0  0  0  0  0  0  0  0  0
   19.0241  -11.5351  -16.5866 C   0  0  1  0  0  0  0  0  0  0  0  0
   17.7436  -10.8245  -16.1333 C   0  0  0  0  0  0  0  0  0  0  0  0
   16.3462  -11.7552  -16.7997 S   0  0  0  0  0  0  0  0  0  0  0  0
   20.1789  -10.7094  -16.1347 C   0  0  0  0  0  0  0  0  0  0  0  0
   20.6673  -10.8117  -14.9976 O   0  0  0  0  0  0  0  0  0  0  0  0
   23.9348   -7.9609  -17.7659 C   0  0  0  0  0  0  0  0  0  0  0  0
   22.7907   -8.9132  -17.8929 C   0  0  1  0  0  0  0  0  0  0  0  0
   23.3062  -10.2258  -18.0613 O   0  0  0  0  0  0  0  0  0  0  0  0
   21.8649   -8.9134  -16.6874 C   0  0  2  0  0  0  0  0  0  0  0  0
   20.7228   -9.7774  -17.0600 N   0  0  0  0  0  0  0  0  0  0  0  0
   21.3090   -7.6077  -16.3496 C   0  0  0  0  0  0  0  0  0  0  0  0
   20.5344   -7.0099  -17.1714 O   0  0  0  0  0  0  0  0  0  0  0  0
   21.5769   -6.9389  -15.1335 N   0  0  0  0  0  0  0  0  0  0  0  0
   21.0563   -5.6099  -14.9245 C   0  0  1  0  0  0  0  0  0  0  0  0
   19.9522   -5.7023  -13.8657 C   0  0  0  0  0  0  0  0  0  0  0  0
   19.4467   -4.0174  -13.4207 S   0  0  0  0  0  0  0  0  0  0  0  0
   22.1114   -4.6916  -14.4376 C   0  0  0  0  0  0  0  0  0  0  0  0
   22.9613   -5.1504  -13.6311 O   0  0  0  0  0  0  0  0  0  0  0  0
   22.2024   -3.3574  -14.8294 O   0  0  0  0  0  0  0  0  0  0  0  0
  2  3  1  0
  2  5  1  0
  2  1  1  1
  4  3  1  0
  5  6  2  0
  8  7  1  1
  8  9  1  0
  8 10  1  0
 10 12  1  0
 10 11  1  6
 11  5  1  0
 12 13  2  0
 14 12  1  0
 14 15  1  0
 15 18  1  0
 16 17  1  0
 15 16  1  1
 18 19  2  0
 18 20  1  0
M  END
$$$$
