CTC.pdb
     RDKit          3D

 20 19  0  0  1  0  0  0  0  0999 V2000
   15.9554  -13.4031  -13.0177 N   0  0  0  0  0  0  0  0  0  0  0  0
   15.3736  -12.0855  -12.8537 C   0  0  1  0  0  0  0  0  0  0  0  0
   14.0178  -12.3062  -12.1732 C   0  0  0  0  0  0  0  0  0  0  0  0
   12.9552  -13.1645  -13.3552 S   0  0  0  0  0  0  0  0  0  0  0  0
   16.1985  -11.2402  -11.9456 C   0  0  0  0  0  0  0  0  0  0  0  0
   16.7391  -11.6914  -10.9227 O   0  0  0  0  0  0  0  0  0  0  0  0
   17.7887   -7.6995  -13.5406 C   0  0  0  0  0  0  0  0  0  0  0  0
   18.2869   -8.4602  -12.3552 C   0  0  1  0  0  0  0  0  0  0  0  0
   19.1352   -7.6135  -11.5934 O   0  0  0  0  0  0  0  0  0  0  0  0
   17.1767   -8.9664  -11.4488 C   0  0  2  0  0  0  0  0  0  0  0  0
   16.3564   -9.8692  -12.2865 N   0  0  0  0  0  0  0  0  0  0  0  0
   16.2805   -7.9289  -10.9504 C   0  0  0  0  0  0  0  0  0  0  0  0
   15.3686   -7.4526  -11.7084 O   0  0  0  0  0  0  0  0  0  0  0  0
   16.3542   -7.3997   -9.6418 N   0  0  0  0  0  0  0  0  0  0  0  0
   15.4280   -6.3697   -9.2392 C   0  0  1  0  0  0  0  0  0  0  0  0
   15.1127   -6.5798   -7.7543 C   0  0  0  0  0  0  0  0  0  0  0  0
   14.2795   -8.1810   -7.5694 S   0  0  0  0  0  0  0  0  0  0  0  0
   16.0146   -5.0216   -9.4185 C   0  0  0  0  0  0  0  0  0  0  0  0
   17.2341   -4.9485   -9.7199 O   0  0  0  0  0  0  0  0  0  0  0  0
   15.2833   -3.8450   -9.2695 O   0  0  0  0  0  0  0  0  0  0  0  0
  2  3  1  0
  2  5  1  0
  2  1  1  1
  4  3  1  0
  5  6  2  0
  8  7  1  6
  8  9  1  0
  8 10  1  0
 10 12  1  0
 10 11  1  6
 11  5  1  0
 12 13  2  0
 14 12  1  0
 14 15  1  0
 15 18  1  0
 16 17  1  0
 15 16  1  1
 18 19  2  0
 18 20  1  0
M  END
$$$$
