CTC.pdb
     RDKit          3D

 20 19  0  0  1  0  0  0  0  0999 V2000
   22.6750  -12.4034  -18.5258 N   0  0  0  0  0  0  0  0  0  0  0  0
   22.8435  -11.4776  -17.4230 C   0  0  1  0  0  0  0  0  0  0  0  0
   24.3538  -11.3885  -17.1758 C   0  0  0  0  0  0  0  0  0  0  0  0
   24.7699  -12.6283  -15.9297 S   0  0  0  0  0  0  0  0  0  0  0  0
   22.3674  -10.1133  -17.7857 C   0  0  0  0  0  0  0  0  0  0  0  0
   22.9271   -9.4197  -18.6504 O   0  0  0  0  0  0  0  0  0  0  0  0
   19.1235   -9.2565  -19.1913 C   0  0  0  0  0  0  0  0  0  0  0  0
   19.2257   -8.5574  -17.8750 C   0  0  1  0  0  0  0  0  0  0  0  0
   18.6001   -9.3585  -16.8831 O   0  0  0  0  0  0  0  0  0  0  0  0
   20.6572   -8.2885  -17.4404 C   0  0  2  0  0  0  0  0  0  0  0  0
   21.2275   -9.6110  -17.1008 N   0  0  0  0  0  0  0  0  0  0  0  0
   20.7830   -7.4596  -16.2466 C   0  0  0  0  0  0  0  0  0  0  0  0
   20.9275   -8.0059  -15.1005 O   0  0  0  0  0  0  0  0  0  0  0  0
   20.7571   -6.0467  -16.2741 N   0  0  0  0  0  0  0  0  0  0  0  0
   20.9475   -5.3091  -15.0490 C   0  0  1  0  0  0  0  0  0  0  0  0
   22.3694   -5.5900  -14.5512 C   0  0  0  0  0  0  0  0  0  0  0  0
   22.6709   -4.5692  -13.0818 S   0  0  0  0  0  0  0  0  0  0  0  0
   20.7966   -3.8526  -15.2715 C   0  0  0  0  0  0  0  0  0  0  0  0
   21.2317   -3.3766  -16.3519 O   0  0  0  0  0  0  0  0  0  0  0  0
   20.2008   -2.9970  -14.3470 O   0  0  0  0  0  0  0  0  0  0  0  0
  2  3  1  0
  2  5  1  0
  2  1  1  6
  4  3  1  0
  5  6  2  0
  8  7  1  6
  8  9  1  0
  8 10  1  0
 10 12  1  0
 10 11  1  1
 11  5  1  0
 12 13  2  0
 14 12  1  0
 14 15  1  0
 15 18  1  0
 16 17  1  0
 15 16  1  6
 18 19  2  0
 18 20  1  0
M  END
$$$$
