CTC.pdb
     RDKit          3D

 20 19  0  0  1  0  0  0  0  0999 V2000
   19.5040  -13.7910  -16.8682 N   0  0  0  0  0  0  0  0  0  0  0  0
   19.1936  -12.4031  -16.5872 C   0  0  1  0  0  0  0  0  0  0  0  0
   18.6265  -12.3790  -15.1632 C   0  0  0  0  0  0  0  0  0  0  0  0
   16.8911  -12.8700  -15.2661 S   0  0  0  0  0  0  0  0  0  0  0  0
   20.4237  -11.5625  -16.5940 C   0  0  0  0  0  0  0  0  0  0  0  0
   21.4970  -11.9475  -16.1022 O   0  0  0  0  0  0  0  0  0  0  0  0
   22.0818  -10.1053  -19.6236 C   0  0  0  0  0  0  0  0  0  0  0  0
   21.6389   -8.9910  -18.7324 C   0  0  1  0  0  0  0  0  0  0  0  0
   20.3693   -8.5317  -19.1729 O   0  0  0  0  0  0  0  0  0  0  0  0
   21.5222   -9.3927  -17.2711 C   0  0  2  0  0  0  0  0  0  0  0  0
   20.3376  -10.2760  -17.1922 N   0  0  0  0  0  0  0  0  0  0  0  0
   21.2789   -8.2838  -16.3550 C   0  0  0  0  0  0  0  0  0  0  0  0
   20.1038   -8.0778  -15.8973 O   0  0  0  0  0  0  0  0  0  0  0  0
   22.2895   -7.3944  -15.9241 N   0  0  0  0  0  0  0  0  0  0  0  0
   21.9565   -6.3324  -15.0064 C   0  0  1  0  0  0  0  0  0  0  0  0
   22.3280   -6.8010  -13.5954 C   0  0  0  0  0  0  0  0  0  0  0  0
   22.0682   -5.4190  -12.4489 S   0  0  0  0  0  0  0  0  0  0  0  0
   22.7150   -5.0986  -15.3167 C   0  0  0  0  0  0  0  0  0  0  0  0
   23.8784   -5.2265  -15.7787 O   0  0  0  0  0  0  0  0  0  0  0  0
   22.2020   -3.8178  -15.1215 O   0  0  0  0  0  0  0  0  0  0  0  0
  2  3  1  0
  2  5  1  0
  2  1  1  1
  4  3  1  0
  5  6  2  0
  8  7  1  6
  8  9  1  0
  8 10  1  0
 10 12  1  0
 10 11  1  6
 11  5  1  0
 12 13  2  0
 14 12  1  0
 14 15  1  0
 15 18  1  0
 16 17  1  0
 15 16  1  1
 18 19  2  0
 18 20  1  0
M  END
$$$$
