VWF.pdb
     RDKit          3D

 33 35  0  0  1  0  0  0  0  0999 V2000
   25.1423  -19.7449  -14.9983 C   0  0  0  0  0  0  0  0  0  0  0  0
   26.5423  -19.2772  -14.6603 C   0  0  2  0  0  0  0  0  0  0  0  0
   27.2546  -18.7984  -15.8816 C   0  0  0  0  0  0  0  0  0  0  0  0
   27.2582  -20.4378  -13.9925 C   0  0  2  0  0  0  0  0  0  0  0  0
   27.3384  -21.6058  -14.8148 N   0  0  0  0  0  0  0  0  0  0  0  0
   26.6703  -20.7783  -12.6896 C   0  0  0  0  0  0  0  0  0  0  0  0
   25.8638  -21.7161  -12.5923 O   0  0  0  0  0  0  0  0  0  0  0  0
   27.0527  -19.9979  -11.5422 N   0  0  0  0  0  0  0  0  0  0  0  0
   26.4093  -20.2129  -10.2750 C   0  0  1  0  0  0  0  0  0  0  0  0
   27.1074  -19.6624   -9.0925 C   0  0  0  0  0  0  0  0  0  0  0  0
   26.9103  -20.3586   -7.8194 C   0  0  0  0  0  0  0  0  0  0  0  0
   26.4033  -21.5996   -7.5156 C   0  0  0  0  0  0  0  0  0  0  0  0
   26.4432  -21.7820   -6.1621 N   0  0  0  0  0  0  0  0  0  0  0  0
   26.9672  -20.6778   -5.6027 C   0  0  0  0  0  0  0  0  0  0  0  0
   27.2161  -20.3733   -4.2750 C   0  0  0  0  0  0  0  0  0  0  0  0
   27.7667  -19.1550   -3.9844 C   0  0  0  0  0  0  0  0  0  0  0  0
   28.0819  -18.2261   -4.9469 C   0  0  0  0  0  0  0  0  0  0  0  0
   27.8205  -18.5634   -6.2567 C   0  0  0  0  0  0  0  0  0  0  0  0
   27.2665  -19.7786   -6.5992 C   0  0  0  0  0  0  0  0  0  0  0  0
   24.9782  -19.7427  -10.3395 C   0  0  0  0  0  0  0  0  0  0  0  0
   24.7569  -18.5348  -10.2608 O   0  0  0  0  0  0  0  0  0  0  0  0
   23.9326  -20.6870  -10.4850 N   0  0  0  0  0  0  0  0  0  0  0  0
   22.5217  -20.3556  -10.5180 C   0  0  1  0  0  0  0  0  0  0  0  0
   22.3139  -19.3448  -11.5933 C   0  0  0  0  0  0  0  0  0  0  0  0
   22.2449  -19.9999  -12.9164 C   0  0  0  0  0  0  0  0  0  0  0  0
   23.0037  -19.6087  -14.0080 C   0  0  0  0  0  0  0  0  0  0  0  0
   22.8993  -20.2464  -15.2250 C   0  0  0  0  0  0  0  0  0  0  0  0
   22.0153  -21.3067  -15.3683 C   0  0  0  0  0  0  0  0  0  0  0  0
   21.2421  -21.7277  -14.3067 C   0  0  0  0  0  0  0  0  0  0  0  0
   21.3779  -21.0644  -13.1139 C   0  0  0  0  0  0  0  0  0  0  0  0
   21.6711  -21.5543  -10.5969 C   0  0  0  0  0  0  0  0  0  0  0  0
   20.4154  -21.4960  -10.5713 O   0  0  0  0  0  0  0  0  0  0  0  0
   22.2077  -22.8289  -10.7069 O   0  0  0  0  0  0  0  0  0  0  0  0
  2  1  1  6
  2  3  1  0
  4  2  1  0
  4  5  1  6
  6  7  2  0
  6  4  1  0
  8  6  1  0
  9  8  1  0
 10 11  1  0
  9 10  1  1
 11 19  1  0
 12 13  1  0
 12 11  2  0
 13 14  1  0
 14 19  2  0
 14 15  1  0
 15 16  2  0
 16 17  1  0
 18 17  2  0
 19 18  1  0
 20 22  1  0
 20  9  1  0
 21 20  2  0
 23 22  1  0
 23 31  1  0
 24 25  1  0
 23 24  1  6
 25 30  1  0
 26 25  2  0
 26 27  1  0
 27 28  2  0
 28 29  1  0
 30 29  2  0
 31 33  1  0
 32 31  2  0
M  END
$$$$
