VWF.pdb
     RDKit          3D

 33 35  0  0  1  0  0  0  0  0999 V2000
   26.3517  -18.5038  -16.2481 C   0  0  0  0  0  0  0  0  0  0  0  0
   26.5772  -17.7138  -14.9761 C   0  0  2  0  0  0  0  0  0  0  0  0
   26.8923  -16.2872  -15.2824 C   0  0  0  0  0  0  0  0  0  0  0  0
   27.6941  -18.3997  -14.2094 C   0  0  2  0  0  0  0  0  0  0  0  0
   28.9403  -18.4148  -14.9119 N   0  0  0  0  0  0  0  0  0  0  0  0
   27.3307  -19.7627  -13.7983 C   0  0  0  0  0  0  0  0  0  0  0  0
   27.8855  -20.7428  -14.3191 O   0  0  0  0  0  0  0  0  0  0  0  0
   26.3210  -19.9250  -12.7854 N   0  0  0  0  0  0  0  0  0  0  0  0
   25.8849  -21.2404  -12.4039 C   0  0  1  0  0  0  0  0  0  0  0  0
   25.3522  -21.3732  -11.0301 C   0  0  0  0  0  0  0  0  0  0  0  0
   26.1437  -20.7815   -9.9495 C   0  0  0  0  0  0  0  0  0  0  0  0
   25.8388  -19.8486   -8.9871 C   0  0  0  0  0  0  0  0  0  0  0  0
   26.9361  -19.6405   -8.1999 N   0  0  0  0  0  0  0  0  0  0  0  0
   27.9311  -20.4259   -8.6467 C   0  0  0  0  0  0  0  0  0  0  0  0
   29.2293  -20.5805   -8.1902 C   0  0  0  0  0  0  0  0  0  0  0  0
   30.0422  -21.4657   -8.8439 C   0  0  0  0  0  0  0  0  0  0  0  0
   29.6291  -22.2039   -9.9270 C   0  0  0  0  0  0  0  0  0  0  0  0
   28.3315  -22.0242  -10.3531 C   0  0  0  0  0  0  0  0  0  0  0  0
   27.4747  -21.1439   -9.7271 C   0  0  0  0  0  0  0  0  0  0  0  0
   24.9147  -21.7761  -13.4263 C   0  0  0  0  0  0  0  0  0  0  0  0
   24.1467  -20.9847  -13.9724 O   0  0  0  0  0  0  0  0  0  0  0  0
   24.9052  -23.1592  -13.7311 N   0  0  0  0  0  0  0  0  0  0  0  0
   24.0142  -23.7860  -14.6877 C   0  0  1  0  0  0  0  0  0  0  0  0
   24.4124  -25.2166  -14.8149 C   0  0  0  0  0  0  0  0  0  0  0  0
   23.2490  -26.1015  -14.5962 C   0  0  0  0  0  0  0  0  0  0  0  0
   23.0418  -26.8247  -13.4323 C   0  0  0  0  0  0  0  0  0  0  0  0
   21.9442  -27.6432  -13.2773 C   0  0  0  0  0  0  0  0  0  0  0  0
   21.0200  -27.7507  -14.3070 C   0  0  0  0  0  0  0  0  0  0  0  0
   21.1887  -27.0477  -15.4815 C   0  0  0  0  0  0  0  0  0  0  0  0
   22.2953  -26.2451  -15.5930 C   0  0  0  0  0  0  0  0  0  0  0  0
   22.5977  -23.5445  -14.3686 C   0  0  0  0  0  0  0  0  0  0  0  0
   21.7122  -23.4426  -15.2554 O   0  0  0  0  0  0  0  0  0  0  0  0
   22.1516  -23.4158  -13.0614 O   0  0  0  0  0  0  0  0  0  0  0  0
  2  1  1  6
  2  3  1  0
  4  2  1  0
  4  5  1  6
  6  7  2  0
  6  4  1  0
  8  6  1  0
  9  8  1  0
 10 11  1  0
  9 10  1  1
 11 19  1  0
 12 13  1  0
 12 11  2  0
 13 14  1  0
 14 19  2  0
 14 15  1  0
 15 16  2  0
 16 17  1  0
 18 17  2  0
 19 18  1  0
 20 22  1  0
 20  9  1  0
 21 20  2  0
 23 22  1  0
 23 31  1  0
 24 25  1  0
 23 24  1  1
 25 30  1  0
 26 25  2  0
 26 27  1  0
 27 28  2  0
 28 29  1  0
 30 29  2  0
 31 33  1  0
 32 31  2  0
M  END
$$$$
