VWF.pdb
     RDKit          3D

 33 35  0  0  1  0  0  0  0  0999 V2000
   20.1532  -30.2382  -11.7266 C   0  0  0  0  0  0  0  0  0  0  0  0
   19.6625  -29.6597  -10.4160 C   0  0  2  0  0  0  0  0  0  0  0  0
   18.2941  -30.1597  -10.0908 C   0  0  0  0  0  0  0  0  0  0  0  0
   19.7092  -28.1473  -10.5433 C   0  0  2  0  0  0  0  0  0  0  0  0
   20.9737  -27.6533  -10.9946 N   0  0  0  0  0  0  0  0  0  0  0  0
   19.3197  -27.4721   -9.2978 C   0  0  0  0  0  0  0  0  0  0  0  0
   20.1409  -27.3318   -8.3783 O   0  0  0  0  0  0  0  0  0  0  0  0
   17.9705  -26.9856   -9.1770 N   0  0  0  0  0  0  0  0  0  0  0  0
   17.5813  -26.2117   -8.0299 C   0  0  1  0  0  0  0  0  0  0  0  0
   16.6965  -25.0567   -8.2978 C   0  0  0  0  0  0  0  0  0  0  0  0
   16.1529  -24.3512   -7.1355 C   0  0  0  0  0  0  0  0  0  0  0  0
   16.7528  -23.7905   -6.0331 C   0  0  0  0  0  0  0  0  0  0  0  0
   15.7937  -23.2367   -5.2329 N   0  0  0  0  0  0  0  0  0  0  0  0
   14.5961  -23.4365   -5.8094 C   0  0  0  0  0  0  0  0  0  0  0  0
   13.3265  -23.0677   -5.3974 C   0  0  0  0  0  0  0  0  0  0  0  0
   12.2661  -23.4051   -6.1934 C   0  0  0  0  0  0  0  0  0  0  0  0
   12.4052  -24.0896   -7.3769 C   0  0  0  0  0  0  0  0  0  0  0  0
   13.6827  -24.4400   -7.7550 C   0  0  0  0  0  0  0  0  0  0  0  0
   14.7825  -24.1225   -6.9866 C   0  0  0  0  0  0  0  0  0  0  0  0
   17.0023  -27.1170   -6.9724 C   0  0  0  0  0  0  0  0  0  0  0  0
   16.1292  -27.9181   -7.3045 O   0  0  0  0  0  0  0  0  0  0  0  0
   17.4662  -27.0269   -5.6372 N   0  0  0  0  0  0  0  0  0  0  0  0
   16.9091  -27.7635   -4.5198 C   0  0  1  0  0  0  0  0  0  0  0  0
   17.9278  -28.7546   -4.0712 C   0  0  0  0  0  0  0  0  0  0  0  0
   17.9094  -29.9491   -4.9415 C   0  0  0  0  0  0  0  0  0  0  0  0
   16.9494  -30.9451   -4.8590 C   0  0  0  0  0  0  0  0  0  0  0  0
   16.9779  -32.0451   -5.6883 C   0  0  0  0  0  0  0  0  0  0  0  0
   17.9893  -32.1651   -6.6311 C   0  0  0  0  0  0  0  0  0  0  0  0
   18.9638  -31.1961   -6.7462 C   0  0  0  0  0  0  0  0  0  0  0  0
   18.8970  -30.1183   -5.9005 C   0  0  0  0  0  0  0  0  0  0  0  0
   16.3831  -26.8718   -3.4734 C   0  0  0  0  0  0  0  0  0  0  0  0
   15.7844  -27.3027   -2.4552 O   0  0  0  0  0  0  0  0  0  0  0  0
   16.5192  -25.4932   -3.5477 O   0  0  0  0  0  0  0  0  0  0  0  0
  2  1  1  6
  2  3  1  0
  4  2  1  0
  4  5  1  1
  6  7  2  0
  6  4  1  0
  8  6  1  0
  9  8  1  0
 10 11  1  0
  9 10  1  6
 11 19  1  0
 12 13  1  0
 12 11  2  0
 13 14  1  0
 14 19  2  0
 14 15  1  0
 15 16  2  0
 16 17  1  0
 18 17  2  0
 19 18  1  0
 20 22  1  0
 20  9  1  0
 21 20  2  0
 23 22  1  0
 23 31  1  0
 24 25  1  0
 23 24  1  1
 25 30  1  0
 26 25  2  0
 26 27  1  0
 27 28  2  0
 28 29  1  0
 30 29  2  0
 31 33  1  0
 32 31  2  0
M  END
$$$$
