VWF.pdb
     RDKit          3D

 33 35  0  0  1  0  0  0  0  0999 V2000
   26.4908  -18.8694  -16.0947 C   0  0  0  0  0  0  0  0  0  0  0  0
   27.6898  -18.1737  -15.4853 C   0  0  2  0  0  0  0  0  0  0  0  0
   28.7296  -17.8974  -16.5200 C   0  0  0  0  0  0  0  0  0  0  0  0
   28.2088  -19.0618  -14.3683 C   0  0  2  0  0  0  0  0  0  0  0  0
   28.6075  -20.3616  -14.8138 N   0  0  0  0  0  0  0  0  0  0  0  0
   27.2500  -19.1806  -13.2613 C   0  0  0  0  0  0  0  0  0  0  0  0
   26.7247  -18.1665  -12.7763 O   0  0  0  0  0  0  0  0  0  0  0  0
   26.9435  -20.4947  -12.7604 N   0  0  0  0  0  0  0  0  0  0  0  0
   25.9739  -20.6606  -11.7124 C   0  0  1  0  0  0  0  0  0  0  0  0
   24.7506  -21.4097  -12.0744 C   0  0  0  0  0  0  0  0  0  0  0  0
   23.8040  -20.7444  -12.9718 C   0  0  0  0  0  0  0  0  0  0  0  0
   23.8688  -20.4224  -14.3066 C   0  0  0  0  0  0  0  0  0  0  0  0
   22.7058  -19.8086  -14.6775 N   0  0  0  0  0  0  0  0  0  0  0  0
   21.9047  -19.7364  -13.6007 C   0  0  0  0  0  0  0  0  0  0  0  0
   20.6315  -19.2102  -13.4602 C   0  0  0  0  0  0  0  0  0  0  0  0
   20.0396  -19.2727  -12.2283 C   0  0  0  0  0  0  0  0  0  0  0  0
   20.6496  -19.8317  -11.1311 C   0  0  0  0  0  0  0  0  0  0  0  0
   21.9155  -20.3452  -11.3081 C   0  0  0  0  0  0  0  0  0  0  0  0
   22.5532  -20.3055  -12.5299 C   0  0  0  0  0  0  0  0  0  0  0  0
   26.6353  -21.2421  -10.4886 C   0  0  0  0  0  0  0  0  0  0  0  0
   27.7249  -21.7979  -10.6228 O   0  0  0  0  0  0  0  0  0  0  0  0
   25.9974  -21.1406   -9.2281 N   0  0  0  0  0  0  0  0  0  0  0  0
   26.6878  -21.1340   -7.9533 C   0  0  1  0  0  0  0  0  0  0  0  0
   27.7477  -20.0879   -8.0122 C   0  0  0  0  0  0  0  0  0  0  0  0
   28.3822  -19.9156   -6.6884 C   0  0  0  0  0  0  0  0  0  0  0  0
   27.9942  -18.9533   -5.7698 C   0  0  0  0  0  0  0  0  0  0  0  0
   28.6214  -18.8263   -4.5496 C   0  0  0  0  0  0  0  0  0  0  0  0
   29.6675  -19.6790   -4.2259 C   0  0  0  0  0  0  0  0  0  0  0  0
   30.0844  -20.6504   -5.1116 C   0  0  0  0  0  0  0  0  0  0  0  0
   29.4320  -20.7413   -6.3147 C   0  0  0  0  0  0  0  0  0  0  0  0
   25.7566  -21.0349   -6.8177 C   0  0  0  0  0  0  0  0  0  0  0  0
   26.0294  -21.4888   -5.6773 O   0  0  0  0  0  0  0  0  0  0  0  0
   24.5145  -20.4290   -6.9379 O   0  0  0  0  0  0  0  0  0  0  0  0
  2  1  1  6
  2  3  1  0
  4  2  1  0
  4  5  1  6
  6  7  2  0
  6  4  1  0
  8  6  1  0
  9  8  1  0
 10 11  1  0
  9 10  1  6
 11 19  1  0
 12 13  1  0
 12 11  2  0
 13 14  1  0
 14 19  2  0
 14 15  1  0
 15 16  2  0
 16 17  1  0
 18 17  2  0
 19 18  1  0
 20 22  1  0
 20  9  1  0
 21 20  2  0
 23 22  1  0
 23 31  1  0
 24 25  1  0
 23 24  1  6
 25 30  1  0
 26 25  2  0
 26 27  1  0
 27 28  2  0
 28 29  1  0
 30 29  2  0
 31 33  1  0
 32 31  2  0
M  END
$$$$
