VWF.pdb
     RDKit          3D

 33 35  0  0  1  0  0  0  0  0999 V2000
   28.9680  -20.7559  -13.3421 C   0  0  0  0  0  0  0  0  0  0  0  0
   28.0156  -20.7196  -14.5189 C   0  0  2  0  0  0  0  0  0  0  0  0
   28.6414  -20.0399  -15.6913 C   0  0  0  0  0  0  0  0  0  0  0  0
   26.7496  -20.0213  -14.0550 C   0  0  2  0  0  0  0  0  0  0  0  0
   26.9427  -18.6369  -13.7503 N   0  0  0  0  0  0  0  0  0  0  0  0
   26.1227  -20.7054  -12.9157 C   0  0  0  0  0  0  0  0  0  0  0  0
   25.7828  -21.8951  -13.0095 O   0  0  0  0  0  0  0  0  0  0  0  0
   25.9151  -19.9612  -11.7014 N   0  0  0  0  0  0  0  0  0  0  0  0
   25.1570  -20.5345  -10.6230 C   0  0  1  0  0  0  0  0  0  0  0  0
   25.6827  -20.2924   -9.2615 C   0  0  0  0  0  0  0  0  0  0  0  0
   27.0733  -20.6742   -9.0074 C   0  0  0  0  0  0  0  0  0  0  0  0
   28.0043  -21.3321   -9.7755 C   0  0  0  0  0  0  0  0  0  0  0  0
   29.1733  -21.4334   -9.0754 N   0  0  0  0  0  0  0  0  0  0  0  0
   28.9993  -20.8506   -7.8768 C   0  0  0  0  0  0  0  0  0  0  0  0
   29.8769  -20.6922   -6.8175 C   0  0  0  0  0  0  0  0  0  0  0  0
   29.4275  -20.0471   -5.6978 C   0  0  0  0  0  0  0  0  0  0  0  0
   28.1510  -19.5522   -5.5794 C   0  0  0  0  0  0  0  0  0  0  0  0
   27.3057  -19.7279   -6.6528 C   0  0  0  0  0  0  0  0  0  0  0  0
   27.7125  -20.3714   -7.8024 C   0  0  0  0  0  0  0  0  0  0  0  0
   23.7107  -20.1242  -10.7374 C   0  0  0  0  0  0  0  0  0  0  0  0
   23.3945  -18.9931  -10.3702 O   0  0  0  0  0  0  0  0  0  0  0  0
   22.7588  -21.0362  -11.2552 N   0  0  0  0  0  0  0  0  0  0  0  0
   21.3681  -20.7182  -11.5126 C   0  0  1  0  0  0  0  0  0  0  0  0
   21.3290  -19.5802  -12.4742 C   0  0  0  0  0  0  0  0  0  0  0  0
   21.8250  -20.0033  -13.8007 C   0  0  0  0  0  0  0  0  0  0  0  0
   21.1813  -20.9340  -14.6006 C   0  0  0  0  0  0  0  0  0  0  0  0
   21.6866  -21.3025  -15.8284 C   0  0  0  0  0  0  0  0  0  0  0  0
   22.8680  -20.7320  -16.2813 C   0  0  0  0  0  0  0  0  0  0  0  0
   23.5397  -19.8016  -15.5162 C   0  0  0  0  0  0  0  0  0  0  0  0
   23.0010  -19.4643  -14.3008 C   0  0  0  0  0  0  0  0  0  0  0  0
   20.5888  -21.9058  -11.8984 C   0  0  0  0  0  0  0  0  0  0  0  0
   21.1279  -23.0039  -12.1888 O   0  0  0  0  0  0  0  0  0  0  0  0
   19.2032  -21.8851  -11.9632 O   0  0  0  0  0  0  0  0  0  0  0  0
  2  1  1  1
  2  3  1  0
  4  2  1  0
  4  5  1  1
  6  7  2  0
  6  4  1  0
  8  6  1  0
  9  8  1  0
 10 11  1  0
  9 10  1  1
 11 19  1  0
 12 13  1  0
 12 11  2  0
 13 14  1  0
 14 19  2  0
 14 15  1  0
 15 16  2  0
 16 17  1  0
 18 17  2  0
 19 18  1  0
 20 22  1  0
 20  9  1  0
 21 20  2  0
 23 22  1  0
 23 31  1  0
 24 25  1  0
 23 24  1  6
 25 30  1  0
 26 25  2  0
 26 27  1  0
 27 28  2  0
 28 29  1  0
 30 29  2  0
 31 33  1  0
 32 31  2  0
M  END
$$$$
