VWF.pdb
     RDKit          3D

 33 35  0  0  1  0  0  0  0  0999 V2000
   29.9494  -19.7164  -13.8359 C   0  0  0  0  0  0  0  0  0  0  0  0
   29.6419  -20.9096  -14.7161 C   0  0  2  0  0  0  0  0  0  0  0  0
   30.8255  -21.2789  -15.5474 C   0  0  0  0  0  0  0  0  0  0  0  0
   28.4330  -20.5491  -15.5611 C   0  0  2  0  0  0  0  0  0  0  0  0
   28.7140  -19.5728  -16.5685 N   0  0  0  0  0  0  0  0  0  0  0  0
   27.2921  -20.1153  -14.7431 C   0  0  0  0  0  0  0  0  0  0  0  0
   27.0577  -18.9070  -14.5860 O   0  0  0  0  0  0  0  0  0  0  0  0
   26.4648  -21.1236  -14.1344 N   0  0  0  0  0  0  0  0  0  0  0  0
   25.3069  -20.7447  -13.3717 C   0  0  1  0  0  0  0  0  0  0  0  0
   23.9984  -21.1180  -13.9523 C   0  0  0  0  0  0  0  0  0  0  0  0
   22.8015  -20.6266  -13.2665 C   0  0  0  0  0  0  0  0  0  0  0  0
   22.5735  -19.5139  -12.4923 C   0  0  0  0  0  0  0  0  0  0  0  0
   21.2677  -19.5066  -12.0901 N   0  0  0  0  0  0  0  0  0  0  0  0
   20.6640  -20.5955  -12.5965 C   0  0  0  0  0  0  0  0  0  0  0  0
   19.3563  -21.0356  -12.4794 C   0  0  0  0  0  0  0  0  0  0  0  0
   19.0073  -22.1979  -13.1111 C   0  0  0  0  0  0  0  0  0  0  0  0
   19.8926  -22.9430  -13.8525 C   0  0  0  0  0  0  0  0  0  0  0  0
   21.1846  -22.4748  -13.9472 C   0  0  0  0  0  0  0  0  0  0  0  0
   21.5839  -21.3091  -13.3285 C   0  0  0  0  0  0  0  0  0  0  0  0
   25.4424  -21.2382  -11.9534 C   0  0  0  0  0  0  0  0  0  0  0  0
   25.7904  -22.4045  -11.7723 O   0  0  0  0  0  0  0  0  0  0  0  0
   25.1681  -20.3630  -10.8741 N   0  0  0  0  0  0  0  0  0  0  0  0
   25.1497  -20.7560   -9.4788 C   0  0  1  0  0  0  0  0  0  0  0  0
   25.4377  -19.5456   -8.6584 C   0  0  0  0  0  0  0  0  0  0  0  0
   26.8076  -19.6056   -8.1066 C   0  0  0  0  0  0  0  0  0  0  0  0
   27.5421  -18.4857   -7.7503 C   0  0  0  0  0  0  0  0  0  0  0  0
   28.8200  -18.5915   -7.2461 C   0  0  0  0  0  0  0  0  0  0  0  0
   29.3917  -19.8463   -7.0886 C   0  0  0  0  0  0  0  0  0  0  0  0
   28.6947  -20.9861   -7.4307 C   0  0  0  0  0  0  0  0  0  0  0  0
   27.4258  -20.8343   -7.9289 C   0  0  0  0  0  0  0  0  0  0  0  0
   23.9237  -21.4895   -9.1244 C   0  0  0  0  0  0  0  0  0  0  0  0
   22.8824  -21.4469   -9.8278 O   0  0  0  0  0  0  0  0  0  0  0  0
   23.8437  -22.2785   -7.9861 O   0  0  0  0  0  0  0  0  0  0  0  0
  2  1  1  6
  2  3  1  0
  4  2  1  0
  4  5  1  6
  6  7  2  0
  6  4  1  0
  8  6  1  0
  9  8  1  0
 10 11  1  0
  9 10  1  6
 11 19  1  0
 12 13  1  0
 12 11  2  0
 13 14  1  0
 14 19  2  0
 14 15  1  0
 15 16  2  0
 16 17  1  0
 18 17  2  0
 19 18  1  0
 20 22  1  0
 20  9  1  0
 21 20  2  0
 23 22  1  0
 23 31  1  0
 24 25  1  0
 23 24  1  1
 25 30  1  0
 26 25  2  0
 26 27  1  0
 27 28  2  0
 28 29  1  0
 30 29  2  0
 31 33  1  0
 32 31  2  0
M  END
$$$$
