VWF.pdb
     RDKit          3D

 33 35  0  0  1  0  0  0  0  0999 V2000
   29.4356  -23.4822  -16.6144 C   0  0  0  0  0  0  0  0  0  0  0  0
   28.0322  -23.0282  -16.9568 C   0  0  2  0  0  0  0  0  0  0  0  0
   27.8282  -22.9932  -18.4352 C   0  0  0  0  0  0  0  0  0  0  0  0
   27.8269  -21.6682  -16.3136 C   0  0  2  0  0  0  0  0  0  0  0  0
   29.0463  -20.9526  -16.0948 N   0  0  0  0  0  0  0  0  0  0  0  0
   27.0619  -21.7547  -15.0621 C   0  0  0  0  0  0  0  0  0  0  0  0
   25.9157  -22.2300  -15.0604 O   0  0  0  0  0  0  0  0  0  0  0  0
   27.6748  -21.2745  -13.8515 N   0  0  0  0  0  0  0  0  0  0  0  0
   26.9271  -21.2480  -12.6242 C   0  0  1  0  0  0  0  0  0  0  0  0
   27.7032  -20.9551  -11.3992 C   0  0  0  0  0  0  0  0  0  0  0  0
   26.9469  -20.7870  -10.1567 C   0  0  0  0  0  0  0  0  0  0  0  0
   25.6118  -20.9306   -9.8628 C   0  0  0  0  0  0  0  0  0  0  0  0
   25.4127  -20.6650   -8.5374 N   0  0  0  0  0  0  0  0  0  0  0  0
   26.5989  -20.3559   -7.9860 C   0  0  0  0  0  0  0  0  0  0  0  0
   26.9243  -20.0151   -6.6839 C   0  0  0  0  0  0  0  0  0  0  0  0
   28.2343  -19.7464   -6.3951 C   0  0  0  0  0  0  0  0  0  0  0  0
   29.2353  -19.7998   -7.3352 C   0  0  0  0  0  0  0  0  0  0  0  0
   28.8747  -20.1422   -8.6199 C   0  0  0  0  0  0  0  0  0  0  0  0
   27.5679  -20.4217   -8.9595 C   0  0  0  0  0  0  0  0  0  0  0  0
   25.7450  -20.3223  -12.7632 C   0  0  0  0  0  0  0  0  0  0  0  0
   25.9596  -19.1175  -12.8917 O   0  0  0  0  0  0  0  0  0  0  0  0
   24.4309  -20.8501  -12.7410 N   0  0  0  0  0  0  0  0  0  0  0  0
   23.2372  -20.1039  -13.0874 C   0  0  1  0  0  0  0  0  0  0  0  0
   23.4011  -19.5988  -14.4800 C   0  0  0  0  0  0  0  0  0  0  0  0
   22.1857  -18.8815  -14.9191 C   0  0  0  0  0  0  0  0  0  0  0  0
   21.8545  -17.6028  -14.4999 C   0  0  0  0  0  0  0  0  0  0  0  0
   20.7054  -16.9770  -14.9317 C   0  0  0  0  0  0  0  0  0  0  0  0
   19.8546  -17.6370  -15.8075 C   0  0  0  0  0  0  0  0  0  0  0  0
   20.1476  -18.9102  -16.2491 C   0  0  0  0  0  0  0  0  0  0  0  0
   21.3015  -19.4953  -15.7939 C   0  0  0  0  0  0  0  0  0  0  0  0
   22.0079  -20.8706  -12.8279 C   0  0  0  0  0  0  0  0  0  0  0  0
   21.0425  -20.4004  -12.1738 O   0  0  0  0  0  0  0  0  0  0  0  0
   21.8389  -22.1662  -13.2941 O   0  0  0  0  0  0  0  0  0  0  0  0
  2  1  1  6
  2  3  1  0
  4  2  1  0
  4  5  1  1
  6  7  2  0
  6  4  1  0
  8  6  1  0
  9  8  1  0
 10 11  1  0
  9 10  1  1
 11 19  1  0
 12 13  1  0
 12 11  2  0
 13 14  1  0
 14 19  2  0
 14 15  1  0
 15 16  2  0
 16 17  1  0
 18 17  2  0
 19 18  1  0
 20 22  1  0
 20  9  1  0
 21 20  2  0
 23 22  1  0
 23 31  1  0
 24 25  1  0
 23 24  1  6
 25 30  1  0
 26 25  2  0
 26 27  1  0
 27 28  2  0
 28 29  1  0
 30 29  2  0
 31 33  1  0
 32 31  2  0
M  END
$$$$
