VWF.pdb
     RDKit          3D

 33 35  0  0  1  0  0  0  0  0999 V2000
   29.4589  -19.3068  -13.4840 C   0  0  0  0  0  0  0  0  0  0  0  0
   28.8772  -20.4996  -14.2134 C   0  0  2  0  0  0  0  0  0  0  0  0
   29.6441  -20.7885  -15.4610 C   0  0  0  0  0  0  0  0  0  0  0  0
   27.4167  -20.1913  -14.4920 C   0  0  2  0  0  0  0  0  0  0  0  0
   27.2287  -19.1682  -15.4742 N   0  0  0  0  0  0  0  0  0  0  0  0
   26.6755  -19.8573  -13.2681 C   0  0  0  0  0  0  0  0  0  0  0  0
   26.4514  -18.6725  -12.9754 O   0  0  0  0  0  0  0  0  0  0  0  0
   26.2240  -20.9344  -12.4268 N   0  0  0  0  0  0  0  0  0  0  0  0
   25.5580  -20.6510  -11.1850 C   0  0  1  0  0  0  0  0  0  0  0  0
   24.1786  -21.1701  -11.0567 C   0  0  0  0  0  0  0  0  0  0  0  0
   23.1392  -20.4979  -11.8389 C   0  0  0  0  0  0  0  0  0  0  0  0
   23.0593  -20.1596  -13.1688 C   0  0  0  0  0  0  0  0  0  0  0  0
   21.8615  -19.5461  -13.4050 N   0  0  0  0  0  0  0  0  0  0  0  0
   21.1805  -19.4901  -12.2475 C   0  0  0  0  0  0  0  0  0  0  0  0
   19.9284  -18.9708  -11.9644 C   0  0  0  0  0  0  0  0  0  0  0  0
   19.4725  -19.0505  -10.6770 C   0  0  0  0  0  0  0  0  0  0  0  0
   20.1985  -19.6203   -9.6586 C   0  0  0  0  0  0  0  0  0  0  0  0
   21.4394  -20.1264   -9.9770 C   0  0  0  0  0  0  0  0  0  0  0  0
   21.9420  -20.0695  -11.2597 C   0  0  0  0  0  0  0  0  0  0  0  0
   26.4215  -21.0867  -10.0283 C   0  0  0  0  0  0  0  0  0  0  0  0
   27.5265  -21.5689  -10.2745 O   0  0  0  0  0  0  0  0  0  0  0  0
   25.9494  -20.9367   -8.7015 N   0  0  0  0  0  0  0  0  0  0  0  0
   26.7942  -20.9166   -7.5235 C   0  0  1  0  0  0  0  0  0  0  0  0
   27.7870  -19.8178   -7.6909 C   0  0  0  0  0  0  0  0  0  0  0  0
   28.6289  -19.6894   -6.4828 C   0  0  0  0  0  0  0  0  0  0  0  0
   29.8425  -20.3383   -6.3196 C   0  0  0  0  0  0  0  0  0  0  0  0
   30.5894  -20.1932   -5.1709 C   0  0  0  0  0  0  0  0  0  0  0  0
   30.1215  -19.3793   -4.1487 C   0  0  0  0  0  0  0  0  0  0  0  0
   28.9189  -18.7154   -4.2713 C   0  0  0  0  0  0  0  0  0  0  0  0
   28.2081  -18.8886   -5.4315 C   0  0  0  0  0  0  0  0  0  0  0  0
   26.0104  -20.8835   -6.2781 C   0  0  0  0  0  0  0  0  0  0  0  0
   24.9356  -20.2396   -6.1719 O   0  0  0  0  0  0  0  0  0  0  0  0
   26.4123  -21.5669   -5.1397 O   0  0  0  0  0  0  0  0  0  0  0  0
  2  1  1  6
  2  3  1  0
  4  2  1  0
  4  5  1  6
  6  7  2  0
  6  4  1  0
  8  6  1  0
  9  8  1  0
 10 11  1  0
  9 10  1  6
 11 19  1  0
 12 13  1  0
 12 11  2  0
 13 14  1  0
 14 19  2  0
 14 15  1  0
 15 16  2  0
 16 17  1  0
 18 17  2  0
 19 18  1  0
 20 22  1  0
 20  9  1  0
 21 20  2  0
 23 22  1  0
 23 31  1  0
 24 25  1  0
 23 24  1  6
 25 30  1  0
 26 25  2  0
 26 27  1  0
 27 28  2  0
 28 29  1  0
 30 29  2  0
 31 33  1  0
 32 31  2  0
M  END
$$$$
