DCE.pdb
     RDKit          3D

 24 23  0  0  1  0  0  0  0  0999 V2000
   18.5570  -14.4322  -15.9090 N   0  0  0  0  0  0  0  0  0  0  0  0
   18.3169  -13.0977  -16.4661 C   0  0  1  0  0  0  0  0  0  0  0  0
   17.3419  -12.4080  -15.5408 C   0  0  0  0  0  0  0  0  0  0  0  0
   15.9751  -12.8733  -15.7679 C   0  0  0  0  0  0  0  0  0  0  0  0
   15.5475  -14.0463  -15.5881 O   0  0  0  0  0  0  0  0  0  0  0  0
   19.6063  -12.3673  -16.3909 C   0  0  0  0  0  0  0  0  0  0  0  0
   20.3292  -12.5407  -15.4097 O   0  0  0  0  0  0  0  0  0  0  0  0
   15.0126  -11.9573  -16.2315 O   0  0  0  0  0  0  0  0  0  0  0  0
   20.0441  -11.4755  -17.4032 N   0  0  0  0  0  0  0  0  0  0  0  0
   21.2938  -10.8298  -17.4745 C   0  0  1  0  0  0  0  0  0  0  0  0
   22.1061  -11.0786  -18.6912 C   0  0  0  0  0  0  0  0  0  0  0  0
   23.7112  -10.2569  -18.4769 S   0  0  0  0  0  0  0  0  0  0  0  0
   21.1274   -9.3696  -17.2993 C   0  0  0  0  0  0  0  0  0  0  0  0
   20.3190   -8.7685  -18.0570 O   0  0  0  0  0  0  0  0  0  0  0  0
   21.8044   -8.6028  -16.3492 N   0  0  0  0  0  0  0  0  0  0  0  0
   21.5258   -7.1560  -16.1819 C   0  0  1  0  0  0  0  0  0  0  0  0
   21.9897   -6.7341  -14.8158 C   0  0  0  0  0  0  0  0  0  0  0  0
   21.7267   -5.3241  -14.4582 C   0  0  0  0  0  0  0  0  0  0  0  0
   22.2169   -4.9660  -13.1257 C   0  0  0  0  0  0  0  0  0  0  0  0
   22.8771   -3.8982  -12.9800 O   0  0  0  0  0  0  0  0  0  0  0  0
   22.2593   -6.3932  -17.2123 C   0  0  0  0  0  0  0  0  0  0  0  0
   23.4093   -6.7897  -17.5582 O   0  0  0  0  0  0  0  0  0  0  0  0
   22.0232   -5.7067  -11.9715 O   0  0  0  0  0  0  0  0  0  0  0  0
   21.7326   -5.2771  -17.8020 O   0  0  0  0  0  0  0  0  0  0  0  0
  2  1  1  1
  2  3  1  0
  3  4  1  0
  4  8  1  0
  5  4  2  0
  6  2  1  0
  7  6  2  0
  9  6  1  0
 10 13  1  0
 10  9  1  0
 10 11  1  6
 12 11  1  0
 13 15  1  0
 14 13  2  0
 15 16  1  0
 16 17  1  1
 16 21  1  0
 17 18  1  0
 19 18  1  0
 20 19  2  0
 21 22  2  0
 21 24  1  0
 23 19  1  0
M  END
$$$$
