DCE.pdb
     RDKit          3D

 24 23  0  0  1  0  0  0  0  0999 V2000
   23.2037  -13.7131  -18.0245 N   0  0  0  0  0  0  0  0  0  0  0  0
   23.7703  -12.4965  -18.6141 C   0  0  1  0  0  0  0  0  0  0  0  0
   22.8274  -12.0645  -19.7127 C   0  0  0  0  0  0  0  0  0  0  0  0
   22.8643  -12.9944  -20.8398 C   0  0  0  0  0  0  0  0  0  0  0  0
   21.8659  -13.4790  -21.4393 O   0  0  0  0  0  0  0  0  0  0  0  0
   23.7390  -11.4568  -17.5559 C   0  0  0  0  0  0  0  0  0  0  0  0
   22.7246  -11.3418  -16.8680 O   0  0  0  0  0  0  0  0  0  0  0  0
   24.1128  -13.4147  -21.3345 O   0  0  0  0  0  0  0  0  0  0  0  0
   24.8301  -10.5871  -17.3011 N   0  0  0  0  0  0  0  0  0  0  0  0
   24.9378   -9.6564  -16.2495 C   0  0  1  0  0  0  0  0  0  0  0  0
   26.3007   -9.1637  -15.9302 C   0  0  0  0  0  0  0  0  0  0  0  0
   27.2458  -10.5395  -15.2148 S   0  0  0  0  0  0  0  0  0  0  0  0
   24.0546   -8.4954  -16.4996 C   0  0  0  0  0  0  0  0  0  0  0  0
   24.1053   -7.9431  -17.6315 O   0  0  0  0  0  0  0  0  0  0  0  0
   23.1622   -7.9628  -15.5674 N   0  0  0  0  0  0  0  0  0  0  0  0
   22.2764   -6.8234  -15.9081 C   0  0  1  0  0  0  0  0  0  0  0  0
   20.8535   -7.2264  -15.6395 C   0  0  0  0  0  0  0  0  0  0  0  0
   19.8357   -6.1834  -15.8874 C   0  0  0  0  0  0  0  0  0  0  0  0
   18.4810   -6.6007  -15.5202 C   0  0  0  0  0  0  0  0  0  0  0  0
   17.5350   -5.7676  -15.6120 O   0  0  0  0  0  0  0  0  0  0  0  0
   22.6293   -5.6602  -15.0691 C   0  0  0  0  0  0  0  0  0  0  0  0
   23.2585   -5.8580  -13.9900 O   0  0  0  0  0  0  0  0  0  0  0  0
   18.1223   -7.8590  -15.0661 O   0  0  0  0  0  0  0  0  0  0  0  0
   22.2990   -4.3814  -15.4246 O   0  0  0  0  0  0  0  0  0  0  0  0
  2  1  1  1
  2  3  1  0
  3  4  1  0
  4  8  1  0
  5  4  2  0
  6  2  1  0
  7  6  2  0
  9  6  1  0
 10 13  1  0
 10  9  1  0
 10 11  1  6
 12 11  1  0
 13 15  1  0
 14 13  2  0
 15 16  1  0
 16 17  1  1
 16 21  1  0
 17 18  1  0
 19 18  1  0
 20 19  2  0
 21 22  2  0
 21 24  1  0
 23 19  1  0
M  END
$$$$
