DCE.pdb
     RDKit          3D

 24 23  0  0  1  0  0  0  0  0999 V2000
   18.8078  -13.7110  -15.9561 N   0  0  0  0  0  0  0  0  0  0  0  0
   19.3257  -12.8905  -17.0549 C   0  0  1  0  0  0  0  0  0  0  0  0
   18.1518  -12.1229  -17.6165 C   0  0  0  0  0  0  0  0  0  0  0  0
   17.2393  -13.0046  -18.3419 C   0  0  0  0  0  0  0  0  0  0  0  0
   15.9896  -12.8652  -18.4412 O   0  0  0  0  0  0  0  0  0  0  0  0
   20.2600  -11.9096  -16.4494 C   0  0  0  0  0  0  0  0  0  0  0  0
   19.8637  -11.2123  -15.5155 O   0  0  0  0  0  0  0  0  0  0  0  0
   17.7639  -14.1282  -19.0072 O   0  0  0  0  0  0  0  0  0  0  0  0
   21.5939  -11.7399  -16.9005 N   0  0  0  0  0  0  0  0  0  0  0  0
   22.5707  -10.8926  -16.3421 C   0  0  1  0  0  0  0  0  0  0  0  0
   23.9845  -11.3234  -16.4759 C   0  0  0  0  0  0  0  0  0  0  0  0
   24.2592  -12.7193  -15.3474 S   0  0  0  0  0  0  0  0  0  0  0  0
   22.4332   -9.5230  -16.8861 C   0  0  0  0  0  0  0  0  0  0  0  0
   22.0347   -9.3930  -18.0748 O   0  0  0  0  0  0  0  0  0  0  0  0
   22.7140   -8.3553  -16.1742 N   0  0  0  0  0  0  0  0  0  0  0  0
   22.5323   -7.0156  -16.7834 C   0  0  1  0  0  0  0  0  0  0  0  0
   22.6902   -5.9760  -15.7093 C   0  0  0  0  0  0  0  0  0  0  0  0
   21.5768   -5.8821  -14.7415 C   0  0  0  0  0  0  0  0  0  0  0  0
   21.8020   -4.8789  -13.6989 C   0  0  0  0  0  0  0  0  0  0  0  0
   22.2773   -5.2446  -12.5863 O   0  0  0  0  0  0  0  0  0  0  0  0
   23.5561   -6.8091  -17.8279 C   0  0  0  0  0  0  0  0  0  0  0  0
   24.6583   -7.4211  -17.7277 O   0  0  0  0  0  0  0  0  0  0  0  0
   21.5359   -3.5247  -13.8148 O   0  0  0  0  0  0  0  0  0  0  0  0
   23.3470   -5.9810  -18.8962 O   0  0  0  0  0  0  0  0  0  0  0  0
  2  1  1  1
  2  3  1  0
  3  4  1  0
  4  8  1  0
  5  4  2  0
  6  2  1  0
  7  6  2  0
  9  6  1  0
 10 13  1  0
 10  9  1  0
 10 11  1  6
 12 11  1  0
 13 15  1  0
 14 13  2  0
 15 16  1  0
 16 17  1  1
 16 21  1  0
 17 18  1  0
 19 18  1  0
 20 19  2  0
 21 22  2  0
 21 24  1  0
 23 19  1  0
M  END
$$$$
