DCE.pdb
     RDKit          3D

 24 23  0  0  1  0  0  0  0  0999 V2000
   19.1674  -13.6636  -16.9387 N   0  0  0  0  0  0  0  0  0  0  0  0
   19.3838  -12.3316  -17.5112 C   0  0  1  0  0  0  0  0  0  0  0  0
   18.0235  -11.6875  -17.6430 C   0  0  0  0  0  0  0  0  0  0  0  0
   17.2019  -12.3807  -18.6335 C   0  0  0  0  0  0  0  0  0  0  0  0
   15.9890  -12.7016  -18.5027 O   0  0  0  0  0  0  0  0  0  0  0  0
   20.1557  -11.5578  -16.5078 C   0  0  0  0  0  0  0  0  0  0  0  0
   19.6646  -11.3766  -15.3935 O   0  0  0  0  0  0  0  0  0  0  0  0
   17.7804  -12.7429  -19.8641 O   0  0  0  0  0  0  0  0  0  0  0  0
   21.4387  -11.0162  -16.7766 N   0  0  0  0  0  0  0  0  0  0  0  0
   22.2444  -10.2775  -15.8884 C   0  0  1  0  0  0  0  0  0  0  0  0
   23.7097  -10.4951  -15.9769 C   0  0  0  0  0  0  0  0  0  0  0  0
   24.5142   -9.4344  -14.7419 S   0  0  0  0  0  0  0  0  0  0  0  0
   21.9654   -8.8304  -16.0254 C   0  0  0  0  0  0  0  0  0  0  0  0
   22.0658   -8.3116  -17.1698 O   0  0  0  0  0  0  0  0  0  0  0  0
   21.5959   -7.9912  -14.9727 N   0  0  0  0  0  0  0  0  0  0  0  0
   21.4661   -6.5260  -15.1608 C   0  0  1  0  0  0  0  0  0  0  0  0
   20.0056   -6.1827  -15.2522 C   0  0  0  0  0  0  0  0  0  0  0  0
   19.6971   -4.7551  -15.4803 C   0  0  0  0  0  0  0  0  0  0  0  0
   18.2641   -4.4906  -15.6243 C   0  0  0  0  0  0  0  0  0  0  0  0
   17.4528   -5.4587  -15.5806 O   0  0  0  0  0  0  0  0  0  0  0  0
   22.0683   -5.8283  -14.0066 C   0  0  0  0  0  0  0  0  0  0  0  0
   22.3102   -6.4893  -12.9558 O   0  0  0  0  0  0  0  0  0  0  0  0
   17.6912   -3.2435  -15.8108 O   0  0  0  0  0  0  0  0  0  0  0  0
   22.3724   -4.4953  -14.0416 O   0  0  0  0  0  0  0  0  0  0  0  0
  2  1  1  1
  2  3  1  0
  3  4  1  0
  4  8  1  0
  5  4  2  0
  6  2  1  0
  7  6  2  0
  9  6  1  0
 10 13  1  0
 10  9  1  0
 10 11  1  6
 12 11  1  0
 13 15  1  0
 14 13  2  0
 15 16  1  0
 16 17  1  1
 16 21  1  0
 17 18  1  0
 19 18  1  0
 20 19  2  0
 21 22  2  0
 21 24  1  0
 23 19  1  0
M  END
$$$$
