DCE.pdb
     RDKit          3D

 24 23  0  0  1  0  0  0  0  0999 V2000
   15.5578  -14.0270  -14.9436 N   0  0  0  0  0  0  0  0  0  0  0  0
   15.6625  -12.6537  -15.4457 C   0  0  1  0  0  0  0  0  0  0  0  0
   14.8431  -11.7868  -14.5186 C   0  0  0  0  0  0  0  0  0  0  0  0
   13.4112  -11.9725  -14.7460 C   0  0  0  0  0  0  0  0  0  0  0  0
   12.8766  -12.4412  -15.7880 O   0  0  0  0  0  0  0  0  0  0  0  0
   17.0842  -12.2549  -15.2996 C   0  0  0  0  0  0  0  0  0  0  0  0
   17.6896  -12.5823  -14.2789 O   0  0  0  0  0  0  0  0  0  0  0  0
   12.5079  -11.6064  -13.7310 O   0  0  0  0  0  0  0  0  0  0  0  0
   17.7787  -11.5109  -16.2875 N   0  0  0  0  0  0  0  0  0  0  0  0
   19.1269  -11.1053  -16.2440 C   0  0  1  0  0  0  0  0  0  0  0  0
   20.0060  -11.5900  -17.3368 C   0  0  0  0  0  0  0  0  0  0  0  0
   21.7108  -11.0973  -16.9513 S   0  0  0  0  0  0  0  0  0  0  0  0
   19.2165   -9.6295  -16.1751 C   0  0  0  0  0  0  0  0  0  0  0  0
   18.4913   -8.9532  -16.9533 O   0  0  0  0  0  0  0  0  0  0  0  0
   20.0512   -8.9258  -15.3051 N   0  0  0  0  0  0  0  0  0  0  0  0
   20.1476   -7.4468  -15.3530 C   0  0  1  0  0  0  0  0  0  0  0  0
   20.9703   -6.9827  -14.1837 C   0  0  0  0  0  0  0  0  0  0  0  0
   21.2021   -5.5250  -14.1032 C   0  0  0  0  0  0  0  0  0  0  0  0
   22.1424   -5.1480  -13.0459 C   0  0  0  0  0  0  0  0  0  0  0  0
   22.6434   -6.0517  -12.3180 O   0  0  0  0  0  0  0  0  0  0  0  0
   20.8018   -7.0388  -16.6128 C   0  0  0  0  0  0  0  0  0  0  0  0
   21.6423   -7.8216  -17.1422 O   0  0  0  0  0  0  0  0  0  0  0  0
   22.5494   -3.8567  -12.7543 O   0  0  0  0  0  0  0  0  0  0  0  0
   20.5248   -5.8458  -17.2217 O   0  0  0  0  0  0  0  0  0  0  0  0
  2  1  1  1
  2  3  1  0
  3  4  1  0
  4  8  1  0
  5  4  2  0
  6  2  1  0
  7  6  2  0
  9  6  1  0
 10 13  1  0
 10  9  1  0
 10 11  1  6
 12 11  1  0
 13 15  1  0
 14 13  2  0
 15 16  1  0
 16 17  1  1
 16 21  1  0
 17 18  1  0
 19 18  1  0
 20 19  2  0
 21 22  2  0
 21 24  1  0
 23 19  1  0
M  END
$$$$
