DCE.pdb
     RDKit          3D

 24 23  0  0  1  0  0  0  0  0999 V2000
   19.9258  -13.2137  -16.5812 N   0  0  0  0  0  0  0  0  0  0  0  0
   20.0483  -11.9229  -17.2651 C   0  0  1  0  0  0  0  0  0  0  0  0
   18.6444  -11.4597  -17.5765 C   0  0  0  0  0  0  0  0  0  0  0  0
   18.0168  -12.3099  -18.5864 C   0  0  0  0  0  0  0  0  0  0  0  0
   16.8257  -12.7249  -18.5756 O   0  0  0  0  0  0  0  0  0  0  0  0
   20.6303  -10.9750  -16.2832 C   0  0  0  0  0  0  0  0  0  0  0  0
   19.9298  -10.5849  -15.3491 O   0  0  0  0  0  0  0  0  0  0  0  0
   18.7791  -12.7282  -19.6928 O   0  0  0  0  0  0  0  0  0  0  0  0
   21.9628  -10.4973  -16.3735 N   0  0  0  0  0  0  0  0  0  0  0  0
   22.6230   -9.6628  -15.4507 C   0  0  1  0  0  0  0  0  0  0  0  0
   24.0960   -9.8117  -15.3500 C   0  0  0  0  0  0  0  0  0  0  0  0
   24.4506  -11.4245  -14.5946 S   0  0  0  0  0  0  0  0  0  0  0  0
   22.3019   -8.2435  -15.7217 C   0  0  0  0  0  0  0  0  0  0  0  0
   22.4531   -7.8140  -16.8971 O   0  0  0  0  0  0  0  0  0  0  0  0
   21.8400   -7.3385  -14.7643 N   0  0  0  0  0  0  0  0  0  0  0  0
   21.5186   -5.9348  -15.1186 C   0  0  1  0  0  0  0  0  0  0  0  0
   20.0276   -5.7551  -15.0570 C   0  0  0  0  0  0  0  0  0  0  0  0
   19.5322   -4.4024  -15.3887 C   0  0  0  0  0  0  0  0  0  0  0  0
   18.0760   -4.2821  -15.2937 C   0  0  0  0  0  0  0  0  0  0  0  0
   17.5526   -3.1317  -15.2968 O   0  0  0  0  0  0  0  0  0  0  0  0
   22.1682   -5.0247  -14.1535 C   0  0  0  0  0  0  0  0  0  0  0  0
   22.4668   -5.4675  -13.0071 O   0  0  0  0  0  0  0  0  0  0  0  0
   17.1863   -5.3391  -15.1964 O   0  0  0  0  0  0  0  0  0  0  0  0
   22.4567   -3.7240  -14.4629 O   0  0  0  0  0  0  0  0  0  0  0  0
  2  1  1  1
  2  3  1  0
  3  4  1  0
  4  8  1  0
  5  4  2  0
  6  2  1  0
  7  6  2  0
  9  6  1  0
 10 13  1  0
 10  9  1  0
 10 11  1  6
 12 11  1  0
 13 15  1  0
 14 13  2  0
 15 16  1  0
 16 17  1  1
 16 21  1  0
 17 18  1  0
 19 18  1  0
 20 19  2  0
 21 22  2  0
 21 24  1  0
 23 19  1  0
M  END
$$$$
