DCE.pdb
     RDKit          3D

 24 23  0  0  1  0  0  0  0  0999 V2000
   20.2663  -12.4213  -19.1252 N   0  0  0  0  0  0  0  0  0  0  0  0
   21.4081  -11.5020  -19.1094 C   0  0  1  0  0  0  0  0  0  0  0  0
   21.1047  -10.4128  -20.1115 C   0  0  0  0  0  0  0  0  0  0  0  0
   21.1007  -10.9341  -21.4770 C   0  0  0  0  0  0  0  0  0  0  0  0
   21.9703  -11.6915  -21.9882 O   0  0  0  0  0  0  0  0  0  0  0  0
   21.4362  -10.8821  -17.7616 C   0  0  0  0  0  0  0  0  0  0  0  0
   20.3721  -10.5479  -17.2408 O   0  0  0  0  0  0  0  0  0  0  0  0
   20.0438  -10.5819  -22.3367 O   0  0  0  0  0  0  0  0  0  0  0  0
   22.6391  -10.6573  -17.0446 N   0  0  0  0  0  0  0  0  0  0  0  0
   22.7612  -10.0936  -15.7596 C   0  0  1  0  0  0  0  0  0  0  0  0
   23.8391  -10.6320  -14.8934 C   0  0  0  0  0  0  0  0  0  0  0  0
   23.2895  -12.2334  -14.2367 S   0  0  0  0  0  0  0  0  0  0  0  0
   22.9126   -8.6244  -15.8564 C   0  0  0  0  0  0  0  0  0  0  0  0
   23.8098   -8.1682  -16.6152 O   0  0  0  0  0  0  0  0  0  0  0  0
   22.1290   -7.6994  -15.1642 N   0  0  0  0  0  0  0  0  0  0  0  0
   22.3439   -6.2396  -15.3119 C   0  0  1  0  0  0  0  0  0  0  0  0
   21.3578   -5.7097  -16.3149 C   0  0  0  0  0  0  0  0  0  0  0  0
   21.3901   -4.2480  -16.5329 C   0  0  0  0  0  0  0  0  0  0  0  0
   20.3700   -3.7827  -17.4746 C   0  0  0  0  0  0  0  0  0  0  0  0
   20.2221   -2.5407  -17.6566 O   0  0  0  0  0  0  0  0  0  0  0  0
   22.1297   -5.5783  -14.0086 C   0  0  0  0  0  0  0  0  0  0  0  0
   21.5007   -6.2028  -13.1066 O   0  0  0  0  0  0  0  0  0  0  0  0
   19.5226   -4.5956  -18.2091 O   0  0  0  0  0  0  0  0  0  0  0  0
   22.5916   -4.3172  -13.7496 O   0  0  0  0  0  0  0  0  0  0  0  0
  2  1  1  1
  2  3  1  0
  3  4  1  0
  4  8  1  0
  5  4  2  0
  6  2  1  0
  7  6  2  0
  9  6  1  0
 10 13  1  0
 10  9  1  0
 10 11  1  6
 12 11  1  0
 13 15  1  0
 14 13  2  0
 15 16  1  0
 16 17  1  6
 16 21  1  0
 17 18  1  0
 19 18  1  0
 20 19  2  0
 21 22  2  0
 21 24  1  0
 23 19  1  0
M  END
$$$$
