DCE.pdb
     RDKit          3D

 24 23  0  0  1  0  0  0  0  0999 V2000
   19.7796  -13.0412  -17.0968 N   0  0  0  0  0  0  0  0  0  0  0  0
   19.9147  -11.7277  -17.7334 C   0  0  1  0  0  0  0  0  0  0  0  0
   18.5172  -11.2564  -18.0614 C   0  0  0  0  0  0  0  0  0  0  0  0
   17.9610  -11.9933  -19.1945 C   0  0  0  0  0  0  0  0  0  0  0  0
   18.4524  -12.0588  -20.3545 O   0  0  0  0  0  0  0  0  0  0  0  0
   20.4716  -10.8128  -16.7066 C   0  0  0  0  0  0  0  0  0  0  0  0
   19.8082  -10.5828  -15.6954 O   0  0  0  0  0  0  0  0  0  0  0  0
   16.7641  -12.7117  -19.0176 O   0  0  0  0  0  0  0  0  0  0  0  0
   21.7390  -10.1899  -16.8390 N   0  0  0  0  0  0  0  0  0  0  0  0
   22.3531   -9.3241  -15.9132 C   0  0  1  0  0  0  0  0  0  0  0  0
   23.8279   -9.4234  -15.7821 C   0  0  0  0  0  0  0  0  0  0  0  0
   24.2127  -10.9427  -14.8649 S   0  0  0  0  0  0  0  0  0  0  0  0
   21.9913   -7.9193  -16.2066 C   0  0  0  0  0  0  0  0  0  0  0  0
   22.1172   -7.5082  -17.3916 O   0  0  0  0  0  0  0  0  0  0  0  0
   21.5167   -7.0087  -15.2607 N   0  0  0  0  0  0  0  0  0  0  0  0
   21.1871   -5.6109  -15.6302 C   0  0  1  0  0  0  0  0  0  0  0  0
   19.7094   -5.4039  -15.4493 C   0  0  0  0  0  0  0  0  0  0  0  0
   19.2230   -4.0276  -15.6832 C   0  0  0  0  0  0  0  0  0  0  0  0
   17.7828   -3.8799  -15.4638 C   0  0  0  0  0  0  0  0  0  0  0  0
   17.1040   -4.8937  -15.1339 O   0  0  0  0  0  0  0  0  0  0  0  0
   21.9290   -4.6838  -14.7519 C   0  0  0  0  0  0  0  0  0  0  0  0
   22.2668   -5.0785  -13.5988 O   0  0  0  0  0  0  0  0  0  0  0  0
   17.0672   -2.7005  -15.5872 O   0  0  0  0  0  0  0  0  0  0  0  0
   22.2617   -3.4176  -15.1481 O   0  0  0  0  0  0  0  0  0  0  0  0
  2  1  1  1
  2  3  1  0
  3  4  1  0
  4  8  1  0
  5  4  2  0
  6  2  1  0
  7  6  2  0
  9  6  1  0
 10 13  1  0
 10  9  1  0
 10 11  1  6
 12 11  1  0
 13 15  1  0
 14 13  2  0
 15 16  1  0
 16 17  1  1
 16 21  1  0
 17 18  1  0
 19 18  1  0
 20 19  2  0
 21 22  2  0
 21 24  1  0
 23 19  1  0
M  END
$$$$
