DCE.pdb
     RDKit          3D

 24 23  0  0  1  0  0  0  0  0999 V2000
   14.4332  -12.7395  -14.3960 N   0  0  0  0  0  0  0  0  0  0  0  0
   15.4984  -12.0606  -13.6520 C   0  0  1  0  0  0  0  0  0  0  0  0
   16.4416  -11.4758  -14.6770 C   0  0  0  0  0  0  0  0  0  0  0  0
   17.2659  -12.5140  -15.2929 C   0  0  0  0  0  0  0  0  0  0  0  0
   17.8156  -12.4543  -16.4266 O   0  0  0  0  0  0  0  0  0  0  0  0
   14.8599  -10.9331  -12.9291 C   0  0  0  0  0  0  0  0  0  0  0  0
   14.0139  -10.2571  -13.5144 O   0  0  0  0  0  0  0  0  0  0  0  0
   17.4929  -13.7102  -14.5875 O   0  0  0  0  0  0  0  0  0  0  0  0
   15.1823  -10.5990  -11.5888 N   0  0  0  0  0  0  0  0  0  0  0  0
   14.6292   -9.5529  -10.8249 C   0  0  1  0  0  0  0  0  0  0  0  0
   14.1682   -9.8962   -9.4567 C   0  0  0  0  0  0  0  0  0  0  0  0
   13.3838   -8.4241   -8.7387 S   0  0  0  0  0  0  0  0  0  0  0  0
   15.5794   -8.4212  -10.7410 C   0  0  0  0  0  0  0  0  0  0  0  0
   16.7822   -8.6746  -10.4618 O   0  0  0  0  0  0  0  0  0  0  0  0
   15.2394   -7.0835  -10.9501 N   0  0  0  0  0  0  0  0  0  0  0  0
   16.2523   -6.0044  -10.8569 C   0  0  1  0  0  0  0  0  0  0  0  0
   16.3540   -5.3267  -12.1947 C   0  0  0  0  0  0  0  0  0  0  0  0
   17.2920   -4.1863  -12.2642 C   0  0  0  0  0  0  0  0  0  0  0  0
   17.4076   -3.6157  -13.6078 C   0  0  0  0  0  0  0  0  0  0  0  0
   17.3448   -4.3840  -14.6094 O   0  0  0  0  0  0  0  0  0  0  0  0
   15.8317   -5.0243   -9.8351 C   0  0  0  0  0  0  0  0  0  0  0  0
   16.6575   -4.1413   -9.4639 O   0  0  0  0  0  0  0  0  0  0  0  0
   17.5860   -2.2735  -13.8991 O   0  0  0  0  0  0  0  0  0  0  0  0
   14.5805   -5.0424   -9.2830 O   0  0  0  0  0  0  0  0  0  0  0  0
  2  1  1  6
  2  3  1  0
  3  4  1  0
  4  8  1  0
  5  4  2  0
  6  2  1  0
  7  6  2  0
  9  6  1  0
 10 13  1  0
 10  9  1  0
 10 11  1  1
 12 11  1  0
 13 15  1  0
 14 13  2  0
 15 16  1  0
 16 17  1  6
 16 21  1  0
 17 18  1  0
 19 18  1  0
 20 19  2  0
 21 22  2  0
 21 24  1  0
 23 19  1  0
M  END
$$$$
