CVM.pdb
     RDKit          3D

 22 21  0  0  1  0  0  0  0  0999 V2000
   12.3648  -17.1006   18.9408 N   0  0  0  0  0  0  0  0  0  0  0  0
   11.4671  -17.6610   19.9368 C   0  0  1  0  0  0  0  0  0  0  0  0
   12.1921  -18.6914   20.7816 C   0  0  0  0  0  0  0  0  0  0  0  0
   12.3381  -20.2286   19.8291 S   0  0  0  0  0  0  0  0  0  0  0  0
   10.8938  -16.5772   20.7747 C   0  0  0  0  0  0  0  0  0  0  0  0
   11.6229  -15.6519   21.1916 O   0  0  0  0  0  0  0  0  0  0  0  0
    6.9108  -14.2773   22.7425 C   0  0  0  0  0  0  0  0  0  0  0  0
    7.5012  -15.1889   21.6811 C   0  0  1  0  0  0  0  0  0  0  0  0
    7.2266  -14.6883   20.2937 C   0  0  0  0  0  0  0  0  0  0  0  0
    8.9610  -15.4636   21.9228 C   0  0  2  0  0  0  0  0  0  0  0  0
    9.5292  -16.5027   21.1567 N   0  0  0  0  0  0  0  0  0  0  0  0
    9.0667  -15.8270   23.3640 C   0  0  0  0  0  0  0  0  0  0  0  0
    9.0553  -17.0672   23.6416 O   0  0  0  0  0  0  0  0  0  0  0  0
   10.6664  -13.4954   30.7002 C   0  0  0  0  0  0  0  0  0  0  0  0
   10.8225  -14.2659   29.0405 S   0  0  0  0  0  0  0  0  0  0  0  0
    9.3303  -14.2889   28.1378 C   0  0  0  0  0  0  0  0  0  0  0  0
    9.2481  -14.1481   26.6995 C   0  0  0  0  0  0  0  0  0  0  0  0
    9.2844  -15.2769   25.7630 C   0  0  2  0  0  0  0  0  0  0  0  0
    9.1751  -14.8459   24.3747 N   0  0  0  0  0  0  0  0  0  0  0  0
    8.3301  -16.3458   26.0277 C   0  0  0  0  0  0  0  0  0  0  0  0
    7.1199  -16.0938   25.5755 O   0  0  0  0  0  0  0  0  0  0  0  0
    8.4404  -17.5392   26.6496 O   0  0  0  0  0  0  0  0  0  0  0  0
  2  1  1  6
  2  5  1  0
  3  2  1  0
  4  3  1  0
  5 11  1  0
  5  6  2  0
  8  7  1  1
  8 10  1  0
  8  9  1  0
 10 12  1  0
 10 11  1  6
 12 13  2  0
 14 15  1  0
 15 16  1  0
 16 17  1  0
 18 17  1  1
 18 20  1  0
 19 12  1  0
 19 18  1  0
 20 22  1  0
 21 20  2  0
M  END
$$$$
