CVM.pdb
     RDKit          3D

 22 21  0  0  1  0  0  0  0  0999 V2000
    8.0572  -15.0999   16.6891 N   0  0  0  0  0  0  0  0  0  0  0  0
    8.4840  -14.5395   17.9602 C   0  0  1  0  0  0  0  0  0  0  0  0
    7.8189  -13.1967   18.1957 C   0  0  0  0  0  0  0  0  0  0  0  0
    8.3126  -12.5795   19.8288 S   0  0  0  0  0  0  0  0  0  0  0  0
    8.1917  -15.4916   19.0617 C   0  0  0  0  0  0  0  0  0  0  0  0
    7.0784  -16.0556   19.1268 O   0  0  0  0  0  0  0  0  0  0  0  0
    9.9752  -18.4988   20.0241 C   0  0  0  0  0  0  0  0  0  0  0  0
    9.6229  -17.8820   21.3663 C   0  0  1  0  0  0  0  0  0  0  0  0
   10.8335  -17.6878   22.2311 C   0  0  0  0  0  0  0  0  0  0  0  0
    8.8093  -16.6252   21.2128 C   0  0  2  0  0  0  0  0  0  0  0  0
    9.1108  -15.8275   20.0893 N   0  0  0  0  0  0  0  0  0  0  0  0
    9.0705  -15.8265   22.4433 C   0  0  0  0  0  0  0  0  0  0  0  0
   10.2044  -15.2581   22.5241 O   0  0  0  0  0  0  0  0  0  0  0  0
    6.3457  -10.7242   27.7150 C   0  0  0  0  0  0  0  0  0  0  0  0
    5.9171  -12.0609   26.5309 S   0  0  0  0  0  0  0  0  0  0  0  0
    7.2775  -13.0517   26.0734 C   0  0  0  0  0  0  0  0  0  0  0  0
    7.2606  -14.0013   24.9809 C   0  0  0  0  0  0  0  0  0  0  0  0
    8.4040  -14.8423   24.6095 C   0  0  2  0  0  0  0  0  0  0  0  0
    8.1089  -15.7035   23.4709 N   0  0  0  0  0  0  0  0  0  0  0  0
    8.9843  -15.6292   25.6900 C   0  0  0  0  0  0  0  0  0  0  0  0
    9.6768  -14.9119   26.5493 O   0  0  0  0  0  0  0  0  0  0  0  0
    8.9572  -16.9476   25.9799 O   0  0  0  0  0  0  0  0  0  0  0  0
  2  1  1  6
  2  5  1  0
  3  2  1  0
  4  3  1  0
  5 11  1  0
  5  6  2  0
  8  7  1  6
  8 10  1  0
  8  9  1  0
 10 12  1  0
 10 11  1  6
 12 13  2  0
 14 15  1  0
 15 16  1  0
 16 17  1  0
 18 17  1  1
 18 20  1  0
 19 12  1  0
 19 18  1  0
 20 22  1  0
 21 20  2  0
M  END
$$$$
