CVM.pdb
     RDKit          3D

 22 21  0  0  1  0  0  0  0  0999 V2000
    6.7503  -18.4536   18.3156 N   0  0  0  0  0  0  0  0  0  0  0  0
    7.7638  -17.8712   19.1791 C   0  0  1  0  0  0  0  0  0  0  0  0
    8.2372  -16.5439   18.6178 C   0  0  0  0  0  0  0  0  0  0  0  0
    9.5519  -16.8578   17.4075 S   0  0  0  0  0  0  0  0  0  0  0  0
    7.2341  -17.7203   20.5582 C   0  0  0  0  0  0  0  0  0  0  0  0
    6.1168  -17.1940   20.7488 O   0  0  0  0  0  0  0  0  0  0  0  0
    8.8878  -19.9529   23.8014 C   0  0  0  0  0  0  0  0  0  0  0  0
    7.4887  -19.3632   23.8322 C   0  0  1  0  0  0  0  0  0  0  0  0
    6.9742  -19.2088   25.2331 C   0  0  0  0  0  0  0  0  0  0  0  0
    7.3958  -18.0907   23.0342 C   0  0  2  0  0  0  0  0  0  0  0  0
    7.9209  -18.1421   21.7261 N   0  0  0  0  0  0  0  0  0  0  0  0
    8.1604  -17.0745   23.8107 C   0  0  0  0  0  0  0  0  0  0  0  0
    9.3508  -16.8434   23.4300 O   0  0  0  0  0  0  0  0  0  0  0  0
    5.2817  -11.8990   27.0264 C   0  0  0  0  0  0  0  0  0  0  0  0
    7.0601  -11.5268   26.7597 S   0  0  0  0  0  0  0  0  0  0  0  0
    8.0310  -12.9418   26.4481 C   0  0  0  0  0  0  0  0  0  0  0  0
    7.5453  -14.1294   25.7779 C   0  0  0  0  0  0  0  0  0  0  0  0
    8.3567  -15.3303   25.5498 C   0  0  2  0  0  0  0  0  0  0  0  0
    7.5948  -16.3987   24.9148 N   0  0  0  0  0  0  0  0  0  0  0  0
    9.0586  -15.8474   26.7174 C   0  0  0  0  0  0  0  0  0  0  0  0
    8.4723  -16.8918   27.2632 O   0  0  0  0  0  0  0  0  0  0  0  0
   10.1865  -15.4635   27.3527 O   0  0  0  0  0  0  0  0  0  0  0  0
  2  1  1  6
  2  5  1  0
  3  2  1  0
  4  3  1  0
  5 11  1  0
  5  6  2  0
  8  7  1  1
  8 10  1  0
  8  9  1  0
 10 12  1  0
 10 11  1  6
 12 13  2  0
 14 15  1  0
 15 16  1  0
 16 17  1  0
 18 17  1  1
 18 20  1  0
 19 12  1  0
 19 18  1  0
 20 22  1  0
 21 20  2  0
M  END
$$$$
