CVM.pdb
     RDKit          3D

 22 21  0  0  1  0  0  0  0  0999 V2000
    7.0620  -19.8553   20.7275 N   0  0  0  0  0  0  0  0  0  0  0  0
    6.6691  -18.7163   21.5402 C   0  0  1  0  0  0  0  0  0  0  0  0
    6.6394  -19.0994   23.0077 C   0  0  0  0  0  0  0  0  0  0  0  0
    5.2168  -20.1874   23.2979 S   0  0  0  0  0  0  0  0  0  0  0  0
    7.5858  -17.5739   21.2951 C   0  0  0  0  0  0  0  0  0  0  0  0
    8.8118  -17.7703   21.1536 O   0  0  0  0  0  0  0  0  0  0  0  0
    6.1872  -13.5101   21.5271 C   0  0  0  0  0  0  0  0  0  0  0  0
    7.3507  -13.8296   20.6049 C   0  0  1  0  0  0  0  0  0  0  0  0
    8.3147  -12.6849   20.4984 C   0  0  0  0  0  0  0  0  0  0  0  0
    8.0229  -15.1246   20.9737 C   0  0  2  0  0  0  0  0  0  0  0  0
    7.1665  -16.2213   21.2046 N   0  0  0  0  0  0  0  0  0  0  0  0
    8.7765  -14.8415   22.2276 C   0  0  0  0  0  0  0  0  0  0  0  0
    9.7133  -13.9861   22.1489 O   0  0  0  0  0  0  0  0  0  0  0  0
    5.6363  -11.9082   26.3535 C   0  0  0  0  0  0  0  0  0  0  0  0
    7.0302  -12.4167   27.4356 S   0  0  0  0  0  0  0  0  0  0  0  0
    8.2057  -13.4248   26.6333 C   0  0  0  0  0  0  0  0  0  0  0  0
    7.9930  -14.0566   25.3483 C   0  0  0  0  0  0  0  0  0  0  0  0
    8.9768  -14.9225   24.6890 C   0  0  2  0  0  0  0  0  0  0  0  0
    8.4685  -15.4881   23.4453 N   0  0  0  0  0  0  0  0  0  0  0  0
    9.5437  -15.9776   25.5190 C   0  0  0  0  0  0  0  0  0  0  0  0
    8.9655  -17.1477   25.3492 O   0  0  0  0  0  0  0  0  0  0  0  0
   10.5393  -15.9906   26.4310 O   0  0  0  0  0  0  0  0  0  0  0  0
  2  1  1  6
  2  5  1  0
  3  2  1  0
  4  3  1  0
  5 11  1  0
  5  6  2  0
  8  7  1  1
  8 10  1  0
  8  9  1  0
 10 12  1  0
 10 11  1  1
 12 13  2  0
 14 15  1  0
 15 16  1  0
 16 17  1  0
 18 17  1  1
 18 20  1  0
 19 12  1  0
 19 18  1  0
 20 22  1  0
 21 20  2  0
M  END
$$$$
