CVM.pdb
     RDKit          3D

 22 21  0  0  1  0  0  0  0  0999 V2000
    7.7351  -14.6564   18.6825 N   0  0  0  0  0  0  0  0  0  0  0  0
    8.4534  -14.2155   19.8665 C   0  0  1  0  0  0  0  0  0  0  0  0
    8.0776  -12.7868   20.2111 C   0  0  0  0  0  0  0  0  0  0  0  0
    8.8012  -11.6779   18.9708 S   0  0  0  0  0  0  0  0  0  0  0  0
    8.1840  -15.1368   20.9996 C   0  0  0  0  0  0  0  0  0  0  0  0
    7.0235  -15.5481   21.2137 O   0  0  0  0  0  0  0  0  0  0  0  0
    8.7767  -18.6505   21.8488 C   0  0  0  0  0  0  0  0  0  0  0  0
    9.4724  -17.8369   22.9260 C   0  0  1  0  0  0  0  0  0  0  0  0
   10.9654  -17.8744   22.7830 C   0  0  0  0  0  0  0  0  0  0  0  0
    8.9306  -16.4355   23.0120 C   0  0  2  0  0  0  0  0  0  0  0  0
    9.1774  -15.6083   21.8965 N   0  0  0  0  0  0  0  0  0  0  0  0
    9.5829  -15.8266   24.2053 C   0  0  0  0  0  0  0  0  0  0  0  0
   10.7933  -15.4631   24.0701 O   0  0  0  0  0  0  0  0  0  0  0  0
    5.6717  -12.6926   25.7266 C   0  0  0  0  0  0  0  0  0  0  0  0
    7.0205  -11.9641   26.7378 S   0  0  0  0  0  0  0  0  0  0  0  0
    8.5506  -12.7807   26.5540 C   0  0  0  0  0  0  0  0  0  0  0  0
    8.8961  -14.0193   27.2188 C   0  0  0  0  0  0  0  0  0  0  0  0
    9.6182  -15.1212   26.5731 C   0  0  2  0  0  0  0  0  0  0  0  0
    8.8946  -15.6590   25.4275 N   0  0  0  0  0  0  0  0  0  0  0  0
   10.0299  -16.2064   27.4542 C   0  0  0  0  0  0  0  0  0  0  0  0
   10.8019  -15.8142   28.4456 O   0  0  0  0  0  0  0  0  0  0  0  0
    9.7814  -17.5335   27.4510 O   0  0  0  0  0  0  0  0  0  0  0  0
  2  1  1  6
  2  5  1  0
  3  2  1  0
  4  3  1  0
  5 11  1  0
  5  6  2  0
  8  7  1  6
  8 10  1  0
  8  9  1  0
 10 12  1  0
 10 11  1  6
 12 13  2  0
 14 15  1  0
 15 16  1  0
 16 17  1  0
 18 17  1  1
 18 20  1  0
 19 12  1  0
 19 18  1  0
 20 22  1  0
 21 20  2  0
M  END
$$$$
