CVM.pdb
     RDKit          3D

 22 21  0  0  1  0  0  0  0  0999 V2000
   12.9992  -16.0073   19.1488 N   0  0  0  0  0  0  0  0  0  0  0  0
   12.4485  -16.8223   20.2186 C   0  0  1  0  0  0  0  0  0  0  0  0
   13.5557  -17.3158   21.1305 C   0  0  0  0  0  0  0  0  0  0  0  0
   14.3927  -18.7118   20.3292 S   0  0  0  0  0  0  0  0  0  0  0  0
   11.4263  -16.0524   20.9722 C   0  0  0  0  0  0  0  0  0  0  0  0
   11.6254  -14.8516   21.2553 O   0  0  0  0  0  0  0  0  0  0  0  0
    6.7523  -15.5424   22.6019 C   0  0  0  0  0  0  0  0  0  0  0  0
    7.7694  -16.1468   21.6498 C   0  0  1  0  0  0  0  0  0  0  0  0
    7.5050  -15.7598   20.2245 C   0  0  0  0  0  0  0  0  0  0  0  0
    9.1830  -15.8592   22.0786 C   0  0  2  0  0  0  0  0  0  0  0  0
   10.1906  -16.5907   21.4158 N   0  0  0  0  0  0  0  0  0  0  0  0
    9.2362  -16.1904   23.5304 C   0  0  0  0  0  0  0  0  0  0  0  0
    9.7406  -17.3150   23.8406 O   0  0  0  0  0  0  0  0  0  0  0  0
    5.7617  -12.3319   26.3160 C   0  0  0  0  0  0  0  0  0  0  0  0
    7.4278  -11.9672   26.9970 S   0  0  0  0  0  0  0  0  0  0  0  0
    8.6175  -13.1866   26.6235 C   0  0  0  0  0  0  0  0  0  0  0  0
    8.4150  -14.6066   26.8186 C   0  0  0  0  0  0  0  0  0  0  0  0
    8.9443  -15.6399   25.9214 C   0  0  2  0  0  0  0  0  0  0  0  0
    8.7522  -15.3019   24.5164 N   0  0  0  0  0  0  0  0  0  0  0  0
    8.4735  -16.9955   26.1749 C   0  0  0  0  0  0  0  0  0  0  0  0
    8.8544  -17.4748   27.3400 O   0  0  0  0  0  0  0  0  0  0  0  0
    7.7301  -17.8578   25.4491 O   0  0  0  0  0  0  0  0  0  0  0  0
  2  1  1  6
  2  5  1  0
  3  2  1  0
  4  3  1  0
  5 11  1  0
  5  6  2  0
  8  7  1  1
  8 10  1  0
  8  9  1  0
 10 12  1  0
 10 11  1  6
 12 13  2  0
 14 15  1  0
 15 16  1  0
 16 17  1  0
 18 17  1  1
 18 20  1  0
 19 12  1  0
 19 18  1  0
 20 22  1  0
 21 20  2  0
M  END
$$$$
