CVM.pdb
     RDKit          3D

 22 21  0  0  1  0  0  0  0  0999 V2000
    6.7049  -19.6275   21.0599 N   0  0  0  0  0  0  0  0  0  0  0  0
    6.2142  -18.3616   21.5784 C   0  0  1  0  0  0  0  0  0  0  0  0
    5.8086  -18.5079   23.0327 C   0  0  0  0  0  0  0  0  0  0  0  0
    7.1839  -19.2560   23.9496 S   0  0  0  0  0  0  0  0  0  0  0  0
    7.2436  -17.3054   21.4047 C   0  0  0  0  0  0  0  0  0  0  0  0
    8.4554  -17.6082   21.3669 O   0  0  0  0  0  0  0  0  0  0  0  0
    6.1515  -13.1446   21.2847 C   0  0  0  0  0  0  0  0  0  0  0  0
    7.3826  -13.6059   20.5245 C   0  0  1  0  0  0  0  0  0  0  0  0
    8.4351  -12.5388   20.4580 C   0  0  0  0  0  0  0  0  0  0  0  0
    7.9116  -14.9136   21.0491 C   0  0  2  0  0  0  0  0  0  0  0  0
    6.9521  -15.9230   21.2726 N   0  0  0  0  0  0  0  0  0  0  0  0
    8.5667  -14.5885   22.3473 C   0  0  0  0  0  0  0  0  0  0  0  0
    8.9939  -13.3999   22.4884 O   0  0  0  0  0  0  0  0  0  0  0  0
    7.3049  -10.9186   26.3025 C   0  0  0  0  0  0  0  0  0  0  0  0
    6.5126  -12.4450   26.9465 S   0  0  0  0  0  0  0  0  0  0  0  0
    7.3716  -13.9056   26.5335 C   0  0  0  0  0  0  0  0  0  0  0  0
    7.6053  -14.3555   25.1776 C   0  0  0  0  0  0  0  0  0  0  0  0
    8.8006  -15.0938   24.7547 C   0  0  2  0  0  0  0  0  0  0  0  0
    8.7075  -15.5496   23.3731 N   0  0  0  0  0  0  0  0  0  0  0  0
    9.1956  -16.2000   25.6170 C   0  0  0  0  0  0  0  0  0  0  0  0
    8.7146  -17.3634   25.2328 O   0  0  0  0  0  0  0  0  0  0  0  0
    9.9512  -16.2663   26.7340 O   0  0  0  0  0  0  0  0  0  0  0  0
  2  1  1  1
  2  5  1  0
  3  2  1  0
  4  3  1  0
  5 11  1  0
  5  6  2  0
  8  7  1  1
  8 10  1  0
  8  9  1  0
 10 12  1  0
 10 11  1  1
 12 13  2  0
 14 15  1  0
 15 16  1  0
 16 17  1  0
 18 17  1  1
 18 20  1  0
 19 12  1  0
 19 18  1  0
 20 22  1  0
 21 20  2  0
M  END
$$$$
