CVM.pdb
     RDKit          3D

 22 21  0  0  1  0  0  0  0  0999 V2000
    4.9786  -13.0423   26.5273 N   0  0  0  0  0  0  0  0  0  0  0  0
    5.9516  -12.7051   25.5019 C   0  0  1  0  0  0  0  0  0  0  0  0
    6.9102  -11.6455   26.0110 C   0  0  0  0  0  0  0  0  0  0  0  0
    7.7477  -12.2788   27.4906 S   0  0  0  0  0  0  0  0  0  0  0  0
    6.6742  -13.9259   25.0627 C   0  0  0  0  0  0  0  0  0  0  0  0
    6.7403  -14.9223   25.8140 O   0  0  0  0  0  0  0  0  0  0  0  0
    6.7648  -15.2628   21.0866 C   0  0  0  0  0  0  0  0  0  0  0  0
    8.0875  -15.3309   21.8295 C   0  0  1  0  0  0  0  0  0  0  0  0
    9.0751  -14.3264   21.3129 C   0  0  0  0  0  0  0  0  0  0  0  0
    7.9011  -15.2504   23.3207 C   0  0  2  0  0  0  0  0  0  0  0  0
    7.3228  -14.0596   23.8076 N   0  0  0  0  0  0  0  0  0  0  0  0
    9.2662  -15.3851   23.9027 C   0  0  0  0  0  0  0  0  0  0  0  0
    9.9806  -14.3342   23.9298 O   0  0  0  0  0  0  0  0  0  0  0  0
    9.8524  -14.4963   28.9936 C   0  0  0  0  0  0  0  0  0  0  0  0
   11.2050  -14.3514   27.7599 S   0  0  0  0  0  0  0  0  0  0  0  0
   11.8481  -15.8884   27.2443 C   0  0  0  0  0  0  0  0  0  0  0  0
   11.1508  -16.8102   26.3728 C   0  0  0  0  0  0  0  0  0  0  0  0
   11.1103  -16.6837   24.9117 C   0  0  2  0  0  0  0  0  0  0  0  0
    9.7465  -16.6166   24.4012 N   0  0  0  0  0  0  0  0  0  0  0  0
   11.8688  -17.6839   24.1716 C   0  0  0  0  0  0  0  0  0  0  0  0
   11.1131  -18.5834   23.5780 O   0  0  0  0  0  0  0  0  0  0  0  0
   13.1918  -17.8736   23.9799 O   0  0  0  0  0  0  0  0  0  0  0  0
  2  1  1  1
  2  5  1  0
  3  2  1  0
  4  3  1  0
  5 11  1  0
  5  6  2  0
  8  7  1  6
  8 10  1  0
  8  9  1  0
 10 12  1  0
 10 11  1  6
 12 13  2  0
 14 15  1  0
 15 16  1  0
 16 17  1  0
 18 17  1  1
 18 20  1  0
 19 12  1  0
 19 18  1  0
 20 22  1  0
 21 20  2  0
M  END
$$$$
