FHQ.pdb
     RDKit          3D

 31 32  0  0  1  0  0  0  0  0999 V2000
   28.5367  -20.2462  -14.3147 N   0  0  0  0  0  0  0  0  0  0  0  0
   27.6946  -21.1082  -13.5207 C   0  0  1  0  0  0  0  0  0  0  0  0
   27.6359  -20.6638  -12.0618 C   0  0  0  0  0  0  0  0  0  0  0  0
   28.9258  -20.9120  -11.3737 C   0  0  0  0  0  0  0  0  0  0  0  0
   29.9548  -19.9969  -11.5123 C   0  0  0  0  0  0  0  0  0  0  0  0
   31.1896  -20.1978  -10.8850 C   0  0  0  0  0  0  0  0  0  0  0  0
   31.4049  -21.3213  -10.1105 C   0  0  0  0  0  0  0  0  0  0  0  0
   30.3843  -22.2335   -9.9702 C   0  0  0  0  0  0  0  0  0  0  0  0
   29.1659  -22.0261  -10.5945 C   0  0  0  0  0  0  0  0  0  0  0  0
   26.3363  -21.1205  -14.1176 C   0  0  0  0  0  0  0  0  0  0  0  0
   25.6364  -20.0713  -14.1622 O   0  0  0  0  0  0  0  0  0  0  0  0
   25.7844  -22.3148  -14.6568 N   0  0  0  0  0  0  0  0  0  0  0  0
   24.4584  -22.4712  -15.1716 C   0  0  1  0  0  0  0  0  0  0  0  0
   24.2110  -23.6523  -16.0292 C   0  0  0  0  0  0  0  0  0  0  0  0
   22.8897  -23.7128  -16.6057 C   0  0  0  0  0  0  0  0  0  0  0  0
   21.7163  -23.1830  -16.1868 C   0  0  0  0  0  0  0  0  0  0  0  0
   20.7011  -23.5136  -17.0505 N   0  0  0  0  0  0  0  0  0  0  0  0
   21.2882  -24.2587  -18.0055 C   0  0  0  0  0  0  0  0  0  0  0  0
   22.6009  -24.3896  -17.7561 N   0  0  0  0  0  0  0  0  0  0  0  0
   23.4426  -22.3872  -14.0521 C   0  0  0  0  0  0  0  0  0  0  0  0
   23.8826  -22.5134  -12.8902 O   0  0  0  0  0  0  0  0  0  0  0  0
   21.0805  -18.0079  -12.1735 N   0  0  0  0  0  0  0  0  0  0  0  0
   20.5553  -18.8608  -11.1679 C   0  0  0  0  0  0  0  0  0  0  0  0
   19.9653  -18.4493  -10.1375 O   0  0  0  0  0  0  0  0  0  0  0  0
   20.7141  -20.3235  -11.3475 C   0  0  0  0  0  0  0  0  0  0  0  0
   21.6355  -20.6153  -12.5288 C   0  0  0  0  0  0  0  0  0  0  0  0
   21.1321  -21.8984  -13.1876 C   0  0  2  0  0  0  0  0  0  0  0  0
   22.0628  -22.1775  -14.2719 N   0  0  0  0  0  0  0  0  0  0  0  0
   19.7574  -21.6697  -13.6665 C   0  0  0  0  0  0  0  0  0  0  0  0
   18.6688  -22.0690  -12.9416 O   0  0  0  0  0  0  0  0  0  0  0  0
   19.6103  -21.0934  -14.7680 O   0  0  0  0  0  0  0  0  0  0  0  0
  2  1  1  6
  2  3  1  0
  3  4  1  0
  4  9  1  0
  4  5  2  0
  5  6  1  0
  6  7  2  0
  8  7  1  0
  9  8  2  0
 10  2  1  0
 10 11  2  0
 12 10  1  0
 13 12  1  0
 13 14  1  1
 15 14  1  0
 15 16  2  0
 17 16  1  0
 18 17  1  0
 19 18  2  0
 19 15  1  0
 20 13  1  0
 21 20  2  0
 23 22  1  0
 23 25  1  0
 24 23  2  0
 26 25  1  0
 27 26  1  6
 27 28  1  0
 28 20  1  0
 29 27  1  0
 29 30  1  0
 31 29  2  0
M  END
$$$$
