FHQ.pdb
     RDKit          3D

 31 32  0  0  1  0  0  0  0  0999 V2000
   26.6738  -13.6274  -19.6208 N   0  0  0  0  0  0  0  0  0  0  0  0
   26.4131  -13.9976  -18.2506 C   0  0  1  0  0  0  0  0  0  0  0  0
   25.9314  -12.8113  -17.4199 C   0  0  0  0  0  0  0  0  0  0  0  0
   26.9758  -11.7627  -17.3272 C   0  0  0  0  0  0  0  0  0  0  0  0
   26.6874  -10.4792  -17.7573 C   0  0  0  0  0  0  0  0  0  0  0  0
   27.6475   -9.4630  -17.6932 C   0  0  0  0  0  0  0  0  0  0  0  0
   28.9094   -9.7248  -17.1957 C   0  0  0  0  0  0  0  0  0  0  0  0
   29.2001  -10.9997  -16.7671 C   0  0  0  0  0  0  0  0  0  0  0  0
   28.2436  -11.9986  -16.8342 C   0  0  0  0  0  0  0  0  0  0  0  0
   25.4047  -15.0859  -18.2399 C   0  0  0  0  0  0  0  0  0  0  0  0
   24.3477  -14.9995  -18.9239 O   0  0  0  0  0  0  0  0  0  0  0  0
   25.6007  -16.2578  -17.4588 N   0  0  0  0  0  0  0  0  0  0  0  0
   24.7459  -17.4052  -17.4344 C   0  0  1  0  0  0  0  0  0  0  0  0
   25.3868  -18.7082  -17.1453 C   0  0  0  0  0  0  0  0  0  0  0  0
   26.2901  -19.1760  -18.1684 C   0  0  0  0  0  0  0  0  0  0  0  0
   26.6108  -18.6497  -19.3740 C   0  0  0  0  0  0  0  0  0  0  0  0
   27.5130  -19.4528  -20.0274 N   0  0  0  0  0  0  0  0  0  0  0  0
   27.7320  -20.4818  -19.1875 C   0  0  0  0  0  0  0  0  0  0  0  0
   27.0072  -20.3337  -18.0671 N   0  0  0  0  0  0  0  0  0  0  0  0
   23.5627  -17.1645  -16.5212 C   0  0  0  0  0  0  0  0  0  0  0  0
   23.7138  -16.3039  -15.6289 O   0  0  0  0  0  0  0  0  0  0  0  0
   19.2582  -13.9976  -17.0174 N   0  0  0  0  0  0  0  0  0  0  0  0
   19.7745  -14.0217  -15.6955 C   0  0  0  0  0  0  0  0  0  0  0  0
   19.6469  -13.0779  -14.8756 O   0  0  0  0  0  0  0  0  0  0  0  0
   20.5074  -15.2342  -15.2598 C   0  0  0  0  0  0  0  0  0  0  0  0
   20.6157  -16.2302  -16.4112 C   0  0  0  0  0  0  0  0  0  0  0  0
   21.1717  -17.5302  -15.8328 C   0  0  2  0  0  0  0  0  0  0  0  0
   22.3369  -17.8567  -16.6423 N   0  0  0  0  0  0  0  0  0  0  0  0
   20.1225  -18.5621  -15.9091 C   0  0  0  0  0  0  0  0  0  0  0  0
   20.2297  -19.6344  -16.7509 O   0  0  0  0  0  0  0  0  0  0  0  0
   19.1178  -18.4298  -15.1741 O   0  0  0  0  0  0  0  0  0  0  0  0
  2  1  1  6
  2  3  1  0
  3  4  1  0
  4  9  1  0
  4  5  2  0
  5  6  1  0
  6  7  2  0
  8  7  1  0
  9  8  2  0
 10  2  1  0
 10 11  2  0
 12 10  1  0
 13 12  1  0
 13 14  1  1
 15 14  1  0
 15 16  2  0
 17 16  1  0
 18 17  1  0
 19 18  2  0
 19 15  1  0
 20 13  1  0
 21 20  2  0
 23 22  1  0
 23 25  1  0
 24 23  2  0
 26 25  1  0
 27 26  1  6
 27 28  1  0
 28 20  1  0
 29 27  1  0
 29 30  1  0
 31 29  2  0
M  END
$$$$
