FHQ.pdb
     RDKit          3D

 31 32  0  0  1  0  0  0  0  0999 V2000
   21.5714  -25.0803  -14.7884 N   0  0  0  0  0  0  0  0  0  0  0  0
   20.7718  -25.8250  -13.8458 C   0  0  1  0  0  0  0  0  0  0  0  0
   21.4193  -27.1558  -13.4730 C   0  0  0  0  0  0  0  0  0  0  0  0
   21.4519  -28.0793  -14.6328 C   0  0  0  0  0  0  0  0  0  0  0  0
   20.3222  -28.8154  -14.9448 C   0  0  0  0  0  0  0  0  0  0  0  0
   20.3143  -29.7030  -16.0269 C   0  0  0  0  0  0  0  0  0  0  0  0
   21.4423  -29.8612  -16.8086 C   0  0  0  0  0  0  0  0  0  0  0  0
   22.5675  -29.1311  -16.5017 C   0  0  0  0  0  0  0  0  0  0  0  0
   22.5658  -28.2552  -15.4293 C   0  0  0  0  0  0  0  0  0  0  0  0
   20.5656  -24.9885  -12.6379 C   0  0  0  0  0  0  0  0  0  0  0  0
   21.5400  -24.4382  -12.0543 O   0  0  0  0  0  0  0  0  0  0  0  0
   19.2642  -24.7826  -12.1034 N   0  0  0  0  0  0  0  0  0  0  0  0
   18.9276  -23.9080  -11.0220 C   0  0  1  0  0  0  0  0  0  0  0  0
   18.3966  -22.5741  -11.3837 C   0  0  0  0  0  0  0  0  0  0  0  0
   19.3758  -21.6606  -11.9206 C   0  0  0  0  0  0  0  0  0  0  0  0
   20.2099  -20.7927  -11.3008 C   0  0  0  0  0  0  0  0  0  0  0  0
   20.9645  -20.1071  -12.2208 N   0  0  0  0  0  0  0  0  0  0  0  0
   20.5669  -20.5807  -13.4164 C   0  0  0  0  0  0  0  0  0  0  0  0
   19.6143  -21.5133  -13.2571 N   0  0  0  0  0  0  0  0  0  0  0  0
   18.0161  -24.6097  -10.0376 C   0  0  0  0  0  0  0  0  0  0  0  0
   16.9108  -24.9911  -10.4763 O   0  0  0  0  0  0  0  0  0  0  0  0
   17.4095  -27.3234   -3.1586 N   0  0  0  0  0  0  0  0  0  0  0  0
   18.0793  -26.6045   -4.1829 C   0  0  0  0  0  0  0  0  0  0  0  0
   19.2314  -26.1181   -4.0596 O   0  0  0  0  0  0  0  0  0  0  0  0
   17.3746  -26.4185   -5.4736 C   0  0  0  0  0  0  0  0  0  0  0  0
   18.2560  -25.6470   -6.4521 C   0  0  0  0  0  0  0  0  0  0  0  0
   17.4632  -25.4931   -7.7489 C   0  0  2  0  0  0  0  0  0  0  0  0
   18.3638  -24.8392   -8.6876 N   0  0  0  0  0  0  0  0  0  0  0  0
   16.2590  -24.6916   -7.4681 C   0  0  0  0  0  0  0  0  0  0  0  0
   15.0708  -25.2761   -7.1267 O   0  0  0  0  0  0  0  0  0  0  0  0
   16.3531  -23.4461   -7.5516 O   0  0  0  0  0  0  0  0  0  0  0  0
  2  1  1  6
  2  3  1  0
  3  4  1  0
  4  9  1  0
  4  5  2  0
  5  6  1  0
  6  7  2  0
  8  7  1  0
  9  8  2  0
 10  2  1  0
 10 11  2  0
 12 10  1  0
 13 12  1  0
 13 14  1  6
 15 14  1  0
 15 16  2  0
 17 16  1  0
 18 17  1  0
 19 18  2  0
 19 15  1  0
 20 13  1  0
 21 20  2  0
 23 22  1  0
 23 25  1  0
 24 23  2  0
 26 25  1  0
 27 26  1  1
 27 28  1  0
 28 20  1  0
 29 27  1  0
 29 30  1  0
 31 29  2  0
M  END
$$$$
