FHQ.pdb
     RDKit          3D

 31 32  0  0  1  0  0  0  0  0999 V2000
   26.3714  -21.7101  -12.1808 N   0  0  0  0  0  0  0  0  0  0  0  0
   25.3470  -20.6971  -12.2665 C   0  0  1  0  0  0  0  0  0  0  0  0
   25.5224  -19.6159  -11.2038 C   0  0  0  0  0  0  0  0  0  0  0  0
   25.3532  -20.1726   -9.8398 C   0  0  0  0  0  0  0  0  0  0  0  0
   24.1368  -20.7262   -9.4800 C   0  0  0  0  0  0  0  0  0  0  0  0
   23.9344  -21.2558   -8.2005 C   0  0  0  0  0  0  0  0  0  0  0  0
   24.9525  -21.2354   -7.2670 C   0  0  0  0  0  0  0  0  0  0  0  0
   26.1634  -20.6858   -7.6209 C   0  0  0  0  0  0  0  0  0  0  0  0
   26.3544  -20.1645   -8.8893 C   0  0  0  0  0  0  0  0  0  0  0  0
   25.3834  -20.1037  -13.6258 C   0  0  0  0  0  0  0  0  0  0  0  0
   26.4599  -19.6605  -14.1130 O   0  0  0  0  0  0  0  0  0  0  0  0
   24.2063  -20.0176  -14.4187 N   0  0  0  0  0  0  0  0  0  0  0  0
   24.1400  -19.5888  -15.7823 C   0  0  1  0  0  0  0  0  0  0  0  0
   25.0500  -20.2605  -16.7376 C   0  0  0  0  0  0  0  0  0  0  0  0
   26.3984  -19.7472  -16.7485 C   0  0  0  0  0  0  0  0  0  0  0  0
   26.9597  -18.7196  -16.0688 C   0  0  0  0  0  0  0  0  0  0  0  0
   28.2829  -18.5806  -16.4089 N   0  0  0  0  0  0  0  0  0  0  0  0
   28.5112  -19.5505  -17.3139 C   0  0  0  0  0  0  0  0  0  0  0  0
   27.3928  -20.2609  -17.5309 N   0  0  0  0  0  0  0  0  0  0  0  0
   22.7097  -19.6190  -16.2779 C   0  0  0  0  0  0  0  0  0  0  0  0
   22.1098  -20.7101  -16.1815 O   0  0  0  0  0  0  0  0  0  0  0  0
   18.5945  -19.8599  -13.4948 N   0  0  0  0  0  0  0  0  0  0  0  0
   18.3653  -19.1079  -14.6765 C   0  0  0  0  0  0  0  0  0  0  0  0
   17.6377  -19.4963  -15.6246 O   0  0  0  0  0  0  0  0  0  0  0  0
   19.0255  -17.7861  -14.7957 C   0  0  0  0  0  0  0  0  0  0  0  0
   20.5120  -17.9613  -15.0940 C   0  0  0  0  0  0  0  0  0  0  0  0
   20.6441  -18.2198  -16.5938 C   0  0  2  0  0  0  0  0  0  0  0  0
   22.0554  -18.4928  -16.8252 N   0  0  0  0  0  0  0  0  0  0  0  0
   20.1726  -17.0258  -17.3172 C   0  0  0  0  0  0  0  0  0  0  0  0
   18.8981  -16.9383  -17.8049 O   0  0  0  0  0  0  0  0  0  0  0  0
   20.9794  -16.0818  -17.4759 O   0  0  0  0  0  0  0  0  0  0  0  0
  2  1  1  6
  2  3  1  0
  3  4  1  0
  4  9  1  0
  4  5  2  0
  5  6  1  0
  6  7  2  0
  8  7  1  0
  9  8  2  0
 10  2  1  0
 10 11  2  0
 12 10  1  0
 13 12  1  0
 13 14  1  6
 15 14  1  0
 15 16  2  0
 17 16  1  0
 18 17  1  0
 19 18  2  0
 19 15  1  0
 20 13  1  0
 21 20  2  0
 23 22  1  0
 23 25  1  0
 24 23  2  0
 26 25  1  0
 27 26  1  1
 27 28  1  0
 28 20  1  0
 29 27  1  0
 29 30  1  0
 31 29  2  0
M  END
$$$$
