FHQ.pdb
     RDKit          3D

 31 32  0  0  1  0  0  0  0  0999 V2000
   29.6545  -31.1833  -21.6907 N   0  0  0  0  0  0  0  0  0  0  0  0
   30.1399  -30.7798  -20.3929 C   0  0  1  0  0  0  0  0  0  0  0  0
   29.0347  -30.1733  -19.5326 C   0  0  0  0  0  0  0  0  0  0  0  0
   28.5004  -28.9322  -20.1434 C   0  0  0  0  0  0  0  0  0  0  0  0
   29.1853  -27.7422  -19.9695 C   0  0  0  0  0  0  0  0  0  0  0  0
   28.7107  -26.5479  -20.5236 C   0  0  0  0  0  0  0  0  0  0  0  0
   27.5417  -26.5355  -21.2596 C   0  0  0  0  0  0  0  0  0  0  0  0
   26.8578  -27.7166  -21.4348 C   0  0  0  0  0  0  0  0  0  0  0  0
   27.3352  -28.8933  -20.8829 C   0  0  0  0  0  0  0  0  0  0  0  0
   30.7331  -31.9631  -19.7226 C   0  0  0  0  0  0  0  0  0  0  0  0
   30.2912  -33.1245  -19.9429 O   0  0  0  0  0  0  0  0  0  0  0  0
   31.8167  -31.8223  -18.8128 N   0  0  0  0  0  0  0  0  0  0  0  0
   32.4939  -32.8882  -18.1397 C   0  0  1  0  0  0  0  0  0  0  0  0
   33.9384  -32.6990  -17.8756 C   0  0  0  0  0  0  0  0  0  0  0  0
   34.7726  -32.7060  -19.0528 C   0  0  0  0  0  0  0  0  0  0  0  0
   34.5100  -33.1000  -20.3213 C   0  0  0  0  0  0  0  0  0  0  0  0
   35.6187  -32.9415  -21.1159 N   0  0  0  0  0  0  0  0  0  0  0  0
   36.5627  -32.4412  -20.2970 C   0  0  0  0  0  0  0  0  0  0  0  0
   36.0742  -32.2930  -19.0552 N   0  0  0  0  0  0  0  0  0  0  0  0
   31.7536  -33.2712  -16.8759 C   0  0  0  0  0  0  0  0  0  0  0  0
   31.3968  -32.3326  -16.1333 O   0  0  0  0  0  0  0  0  0  0  0  0
   28.8426  -32.1937  -14.3427 N   0  0  0  0  0  0  0  0  0  0  0  0
   28.1243  -33.3300  -13.8868 C   0  0  0  0  0  0  0  0  0  0  0  0
   27.3908  -33.3327  -12.8665 O   0  0  0  0  0  0  0  0  0  0  0  0
   28.2495  -34.5864  -14.6633 C   0  0  0  0  0  0  0  0  0  0  0  0
   29.1930  -34.3863  -15.8462 C   0  0  0  0  0  0  0  0  0  0  0  0
   30.5532  -34.9503  -15.4392 C   0  0  2  0  0  0  0  0  0  0  0  0
   31.4633  -34.6081  -16.5228 N   0  0  0  0  0  0  0  0  0  0  0  0
   30.4185  -36.4057  -15.2515 C   0  0  0  0  0  0  0  0  0  0  0  0
   30.6892  -37.2880  -16.2606 O   0  0  0  0  0  0  0  0  0  0  0  0
   30.0448  -36.8184  -14.1304 O   0  0  0  0  0  0  0  0  0  0  0  0
  2  1  1  6
  2  3  1  0
  3  4  1  0
  4  9  1  0
  4  5  2  0
  5  6  1  0
  6  7  2  0
  8  7  1  0
  9  8  2  0
 10  2  1  0
 10 11  2  0
 12 10  1  0
 13 12  1  0
 13 14  1  1
 15 14  1  0
 15 16  2  0
 17 16  1  0
 18 17  1  0
 19 18  2  0
 19 15  1  0
 20 13  1  0
 21 20  2  0
 23 22  1  0
 23 25  1  0
 24 23  2  0
 26 25  1  0
 27 26  1  6
 27 28  1  0
 28 20  1  0
 29 27  1  0
 29 30  1  0
 31 29  2  0
M  END
$$$$
