FHQ.pdb
     RDKit          3D

 31 32  0  0  1  0  0  0  0  0999 V2000
   17.2339  -15.1325  -16.3138 N   0  0  0  0  0  0  0  0  0  0  0  0
   17.6644  -14.0540  -17.1707 C   0  0  1  0  0  0  0  0  0  0  0  0
   16.4874  -13.2352  -17.6939 C   0  0  0  0  0  0  0  0  0  0  0  0
   15.6504  -14.0329  -18.6224 C   0  0  0  0  0  0  0  0  0  0  0  0
   16.0718  -14.2150  -19.9280 C   0  0  0  0  0  0  0  0  0  0  0  0
   15.3075  -14.9551  -20.8373 C   0  0  0  0  0  0  0  0  0  0  0  0
   14.1101  -15.5213  -20.4449 C   0  0  0  0  0  0  0  0  0  0  0  0
   13.6876  -15.3425  -19.1476 C   0  0  0  0  0  0  0  0  0  0  0  0
   14.4507  -14.6089  -18.2550 C   0  0  0  0  0  0  0  0  0  0  0  0
   18.6021  -13.1924  -16.4094 C   0  0  0  0  0  0  0  0  0  0  0  0
   18.3956  -12.9223  -15.1940 O   0  0  0  0  0  0  0  0  0  0  0  0
   19.7605  -12.6466  -17.0273 N   0  0  0  0  0  0  0  0  0  0  0  0
   20.7650  -11.8571  -16.3827 C   0  0  1  0  0  0  0  0  0  0  0  0
   22.1230  -11.8958  -16.9710 C   0  0  0  0  0  0  0  0  0  0  0  0
   23.1328  -11.2089  -16.2028 C   0  0  0  0  0  0  0  0  0  0  0  0
   23.0374  -10.4848  -15.0627 C   0  0  0  0  0  0  0  0  0  0  0  0
   24.2675   -9.9974  -14.6953 N   0  0  0  0  0  0  0  0  0  0  0  0
   25.1135  -10.4437  -15.6425 C   0  0  0  0  0  0  0  0  0  0  0  0
   24.4515  -11.1722  -16.5556 N   0  0  0  0  0  0  0  0  0  0  0  0
   20.2864  -10.4315  -16.2077 C   0  0  0  0  0  0  0  0  0  0  0  0
   19.7883   -9.8838  -17.2134 O   0  0  0  0  0  0  0  0  0  0  0  0
   17.4596   -8.0004  -11.4470 N   0  0  0  0  0  0  0  0  0  0  0  0
   17.6045   -6.8419  -12.2542 C   0  0  0  0  0  0  0  0  0  0  0  0
   17.0072   -5.7576  -12.0380 O   0  0  0  0  0  0  0  0  0  0  0  0
   18.5156   -6.9197  -13.4209 C   0  0  0  0  0  0  0  0  0  0  0  0
   19.0035   -8.3525  -13.6174 C   0  0  0  0  0  0  0  0  0  0  0  0
   19.9204   -8.3535  -14.8394 C   0  0  2  0  0  0  0  0  0  0  0  0
   20.3811   -9.7267  -14.9869 N   0  0  0  0  0  0  0  0  0  0  0  0
   21.0249   -7.4090  -14.5957 C   0  0  0  0  0  0  0  0  0  0  0  0
   20.9047   -6.0759  -14.8757 O   0  0  0  0  0  0  0  0  0  0  0  0
   22.0895   -7.8645  -14.1201 O   0  0  0  0  0  0  0  0  0  0  0  0
  2  1  1  1
  2  3  1  0
  3  4  1  0
  4  9  1  0
  4  5  2  0
  5  6  1  0
  6  7  2  0
  8  7  1  0
  9  8  2  0
 10  2  1  0
 10 11  2  0
 12 10  1  0
 13 12  1  0
 13 14  1  6
 15 14  1  0
 15 16  2  0
 17 16  1  0
 18 17  1  0
 19 18  2  0
 19 15  1  0
 20 13  1  0
 21 20  2  0
 23 22  1  0
 23 25  1  0
 24 23  2  0
 26 25  1  0
 27 26  1  1
 27 28  1  0
 28 20  1  0
 29 27  1  0
 29 30  1  0
 31 29  2  0
M  END
$$$$
