FHQ.pdb
     RDKit          3D

 31 32  0  0  1  0  0  0  0  0999 V2000
   20.1047  -12.9444  -20.9107 N   0  0  0  0  0  0  0  0  0  0  0  0
   20.3315  -11.8237  -20.0302 C   0  0  1  0  0  0  0  0  0  0  0  0
   20.3667  -10.4996  -20.7882 C   0  0  0  0  0  0  0  0  0  0  0  0
   21.5164  -10.4478  -21.7234 C   0  0  0  0  0  0  0  0  0  0  0  0
   21.2972  -10.6312  -23.0775 C   0  0  0  0  0  0  0  0  0  0  0  0
   22.3561  -10.5966  -23.9920 C   0  0  0  0  0  0  0  0  0  0  0  0
   23.6485  -10.3772  -23.5560 C   0  0  0  0  0  0  0  0  0  0  0  0
   23.8706  -10.1943  -22.2104 C   0  0  0  0  0  0  0  0  0  0  0  0
   22.8166  -10.2300  -21.3132 C   0  0  0  0  0  0  0  0  0  0  0  0
   19.2622  -11.8081  -19.0018 C   0  0  0  0  0  0  0  0  0  0  0  0
   18.0564  -12.0108  -19.3147 O   0  0  0  0  0  0  0  0  0  0  0  0
   19.5654  -11.5646  -17.6342 N   0  0  0  0  0  0  0  0  0  0  0  0
   18.6286  -11.5615  -16.5524 C   0  0  1  0  0  0  0  0  0  0  0  0
   18.9250  -12.4566  -15.4110 C   0  0  0  0  0  0  0  0  0  0  0  0
   18.7244  -13.8603  -15.6776 C   0  0  0  0  0  0  0  0  0  0  0  0
   18.2289  -14.4921  -16.7678 C   0  0  0  0  0  0  0  0  0  0  0  0
   18.2066  -15.8509  -16.5703 N   0  0  0  0  0  0  0  0  0  0  0  0
   18.7012  -16.0287  -15.3311 C   0  0  0  0  0  0  0  0  0  0  0  0
   19.0174  -14.8462  -14.7793 N   0  0  0  0  0  0  0  0  0  0  0  0
   18.3672  -10.1462  -16.0826 C   0  0  0  0  0  0  0  0  0  0  0  0
   19.3719   -9.4464  -15.8369 O   0  0  0  0  0  0  0  0  0  0  0  0
   18.0051   -5.5568  -18.0685 N   0  0  0  0  0  0  0  0  0  0  0  0
   17.1157   -5.0331  -17.0941 C   0  0  0  0  0  0  0  0  0  0  0  0
   16.9725   -3.8063  -16.8629 O   0  0  0  0  0  0  0  0  0  0  0  0
   16.3095   -5.9939  -16.3041 C   0  0  0  0  0  0  0  0  0  0  0  0
   16.6131   -7.4247  -16.7403 C   0  0  0  0  0  0  0  0  0  0  0  0
   16.8383   -8.2453  -15.4716 C   0  0  2  0  0  0  0  0  0  0  0  0
   17.0698   -9.6110  -15.9199 N   0  0  0  0  0  0  0  0  0  0  0  0
   15.6428   -8.1246  -14.6186 C   0  0  0  0  0  0  0  0  0  0  0  0
   15.5410   -7.1571  -13.6575 O   0  0  0  0  0  0  0  0  0  0  0  0
   14.7112   -8.9412  -14.7986 O   0  0  0  0  0  0  0  0  0  0  0  0
  2  1  1  6
  2  3  1  0
  3  4  1  0
  4  9  1  0
  4  5  2  0
  5  6  1  0
  6  7  2  0
  8  7  1  0
  9  8  2  0
 10  2  1  0
 10 11  2  0
 12 10  1  0
 13 12  1  0
 13 14  1  1
 15 14  1  0
 15 16  2  0
 17 16  1  0
 18 17  1  0
 19 18  2  0
 19 15  1  0
 20 13  1  0
 21 20  2  0
 23 22  1  0
 23 25  1  0
 24 23  2  0
 26 25  1  0
 27 26  1  6
 27 28  1  0
 28 20  1  0
 29 27  1  0
 29 30  1  0
 31 29  2  0
M  END
$$$$
