FHQ.pdb
     RDKit          3D

 31 32  0  0  1  0  0  0  0  0999 V2000
   28.7962  -20.7474   -8.9885 N   0  0  0  0  0  0  0  0  0  0  0  0
   27.3633  -20.7483   -8.8168 C   0  0  1  0  0  0  0  0  0  0  0  0
   26.8939  -19.6022   -7.9251 C   0  0  0  0  0  0  0  0  0  0  0  0
   27.4997  -19.6913   -6.5745 C   0  0  0  0  0  0  0  0  0  0  0  0
   28.5894  -18.8955   -6.2668 C   0  0  0  0  0  0  0  0  0  0  0  0
   29.1942  -18.9547   -5.0061 C   0  0  0  0  0  0  0  0  0  0  0  0
   28.7106  -19.8148   -4.0392 C   0  0  0  0  0  0  0  0  0  0  0  0
   27.6273  -20.6077   -4.3413 C   0  0  0  0  0  0  0  0  0  0  0  0
   27.0353  -20.5420   -5.5913 C   0  0  0  0  0  0  0  0  0  0  0  0
   26.7281  -20.6623  -10.1549 C   0  0  0  0  0  0  0  0  0  0  0  0
   26.9208  -19.6644  -10.9031 O   0  0  0  0  0  0  0  0  0  0  0  0
   25.8842  -21.7021  -10.6328 N   0  0  0  0  0  0  0  0  0  0  0  0
   25.2690  -21.7600  -11.9235 C   0  0  1  0  0  0  0  0  0  0  0  0
   25.2418  -23.0815  -12.5907 C   0  0  0  0  0  0  0  0  0  0  0  0
   24.6095  -23.0893  -13.8875 C   0  0  0  0  0  0  0  0  0  0  0  0
   23.9261  -22.1228  -14.5448 C   0  0  0  0  0  0  0  0  0  0  0  0
   23.4838  -22.5849  -15.7600 N   0  0  0  0  0  0  0  0  0  0  0  0
   23.9158  -23.8582  -15.8241 C   0  0  0  0  0  0  0  0  0  0  0  0
   24.5930  -24.1792  -14.7101 N   0  0  0  0  0  0  0  0  0  0  0  0
   23.8875  -21.1423  -11.8797 C   0  0  0  0  0  0  0  0  0  0  0  0
   23.2259  -21.3307  -10.8375 O   0  0  0  0  0  0  0  0  0  0  0  0
   21.2898  -17.3977  -16.1198 N   0  0  0  0  0  0  0  0  0  0  0  0
   20.3452  -17.3001  -15.0649 C   0  0  0  0  0  0  0  0  0  0  0  0
   19.2293  -16.7324  -15.1733 O   0  0  0  0  0  0  0  0  0  0  0  0
   20.6999  -17.9049  -13.7589 C   0  0  0  0  0  0  0  0  0  0  0  0
   22.0539  -18.6036  -13.8489 C   0  0  0  0  0  0  0  0  0  0  0  0
   22.0228  -19.7761  -12.8701 C   0  0  2  0  0  0  0  0  0  0  0  0
   23.3429  -20.3859  -12.9416 N   0  0  0  0  0  0  0  0  0  0  0  0
   20.9499  -20.6992  -13.2806 C   0  0  0  0  0  0  0  0  0  0  0  0
   19.7748  -20.7881  -12.5870 O   0  0  0  0  0  0  0  0  0  0  0  0
   21.1449  -21.4088  -14.2932 O   0  0  0  0  0  0  0  0  0  0  0  0
  2  1  1  6
  2  3  1  0
  3  4  1  0
  4  9  1  0
  4  5  2  0
  5  6  1  0
  6  7  2  0
  8  7  1  0
  9  8  2  0
 10  2  1  0
 10 11  2  0
 12 10  1  0
 13 12  1  0
 13 14  1  1
 15 14  1  0
 15 16  2  0
 17 16  1  0
 18 17  1  0
 19 18  2  0
 19 15  1  0
 20 13  1  0
 21 20  2  0
 23 22  1  0
 23 25  1  0
 24 23  2  0
 26 25  1  0
 27 26  1  6
 27 28  1  0
 28 20  1  0
 29 27  1  0
 29 30  1  0
 31 29  2  0
M  END
$$$$
