FHQ.pdb
     RDKit          3D

 31 32  0  0  1  0  0  0  0  0999 V2000
   27.2377  -20.7539  -17.5485 N   0  0  0  0  0  0  0  0  0  0  0  0
   26.9621  -19.8347  -16.4707 C   0  0  1  0  0  0  0  0  0  0  0  0
   26.2750  -18.5646  -16.9645 C   0  0  0  0  0  0  0  0  0  0  0  0
   27.2137  -17.7116  -17.7328 C   0  0  0  0  0  0  0  0  0  0  0  0
   27.3163  -17.8805  -19.1026 C   0  0  0  0  0  0  0  0  0  0  0  0
   28.1952  -17.1005  -19.8628 C   0  0  0  0  0  0  0  0  0  0  0  0
   28.9817  -16.1411  -19.2550 C   0  0  0  0  0  0  0  0  0  0  0  0
   28.8825  -15.9702  -17.8932 C   0  0  0  0  0  0  0  0  0  0  0  0
   28.0099  -16.7464  -17.1494 C   0  0  0  0  0  0  0  0  0  0  0  0
   26.1190  -20.5268  -15.4649 C   0  0  0  0  0  0  0  0  0  0  0  0
   25.0688  -21.1375  -15.8065 O   0  0  0  0  0  0  0  0  0  0  0  0
   26.4705  -20.5219  -14.0871 N   0  0  0  0  0  0  0  0  0  0  0  0
   25.6113  -20.8744  -12.9984 C   0  0  1  0  0  0  0  0  0  0  0  0
   26.1717  -20.7367  -11.6350 C   0  0  0  0  0  0  0  0  0  0  0  0
   25.2281  -20.9702  -10.5688 C   0  0  0  0  0  0  0  0  0  0  0  0
   23.9322  -21.3608  -10.6037 C   0  0  0  0  0  0  0  0  0  0  0  0
   23.4165  -21.4384   -9.3333 N   0  0  0  0  0  0  0  0  0  0  0  0
   24.4329  -21.0842   -8.5250 C   0  0  0  0  0  0  0  0  0  0  0  0
   25.5281  -20.7995   -9.2476 N   0  0  0  0  0  0  0  0  0  0  0  0
   24.2837  -20.1566  -13.1179 C   0  0  0  0  0  0  0  0  0  0  0  0
   24.3323  -18.9196  -13.2823 O   0  0  0  0  0  0  0  0  0  0  0  0
   21.9916  -19.0579  -17.2144 N   0  0  0  0  0  0  0  0  0  0  0  0
   21.6730  -20.4116  -16.9305 C   0  0  0  0  0  0  0  0  0  0  0  0
   21.5186  -21.2950  -17.8108 O   0  0  0  0  0  0  0  0  0  0  0  0
   21.5138  -20.8027  -15.5096 C   0  0  0  0  0  0  0  0  0  0  0  0
   21.7104  -19.5917  -14.6016 C   0  0  0  0  0  0  0  0  0  0  0  0
   21.7698  -20.1093  -13.1655 C   0  0  2  0  0  0  0  0  0  0  0  0
   23.0368  -20.8176  -13.0525 N   0  0  0  0  0  0  0  0  0  0  0  0
   20.6084  -20.9869  -12.9366 C   0  0  0  0  0  0  0  0  0  0  0  0
   20.7525  -22.3328  -12.7422 O   0  0  0  0  0  0  0  0  0  0  0  0
   19.4721  -20.4617  -12.9248 O   0  0  0  0  0  0  0  0  0  0  0  0
  2  1  1  6
  2  3  1  0
  3  4  1  0
  4  9  1  0
  4  5  2  0
  5  6  1  0
  6  7  2  0
  8  7  1  0
  9  8  2  0
 10  2  1  0
 10 11  2  0
 12 10  1  0
 13 12  1  0
 13 14  1  1
 15 14  1  0
 15 16  2  0
 17 16  1  0
 18 17  1  0
 19 18  2  0
 19 15  1  0
 20 13  1  0
 21 20  2  0
 23 22  1  0
 23 25  1  0
 24 23  2  0
 26 25  1  0
 27 26  1  6
 27 28  1  0
 28 20  1  0
 29 27  1  0
 29 30  1  0
 31 29  2  0
M  END
$$$$
