FHQ.pdb
     RDKit          3D

 31 32  0  0  1  0  0  0  0  0999 V2000
   23.0950  -15.7716  -17.4479 N   0  0  0  0  0  0  0  0  0  0  0  0
   23.3324  -14.6721  -16.5437 C   0  0  1  0  0  0  0  0  0  0  0  0
   24.7902  -14.2208  -16.5634 C   0  0  0  0  0  0  0  0  0  0  0  0
   25.6966  -15.3182  -16.1473 C   0  0  0  0  0  0  0  0  0  0  0  0
   26.4062  -16.0131  -17.1111 C   0  0  0  0  0  0  0  0  0  0  0  0
   27.2666  -17.0598  -16.7604 C   0  0  0  0  0  0  0  0  0  0  0  0
   27.4239  -17.4205  -15.4361 C   0  0  0  0  0  0  0  0  0  0  0  0
   26.7201  -16.7320  -14.4748 C   0  0  0  0  0  0  0  0  0  0  0  0
   25.8715  -15.6977  -14.8314 C   0  0  0  0  0  0  0  0  0  0  0  0
   22.4342  -13.5519  -16.9175 C   0  0  0  0  0  0  0  0  0  0  0  0
   22.1068  -13.3548  -18.1203 O   0  0  0  0  0  0  0  0  0  0  0  0
   21.9162  -12.6686  -15.9310 N   0  0  0  0  0  0  0  0  0  0  0  0
   20.9751  -11.6145  -16.1565 C   0  0  1  0  0  0  0  0  0  0  0  0
   19.5767  -11.8690  -15.7421 C   0  0  0  0  0  0  0  0  0  0  0  0
   19.0110  -13.0952  -16.2501 C   0  0  0  0  0  0  0  0  0  0  0  0
   19.5470  -14.0580  -17.0368 C   0  0  0  0  0  0  0  0  0  0  0  0
   18.6274  -15.0473  -17.2843 N   0  0  0  0  0  0  0  0  0  0  0  0
   17.5178  -14.6605  -16.6277 C   0  0  0  0  0  0  0  0  0  0  0  0
   17.7281  -13.4917  -16.0014 N   0  0  0  0  0  0  0  0  0  0  0  0
   21.4881  -10.3136  -15.5762 C   0  0  0  0  0  0  0  0  0  0  0  0
   21.9178  -10.3576  -14.4045 O   0  0  0  0  0  0  0  0  0  0  0  0
   20.2242   -4.9168  -18.2612 N   0  0  0  0  0  0  0  0  0  0  0  0
   21.4527   -5.5159  -18.6441 C   0  0  0  0  0  0  0  0  0  0  0  0
   22.0559   -5.2554  -19.7152 O   0  0  0  0  0  0  0  0  0  0  0  0
   22.0569   -6.5075  -17.7228 C   0  0  0  0  0  0  0  0  0  0  0  0
   21.1339   -6.7565  -16.5330 C   0  0  0  0  0  0  0  0  0  0  0  0
   21.7990   -7.8195  -15.6604 C   0  0  2  0  0  0  0  0  0  0  0  0
   21.4967   -9.0958  -16.2924 N   0  0  0  0  0  0  0  0  0  0  0  0
   21.2472   -7.7179  -14.2978 C   0  0  0  0  0  0  0  0  0  0  0  0
   22.0340   -7.3964  -13.2266 O   0  0  0  0  0  0  0  0  0  0  0  0
   20.0242   -7.9366  -14.1445 O   0  0  0  0  0  0  0  0  0  0  0  0
  2  1  1  6
  2  3  1  0
  3  4  1  0
  4  9  1  0
  4  5  2  0
  5  6  1  0
  6  7  2  0
  8  7  1  0
  9  8  2  0
 10  2  1  0
 10 11  2  0
 12 10  1  0
 13 12  1  0
 13 14  1  1
 15 14  1  0
 15 16  2  0
 17 16  1  0
 18 17  1  0
 19 18  2  0
 19 15  1  0
 20 13  1  0
 21 20  2  0
 23 22  1  0
 23 25  1  0
 24 23  2  0
 26 25  1  0
 27 26  1  6
 27 28  1  0
 28 20  1  0
 29 27  1  0
 29 30  1  0
 31 29  2  0
M  END
$$$$
