WIS.pdb
     RDKit          3D

 29 30  0  0  1  0  0  0  0  0999 V2000
   25.0256  -20.1246  -17.8102 N   0  0  0  0  0  0  0  0  0  0  0  0
   24.7900  -19.3884  -16.5858 C   0  0  1  0  0  0  0  0  0  0  0  0
   23.2824  -19.3125  -16.3574 C   0  0  0  0  0  0  0  0  0  0  0  0
   22.6449  -18.2924  -17.2168 C   0  0  0  0  0  0  0  0  0  0  0  0
   22.3420  -18.3777  -18.5502 C   0  0  0  0  0  0  0  0  0  0  0  0
   21.7721  -17.2133  -18.9094 N   0  0  0  0  0  0  0  0  0  0  0  0
   21.7030  -16.3820  -17.8330 C   0  0  0  0  0  0  0  0  0  0  0  0
   21.2084  -15.0935  -17.6926 C   0  0  0  0  0  0  0  0  0  0  0  0
   21.2623  -14.4652  -16.4583 C   0  0  0  0  0  0  0  0  0  0  0  0
   21.8162  -15.1611  -15.4017 C   0  0  0  0  0  0  0  0  0  0  0  0
   22.3091  -16.4294  -15.5169 C   0  0  0  0  0  0  0  0  0  0  0  0
   22.2463  -17.0499  -16.7734 C   0  0  0  0  0  0  0  0  0  0  0  0
   25.4053  -20.1293  -15.4689 C   0  0  0  0  0  0  0  0  0  0  0  0
   25.1274  -21.3468  -15.3222 O   0  0  0  0  0  0  0  0  0  0  0  0
   30.0513  -19.2744  -15.1428 C   0  0  0  0  0  0  0  0  0  0  0  0
   29.1399  -20.4558  -14.7332 C   0  0  0  0  0  0  0  0  0  0  0  0
   28.4255  -20.0421  -13.4803 C   0  0  2  0  0  0  0  0  0  0  0  0
   29.1444  -20.7195  -12.3307 C   0  0  0  0  0  0  0  0  0  0  0  0
   26.9444  -20.3154  -13.4586 C   0  0  2  0  0  0  0  0  0  0  0  0
   26.3031  -19.5365  -14.5410 N   0  0  0  0  0  0  0  0  0  0  0  0
   26.2774  -20.0330  -12.1758 C   0  0  0  0  0  0  0  0  0  0  0  0
   26.3564  -18.8692  -11.6308 O   0  0  0  0  0  0  0  0  0  0  0  0
   23.7194  -22.5926  -10.4312 O   0  0  0  0  0  0  0  0  0  0  0  0
   23.6471  -21.3221   -9.8523 C   0  0  0  0  0  0  0  0  0  0  0  0
   24.9778  -20.6454  -10.1016 C   0  0  2  0  0  0  0  0  0  0  0  0
   25.5011  -20.9454  -11.4168 N   0  0  0  0  0  0  0  0  0  0  0  0
   25.9578  -20.9855   -9.0788 C   0  0  0  0  0  0  0  0  0  0  0  0
   27.0304  -21.5929   -9.3454 O   0  0  0  0  0  0  0  0  0  0  0  0
   25.7370  -20.6452   -7.7578 O   0  0  0  0  0  0  0  0  0  0  0  0
  2  1  1  6
  2 13  1  0
  3  2  1  0
  4  3  1  0
  4 12  1  0
  5  6  1  0
  5  4  2  0
  6  7  1  0
  7  8  1  0
  7 12  2  0
  8  9  2  0
  9 10  1  0
 11 10  2  0
 12 11  1  0
 13 14  2  0
 16 15  1  0
 17 16  1  0
 17 19  1  0
 17 18  1  1
 19 21  1  0
 19 20  1  6
 20 13  1  0
 21 22  2  0
 23 24  1  0
 25 24  1  1
 25 27  1  0
 26 21  1  0
 26 25  1  0
 27 28  2  0
 27 29  1  0
M  END
$$$$
