WIS.pdb
     RDKit          3D

 29 30  0  0  1  0  0  0  0  0999 V2000
   28.2609  -21.4378  -11.0775 N   0  0  0  0  0  0  0  0  0  0  0  0
   27.0284  -21.1708  -10.3660 C   0  0  1  0  0  0  0  0  0  0  0  0
   27.3218  -20.1493   -9.2701 C   0  0  0  0  0  0  0  0  0  0  0  0
   28.3765  -20.6186   -8.3465 C   0  0  0  0  0  0  0  0  0  0  0  0
   29.3977  -21.4952   -8.6026 C   0  0  0  0  0  0  0  0  0  0  0  0
   30.1105  -21.6259   -7.4692 N   0  0  0  0  0  0  0  0  0  0  0  0
   29.5672  -20.8503   -6.4904 C   0  0  0  0  0  0  0  0  0  0  0  0
   29.9317  -20.6440   -5.1679 C   0  0  0  0  0  0  0  0  0  0  0  0
   29.1893  -19.7834   -4.3746 C   0  0  0  0  0  0  0  0  0  0  0  0
   28.0986  -19.1566   -4.9447 C   0  0  0  0  0  0  0  0  0  0  0  0
   27.7217  -19.3448   -6.2438 C   0  0  0  0  0  0  0  0  0  0  0  0
   28.4845  -20.2192   -7.0320 C   0  0  0  0  0  0  0  0  0  0  0  0
   26.0583  -20.5898  -11.3128 C   0  0  0  0  0  0  0  0  0  0  0  0
   26.4023  -19.5943  -11.9995 O   0  0  0  0  0  0  0  0  0  0  0  0
   23.9433  -22.6862  -16.0186 C   0  0  0  0  0  0  0  0  0  0  0  0
   23.3915  -21.6539  -15.0066 C   0  0  0  0  0  0  0  0  0  0  0  0
   24.1984  -21.8002  -13.7500 C   0  0  2  0  0  0  0  0  0  0  0  0
   23.9635  -23.2112  -13.2490 C   0  0  0  0  0  0  0  0  0  0  0  0
   23.9293  -20.7710  -12.6836 C   0  0  2  0  0  0  0  0  0  0  0  0
   24.7441  -21.0987  -11.4927 N   0  0  0  0  0  0  0  0  0  0  0  0
   22.5146  -20.6281  -12.2986 C   0  0  0  0  0  0  0  0  0  0  0  0
   21.9746  -21.4332  -11.4514 O   0  0  0  0  0  0  0  0  0  0  0  0
   20.0169  -18.0819  -14.1604 O   0  0  0  0  0  0  0  0  0  0  0  0
   19.5616  -18.2957  -12.8560 C   0  0  0  0  0  0  0  0  0  0  0  0
   20.2305  -19.5575  -12.3546 C   0  0  2  0  0  0  0  0  0  0  0  0
   21.6127  -19.6422  -12.7741 N   0  0  0  0  0  0  0  0  0  0  0  0
   19.5050  -20.7530  -12.7622 C   0  0  0  0  0  0  0  0  0  0  0  0
   19.9010  -21.4974  -13.7000 O   0  0  0  0  0  0  0  0  0  0  0  0
   18.3365  -21.1155  -12.1195 O   0  0  0  0  0  0  0  0  0  0  0  0
  2  1  1  6
  2 13  1  0
  3  2  1  0
  4  3  1  0
  4 12  1  0
  5  6  1  0
  5  4  2  0
  6  7  1  0
  7  8  1  0
  7 12  2  0
  8  9  2  0
  9 10  1  0
 11 10  2  0
 12 11  1  0
 13 14  2  0
 16 15  1  0
 17 16  1  0
 17 19  1  0
 17 18  1  1
 19 21  1  0
 19 20  1  1
 20 13  1  0
 21 22  2  0
 23 24  1  0
 25 24  1  6
 25 27  1  0
 26 21  1  0
 26 25  1  0
 27 28  2  0
 27 29  1  0
M  END
$$$$
