WIS.pdb
     RDKit          3D

 29 30  0  0  1  0  0  0  0  0999 V2000
   26.8744  -20.4868  -11.4803 N   0  0  0  0  0  0  0  0  0  0  0  0
   26.0552  -20.1913  -10.3235 C   0  0  1  0  0  0  0  0  0  0  0  0
   24.7346  -20.9434  -10.4695 C   0  0  0  0  0  0  0  0  0  0  0  0
   23.8626  -20.3330  -11.4955 C   0  0  0  0  0  0  0  0  0  0  0  0
   24.0830  -20.2338  -12.8440 C   0  0  0  0  0  0  0  0  0  0  0  0
   23.0226  -19.6034  -13.3805 N   0  0  0  0  0  0  0  0  0  0  0  0
   22.1256  -19.2959  -12.4030 C   0  0  0  0  0  0  0  0  0  0  0  0
   20.8955  -18.6561  -12.4477 C   0  0  0  0  0  0  0  0  0  0  0  0
   20.1731  -18.4689  -11.2797 C   0  0  0  0  0  0  0  0  0  0  0  0
   20.7184  -18.9356  -10.0998 C   0  0  0  0  0  0  0  0  0  0  0  0
   21.9270  -19.5679  -10.0323 C   0  0  0  0  0  0  0  0  0  0  0  0
   22.6444  -19.7487  -11.2242 C   0  0  0  0  0  0  0  0  0  0  0  0
   26.7524  -20.6803   -9.1195 C   0  0  0  0  0  0  0  0  0  0  0  0
   27.3005  -21.8114   -9.1530 O   0  0  0  0  0  0  0  0  0  0  0  0
   29.4889  -17.4103   -5.8148 C   0  0  0  0  0  0  0  0  0  0  0  0
   29.1738  -18.6883   -6.6284 C   0  0  0  0  0  0  0  0  0  0  0  0
   28.0833  -19.4139   -5.8965 C   0  0  2  0  0  0  0  0  0  0  0  0
   28.6957  -19.9250   -4.6076 C   0  0  0  0  0  0  0  0  0  0  0  0
   27.4022  -20.5115   -6.6712 C   0  0  2  0  0  0  0  0  0  0  0  0
   26.8390  -19.9358   -7.9125 N   0  0  0  0  0  0  0  0  0  0  0  0
   26.3523  -21.2355   -5.9338 C   0  0  0  0  0  0  0  0  0  0  0  0
   25.2246  -20.6747   -5.6664 O   0  0  0  0  0  0  0  0  0  0  0  0
   26.8398  -24.8499   -3.9241 O   0  0  0  0  0  0  0  0  0  0  0  0
   25.6091  -24.7053   -4.5716 C   0  0  0  0  0  0  0  0  0  0  0  0
   25.3637  -23.2201   -4.7295 C   0  0  2  0  0  0  0  0  0  0  0  0
   26.4331  -22.5674   -5.4534 N   0  0  0  0  0  0  0  0  0  0  0  0
   25.1517  -22.5671   -3.4448 C   0  0  0  0  0  0  0  0  0  0  0  0
   25.9651  -21.7283   -2.9703 O   0  0  0  0  0  0  0  0  0  0  0  0
   24.0289  -22.8530   -2.6916 O   0  0  0  0  0  0  0  0  0  0  0  0
  2  1  1  6
  2 13  1  0
  3  2  1  0
  4  3  1  0
  4 12  1  0
  5  6  1  0
  5  4  2  0
  6  7  1  0
  7  8  1  0
  7 12  2  0
  8  9  2  0
  9 10  1  0
 11 10  2  0
 12 11  1  0
 13 14  2  0
 16 15  1  0
 17 16  1  0
 17 19  1  0
 17 18  1  1
 19 21  1  0
 19 20  1  6
 20 13  1  0
 21 22  2  0
 23 24  1  0
 25 24  1  1
 25 27  1  0
 26 21  1  0
 26 25  1  0
 27 28  2  0
 27 29  1  0
M  END
$$$$
