WIS.pdb
     RDKit          3D

 29 30  0  0  1  0  0  0  0  0999 V2000
   26.7941  -19.9543  -19.3597 N   0  0  0  0  0  0  0  0  0  0  0  0
   25.9810  -19.5817  -18.2211 C   0  0  1  0  0  0  0  0  0  0  0  0
   24.5253  -19.9052  -18.5481 C   0  0  0  0  0  0  0  0  0  0  0  0
   23.8412  -18.7696  -19.2022 C   0  0  0  0  0  0  0  0  0  0  0  0
   23.8133  -18.4514  -20.5345 C   0  0  0  0  0  0  0  0  0  0  0  0
   23.0703  -17.3379  -20.6675 N   0  0  0  0  0  0  0  0  0  0  0  0
   22.6205  -16.9348  -19.4469 C   0  0  0  0  0  0  0  0  0  0  0  0
   21.8305  -15.8608  -19.0633 C   0  0  0  0  0  0  0  0  0  0  0  0
   21.5156  -15.6800  -17.7256 C   0  0  0  0  0  0  0  0  0  0  0  0
   22.0106  -16.5930  -16.8152 C   0  0  0  0  0  0  0  0  0  0  0  0
   22.7897  -17.6569  -17.1702 C   0  0  0  0  0  0  0  0  0  0  0  0
   23.0984  -17.8245  -18.5283 C   0  0  0  0  0  0  0  0  0  0  0  0
   26.4010  -20.3907  -17.0617 C   0  0  0  0  0  0  0  0  0  0  0  0
   26.7137  -21.5949  -17.2435 O   0  0  0  0  0  0  0  0  0  0  0  0
   29.7403  -20.3645  -12.1727 C   0  0  0  0  0  0  0  0  0  0  0  0
   28.4388  -21.0241  -12.6878 C   0  0  0  0  0  0  0  0  0  0  0  0
   27.9819  -20.2226  -13.8711 C   0  0  2  0  0  0  0  0  0  0  0  0
   27.7928  -18.8008  -13.3813 C   0  0  0  0  0  0  0  0  0  0  0  0
   26.7558  -20.7450  -14.5731 C   0  0  2  0  0  0  0  0  0  0  0  0
   26.4720  -19.8784  -15.7385 N   0  0  0  0  0  0  0  0  0  0  0  0
   25.5544  -20.8571  -13.7281 C   0  0  0  0  0  0  0  0  0  0  0  0
   24.9164  -19.8076  -13.3419 O   0  0  0  0  0  0  0  0  0  0  0  0
   24.4607  -24.3011  -11.8999 O   0  0  0  0  0  0  0  0  0  0  0  0
   23.3324  -23.5135  -12.1470 C   0  0  0  0  0  0  0  0  0  0  0  0
   23.8213  -22.1001  -12.3798 C   0  0  2  0  0  0  0  0  0  0  0  0
   24.9696  -22.0611  -13.2592 N   0  0  0  0  0  0  0  0  0  0  0  0
   24.1207  -21.4181  -11.1280 C   0  0  0  0  0  0  0  0  0  0  0  0
   25.2951  -21.1017  -10.7945 O   0  0  0  0  0  0  0  0  0  0  0  0
   23.1054  -21.0900  -10.2498 O   0  0  0  0  0  0  0  0  0  0  0  0
  2  1  1  6
  2 13  1  0
  3  2  1  0
  4  3  1  0
  4 12  1  0
  5  6  1  0
  5  4  2  0
  6  7  1  0
  7  8  1  0
  7 12  2  0
  8  9  2  0
  9 10  1  0
 11 10  2  0
 12 11  1  0
 13 14  2  0
 16 15  1  0
 17 16  1  0
 17 19  1  0
 17 18  1  1
 19 21  1  0
 19 20  1  6
 20 13  1  0
 21 22  2  0
 23 24  1  0
 25 24  1  1
 25 27  1  0
 26 21  1  0
 26 25  1  0
 27 28  2  0
 27 29  1  0
M  END
$$$$
