WIS.pdb
     RDKit          3D

 29 30  0  0  1  0  0  0  0  0999 V2000
   27.0695  -21.9394  -15.1759 N   0  0  0  0  0  0  0  0  0  0  0  0
   26.6851  -21.2796  -13.9457 C   0  0  1  0  0  0  0  0  0  0  0  0
   27.2147  -19.8483  -13.9864 C   0  0  0  0  0  0  0  0  0  0  0  0
   28.6340  -19.7734  -13.5797 C   0  0  0  0  0  0  0  0  0  0  0  0
   29.6649  -19.1344  -14.2167 C   0  0  0  0  0  0  0  0  0  0  0  0
   30.7764  -19.3346  -13.4859 N   0  0  0  0  0  0  0  0  0  0  0  0
   30.4796  -20.0896  -12.3920 C   0  0  0  0  0  0  0  0  0  0  0  0
   31.2695  -20.5579  -11.3521 C   0  0  0  0  0  0  0  0  0  0  0  0
   30.7010  -21.3213  -10.3446 C   0  0  0  0  0  0  0  0  0  0  0  0
   29.3481  -21.5883  -10.4201 C   0  0  0  0  0  0  0  0  0  0  0  0
   28.5517  -21.1379  -11.4339 C   0  0  0  0  0  0  0  0  0  0  0  0
   29.1438  -20.3667  -12.4450 C   0  0  0  0  0  0  0  0  0  0  0  0
   25.2124  -21.2418  -13.8757 C   0  0  0  0  0  0  0  0  0  0  0  0
   24.5491  -21.9782  -14.6494 O   0  0  0  0  0  0  0  0  0  0  0  0
   23.8538  -20.8074   -8.7201 C   0  0  0  0  0  0  0  0  0  0  0  0
   24.0001  -21.3127  -10.1753 C   0  0  0  0  0  0  0  0  0  0  0  0
   23.0636  -20.4966  -11.0170 C   0  0  2  0  0  0  0  0  0  0  0  0
   21.6714  -20.7354  -10.4676 C   0  0  0  0  0  0  0  0  0  0  0  0
   23.1361  -20.7515  -12.4998 C   0  0  2  0  0  0  0  0  0  0  0  0
   24.4961  -20.4108  -12.9730 N   0  0  0  0  0  0  0  0  0  0  0  0
   22.1317  -20.0352  -13.3049 C   0  0  0  0  0  0  0  0  0  0  0  0
   22.0013  -18.7573  -13.2164 O   0  0  0  0  0  0  0  0  0  0  0  0
   19.9162  -21.7775  -16.2853 O   0  0  0  0  0  0  0  0  0  0  0  0
   20.0966  -20.3958  -16.3988 C   0  0  0  0  0  0  0  0  0  0  0  0
   20.2674  -19.8548  -14.9956 C   0  0  2  0  0  0  0  0  0  0  0  0
   21.2320  -20.6180  -14.2335 N   0  0  0  0  0  0  0  0  0  0  0  0
   18.9987  -19.7895  -14.2827 C   0  0  0  0  0  0  0  0  0  0  0  0
   18.0812  -18.9875  -14.6075 O   0  0  0  0  0  0  0  0  0  0  0  0
   18.7571  -20.6223  -13.2067 O   0  0  0  0  0  0  0  0  0  0  0  0
  2  1  1  6
  2 13  1  0
  3  2  1  0
  4  3  1  0
  4 12  1  0
  5  6  1  0
  5  4  2  0
  6  7  1  0
  7  8  1  0
  7 12  2  0
  8  9  2  0
  9 10  1  0
 11 10  2  0
 12 11  1  0
 13 14  2  0
 16 15  1  0
 17 16  1  0
 17 19  1  0
 17 18  1  1
 19 21  1  0
 19 20  1  6
 20 13  1  0
 21 22  2  0
 23 24  1  0
 25 24  1  6
 25 27  1  0
 26 21  1  0
 26 25  1  0
 27 28  2  0
 27 29  1  0
M  END
$$$$
