WIS.pdb
     RDKit          3D

 29 30  0  0  1  0  0  0  0  0999 V2000
   28.2269  -20.9827   -9.6153 N   0  0  0  0  0  0  0  0  0  0  0  0
   26.7964  -21.1984   -9.5551 C   0  0  1  0  0  0  0  0  0  0  0  0
   26.2374  -20.3709   -8.4003 C   0  0  0  0  0  0  0  0  0  0  0  0
   27.3113  -19.7527   -7.5940 C   0  0  0  0  0  0  0  0  0  0  0  0
   28.2214  -18.8044   -7.9806 C   0  0  0  0  0  0  0  0  0  0  0  0
   29.0049  -18.5414   -6.9191 N   0  0  0  0  0  0  0  0  0  0  0  0
   28.6159  -19.3020   -5.8586 C   0  0  0  0  0  0  0  0  0  0  0  0
   29.0999  -19.3934   -4.5618 C   0  0  0  0  0  0  0  0  0  0  0  0
   28.5064  -20.2674   -3.6645 C   0  0  0  0  0  0  0  0  0  0  0  0
   27.4391  -21.0236   -4.1076 C   0  0  0  0  0  0  0  0  0  0  0  0
   26.9462  -20.9500   -5.3791 C   0  0  0  0  0  0  0  0  0  0  0  0
   27.5591  -20.0603   -6.2737 C   0  0  0  0  0  0  0  0  0  0  0  0
   26.1983  -20.7228  -10.8165 C   0  0  0  0  0  0  0  0  0  0  0  0
   26.7459  -19.7691  -11.4260 O   0  0  0  0  0  0  0  0  0  0  0  0
   24.6184  -24.2470  -14.5761 C   0  0  0  0  0  0  0  0  0  0  0  0
   24.3223  -23.3327  -13.3634 C   0  0  0  0  0  0  0  0  0  0  0  0
   24.8444  -21.9687  -13.7073 C   0  0  2  0  0  0  0  0  0  0  0  0
   26.3379  -22.1193  -13.9171 C   0  0  0  0  0  0  0  0  0  0  0  0
   24.5210  -20.8821  -12.7155 C   0  0  2  0  0  0  0  0  0  0  0  0
   25.0261  -21.2891  -11.3855 N   0  0  0  0  0  0  0  0  0  0  0  0
   23.0941  -20.5281  -12.6223 C   0  0  0  0  0  0  0  0  0  0  0  0
   22.3443  -21.0367  -11.7076 O   0  0  0  0  0  0  0  0  0  0  0  0
   21.3480  -18.0669  -15.2670 O   0  0  0  0  0  0  0  0  0  0  0  0
   20.5933  -18.0844  -14.0903 C   0  0  0  0  0  0  0  0  0  0  0  0
   20.9880  -19.3320  -13.3297 C   0  0  2  0  0  0  0  0  0  0  0  0
   22.3968  -19.6305  -13.4705 N   0  0  0  0  0  0  0  0  0  0  0  0
   20.1864  -20.4825  -13.7241 C   0  0  0  0  0  0  0  0  0  0  0  0
   20.6320  -21.3911  -14.4768 O   0  0  0  0  0  0  0  0  0  0  0  0
   18.8861  -20.6161  -13.2756 O   0  0  0  0  0  0  0  0  0  0  0  0
  2  1  1  6
  2 13  1  0
  3  2  1  0
  4  3  1  0
  4 12  1  0
  5  6  1  0
  5  4  2  0
  6  7  1  0
  7  8  1  0
  7 12  2  0
  8  9  2  0
  9 10  1  0
 11 10  2  0
 12 11  1  0
 13 14  2  0
 16 15  1  0
 17 16  1  0
 17 19  1  0
 17 18  1  1
 19 21  1  0
 19 20  1  1
 20 13  1  0
 21 22  2  0
 23 24  1  0
 25 24  1  6
 25 27  1  0
 26 21  1  0
 26 25  1  0
 27 28  2  0
 27 29  1  0
M  END
$$$$
