WIS.pdb
     RDKit          3D

 29 30  0  0  1  0  0  0  0  0999 V2000
   28.0867  -21.9265  -14.3928 N   0  0  0  0  0  0  0  0  0  0  0  0
   26.9716  -21.8393  -13.4733 C   0  0  1  0  0  0  0  0  0  0  0  0
   27.0859  -20.5231  -12.7083 C   0  0  0  0  0  0  0  0  0  0  0  0
   28.0026  -20.6337  -11.5538 C   0  0  0  0  0  0  0  0  0  0  0  0
   29.3615  -20.8074  -11.5650 C   0  0  0  0  0  0  0  0  0  0  0  0
   29.7726  -20.8531  -10.2849 N   0  0  0  0  0  0  0  0  0  0  0  0
   28.7045  -20.7121   -9.4519 C   0  0  0  0  0  0  0  0  0  0  0  0
   28.6100  -20.6922   -8.0680 C   0  0  0  0  0  0  0  0  0  0  0  0
   27.3731  -20.5305   -7.4639 C   0  0  0  0  0  0  0  0  0  0  0  0
   26.2673  -20.3936   -8.2800 C   0  0  0  0  0  0  0  0  0  0  0  0
   26.3368  -20.4102   -9.6437 C   0  0  0  0  0  0  0  0  0  0  0  0
   27.5968  -20.5748  -10.2381 C   0  0  0  0  0  0  0  0  0  0  0  0
   25.7208  -21.8303  -14.2547 C   0  0  0  0  0  0  0  0  0  0  0  0
   25.7224  -21.3034  -15.3963 O   0  0  0  0  0  0  0  0  0  0  0  0
   22.1012  -24.1260  -17.2293 C   0  0  0  0  0  0  0  0  0  0  0  0
   21.6917  -24.0499  -15.7391 C   0  0  0  0  0  0  0  0  0  0  0  0
   22.9514  -23.8440  -14.9502 C   0  0  2  0  0  0  0  0  0  0  0  0
   22.8304  -24.7094  -13.7118 C   0  0  0  0  0  0  0  0  0  0  0  0
   23.2755  -22.4131  -14.6088 C   0  0  2  0  0  0  0  0  0  0  0  0
   24.5031  -22.3897  -13.7829 N   0  0  0  0  0  0  0  0  0  0  0  0
   22.1983  -21.6762  -13.9259 C   0  0  0  0  0  0  0  0  0  0  0  0
   22.1870  -21.5577  -12.6439 O   0  0  0  0  0  0  0  0  0  0  0  0
   19.4431  -18.0702  -13.2317 O   0  0  0  0  0  0  0  0  0  0  0  0
   20.4584  -18.7489  -13.9123 C   0  0  0  0  0  0  0  0  0  0  0  0
   20.1361  -20.2255  -13.8302 C   0  0  2  0  0  0  0  0  0  0  0  0
   21.0991  -21.0317  -14.5487 N   0  0  0  0  0  0  0  0  0  0  0  0
   18.7873  -20.5118  -14.3001 C   0  0  0  0  0  0  0  0  0  0  0  0
   17.7618  -20.2401  -13.6182 O   0  0  0  0  0  0  0  0  0  0  0  0
   18.5867  -21.1019  -15.5335 O   0  0  0  0  0  0  0  0  0  0  0  0
  2  1  1  6
  2 13  1  0
  3  2  1  0
  4  3  1  0
  4 12  1  0
  5  6  1  0
  5  4  2  0
  6  7  1  0
  7  8  1  0
  7 12  2  0
  8  9  2  0
  9 10  1  0
 11 10  2  0
 12 11  1  0
 13 14  2  0
 16 15  1  0
 17 16  1  0
 17 19  1  0
 17 18  1  1
 19 21  1  0
 19 20  1  1
 20 13  1  0
 21 22  2  0
 23 24  1  0
 25 24  1  6
 25 27  1  0
 26 21  1  0
 26 25  1  0
 27 28  2  0
 27 29  1  0
M  END
$$$$
