WIS.pdb
     RDKit          3D

 29 30  0  0  1  0  0  0  0  0999 V2000
   25.8424  -18.1604  -17.5479 N   0  0  0  0  0  0  0  0  0  0  0  0
   25.8385  -17.9114  -16.1215 C   0  0  1  0  0  0  0  0  0  0  0  0
   24.5693  -17.1364  -15.7760 C   0  0  0  0  0  0  0  0  0  0  0  0
   24.5796  -15.7754  -16.3531 C   0  0  0  0  0  0  0  0  0  0  0  0
   23.6436  -15.1936  -17.1668 C   0  0  0  0  0  0  0  0  0  0  0  0
   24.0692  -13.9479  -17.4444 N   0  0  0  0  0  0  0  0  0  0  0  0
   25.2601  -13.7185  -16.8250 C   0  0  0  0  0  0  0  0  0  0  0  0
   26.0889  -12.6062  -16.8019 C   0  0  0  0  0  0  0  0  0  0  0  0
   27.2687  -12.6408  -16.0754 C   0  0  0  0  0  0  0  0  0  0  0  0
   27.5747  -13.8020  -15.3931 C   0  0  0  0  0  0  0  0  0  0  0  0
   26.7741  -14.9083  -15.4017 C   0  0  0  0  0  0  0  0  0  0  0  0
   25.5839  -14.8556  -16.1423 C   0  0  0  0  0  0  0  0  0  0  0  0
   25.8115  -19.2086  -15.4204 C   0  0  0  0  0  0  0  0  0  0  0  0
   25.2690  -20.1923  -15.9852 O   0  0  0  0  0  0  0  0  0  0  0  0
   28.3667  -21.9408  -10.4961 C   0  0  0  0  0  0  0  0  0  0  0  0
   27.1536  -21.9993  -11.4548 C   0  0  0  0  0  0  0  0  0  0  0  0
   27.1815  -20.7409  -12.2715 C   0  0  2  0  0  0  0  0  0  0  0  0
   27.0833  -19.5889  -11.2915 C   0  0  0  0  0  0  0  0  0  0  0  0
   26.1402  -20.6490  -13.3560 C   0  0  2  0  0  0  0  0  0  0  0  0
   26.3702  -19.4088  -14.1296 N   0  0  0  0  0  0  0  0  0  0  0  0
   24.7450  -20.6943  -12.8855 C   0  0  0  0  0  0  0  0  0  0  0  0
   24.1696  -19.6416  -12.4182 O   0  0  0  0  0  0  0  0  0  0  0  0
   21.6929  -22.9917  -14.2517 O   0  0  0  0  0  0  0  0  0  0  0  0
   21.7540  -23.0288  -12.8555 C   0  0  0  0  0  0  0  0  0  0  0  0
   22.5300  -21.8067  -12.4136 C   0  0  2  0  0  0  0  0  0  0  0  0
   23.8965  -21.8307  -12.8886 N   0  0  0  0  0  0  0  0  0  0  0  0
   22.5014  -21.6417  -10.9666 C   0  0  0  0  0  0  0  0  0  0  0  0
   23.4248  -22.0654  -10.2193 O   0  0  0  0  0  0  0  0  0  0  0  0
   21.4393  -21.0020  -10.3562 O   0  0  0  0  0  0  0  0  0  0  0  0
  2  1  1  6
  2 13  1  0
  3  2  1  0
  4  3  1  0
  4 12  1  0
  5  6  1  0
  5  4  2  0
  6  7  1  0
  7  8  1  0
  7 12  2  0
  8  9  2  0
  9 10  1  0
 11 10  2  0
 12 11  1  0
 13 14  2  0
 16 15  1  0
 17 16  1  0
 17 19  1  0
 17 18  1  1
 19 21  1  0
 19 20  1  1
 20 13  1  0
 21 22  2  0
 23 24  1  0
 25 24  1  1
 25 27  1  0
 26 21  1  0
 26 25  1  0
 27 28  2  0
 27 29  1  0
M  END
$$$$
