AWA.pdb
     RDKit          3D

 25 26  0  0  1  0  0  0  0  0999 V2000
   27.0851  -22.0844  -18.2792 C   0  0  0  0  0  0  0  0  0  0  0  0
   28.0788  -21.8878  -17.1388 C   0  0  2  0  0  0  0  0  0  0  0  0
   29.1488  -22.8904  -17.2564 N   0  0  0  0  0  0  0  0  0  0  0  0
   27.3725  -22.0515  -15.8574 C   0  0  0  0  0  0  0  0  0  0  0  0
   27.0263  -23.1992  -15.4849 O   0  0  0  0  0  0  0  0  0  0  0  0
   27.0875  -20.9283  -15.0521 N   0  0  0  0  0  0  0  0  0  0  0  0
   26.4748  -21.0471  -13.7491 C   0  0  1  0  0  0  0  0  0  0  0  0
   27.1376  -19.9824  -12.8894 C   0  0  0  0  0  0  0  0  0  0  0  0
   27.8424  -20.5339  -11.7300 C   0  0  0  0  0  0  0  0  0  0  0  0
   29.0901  -21.1149  -11.7194 C   0  0  0  0  0  0  0  0  0  0  0  0
   29.3938  -21.5012  -10.4466 N   0  0  0  0  0  0  0  0  0  0  0  0
   28.3613  -21.1804   -9.6249 C   0  0  0  0  0  0  0  0  0  0  0  0
   28.1645  -21.3510   -8.2708 C   0  0  0  0  0  0  0  0  0  0  0  0
   26.9956  -20.9276   -7.6580 C   0  0  0  0  0  0  0  0  0  0  0  0
   26.0367  -20.3297   -8.4505 C   0  0  0  0  0  0  0  0  0  0  0  0
   26.2345  -20.1595   -9.8050 C   0  0  0  0  0  0  0  0  0  0  0  0
   27.3936  -20.5765  -10.4278 C   0  0  0  0  0  0  0  0  0  0  0  0
   25.0315  -20.8392  -13.8799 C   0  0  0  0  0  0  0  0  0  0  0  0
   24.6276  -19.8432  -14.5248 O   0  0  0  0  0  0  0  0  0  0  0  0
   21.9431  -22.7695  -13.2889 C   0  0  0  0  0  0  0  0  0  0  0  0
   22.6737  -21.4406  -13.4947 C   0  0  2  0  0  0  0  0  0  0  0  0
   24.0726  -21.7088  -13.3147 N   0  0  0  0  0  0  0  0  0  0  0  0
   22.2079  -20.4567  -12.4727 C   0  0  0  0  0  0  0  0  0  0  0  0
   20.9804  -19.8221  -12.5901 O   0  0  0  0  0  0  0  0  0  0  0  0
   22.8999  -20.1547  -11.4593 O   0  0  0  0  0  0  0  0  0  0  0  0
  2  1  1  6
  2  4  1  0
  3  2  1  0
  4  5  2  0
  6  4  1  0
  7  6  1  0
  7 18  1  0
  7  8  1  1
  9  8  1  0
  9 17  1  0
 10 11  1  0
 10  9  2  0
 11 12  1  0
 12 17  2  0
 12 13  1  0
 13 14  2  0
 14 15  1  0
 16 15  2  0
 17 16  1  0
 18 22  1  0
 19 18  2  0
 21 20  1  1
 21 23  1  0
 22 21  1  0
 23 25  2  0
 23 24  1  0
M  END
$$$$
