AWA.pdb
     RDKit          3D

 25 26  0  0  1  0  0  0  0  0999 V2000
   27.9520  -19.4687  -15.2461 C   0  0  0  0  0  0  0  0  0  0  0  0
   28.5474  -20.7021  -14.5746 C   0  0  2  0  0  0  0  0  0  0  0  0
   28.6165  -21.7963  -15.5555 N   0  0  0  0  0  0  0  0  0  0  0  0
   27.6878  -21.0913  -13.4444 C   0  0  0  0  0  0  0  0  0  0  0  0
   26.6931  -21.8288  -13.6499 O   0  0  0  0  0  0  0  0  0  0  0  0
   27.9795  -20.6410  -12.1392 N   0  0  0  0  0  0  0  0  0  0  0  0
   27.1688  -21.0003  -10.9986 C   0  0  1  0  0  0  0  0  0  0  0  0
   27.9703  -20.5730   -9.7791 C   0  0  0  0  0  0  0  0  0  0  0  0
   27.2056  -20.6460   -8.5321 C   0  0  0  0  0  0  0  0  0  0  0  0
   25.9144  -21.0974   -8.3783 C   0  0  0  0  0  0  0  0  0  0  0  0
   25.5619  -21.0077   -7.0634 N   0  0  0  0  0  0  0  0  0  0  0  0
   26.6056  -20.5038   -6.3554 C   0  0  0  0  0  0  0  0  0  0  0  0
   26.7678  -20.2189   -5.0160 C   0  0  0  0  0  0  0  0  0  0  0  0
   27.9581  -19.6976   -4.5337 C   0  0  0  0  0  0  0  0  0  0  0  0
   28.9740  -19.4741   -5.4408 C   0  0  0  0  0  0  0  0  0  0  0  0
   28.8108  -19.7594   -6.7805 C   0  0  0  0  0  0  0  0  0  0  0  0
   27.6309  -20.2786   -7.2739 C   0  0  0  0  0  0  0  0  0  0  0  0
   25.8822  -20.3077  -11.0907 C   0  0  0  0  0  0  0  0  0  0  0  0
   25.8813  -19.0564  -11.1637 O   0  0  0  0  0  0  0  0  0  0  0  0
   23.0262  -20.8125  -12.8407 C   0  0  0  0  0  0  0  0  0  0  0  0
   23.4484  -20.2752  -11.4713 C   0  0  2  0  0  0  0  0  0  0  0  0
   24.6417  -20.9831  -11.1024 N   0  0  0  0  0  0  0  0  0  0  0  0
   22.3669  -20.5475  -10.4784 C   0  0  0  0  0  0  0  0  0  0  0  0
   21.2230  -19.7652  -10.4259 O   0  0  0  0  0  0  0  0  0  0  0  0
   22.4369  -21.4941   -9.6440 O   0  0  0  0  0  0  0  0  0  0  0  0
  2  1  1  6
  2  4  1  0
  3  2  1  0
  4  5  2  0
  6  4  1  0
  7  6  1  0
  7 18  1  0
  7  8  1  1
  9  8  1  0
  9 17  1  0
 10 11  1  0
 10  9  2  0
 11 12  1  0
 12 17  2  0
 12 13  1  0
 13 14  2  0
 14 15  1  0
 16 15  2  0
 17 16  1  0
 18 22  1  0
 19 18  2  0
 21 20  1  6
 21 23  1  0
 22 21  1  0
 23 25  2  0
 23 24  1  0
M  END
$$$$
