AWA.pdb
     RDKit          3D

 25 26  0  0  1  0  0  0  0  0999 V2000
   27.4749  -21.4277  -17.1923 C   0  0  0  0  0  0  0  0  0  0  0  0
   28.2374  -21.7177  -15.9035 C   0  0  2  0  0  0  0  0  0  0  0  0
   29.0513  -22.9290  -16.0896 N   0  0  0  0  0  0  0  0  0  0  0  0
   27.2698  -21.9227  -14.8129 C   0  0  0  0  0  0  0  0  0  0  0  0
   26.7617  -23.0579  -14.6429 O   0  0  0  0  0  0  0  0  0  0  0  0
   26.9164  -20.8529  -13.9633 N   0  0  0  0  0  0  0  0  0  0  0  0
   26.0301  -21.0224  -12.8350 C   0  0  1  0  0  0  0  0  0  0  0  0
   26.4865  -20.0036  -11.8026 C   0  0  0  0  0  0  0  0  0  0  0  0
   27.5499  -20.5048  -10.9291 C   0  0  0  0  0  0  0  0  0  0  0  0
   28.7089  -21.1386  -11.3161 C   0  0  0  0  0  0  0  0  0  0  0  0
   29.4412  -21.4495  -10.2077 N   0  0  0  0  0  0  0  0  0  0  0  0
   28.7765  -21.0273   -9.1013 C   0  0  0  0  0  0  0  0  0  0  0  0
   29.0743  -21.0954   -7.7566 C   0  0  0  0  0  0  0  0  0  0  0  0
   28.2092  -20.5792   -6.8044 C   0  0  0  0  0  0  0  0  0  0  0  0
   27.0406  -19.9953   -7.2498 C   0  0  0  0  0  0  0  0  0  0  0  0
   26.7436  -19.9277   -8.5951 C   0  0  0  0  0  0  0  0  0  0  0  0
   27.5960  -20.4377   -9.5535 C   0  0  0  0  0  0  0  0  0  0  0  0
   24.6518  -20.7936  -13.2725 C   0  0  0  0  0  0  0  0  0  0  0  0
   24.3971  -19.7541  -13.9250 O   0  0  0  0  0  0  0  0  0  0  0  0
   21.4952  -22.7175  -13.4333 C   0  0  0  0  0  0  0  0  0  0  0  0
   22.2719  -21.3993  -13.4693 C   0  0  2  0  0  0  0  0  0  0  0  0
   23.5957  -21.6896  -12.9952 N   0  0  0  0  0  0  0  0  0  0  0  0
   21.6119  -20.4116  -12.5647 C   0  0  0  0  0  0  0  0  0  0  0  0
   20.5140  -19.6739  -12.9816 O   0  0  0  0  0  0  0  0  0  0  0  0
   22.0147  -20.1989  -11.3859 O   0  0  0  0  0  0  0  0  0  0  0  0
  2  1  1  6
  2  4  1  0
  3  2  1  0
  4  5  2  0
  6  4  1  0
  7  6  1  0
  7 18  1  0
  7  8  1  1
  9  8  1  0
  9 17  1  0
 10 11  1  0
 10  9  2  0
 11 12  1  0
 12 17  2  0
 12 13  1  0
 13 14  2  0
 14 15  1  0
 16 15  2  0
 17 16  1  0
 18 22  1  0
 19 18  2  0
 21 20  1  1
 21 23  1  0
 22 21  1  0
 23 25  2  0
 23 24  1  0
M  END
$$$$
