AWA.pdb
     RDKit          3D

 25 26  0  0  1  0  0  0  0  0999 V2000
   27.6597  -19.6551  -15.2468 C   0  0  0  0  0  0  0  0  0  0  0  0
   28.2563  -20.8631  -14.5316 C   0  0  2  0  0  0  0  0  0  0  0  0
   28.2601  -22.0115  -15.4512 N   0  0  0  0  0  0  0  0  0  0  0  0
   27.4374  -21.1682  -13.3468 C   0  0  0  0  0  0  0  0  0  0  0  0
   26.4017  -21.8659  -13.4744 O   0  0  0  0  0  0  0  0  0  0  0  0
   27.8132  -20.6822  -12.0764 N   0  0  0  0  0  0  0  0  0  0  0  0
   27.0466  -20.9620  -10.8842 C   0  0  1  0  0  0  0  0  0  0  0  0
   27.9425  -20.5641   -9.7218 C   0  0  0  0  0  0  0  0  0  0  0  0
   27.2920  -20.7068   -8.4174 C   0  0  0  0  0  0  0  0  0  0  0  0
   26.0675  -21.2813   -8.1617 C   0  0  0  0  0  0  0  0  0  0  0  0
   25.8155  -21.2216   -6.8222 N   0  0  0  0  0  0  0  0  0  0  0  0
   26.8589  -20.6158   -6.1987 C   0  0  0  0  0  0  0  0  0  0  0  0
   27.1003  -20.3117   -4.8756 C   0  0  0  0  0  0  0  0  0  0  0  0
   28.2693  -19.6751   -4.4888 C   0  0  0  0  0  0  0  0  0  0  0  0
   29.1819  -19.3569   -5.4742 C   0  0  0  0  0  0  0  0  0  0  0  0
   28.9394  -19.6616   -6.7975 C   0  0  0  0  0  0  0  0  0  0  0  0
   27.7797  -20.2951   -7.1961 C   0  0  0  0  0  0  0  0  0  0  0  0
   25.8054  -20.1864  -10.9222 C   0  0  0  0  0  0  0  0  0  0  0  0
   25.8782  -18.9529  -11.1326 O   0  0  0  0  0  0  0  0  0  0  0  0
   23.3219  -20.2426  -12.7172 C   0  0  0  0  0  0  0  0  0  0  0  0
   23.3599  -20.0706  -11.1969 C   0  0  2  0  0  0  0  0  0  0  0  0
   24.5297  -20.7628  -10.7344 N   0  0  0  0  0  0  0  0  0  0  0  0
   22.1361  -20.6826  -10.5993 C   0  0  0  0  0  0  0  0  0  0  0  0
   20.9303  -19.9983  -10.5670 O   0  0  0  0  0  0  0  0  0  0  0  0
   22.1354  -21.8426  -10.0977 O   0  0  0  0  0  0  0  0  0  0  0  0
  2  1  1  6
  2  4  1  0
  3  2  1  0
  4  5  2  0
  6  4  1  0
  7  6  1  0
  7 18  1  0
  7  8  1  1
  9  8  1  0
  9 17  1  0
 10 11  1  0
 10  9  2  0
 11 12  1  0
 12 17  2  0
 12 13  1  0
 13 14  2  0
 14 15  1  0
 16 15  2  0
 17 16  1  0
 18 22  1  0
 19 18  2  0
 21 20  1  6
 21 23  1  0
 22 21  1  0
 23 25  2  0
 23 24  1  0
M  END
$$$$
