AWA.pdb
     RDKit          3D

 25 26  0  0  1  0  0  0  0  0999 V2000
   27.4269  -19.8477  -15.6961 C   0  0  0  0  0  0  0  0  0  0  0  0
   28.0983  -20.6800  -14.6084 C   0  0  2  0  0  0  0  0  0  0  0  0
   28.8260  -21.7934  -15.2367 N   0  0  0  0  0  0  0  0  0  0  0  0
   27.0634  -21.2020  -13.7005 C   0  0  0  0  0  0  0  0  0  0  0  0
   26.4950  -22.2880  -13.9709 O   0  0  0  0  0  0  0  0  0  0  0  0
   26.7133  -20.4892  -12.5340 N   0  0  0  0  0  0  0  0  0  0  0  0
   25.7146  -20.9680  -11.6064 C   0  0  1  0  0  0  0  0  0  0  0  0
   25.9908  -20.2404  -10.3001 C   0  0  0  0  0  0  0  0  0  0  0  0
   27.2353  -20.6655   -9.6554 C   0  0  0  0  0  0  0  0  0  0  0  0
   28.1999  -21.4934  -10.1833 C   0  0  0  0  0  0  0  0  0  0  0  0
   29.2052  -21.6470   -9.2738 N   0  0  0  0  0  0  0  0  0  0  0  0
   28.9107  -20.9306   -8.1583 C   0  0  0  0  0  0  0  0  0  0  0  0
   29.5809  -20.7498   -6.9669 C   0  0  0  0  0  0  0  0  0  0  0  0
   29.0549  -19.9516   -5.9632 C   0  0  0  0  0  0  0  0  0  0  0  0
   27.8378  -19.3449   -6.1986 C   0  0  0  0  0  0  0  0  0  0  0  0
   27.1681  -19.5263   -7.3907 C   0  0  0  0  0  0  0  0  0  0  0  0
   27.6805  -20.3184   -8.3983 C   0  0  0  0  0  0  0  0  0  0  0  0
   24.3848  -20.6690  -12.1407 C   0  0  0  0  0  0  0  0  0  0  0  0
   24.1297  -19.4903  -12.4826 O   0  0  0  0  0  0  0  0  0  0  0  0
   21.6837  -22.4935  -13.7323 C   0  0  0  0  0  0  0  0  0  0  0  0
   22.1233  -21.2903  -12.8949 C   0  0  2  0  0  0  0  0  0  0  0  0
   23.3760  -21.6461  -12.2905 N   0  0  0  0  0  0  0  0  0  0  0  0
   21.1038  -21.0254  -11.8366 C   0  0  0  0  0  0  0  0  0  0  0  0
   19.8625  -20.4916  -12.1490 O   0  0  0  0  0  0  0  0  0  0  0  0
   21.3166  -21.2712  -10.6154 O   0  0  0  0  0  0  0  0  0  0  0  0
  2  1  1  6
  2  4  1  0
  3  2  1  0
  4  5  2  0
  6  4  1  0
  7  6  1  0
  7 18  1  0
  7  8  1  1
  9  8  1  0
  9 17  1  0
 10 11  1  0
 10  9  2  0
 11 12  1  0
 12 17  2  0
 12 13  1  0
 13 14  2  0
 14 15  1  0
 16 15  2  0
 17 16  1  0
 18 22  1  0
 19 18  2  0
 21 20  1  6
 21 23  1  0
 22 21  1  0
 23 25  2  0
 23 24  1  0
M  END
$$$$
