AWA.pdb
     RDKit          3D

 25 26  0  0  1  0  0  0  0  0999 V2000
   21.4892  -12.5416  -18.3807 C   0  0  0  0  0  0  0  0  0  0  0  0
   20.6938  -11.2647  -18.1286 C   0  0  2  0  0  0  0  0  0  0  0  0
   20.4334  -10.5998  -19.4148 N   0  0  0  0  0  0  0  0  0  0  0  0
   21.4787  -10.3792  -17.2526 C   0  0  0  0  0  0  0  0  0  0  0  0
   21.7473  -10.7470  -16.0829 O   0  0  0  0  0  0  0  0  0  0  0  0
   21.9280   -9.1270  -17.7232 N   0  0  0  0  0  0  0  0  0  0  0  0
   22.7908   -8.2718  -16.9412 C   0  0  1  0  0  0  0  0  0  0  0  0
   23.9340   -7.8903  -17.8684 C   0  0  0  0  0  0  0  0  0  0  0  0
   24.9407   -8.9451  -18.0066 C   0  0  0  0  0  0  0  0  0  0  0  0
   25.3779   -9.5237  -19.1765 C   0  0  0  0  0  0  0  0  0  0  0  0
   26.3215  -10.4652  -18.8855 N   0  0  0  0  0  0  0  0  0  0  0  0
   26.5071  -10.5097  -17.5409 C   0  0  0  0  0  0  0  0  0  0  0  0
   27.3313  -11.2739  -16.7420 C   0  0  0  0  0  0  0  0  0  0  0  0
   27.3318  -11.1251  -15.3639 C   0  0  0  0  0  0  0  0  0  0  0  0
   26.4789  -10.1859  -14.8205 C   0  0  0  0  0  0  0  0  0  0  0  0
   25.6547   -9.4220  -15.6204 C   0  0  0  0  0  0  0  0  0  0  0  0
   25.6443   -9.5600  -16.9938 C   0  0  0  0  0  0  0  0  0  0  0  0
   22.0266   -7.1074  -16.4901 C   0  0  0  0  0  0  0  0  0  0  0  0
   21.4564   -6.3971  -17.3513 O   0  0  0  0  0  0  0  0  0  0  0  0
   20.3082   -5.9291  -13.5630 C   0  0  0  0  0  0  0  0  0  0  0  0
   21.1729   -5.5626  -14.7714 C   0  0  2  0  0  0  0  0  0  0  0  0
   21.9004   -6.7472  -15.1302 N   0  0  0  0  0  0  0  0  0  0  0  0
   22.1239   -4.4772  -14.3879 C   0  0  0  0  0  0  0  0  0  0  0  0
   21.7313   -3.1472  -14.3723 O   0  0  0  0  0  0  0  0  0  0  0  0
   23.3221   -4.7113  -14.0615 O   0  0  0  0  0  0  0  0  0  0  0  0
  2  1  1  6
  2  4  1  0
  3  2  1  0
  4  5  2  0
  6  4  1  0
  7  6  1  0
  7 18  1  0
  7  8  1  6
  9  8  1  0
  9 17  1  0
 10 11  1  0
 10  9  2  0
 11 12  1  0
 12 17  2  0
 12 13  1  0
 13 14  2  0
 14 15  1  0
 16 15  2  0
 17 16  1  0
 18 22  1  0
 19 18  2  0
 21 20  1  1
 21 23  1  0
 22 21  1  0
 23 25  2  0
 23 24  1  0
M  END
$$$$
