AWA.pdb
     RDKit          3D

 25 26  0  0  1  0  0  0  0  0999 V2000
   35.0493  -36.0051  -17.6129 C   0  0  0  0  0  0  0  0  0  0  0  0
   33.6233  -36.1617  -17.0948 C   0  0  2  0  0  0  0  0  0  0  0  0
   33.0939  -37.4627  -17.5323 N   0  0  0  0  0  0  0  0  0  0  0  0
   32.7961  -35.0718  -17.6383 C   0  0  0  0  0  0  0  0  0  0  0  0
   32.2972  -35.1872  -18.7844 O   0  0  0  0  0  0  0  0  0  0  0  0
   32.5635  -33.9062  -16.8775 N   0  0  0  0  0  0  0  0  0  0  0  0
   31.6618  -32.8654  -17.3145 C   0  0  1  0  0  0  0  0  0  0  0  0
   30.7629  -32.5790  -16.1221 C   0  0  0  0  0  0  0  0  0  0  0  0
   29.5449  -31.8488  -16.4805 C   0  0  0  0  0  0  0  0  0  0  0  0
   29.3940  -30.9446  -17.5073 C   0  0  0  0  0  0  0  0  0  0  0  0
   28.1098  -30.4839  -17.5136 N   0  0  0  0  0  0  0  0  0  0  0  0
   27.4191  -31.0749  -16.5046 C   0  0  0  0  0  0  0  0  0  0  0  0
   26.1115  -30.9598  -16.0824 C   0  0  0  0  0  0  0  0  0  0  0  0
   25.6413  -31.6881  -15.0008 C   0  0  0  0  0  0  0  0  0  0  0  0
   26.5277  -32.5317  -14.3623 C   0  0  0  0  0  0  0  0  0  0  0  0
   27.8356  -32.6462  -14.7854 C   0  0  0  0  0  0  0  0  0  0  0  0
   28.3166  -31.9268  -15.8607 C   0  0  0  0  0  0  0  0  0  0  0  0
   32.4437  -31.6949  -17.7170 C   0  0  0  0  0  0  0  0  0  0  0  0
   33.2756  -31.2246  -16.9058 O   0  0  0  0  0  0  0  0  0  0  0  0
   34.0386  -30.4562  -20.4869 C   0  0  0  0  0  0  0  0  0  0  0  0
   33.1641  -29.9748  -19.3268 C   0  0  2  0  0  0  0  0  0  0  0  0
   32.3060  -31.0713  -18.9768 N   0  0  0  0  0  0  0  0  0  0  0  0
   32.3451  -28.8097  -19.7754 C   0  0  0  0  0  0  0  0  0  0  0  0
   32.7622  -27.5063  -19.5508 O   0  0  0  0  0  0  0  0  0  0  0  0
   31.2420  -28.9491  -20.3760 O   0  0  0  0  0  0  0  0  0  0  0  0
  2  1  1  6
  2  4  1  0
  3  2  1  0
  4  5  2  0
  6  4  1  0
  7  6  1  0
  7 18  1  0
  7  8  1  1
  9  8  1  0
  9 17  1  0
 10 11  1  0
 10  9  2  0
 11 12  1  0
 12 17  2  0
 12 13  1  0
 13 14  2  0
 14 15  1  0
 16 15  2  0
 17 16  1  0
 18 22  1  0
 19 18  2  0
 21 20  1  6
 21 23  1  0
 22 21  1  0
 23 25  2  0
 23 24  1  0
M  END
$$$$
