AWA.pdb
     RDKit          3D

 25 26  0  0  1  0  0  0  0  0999 V2000
   25.3246  -20.6002  -19.2379 C   0  0  0  0  0  0  0  0  0  0  0  0
   26.3370  -20.0804  -18.2223 C   0  0  2  0  0  0  0  0  0  0  0  0
   27.6820  -20.5318  -18.6114 N   0  0  0  0  0  0  0  0  0  0  0  0
   25.9925  -20.6092  -16.8921 C   0  0  0  0  0  0  0  0  0  0  0  0
   26.4323  -21.7310  -16.5402 O   0  0  0  0  0  0  0  0  0  0  0  0
   25.1756  -19.8614  -16.0176 N   0  0  0  0  0  0  0  0  0  0  0  0
   24.9218  -20.2726  -14.6561 C   0  0  1  0  0  0  0  0  0  0  0  0
   25.5156  -19.1783  -13.7833 C   0  0  0  0  0  0  0  0  0  0  0  0
   26.9559  -19.3319  -13.5663 C   0  0  0  0  0  0  0  0  0  0  0  0
   27.9688  -18.7276  -14.2760 C   0  0  0  0  0  0  0  0  0  0  0  0
   29.1709  -19.1248  -13.7676 N   0  0  0  0  0  0  0  0  0  0  0  0
   28.9575  -19.9807  -12.7350 C   0  0  0  0  0  0  0  0  0  0  0  0
   29.8182  -20.6575  -11.8968 C   0  0  0  0  0  0  0  0  0  0  0  0
   29.3381  -21.4910  -10.8986 C   0  0  0  0  0  0  0  0  0  0  0  0
   27.9696  -21.6191  -10.7738 C   0  0  0  0  0  0  0  0  0  0  0  0
   27.1094  -20.9416  -11.6128 C   0  0  0  0  0  0  0  0  0  0  0  0
   27.5741  -20.1088  -12.6107 C   0  0  0  0  0  0  0  0  0  0  0  0
   23.4778  -20.4177  -14.4629 C   0  0  0  0  0  0  0  0  0  0  0  0
   22.7284  -19.4858  -14.8386 O   0  0  0  0  0  0  0  0  0  0  0  0
   21.1162  -23.0873  -13.4486 C   0  0  0  0  0  0  0  0  0  0  0  0
   21.4645  -21.6196  -13.7072 C   0  0  2  0  0  0  0  0  0  0  0  0
   22.8891  -21.5588  -13.8744 N   0  0  0  0  0  0  0  0  0  0  0  0
   21.0542  -20.7990  -12.5292 C   0  0  0  0  0  0  0  0  0  0  0  0
   19.7289  -20.4464  -12.3229 O   0  0  0  0  0  0  0  0  0  0  0  0
   21.8836  -20.3880  -11.6688 O   0  0  0  0  0  0  0  0  0  0  0  0
  2  1  1  6
  2  4  1  0
  3  2  1  0
  4  5  2  0
  6  4  1  0
  7  6  1  0
  7 18  1  0
  7  8  1  1
  9  8  1  0
  9 17  1  0
 10 11  1  0
 10  9  2  0
 11 12  1  0
 12 17  2  0
 12 13  1  0
 13 14  2  0
 14 15  1  0
 16 15  2  0
 17 16  1  0
 18 22  1  0
 19 18  2  0
 21 20  1  1
 21 23  1  0
 22 21  1  0
 23 25  2  0
 23 24  1  0
M  END
$$$$
