AWA.pdb
     RDKit          3D

 25 26  0  0  1  0  0  0  0  0999 V2000
   27.7057  -19.8191  -15.3397 C   0  0  0  0  0  0  0  0  0  0  0  0
   28.3220  -20.9620  -14.5393 C   0  0  2  0  0  0  0  0  0  0  0  0
   28.4194  -22.1519  -15.3988 N   0  0  0  0  0  0  0  0  0  0  0  0
   27.4636  -21.2476  -13.3777 C   0  0  0  0  0  0  0  0  0  0  0  0
   26.4476  -21.9702  -13.5229 O   0  0  0  0  0  0  0  0  0  0  0  0
   27.7801  -20.7153  -12.1096 N   0  0  0  0  0  0  0  0  0  0  0  0
   26.9882  -20.9957  -10.9343 C   0  0  1  0  0  0  0  0  0  0  0  0
   27.8316  -20.5345   -9.7561 C   0  0  0  0  0  0  0  0  0  0  0  0
   27.1319  -20.6318   -8.4731 C   0  0  0  0  0  0  0  0  0  0  0  0
   25.8788  -21.1567   -8.2516 C   0  0  0  0  0  0  0  0  0  0  0  0
   25.5835  -21.0659   -6.9227 N   0  0  0  0  0  0  0  0  0  0  0  0
   26.6268  -20.4887   -6.2725 C   0  0  0  0  0  0  0  0  0  0  0  0
   26.8339  -20.1721   -4.9465 C   0  0  0  0  0  0  0  0  0  0  0  0
   28.0119  -19.5727   -4.5289 C   0  0  0  0  0  0  0  0  0  0  0  0
   28.9690  -19.3044   -5.4866 C   0  0  0  0  0  0  0  0  0  0  0  0
   28.7608  -19.6216   -6.8127 C   0  0  0  0  0  0  0  0  0  0  0  0
   27.5926  -20.2185   -7.2419 C   0  0  0  0  0  0  0  0  0  0  0  0
   25.7198  -20.2707  -11.0296 C   0  0  0  0  0  0  0  0  0  0  0  0
   25.7503  -19.0190  -11.0882 O   0  0  0  0  0  0  0  0  0  0  0  0
   22.8896  -20.3956  -12.7669 C   0  0  0  0  0  0  0  0  0  0  0  0
   23.2749  -20.1484  -11.3066 C   0  0  2  0  0  0  0  0  0  0  0  0
   24.4634  -20.9152  -11.0599 N   0  0  0  0  0  0  0  0  0  0  0  0
   22.1713  -20.6188  -10.4176 C   0  0  0  0  0  0  0  0  0  0  0  0
   20.9836  -19.9113  -10.3072 O   0  0  0  0  0  0  0  0  0  0  0  0
   22.2611  -21.6737   -9.7276 O   0  0  0  0  0  0  0  0  0  0  0  0
  2  1  1  6
  2  4  1  0
  3  2  1  0
  4  5  2  0
  6  4  1  0
  7  6  1  0
  7 18  1  0
  7  8  1  1
  9  8  1  0
  9 17  1  0
 10 11  1  0
 10  9  2  0
 11 12  1  0
 12 17  2  0
 12 13  1  0
 13 14  2  0
 14 15  1  0
 16 15  2  0
 17 16  1  0
 18 22  1  0
 19 18  2  0
 21 20  1  6
 21 23  1  0
 22 21  1  0
 23 25  2  0
 23 24  1  0
M  END
$$$$
