AWA.pdb
     RDKit          3D

 25 26  0  0  1  0  0  0  0  0999 V2000
   27.5717  -17.6710  -14.4283 C   0  0  0  0  0  0  0  0  0  0  0  0
   28.2743  -19.0222  -14.3439 C   0  0  2  0  0  0  0  0  0  0  0  0
   28.9667  -19.2833  -15.6153 N   0  0  0  0  0  0  0  0  0  0  0  0
   27.2685  -20.0678  -14.0931 C   0  0  0  0  0  0  0  0  0  0  0  0
   26.6932  -20.6173  -15.0639 O   0  0  0  0  0  0  0  0  0  0  0  0
   26.9536  -20.4515  -12.7721 N   0  0  0  0  0  0  0  0  0  0  0  0
   25.9973  -21.4935  -12.4772 C   0  0  1  0  0  0  0  0  0  0  0  0
   26.4103  -22.0540  -11.1255 C   0  0  0  0  0  0  0  0  0  0  0  0
   26.3389  -21.0668  -10.0458 C   0  0  0  0  0  0  0  0  0  0  0  0
   25.3401  -20.1437   -9.8333 C   0  0  0  0  0  0  0  0  0  0  0  0
   25.6393  -19.4072   -8.7245 N   0  0  0  0  0  0  0  0  0  0  0  0
   26.8203  -19.8364   -8.2094 C   0  0  0  0  0  0  0  0  0  0  0  0
   27.5567  -19.4347   -7.1149 C   0  0  0  0  0  0  0  0  0  0  0  0
   28.7584  -20.0477   -6.7962 C   0  0  0  0  0  0  0  0  0  0  0  0
   29.1909  -21.0733   -7.6123 C   0  0  0  0  0  0  0  0  0  0  0  0
   28.4535  -21.4744   -8.7068 C   0  0  0  0  0  0  0  0  0  0  0  0
   27.2556  -20.8726   -9.0355 C   0  0  0  0  0  0  0  0  0  0  0  0
   24.6529  -20.9142  -12.4533 C   0  0  0  0  0  0  0  0  0  0  0  0
   24.5102  -19.7546  -11.9993 O   0  0  0  0  0  0  0  0  0  0  0  0
   21.6986  -21.2585  -14.4242 C   0  0  0  0  0  0  0  0  0  0  0  0
   22.2620  -20.9003  -13.0471 C   0  0  2  0  0  0  0  0  0  0  0  0
   23.5092  -21.5999  -12.9189 N   0  0  0  0  0  0  0  0  0  0  0  0
   21.3110  -21.3561  -11.9900 C   0  0  0  0  0  0  0  0  0  0  0  0
   20.2330  -20.5736  -11.6042 O   0  0  0  0  0  0  0  0  0  0  0  0
   21.4377  -22.4658  -11.3987 O   0  0  0  0  0  0  0  0  0  0  0  0
  2  1  1  6
  2  4  1  0
  3  2  1  0
  4  5  2  0
  6  4  1  0
  7  6  1  0
  7 18  1  0
  7  8  1  1
  9  8  1  0
  9 17  1  0
 10 11  1  0
 10  9  2  0
 11 12  1  0
 12 17  2  0
 12 13  1  0
 13 14  2  0
 14 15  1  0
 16 15  2  0
 17 16  1  0
 18 22  1  0
 19 18  2  0
 21 20  1  6
 21 23  1  0
 22 21  1  0
 23 25  2  0
 23 24  1  0
M  END
$$$$
