EFM.pdb
     RDKit          3D

 29 29  0  0  1  0  0  0  0  0999 V2000
   11.1167  -16.0939   18.5007 N   0  0  0  0  0  0  0  0  0  0  0  0
   10.7823  -17.0550   19.5327 C   0  0  1  0  0  0  0  0  0  0  0  0
   11.8976  -17.9976   19.8321 C   0  0  0  0  0  0  0  0  0  0  0  0
   11.6335  -19.0056   20.8959 C   0  0  0  0  0  0  0  0  0  0  0  0
   12.7425  -19.9635   21.1051 C   0  0  0  0  0  0  0  0  0  0  0  0
   12.7440  -21.1178   20.5965 O   0  0  0  0  0  0  0  0  0  0  0  0
   10.4694  -16.3480   20.8281 C   0  0  0  0  0  0  0  0  0  0  0  0
   11.4048  -15.6325   21.2781 O   0  0  0  0  0  0  0  0  0  0  0  0
   13.8579  -19.6546   21.8766 O   0  0  0  0  0  0  0  0  0  0  0  0
    9.2190  -16.4856   21.4774 N   0  0  0  0  0  0  0  0  0  0  0  0
    8.9305  -15.6762   22.6329 C   0  0  1  0  0  0  0  0  0  0  0  0
    7.5406  -15.1358   22.6159 C   0  0  0  0  0  0  0  0  0  0  0  0
    7.1614  -14.3253   23.7872 C   0  0  0  0  0  0  0  0  0  0  0  0
    6.4328  -14.8744   24.8489 C   0  0  0  0  0  0  0  0  0  0  0  0
    6.0656  -14.1147   25.9414 C   0  0  0  0  0  0  0  0  0  0  0  0
    6.4098  -12.7715   26.0221 C   0  0  0  0  0  0  0  0  0  0  0  0
    7.1257  -12.2125   24.9890 C   0  0  0  0  0  0  0  0  0  0  0  0
    7.4832  -12.9902   23.9050 C   0  0  0  0  0  0  0  0  0  0  0  0
    9.3283  -16.3278   23.9097 C   0  0  0  0  0  0  0  0  0  0  0  0
    9.1382  -17.5631   24.0470 O   0  0  0  0  0  0  0  0  0  0  0  0
   10.9077  -12.7562   29.1077 C   0  0  0  0  0  0  0  0  0  0  0  0
   11.3253  -14.3728   29.7893 S   0  0  0  0  0  0  0  0  0  0  0  0
   10.8985  -15.6745   28.6216 C   0  0  0  0  0  0  0  0  0  0  0  0
   10.5743  -15.1975   27.2609 C   0  0  0  0  0  0  0  0  0  0  0  0
   10.2540  -16.2432   26.2703 C   0  0  2  0  0  0  0  0  0  0  0  0
    9.9097  -15.6152   24.9789 N   0  0  0  0  0  0  0  0  0  0  0  0
    9.2623  -17.2067   26.6759 C   0  0  0  0  0  0  0  0  0  0  0  0
    9.6883  -18.4584   27.1443 O   0  0  0  0  0  0  0  0  0  0  0  0
    8.0373  -17.0315   26.6503 O   0  0  0  0  0  0  0  0  0  0  0  0
  2  1  1  6
  2  3  1  0
  3  4  1  0
  5  4  1  0
  6  5  2  0
  7  2  1  0
  7  8  2  0
  9  5  1  0
 10  7  1  0
 11 10  1  0
 11 12  1  1
 12 13  1  0
 13 14  2  0
 13 18  1  0
 14 15  1  0
 15 16  2  0
 17 16  1  0
 18 17  2  0
 19 11  1  0
 20 19  2  0
 22 21  1  0
 22 23  1  0
 24 23  1  0
 25 24  1  1
 25 26  1  0
 26 19  1  0
 27 28  1  0
 27 25  1  0
 29 27  2  0
M  END
$$$$
