EFM.pdb
     RDKit          3D

 29 29  0  0  1  0  0  0  0  0999 V2000
    9.5831  -17.6645   19.1275 N   0  0  0  0  0  0  0  0  0  0  0  0
   10.2410  -18.0060   20.3730 C   0  0  1  0  0  0  0  0  0  0  0  0
   11.7161  -18.1628   20.2268 C   0  0  0  0  0  0  0  0  0  0  0  0
   12.1907  -18.6886   18.9169 C   0  0  0  0  0  0  0  0  0  0  0  0
   13.6577  -18.8702   18.8379 C   0  0  0  0  0  0  0  0  0  0  0  0
   14.1854  -19.9270   18.3957 O   0  0  0  0  0  0  0  0  0  0  0  0
   10.0326  -16.9151   21.3940 C   0  0  0  0  0  0  0  0  0  0  0  0
   11.0736  -16.2735   21.7007 O   0  0  0  0  0  0  0  0  0  0  0  0
   14.5530  -17.8868   19.2458 O   0  0  0  0  0  0  0  0  0  0  0  0
    8.7620  -16.6433   21.9559 N   0  0  0  0  0  0  0  0  0  0  0  0
    8.6441  -15.6415   22.9835 C   0  0  1  0  0  0  0  0  0  0  0  0
    7.2285  -15.4085   23.3906 C   0  0  0  0  0  0  0  0  0  0  0  0
    7.0226  -14.3399   24.3849 C   0  0  0  0  0  0  0  0  0  0  0  0
    6.4062  -14.5974   25.6150 C   0  0  0  0  0  0  0  0  0  0  0  0
    6.2009  -13.5962   26.5429 C   0  0  0  0  0  0  0  0  0  0  0  0
    6.6023  -12.2922   26.2833 C   0  0  0  0  0  0  0  0  0  0  0  0
    7.2100  -12.0180   25.0800 C   0  0  0  0  0  0  0  0  0  0  0  0
    7.4060  -13.0342   24.1653 C   0  0  0  0  0  0  0  0  0  0  0  0
    9.5880  -15.8571   24.1129 C   0  0  0  0  0  0  0  0  0  0  0  0
   10.5553  -15.0668   24.2564 O   0  0  0  0  0  0  0  0  0  0  0  0
   11.0833  -12.8016   28.2255 C   0  0  0  0  0  0  0  0  0  0  0  0
   10.6051  -14.1946   29.2662 S   0  0  0  0  0  0  0  0  0  0  0  0
   10.7800  -15.7413   28.3622 C   0  0  0  0  0  0  0  0  0  0  0  0
   10.0538  -15.7870   27.0759 C   0  0  0  0  0  0  0  0  0  0  0  0
   10.2348  -17.0138   26.2763 C   0  0  2  0  0  0  0  0  0  0  0  0
    9.4451  -16.9170   25.0323 N   0  0  0  0  0  0  0  0  0  0  0  0
    9.9898  -18.2537   26.9684 C   0  0  0  0  0  0  0  0  0  0  0  0
   10.9794  -18.7556   27.8266 O   0  0  0  0  0  0  0  0  0  0  0  0
    8.9620  -18.9373   26.8763 O   0  0  0  0  0  0  0  0  0  0  0  0
  2  1  1  6
  2  3  1  0
  3  4  1  0
  5  4  1  0
  6  5  2  0
  7  2  1  0
  7  8  2  0
  9  5  1  0
 10  7  1  0
 11 10  1  0
 11 12  1  1
 12 13  1  0
 13 14  2  0
 13 18  1  0
 14 15  1  0
 15 16  2  0
 17 16  1  0
 18 17  2  0
 19 11  1  0
 20 19  2  0
 22 21  1  0
 22 23  1  0
 24 23  1  0
 25 24  1  1
 25 26  1  0
 26 19  1  0
 27 28  1  0
 27 25  1  0
 29 27  2  0
M  END
$$$$
