EFM.pdb
     RDKit          3D

 29 29  0  0  1  0  0  0  0  0999 V2000
    9.3869  -17.8452   18.6760 N   0  0  0  0  0  0  0  0  0  0  0  0
   10.2946  -18.0698   19.7834 C   0  0  1  0  0  0  0  0  0  0  0  0
   11.7261  -17.8962   19.4055 C   0  0  0  0  0  0  0  0  0  0  0  0
   12.0590  -18.1437   17.9753 C   0  0  0  0  0  0  0  0  0  0  0  0
   13.4200  -18.6846   17.7598 C   0  0  0  0  0  0  0  0  0  0  0  0
   14.2120  -18.9221   18.7123 O   0  0  0  0  0  0  0  0  0  0  0  0
   10.0284  -17.0801   20.8904 C   0  0  0  0  0  0  0  0  0  0  0  0
   10.9427  -16.2310   21.0703 O   0  0  0  0  0  0  0  0  0  0  0  0
   13.9167  -18.9677   16.4917 O   0  0  0  0  0  0  0  0  0  0  0  0
    8.8403  -17.1132   21.6595 N   0  0  0  0  0  0  0  0  0  0  0  0
    8.6564  -16.1526   22.7164 C   0  0  1  0  0  0  0  0  0  0  0  0
    7.2785  -15.5824   22.7329 C   0  0  0  0  0  0  0  0  0  0  0  0
    7.0145  -14.5933   23.7935 C   0  0  0  0  0  0  0  0  0  0  0  0
    7.3673  -13.2475   23.6397 C   0  0  0  0  0  0  0  0  0  0  0  0
    7.1326  -12.3214   24.6362 C   0  0  0  0  0  0  0  0  0  0  0  0
    6.5347  -12.6988   25.8317 C   0  0  0  0  0  0  0  0  0  0  0  0
    6.1804  -14.0169   26.0030 C   0  0  0  0  0  0  0  0  0  0  0  0
    6.4241  -14.9275   24.9934 C   0  0  0  0  0  0  0  0  0  0  0  0
    9.1421  -16.6424   24.0344 C   0  0  0  0  0  0  0  0  0  0  0  0
    9.1424  -17.8791   24.2610 O   0  0  0  0  0  0  0  0  0  0  0  0
   10.0629  -12.6702   29.0659 C   0  0  0  0  0  0  0  0  0  0  0  0
   10.7511  -14.1589   29.8158 S   0  0  0  0  0  0  0  0  0  0  0  0
   10.7296  -15.5207   28.6388 C   0  0  0  0  0  0  0  0  0  0  0  0
   10.2404  -15.1610   27.2914 C   0  0  0  0  0  0  0  0  0  0  0  0
   10.2112  -16.2557   26.3024 C   0  0  2  0  0  0  0  0  0  0  0  0
    9.6017  -15.7743   25.0465 N   0  0  0  0  0  0  0  0  0  0  0  0
    9.6103  -17.4868   26.7492 C   0  0  0  0  0  0  0  0  0  0  0  0
    8.2208  -17.6414   26.6338 O   0  0  0  0  0  0  0  0  0  0  0  0
   10.2186  -18.4475   27.2382 O   0  0  0  0  0  0  0  0  0  0  0  0
  2  1  1  6
  2  3  1  0
  3  4  1  0
  5  4  1  0
  6  5  2  0
  7  2  1  0
  7  8  2  0
  9  5  1  0
 10  7  1  0
 11 10  1  0
 11 12  1  1
 12 13  1  0
 13 14  2  0
 13 18  1  0
 14 15  1  0
 15 16  2  0
 17 16  1  0
 18 17  2  0
 19 11  1  0
 20 19  2  0
 22 21  1  0
 22 23  1  0
 24 23  1  0
 25 24  1  1
 25 26  1  0
 26 19  1  0
 27 28  1  0
 27 25  1  0
 29 27  2  0
M  END
$$$$
