EFM.pdb
     RDKit          3D

 29 29  0  0  1  0  0  0  0  0999 V2000
   10.6290  -16.8183   18.4525 N   0  0  0  0  0  0  0  0  0  0  0  0
   10.1323  -17.6001   19.5673 C   0  0  1  0  0  0  0  0  0  0  0  0
   11.0317  -18.7324   19.9292 C   0  0  0  0  0  0  0  0  0  0  0  0
   11.0084  -19.9046   19.0111 C   0  0  0  0  0  0  0  0  0  0  0  0
   11.7455  -21.0826   19.5212 C   0  0  0  0  0  0  0  0  0  0  0  0
   11.1788  -22.0092   20.1625 O   0  0  0  0  0  0  0  0  0  0  0  0
   10.0188  -16.7413   20.8025 C   0  0  0  0  0  0  0  0  0  0  0  0
   11.0446  -16.0572   21.0657 O   0  0  0  0  0  0  0  0  0  0  0  0
   13.1130  -21.2469   19.3270 O   0  0  0  0  0  0  0  0  0  0  0  0
    8.8462  -16.7146   21.5951 N   0  0  0  0  0  0  0  0  0  0  0  0
    8.7531  -15.7805   22.6870 C   0  0  1  0  0  0  0  0  0  0  0  0
    7.3752  -15.2347   22.8524 C   0  0  0  0  0  0  0  0  0  0  0  0
    7.2193  -14.2157   23.9060 C   0  0  0  0  0  0  0  0  0  0  0  0
    6.6739  -14.5356   25.1549 C   0  0  0  0  0  0  0  0  0  0  0  0
    6.5153  -13.5808   26.1391 C   0  0  0  0  0  0  0  0  0  0  0  0
    6.8945  -12.2628   25.9196 C   0  0  0  0  0  0  0  0  0  0  0  0
    7.4326  -11.9275   24.6988 C   0  0  0  0  0  0  0  0  0  0  0  0
    7.5828  -12.8981   23.7276 C   0  0  0  0  0  0  0  0  0  0  0  0
    9.3739  -16.2903   23.9391 C   0  0  0  0  0  0  0  0  0  0  0  0
    9.1652  -17.4825   24.2797 O   0  0  0  0  0  0  0  0  0  0  0  0
    9.5298  -12.9441   29.1792 C   0  0  0  0  0  0  0  0  0  0  0  0
   10.1998  -14.4857   29.8326 S   0  0  0  0  0  0  0  0  0  0  0  0
   10.7945  -15.5286   28.4914 C   0  0  0  0  0  0  0  0  0  0  0  0
   10.3324  -15.1243   27.1471 C   0  0  0  0  0  0  0  0  0  0  0  0
   10.7786  -15.9768   26.0284 C   0  0  2  0  0  0  0  0  0  0  0  0
   10.1882  -15.4888   24.7659 N   0  0  0  0  0  0  0  0  0  0  0  0
   10.5743  -17.3927   26.2004 C   0  0  0  0  0  0  0  0  0  0  0  0
    9.3222  -17.9385   25.8807 O   0  0  0  0  0  0  0  0  0  0  0  0
   11.4203  -18.1960   26.6141 O   0  0  0  0  0  0  0  0  0  0  0  0
  2  1  1  6
  2  3  1  0
  3  4  1  0
  5  4  1  0
  6  5  2  0
  7  2  1  0
  7  8  2  0
  9  5  1  0
 10  7  1  0
 11 10  1  0
 11 12  1  1
 12 13  1  0
 13 14  2  0
 13 18  1  0
 14 15  1  0
 15 16  2  0
 17 16  1  0
 18 17  2  0
 19 11  1  0
 20 19  2  0
 22 21  1  0
 22 23  1  0
 24 23  1  0
 25 24  1  1
 25 26  1  0
 26 19  1  0
 27 28  1  0
 27 25  1  0
 29 27  2  0
M  END
$$$$
