EFM.pdb
     RDKit          3D

 29 29  0  0  1  0  0  0  0  0999 V2000
    9.4144  -19.0615   20.2786 N   0  0  0  0  0  0  0  0  0  0  0  0
   10.5026  -18.1076   20.1980 C   0  0  1  0  0  0  0  0  0  0  0  0
   10.6328  -17.4876   18.8487 C   0  0  0  0  0  0  0  0  0  0  0  0
    9.4776  -17.6770   17.9283 C   0  0  0  0  0  0  0  0  0  0  0  0
    9.8104  -18.4169   16.6902 C   0  0  0  0  0  0  0  0  0  0  0  0
   10.5746  -17.9445   15.8048 O   0  0  0  0  0  0  0  0  0  0  0  0
   10.2778  -16.9707   21.1638 C   0  0  0  0  0  0  0  0  0  0  0  0
   11.1999  -16.1116   21.1915 O   0  0  0  0  0  0  0  0  0  0  0  0
    9.3029  -19.6836   16.4202 O   0  0  0  0  0  0  0  0  0  0  0  0
    9.1172  -16.8870   21.9702 N   0  0  0  0  0  0  0  0  0  0  0  0
    8.9595  -15.7714   22.8670 C   0  0  1  0  0  0  0  0  0  0  0  0
    7.5296  -15.5033   23.1948 C   0  0  0  0  0  0  0  0  0  0  0  0
    7.2944  -14.4185   24.1648 C   0  0  0  0  0  0  0  0  0  0  0  0
    7.7760  -13.1233   23.9412 C   0  0  0  0  0  0  0  0  0  0  0  0
    7.5680  -12.1085   24.8535 C   0  0  0  0  0  0  0  0  0  0  0  0
    6.8692  -12.3423   26.0308 C   0  0  0  0  0  0  0  0  0  0  0  0
    6.3876  -13.6085   26.2698 C   0  0  0  0  0  0  0  0  0  0  0  0
    6.6067  -14.6098   25.3440 C   0  0  0  0  0  0  0  0  0  0  0  0
    9.8642  -15.8442   24.0456 C   0  0  0  0  0  0  0  0  0  0  0  0
   10.6802  -14.9086   24.2446 O   0  0  0  0  0  0  0  0  0  0  0  0
   10.3666  -12.7443   28.3240 C   0  0  0  0  0  0  0  0  0  0  0  0
   10.1206  -14.2128   29.3416 S   0  0  0  0  0  0  0  0  0  0  0  0
   10.6066  -15.6909   28.4365 C   0  0  0  0  0  0  0  0  0  0  0  0
   10.0665  -15.7764   27.0636 C   0  0  0  0  0  0  0  0  0  0  0  0
   10.5611  -16.8999   26.2448 C   0  0  2  0  0  0  0  0  0  0  0  0
    9.8475  -16.9244   24.9522 N   0  0  0  0  0  0  0  0  0  0  0  0
   10.5517  -18.1915   26.8836 C   0  0  0  0  0  0  0  0  0  0  0  0
   11.5636  -18.4963   27.8062 O   0  0  0  0  0  0  0  0  0  0  0  0
    9.7140  -19.0822   26.6918 O   0  0  0  0  0  0  0  0  0  0  0  0
  2  1  1  6
  2  3  1  0
  3  4  1  0
  5  4  1  0
  6  5  2  0
  7  2  1  0
  7  8  2  0
  9  5  1  0
 10  7  1  0
 11 10  1  0
 11 12  1  1
 12 13  1  0
 13 14  2  0
 13 18  1  0
 14 15  1  0
 15 16  2  0
 17 16  1  0
 18 17  2  0
 19 11  1  0
 20 19  2  0
 22 21  1  0
 22 23  1  0
 24 23  1  0
 25 24  1  1
 25 26  1  0
 26 19  1  0
 27 28  1  0
 27 25  1  0
 29 27  2  0
M  END
$$$$
