EFM.pdb
     RDKit          3D

 29 29  0  0  1  0  0  0  0  0999 V2000
   10.5897  -16.8032   19.8106 N   0  0  0  0  0  0  0  0  0  0  0  0
    9.2336  -16.6759   20.3063 C   0  0  1  0  0  0  0  0  0  0  0  0
    8.5492  -17.9900   20.4700 C   0  0  0  0  0  0  0  0  0  0  0  0
    8.7782  -18.9854   19.3865 C   0  0  0  0  0  0  0  0  0  0  0  0
    7.5341  -19.5165   18.7853 C   0  0  0  0  0  0  0  0  0  0  0  0
    6.8240  -20.3871   19.3587 O   0  0  0  0  0  0  0  0  0  0  0  0
    9.2305  -16.0270   21.6682 C   0  0  0  0  0  0  0  0  0  0  0  0
   10.1666  -16.3930   22.4293 O   0  0  0  0  0  0  0  0  0  0  0  0
    7.0643  -19.0905   17.5473 O   0  0  0  0  0  0  0  0  0  0  0  0
    8.2475  -15.0822   22.0492 N   0  0  0  0  0  0  0  0  0  0  0  0
    8.2652  -14.5445   23.3849 C   0  0  1  0  0  0  0  0  0  0  0  0
    7.3128  -13.4093   23.5533 C   0  0  0  0  0  0  0  0  0  0  0  0
    7.2756  -12.8075   24.8985 C   0  0  0  0  0  0  0  0  0  0  0  0
    6.2373  -13.0881   25.7943 C   0  0  0  0  0  0  0  0  0  0  0  0
    6.1932  -12.5164   27.0500 C   0  0  0  0  0  0  0  0  0  0  0  0
    7.1851  -11.6381   27.4671 C   0  0  0  0  0  0  0  0  0  0  0  0
    8.2145  -11.3490   26.6017 C   0  0  0  0  0  0  0  0  0  0  0  0
    8.2397  -11.9318   25.3496 C   0  0  0  0  0  0  0  0  0  0  0  0
    8.1704  -15.5958   24.4331 C   0  0  0  0  0  0  0  0  0  0  0  0
    7.2071  -16.4031   24.3995 O   0  0  0  0  0  0  0  0  0  0  0  0
    7.5895  -21.7733   25.8851 C   0  0  0  0  0  0  0  0  0  0  0  0
    9.1447  -20.8866   25.6669 S   0  0  0  0  0  0  0  0  0  0  0  0
    9.1136  -19.3338   26.5767 C   0  0  0  0  0  0  0  0  0  0  0  0
    9.1341  -18.1238   25.7285 C   0  0  0  0  0  0  0  0  0  0  0  0
    9.0978  -16.8338   26.4441 C   0  0  2  0  0  0  0  0  0  0  0  0
    9.1182  -15.7245   25.4696 N   0  0  0  0  0  0  0  0  0  0  0  0
   10.0932  -16.6597   27.4712 C   0  0  0  0  0  0  0  0  0  0  0  0
    9.9132  -17.3061   28.7031 O   0  0  0  0  0  0  0  0  0  0  0  0
   11.1200  -15.9763   27.3685 O   0  0  0  0  0  0  0  0  0  0  0  0
  2  1  1  1
  2  3  1  0
  3  4  1  0
  5  4  1  0
  6  5  2  0
  7  2  1  0
  7  8  2  0
  9  5  1  0
 10  7  1  0
 11 10  1  0
 11 12  1  6
 12 13  1  0
 13 14  2  0
 13 18  1  0
 14 15  1  0
 15 16  2  0
 17 16  1  0
 18 17  2  0
 19 11  1  0
 20 19  2  0
 22 21  1  0
 22 23  1  0
 24 23  1  0
 25 24  1  6
 25 26  1  0
 26 19  1  0
 27 28  1  0
 27 25  1  0
 29 27  2  0
M  END
$$$$
