EFM.pdb
     RDKit          3D

 29 29  0  0  1  0  0  0  0  0999 V2000
   10.5372  -16.7832   18.4462 N   0  0  0  0  0  0  0  0  0  0  0  0
   10.5030  -17.5989   19.6438 C   0  0  1  0  0  0  0  0  0  0  0  0
   11.7901  -18.3051   19.9025 C   0  0  0  0  0  0  0  0  0  0  0  0
   12.5006  -18.8288   18.7032 C   0  0  0  0  0  0  0  0  0  0  0  0
   12.1385  -20.2199   18.3497 C   0  0  0  0  0  0  0  0  0  0  0  0
   11.8885  -20.5734   17.1650 O   0  0  0  0  0  0  0  0  0  0  0  0
   10.2423  -16.7410   20.8570 C   0  0  0  0  0  0  0  0  0  0  0  0
   11.2166  -16.0268   21.2176 O   0  0  0  0  0  0  0  0  0  0  0  0
   12.0500  -21.2311   19.3008 O   0  0  0  0  0  0  0  0  0  0  0  0
    8.9962  -16.7467   21.5288 N   0  0  0  0  0  0  0  0  0  0  0  0
    8.8488  -15.9976   22.7497 C   0  0  1  0  0  0  0  0  0  0  0  0
    7.4219  -15.7011   23.0660 C   0  0  0  0  0  0  0  0  0  0  0  0
    7.2023  -14.7089   24.1338 C   0  0  0  0  0  0  0  0  0  0  0  0
    7.6030  -13.3761   23.9844 C   0  0  0  0  0  0  0  0  0  0  0  0
    7.4099  -12.4476   24.9875 C   0  0  0  0  0  0  0  0  0  0  0  0
    6.8077  -12.8095   26.1856 C   0  0  0  0  0  0  0  0  0  0  0  0
    6.4066  -14.1146   26.3527 C   0  0  0  0  0  0  0  0  0  0  0  0
    6.6091  -15.0280   25.3365 C   0  0  0  0  0  0  0  0  0  0  0  0
    9.6292  -16.5717   23.8786 C   0  0  0  0  0  0  0  0  0  0  0  0
   10.6679  -17.2333   23.6254 O   0  0  0  0  0  0  0  0  0  0  0  0
   10.0063  -12.7139   28.8987 C   0  0  0  0  0  0  0  0  0  0  0  0
   11.4952  -13.7234   29.0263 S   0  0  0  0  0  0  0  0  0  0  0  0
   11.2344  -15.3258   28.2487 C   0  0  0  0  0  0  0  0  0  0  0  0
   10.4080  -15.2875   27.0241 C   0  0  0  0  0  0  0  0  0  0  0  0
   10.1892  -16.5833   26.3530 C   0  0  2  0  0  0  0  0  0  0  0  0
    9.2501  -16.4072   25.2270 N   0  0  0  0  0  0  0  0  0  0  0  0
    9.7962  -17.6732   27.2096 C   0  0  0  0  0  0  0  0  0  0  0  0
   10.7789  -18.3208   27.9730 O   0  0  0  0  0  0  0  0  0  0  0  0
    8.6436  -18.1049   27.3406 O   0  0  0  0  0  0  0  0  0  0  0  0
  2  1  1  6
  2  3  1  0
  3  4  1  0
  5  4  1  0
  6  5  2  0
  7  2  1  0
  7  8  2  0
  9  5  1  0
 10  7  1  0
 11 10  1  0
 11 12  1  1
 12 13  1  0
 13 14  2  0
 13 18  1  0
 14 15  1  0
 15 16  2  0
 17 16  1  0
 18 17  2  0
 19 11  1  0
 20 19  2  0
 22 21  1  0
 22 23  1  0
 24 23  1  0
 25 24  1  1
 25 26  1  0
 26 19  1  0
 27 28  1  0
 27 25  1  0
 29 27  2  0
M  END
$$$$
