GSE.pdb
     RDKit          3D

 20 19  0  0  1  0  0  0  0  0999 V2000
   16.0143  -14.1601  -14.0102 N   0  0  0  0  0  0  0  0  0  0  0  0
   15.5233  -13.0399  -14.7673 C   0  0  0  0  0  0  0  0  0  0  0  0
   16.6558  -12.2124  -15.2534 C   0  0  0  0  0  0  0  0  0  0  0  0
   17.7961  -12.3837  -14.7274 O   0  0  0  0  0  0  0  0  0  0  0  0
   17.5196  -11.5429  -18.9240 O   0  0  0  0  0  0  0  0  0  0  0  0
   17.5629  -10.3285  -18.2791 C   0  0  0  0  0  0  0  0  0  0  0  0
   17.6894  -10.5029  -16.7608 C   0  0  2  0  0  0  0  0  0  0  0  0
   16.5419  -11.2340  -16.2774 N   0  0  0  0  0  0  0  0  0  0  0  0
   17.8427   -9.1861  -16.1331 C   0  0  0  0  0  0  0  0  0  0  0  0
   16.7647   -8.5886  -15.8121 O   0  0  0  0  0  0  0  0  0  0  0  0
   19.0543   -8.5414  -15.8614 N   0  0  0  0  0  0  0  0  0  0  0  0
   19.0860   -7.2285  -15.1987 C   0  0  1  0  0  0  0  0  0  0  0  0
   20.4231   -7.1134  -14.5526 C   0  0  0  0  0  0  0  0  0  0  0  0
   20.7031   -5.8349  -13.8459 C   0  0  0  0  0  0  0  0  0  0  0  0
   22.0636   -5.6718  -13.3219 C   0  0  0  0  0  0  0  0  0  0  0  0
   22.4872   -4.5320  -13.0621 O   0  0  0  0  0  0  0  0  0  0  0  0
   18.8186   -6.1958  -16.2097 C   0  0  0  0  0  0  0  0  0  0  0  0
   18.2767   -4.9489  -15.9250 O   0  0  0  0  0  0  0  0  0  0  0  0
   22.8694   -6.7583  -13.1172 O   0  0  0  0  0  0  0  0  0  0  0  0
   19.0777   -6.4009  -17.4265 O   0  0  0  0  0  0  0  0  0  0  0  0
  2  1  1  0
  3  2  1  0
  4  3  2  0
  6  5  1  0
  7  6  1  6
  7  8  1  0
  8  3  1  0
  9 11  1  0
  9  7  1  0
 10  9  2  0
 12 17  1  0
 12 11  1  0
 13 14  1  0
 12 13  1  6
 14 15  1  0
 15 16  2  0
 17 18  1  0
 19 15  1  0
 20 17  2  0
M  END
$$$$
