GSE.pdb
     RDKit          3D

 20 19  0  0  1  0  0  0  0  0999 V2000
   13.3359  -11.2528  -10.0372 N   0  0  0  0  0  0  0  0  0  0  0  0
   14.2688  -10.5738   -9.1784 C   0  0  0  0  0  0  0  0  0  0  0  0
   14.4849   -9.1835   -9.6519 C   0  0  0  0  0  0  0  0  0  0  0  0
   14.0286   -8.8567  -10.7883 O   0  0  0  0  0  0  0  0  0  0  0  0
   15.3362   -4.5579   -8.6623 O   0  0  0  0  0  0  0  0  0  0  0  0
   15.1796   -5.8593   -8.2449 C   0  0  0  0  0  0  0  0  0  0  0  0
   15.3435   -6.8456   -9.4076 C   0  0  2  0  0  0  0  0  0  0  0  0
   15.1753   -8.1896   -8.9075 N   0  0  0  0  0  0  0  0  0  0  0  0
   16.6440   -6.6259  -10.0495 C   0  0  0  0  0  0  0  0  0  0  0  0
   17.6690   -6.9474   -9.3651 O   0  0  0  0  0  0  0  0  0  0  0  0
   16.8502   -6.1014  -11.3300 N   0  0  0  0  0  0  0  0  0  0  0  0
   18.2035   -5.9774  -11.8930 C   0  0  1  0  0  0  0  0  0  0  0  0
   18.5429   -7.3061  -12.4742 C   0  0  0  0  0  0  0  0  0  0  0  0
   19.7685   -7.3613  -13.3151 C   0  0  0  0  0  0  0  0  0  0  0  0
   20.0149   -8.6274  -14.0142 C   0  0  0  0  0  0  0  0  0  0  0  0
   19.0513   -9.3010  -14.4188 O   0  0  0  0  0  0  0  0  0  0  0  0
   18.1968   -4.8801  -12.8708 C   0  0  0  0  0  0  0  0  0  0  0  0
   17.0535   -4.4048  -13.5003 O   0  0  0  0  0  0  0  0  0  0  0  0
   21.2910   -9.0736  -14.2244 O   0  0  0  0  0  0  0  0  0  0  0  0
   19.2671   -4.2981  -13.1956 O   0  0  0  0  0  0  0  0  0  0  0  0
  2  1  1  0
  3  2  1  0
  4  3  2  0
  6  5  1  0
  7  6  1  1
  7  8  1  0
  8  3  1  0
  9 11  1  0
  9  7  1  0
 10  9  2  0
 12 17  1  0
 12 11  1  0
 13 14  1  0
 12 13  1  6
 14 15  1  0
 15 16  2  0
 17 18  1  0
 19 15  1  0
 20 17  2  0
M  END
$$$$
