GSE.pdb
     RDKit          3D

 20 19  0  0  1  0  0  0  0  0999 V2000
   18.6371  -13.3593  -14.9376 N   0  0  0  0  0  0  0  0  0  0  0  0
   17.9163  -13.0450  -16.1421 C   0  0  0  0  0  0  0  0  0  0  0  0
   17.9564  -11.5833  -16.3982 C   0  0  0  0  0  0  0  0  0  0  0  0
   19.0873  -11.0167  -16.4775 O   0  0  0  0  0  0  0  0  0  0  0  0
   15.1743   -9.4010  -18.5314 O   0  0  0  0  0  0  0  0  0  0  0  0
   15.5242   -8.8580  -17.3168 C   0  0  0  0  0  0  0  0  0  0  0  0
   16.8952   -9.3625  -16.8501 C   0  0  2  0  0  0  0  0  0  0  0  0
   16.8001  -10.7739  -16.5612 N   0  0  0  0  0  0  0  0  0  0  0  0
   17.3392   -8.5656  -15.7014 C   0  0  0  0  0  0  0  0  0  0  0  0
   16.9527   -8.9680  -14.5565 O   0  0  0  0  0  0  0  0  0  0  0  0
   18.1389   -7.4189  -15.7567 N   0  0  0  0  0  0  0  0  0  0  0  0
   18.6433   -6.7829  -14.5300 C   0  0  1  0  0  0  0  0  0  0  0  0
   20.0900   -6.5120  -14.7585 C   0  0  0  0  0  0  0  0  0  0  0  0
   20.8128   -5.8285  -13.6528 C   0  0  0  0  0  0  0  0  0  0  0  0
   22.2203   -5.5019  -13.9068 C   0  0  0  0  0  0  0  0  0  0  0  0
   22.8115   -4.7114  -13.1507 O   0  0  0  0  0  0  0  0  0  0  0  0
   17.8418   -5.5780  -14.2729 C   0  0  0  0  0  0  0  0  0  0  0  0
   17.7072   -4.9838  -13.0246 O   0  0  0  0  0  0  0  0  0  0  0  0
   22.8872   -6.0564  -14.9648 O   0  0  0  0  0  0  0  0  0  0  0  0
   17.2165   -5.0070  -15.2070 O   0  0  0  0  0  0  0  0  0  0  0  0
  2  1  1  0
  3  2  1  0
  4  3  2  0
  6  5  1  0
  7  6  1  1
  7  8  1  0
  8  3  1  0
  9 11  1  0
  9  7  1  0
 10  9  2  0
 12 17  1  0
 12 11  1  0
 13 14  1  0
 12 13  1  6
 14 15  1  0
 15 16  2  0
 17 18  1  0
 19 15  1  0
 20 17  2  0
M  END
$$$$
