GSE.pdb
     RDKit          3D

 20 19  0  0  1  0  0  0  0  0999 V2000
   28.0553  -34.4970   -7.2950 N   0  0  0  0  0  0  0  0  0  0  0  0
   26.8389  -34.0117   -6.7002 C   0  0  0  0  0  0  0  0  0  0  0  0
   27.0548  -33.7090   -5.2630 C   0  0  0  0  0  0  0  0  0  0  0  0
   28.2067  -33.9065   -4.7725 O   0  0  0  0  0  0  0  0  0  0  0  0
   25.0508  -30.8022   -2.9080 O   0  0  0  0  0  0  0  0  0  0  0  0
   25.1182  -32.0989   -2.4533 C   0  0  0  0  0  0  0  0  0  0  0  0
   26.3329  -32.8346   -3.0321 C   0  0  2  0  0  0  0  0  0  0  0  0
   26.0457  -33.2089   -4.3967 N   0  0  0  0  0  0  0  0  0  0  0  0
   26.6596  -33.9792   -2.1749 C   0  0  0  0  0  0  0  0  0  0  0  0
   25.9741  -35.0357   -2.3643 O   0  0  0  0  0  0  0  0  0  0  0  0
   27.6454  -34.0076   -1.1826 N   0  0  0  0  0  0  0  0  0  0  0  0
   27.9842  -35.2558   -0.4817 C   0  0  1  0  0  0  0  0  0  0  0  0
   29.3179  -35.0398    0.1453 C   0  0  0  0  0  0  0  0  0  0  0  0
   29.8355  -36.1515    0.9871 C   0  0  0  0  0  0  0  0  0  0  0  0
   31.1160  -35.9086    1.6605 C   0  0  0  0  0  0  0  0  0  0  0  0
   31.5819  -36.7751    2.4209 O   0  0  0  0  0  0  0  0  0  0  0  0
   26.9115  -35.5503    0.4789 C   0  0  0  0  0  0  0  0  0  0  0  0
   26.4695  -36.8312    0.7844 O   0  0  0  0  0  0  0  0  0  0  0  0
   31.8008  -34.7412    1.4614 O   0  0  0  0  0  0  0  0  0  0  0  0
   26.3210  -34.6205    1.0925 O   0  0  0  0  0  0  0  0  0  0  0  0
  2  1  1  0
  3  2  1  0
  4  3  2  0
  6  5  1  0
  7  6  1  1
  7  8  1  0
  8  3  1  0
  9 11  1  0
  9  7  1  0
 10  9  2  0
 12 17  1  0
 12 11  1  0
 13 14  1  0
 12 13  1  1
 14 15  1  0
 15 16  2  0
 17 18  1  0
 19 15  1  0
 20 17  2  0
M  END
$$$$
