GSE.pdb
     RDKit          3D

 20 19  0  0  1  0  0  0  0  0999 V2000
   19.3171  -12.1468  -18.0017 N   0  0  0  0  0  0  0  0  0  0  0  0
   20.2273  -11.0331  -18.0176 C   0  0  0  0  0  0  0  0  0  0  0  0
   20.0613  -10.2165  -16.7890 C   0  0  0  0  0  0  0  0  0  0  0  0
   18.9240   -9.7099  -16.5517 O   0  0  0  0  0  0  0  0  0  0  0  0
   23.0236   -9.8728  -13.8504 O   0  0  0  0  0  0  0  0  0  0  0  0
   21.6992   -9.6949  -13.5236 C   0  0  0  0  0  0  0  0  0  0  0  0
   20.9022   -9.1216  -14.7016 C   0  0  2  0  0  0  0  0  0  0  0  0
   21.1032   -9.9649  -15.8563 N   0  0  0  0  0  0  0  0  0  0  0  0
   21.3034   -7.7287  -14.9259 C   0  0  0  0  0  0  0  0  0  0  0  0
   22.2696   -7.5465  -15.7355 O   0  0  0  0  0  0  0  0  0  0  0  0
   20.7234   -6.6011  -14.3347 N   0  0  0  0  0  0  0  0  0  0  0  0
   21.1544   -5.2431  -14.7005 C   0  0  1  0  0  0  0  0  0  0  0  0
   19.9160   -4.4240  -14.8186 C   0  0  0  0  0  0  0  0  0  0  0  0
   20.1113   -2.9702  -15.0649 C   0  0  0  0  0  0  0  0  0  0  0  0
   18.8924   -2.1556  -15.1196 C   0  0  0  0  0  0  0  0  0  0  0  0
   18.9849   -0.9243  -15.2660 O   0  0  0  0  0  0  0  0  0  0  0  0
   22.0926   -4.7657  -13.6748 C   0  0  0  0  0  0  0  0  0  0  0  0
   22.9540   -3.6898  -13.8474 O   0  0  0  0  0  0  0  0  0  0  0  0
   17.6581   -2.7353  -15.0107 O   0  0  0  0  0  0  0  0  0  0  0  0
   22.1619   -5.3310  -12.5499 O   0  0  0  0  0  0  0  0  0  0  0  0
  2  1  1  0
  3  2  1  0
  4  3  2  0
  6  5  1  0
  7  6  1  1
  7  8  1  0
  8  3  1  0
  9 11  1  0
  9  7  1  0
 10  9  2  0
 12 17  1  0
 12 11  1  0
 13 14  1  0
 12 13  1  1
 14 15  1  0
 15 16  2  0
 17 18  1  0
 19 15  1  0
 20 17  2  0
M  END
$$$$
