GSE.pdb
     RDKit          3D

 20 19  0  0  1  0  0  0  0  0999 V2000
   16.6537  -13.1932  -15.2712 N   0  0  0  0  0  0  0  0  0  0  0  0
   16.0909  -11.9316  -15.6721 C   0  0  0  0  0  0  0  0  0  0  0  0
   17.1451  -11.0579  -16.2459 C   0  0  0  0  0  0  0  0  0  0  0  0
   18.3524  -11.4335  -16.1576 O   0  0  0  0  0  0  0  0  0  0  0  0
   17.3144   -9.7581  -19.6835 O   0  0  0  0  0  0  0  0  0  0  0  0
   17.5420   -8.6457  -18.9067 C   0  0  0  0  0  0  0  0  0  0  0  0
   17.9433   -9.0311  -17.4777 C   0  0  2  0  0  0  0  0  0  0  0  0
   16.8850   -9.8194  -16.8918 N   0  0  0  0  0  0  0  0  0  0  0  0
   18.2487   -7.8154  -16.7158 C   0  0  0  0  0  0  0  0  0  0  0  0
   17.2541   -7.2178  -16.1905 O   0  0  0  0  0  0  0  0  0  0  0  0
   19.5203   -7.2657  -16.5206 N   0  0  0  0  0  0  0  0  0  0  0  0
   19.7075   -6.0453  -15.7210 C   0  0  1  0  0  0  0  0  0  0  0  0
   20.6166   -6.4104  -14.5990 C   0  0  0  0  0  0  0  0  0  0  0  0
   20.0014   -7.1643  -13.4741 C   0  0  0  0  0  0  0  0  0  0  0  0
   20.8729   -7.4343  -12.3253 C   0  0  0  0  0  0  0  0  0  0  0  0
   22.0999   -7.2651  -12.4344 O   0  0  0  0  0  0  0  0  0  0  0  0
   20.2357   -4.9940  -16.6019 C   0  0  0  0  0  0  0  0  0  0  0  0
   20.3350   -3.6555  -16.2444 O   0  0  0  0  0  0  0  0  0  0  0  0
   20.3508   -7.8700  -11.1382 O   0  0  0  0  0  0  0  0  0  0  0  0
   20.6378   -5.2680  -17.7651 O   0  0  0  0  0  0  0  0  0  0  0  0
  2  1  1  0
  3  2  1  0
  4  3  2  0
  6  5  1  0
  7  6  1  6
  7  8  1  0
  8  3  1  0
  9 11  1  0
  9  7  1  0
 10  9  2  0
 12 17  1  0
 12 11  1  0
 13 14  1  0
 12 13  1  1
 14 15  1  0
 15 16  2  0
 17 18  1  0
 19 15  1  0
 20 17  2  0
M  END
$$$$
