GSE.pdb
     RDKit          3D

 20 19  0  0  1  0  0  0  0  0999 V2000
   14.5919   -7.9871   -6.2840 N   0  0  0  0  0  0  0  0  0  0  0  0
   14.6394   -7.2478   -7.5170 C   0  0  0  0  0  0  0  0  0  0  0  0
   15.5714   -7.8996   -8.4712 C   0  0  0  0  0  0  0  0  0  0  0  0
   15.7021   -9.1592   -8.4199 O   0  0  0  0  0  0  0  0  0  0  0  0
   15.3255   -8.3705  -12.7436 O   0  0  0  0  0  0  0  0  0  0  0  0
   15.1897   -7.8351  -11.4836 C   0  0  0  0  0  0  0  0  0  0  0  0
   16.5431   -7.7261  -10.7708 C   0  0  2  0  0  0  0  0  0  0  0  0
   16.3311   -7.1965   -9.4444 N   0  0  0  0  0  0  0  0  0  0  0  0
   17.4529   -6.9093  -11.5812 C   0  0  0  0  0  0  0  0  0  0  0  0
   17.2905   -5.6481  -11.5079 O   0  0  0  0  0  0  0  0  0  0  0  0
   18.4681   -7.3912  -12.4145 N   0  0  0  0  0  0  0  0  0  0  0  0
   19.3560   -6.4717  -13.1426 C   0  0  1  0  0  0  0  0  0  0  0  0
   20.4495   -7.3051  -13.7155 C   0  0  0  0  0  0  0  0  0  0  0  0
   21.5229   -6.5727  -14.4392 C   0  0  0  0  0  0  0  0  0  0  0  0
   22.5305   -7.4018  -15.1098 C   0  0  0  0  0  0  0  0  0  0  0  0
   22.5041   -8.6362  -14.9630 O   0  0  0  0  0  0  0  0  0  0  0  0
   18.5560   -5.7594  -14.1489 C   0  0  0  0  0  0  0  0  0  0  0  0
   18.8046   -4.4568  -14.5621 O   0  0  0  0  0  0  0  0  0  0  0  0
   23.4970   -6.8318  -15.8925 O   0  0  0  0  0  0  0  0  0  0  0  0
   17.5711   -6.3175  -14.7041 O   0  0  0  0  0  0  0  0  0  0  0  0
  2  1  1  0
  3  2  1  0
  4  3  2  0
  6  5  1  0
  7  6  1  6
  7  8  1  0
  8  3  1  0
  9 11  1  0
  9  7  1  0
 10  9  2  0
 12 17  1  0
 12 11  1  0
 13 14  1  0
 12 13  1  6
 14 15  1  0
 15 16  2  0
 17 18  1  0
 19 15  1  0
 20 17  2  0
M  END
$$$$
