GSE.pdb
     RDKit          3D

 20 19  0  0  1  0  0  0  0  0999 V2000
   20.9310  -12.5495  -18.3224 N   0  0  0  0  0  0  0  0  0  0  0  0
   21.1261  -11.1635  -18.6542 C   0  0  0  0  0  0  0  0  0  0  0  0
   21.6487  -10.4225  -17.4787 C   0  0  0  0  0  0  0  0  0  0  0  0
   20.8228  -10.0148  -16.6081 O   0  0  0  0  0  0  0  0  0  0  0  0
   25.3455  -10.7313  -15.6324 O   0  0  0  0  0  0  0  0  0  0  0  0
   24.9913   -9.4612  -16.0246 C   0  0  0  0  0  0  0  0  0  0  0  0
   23.4707   -9.3201  -16.1643 C   0  0  2  0  0  0  0  0  0  0  0  0
   23.0247  -10.1394  -17.2664 N   0  0  0  0  0  0  0  0  0  0  0  0
   23.1281   -7.9025  -16.3217 C   0  0  0  0  0  0  0  0  0  0  0  0
   23.3375   -7.3992  -17.4729 O   0  0  0  0  0  0  0  0  0  0  0  0
   22.5991   -7.0699  -15.3297 N   0  0  0  0  0  0  0  0  0  0  0  0
   22.2194   -5.6799  -15.6253 C   0  0  1  0  0  0  0  0  0  0  0  0
   20.8023   -5.7169  -16.0824 C   0  0  0  0  0  0  0  0  0  0  0  0
   20.1483   -4.3991  -16.3015 C   0  0  0  0  0  0  0  0  0  0  0  0
   18.7404   -4.4378  -16.7120 C   0  0  0  0  0  0  0  0  0  0  0  0
   18.4522   -4.7373  -17.8839 O   0  0  0  0  0  0  0  0  0  0  0  0
   22.4372   -4.8755  -14.4147 C   0  0  0  0  0  0  0  0  0  0  0  0
   22.5169   -3.4888  -14.4048 O   0  0  0  0  0  0  0  0  0  0  0  0
   17.7437   -4.1478  -15.8208 O   0  0  0  0  0  0  0  0  0  0  0  0
   22.5668   -5.4265  -13.2880 O   0  0  0  0  0  0  0  0  0  0  0  0
  2  1  1  0
  3  2  1  0
  4  3  2  0
  6  5  1  0
  7  6  1  6
  7  8  1  0
  8  3  1  0
  9 11  1  0
  9  7  1  0
 10  9  2  0
 12 17  1  0
 12 11  1  0
 13 14  1  0
 12 13  1  1
 14 15  1  0
 15 16  2  0
 17 18  1  0
 19 15  1  0
 20 17  2  0
M  END
$$$$
