CDD.pdb
     RDKit          3D

 23 22  0  0  1  0  0  0  0  0999 V2000
    6.7131  -13.5235   18.9479 N   0  0  0  0  0  0  0  0  0  0  0  0
    7.9367  -14.2320   18.6716 C   0  0  1  0  0  0  0  0  0  0  0  0
    8.8667  -13.3841   17.8444 C   0  0  0  0  0  0  0  0  0  0  0  0
    9.3889  -11.9879   18.8997 S   0  0  0  0  0  0  0  0  0  0  0  0
    8.5551  -14.8054   19.8705 C   0  0  0  0  0  0  0  0  0  0  0  0
    8.2333  -14.3682   21.0033 O   0  0  0  0  0  0  0  0  0  0  0  0
    9.5147  -15.8473   19.8062 N   0  0  0  0  0  0  0  0  0  0  0  0
   10.1535  -16.3280   20.9964 C   0  0  1  0  0  0  0  0  0  0  0  0
    9.4955  -17.6032   21.5136 C   0  0  0  0  0  0  0  0  0  0  0  0
   10.0328  -17.9934   22.8318 C   0  0  0  0  0  0  0  0  0  0  0  0
   10.8013  -17.2158   23.4335 O   0  0  0  0  0  0  0  0  0  0  0  0
   11.6190  -16.5317   20.8132 C   0  0  0  0  0  0  0  0  0  0  0  0
   12.0405  -17.4904   20.1408 O   0  0  0  0  0  0  0  0  0  0  0  0
    9.6872  -19.2010   23.3868 O   0  0  0  0  0  0  0  0  0  0  0  0
   12.5541  -15.6430   21.3978 N   0  0  0  0  0  0  0  0  0  0  0  0
   13.9755  -15.7992   21.3178 C   0  0  1  0  0  0  0  0  0  0  0  0
   14.5812  -14.5557   20.7228 C   0  0  0  0  0  0  0  0  0  0  0  0
   14.6011  -14.5338   19.2524 C   0  0  0  0  0  0  0  0  0  0  0  0
   15.2352  -15.4641   18.6573 O   0  0  0  0  0  0  0  0  0  0  0  0
   14.4998  -16.0209   22.6936 C   0  0  0  0  0  0  0  0  0  0  0  0
   13.6212  -16.0041   23.7659 O   0  0  0  0  0  0  0  0  0  0  0  0
   13.9875  -13.5841   18.4512 O   0  0  0  0  0  0  0  0  0  0  0  0
   15.7154  -16.2254   22.9346 O   0  0  0  0  0  0  0  0  0  0  0  0
  2  1  1  1
  2  3  1  0
  3  4  1  0
  5  2  1  0
  6  5  2  0
  7  5  1  0
  8  7  1  0
  8 12  1  0
  8  9  1  6
 10 14  1  0
 10  9  1  0
 11 10  2  0
 12 15  1  0
 13 12  2  0
 15 16  1  0
 16 17  1  1
 16 20  1  0
 18 22  1  0
 18 17  1  0
 19 18  2  0
 20 21  1  0
 23 20  2  0
M  END
$$$$
