CDD.pdb
     RDKit          3D

 23 22  0  0  1  0  0  0  0  0999 V2000
    5.6164  -13.8198   26.4689 N   0  0  0  0  0  0  0  0  0  0  0  0
    6.7583  -13.4131   25.6905 C   0  0  1  0  0  0  0  0  0  0  0  0
    7.7479  -12.6686   26.5474 C   0  0  0  0  0  0  0  0  0  0  0  0
    6.9299  -11.1252   27.0808 S   0  0  0  0  0  0  0  0  0  0  0  0
    7.3444  -14.5070   24.9105 C   0  0  0  0  0  0  0  0  0  0  0  0
    7.4240  -15.6546   25.4151 O   0  0  0  0  0  0  0  0  0  0  0  0
    7.8327  -14.3234   23.5920 N   0  0  0  0  0  0  0  0  0  0  0  0
    8.5341  -15.3769   22.9184 C   0  0  1  0  0  0  0  0  0  0  0  0
    8.7802  -15.0419   21.4508 C   0  0  0  0  0  0  0  0  0  0  0  0
    7.5143  -14.9440   20.6981 C   0  0  0  0  0  0  0  0  0  0  0  0
    6.5419  -15.6460   21.0432 O   0  0  0  0  0  0  0  0  0  0  0  0
    9.8135  -15.7329   23.5961 C   0  0  0  0  0  0  0  0  0  0  0  0
   10.4139  -14.8897   24.2871 O   0  0  0  0  0  0  0  0  0  0  0  0
    7.4122  -14.0875   19.6297 O   0  0  0  0  0  0  0  0  0  0  0  0
   10.3669  -17.0302   23.4670 N   0  0  0  0  0  0  0  0  0  0  0  0
   11.3754  -17.5675   24.3303 C   0  0  1  0  0  0  0  0  0  0  0  0
   10.8669  -17.5741   25.7476 C   0  0  0  0  0  0  0  0  0  0  0  0
   11.7376  -18.2775   26.7016 C   0  0  0  0  0  0  0  0  0  0  0  0
   12.9792  -17.9952   26.6857 O   0  0  0  0  0  0  0  0  0  0  0  0
   11.6810  -18.9551   23.8855 C   0  0  0  0  0  0  0  0  0  0  0  0
   10.9257  -19.5253   22.8724 O   0  0  0  0  0  0  0  0  0  0  0  0
   11.3244  -19.2272   27.6223 O   0  0  0  0  0  0  0  0  0  0  0  0
   12.6020  -19.6447   24.3894 O   0  0  0  0  0  0  0  0  0  0  0  0
  2  1  1  1
  2  3  1  0
  3  4  1  0
  5  2  1  0
  6  5  2  0
  7  5  1  0
  8  7  1  0
  8 12  1  0
  8  9  1  6
 10 14  1  0
 10  9  1  0
 11 10  2  0
 12 15  1  0
 13 12  2  0
 15 16  1  0
 16 17  1  1
 16 20  1  0
 18 22  1  0
 18 17  1  0
 19 18  2  0
 20 21  1  0
 23 20  2  0
M  END
$$$$
