CDD.pdb
     RDKit          3D

 23 22  0  0  1  0  0  0  0  0999 V2000
    8.2286  -14.2837   17.0881 N   0  0  0  0  0  0  0  0  0  0  0  0
    9.0250  -13.7887   18.1818 C   0  0  1  0  0  0  0  0  0  0  0  0
    8.1495  -13.4024   19.3446 C   0  0  0  0  0  0  0  0  0  0  0  0
    9.2492  -12.7093   20.6275 S   0  0  0  0  0  0  0  0  0  0  0  0
   10.1349  -14.6781   18.5365 C   0  0  0  0  0  0  0  0  0  0  0  0
    9.9157  -15.9021   18.7145 O   0  0  0  0  0  0  0  0  0  0  0  0
   11.4645  -14.2100   18.6897 N   0  0  0  0  0  0  0  0  0  0  0  0
   12.5009  -15.0881   19.1485 C   0  0  1  0  0  0  0  0  0  0  0  0
   13.8232  -14.8197   18.4371 C   0  0  0  0  0  0  0  0  0  0  0  0
   13.7966  -15.3055   17.0436 C   0  0  0  0  0  0  0  0  0  0  0  0
   13.4998  -16.4962   16.8166 O   0  0  0  0  0  0  0  0  0  0  0  0
   12.6808  -15.0322   20.6275 C   0  0  0  0  0  0  0  0  0  0  0  0
   13.0823  -13.9877   21.1722 O   0  0  0  0  0  0  0  0  0  0  0  0
   14.0960  -14.4519   16.0104 O   0  0  0  0  0  0  0  0  0  0  0  0
   12.4001  -16.1605   21.4362 N   0  0  0  0  0  0  0  0  0  0  0  0
   12.6009  -16.2083   22.8534 C   0  0  1  0  0  0  0  0  0  0  0  0
   11.5388  -17.0733   23.4788 C   0  0  0  0  0  0  0  0  0  0  0  0
   11.6895  -17.2666   24.9289 C   0  0  0  0  0  0  0  0  0  0  0  0
   12.6074  -16.6104   25.5191 O   0  0  0  0  0  0  0  0  0  0  0  0
   13.9510  -16.7788   23.1154 C   0  0  0  0  0  0  0  0  0  0  0  0
   14.7897  -16.1495   24.0224 O   0  0  0  0  0  0  0  0  0  0  0  0
   10.9165  -18.1057   25.7156 O   0  0  0  0  0  0  0  0  0  0  0  0
   14.3740  -17.8164   22.5478 O   0  0  0  0  0  0  0  0  0  0  0  0
  2  1  1  6
  2  3  1  0
  3  4  1  0
  5  2  1  0
  6  5  2  0
  7  5  1  0
  8  7  1  0
  8 12  1  0
  8  9  1  6
 10 14  1  0
 10  9  1  0
 11 10  2  0
 12 15  1  0
 13 12  2  0
 15 16  1  0
 16 17  1  1
 16 20  1  0
 18 22  1  0
 18 17  1  0
 19 18  2  0
 20 21  1  0
 23 20  2  0
M  END
$$$$
