CDD.pdb
     RDKit          3D

 23 22  0  0  1  0  0  0  0  0999 V2000
   12.7753  -17.7083   20.6951 N   0  0  0  0  0  0  0  0  0  0  0  0
   11.7387  -17.8715   21.6822 C   0  0  1  0  0  0  0  0  0  0  0  0
   11.2539  -19.2970   21.7132 C   0  0  0  0  0  0  0  0  0  0  0  0
    9.9813  -19.4513   20.4123 S   0  0  0  0  0  0  0  0  0  0  0  0
   12.1030  -17.3336   22.9962 C   0  0  0  0  0  0  0  0  0  0  0  0
   13.1528  -16.6547   23.1186 O   0  0  0  0  0  0  0  0  0  0  0  0
   11.3104  -17.5494   24.1519 N   0  0  0  0  0  0  0  0  0  0  0  0
   11.6956  -16.9954   25.4170 C   0  0  1  0  0  0  0  0  0  0  0  0
   10.6392  -16.0374   25.9580 C   0  0  0  0  0  0  0  0  0  0  0  0
   11.0675  -15.4206   27.2287 C   0  0  0  0  0  0  0  0  0  0  0  0
   10.4706  -15.7164   28.2839 O   0  0  0  0  0  0  0  0  0  0  0  0
   12.0152  -18.0465   26.4250 C   0  0  0  0  0  0  0  0  0  0  0  0
   12.4460  -17.7288   27.5485 O   0  0  0  0  0  0  0  0  0  0  0  0
   12.1132  -14.5308   27.2447 O   0  0  0  0  0  0  0  0  0  0  0  0
   11.8357  -19.4189   26.1245 N   0  0  0  0  0  0  0  0  0  0  0  0
   12.1152  -20.4881   27.0354 C   0  0  1  0  0  0  0  0  0  0  0  0
   11.7117  -21.7961   26.4081 C   0  0  0  0  0  0  0  0  0  0  0  0
   10.2585  -22.0044   26.3202 C   0  0  0  0  0  0  0  0  0  0  0  0
    9.5047  -21.1489   26.8871 O   0  0  0  0  0  0  0  0  0  0  0  0
   13.5753  -20.4845   27.3267 C   0  0  0  0  0  0  0  0  0  0  0  0
   14.0122  -20.7712   28.6109 O   0  0  0  0  0  0  0  0  0  0  0  0
    9.6320  -23.0566   25.6714 O   0  0  0  0  0  0  0  0  0  0  0  0
   14.4433  -20.2312   26.4549 O   0  0  0  0  0  0  0  0  0  0  0  0
  2  1  1  6
  2  3  1  0
  3  4  1  0
  5  2  1  0
  6  5  2  0
  7  5  1  0
  8  7  1  0
  8 12  1  0
  8  9  1  1
 10 14  1  0
 10  9  1  0
 11 10  2  0
 12 15  1  0
 13 12  2  0
 15 16  1  0
 16 17  1  6
 16 20  1  0
 18 22  1  0
 18 17  1  0
 19 18  2  0
 20 21  1  0
 23 20  2  0
M  END
$$$$
