CDD.pdb
     RDKit          3D

 23 22  0  0  1  0  0  0  0  0999 V2000
    7.6368  -16.3573   21.2046 N   0  0  0  0  0  0  0  0  0  0  0  0
    8.7743  -15.5041   21.4365 C   0  0  1  0  0  0  0  0  0  0  0  0
    8.5127  -14.5713   22.5894 C   0  0  0  0  0  0  0  0  0  0  0  0
    7.1615  -13.4567   22.0720 S   0  0  0  0  0  0  0  0  0  0  0  0
   10.0376  -16.2408   21.5361 C   0  0  0  0  0  0  0  0  0  0  0  0
   10.0827  -17.3071   22.1984 O   0  0  0  0  0  0  0  0  0  0  0  0
   11.2284  -15.7954   20.9081 N   0  0  0  0  0  0  0  0  0  0  0  0
   12.4424  -16.5493   21.0239 C   0  0  1  0  0  0  0  0  0  0  0  0
   13.3740  -16.3028   19.8416 C   0  0  0  0  0  0  0  0  0  0  0  0
   13.7789  -17.5680   19.1983 C   0  0  0  0  0  0  0  0  0  0  0  0
   14.2219  -17.5465   18.0318 O   0  0  0  0  0  0  0  0  0  0  0  0
   13.1504  -16.2937   22.3109 C   0  0  0  0  0  0  0  0  0  0  0  0
   13.5712  -15.1539   22.5806 O   0  0  0  0  0  0  0  0  0  0  0  0
   13.6677  -18.7545   19.8806 O   0  0  0  0  0  0  0  0  0  0  0  0
   13.3566  -17.3375   23.2457 N   0  0  0  0  0  0  0  0  0  0  0  0
   14.0266  -17.1764   24.5012 C   0  0  1  0  0  0  0  0  0  0  0  0
   13.8013  -18.4011   25.3476 C   0  0  0  0  0  0  0  0  0  0  0  0
   12.4852  -18.4531   26.0019 C   0  0  0  0  0  0  0  0  0  0  0  0
   11.7486  -17.4170   25.9283 O   0  0  0  0  0  0  0  0  0  0  0  0
   15.4801  -16.9932   24.2356 C   0  0  0  0  0  0  0  0  0  0  0  0
   16.0776  -17.7061   23.2076 O   0  0  0  0  0  0  0  0  0  0  0  0
   11.9718  -19.5367   26.6967 O   0  0  0  0  0  0  0  0  0  0  0  0
   16.2022  -16.2141   24.9058 O   0  0  0  0  0  0  0  0  0  0  0  0
  2  1  1  1
  2  3  1  0
  3  4  1  0
  5  2  1  0
  6  5  2  0
  7  5  1  0
  8  7  1  0
  8 12  1  0
  8  9  1  6
 10 14  1  0
 10  9  1  0
 11 10  2  0
 12 15  1  0
 13 12  2  0
 15 16  1  0
 16 17  1  1
 16 20  1  0
 18 22  1  0
 18 17  1  0
 19 18  2  0
 20 21  1  0
 23 20  2  0
M  END
$$$$
