RRT.pdb
     RDKit          3D

 30 29  0  0  1  0  0  0  0  0999 V2000
   21.6277  -18.7660  -25.3378 N   0  0  0  0  0  0  0  0  0  0  0  0
   20.9387  -19.9747  -25.0126 C   0  0  0  0  0  0  0  0  0  0  0  0
   20.1279  -20.5238  -25.8459 N   0  0  0  0  0  0  0  0  0  0  0  0
   21.1283  -20.6063  -23.7604 N   0  0  0  0  0  0  0  0  0  0  0  0
   21.7135  -19.8844  -22.6760 C   0  0  0  0  0  0  0  0  0  0  0  0
   20.7670  -19.0440  -21.9040 C   0  0  0  0  0  0  0  0  0  0  0  0
   21.5125  -18.0048  -21.1155 C   0  0  0  0  0  0  0  0  0  0  0  0
   22.6156  -18.5919  -20.3136 C   0  0  2  0  0  0  0  0  0  0  0  0
   22.5134  -20.0288  -20.3305 N   0  0  0  0  0  0  0  0  0  0  0  0
   22.5942  -18.1358  -18.8936 C   0  0  0  0  0  0  0  0  0  0  0  0
   22.4975  -16.9046  -18.6837 O   0  0  0  0  0  0  0  0  0  0  0  0
   19.6507  -21.4043  -25.5999 N   0  0  0  0  0  0  0  0  0  0  0  0
   20.3239  -20.2276  -11.8897 C   0  0  0  0  0  0  0  0  0  0  0  0
   19.6551  -18.9726  -11.9095 N   0  0  0  0  0  0  0  0  0  0  0  0
   18.9039  -18.6253  -10.9257 N   0  0  0  0  0  0  0  0  0  0  0  0
   19.7765  -18.0578  -12.9838 C   0  0  0  0  0  0  0  0  0  0  0  0
   20.2897  -18.5144  -14.2448 C   0  0  0  0  0  0  0  0  0  0  0  0
   21.6495  -19.0977  -14.1673 C   0  0  0  0  0  0  0  0  0  0  0  0
   22.2445  -19.5255  -15.4590 C   0  0  2  0  0  0  0  0  0  0  0  0
   22.6894  -18.4990  -16.4207 N   0  0  0  0  0  0  0  0  0  0  0  0
   22.6752  -19.0081  -17.8034 C   0  0  0  0  0  0  0  0  0  0  0  0
   23.9556  -17.8030  -16.1455 O   0  0  0  0  0  0  0  0  0  0  0  0
   24.9677  -18.4665  -15.7236 C   0  0  0  0  0  0  0  0  0  0  0  0
   18.4205  -17.7061  -10.9754 C   0  0  2  0  0  0  0  0  0  0  0  0
   26.9589  -16.2700  -17.3818 O   0  0  0  0  0  0  0  0  0  0  0  0
   26.1894  -15.1567  -16.7043 C   0  0  2  0  0  0  0  0  0  0  0  0
   25.4261  -14.4462  -17.6315 N   0  0  0  0  0  0  0  0  0  0  0  0
   25.2802  -15.7299  -15.6168 C   0  0  0  0  0  0  0  0  0  0  0  0
   24.1854  -16.4127  -16.3080 O   0  0  0  0  0  0  0  0  0  0  0  0
   24.8309  -14.6888  -14.6900 O   0  0  0  0  0  0  0  0  0  0  0  0
  2  3  2  0
  2  1  1  0
  4  2  1  0
  5  4  1  0
  6  5  1  0
  7  6  1  0
  8  7  1  0
  8  9  1  1
 10  8  1  0
 11 10  2  0
 13 12  1  0
 14 13  2  0
 15 13  1  0
 16 15  1  0
 17 16  1  0
 17 18  1  0
 19 18  1  6
 19 21  1  0
 19 20  1  0
 20 10  1  0
 21 22  2  0
 24 23  1  6
 24 26  1  0
 25 24  1  0
 26 28  1  0
 26 27  1  6
 27 21  1  0
 28 29  2  0
 28 30  1  0
M  END
$$$$
