RRT.pdb
     RDKit          3D

 30 29  0  0  1  0  0  0  0  0999 V2000
   32.8988  -33.4168   -5.6493 N   0  0  0  0  0  0  0  0  0  0  0  0
   33.2279  -34.7108   -6.1580 C   0  0  0  0  0  0  0  0  0  0  0  0
   34.3572  -35.2642   -5.8900 N   0  0  0  0  0  0  0  0  0  0  0  0
   32.3186  -35.4250   -6.9740 N   0  0  0  0  0  0  0  0  0  0  0  0
   30.9117  -35.2654   -6.7873 C   0  0  0  0  0  0  0  0  0  0  0  0
   30.4697  -33.8716   -6.5424 C   0  0  0  0  0  0  0  0  0  0  0  0
   29.0106  -33.8399   -6.1854 C   0  0  0  0  0  0  0  0  0  0  0  0
   28.1599  -34.4405   -7.2437 C   0  0  2  0  0  0  0  0  0  0  0  0
   27.9635  -33.4865   -8.3051 N   0  0  0  0  0  0  0  0  0  0  0  0
   26.8218  -34.8568   -6.7324 C   0  0  0  0  0  0  0  0  0  0  0  0
   25.8569  -34.0867   -6.9452 O   0  0  0  0  0  0  0  0  0  0  0  0
   34.5966  -36.1782   -6.3033 N   0  0  0  0  0  0  0  0  0  0  0  0
   24.7128  -42.5969   -8.4631 C   0  0  0  0  0  0  0  0  0  0  0  0
   24.4675  -41.5448   -9.3882 N   0  0  0  0  0  0  0  0  0  0  0  0
   24.1210  -41.8146  -10.5965 N   0  0  0  0  0  0  0  0  0  0  0  0
   24.5857  -40.1771   -9.0402 C   0  0  0  0  0  0  0  0  0  0  0  0
   24.7173  -39.8094   -7.6584 C   0  0  0  0  0  0  0  0  0  0  0  0
   24.8738  -38.3533   -7.4338 C   0  0  0  0  0  0  0  0  0  0  0  0
   25.0481  -37.9317   -6.0205 C   0  0  2  0  0  0  0  0  0  0  0  0
   25.2349  -36.5005   -5.7147 N   0  0  0  0  0  0  0  0  0  0  0  0
   26.6002  -36.0502   -6.0378 C   0  0  0  0  0  0  0  0  0  0  0  0
   24.8435  -36.0271   -4.3783 O   0  0  0  0  0  0  0  0  0  0  0  0
   25.6860  -36.0768   -3.4137 C   0  0  0  0  0  0  0  0  0  0  0  0
   23.9731  -41.0236  -11.2549 C   0  0  2  0  0  0  0  0  0  0  0  0
   23.0558  -32.7086   -3.5304 O   0  0  0  0  0  0  0  0  0  0  0  0
   22.3498  -33.8353   -2.8074 C   0  0  1  0  0  0  0  0  0  0  0  0
   21.1904  -34.2108   -3.4871 N   0  0  0  0  0  0  0  0  0  0  0  0
   23.2818  -35.0396   -2.6702 C   0  0  0  0  0  0  0  0  0  0  0  0
   23.5757  -35.4946   -4.0301 O   0  0  0  0  0  0  0  0  0  0  0  0
   22.6959  -36.0765   -1.8179 O   0  0  0  0  0  0  0  0  0  0  0  0
  2  3  2  0
  2  1  1  0
  4  2  1  0
  5  4  1  0
  6  5  1  0
  7  6  1  0
  8  7  1  0
  8  9  1  6
 10  8  1  0
 11 10  2  0
 13 12  1  0
 14 13  2  0
 15 13  1  0
 16 15  1  0
 17 16  1  0
 17 18  1  0
 19 18  1  6
 19 21  1  0
 19 20  1  0
 20 10  1  0
 21 22  2  0
 24 23  1  6
 24 26  1  0
 25 24  1  0
 26 28  1  0
 26 27  1  6
 27 21  1  0
 28 29  2  0
 28 30  1  0
M  END
$$$$
