RRT.pdb
     RDKit          3D

 30 29  0  0  1  0  0  0  0  0999 V2000
   21.3200  -10.7478  -15.0955 N   0  0  0  0  0  0  0  0  0  0  0  0
   21.5503   -9.3390  -15.0339 C   0  0  0  0  0  0  0  0  0  0  0  0
   21.3911   -8.5925  -16.0686 N   0  0  0  0  0  0  0  0  0  0  0  0
   21.9610   -8.7205  -13.8290 N   0  0  0  0  0  0  0  0  0  0  0  0
   21.3551   -9.0931  -12.5906 C   0  0  0  0  0  0  0  0  0  0  0  0
   19.9709   -8.5974  -12.4000 C   0  0  0  0  0  0  0  0  0  0  0  0
   19.4801   -8.9322  -11.0199 C   0  0  0  0  0  0  0  0  0  0  0  0
   18.1216   -9.5313  -11.0365 C   0  0  2  0  0  0  0  0  0  0  0  0
   17.8907  -10.1699  -12.3070 N   0  0  0  0  0  0  0  0  0  0  0  0
   17.0486   -8.5185  -10.8177 C   0  0  0  0  0  0  0  0  0  0  0  0
   16.6634   -7.8609  -11.8119 O   0  0  0  0  0  0  0  0  0  0  0  0
   21.5828   -7.5808  -16.0113 N   0  0  0  0  0  0  0  0  0  0  0  0
   10.3274   -8.7030   -5.4515 C   0  0  0  0  0  0  0  0  0  0  0  0
   10.8476   -9.3533   -6.6044 N   0  0  0  0  0  0  0  0  0  0  0  0
   10.4340  -10.5275   -6.9256 N   0  0  0  0  0  0  0  0  0  0  0  0
   11.8226   -8.7602   -7.4428 C   0  0  0  0  0  0  0  0  0  0  0  0
   12.1938   -7.3889   -7.2329 C   0  0  0  0  0  0  0  0  0  0  0  0
   13.1720   -6.8711   -8.2179 C   0  0  0  0  0  0  0  0  0  0  0  0
   14.3469   -7.7405   -8.4811 C   0  0  2  0  0  0  0  0  0  0  0  0
   15.3889   -7.2774   -9.4174 N   0  0  0  0  0  0  0  0  0  0  0  0
   16.4623   -8.2750   -9.5715 C   0  0  0  0  0  0  0  0  0  0  0  0
   15.9614   -5.9400   -9.2008 O   0  0  0  0  0  0  0  0  0  0  0  0
   16.8085   -5.7558   -8.2569 C   0  0  0  0  0  0  0  0  0  0  0  0
   10.8401  -10.9791   -7.7696 C   0  0  2  0  0  0  0  0  0  0  0  0
   17.4272   -3.2956  -11.8547 O   0  0  0  0  0  0  0  0  0  0  0  0
   16.3416   -2.7154  -10.9742 C   0  0  1  0  0  0  0  0  0  0  0  0
   15.1044   -2.7605  -11.6179 N   0  0  0  0  0  0  0  0  0  0  0  0
   16.2662   -3.4837   -9.6544 C   0  0  0  0  0  0  0  0  0  0  0  0
   15.6633   -4.7814   -9.9631 O   0  0  0  0  0  0  0  0  0  0  0  0
   15.5386   -2.7262   -8.6339 O   0  0  0  0  0  0  0  0  0  0  0  0
  2  3  2  0
  2  1  1  0
  4  2  1  0
  5  4  1  0
  6  5  1  0
  7  6  1  0
  8  7  1  0
  8  9  1  6
 10  8  1  0
 11 10  2  0
 13 12  1  0
 14 13  2  0
 15 13  1  0
 16 15  1  0
 17 16  1  0
 17 18  1  0
 19 18  1  6
 19 21  1  0
 19 20  1  0
 20 10  1  0
 21 22  2  0
 24 23  1  6
 24 26  1  0
 25 24  1  0
 26 28  1  0
 26 27  1  6
 27 21  1  0
 28 29  2  0
 28 30  1  0
M  END
$$$$
