RRT.pdb
     RDKit          3D

 30 29  0  0  1  0  0  0  0  0999 V2000
   27.8115  -23.3270  -16.4474 N   0  0  0  0  0  0  0  0  0  0  0  0
   27.6322  -22.0985  -17.1546 C   0  0  0  0  0  0  0  0  0  0  0  0
   28.1737  -21.9075  -18.3051 N   0  0  0  0  0  0  0  0  0  0  0  0
   26.8509  -21.0520  -16.6095 N   0  0  0  0  0  0  0  0  0  0  0  0
   25.5280  -21.3161  -16.1407 C   0  0  0  0  0  0  0  0  0  0  0  0
   24.8632  -22.4802  -16.7739 C   0  0  0  0  0  0  0  0  0  0  0  0
   23.4376  -22.5850  -16.3110 C   0  0  0  0  0  0  0  0  0  0  0  0
   23.3118  -23.3567  -15.0487 C   0  0  2  0  0  0  0  0  0  0  0  0
   23.7733  -24.7051  -15.2588 N   0  0  0  0  0  0  0  0  0  0  0  0
   21.9065  -23.4129  -14.5519 C   0  0  0  0  0  0  0  0  0  0  0  0
   21.0031  -23.6155  -15.3958 O   0  0  0  0  0  0  0  0  0  0  0  0
   28.0162  -21.0225  -18.8107 N   0  0  0  0  0  0  0  0  0  0  0  0
   18.2908  -24.6629   -6.4934 C   0  0  0  0  0  0  0  0  0  0  0  0
   17.2417  -24.8822   -7.4285 N   0  0  0  0  0  0  0  0  0  0  0  0
   16.1105  -25.3477   -7.0328 N   0  0  0  0  0  0  0  0  0  0  0  0
   17.3787  -24.6060   -8.8107 C   0  0  0  0  0  0  0  0  0  0  0  0
   18.6910  -24.5350   -9.3894 C   0  0  0  0  0  0  0  0  0  0  0  0
   18.7040  -24.0888  -10.8022 C   0  0  0  0  0  0  0  0  0  0  0  0
   20.0456  -23.9420  -11.4219 C   0  0  1  0  0  0  0  0  0  0  0  0
   20.1550  -23.3470  -12.7675 N   0  0  0  0  0  0  0  0  0  0  0  0
   21.5583  -23.2527  -13.2069 C   0  0  0  0  0  0  0  0  0  0  0  0
   19.4554  -22.0774  -13.0159 O   0  0  0  0  0  0  0  0  0  0  0  0
   19.8999  -20.9936  -12.4958 C   0  0  0  0  0  0  0  0  0  0  0  0
   15.3615  -25.4892   -7.7399 C   0  0  2  0  0  0  0  0  0  0  0  0
   18.6805  -20.1877  -16.1814 O   0  0  0  0  0  0  0  0  0  0  0  0
   17.3763  -20.4314  -15.4532 C   0  0  2  0  0  0  0  0  0  0  0  0
   16.7259  -21.5553  -15.9642 N   0  0  0  0  0  0  0  0  0  0  0  0
   17.6342  -20.6185  -13.9578 C   0  0  0  0  0  0  0  0  0  0  0  0
   18.2898  -21.9188  -13.8087 O   0  0  0  0  0  0  0  0  0  0  0  0
   16.3994  -20.4911  -13.1807 O   0  0  0  0  0  0  0  0  0  0  0  0
  2  3  2  0
  2  1  1  0
  4  2  1  0
  5  4  1  0
  6  5  1  0
  7  6  1  0
  8  7  1  0
  8  9  1  6
 10  8  1  0
 11 10  2  0
 13 12  1  0
 14 13  2  0
 15 13  1  0
 16 15  1  0
 17 16  1  0
 17 18  1  0
 19 18  1  6
 19 21  1  0
 19 20  1  0
 20 10  1  0
 21 22  2  0
 24 23  1  6
 24 26  1  0
 25 24  1  0
 26 28  1  0
 26 27  1  6
 27 21  1  0
 28 29  2  0
 28 30  1  0
M  END
$$$$
