RRT.pdb
     RDKit          3D

 30 29  0  0  1  0  0  0  0  0999 V2000
   14.1546   -3.7292   -6.5298 N   0  0  0  0  0  0  0  0  0  0  0  0
   13.2142   -4.7649   -6.2392 C   0  0  0  0  0  0  0  0  0  0  0  0
   12.3528   -4.6358   -5.2933 N   0  0  0  0  0  0  0  0  0  0  0  0
   13.2017   -5.9671   -6.9856 N   0  0  0  0  0  0  0  0  0  0  0  0
   13.8421   -6.0245   -8.2608 C   0  0  0  0  0  0  0  0  0  0  0  0
   13.8510   -7.3651   -8.8940 C   0  0  0  0  0  0  0  0  0  0  0  0
   14.4710   -7.2946  -10.2608 C   0  0  0  0  0  0  0  0  0  0  0  0
   14.4410   -8.6042  -10.9598 C   0  0  2  0  0  0  0  0  0  0  0  0
   14.3097   -9.6647   -9.9936 N   0  0  0  0  0  0  0  0  0  0  0  0
   15.6732   -8.8505  -11.7635 C   0  0  0  0  0  0  0  0  0  0  0  0
   16.6463   -9.3824  -11.1808 O   0  0  0  0  0  0  0  0  0  0  0  0
   11.7077   -5.4094   -5.0718 N   0  0  0  0  0  0  0  0  0  0  0  0
   18.7263  -14.2064  -16.3487 C   0  0  0  0  0  0  0  0  0  0  0  0
   17.5259  -14.2274  -15.5863 N   0  0  0  0  0  0  0  0  0  0  0  0
   17.1884  -15.2874  -14.9418 N   0  0  0  0  0  0  0  0  0  0  0  0
   16.6584  -13.1118  -15.4942 C   0  0  0  0  0  0  0  0  0  0  0  0
   17.2147  -11.7929  -15.3800 C   0  0  0  0  0  0  0  0  0  0  0  0
   16.2023  -10.7114  -15.3515 C   0  0  0  0  0  0  0  0  0  0  0  0
   16.7336   -9.3314  -15.2144 C   0  0  2  0  0  0  0  0  0  0  0  0
   17.0243   -8.8032  -13.8679 N   0  0  0  0  0  0  0  0  0  0  0  0
   15.7883   -8.5197  -13.1175 C   0  0  0  0  0  0  0  0  0  0  0  0
   17.9580   -7.6718  -13.7609 O   0  0  0  0  0  0  0  0  0  0  0  0
   17.5063   -6.4723  -13.7570 C   0  0  0  0  0  0  0  0  0  0  0  0
   16.2835  -15.2854  -14.4296 C   0  0  2  0  0  0  0  0  0  0  0  0
   20.9468   -7.2095  -11.2501 O   0  0  0  0  0  0  0  0  0  0  0  0
   21.4062   -6.9745  -12.6729 C   0  0  1  0  0  0  0  0  0  0  0  0
   22.0228   -8.1149  -13.1893 N   0  0  0  0  0  0  0  0  0  0  0  0
   20.2182   -6.5854  -13.5532 C   0  0  0  0  0  0  0  0  0  0  0  0
   19.3688   -7.7733  -13.6537 O   0  0  0  0  0  0  0  0  0  0  0  0
   20.6590   -6.0674  -14.8502 O   0  0  0  0  0  0  0  0  0  0  0  0
  2  3  2  0
  2  1  1  0
  4  2  1  0
  5  4  1  0
  6  5  1  0
  7  6  1  0
  8  7  1  0
  8  9  1  1
 10  8  1  0
 11 10  2  0
 13 12  1  0
 14 13  2  0
 15 13  1  0
 16 15  1  0
 17 16  1  0
 17 18  1  0
 19 18  1  1
 19 21  1  0
 19 20  1  0
 20 10  1  0
 21 22  2  0
 24 23  1  1
 24 26  1  0
 25 24  1  0
 26 28  1  0
 26 27  1  1
 27 21  1  0
 28 29  2  0
 28 30  1  0
M  END
$$$$
