RRT.pdb
     RDKit          3D

 30 29  0  0  1  0  0  0  0  0999 V2000
   20.7912  -17.7738  -15.6715 N   0  0  0  0  0  0  0  0  0  0  0  0
   20.9542  -19.0713  -15.0957 C   0  0  0  0  0  0  0  0  0  0  0  0
   19.9416  -19.7509  -14.6884 N   0  0  0  0  0  0  0  0  0  0  0  0
   22.2383  -19.6495  -14.9562 N   0  0  0  0  0  0  0  0  0  0  0  0
   23.2757  -19.3205  -15.8809 C   0  0  0  0  0  0  0  0  0  0  0  0
   23.5687  -20.3687  -16.8877 C   0  0  0  0  0  0  0  0  0  0  0  0
   24.7365  -19.9629  -17.7416 C   0  0  0  0  0  0  0  0  0  0  0  0
   25.8635  -20.9249  -17.6466 C   0  0  2  0  0  0  0  0  0  0  0  0
   25.4629  -22.1942  -18.1975 N   0  0  0  0  0  0  0  0  0  0  0  0
   26.3105  -21.1429  -16.2403 C   0  0  0  0  0  0  0  0  0  0  0  0
   25.8350  -22.1275  -15.6290 O   0  0  0  0  0  0  0  0  0  0  0  0
   20.0703  -20.7134  -14.3409 N   0  0  0  0  0  0  0  0  0  0  0  0
   32.5752  -23.2599  -11.8488 C   0  0  0  0  0  0  0  0  0  0  0  0
   32.2101  -22.2703  -10.8949 N   0  0  0  0  0  0  0  0  0  0  0  0
   32.7994  -22.2249   -9.7531 N   0  0  0  0  0  0  0  0  0  0  0  0
   31.2054  -21.3033  -11.1420 C   0  0  0  0  0  0  0  0  0  0  0  0
   30.5634  -21.2650  -12.4260 C   0  0  0  0  0  0  0  0  0  0  0  0
   29.5811  -20.1662  -12.5768 C   0  0  0  0  0  0  0  0  0  0  0  0
   28.9895  -20.0086  -13.9299 C   0  0  1  0  0  0  0  0  0  0  0  0
   27.6681  -20.6017  -14.2105 N   0  0  0  0  0  0  0  0  0  0  0  0
   27.2231  -20.3103  -15.5847 C   0  0  0  0  0  0  0  0  0  0  0  0
   26.5810  -20.3399  -13.2551 O   0  0  0  0  0  0  0  0  0  0  0  0
   25.9126  -19.2492  -13.3349 C   0  0  0  0  0  0  0  0  0  0  0  0
   32.4904  -21.5070   -9.0674 C   0  0  1  0  0  0  0  0  0  0  0  0
   23.6833  -21.7633   -9.4672 O   0  0  0  0  0  0  0  0  0  0  0  0
   24.6099  -22.0878  -10.6190 C   0  0  2  0  0  0  0  0  0  0  0  0
   23.9394  -22.8115  -11.6059 N   0  0  0  0  0  0  0  0  0  0  0  0
   25.1779  -20.8006  -11.2176 C   0  0  0  0  0  0  0  0  0  0  0  0
   26.1744  -21.2080  -12.2095 O   0  0  0  0  0  0  0  0  0  0  0  0
   25.7107  -19.9159  -10.1793 O   0  0  0  0  0  0  0  0  0  0  0  0
  2  3  2  0
  2  1  1  0
  4  2  1  0
  5  4  1  0
  6  5  1  0
  7  6  1  0
  8  7  1  0
  8  9  1  1
 10  8  1  0
 11 10  2  0
 13 12  1  0
 14 13  2  0
 15 13  1  0
 16 15  1  0
 17 16  1  0
 17 18  1  0
 19 18  1  6
 19 21  1  0
 19 20  1  0
 20 10  1  0
 21 22  2  0
 24 23  1  6
 24 26  1  0
 25 24  1  0
 26 28  1  0
 26 27  1  6
 27 21  1  0
 28 29  2  0
 28 30  1  0
M  END
$$$$
