ANF.pdb
     RDKit          3D

 25 25  0  0  1  0  0  0  0  0999 V2000
    6.9872  -12.6430   19.4160 C   0  0  0  0  0  0  0  0  0  0  0  0
    8.2443  -13.0985   20.1308 C   0  0  2  0  0  0  0  0  0  0  0  0
    9.1810  -13.5478   19.1216 N   0  0  0  0  0  0  0  0  0  0  0  0
    7.9606  -14.1568   21.1277 C   0  0  0  0  0  0  0  0  0  0  0  0
    7.0845  -14.0666   22.0067 O   0  0  0  0  0  0  0  0  0  0  0  0
    7.3755  -18.2774   19.6845 N   0  0  0  0  0  0  0  0  0  0  0  0
    8.7180  -17.9005   19.9886 C   0  0  0  0  0  0  0  0  0  0  0  0
    9.4938  -17.7742   19.0157 O   0  0  0  0  0  0  0  0  0  0  0  0
    9.2178  -17.6613   21.3455 C   0  0  0  0  0  0  0  0  0  0  0  0
    8.4859  -16.4812   21.9456 C   0  0  2  0  0  0  0  0  0  0  0  0
    8.7235  -15.3422   21.0875 N   0  0  0  0  0  0  0  0  0  0  0  0
    8.8844  -16.2549   23.3358 C   0  0  0  0  0  0  0  0  0  0  0  0
   10.0707  -15.8566   23.5462 O   0  0  0  0  0  0  0  0  0  0  0  0
    8.0696  -16.4387   24.4711 N   0  0  0  0  0  0  0  0  0  0  0  0
    8.5483  -16.2824   25.8559 C   0  0  1  0  0  0  0  0  0  0  0  0
    7.4623  -15.7978   26.7493 C   0  0  0  0  0  0  0  0  0  0  0  0
    7.3534  -14.3303   26.6547 C   0  0  0  0  0  0  0  0  0  0  0  0
    8.4949  -13.5284   26.7913 C   0  0  0  0  0  0  0  0  0  0  0  0
    8.4689  -12.1686   26.6928 C   0  0  0  0  0  0  0  0  0  0  0  0
    7.2750  -11.5167   26.4462 C   0  0  0  0  0  0  0  0  0  0  0  0
    6.1423  -12.2604   26.3069 C   0  0  0  0  0  0  0  0  0  0  0  0
    6.1860  -13.6448   26.4104 C   0  0  0  0  0  0  0  0  0  0  0  0
    9.1101  -17.5716   26.2666 C   0  0  0  0  0  0  0  0  0  0  0  0
    8.9689  -18.7023   25.4952 O   0  0  0  0  0  0  0  0  0  0  0  0
    9.7366  -17.6661   27.3460 O   0  0  0  0  0  0  0  0  0  0  0  0
  2  1  1  6
  2  3  1  0
  4  2  1  0
  4  5  2  0
  7  9  1  0
  7  6  1  0
  8  7  2  0
 10  9  1  6
 10 11  1  0
 11  4  1  0
 12 10  1  0
 13 12  2  0
 14 12  1  0
 15 14  1  0
 15 16  1  1
 16 17  1  0
 17 22  2  0
 18 17  1  0
 18 19  2  0
 19 20  1  0
 20 21  2  0
 22 21  1  0
 23 24  1  0
 23 15  1  0
 25 23  2  0
M  END
$$$$
