ANF.pdb
     RDKit          3D

 25 25  0  0  1  0  0  0  0  0999 V2000
    8.0726  -12.0953   20.5119 C   0  0  0  0  0  0  0  0  0  0  0  0
    8.2655  -13.3893   19.7457 C   0  0  2  0  0  0  0  0  0  0  0  0
    7.2878  -13.4135   18.6775 N   0  0  0  0  0  0  0  0  0  0  0  0
    8.1480  -14.5753   20.6256 C   0  0  0  0  0  0  0  0  0  0  0  0
    7.0649  -15.0921   20.9542 O   0  0  0  0  0  0  0  0  0  0  0  0
   10.8006  -17.5279   19.0567 N   0  0  0  0  0  0  0  0  0  0  0  0
   10.1456  -17.8234   20.2898 C   0  0  0  0  0  0  0  0  0  0  0  0
    9.2278  -18.6718   20.2422 O   0  0  0  0  0  0  0  0  0  0  0  0
   10.4856  -17.1996   21.5717 C   0  0  0  0  0  0  0  0  0  0  0  0
    9.3457  -16.3066   22.0096 C   0  0  2  0  0  0  0  0  0  0  0  0
    9.3285  -15.1620   21.1267 N   0  0  0  0  0  0  0  0  0  0  0  0
    9.4597  -15.9482   23.4242 C   0  0  0  0  0  0  0  0  0  0  0  0
   10.4163  -15.1843   23.7582 O   0  0  0  0  0  0  0  0  0  0  0  0
    8.6014  -16.3740   24.4580 N   0  0  0  0  0  0  0  0  0  0  0  0
    8.7854  -16.0136   25.8749 C   0  0  1  0  0  0  0  0  0  0  0  0
    7.4913  -15.6451   26.5088 C   0  0  0  0  0  0  0  0  0  0  0  0
    7.2342  -14.2052   26.3223 C   0  0  0  0  0  0  0  0  0  0  0  0
    8.1597  -13.2583   26.7824 C   0  0  0  0  0  0  0  0  0  0  0  0
    7.9953  -11.9141   26.6231 C   0  0  0  0  0  0  0  0  0  0  0  0
    6.8724  -11.4271   25.9805 C   0  0  0  0  0  0  0  0  0  0  0  0
    5.9487  -12.3150   25.5182 C   0  0  0  0  0  0  0  0  0  0  0  0
    6.1312  -13.6813   25.6888 C   0  0  0  0  0  0  0  0  0  0  0  0
    9.4527  -17.1443   26.5249 C   0  0  0  0  0  0  0  0  0  0  0  0
    9.6879  -18.3263   25.8607 O   0  0  0  0  0  0  0  0  0  0  0  0
    9.8238  -17.0512   27.7166 O   0  0  0  0  0  0  0  0  0  0  0  0
  2  1  1  1
  2  3  1  0
  4  2  1  0
  4  5  2  0
  7  9  1  0
  7  6  1  0
  8  7  2  0
 10  9  1  6
 10 11  1  0
 11  4  1  0
 12 10  1  0
 13 12  2  0
 14 12  1  0
 15 14  1  0
 15 16  1  1
 16 17  1  0
 17 22  2  0
 18 17  1  0
 18 19  2  0
 19 20  1  0
 20 21  2  0
 22 21  1  0
 23 24  1  0
 23 15  1  0
 25 23  2  0
M  END
$$$$
