ANF.pdb
     RDKit          3D

 25 25  0  0  1  0  0  0  0  0999 V2000
    7.8831  -12.1301   20.4234 C   0  0  0  0  0  0  0  0  0  0  0  0
    8.0654  -13.3968   19.6103 C   0  0  2  0  0  0  0  0  0  0  0  0
    7.0521  -13.4002   18.5754 N   0  0  0  0  0  0  0  0  0  0  0  0
    7.9923  -14.6112   20.4553 C   0  0  0  0  0  0  0  0  0  0  0  0
    6.9702  -15.3097   20.5812 O   0  0  0  0  0  0  0  0  0  0  0  0
   10.5521  -17.4714   19.1738 N   0  0  0  0  0  0  0  0  0  0  0  0
    9.8731  -17.6824   20.4113 C   0  0  0  0  0  0  0  0  0  0  0  0
    8.8914  -18.4568   20.3816 O   0  0  0  0  0  0  0  0  0  0  0  0
   10.2585  -17.0544   21.6783 C   0  0  0  0  0  0  0  0  0  0  0  0
    9.1688  -16.0995   22.1132 C   0  0  2  0  0  0  0  0  0  0  0  0
    9.1446  -15.0089   21.1646 N   0  0  0  0  0  0  0  0  0  0  0  0
    9.3611  -15.6624   23.4969 C   0  0  0  0  0  0  0  0  0  0  0  0
    9.4983  -14.4178   23.7028 O   0  0  0  0  0  0  0  0  0  0  0  0
    9.4087  -16.4987   24.6304 N   0  0  0  0  0  0  0  0  0  0  0  0
    8.6761  -16.2264   25.8796 C   0  0  1  0  0  0  0  0  0  0  0  0
    7.2835  -15.7841   25.6014 C   0  0  0  0  0  0  0  0  0  0  0  0
    7.1291  -14.3617   25.9579 C   0  0  0  0  0  0  0  0  0  0  0  0
    5.9102  -13.7069   25.7337 C   0  0  0  0  0  0  0  0  0  0  0  0
    5.6925  -12.4009   26.0598 C   0  0  0  0  0  0  0  0  0  0  0  0
    6.7019  -11.6570   26.6419 C   0  0  0  0  0  0  0  0  0  0  0  0
    7.9022  -12.2568   26.8766 C   0  0  0  0  0  0  0  0  0  0  0  0
    8.1075  -13.5881   26.5381 C   0  0  0  0  0  0  0  0  0  0  0  0
    8.7507  -17.4398   26.6972 C   0  0  0  0  0  0  0  0  0  0  0  0
    9.1688  -18.6418   26.1736 O   0  0  0  0  0  0  0  0  0  0  0  0
    8.4274  -17.4012   27.9057 O   0  0  0  0  0  0  0  0  0  0  0  0
  2  1  1  1
  2  3  1  0
  4  2  1  0
  4  5  2  0
  7  9  1  0
  7  6  1  0
  8  7  2  0
 10  9  1  6
 10 11  1  0
 11  4  1  0
 12 10  1  0
 13 12  2  0
 14 12  1  0
 15 14  1  0
 15 16  1  6
 16 17  1  0
 17 22  2  0
 18 17  1  0
 18 19  2  0
 19 20  1  0
 20 21  2  0
 22 21  1  0
 23 24  1  0
 23 15  1  0
 25 23  2  0
M  END
$$$$
