ANF.pdb
     RDKit          3D

 25 25  0  0  1  0  0  0  0  0999 V2000
    8.2289  -11.9408   20.3334 C   0  0  0  0  0  0  0  0  0  0  0  0
    8.2419  -13.2787   19.6202 C   0  0  2  0  0  0  0  0  0  0  0  0
    7.2211  -13.2354   18.5936 N   0  0  0  0  0  0  0  0  0  0  0  0
    8.0319  -14.4066   20.5572 C   0  0  0  0  0  0  0  0  0  0  0  0
    6.9214  -14.9158   20.7939 O   0  0  0  0  0  0  0  0  0  0  0  0
    9.0616  -19.4341   22.0098 N   0  0  0  0  0  0  0  0  0  0  0  0
    9.9861  -18.3749   22.2554 C   0  0  0  0  0  0  0  0  0  0  0  0
   10.7799  -18.5398   23.2078 O   0  0  0  0  0  0  0  0  0  0  0  0
   10.0492  -17.1395   21.4693 C   0  0  0  0  0  0  0  0  0  0  0  0
    9.0992  -16.1224   22.0620 C   0  0  2  0  0  0  0  0  0  0  0  0
    9.1509  -14.9434   21.2269 N   0  0  0  0  0  0  0  0  0  0  0  0
    9.4107  -15.8540   23.4668 C   0  0  0  0  0  0  0  0  0  0  0  0
   10.4677  -15.1974   23.7158 O   0  0  0  0  0  0  0  0  0  0  0  0
    8.6426  -16.2586   24.5771 N   0  0  0  0  0  0  0  0  0  0  0  0
    8.9784  -15.9203   25.9715 C   0  0  1  0  0  0  0  0  0  0  0  0
    7.7577  -15.5880   26.7536 C   0  0  0  0  0  0  0  0  0  0  0  0
    7.3140  -14.2191   26.4321 C   0  0  0  0  0  0  0  0  0  0  0  0
    8.1201  -13.1209   26.7621 C   0  0  0  0  0  0  0  0  0  0  0  0
    7.7812  -11.8319   26.4741 C   0  0  0  0  0  0  0  0  0  0  0  0
    6.5915  -11.5592   25.8251 C   0  0  0  0  0  0  0  0  0  0  0  0
    5.7795  -12.5993   25.4868 C   0  0  0  0  0  0  0  0  0  0  0  0
    6.1395  -13.9066   25.7878 C   0  0  0  0  0  0  0  0  0  0  0  0
    9.7335  -17.0497   26.5199 C   0  0  0  0  0  0  0  0  0  0  0  0
   10.4990  -16.9259   27.6567 O   0  0  0  0  0  0  0  0  0  0  0  0
    9.6945  -18.1640   25.9512 O   0  0  0  0  0  0  0  0  0  0  0  0
  2  1  1  1
  2  3  1  0
  4  2  1  0
  4  5  2  0
  7  9  1  0
  7  6  1  0
  8  7  2  0
 10  9  1  6
 10 11  1  0
 11  4  1  0
 12 10  1  0
 13 12  2  0
 14 12  1  0
 15 14  1  0
 15 16  1  1
 16 17  1  0
 17 22  2  0
 18 17  1  0
 18 19  2  0
 19 20  1  0
 20 21  2  0
 22 21  1  0
 23 24  1  0
 23 15  1  0
 25 23  2  0
M  END
$$$$
