ANF.pdb
     RDKit          3D

 25 25  0  0  1  0  0  0  0  0999 V2000
    7.1957  -12.9556   19.0441 C   0  0  0  0  0  0  0  0  0  0  0  0
    8.3727  -13.2295   19.9597 C   0  0  2  0  0  0  0  0  0  0  0  0
    9.5145  -13.5350   19.1226 N   0  0  0  0  0  0  0  0  0  0  0  0
    8.0852  -14.3223   20.9176 C   0  0  0  0  0  0  0  0  0  0  0  0
    7.0636  -14.3745   21.6261 O   0  0  0  0  0  0  0  0  0  0  0  0
    9.8150  -18.1860   18.8973 N   0  0  0  0  0  0  0  0  0  0  0  0
    9.1342  -18.1561   20.1512 C   0  0  0  0  0  0  0  0  0  0  0  0
    7.9715  -18.6171   20.1635 O   0  0  0  0  0  0  0  0  0  0  0  0
    9.7135  -17.6270   21.3892 C   0  0  0  0  0  0  0  0  0  0  0  0
    8.8366  -16.5113   21.9132 C   0  0  2  0  0  0  0  0  0  0  0  0
    9.0189  -15.3718   21.0424 N   0  0  0  0  0  0  0  0  0  0  0  0
    9.1229  -16.2207   23.3188 C   0  0  0  0  0  0  0  0  0  0  0  0
   10.3027  -15.8565   23.6117 O   0  0  0  0  0  0  0  0  0  0  0  0
    8.2060  -16.3076   24.3858 N   0  0  0  0  0  0  0  0  0  0  0  0
    8.5384  -15.9663   25.7802 C   0  0  1  0  0  0  0  0  0  0  0  0
    7.3449  -15.4601   26.5095 C   0  0  0  0  0  0  0  0  0  0  0  0
    7.2301  -14.0010   26.3303 C   0  0  0  0  0  0  0  0  0  0  0  0
    5.9761  -13.4140   26.1123 C   0  0  0  0  0  0  0  0  0  0  0  0
    5.7959  -12.0708   25.9610 C   0  0  0  0  0  0  0  0  0  0  0  0
    6.8819  -11.2174   26.0205 C   0  0  0  0  0  0  0  0  0  0  0  0
    8.1184  -11.7486   26.2311 C   0  0  0  0  0  0  0  0  0  0  0  0
    8.2846  -13.1192   26.3829 C   0  0  0  0  0  0  0  0  0  0  0  0
    9.1303  -17.1608   26.3878 C   0  0  0  0  0  0  0  0  0  0  0  0
    9.9730  -17.0801   27.4726 O   0  0  0  0  0  0  0  0  0  0  0  0
    8.8753  -18.2932   25.9195 O   0  0  0  0  0  0  0  0  0  0  0  0
  2  1  1  6
  2  3  1  0
  4  2  1  0
  4  5  2  0
  7  9  1  0
  7  6  1  0
  8  7  2  0
 10  9  1  6
 10 11  1  0
 11  4  1  0
 12 10  1  0
 13 12  2  0
 14 12  1  0
 15 14  1  0
 15 16  1  1
 16 17  1  0
 17 22  2  0
 18 17  1  0
 18 19  2  0
 19 20  1  0
 20 21  2  0
 22 21  1  0
 23 24  1  0
 23 15  1  0
 25 23  2  0
M  END
$$$$
