ANF.pdb
     RDKit          3D

 25 25  0  0  1  0  0  0  0  0999 V2000
    7.1507  -12.8001   19.3542 C   0  0  0  0  0  0  0  0  0  0  0  0
    8.3952  -13.1492   20.1468 C   0  0  2  0  0  0  0  0  0  0  0  0
    9.4332  -13.4962   19.1982 N   0  0  0  0  0  0  0  0  0  0  0  0
    8.1458  -14.2435   21.1136 C   0  0  0  0  0  0  0  0  0  0  0  0
    7.1691  -14.2812   21.8837 O   0  0  0  0  0  0  0  0  0  0  0  0
    9.5082  -18.2845   19.0413 N   0  0  0  0  0  0  0  0  0  0  0  0
    9.0740  -18.2612   20.4007 C   0  0  0  0  0  0  0  0  0  0  0  0
    8.0191  -18.8819   20.6579 O   0  0  0  0  0  0  0  0  0  0  0  0
    9.7829  -17.5657   21.4786 C   0  0  0  0  0  0  0  0  0  0  0  0
    8.9005  -16.4666   22.0278 C   0  0  2  0  0  0  0  0  0  0  0  0
    9.0643  -15.3120   21.1734 N   0  0  0  0  0  0  0  0  0  0  0  0
    9.1970  -16.1952   23.4352 C   0  0  0  0  0  0  0  0  0  0  0  0
   10.3400  -15.7175   23.7100 O   0  0  0  0  0  0  0  0  0  0  0  0
    8.3271  -16.4157   24.5221 N   0  0  0  0  0  0  0  0  0  0  0  0
    8.6678  -16.0987   25.9203 C   0  0  1  0  0  0  0  0  0  0  0  0
    7.4704  -15.6427   26.6758 C   0  0  0  0  0  0  0  0  0  0  0  0
    7.2935  -14.1889   26.5041 C   0  0  0  0  0  0  0  0  0  0  0  0
    6.0070  -13.6427   26.3986 C   0  0  0  0  0  0  0  0  0  0  0  0
    5.7713  -12.3068   26.2609 C   0  0  0  0  0  0  0  0  0  0  0  0
    6.8305  -11.4193   26.2200 C   0  0  0  0  0  0  0  0  0  0  0  0
    8.0972  -11.9103   26.3196 C   0  0  0  0  0  0  0  0  0  0  0  0
    8.3199  -13.2741   26.4592 C   0  0  0  0  0  0  0  0  0  0  0  0
    9.2993  -17.2907   26.4918 C   0  0  0  0  0  0  0  0  0  0  0  0
   10.0847  -17.2244   27.6197 O   0  0  0  0  0  0  0  0  0  0  0  0
    9.1326  -18.4074   25.9516 O   0  0  0  0  0  0  0  0  0  0  0  0
  2  1  1  6
  2  3  1  0
  4  2  1  0
  4  5  2  0
  7  9  1  0
  7  6  1  0
  8  7  2  0
 10  9  1  6
 10 11  1  0
 11  4  1  0
 12 10  1  0
 13 12  2  0
 14 12  1  0
 15 14  1  0
 15 16  1  1
 16 17  1  0
 17 22  2  0
 18 17  1  0
 18 19  2  0
 19 20  1  0
 20 21  2  0
 22 21  1  0
 23 24  1  0
 23 15  1  0
 25 23  2  0
M  END
$$$$
