ANF.pdb
     RDKit          3D

 25 25  0  0  1  0  0  0  0  0999 V2000
    7.6657  -15.9970   19.6218 C   0  0  0  0  0  0  0  0  0  0  0  0
    7.4481  -16.9869   20.7495 C   0  0  2  0  0  0  0  0  0  0  0  0
    6.6116  -16.3419   21.7405 N   0  0  0  0  0  0  0  0  0  0  0  0
    8.7286  -17.4533   21.3303 C   0  0  0  0  0  0  0  0  0  0  0  0
    9.5481  -18.1663   20.7234 O   0  0  0  0  0  0  0  0  0  0  0  0
   13.2422  -14.7087   22.7292 N   0  0  0  0  0  0  0  0  0  0  0  0
   12.4774  -15.8435   22.3240 C   0  0  0  0  0  0  0  0  0  0  0  0
   13.1159  -16.8987   22.1159 O   0  0  0  0  0  0  0  0  0  0  0  0
   11.0227  -15.8334   22.1447 C   0  0  0  0  0  0  0  0  0  0  0  0
   10.3946  -16.8150   23.1092 C   0  0  2  0  0  0  0  0  0  0  0  0
    9.0482  -17.0722   22.6500 N   0  0  0  0  0  0  0  0  0  0  0  0
   10.4553  -16.3249   24.4871 C   0  0  0  0  0  0  0  0  0  0  0  0
   11.5910  -15.9779   24.9344 O   0  0  0  0  0  0  0  0  0  0  0  0
    9.3642  -16.2008   25.3706 N   0  0  0  0  0  0  0  0  0  0  0  0
    9.5056  -16.0500   26.8296 C   0  0  1  0  0  0  0  0  0  0  0  0
    8.2376  -15.5775   27.4472 C   0  0  0  0  0  0  0  0  0  0  0  0
    7.7986  -14.3291   26.7969 C   0  0  0  0  0  0  0  0  0  0  0  0
    6.7532  -14.3502   25.8635 C   0  0  0  0  0  0  0  0  0  0  0  0
    6.2832  -13.2308   25.2424 C   0  0  0  0  0  0  0  0  0  0  0  0
    6.8424  -11.9984   25.5244 C   0  0  0  0  0  0  0  0  0  0  0  0
    7.8611  -11.9352   26.4265 C   0  0  0  0  0  0  0  0  0  0  0  0
    8.3282  -13.0850   27.0501 C   0  0  0  0  0  0  0  0  0  0  0  0
    9.9657  -17.3382   27.3542 C   0  0  0  0  0  0  0  0  0  0  0  0
   10.6189  -17.4374   28.5613 O   0  0  0  0  0  0  0  0  0  0  0  0
    9.7698  -18.3868   26.6995 O   0  0  0  0  0  0  0  0  0  0  0  0
  2  1  1  6
  2  3  1  0
  4  2  1  0
  4  5  2  0
  7  9  1  0
  7  6  1  0
  8  7  2  0
 10  9  1  6
 10 11  1  0
 11  4  1  0
 12 10  1  0
 13 12  2  0
 14 12  1  0
 15 14  1  0
 15 16  1  1
 16 17  1  0
 17 22  2  0
 18 17  1  0
 18 19  2  0
 19 20  1  0
 20 21  2  0
 22 21  1  0
 23 24  1  0
 23 15  1  0
 25 23  2  0
M  END
$$$$
