ANF.pdb
     RDKit          3D

 25 25  0  0  1  0  0  0  0  0999 V2000
    7.0979  -12.8562   19.0233 C   0  0  0  0  0  0  0  0  0  0  0  0
    8.2762  -13.0666   19.9540 C   0  0  2  0  0  0  0  0  0  0  0  0
    9.4437  -13.3078   19.1316 N   0  0  0  0  0  0  0  0  0  0  0  0
    8.0365  -14.1750   20.9071 C   0  0  0  0  0  0  0  0  0  0  0  0
    7.0323  -14.2590   21.6370 O   0  0  0  0  0  0  0  0  0  0  0  0
    8.3991  -19.6094   21.6058 N   0  0  0  0  0  0  0  0  0  0  0  0
    9.4674  -18.7238   21.9394 C   0  0  0  0  0  0  0  0  0  0  0  0
   10.2073  -19.0765   22.8842 O   0  0  0  0  0  0  0  0  0  0  0  0
    9.7323  -17.4581   21.2495 C   0  0  0  0  0  0  0  0  0  0  0  0
    8.8382  -16.3810   21.8230 C   0  0  2  0  0  0  0  0  0  0  0  0
    8.9981  -15.2024   21.0011 N   0  0  0  0  0  0  0  0  0  0  0  0
    9.1244  -16.1456   23.2390 C   0  0  0  0  0  0  0  0  0  0  0  0
   10.2737  -15.6973   23.5362 O   0  0  0  0  0  0  0  0  0  0  0  0
    8.2382  -16.3713   24.3115 N   0  0  0  0  0  0  0  0  0  0  0  0
    8.5562  -16.0575   25.7157 C   0  0  1  0  0  0  0  0  0  0  0  0
    7.3363  -15.6582   26.4674 C   0  0  0  0  0  0  0  0  0  0  0  0
    7.1413  -14.2001   26.3675 C   0  0  0  0  0  0  0  0  0  0  0  0
    5.8807  -13.6777   26.0468 C   0  0  0  0  0  0  0  0  0  0  0  0
    5.6258  -12.3410   25.9600 C   0  0  0  0  0  0  0  0  0  0  0  0
    6.6376  -11.4285   26.1939 C   0  0  0  0  0  0  0  0  0  0  0  0
    7.8777  -11.8958   26.5087 C   0  0  0  0  0  0  0  0  0  0  0  0
    8.1207  -13.2607   26.5928 C   0  0  0  0  0  0  0  0  0  0  0  0
    9.2306  -17.2301   26.2782 C   0  0  0  0  0  0  0  0  0  0  0  0
    9.3177  -18.4169   25.5871 O   0  0  0  0  0  0  0  0  0  0  0  0
    9.7454  -17.1697   27.4175 O   0  0  0  0  0  0  0  0  0  0  0  0
  2  1  1  6
  2  3  1  0
  4  2  1  0
  4  5  2  0
  7  9  1  0
  7  6  1  0
  8  7  2  0
 10  9  1  6
 10 11  1  0
 11  4  1  0
 12 10  1  0
 13 12  2  0
 14 12  1  0
 15 14  1  0
 15 16  1  1
 16 17  1  0
 17 22  2  0
 18 17  1  0
 18 19  2  0
 19 20  1  0
 20 21  2  0
 22 21  1  0
 23 24  1  0
 23 15  1  0
 25 23  2  0
M  END
$$$$
