VLP.pdb
     RDKit          3D

 23 23  0  0  1  0  0  0  0  0999 V2000
    7.8832  -20.2118   23.5261 C   0  0  0  0  0  0  0  0  0  0  0  0
    7.2439  -20.0265   24.8560 C   0  0  2  0  0  0  0  0  0  0  0  0
    7.0319  -21.4078   25.4653 C   0  0  0  0  0  0  0  0  0  0  0  0
    5.9194  -19.3307   24.8173 C   0  0  2  0  0  0  0  0  0  0  0  0
    4.9258  -20.0410   24.0590 N   0  0  0  0  0  0  0  0  0  0  0  0
    5.9764  -17.9408   24.3660 C   0  0  0  0  0  0  0  0  0  0  0  0
    5.6452  -17.5222   23.2278 O   0  0  0  0  0  0  0  0  0  0  0  0
    8.1249  -12.7940   27.0997 C   0  0  0  0  0  0  0  0  0  0  0  0
    7.2418  -13.4192   26.0526 C   0  0  2  0  0  0  0  0  0  0  0  0
    5.8690  -12.7946   26.1970 C   0  0  0  0  0  0  0  0  0  0  0  0
    7.0820  -14.8940   26.1972 C   0  0  0  0  0  0  0  0  0  0  0  0
    6.7397  -15.5797   24.8703 C   0  0  2  0  0  0  0  0  0  0  0  0
    6.4448  -16.9539   25.2767 N   0  0  0  0  0  0  0  0  0  0  0  0
    7.9362  -15.5119   24.0190 C   0  0  0  0  0  0  0  0  0  0  0  0
    8.9664  -16.0939   24.4342 O   0  0  0  0  0  0  0  0  0  0  0  0
    7.9781  -14.8366   22.7790 N   0  0  0  0  0  0  0  0  0  0  0  0
    7.0764  -13.8685   22.1939 C   0  0  0  0  0  0  0  0  0  0  0  0
    8.0516  -12.9707   21.4555 C   0  0  0  0  0  0  0  0  0  0  0  0
    8.8746  -14.0374   20.7273 C   0  0  0  0  0  0  0  0  0  0  0  0
    9.0687  -15.0462   21.8087 C   0  0  1  0  0  0  0  0  0  0  0  0
   10.3305  -14.7044   22.5100 C   0  0  0  0  0  0  0  0  0  0  0  0
   11.5662  -14.8847   21.9293 O   0  0  0  0  0  0  0  0  0  0  0  0
   10.2657  -14.2360   23.6711 O   0  0  0  0  0  0  0  0  0  0  0  0
  2  1  1  6
  2  3  1  0
  4  2  1  0
  4  6  1  0
  4  5  1  6
  6  7  2  0
  9 11  1  0
  9  8  1  1
 10  9  1  0
 12 11  1  1
 12 14  1  0
 13  6  1  0
 13 12  1  0
 14 15  2  0
 16 17  1  0
 16 14  1  0
 18 17  1  0
 19 20  1  0
 19 18  1  0
 20 16  1  0
 21 22  1  0
 20 21  1  1
 23 21  2  0
M  END
$$$$
