VLP.pdb
     RDKit          3D

 23 23  0  0  1  0  0  0  0  0999 V2000
   10.7499  -18.4642   22.3036 C   0  0  0  0  0  0  0  0  0  0  0  0
    9.4056  -17.9845   21.8861 C   0  0  2  0  0  0  0  0  0  0  0  0
    9.0013  -18.7640   20.6398 C   0  0  0  0  0  0  0  0  0  0  0  0
    9.3402  -16.5254   21.5595 C   0  0  2  0  0  0  0  0  0  0  0  0
   10.2275  -16.1403   20.4960 N   0  0  0  0  0  0  0  0  0  0  0  0
    9.5366  -15.6372   22.7047 C   0  0  0  0  0  0  0  0  0  0  0  0
   10.6143  -15.0738   23.0230 O   0  0  0  0  0  0  0  0  0  0  0  0
    5.5402  -13.0999   26.7274 C   0  0  0  0  0  0  0  0  0  0  0  0
    6.9572  -13.3121   26.2644 C   0  0  2  0  0  0  0  0  0  0  0  0
    7.4995  -11.9578   25.8549 C   0  0  0  0  0  0  0  0  0  0  0  0
    7.0807  -14.2198   25.0888 C   0  0  0  0  0  0  0  0  0  0  0  0
    8.5368  -14.5821   24.7780 C   0  0  2  0  0  0  0  0  0  0  0  0
    8.4248  -15.3701   23.5505 N   0  0  0  0  0  0  0  0  0  0  0  0
    9.0368  -15.3925   25.8978 C   0  0  0  0  0  0  0  0  0  0  0  0
    8.6267  -16.5750   25.9750 O   0  0  0  0  0  0  0  0  0  0  0  0
    9.9409  -14.9113   26.8706 N   0  0  0  0  0  0  0  0  0  0  0  0
   10.3459  -13.5639   27.2068 C   0  0  0  0  0  0  0  0  0  0  0  0
   10.5171  -13.6773   28.7101 C   0  0  0  0  0  0  0  0  0  0  0  0
   11.3679  -14.9492   28.7718 C   0  0  0  0  0  0  0  0  0  0  0  0
   10.6708  -15.8161   27.7780 C   0  0  1  0  0  0  0  0  0  0  0  0
    9.6451  -16.5949   28.5144 C   0  0  0  0  0  0  0  0  0  0  0  0
    9.9769  -17.6087   29.3853 O   0  0  0  0  0  0  0  0  0  0  0  0
    8.4356  -16.3178   28.3348 O   0  0  0  0  0  0  0  0  0  0  0  0
  2  1  1  6
  2  3  1  0
  4  2  1  0
  4  6  1  0
  4  5  1  6
  6  7  2  0
  9 11  1  0
  9  8  1  6
 10  9  1  0
 12 11  1  1
 12 14  1  0
 13  6  1  0
 13 12  1  0
 14 15  2  0
 16 17  1  0
 16 14  1  0
 18 17  1  0
 19 20  1  0
 19 18  1  0
 20 16  1  0
 21 22  1  0
 20 21  1  1
 23 21  2  0
M  END
$$$$
