VLP.pdb
     RDKit          3D

 23 23  0  0  1  0  0  0  0  0999 V2000
    8.6090  -19.6916   25.0485 C   0  0  0  0  0  0  0  0  0  0  0  0
    7.3126  -20.2509   24.5811 C   0  0  2  0  0  0  0  0  0  0  0  0
    7.3332  -20.2581   23.0567 C   0  0  0  0  0  0  0  0  0  0  0  0
    6.1080  -19.4805   25.0229 C   0  0  2  0  0  0  0  0  0  0  0  0
    4.8675  -20.1371   24.7118 N   0  0  0  0  0  0  0  0  0  0  0  0
    6.0620  -18.0988   24.5458 C   0  0  0  0  0  0  0  0  0  0  0  0
    5.5466  -17.7092   23.4674 O   0  0  0  0  0  0  0  0  0  0  0  0
    8.2666  -12.7963   26.9106 C   0  0  0  0  0  0  0  0  0  0  0  0
    7.3618  -13.4947   25.9305 C   0  0  2  0  0  0  0  0  0  0  0  0
    5.9784  -12.9002   26.0996 C   0  0  0  0  0  0  0  0  0  0  0  0
    7.2493  -14.9644   26.1512 C   0  0  0  0  0  0  0  0  0  0  0  0
    6.8711  -15.7221   24.8741 C   0  0  2  0  0  0  0  0  0  0  0  0
    6.6453  -17.0852   25.3551 N   0  0  0  0  0  0  0  0  0  0  0  0
    8.0238  -15.6531   23.9645 C   0  0  0  0  0  0  0  0  0  0  0  0
    9.0800  -16.2173   24.3368 O   0  0  0  0  0  0  0  0  0  0  0  0
    7.9970  -14.9952   22.7147 N   0  0  0  0  0  0  0  0  0  0  0  0
    7.0369  -14.0744   22.1464 C   0  0  0  0  0  0  0  0  0  0  0  0
    7.9491  -13.1480   21.3642 C   0  0  0  0  0  0  0  0  0  0  0  0
    8.7922  -14.1902   20.6238 C   0  0  0  0  0  0  0  0  0  0  0  0
    9.0636  -15.1738   21.7119 C   0  0  1  0  0  0  0  0  0  0  0  0
   10.3319  -14.7692   22.3664 C   0  0  0  0  0  0  0  0  0  0  0  0
   11.5524  -14.8851   21.7391 O   0  0  0  0  0  0  0  0  0  0  0  0
   10.2872  -14.3067   23.5309 O   0  0  0  0  0  0  0  0  0  0  0  0
  2  1  1  1
  2  3  1  0
  4  2  1  0
  4  6  1  0
  4  5  1  6
  6  7  2  0
  9 11  1  0
  9  8  1  1
 10  9  1  0
 12 11  1  1
 12 14  1  0
 13  6  1  0
 13 12  1  0
 14 15  2  0
 16 17  1  0
 16 14  1  0
 18 17  1  0
 19 20  1  0
 19 18  1  0
 20 16  1  0
 21 22  1  0
 20 21  1  1
 23 21  2  0
M  END
$$$$
