VLP.pdb
     RDKit          3D

 23 23  0  0  1  0  0  0  0  0999 V2000
    9.1587  -18.5523   22.6690 C   0  0  0  0  0  0  0  0  0  0  0  0
    9.6911  -17.8301   21.4830 C   0  0  2  0  0  0  0  0  0  0  0  0
   11.2131  -17.8589   21.5671 C   0  0  0  0  0  0  0  0  0  0  0  0
    9.2613  -16.4001   21.3815 C   0  0  2  0  0  0  0  0  0  0  0  0
    9.8341  -15.7127   20.2563 N   0  0  0  0  0  0  0  0  0  0  0  0
    9.4769  -15.6134   22.5954 C   0  0  0  0  0  0  0  0  0  0  0  0
   10.5341  -15.0057   22.9007 O   0  0  0  0  0  0  0  0  0  0  0  0
    5.4419  -13.2130   26.6104 C   0  0  0  0  0  0  0  0  0  0  0  0
    6.8665  -13.4011   26.1606 C   0  0  2  0  0  0  0  0  0  0  0  0
    7.3643  -12.0523   25.6823 C   0  0  0  0  0  0  0  0  0  0  0  0
    7.0237  -14.3635   25.0335 C   0  0  0  0  0  0  0  0  0  0  0  0
    8.4925  -14.6812   24.7339 C   0  0  2  0  0  0  0  0  0  0  0  0
    8.4110  -15.5105   23.5314 N   0  0  0  0  0  0  0  0  0  0  0  0
    9.0208  -15.4376   25.8783 C   0  0  0  0  0  0  0  0  0  0  0  0
    8.6815  -16.6410   25.9734 O   0  0  0  0  0  0  0  0  0  0  0  0
    9.8772  -14.8833   26.8555 N   0  0  0  0  0  0  0  0  0  0  0  0
   10.1731  -13.5071   27.1885 C   0  0  0  0  0  0  0  0  0  0  0  0
   10.3413  -13.6010   28.6936 C   0  0  0  0  0  0  0  0  0  0  0  0
   11.2885  -14.8022   28.7670 C   0  0  0  0  0  0  0  0  0  0  0  0
   10.6688  -15.7248   27.7722 C   0  0  1  0  0  0  0  0  0  0  0  0
    9.7016  -16.5785   28.5045 C   0  0  0  0  0  0  0  0  0  0  0  0
    8.3404  -16.3891   28.4165 O   0  0  0  0  0  0  0  0  0  0  0  0
   10.1424  -17.5029   29.2277 O   0  0  0  0  0  0  0  0  0  0  0  0
  2  1  1  1
  2  3  1  0
  4  2  1  0
  4  6  1  0
  4  5  1  6
  6  7  2  0
  9 11  1  0
  9  8  1  6
 10  9  1  0
 12 11  1  1
 12 14  1  0
 13  6  1  0
 13 12  1  0
 14 15  2  0
 16 17  1  0
 16 14  1  0
 18 17  1  0
 19 20  1  0
 19 18  1  0
 20 16  1  0
 21 22  1  0
 20 21  1  1
 23 21  2  0
M  END
$$$$
