VLP.pdb
     RDKit          3D

 23 23  0  0  1  0  0  0  0  0999 V2000
   10.4476  -18.4280   22.2830 C   0  0  0  0  0  0  0  0  0  0  0  0
    9.1122  -17.9492   21.8368 C   0  0  2  0  0  0  0  0  0  0  0  0
    8.7407  -18.7204   20.5752 C   0  0  0  0  0  0  0  0  0  0  0  0
    9.0499  -16.4879   21.5198 C   0  0  2  0  0  0  0  0  0  0  0  0
    9.8908  -16.1088   20.4171 N   0  0  0  0  0  0  0  0  0  0  0  0
    9.3114  -15.6077   22.6582 C   0  0  0  0  0  0  0  0  0  0  0  0
   10.4243  -15.1085   22.9623 O   0  0  0  0  0  0  0  0  0  0  0  0
    5.5171  -12.7985   26.6951 C   0  0  0  0  0  0  0  0  0  0  0  0
    6.9127  -13.1148   26.2267 C   0  0  2  0  0  0  0  0  0  0  0  0
    7.5275  -11.8151   25.7487 C   0  0  0  0  0  0  0  0  0  0  0  0
    6.9667  -14.0810   25.0932 C   0  0  0  0  0  0  0  0  0  0  0  0
    8.4002  -14.4919   24.7404 C   0  0  2  0  0  0  0  0  0  0  0  0
    8.2267  -15.2705   23.5140 N   0  0  0  0  0  0  0  0  0  0  0  0
    8.9030  -15.3237   25.8432 C   0  0  0  0  0  0  0  0  0  0  0  0
    8.4436  -16.4867   25.9369 O   0  0  0  0  0  0  0  0  0  0  0  0
    9.8616  -14.8832   26.7825 N   0  0  0  0  0  0  0  0  0  0  0  0
   10.3332  -13.5545   27.1064 C   0  0  0  0  0  0  0  0  0  0  0  0
   10.5558  -13.6806   28.6020 C   0  0  0  0  0  0  0  0  0  0  0  0
   11.3560  -14.9861   28.6287 C   0  0  0  0  0  0  0  0  0  0  0  0
   10.5876  -15.8202   27.6598 C   0  0  1  0  0  0  0  0  0  0  0  0
    9.5594  -16.5597   28.4323 C   0  0  0  0  0  0  0  0  0  0  0  0
    9.8800  -17.6040   29.2709 O   0  0  0  0  0  0  0  0  0  0  0  0
    8.3585  -16.2195   28.3148 O   0  0  0  0  0  0  0  0  0  0  0  0
  2  1  1  6
  2  3  1  0
  4  2  1  0
  4  6  1  0
  4  5  1  6
  6  7  2  0
  9 11  1  0
  9  8  1  6
 10  9  1  0
 12 11  1  1
 12 14  1  0
 13  6  1  0
 13 12  1  0
 14 15  2  0
 16 17  1  0
 16 14  1  0
 18 17  1  0
 19 20  1  0
 19 18  1  0
 20 16  1  0
 21 22  1  0
 20 21  1  1
 23 21  2  0
M  END
$$$$
