VLP.pdb
     RDKit          3D

 23 23  0  0  1  0  0  0  0  0999 V2000
    7.6396  -20.0821   23.0260 C   0  0  0  0  0  0  0  0  0  0  0  0
    7.1724  -19.9625   24.4328 C   0  0  2  0  0  0  0  0  0  0  0  0
    6.9660  -21.3725   24.9745 C   0  0  0  0  0  0  0  0  0  0  0  0
    5.8887  -19.2113   24.5996 C   0  0  2  0  0  0  0  0  0  0  0  0
    4.7706  -19.8459   23.9563 N   0  0  0  0  0  0  0  0  0  0  0  0
    5.9504  -17.8065   24.1974 C   0  0  0  0  0  0  0  0  0  0  0  0
    5.5282  -17.3323   23.1124 O   0  0  0  0  0  0  0  0  0  0  0  0
    8.3950  -12.8199   27.0096 C   0  0  0  0  0  0  0  0  0  0  0  0
    7.5494  -13.4017   25.9080 C   0  0  2  0  0  0  0  0  0  0  0  0
    6.1924  -12.7324   25.9873 C   0  0  0  0  0  0  0  0  0  0  0  0
    7.3327  -14.8718   26.0231 C   0  0  0  0  0  0  0  0  0  0  0  0
    6.8628  -15.5002   24.7069 C   0  0  2  0  0  0  0  0  0  0  0  0
    6.5355  -16.8720   25.0958 N   0  0  0  0  0  0  0  0  0  0  0  0
    7.9956  -15.4586   23.7710 C   0  0  0  0  0  0  0  0  0  0  0  0
    9.0223  -16.1052   24.0876 O   0  0  0  0  0  0  0  0  0  0  0  0
    7.9810  -14.7398   22.5550 N   0  0  0  0  0  0  0  0  0  0  0  0
    7.0397  -13.7724   22.0348 C   0  0  0  0  0  0  0  0  0  0  0  0
    7.9700  -12.8279   21.2969 C   0  0  0  0  0  0  0  0  0  0  0  0
    8.7903  -13.8499   20.5043 C   0  0  0  0  0  0  0  0  0  0  0  0
    9.0423  -14.8911   21.5422 C   0  0  1  0  0  0  0  0  0  0  0  0
   10.3197  -14.5457   22.2129 C   0  0  0  0  0  0  0  0  0  0  0  0
   11.5389  -14.6838   21.5877 O   0  0  0  0  0  0  0  0  0  0  0  0
   10.2839  -14.1139   23.3894 O   0  0  0  0  0  0  0  0  0  0  0  0
  2  1  1  6
  2  3  1  0
  4  2  1  0
  4  6  1  0
  4  5  1  6
  6  7  2  0
  9 11  1  0
  9  8  1  1
 10  9  1  0
 12 11  1  1
 12 14  1  0
 13  6  1  0
 13 12  1  0
 14 15  2  0
 16 17  1  0
 16 14  1  0
 18 17  1  0
 19 20  1  0
 19 18  1  0
 20 16  1  0
 21 22  1  0
 20 21  1  1
 23 21  2  0
M  END
$$$$
