VLP.pdb
     RDKit          3D

 23 23  0  0  1  0  0  0  0  0999 V2000
   10.8846  -17.7774   21.5421 C   0  0  0  0  0  0  0  0  0  0  0  0
    9.4008  -17.7043   21.6102 C   0  0  2  0  0  0  0  0  0  0  0  0
    8.8438  -18.4483   20.4016 C   0  0  0  0  0  0  0  0  0  0  0  0
    8.8455  -16.3146   21.5930 C   0  0  2  0  0  0  0  0  0  0  0  0
    9.1411  -15.5990   20.3817 N   0  0  0  0  0  0  0  0  0  0  0  0
    9.2193  -15.4970   22.7466 C   0  0  0  0  0  0  0  0  0  0  0  0
   10.2202  -14.7398   22.8189 O   0  0  0  0  0  0  0  0  0  0  0  0
    7.5077  -12.1018   25.4237 C   0  0  0  0  0  0  0  0  0  0  0  0
    6.6434  -13.3278   25.2925 C   0  0  2  0  0  0  0  0  0  0  0  0
    5.4262  -13.1105   26.1682 C   0  0  0  0  0  0  0  0  0  0  0  0
    7.3035  -14.5853   25.7445 C   0  0  0  0  0  0  0  0  0  0  0  0
    8.6874  -14.7800   25.1160 C   0  0  2  0  0  0  0  0  0  0  0  0
    8.3934  -15.5439   23.9035 N   0  0  0  0  0  0  0  0  0  0  0  0
    9.4952  -15.5600   26.0647 C   0  0  0  0  0  0  0  0  0  0  0  0
    9.5314  -16.8022   25.8977 O   0  0  0  0  0  0  0  0  0  0  0  0
   10.2193  -14.9864   27.1335 N   0  0  0  0  0  0  0  0  0  0  0  0
   10.3324  -13.6137   27.5755 C   0  0  0  0  0  0  0  0  0  0  0  0
   10.4167  -13.7976   29.0792 C   0  0  0  0  0  0  0  0  0  0  0  0
   11.4903  -14.8881   29.1402 C   0  0  0  0  0  0  0  0  0  0  0  0
   11.0446  -15.7990   28.0463 C   0  0  1  0  0  0  0  0  0  0  0  0
   10.1393  -16.8061   28.6520 C   0  0  0  0  0  0  0  0  0  0  0  0
   10.6057  -17.8325   29.4430 O   0  0  0  0  0  0  0  0  0  0  0  0
    8.9079  -16.7168   28.4338 O   0  0  0  0  0  0  0  0  0  0  0  0
  2  1  1  6
  2  3  1  0
  4  2  1  0
  4  6  1  0
  4  5  1  6
  6  7  2  0
  9 11  1  0
  9  8  1  1
 10  9  1  0
 12 11  1  1
 12 14  1  0
 13  6  1  0
 13 12  1  0
 14 15  2  0
 16 17  1  0
 16 14  1  0
 18 17  1  0
 19 20  1  0
 19 18  1  0
 20 16  1  0
 21 22  1  0
 20 21  1  1
 23 21  2  0
M  END
$$$$
