VLP.pdb
     RDKit          3D

 23 23  0  0  1  0  0  0  0  0999 V2000
    7.5299  -13.2543   20.1740 C   0  0  0  0  0  0  0  0  0  0  0  0
    8.5710  -14.2867   19.9253 C   0  0  2  0  0  0  0  0  0  0  0  0
    8.0833  -15.1716   18.7837 C   0  0  0  0  0  0  0  0  0  0  0  0
    8.8657  -15.1675   21.0988 C   0  0  2  0  0  0  0  0  0  0  0  0
    7.8680  -16.1798   21.3148 N   0  0  0  0  0  0  0  0  0  0  0  0
    9.1124  -14.4507   22.3495 C   0  0  0  0  0  0  0  0  0  0  0  0
   10.0140  -13.5962   22.5427 O   0  0  0  0  0  0  0  0  0  0  0  0
    5.6885  -12.9157   27.1542 C   0  0  0  0  0  0  0  0  0  0  0  0
    7.0586  -13.0738   26.5500 C   0  0  2  0  0  0  0  0  0  0  0  0
    7.5734  -11.6822   26.2431 C   0  0  0  0  0  0  0  0  0  0  0  0
    7.0734  -13.8491   25.2772 C   0  0  0  0  0  0  0  0  0  0  0  0
    8.4948  -14.1425   24.7856 C   0  0  2  0  0  0  0  0  0  0  0  0
    8.2714  -14.7262   23.4629 N   0  0  0  0  0  0  0  0  0  0  0  0
    9.0886  -15.1158   25.7135 C   0  0  0  0  0  0  0  0  0  0  0  0
    8.8127  -16.3248   25.5270 O   0  0  0  0  0  0  0  0  0  0  0  0
    9.9399  -14.7598   26.7831 N   0  0  0  0  0  0  0  0  0  0  0  0
   10.2671  -13.4686   27.3473 C   0  0  0  0  0  0  0  0  0  0  0  0
   10.4017  -13.8184   28.8176 C   0  0  0  0  0  0  0  0  0  0  0  0
   11.3132  -15.0437   28.7028 C   0  0  0  0  0  0  0  0  0  0  0  0
   10.6886  -15.7670   27.5576 C   0  0  1  0  0  0  0  0  0  0  0  0
    9.6832  -16.7010   28.1209 C   0  0  0  0  0  0  0  0  0  0  0  0
   10.0406  -17.8623   28.7693 O   0  0  0  0  0  0  0  0  0  0  0  0
    8.4672  -16.4203   28.0004 O   0  0  0  0  0  0  0  0  0  0  0  0
  2  1  1  1
  2  3  1  0
  4  2  1  0
  4  6  1  0
  4  5  1  1
  6  7  2  0
  9 11  1  0
  9  8  1  6
 10  9  1  0
 12 11  1  1
 12 14  1  0
 13  6  1  0
 13 12  1  0
 14 15  2  0
 16 17  1  0
 16 14  1  0
 18 17  1  0
 19 20  1  0
 19 18  1  0
 20 16  1  0
 21 22  1  0
 20 21  1  1
 23 21  2  0
M  END
$$$$
