VLP.pdb
     RDKit          3D

 23 23  0  0  1  0  0  0  0  0999 V2000
    5.2380  -19.0549   21.3729 C   0  0  0  0  0  0  0  0  0  0  0  0
    6.3486  -18.2968   22.0081 C   0  0  2  0  0  0  0  0  0  0  0  0
    6.6247  -18.9300   23.3671 C   0  0  0  0  0  0  0  0  0  0  0  0
    6.0647  -16.8434   22.2249 C   0  0  2  0  0  0  0  0  0  0  0  0
    5.7044  -16.1483   21.0192 N   0  0  0  0  0  0  0  0  0  0  0  0
    7.1299  -16.1121   22.9101 C   0  0  0  0  0  0  0  0  0  0  0  0
    8.2277  -15.7656   22.4050 O   0  0  0  0  0  0  0  0  0  0  0  0
    8.0568  -12.1309   25.4295 C   0  0  0  0  0  0  0  0  0  0  0  0
    6.8585  -12.9963   25.7162 C   0  0  2  0  0  0  0  0  0  0  0  0
    6.0920  -12.3361   26.8442 C   0  0  0  0  0  0  0  0  0  0  0  0
    7.2010  -14.3790   26.1546 C   0  0  0  0  0  0  0  0  0  0  0  0
    7.9869  -15.1537   25.0914 C   0  0  2  0  0  0  0  0  0  0  0  0
    6.9318  -15.7481   24.2706 N   0  0  0  0  0  0  0  0  0  0  0  0
    8.7740  -16.1810   25.7884 C   0  0  0  0  0  0  0  0  0  0  0  0
    8.1942  -16.8305   26.6908 O   0  0  0  0  0  0  0  0  0  0  0  0
   10.1258  -16.4661   25.4936 N   0  0  0  0  0  0  0  0  0  0  0  0
   11.0530  -15.8326   24.5817 C   0  0  0  0  0  0  0  0  0  0  0  0
   12.3523  -15.9540   25.3559 C   0  0  0  0  0  0  0  0  0  0  0  0
   12.2828  -17.4363   25.7344 C   0  0  0  0  0  0  0  0  0  0  0  0
   10.8565  -17.5655   26.1512 C   0  0  1  0  0  0  0  0  0  0  0  0
   10.7970  -17.3004   27.6096 C   0  0  0  0  0  0  0  0  0  0  0  0
   11.2632  -18.2022   28.5402 O   0  0  0  0  0  0  0  0  0  0  0  0
   10.3044  -16.2173   28.0047 O   0  0  0  0  0  0  0  0  0  0  0  0
  2  1  1  1
  2  3  1  0
  4  2  1  0
  4  6  1  0
  4  5  1  6
  6  7  2  0
  9 11  1  0
  9  8  1  1
 10  9  1  0
 12 11  1  1
 12 14  1  0
 13  6  1  0
 13 12  1  0
 14 15  2  0
 16 17  1  0
 16 14  1  0
 18 17  1  0
 19 20  1  0
 19 18  1  0
 20 16  1  0
 21 22  1  0
 20 21  1  1
 23 21  2  0
M  END
$$$$
