VLP.pdb
     RDKit          3D

 23 23  0  0  1  0  0  0  0  0999 V2000
   11.0416  -17.5757   20.8365 C   0  0  0  0  0  0  0  0  0  0  0  0
    9.6649  -17.6784   21.3896 C   0  0  2  0  0  0  0  0  0  0  0  0
    8.8907  -18.6680   20.5262 C   0  0  0  0  0  0  0  0  0  0  0  0
    8.9050  -16.3893   21.4086 C   0  0  2  0  0  0  0  0  0  0  0  0
    9.0698  -15.6142   20.2091 N   0  0  0  0  0  0  0  0  0  0  0  0
    9.1680  -15.5463   22.5745 C   0  0  0  0  0  0  0  0  0  0  0  0
   10.1806  -14.8211   22.7451 O   0  0  0  0  0  0  0  0  0  0  0  0
    7.6412  -12.4001   26.5859 C   0  0  0  0  0  0  0  0  0  0  0  0
    6.7340  -12.9504   25.5176 C   0  0  2  0  0  0  0  0  0  0  0  0
    5.3110  -12.7732   26.0071 C   0  0  0  0  0  0  0  0  0  0  0  0
    6.9362  -14.4006   25.2394 C   0  0  0  0  0  0  0  0  0  0  0  0
    8.3784  -14.7248   24.8356 C   0  0  2  0  0  0  0  0  0  0  0  0
    8.2082  -15.5267   23.6239 N   0  0  0  0  0  0  0  0  0  0  0  0
    8.9738  -15.5109   25.9258 C   0  0  0  0  0  0  0  0  0  0  0  0
    8.6131  -16.7073   26.0304 O   0  0  0  0  0  0  0  0  0  0  0  0
    9.9158  -14.9921   26.8417 N   0  0  0  0  0  0  0  0  0  0  0  0
   10.2676  -13.6284   27.1722 C   0  0  0  0  0  0  0  0  0  0  0  0
   10.5501  -13.7520   28.6578 C   0  0  0  0  0  0  0  0  0  0  0  0
   11.4728  -14.9741   28.6382 C   0  0  0  0  0  0  0  0  0  0  0  0
   10.7570  -15.8659   27.6804 C   0  0  1  0  0  0  0  0  0  0  0  0
    9.8307  -16.7115   28.4726 C   0  0  0  0  0  0  0  0  0  0  0  0
    8.4765  -16.4669   28.5268 O   0  0  0  0  0  0  0  0  0  0  0  0
   10.3005  -17.6811   29.1138 O   0  0  0  0  0  0  0  0  0  0  0  0
  2  1  1  6
  2  3  1  0
  4  2  1  0
  4  6  1  0
  4  5  1  6
  6  7  2  0
  9 11  1  0
  9  8  1  1
 10  9  1  0
 12 11  1  1
 12 14  1  0
 13  6  1  0
 13 12  1  0
 14 15  2  0
 16 17  1  0
 16 14  1  0
 18 17  1  0
 19 20  1  0
 19 18  1  0
 20 16  1  0
 21 22  1  0
 20 21  1  1
 23 21  2  0
M  END
$$$$
