PAK.pdb
     RDKit          3D

 22 22  0  0  1  0  0  0  0  0999 V2000
   27.3205  -19.1840   -5.2178 N   0  0  0  0  0  0  0  0  0  0  0  0
   28.2124  -19.8249   -4.2722 C   0  0  0  0  0  0  0  0  0  0  0  0
   29.5493  -19.1957   -4.6656 C   0  0  0  0  0  0  0  0  0  0  0  0
   29.4859  -19.3655   -6.1818 C   0  0  0  0  0  0  0  0  0  0  0  0
   28.0239  -19.0131   -6.4464 C   0  0  1  0  0  0  0  0  0  0  0  0
   27.4713  -19.9303   -7.4660 C   0  0  0  0  0  0  0  0  0  0  0  0
   28.2298  -20.4777   -8.2763 O   0  0  0  0  0  0  0  0  0  0  0  0
   24.7373  -22.2208   -8.0582 C   0  0  0  0  0  0  0  0  0  0  0  0
   25.5204  -21.0486   -8.5895 C   0  0  2  0  0  0  0  0  0  0  0  0
   26.0756  -20.2233   -7.5656 N   0  0  0  0  0  0  0  0  0  0  0  0
   24.6142  -20.2852   -9.5048 C   0  0  0  0  0  0  0  0  0  0  0  0
   23.8218  -19.4083   -9.0704 O   0  0  0  0  0  0  0  0  0  0  0  0
   24.6178  -20.5253  -10.8999 N   0  0  0  0  0  0  0  0  0  0  0  0
   23.7237  -19.8712  -11.8351 C   0  0  1  0  0  0  0  0  0  0  0  0
   24.2740  -19.9622  -13.2523 C   0  0  0  0  0  0  0  0  0  0  0  0
   23.3737  -19.2444  -14.2274 C   0  0  0  0  0  0  0  0  0  0  0  0
   23.8540  -19.2818  -15.6292 C   0  0  0  0  0  0  0  0  0  0  0  0
   23.0101  -18.5059  -16.6005 C   0  0  0  0  0  0  0  0  0  0  0  0
   23.5189  -18.5989  -17.9424 N   0  0  0  0  0  0  0  0  0  0  0  0
   22.4018  -20.5262  -11.7233 C   0  0  0  0  0  0  0  0  0  0  0  0
   22.2340  -21.7518  -11.4977 O   0  0  0  0  0  0  0  0  0  0  0  0
   21.2626  -19.7480  -11.8755 O   0  0  0  0  0  0  0  0  0  0  0  0
  1  5  1  0
  1  2  1  0
  2  3  1  0
  3  4  1  0
  5  4  1  0
  6 10  1  0
  5  6  1  6
  7  6  2  0
  9 11  1  0
  9  8  1  1
  9 10  1  0
 11 13  1  0
 12 11  2  0
 13 14  1  0
 14 15  1  6
 15 16  1  0
 16 17  1  0
 18 17  1  0
 19 18  1  0
 20 14  1  0
 21 20  2  0
 22 20  1  0
M  END
$$$$
