PAK.pdb
     RDKit          3D

 22 22  0  0  1  0  0  0  0  0999 V2000
   22.7200  -14.0097  -18.9303 N   0  0  0  0  0  0  0  0  0  0  0  0
   22.8523  -15.4204  -18.6257 C   0  0  0  0  0  0  0  0  0  0  0  0
   21.5370  -15.9608  -19.1879 C   0  0  0  0  0  0  0  0  0  0  0  0
   20.5602  -14.9459  -18.5984 C   0  0  0  0  0  0  0  0  0  0  0  0
   21.3472  -13.6511  -18.7872 C   0  0  1  0  0  0  0  0  0  0  0  0
   21.1805  -12.7931  -17.5947 C   0  0  0  0  0  0  0  0  0  0  0  0
   20.0442  -12.4922  -17.2077 O   0  0  0  0  0  0  0  0  0  0  0  0
   23.4270  -11.2106  -14.9579 C   0  0  0  0  0  0  0  0  0  0  0  0
   22.1422  -11.4316  -15.7131 C   0  0  2  0  0  0  0  0  0  0  0  0
   22.2888  -12.2825  -16.8499 N   0  0  0  0  0  0  0  0  0  0  0  0
   21.6025  -10.0838  -16.0786 C   0  0  0  0  0  0  0  0  0  0  0  0
   21.9862   -9.4762  -17.1127 O   0  0  0  0  0  0  0  0  0  0  0  0
   20.6354   -9.4422  -15.2681 N   0  0  0  0  0  0  0  0  0  0  0  0
   20.0803   -8.1338  -15.5541 C   0  0  1  0  0  0  0  0  0  0  0  0
   18.7072   -7.9846  -14.9122 C   0  0  0  0  0  0  0  0  0  0  0  0
   18.1791   -6.5824  -15.0888 C   0  0  0  0  0  0  0  0  0  0  0  0
   17.2199   -6.4376  -16.2096 C   0  0  0  0  0  0  0  0  0  0  0  0
   16.6832   -5.0468  -16.3979 C   0  0  0  0  0  0  0  0  0  0  0  0
   15.6677   -4.9999  -17.4151 N   0  0  0  0  0  0  0  0  0  0  0  0
   21.0313   -7.1225  -15.0423 C   0  0  0  0  0  0  0  0  0  0  0  0
   21.7530   -7.2782  -14.0245 O   0  0  0  0  0  0  0  0  0  0  0  0
   21.1443   -5.9171  -15.7211 O   0  0  0  0  0  0  0  0  0  0  0  0
  1  5  1  0
  1  2  1  0
  2  3  1  0
  3  4  1  0
  5  4  1  0
  6 10  1  0
  5  6  1  1
  7  6  2  0
  9 11  1  0
  9  8  1  6
  9 10  1  0
 11 13  1  0
 12 11  2  0
 13 14  1  0
 14 15  1  1
 15 16  1  0
 16 17  1  0
 18 17  1  0
 19 18  1  0
 20 14  1  0
 21 20  2  0
 22 20  1  0
M  END
$$$$
