PAK.pdb
     RDKit          3D

 22 22  0  0  1  0  0  0  0  0999 V2000
   27.3646  -19.5949  -14.8976 N   0  0  0  0  0  0  0  0  0  0  0  0
   28.7308  -19.4552  -14.4348 C   0  0  0  0  0  0  0  0  0  0  0  0
   29.4123  -20.5877  -15.2038 C   0  0  0  0  0  0  0  0  0  0  0  0
   28.4259  -21.7217  -14.9343 C   0  0  0  0  0  0  0  0  0  0  0  0
   27.0972  -20.9836  -15.0808 C   0  0  1  0  0  0  0  0  0  0  0  0
   26.1561  -21.4491  -14.0398 C   0  0  0  0  0  0  0  0  0  0  0  0
   25.6461  -22.5730  -14.1300 O   0  0  0  0  0  0  0  0  0  0  0  0
   25.0010  -20.4349  -10.5985 C   0  0  0  0  0  0  0  0  0  0  0  0
   24.7973  -21.0327  -11.9663 C   0  0  2  0  0  0  0  0  0  0  0  0
   25.7976  -20.6497  -12.9100 N   0  0  0  0  0  0  0  0  0  0  0  0
   23.4194  -20.6576  -12.4160 C   0  0  0  0  0  0  0  0  0  0  0  0
   23.1717  -19.5293  -12.9175 O   0  0  0  0  0  0  0  0  0  0  0  0
   22.3404  -21.5655  -12.2918 N   0  0  0  0  0  0  0  0  0  0  0  0
   20.9730  -21.2507  -12.6563 C   0  0  1  0  0  0  0  0  0  0  0  0
   20.1148  -22.5090  -12.6465 C   0  0  0  0  0  0  0  0  0  0  0  0
   18.6947  -22.1962  -13.0487 C   0  0  0  0  0  0  0  0  0  0  0  0
   17.7966  -23.3755  -13.0514 C   0  0  0  0  0  0  0  0  0  0  0  0
   16.3729  -23.0767  -13.4273 C   0  0  0  0  0  0  0  0  0  0  0  0
   15.5248  -24.2262  -13.2618 N   0  0  0  0  0  0  0  0  0  0  0  0
   20.4729  -20.2455  -11.6926 C   0  0  0  0  0  0  0  0  0  0  0  0
   20.6935  -20.2778  -10.4551 O   0  0  0  0  0  0  0  0  0  0  0  0
   19.7082  -19.1914  -12.1729 O   0  0  0  0  0  0  0  0  0  0  0  0
  1  5  1  0
  1  2  1  0
  2  3  1  0
  3  4  1  0
  5  4  1  0
  6 10  1  0
  5  6  1  1
  7  6  2  0
  9 11  1  0
  9  8  1  1
  9 10  1  0
 11 13  1  0
 12 11  2  0
 13 14  1  0
 14 15  1  1
 15 16  1  0
 16 17  1  0
 18 17  1  0
 19 18  1  0
 20 14  1  0
 21 20  2  0
 22 20  1  0
M  END
$$$$
