PAK.pdb
     RDKit          3D

 22 22  0  0  1  0  0  0  0  0999 V2000
   19.0569  -16.6237    1.4241 N   0  0  0  0  0  0  0  0  0  0  0  0
   17.8236  -15.9143    1.1488 C   0  0  0  0  0  0  0  0  0  0  0  0
   17.9930  -14.6852    2.0425 C   0  0  0  0  0  0  0  0  0  0  0  0
   18.4356  -15.3595    3.3390 C   0  0  0  0  0  0  0  0  0  0  0  0
   19.3893  -16.4213    2.7960 C   0  0  1  0  0  0  0  0  0  0  0  0
   19.2012  -17.6831    3.5434 C   0  0  0  0  0  0  0  0  0  0  0  0
   18.4760  -18.5712    3.0779 O   0  0  0  0  0  0  0  0  0  0  0  0
   20.8076  -19.4146    6.4987 C   0  0  0  0  0  0  0  0  0  0  0  0
   19.6986  -19.1689    5.5090 C   0  0  2  0  0  0  0  0  0  0  0  0
   19.8279  -17.9347    4.8035 N   0  0  0  0  0  0  0  0  0  0  0  0
   18.4049  -19.2624    6.2569 C   0  0  0  0  0  0  0  0  0  0  0  0
   17.8367  -18.2410    6.7255 O   0  0  0  0  0  0  0  0  0  0  0  0
   17.7720  -20.5117    6.4639 N   0  0  0  0  0  0  0  0  0  0  0  0
   16.4736  -20.6662    7.0901 C   0  0  1  0  0  0  0  0  0  0  0  0
   15.8181  -21.9671    6.6456 C   0  0  0  0  0  0  0  0  0  0  0  0
   15.4245  -21.9028    5.1904 C   0  0  0  0  0  0  0  0  0  0  0  0
   14.8902  -23.1775    4.6549 C   0  0  0  0  0  0  0  0  0  0  0  0
   14.4713  -23.1235    3.2129 C   0  0  0  0  0  0  0  0  0  0  0  0
   14.0765  -24.4167    2.7232 N   0  0  0  0  0  0  0  0  0  0  0  0
   16.6765  -20.6339    8.5553 C   0  0  0  0  0  0  0  0  0  0  0  0
   17.7654  -20.8965    9.1268 O   0  0  0  0  0  0  0  0  0  0  0  0
   15.6020  -20.2927    9.3648 O   0  0  0  0  0  0  0  0  0  0  0  0
  1  5  1  0
  1  2  1  0
  2  3  1  0
  3  4  1  0
  5  4  1  0
  6 10  1  0
  5  6  1  1
  7  6  2  0
  9 11  1  0
  9  8  1  1
  9 10  1  0
 11 13  1  0
 12 11  2  0
 13 14  1  0
 14 15  1  1
 15 16  1  0
 16 17  1  0
 18 17  1  0
 19 18  1  0
 20 14  1  0
 21 20  2  0
 22 20  1  0
M  END
$$$$
