PAK.pdb
     RDKit          3D

 22 22  0  0  1  0  0  0  0  0999 V2000
   27.4172  -21.5988  -13.5792 N   0  0  0  0  0  0  0  0  0  0  0  0
   28.4655  -20.6702  -13.9522 C   0  0  0  0  0  0  0  0  0  0  0  0
   29.1832  -20.4937  -12.6136 C   0  0  0  0  0  0  0  0  0  0  0  0
   27.9833  -20.2593  -11.6987 C   0  0  0  0  0  0  0  0  0  0  0  0
   26.9988  -21.2870  -12.2521 C   0  0  1  0  0  0  0  0  0  0  0  0
   25.6409  -20.7030  -12.2844 C   0  0  0  0  0  0  0  0  0  0  0  0
   25.1587  -20.2106  -11.2566 O   0  0  0  0  0  0  0  0  0  0  0  0
   23.2490  -19.3570  -14.7909 C   0  0  0  0  0  0  0  0  0  0  0  0
   23.5318  -20.1071  -13.5153 C   0  0  2  0  0  0  0  0  0  0  0  0
   24.8394  -20.6776  -13.4680 N   0  0  0  0  0  0  0  0  0  0  0  0
   22.4569  -21.1372  -13.3563 C   0  0  0  0  0  0  0  0  0  0  0  0
   22.3555  -22.1141  -14.1443 O   0  0  0  0  0  0  0  0  0  0  0  0
   21.5113  -21.0469  -12.3067 N   0  0  0  0  0  0  0  0  0  0  0  0
   20.5699  -22.0981  -11.9742 C   0  0  1  0  0  0  0  0  0  0  0  0
   20.3314  -22.1451  -10.4706 C   0  0  0  0  0  0  0  0  0  0  0  0
   19.5745  -23.3915  -10.0835 C   0  0  0  0  0  0  0  0  0  0  0  0
   19.3078  -23.5062   -8.6299 C   0  0  0  0  0  0  0  0  0  0  0  0
   18.5982  -24.7661   -8.2216 C   0  0  0  0  0  0  0  0  0  0  0  0
   18.3693  -24.8137   -6.8026 N   0  0  0  0  0  0  0  0  0  0  0  0
   19.3173  -21.8277  -12.7139 C   0  0  0  0  0  0  0  0  0  0  0  0
   18.8774  -20.6775  -12.9678 O   0  0  0  0  0  0  0  0  0  0  0  0
   18.5683  -22.9063  -13.1634 O   0  0  0  0  0  0  0  0  0  0  0  0
  1  5  1  0
  1  2  1  0
  2  3  1  0
  3  4  1  0
  5  4  1  0
  6 10  1  0
  5  6  1  6
  7  6  2  0
  9 11  1  0
  9  8  1  6
  9 10  1  0
 11 13  1  0
 12 11  2  0
 13 14  1  0
 14 15  1  1
 15 16  1  0
 16 17  1  0
 18 17  1  0
 19 18  1  0
 20 14  1  0
 21 20  2  0
 22 20  1  0
M  END
$$$$
