PAK.pdb
     RDKit          3D

 22 22  0  0  1  0  0  0  0  0999 V2000
   18.1029  -13.7529  -21.2377 N   0  0  0  0  0  0  0  0  0  0  0  0
   18.1733  -15.1412  -20.8279 C   0  0  0  0  0  0  0  0  0  0  0  0
   16.7289  -15.5843  -21.0636 C   0  0  0  0  0  0  0  0  0  0  0  0
   15.9854  -14.4299  -20.3957 C   0  0  0  0  0  0  0  0  0  0  0  0
   16.8251  -13.2430  -20.8626 C   0  0  1  0  0  0  0  0  0  0  0  0
   16.9819  -12.2809  -19.7508 C   0  0  0  0  0  0  0  0  0  0  0  0
   15.9806  -11.7640  -19.2392 O   0  0  0  0  0  0  0  0  0  0  0  0
   19.8216  -10.9167  -17.6146 C   0  0  0  0  0  0  0  0  0  0  0  0
   18.4262  -10.9505  -18.1815 C   0  0  2  0  0  0  0  0  0  0  0  0
   18.2586  -11.9095  -19.2255 N   0  0  0  0  0  0  0  0  0  0  0  0
   18.0927   -9.5609  -18.6281 C   0  0  0  0  0  0  0  0  0  0  0  0
   18.5204   -9.0960  -19.7174 O   0  0  0  0  0  0  0  0  0  0  0  0
   17.2792   -8.7165  -17.8349 N   0  0  0  0  0  0  0  0  0  0  0  0
   16.9124   -7.3644  -18.2077 C   0  0  1  0  0  0  0  0  0  0  0  0
   15.5264   -7.0219  -17.6773 C   0  0  0  0  0  0  0  0  0  0  0  0
   15.1379   -5.6134  -18.0539 C   0  0  0  0  0  0  0  0  0  0  0  0
   13.7713   -5.2314  -17.6254 C   0  0  0  0  0  0  0  0  0  0  0  0
   13.3530   -3.8463  -18.0305 C   0  0  0  0  0  0  0  0  0  0  0  0
   11.9795   -3.5840  -17.6944 N   0  0  0  0  0  0  0  0  0  0  0  0
   17.9427   -6.4542  -17.6610 C   0  0  0  0  0  0  0  0  0  0  0  0
   18.3411   -5.4079  -18.2336 O   0  0  0  0  0  0  0  0  0  0  0  0
   18.5162   -6.7636  -16.4355 O   0  0  0  0  0  0  0  0  0  0  0  0
  1  5  1  0
  1  2  1  0
  2  3  1  0
  3  4  1  0
  5  4  1  0
  6 10  1  0
  5  6  1  1
  7  6  2  0
  9 11  1  0
  9  8  1  6
  9 10  1  0
 11 13  1  0
 12 11  2  0
 13 14  1  0
 14 15  1  1
 15 16  1  0
 16 17  1  0
 18 17  1  0
 19 18  1  0
 20 14  1  0
 21 20  2  0
 22 20  1  0
M  END
$$$$
