PAK.pdb
     RDKit          3D

 22 22  0  0  1  0  0  0  0  0999 V2000
   26.6116  -18.3183  -16.7444 N   0  0  0  0  0  0  0  0  0  0  0  0
   28.0299  -18.0767  -16.5702 C   0  0  0  0  0  0  0  0  0  0  0  0
   28.5907  -18.7329  -17.8324 C   0  0  0  0  0  0  0  0  0  0  0  0
   27.8386  -20.0613  -17.7968 C   0  0  0  0  0  0  0  0  0  0  0  0
   26.4508  -19.5909  -17.3675 C   0  0  1  0  0  0  0  0  0  0  0  0
   25.8822  -20.5502  -16.3967 C   0  0  0  0  0  0  0  0  0  0  0  0
   25.5274  -21.6730  -16.7775 O   0  0  0  0  0  0  0  0  0  0  0  0
   25.4788  -20.8707  -12.6509 C   0  0  0  0  0  0  0  0  0  0  0  0
   25.0809  -21.1181  -14.0827 C   0  0  2  0  0  0  0  0  0  0  0  0
   25.7180  -20.2402  -15.0107 N   0  0  0  0  0  0  0  0  0  0  0  0
   23.5878  -21.0308  -14.1520 C   0  0  0  0  0  0  0  0  0  0  0  0
   22.9915  -19.9224  -14.1927 O   0  0  0  0  0  0  0  0  0  0  0  0
   22.7901  -22.2000  -14.1742 N   0  0  0  0  0  0  0  0  0  0  0  0
   21.3462  -22.1912  -14.3032 C   0  0  1  0  0  0  0  0  0  0  0  0
   20.8177  -23.6083  -14.4831 C   0  0  0  0  0  0  0  0  0  0  0  0
   19.3138  -23.6115  -14.6043 C   0  0  0  0  0  0  0  0  0  0  0  0
   18.8216  -23.4221  -15.9896 C   0  0  0  0  0  0  0  0  0  0  0  0
   18.7044  -24.6881  -16.7904 C   0  0  0  0  0  0  0  0  0  0  0  0
   18.2499  -24.4317  -18.1305 N   0  0  0  0  0  0  0  0  0  0  0  0
   20.7920  -21.5558  -13.0874 C   0  0  0  0  0  0  0  0  0  0  0  0
   21.2763  -21.6873  -11.9345 O   0  0  0  0  0  0  0  0  0  0  0  0
   19.6626  -20.7589  -13.2133 O   0  0  0  0  0  0  0  0  0  0  0  0
  1  5  1  0
  1  2  1  0
  2  3  1  0
  3  4  1  0
  5  4  1  0
  6 10  1  0
  5  6  1  1
  7  6  2  0
  9 11  1  0
  9  8  1  1
  9 10  1  0
 11 13  1  0
 12 11  2  0
 13 14  1  0
 14 15  1  1
 15 16  1  0
 16 17  1  0
 18 17  1  0
 19 18  1  0
 20 14  1  0
 21 20  2  0
 22 20  1  0
M  END
$$$$
