MEE.pdb
     RDKit          3D

 27 26  0  0  1  0  0  0  0  0999 V2000
    6.4313  -11.3270   25.1041 C   0  0  0  0  0  0  0  0  0  0  0  0
    6.9272  -12.5376   26.3578 S   0  0  0  0  0  0  0  0  0  0  0  0
    6.0681  -14.1266   26.0441 C   0  0  0  0  0  0  0  0  0  0  0  0
    7.1203  -15.1896   25.8287 C   0  0  0  0  0  0  0  0  0  0  0  0
    7.1212  -15.7888   24.4734 C   0  0  2  0  0  0  0  0  0  0  0  0
    5.8975  -16.5894   24.3057 N   0  0  0  0  0  0  0  0  0  0  0  0
    8.2624  -16.6337   24.1239 C   0  0  0  0  0  0  0  0  0  0  0  0
    8.4113  -17.7807   24.6859 O   0  0  0  0  0  0  0  0  0  0  0  0
    9.2879  -16.3295   23.1857 N   0  0  0  0  0  0  0  0  0  0  0  0
   10.4387  -17.2279   23.0083 C   0  0  1  0  0  0  0  0  0  0  0  0
   11.1033  -16.7648   21.7525 C   0  0  0  0  0  0  0  0  0  0  0  0
   12.3744  -17.4285   21.3783 C   0  0  0  0  0  0  0  0  0  0  0  0
   12.9442  -17.0172   20.0827 C   0  0  0  0  0  0  0  0  0  0  0  0
   13.9373  -16.2615   19.9732 O   0  0  0  0  0  0  0  0  0  0  0  0
   11.3722  -17.1211   24.1630 C   0  0  0  0  0  0  0  0  0  0  0  0
   11.3476  -16.0897   24.8726 O   0  0  0  0  0  0  0  0  0  0  0  0
   12.3695  -17.4799   18.8801 O   0  0  0  0  0  0  0  0  0  0  0  0
   12.3035  -18.1242   24.5259 N   0  0  0  0  0  0  0  0  0  0  0  0
   13.0538  -18.1144   25.7831 C   0  0  1  0  0  0  0  0  0  0  0  0
   12.1766  -18.0935   26.9711 C   0  0  0  0  0  0  0  0  0  0  0  0
   11.4019  -19.3663   27.1621 C   0  0  0  0  0  0  0  0  0  0  0  0
   11.4255  -19.8140   28.5878 C   0  0  0  0  0  0  0  0  0  0  0  0
   10.4100  -19.6483   29.2892 O   0  0  0  0  0  0  0  0  0  0  0  0
   13.9593  -19.2689   25.7960 C   0  0  0  0  0  0  0  0  0  0  0  0
   13.9385  -20.2527   24.7956 O   0  0  0  0  0  0  0  0  0  0  0  0
   12.5514  -20.3992   29.1066 O   0  0  0  0  0  0  0  0  0  0  0  0
   14.8152  -19.4666   26.6920 O   0  0  0  0  0  0  0  0  0  0  0  0
  2  1  1  0
  3  2  1  0
  4  3  1  0
  4  5  1  0
  5  7  1  0
  5  6  1  1
  7  8  2  0
  9 10  1  0
  9  7  1  0
 10 11  1  6
 11 12  1  0
 13 14  2  0
 13 12  1  0
 15 16  2  0
 15 10  1  0
 17 13  1  0
 18 15  1  0
 19 18  1  0
 19 24  1  0
 19 20  1  1
 21 22  1  0
 21 20  1  0
 22 26  1  0
 23 22  2  0
 24 25  1  0
 27 24  2  0
M  END
$$$$
