MEE.pdb
     RDKit          3D

 27 26  0  0  1  0  0  0  0  0999 V2000
    7.6630  -11.9787   27.1377 C   0  0  0  0  0  0  0  0  0  0  0  0
    6.0994  -12.1244   26.2338 S   0  0  0  0  0  0  0  0  0  0  0  0
    5.3601  -13.7710   26.5559 C   0  0  0  0  0  0  0  0  0  0  0  0
    5.9362  -14.7436   25.5532 C   0  0  0  0  0  0  0  0  0  0  0  0
    7.3866  -14.5776   25.2982 C   0  0  2  0  0  0  0  0  0  0  0  0
    7.6354  -13.2006   24.8417 N   0  0  0  0  0  0  0  0  0  0  0  0
    7.9973  -15.4888   24.3313 C   0  0  0  0  0  0  0  0  0  0  0  0
    7.9825  -16.7572   24.5425 O   0  0  0  0  0  0  0  0  0  0  0  0
    8.6428  -15.1284   23.1156 N   0  0  0  0  0  0  0  0  0  0  0  0
    9.2725  -16.1492   22.2645 C   0  0  1  0  0  0  0  0  0  0  0  0
    9.2358  -15.5800   20.8831 C   0  0  0  0  0  0  0  0  0  0  0  0
    7.9517  -15.6737   20.1494 C   0  0  0  0  0  0  0  0  0  0  0  0
    8.0343  -16.2738   18.8057 C   0  0  0  0  0  0  0  0  0  0  0  0
    9.1161  -16.5124   18.2208 O   0  0  0  0  0  0  0  0  0  0  0  0
   10.6775  -16.3953   22.6905 C   0  0  0  0  0  0  0  0  0  0  0  0
   11.3512  -15.4435   23.1465 O   0  0  0  0  0  0  0  0  0  0  0  0
    6.8544  -16.6128   18.1103 O   0  0  0  0  0  0  0  0  0  0  0  0
   11.3194  -17.6555   22.6183 N   0  0  0  0  0  0  0  0  0  0  0  0
   12.1642  -18.1951   23.6854 C   0  0  1  0  0  0  0  0  0  0  0  0
   11.4808  -18.2252   24.9943 C   0  0  0  0  0  0  0  0  0  0  0  0
   12.2250  -19.0097   26.0371 C   0  0  0  0  0  0  0  0  0  0  0  0
   11.5131  -18.9888   27.3510 C   0  0  0  0  0  0  0  0  0  0  0  0
   10.6037  -18.1574   27.5313 O   0  0  0  0  0  0  0  0  0  0  0  0
   12.6298  -19.5275   23.2844 C   0  0  0  0  0  0  0  0  0  0  0  0
   11.9311  -20.3230   22.3635 O   0  0  0  0  0  0  0  0  0  0  0  0
   11.8608  -19.8762   28.3361 O   0  0  0  0  0  0  0  0  0  0  0  0
   13.6780  -20.0561   23.7272 O   0  0  0  0  0  0  0  0  0  0  0  0
  2  1  1  0
  3  2  1  0
  4  3  1  0
  4  5  1  0
  5  7  1  0
  5  6  1  6
  7  8  2  0
  9 10  1  0
  9  7  1  0
 10 11  1  6
 11 12  1  0
 13 14  2  0
 13 12  1  0
 15 16  2  0
 15 10  1  0
 17 13  1  0
 18 15  1  0
 19 18  1  0
 19 24  1  0
 19 20  1  1
 21 22  1  0
 21 20  1  0
 22 26  1  0
 23 22  2  0
 24 25  1  0
 27 24  2  0
M  END
$$$$
