MEE.pdb
     RDKit          3D

 27 26  0  0  1  0  0  0  0  0999 V2000
    9.1461  -12.6877   18.4001 C   0  0  0  0  0  0  0  0  0  0  0  0
    7.3934  -12.9272   18.7922 S   0  0  0  0  0  0  0  0  0  0  0  0
    7.2156  -14.3336   19.9550 C   0  0  0  0  0  0  0  0  0  0  0  0
    8.3067  -14.2187   20.9940 C   0  0  0  0  0  0  0  0  0  0  0  0
    8.3176  -15.3088   21.9978 C   0  0  2  0  0  0  0  0  0  0  0  0
    7.1120  -15.1978   22.8348 N   0  0  0  0  0  0  0  0  0  0  0  0
    9.4768  -15.3786   22.8866 C   0  0  0  0  0  0  0  0  0  0  0  0
    9.6917  -14.4414   23.7405 O   0  0  0  0  0  0  0  0  0  0  0  0
   10.4531  -16.4128   22.9287 N   0  0  0  0  0  0  0  0  0  0  0  0
   11.7097  -16.2341   23.6717 C   0  0  1  0  0  0  0  0  0  0  0  0
   11.6194  -17.1838   24.8221 C   0  0  0  0  0  0  0  0  0  0  0  0
   10.7939  -16.7644   25.9792 C   0  0  0  0  0  0  0  0  0  0  0  0
   10.8063  -17.6846   27.1305 C   0  0  0  0  0  0  0  0  0  0  0  0
   11.4495  -18.7594   27.1491 O   0  0  0  0  0  0  0  0  0  0  0  0
   12.8799  -16.5642   22.8128 C   0  0  0  0  0  0  0  0  0  0  0  0
   13.0262  -17.7402   22.4087 O   0  0  0  0  0  0  0  0  0  0  0  0
   10.0684  -17.3721   28.2918 O   0  0  0  0  0  0  0  0  0  0  0  0
   13.8585  -15.6236   22.4092 N   0  0  0  0  0  0  0  0  0  0  0  0
   15.0835  -15.9871   21.6947 C   0  0  1  0  0  0  0  0  0  0  0  0
   15.4287  -15.0260   20.6279 C   0  0  0  0  0  0  0  0  0  0  0  0
   14.4132  -14.9734   19.5220 C   0  0  0  0  0  0  0  0  0  0  0  0
   14.8329  -14.0359   18.4364 C   0  0  0  0  0  0  0  0  0  0  0  0
   15.5558  -14.4626   17.5167 O   0  0  0  0  0  0  0  0  0  0  0  0
   16.1696  -16.1288   22.6712 C   0  0  0  0  0  0  0  0  0  0  0  0
   15.9968  -15.8469   24.0349 O   0  0  0  0  0  0  0  0  0  0  0  0
   14.4217  -12.7284   18.4595 O   0  0  0  0  0  0  0  0  0  0  0  0
   17.3264  -16.5092   22.3687 O   0  0  0  0  0  0  0  0  0  0  0  0
  2  1  1  0
  3  2  1  0
  4  3  1  0
  4  5  1  0
  5  7  1  0
  5  6  1  1
  7  8  2  0
  9 10  1  0
  9  7  1  0
 10 11  1  1
 11 12  1  0
 13 14  2  0
 13 12  1  0
 15 16  2  0
 15 10  1  0
 17 13  1  0
 18 15  1  0
 19 18  1  0
 19 24  1  0
 19 20  1  6
 21 22  1  0
 21 20  1  0
 22 26  1  0
 23 22  2  0
 24 25  1  0
 27 24  2  0
M  END
$$$$
