MEE.pdb
     RDKit          3D

 27 26  0  0  1  0  0  0  0  0999 V2000
    7.3114  -12.2113   26.9087 C   0  0  0  0  0  0  0  0  0  0  0  0
    6.5575  -11.5640   25.3935 S   0  0  0  0  0  0  0  0  0  0  0  0
    6.5105  -12.8855   24.1234 C   0  0  0  0  0  0  0  0  0  0  0  0
    7.5805  -12.5848   23.0996 C   0  0  0  0  0  0  0  0  0  0  0  0
    8.2591  -13.7817   22.5492 C   0  0  2  0  0  0  0  0  0  0  0  0
    7.7197  -14.0607   21.2085 N   0  0  0  0  0  0  0  0  0  0  0  0
    8.1709  -15.0123   23.3342 C   0  0  0  0  0  0  0  0  0  0  0  0
    8.6515  -15.0523   24.5263 O   0  0  0  0  0  0  0  0  0  0  0  0
    7.5860  -16.2420   22.9218 N   0  0  0  0  0  0  0  0  0  0  0  0
    7.4725  -17.3735   23.8544 C   0  0  1  0  0  0  0  0  0  0  0  0
    6.8465  -18.4723   23.0580 C   0  0  0  0  0  0  0  0  0  0  0  0
    6.7078  -19.7905   23.7207 C   0  0  0  0  0  0  0  0  0  0  0  0
    6.1335  -20.8603   22.8851 C   0  0  0  0  0  0  0  0  0  0  0  0
    6.8124  -21.7876   22.3867 O   0  0  0  0  0  0  0  0  0  0  0  0
    8.8154  -17.7857   24.3472 C   0  0  0  0  0  0  0  0  0  0  0  0
    9.6840  -18.1443   23.5197 O   0  0  0  0  0  0  0  0  0  0  0  0
    4.7495  -20.8758   22.6112 O   0  0  0  0  0  0  0  0  0  0  0  0
    9.1900  -17.7989   25.7128 N   0  0  0  0  0  0  0  0  0  0  0  0
   10.5075  -18.2276   26.1858 C   0  0  1  0  0  0  0  0  0  0  0  0
   11.0211  -17.3854   27.2850 C   0  0  0  0  0  0  0  0  0  0  0  0
   10.7522  -17.9561   28.6484 C   0  0  0  0  0  0  0  0  0  0  0  0
   11.2134  -17.0334   29.7298 C   0  0  0  0  0  0  0  0  0  0  0  0
   11.6591  -15.9132   29.4178 O   0  0  0  0  0  0  0  0  0  0  0  0
   10.4276  -19.6401   26.5748 C   0  0  0  0  0  0  0  0  0  0  0  0
    9.2041  -20.3073   26.7388 O   0  0  0  0  0  0  0  0  0  0  0  0
   11.1413  -17.4215   31.0425 O   0  0  0  0  0  0  0  0  0  0  0  0
   11.4352  -20.3565   26.7892 O   0  0  0  0  0  0  0  0  0  0  0  0
  2  1  1  0
  3  2  1  0
  4  3  1  0
  4  5  1  0
  5  7  1  0
  5  6  1  6
  7  8  2  0
  9 10  1  0
  9  7  1  0
 10 11  1  6
 11 12  1  0
 13 14  2  0
 13 12  1  0
 15 16  2  0
 15 10  1  0
 17 13  1  0
 18 15  1  0
 19 18  1  0
 19 24  1  0
 19 20  1  1
 21 22  1  0
 21 20  1  0
 22 26  1  0
 23 22  2  0
 24 25  1  0
 27 24  2  0
M  END
$$$$
