MEE.pdb
     RDKit          3D

 27 26  0  0  1  0  0  0  0  0999 V2000
    7.9441  -12.4678   27.8930 C   0  0  0  0  0  0  0  0  0  0  0  0
    6.6946  -11.9385   26.6923 S   0  0  0  0  0  0  0  0  0  0  0  0
    6.1983  -13.3689   25.6583 C   0  0  0  0  0  0  0  0  0  0  0  0
    7.4110  -14.2510   25.4719 C   0  0  0  0  0  0  0  0  0  0  0  0
    7.1785  -15.4463   24.6274 C   0  0  2  0  0  0  0  0  0  0  0  0
    6.1054  -16.2537   25.2298 N   0  0  0  0  0  0  0  0  0  0  0  0
    8.3241  -16.3244   24.3933 C   0  0  0  0  0  0  0  0  0  0  0  0
    8.5322  -17.3320   25.1647 O   0  0  0  0  0  0  0  0  0  0  0  0
    9.2935  -16.1976   23.3595 N   0  0  0  0  0  0  0  0  0  0  0  0
   10.4155  -17.1430   23.2574 C   0  0  1  0  0  0  0  0  0  0  0  0
   11.2016  -16.6864   22.0713 C   0  0  0  0  0  0  0  0  0  0  0  0
   12.4574  -17.4149   21.7739 C   0  0  0  0  0  0  0  0  0  0  0  0
   12.5965  -17.8940   20.3870 C   0  0  0  0  0  0  0  0  0  0  0  0
   12.5152  -19.1010   20.0616 O   0  0  0  0  0  0  0  0  0  0  0  0
   11.2533  -17.0996   24.4872 C   0  0  0  0  0  0  0  0  0  0  0  0
   11.9747  -16.0980   24.6975 O   0  0  0  0  0  0  0  0  0  0  0  0
   12.8325  -16.9748   19.3430 O   0  0  0  0  0  0  0  0  0  0  0  0
   11.2916  -18.1297   25.4580 N   0  0  0  0  0  0  0  0  0  0  0  0
   12.1764  -18.1093   26.6243 C   0  0  1  0  0  0  0  0  0  0  0  0
   11.4790  -18.4664   27.8762 C   0  0  0  0  0  0  0  0  0  0  0  0
   10.7774  -19.7931   27.8098 C   0  0  0  0  0  0  0  0  0  0  0  0
   10.1078  -20.1247   29.1041 C   0  0  0  0  0  0  0  0  0  0  0  0
   10.7971  -20.1987   30.1385 O   0  0  0  0  0  0  0  0  0  0  0  0
   13.3144  -18.9981   26.3633 C   0  0  0  0  0  0  0  0  0  0  0  0
   13.4015  -19.7894   25.2078 O   0  0  0  0  0  0  0  0  0  0  0  0
    8.7546  -20.3404   29.1431 O   0  0  0  0  0  0  0  0  0  0  0  0
   14.2897  -19.1202   27.1432 O   0  0  0  0  0  0  0  0  0  0  0  0
  2  1  1  0
  3  2  1  0
  4  3  1  0
  4  5  1  0
  5  7  1  0
  5  6  1  1
  7  8  2  0
  9 10  1  0
  9  7  1  0
 10 11  1  6
 11 12  1  0
 13 14  2  0
 13 12  1  0
 15 16  2  0
 15 10  1  0
 17 13  1  0
 18 15  1  0
 19 18  1  0
 19 24  1  0
 19 20  1  1
 21 22  1  0
 21 20  1  0
 22 26  1  0
 23 22  2  0
 24 25  1  0
 27 24  2  0
M  END
$$$$
