MEE.pdb
     RDKit          3D

 27 26  0  0  1  0  0  0  0  0999 V2000
    8.1864  -11.2918   26.1515 C   0  0  0  0  0  0  0  0  0  0  0  0
    6.3918  -11.5393   26.1910 S   0  0  0  0  0  0  0  0  0  0  0  0
    6.0089  -13.2882   25.7959 C   0  0  0  0  0  0  0  0  0  0  0  0
    7.0202  -13.7679   24.7808 C   0  0  0  0  0  0  0  0  0  0  0  0
    6.7833  -15.1415   24.2779 C   0  0  2  0  0  0  0  0  0  0  0  0
    5.8835  -15.8412   25.2092 N   0  0  0  0  0  0  0  0  0  0  0  0
    7.9610  -15.9837   24.0729 C   0  0  0  0  0  0  0  0  0  0  0  0
    8.2641  -16.8889   24.9346 O   0  0  0  0  0  0  0  0  0  0  0  0
    8.8661  -15.9251   22.9765 N   0  0  0  0  0  0  0  0  0  0  0  0
    9.9562  -16.9034   22.8452 C   0  0  1  0  0  0  0  0  0  0  0  0
   10.6819  -16.5116   21.5989 C   0  0  0  0  0  0  0  0  0  0  0  0
   11.8541  -17.3329   21.2148 C   0  0  0  0  0  0  0  0  0  0  0  0
   12.5595  -16.8964   19.9966 C   0  0  0  0  0  0  0  0  0  0  0  0
   13.7917  -16.6746   19.9535 O   0  0  0  0  0  0  0  0  0  0  0  0
   10.8662  -16.8380   24.0216 C   0  0  0  0  0  0  0  0  0  0  0  0
   11.1947  -15.7184   24.4758 O   0  0  0  0  0  0  0  0  0  0  0  0
   11.8436  -16.7091   18.7952 O   0  0  0  0  0  0  0  0  0  0  0  0
   11.3956  -17.9748   24.6793 N   0  0  0  0  0  0  0  0  0  0  0  0
   12.1336  -17.9078   25.9420 C   0  0  1  0  0  0  0  0  0  0  0  0
   11.5705  -18.7947   26.9800 C   0  0  0  0  0  0  0  0  0  0  0  0
   12.4322  -18.8989   28.2061 C   0  0  0  0  0  0  0  0  0  0  0  0
   11.8336  -19.8187   29.2205 C   0  0  0  0  0  0  0  0  0  0  0  0
   12.4521  -20.0335   30.2798 O   0  0  0  0  0  0  0  0  0  0  0  0
   13.5445  -18.2102   25.6754 C   0  0  0  0  0  0  0  0  0  0  0  0
   14.5779  -17.7899   26.5266 O   0  0  0  0  0  0  0  0  0  0  0  0
   10.6207  -20.4110   28.9814 O   0  0  0  0  0  0  0  0  0  0  0  0
   13.9355  -18.8615   24.6768 O   0  0  0  0  0  0  0  0  0  0  0  0
  2  1  1  0
  3  2  1  0
  4  3  1  0
  4  5  1  0
  5  7  1  0
  5  6  1  1
  7  8  2  0
  9 10  1  0
  9  7  1  0
 10 11  1  6
 11 12  1  0
 13 14  2  0
 13 12  1  0
 15 16  2  0
 15 10  1  0
 17 13  1  0
 18 15  1  0
 19 18  1  0
 19 24  1  0
 19 20  1  1
 21 22  1  0
 21 20  1  0
 22 26  1  0
 23 22  2  0
 24 25  1  0
 27 24  2  0
M  END
$$$$
