MEE.pdb
     RDKit          3D

 27 26  0  0  1  0  0  0  0  0999 V2000
    6.1061  -11.1560   27.1925 C   0  0  0  0  0  0  0  0  0  0  0  0
    6.7481  -12.7443   26.6022 S   0  0  0  0  0  0  0  0  0  0  0  0
    6.2669  -12.9826   24.8491 C   0  0  0  0  0  0  0  0  0  0  0  0
    6.8026  -14.3215   24.3978 C   0  0  0  0  0  0  0  0  0  0  0  0
    7.8708  -14.2433   23.3736 C   0  0  2  0  0  0  0  0  0  0  0  0
    7.2559  -13.9748   22.0635 N   0  0  0  0  0  0  0  0  0  0  0  0
    8.7387  -15.4116   23.2317 C   0  0  0  0  0  0  0  0  0  0  0  0
    8.9859  -16.1583   24.2490 O   0  0  0  0  0  0  0  0  0  0  0  0
    9.3810  -15.8522   22.0410 N   0  0  0  0  0  0  0  0  0  0  0  0
   10.3199  -16.9840   22.0649 C   0  0  1  0  0  0  0  0  0  0  0  0
   10.8164  -17.1068   20.6607 C   0  0  0  0  0  0  0  0  0  0  0  0
   11.8079  -18.1736   20.3871 C   0  0  0  0  0  0  0  0  0  0  0  0
   12.2985  -18.2391   18.9988 C   0  0  0  0  0  0  0  0  0  0  0  0
   11.9345  -17.4470   18.0992 O   0  0  0  0  0  0  0  0  0  0  0  0
   11.4491  -16.7110   22.9959 C   0  0  0  0  0  0  0  0  0  0  0  0
   12.0329  -15.6048   22.9372 O   0  0  0  0  0  0  0  0  0  0  0  0
   13.2294  -19.2314   18.6253 O   0  0  0  0  0  0  0  0  0  0  0  0
   11.9183  -17.6304   23.9652 N   0  0  0  0  0  0  0  0  0  0  0  0
   12.9515  -17.3089   24.9514 C   0  0  1  0  0  0  0  0  0  0  0  0
   12.5064  -17.5401   26.3405 C   0  0  0  0  0  0  0  0  0  0  0  0
   12.1356  -18.9694   26.6172 C   0  0  0  0  0  0  0  0  0  0  0  0
   11.8199  -19.1841   28.0621 C   0  0  0  0  0  0  0  0  0  0  0  0
   11.9907  -18.2460   28.8630 O   0  0  0  0  0  0  0  0  0  0  0  0
   14.1587  -18.0793   24.6319 C   0  0  0  0  0  0  0  0  0  0  0  0
   15.3920  -17.8388   25.2563 O   0  0  0  0  0  0  0  0  0  0  0  0
   11.3479  -20.3978   28.4902 O   0  0  0  0  0  0  0  0  0  0  0  0
   14.1846  -19.0045   23.7847 O   0  0  0  0  0  0  0  0  0  0  0  0
  2  1  1  0
  3  2  1  0
  4  3  1  0
  4  5  1  0
  5  7  1  0
  5  6  1  6
  7  8  2  0
  9 10  1  0
  9  7  1  0
 10 11  1  6
 11 12  1  0
 13 14  2  0
 13 12  1  0
 15 16  2  0
 15 10  1  0
 17 13  1  0
 18 15  1  0
 19 18  1  0
 19 24  1  0
 19 20  1  1
 21 22  1  0
 21 20  1  0
 22 26  1  0
 23 22  2  0
 24 25  1  0
 27 24  2  0
M  END
$$$$
