YVI.pdb
     RDKit          3D

 28 28  0  0  1  0  0  0  0  0999 V2000
   19.3332  -15.6590  -17.1217 O   0  0  0  0  0  0  0  0  0  0  0  0
   20.1543  -16.5799  -16.4629 C   0  0  0  0  0  0  0  0  0  0  0  0
   21.3501  -16.2094  -15.8905 C   0  0  0  0  0  0  0  0  0  0  0  0
   22.1435  -17.1340  -15.2461 C   0  0  0  0  0  0  0  0  0  0  0  0
   21.7855  -18.4658  -15.1416 C   0  0  0  0  0  0  0  0  0  0  0  0
   22.6372  -19.4657  -14.4479 C   0  0  0  0  0  0  0  0  0  0  0  0
   24.0216  -19.3884  -15.0496 C   0  0  2  0  0  0  0  0  0  0  0  0
   23.8855  -19.6672  -16.4668 N   0  0  0  0  0  0  0  0  0  0  0  0
   24.8641  -20.4766  -14.4384 C   0  0  0  0  0  0  0  0  0  0  0  0
   24.5493  -21.6881  -14.6400 O   0  0  0  0  0  0  0  0  0  0  0  0
   20.5812  -18.8370  -15.7186 C   0  0  0  0  0  0  0  0  0  0  0  0
   19.7912  -17.9053  -16.3627 C   0  0  0  0  0  0  0  0  0  0  0  0
   28.7053  -19.6907  -12.4385 C   0  0  0  0  0  0  0  0  0  0  0  0
   28.3075  -20.8078  -13.3249 C   0  0  2  0  0  0  0  0  0  0  0  0
   28.6556  -20.5803  -14.7793 C   0  0  0  0  0  0  0  0  0  0  0  0
   26.8558  -21.2565  -13.1761 C   0  0  2  0  0  0  0  0  0  0  0  0
   25.9944  -20.1526  -13.6481 N   0  0  0  0  0  0  0  0  0  0  0  0
   26.4622  -21.5279  -11.7850 C   0  0  0  0  0  0  0  0  0  0  0  0
   26.7672  -22.6310  -11.2391 O   0  0  0  0  0  0  0  0  0  0  0  0
   28.1359  -19.2815   -7.4776 C   0  0  0  0  0  0  0  0  0  0  0  0
   27.4761  -20.2158   -8.4218 C   0  0  0  0  0  0  0  0  0  0  0  0
   25.9788  -20.1095   -8.5384 C   0  0  2  0  0  0  0  0  0  0  0  0
   25.4160  -20.2627   -7.1551 C   0  0  0  0  0  0  0  0  0  0  0  0
   25.3541  -20.9635   -9.5707 C   0  0  2  0  0  0  0  0  0  0  0  0
   25.7502  -20.6688  -10.9303 N   0  0  0  0  0  0  0  0  0  0  0  0
   23.8959  -21.0677   -9.5416 C   0  0  0  0  0  0  0  0  0  0  0  0
   23.1528  -21.7151   -8.5732 O   0  0  0  0  0  0  0  0  0  0  0  0
   23.2199  -20.5344  -10.4621 O   0  0  0  0  0  0  0  0  0  0  0  0
  2  1  1  0
  3  2  2  0
  4  3  1  0
  5  4  2  0
  5 11  1  0
  6  5  1  0
  7  6  1  0
  7  9  1  0
  7  8  1  6
  9 10  2  0
 11 12  2  0
 12  2  1  0
 14 13  1  1
 14 15  1  0
 14 16  1  0
 16 17  1  1
 17  9  1  0
 18 16  1  0
 18 19  2  0
 20 21  1  0
 21 22  1  0
 22 23  1  1
 22 24  1  0
 24 25  1  6
 24 26  1  0
 25 18  1  0
 26 28  2  0
 26 27  1  0
M  END
$$$$
