YVI.pdb
     RDKit          3D

 28 28  0  0  1  0  0  0  0  0999 V2000
   28.3373  -19.5207   -4.0610 O   0  0  0  0  0  0  0  0  0  0  0  0
   28.1570  -19.5327   -5.4480 C   0  0  0  0  0  0  0  0  0  0  0  0
   29.1947  -19.2884   -6.3188 C   0  0  0  0  0  0  0  0  0  0  0  0
   28.9942  -19.3054   -7.6823 C   0  0  0  0  0  0  0  0  0  0  0  0
   27.7561  -19.5652   -8.2411 C   0  0  0  0  0  0  0  0  0  0  0  0
   27.5353  -19.5848   -9.7099 C   0  0  0  0  0  0  0  0  0  0  0  0
   27.4033  -21.0288  -10.1367 C   0  0  2  0  0  0  0  0  0  0  0  0
   28.7360  -21.6017  -10.1167 N   0  0  0  0  0  0  0  0  0  0  0  0
   26.9036  -21.0581  -11.5569 C   0  0  0  0  0  0  0  0  0  0  0  0
   27.7150  -20.8218  -12.5020 O   0  0  0  0  0  0  0  0  0  0  0  0
   26.7124  -19.8109   -7.3628 C   0  0  0  0  0  0  0  0  0  0  0  0
   26.9206  -19.7924   -5.9978 C   0  0  0  0  0  0  0  0  0  0  0  0
   24.6220  -23.0089  -15.1054 C   0  0  0  0  0  0  0  0  0  0  0  0
   25.0197  -22.8155  -13.6925 C   0  0  2  0  0  0  0  0  0  0  0  0
   24.2000  -23.6292  -12.7157 C   0  0  0  0  0  0  0  0  0  0  0  0
   25.1086  -21.3578  -13.2469 C   0  0  2  0  0  0  0  0  0  0  0  0
   25.5447  -21.3461  -11.8352 N   0  0  0  0  0  0  0  0  0  0  0  0
   23.8210  -20.6480  -13.2923 C   0  0  0  0  0  0  0  0  0  0  0  0
   23.0538  -20.6526  -12.2827 O   0  0  0  0  0  0  0  0  0  0  0  0
   23.6268  -15.7114  -15.3838 C   0  0  0  0  0  0  0  0  0  0  0  0
   23.3361  -16.9104  -14.5606 C   0  0  0  0  0  0  0  0  0  0  0  0
   22.2219  -17.8023  -15.0400 C   0  0  2  0  0  0  0  0  0  0  0  0
   20.9699  -16.9743  -15.0584 C   0  0  0  0  0  0  0  0  0  0  0  0
   22.1045  -19.1064  -14.3539 C   0  0  2  0  0  0  0  0  0  0  0  0
   23.3009  -19.9191  -14.3757 N   0  0  0  0  0  0  0  0  0  0  0  0
   20.9797  -19.9547  -14.7450 C   0  0  0  0  0  0  0  0  0  0  0  0
   19.7454  -19.9941  -14.1251 O   0  0  0  0  0  0  0  0  0  0  0  0
   21.1054  -20.7330  -15.7285 O   0  0  0  0  0  0  0  0  0  0  0  0
  2  1  1  0
  3  2  2  0
  4  3  1  0
  5  4  2  0
  5 11  1  0
  6  5  1  0
  7  6  1  0
  7  9  1  0
  7  8  1  6
  9 10  2  0
 11 12  2  0
 12  2  1  0
 14 13  1  6
 14 15  1  0
 14 16  1  0
 16 17  1  1
 17  9  1  0
 18 16  1  0
 18 19  2  0
 20 21  1  0
 21 22  1  0
 22 23  1  1
 22 24  1  0
 24 25  1  6
 24 26  1  0
 25 18  1  0
 26 28  2  0
 26 27  1  0
M  END
$$$$
