YVI.pdb
     RDKit          3D

 28 28  0  0  1  0  0  0  0  0999 V2000
   19.9108   -5.5723  -22.4992 O   0  0  0  0  0  0  0  0  0  0  0  0
   19.5337   -6.0814  -21.2522 C   0  0  0  0  0  0  0  0  0  0  0  0
   18.6774   -7.1524  -21.1322 C   0  0  0  0  0  0  0  0  0  0  0  0
   18.3192   -7.6376  -19.8929 C   0  0  0  0  0  0  0  0  0  0  0  0
   18.7946   -7.0816  -18.7192 C   0  0  0  0  0  0  0  0  0  0  0  0
   18.4116   -7.6013  -17.3813 C   0  0  0  0  0  0  0  0  0  0  0  0
   19.6308   -8.2585  -16.7761 C   0  0  2  0  0  0  0  0  0  0  0  0
   19.7816   -9.5498  -17.4200 N   0  0  0  0  0  0  0  0  0  0  0  0
   19.3633   -8.4945  -15.3131 C   0  0  0  0  0  0  0  0  0  0  0  0
   18.6220   -9.4640  -14.9695 O   0  0  0  0  0  0  0  0  0  0  0  0
   19.6567   -6.0033  -18.8419 C   0  0  0  0  0  0  0  0  0  0  0  0
   20.0113   -5.5224  -20.0869 C   0  0  0  0  0  0  0  0  0  0  0  0
   21.9758   -7.0548  -12.2529 C   0  0  0  0  0  0  0  0  0  0  0  0
   21.0735   -8.2284  -12.2726 C   0  0  2  0  0  0  0  0  0  0  0  0
   21.7128   -9.4744  -12.8443 C   0  0  0  0  0  0  0  0  0  0  0  0
   19.7090   -7.9753  -12.9091 C   0  0  2  0  0  0  0  0  0  0  0  0
   19.9321   -7.6453  -14.3321 N   0  0  0  0  0  0  0  0  0  0  0  0
   18.9879   -6.8345  -12.3239 C   0  0  0  0  0  0  0  0  0  0  0  0
   19.3022   -5.6486  -12.6442 O   0  0  0  0  0  0  0  0  0  0  0  0
   15.1348   -3.1650  -11.3089 C   0  0  0  0  0  0  0  0  0  0  0  0
   15.0550   -4.4870  -10.6414 C   0  0  0  0  0  0  0  0  0  0  0  0
   15.8251   -5.6117  -11.2809 C   0  0  2  0  0  0  0  0  0  0  0  0
   14.9839   -6.8490  -11.1581 C   0  0  0  0  0  0  0  0  0  0  0  0
   17.2289   -5.7582  -10.8416 C   0  0  2  0  0  0  0  0  0  0  0  0
   17.9297   -6.8933  -11.4007 N   0  0  0  0  0  0  0  0  0  0  0  0
   17.4695   -5.7495   -9.3994 C   0  0  0  0  0  0  0  0  0  0  0  0
   18.0840   -6.7552   -8.6781 O   0  0  0  0  0  0  0  0  0  0  0  0
   17.0991   -4.7564   -8.7172 O   0  0  0  0  0  0  0  0  0  0  0  0
  2  1  1  0
  3  2  2  0
  4  3  1  0
  5  4  2  0
  5 11  1  0
  6  5  1  0
  7  6  1  0
  7  9  1  0
  7  8  1  6
  9 10  2  0
 11 12  2  0
 12  2  1  0
 14 13  1  6
 14 15  1  0
 14 16  1  0
 16 17  1  6
 17  9  1  0
 18 16  1  0
 18 19  2  0
 20 21  1  0
 21 22  1  0
 22 23  1  1
 22 24  1  0
 24 25  1  1
 24 26  1  0
 25 18  1  0
 26 28  2  0
 26 27  1  0
M  END
$$$$
