YVI.pdb
     RDKit          3D

 28 28  0  0  1  0  0  0  0  0999 V2000
   19.5732  -14.6021  -17.9292 O   0  0  0  0  0  0  0  0  0  0  0  0
   20.2458  -15.7087  -17.4005 C   0  0  0  0  0  0  0  0  0  0  0  0
   20.0647  -16.9779  -17.9015 C   0  0  0  0  0  0  0  0  0  0  0  0
   20.7381  -18.0540  -17.3649 C   0  0  0  0  0  0  0  0  0  0  0  0
   21.6201  -17.9181  -16.3083 C   0  0  0  0  0  0  0  0  0  0  0  0
   22.3484  -19.0749  -15.7270 C   0  0  0  0  0  0  0  0  0  0  0  0
   23.6683  -19.2003  -16.4527 C   0  0  2  0  0  0  0  0  0  0  0  0
   23.4150  -19.9476  -17.6701 N   0  0  0  0  0  0  0  0  0  0  0  0
   24.6047  -20.0091  -15.5944 C   0  0  0  0  0  0  0  0  0  0  0  0
   24.4020  -21.2537  -15.4629 O   0  0  0  0  0  0  0  0  0  0  0  0
   21.8012  -16.6394  -15.8052 C   0  0  0  0  0  0  0  0  0  0  0  0
   21.1232  -15.5657  -16.3478 C   0  0  0  0  0  0  0  0  0  0  0  0
   29.0319  -20.6719  -13.6954 C   0  0  0  0  0  0  0  0  0  0  0  0
   28.0177  -19.9164  -14.4651 C   0  0  2  0  0  0  0  0  0  0  0  0
   28.2618  -18.4238  -14.4867 C   0  0  0  0  0  0  0  0  0  0  0  0
   26.5700  -20.2262  -14.0917 C   0  0  2  0  0  0  0  0  0  0  0  0
   25.6985  -19.3889  -14.9418 N   0  0  0  0  0  0  0  0  0  0  0  0
   26.2369  -19.8948  -12.6978 C   0  0  0  0  0  0  0  0  0  0  0  0
   25.9916  -18.6952  -12.3682 O   0  0  0  0  0  0  0  0  0  0  0  0
   22.0133  -20.9642  -10.1819 C   0  0  0  0  0  0  0  0  0  0  0  0
   23.3392  -20.4316  -10.5795 C   0  0  0  0  0  0  0  0  0  0  0  0
   24.5206  -20.8915   -9.7675 C   0  0  2  0  0  0  0  0  0  0  0  0
   24.2204  -20.5738   -8.3314 C   0  0  0  0  0  0  0  0  0  0  0  0
   25.8436  -20.4411  -10.2490 C   0  0  2  0  0  0  0  0  0  0  0  0
   26.1480  -20.7913  -11.6190 N   0  0  0  0  0  0  0  0  0  0  0  0
   26.9984  -20.8014   -9.4276 C   0  0  0  0  0  0  0  0  0  0  0  0
   27.4215  -20.1340   -8.2940 O   0  0  0  0  0  0  0  0  0  0  0  0
   27.6959  -21.8015   -9.7469 O   0  0  0  0  0  0  0  0  0  0  0  0
  2  1  1  0
  3  2  2  0
  4  3  1  0
  5  4  2  0
  5 11  1  0
  6  5  1  0
  7  6  1  0
  7  9  1  0
  7  8  1  6
  9 10  2  0
 11 12  2  0
 12  2  1  0
 14 13  1  1
 14 15  1  0
 14 16  1  0
 16 17  1  6
 17  9  1  0
 18 16  1  0
 18 19  2  0
 20 21  1  0
 21 22  1  0
 22 23  1  1
 22 24  1  0
 24 25  1  6
 24 26  1  0
 25 18  1  0
 26 28  2  0
 26 27  1  0
M  END
$$$$
