YVI.pdb
     RDKit          3D

 28 28  0  0  1  0  0  0  0  0999 V2000
   19.5095  -17.9734  -15.8089 O   0  0  0  0  0  0  0  0  0  0  0  0
   20.3035  -18.6901  -14.9077 C   0  0  0  0  0  0  0  0  0  0  0  0
   19.9666  -19.9575  -14.4894 C   0  0  0  0  0  0  0  0  0  0  0  0
   20.7641  -20.6455  -13.6005 C   0  0  0  0  0  0  0  0  0  0  0  0
   21.9300  -20.1064  -13.0879 C   0  0  0  0  0  0  0  0  0  0  0  0
   22.7928  -20.8442  -12.1299 C   0  0  0  0  0  0  0  0  0  0  0  0
   24.1099  -21.1235  -12.8169 C   0  0  2  0  0  0  0  0  0  0  0  0
   23.8943  -22.2471  -13.7090 N   0  0  0  0  0  0  0  0  0  0  0  0
   25.1090  -21.5425  -11.7711 C   0  0  0  0  0  0  0  0  0  0  0  0
   24.9713  -22.6664  -11.2007 O   0  0  0  0  0  0  0  0  0  0  0  0
   22.2677  -18.8302  -13.5102 C   0  0  0  0  0  0  0  0  0  0  0  0
   21.4639  -18.1467  -14.4011 C   0  0  0  0  0  0  0  0  0  0  0  0
   29.6543  -21.5653  -10.1872 C   0  0  0  0  0  0  0  0  0  0  0  0
   28.5571  -21.0456  -11.0347 C   0  0  2  0  0  0  0  0  0  0  0  0
   28.7978  -19.6416  -11.5434 C   0  0  0  0  0  0  0  0  0  0  0  0
   27.1631  -21.1725  -10.4250 C   0  0  2  0  0  0  0  0  0  0  0  0
   26.1896  -20.6930  -11.4279 N   0  0  0  0  0  0  0  0  0  0  0  0
   26.9673  -20.3458   -9.2242 C   0  0  0  0  0  0  0  0  0  0  0  0
   26.3637  -19.2337   -9.3066 O   0  0  0  0  0  0  0  0  0  0  0  0
   29.2479  -21.3632   -3.8327 C   0  0  0  0  0  0  0  0  0  0  0  0
   28.9903  -20.7189   -5.1435 C   0  0  0  0  0  0  0  0  0  0  0  0
   27.5543  -20.4040   -5.4684 C   0  0  2  0  0  0  0  0  0  0  0  0
   26.7604  -21.6532   -5.2183 C   0  0  0  0  0  0  0  0  0  0  0  0
   27.3199  -19.7603   -6.7783 C   0  0  2  0  0  0  0  0  0  0  0  0
   27.3868  -20.6491   -7.9175 N   0  0  0  0  0  0  0  0  0  0  0  0
   28.1271  -18.5799   -7.0832 C   0  0  0  0  0  0  0  0  0  0  0  0
   29.2580  -18.5592   -7.8769 O   0  0  0  0  0  0  0  0  0  0  0  0
   27.7969  -17.4638   -6.5994 O   0  0  0  0  0  0  0  0  0  0  0  0
  2  1  1  0
  3  2  2  0
  4  3  1  0
  5  4  2  0
  5 11  1  0
  6  5  1  0
  7  6  1  0
  7  9  1  0
  7  8  1  6
  9 10  2  0
 11 12  2  0
 12  2  1  0
 14 13  1  1
 14 15  1  0
 14 16  1  0
 16 17  1  6
 17  9  1  0
 18 16  1  0
 18 19  2  0
 20 21  1  0
 21 22  1  0
 22 23  1  6
 22 24  1  0
 24 25  1  6
 24 26  1  0
 25 18  1  0
 26 28  2  0
 26 27  1  0
M  END
$$$$
