YVI.pdb
     RDKit          3D

 28 28  0  0  1  0  0  0  0  0999 V2000
   19.0910  -15.4040  -16.4737 O   0  0  0  0  0  0  0  0  0  0  0  0
   19.2399  -16.4805  -15.5932 C   0  0  0  0  0  0  0  0  0  0  0  0
   19.5322  -16.2958  -14.2608 C   0  0  0  0  0  0  0  0  0  0  0  0
   19.6745  -17.3716  -13.4111 C   0  0  0  0  0  0  0  0  0  0  0  0
   19.5332  -18.6768  -13.8458 C   0  0  0  0  0  0  0  0  0  0  0  0
   19.6854  -19.8393  -12.9337 C   0  0  0  0  0  0  0  0  0  0  0  0
   21.1358  -19.9089  -12.5141 C   0  0  2  0  0  0  0  0  0  0  0  0
   21.8888  -20.3760  -13.6628 N   0  0  0  0  0  0  0  0  0  0  0  0
   21.2631  -20.9381  -11.4222 C   0  0  0  0  0  0  0  0  0  0  0  0
   21.1340  -22.1655  -11.7124 O   0  0  0  0  0  0  0  0  0  0  0  0
   19.2388  -18.8609  -15.1877 C   0  0  0  0  0  0  0  0  0  0  0  0
   19.0976  -17.7784  -16.0334 C   0  0  0  0  0  0  0  0  0  0  0  0
   23.0225  -21.9943   -6.9324 C   0  0  0  0  0  0  0  0  0  0  0  0
   22.7318  -21.0689   -8.0509 C   0  0  2  0  0  0  0  0  0  0  0  0
   22.3610  -19.6730   -7.6013 C   0  0  0  0  0  0  0  0  0  0  0  0
   21.7279  -21.5966   -9.0731 C   0  0  2  0  0  0  0  0  0  0  0  0
   21.5241  -20.5416  -10.0874 N   0  0  0  0  0  0  0  0  0  0  0  0
   20.4040  -21.8889   -8.5026 C   0  0  0  0  0  0  0  0  0  0  0  0
   19.5016  -20.9983   -8.4950 O   0  0  0  0  0  0  0  0  0  0  0  0
   15.6957  -25.4733   -8.9650 C   0  0  0  0  0  0  0  0  0  0  0  0
   16.4977  -24.6714   -8.0093 C   0  0  0  0  0  0  0  0  0  0  0  0
   17.8567  -24.2252   -8.4793 C   0  0  2  0  0  0  0  0  0  0  0  0
   18.5588  -25.4383   -9.0167 C   0  0  0  0  0  0  0  0  0  0  0  0
   18.6367  -23.4217   -7.5143 C   0  0  2  0  0  0  0  0  0  0  0  0
   19.9843  -23.1029   -7.9318 N   0  0  0  0  0  0  0  0  0  0  0  0
   18.6997  -23.9236   -6.1424 C   0  0  0  0  0  0  0  0  0  0  0  0
   17.6556  -23.9306   -5.2374 O   0  0  0  0  0  0  0  0  0  0  0  0
   19.7829  -24.3996   -5.7078 O   0  0  0  0  0  0  0  0  0  0  0  0
  2  1  1  0
  3  2  2  0
  4  3  1  0
  5  4  2  0
  5 11  1  0
  6  5  1  0
  7  6  1  0
  7  9  1  0
  7  8  1  6
  9 10  2  0
 11 12  2  0
 12  2  1  0
 14 13  1  1
 14 15  1  0
 14 16  1  0
 16 17  1  6
 17  9  1  0
 18 16  1  0
 18 19  2  0
 20 21  1  0
 21 22  1  0
 22 23  1  1
 22 24  1  0
 24 25  1  6
 24 26  1  0
 25 18  1  0
 26 28  2  0
 26 27  1  0
M  END
$$$$
