YVI.pdb
     RDKit          3D

 28 28  0  0  1  0  0  0  0  0999 V2000
   23.4694  -27.2046  -21.6121 O   0  0  0  0  0  0  0  0  0  0  0  0
   24.1485  -26.6830  -20.5062 C   0  0  0  0  0  0  0  0  0  0  0  0
   23.8447  -25.4468  -19.9823 C   0  0  0  0  0  0  0  0  0  0  0  0
   24.5271  -24.9526  -18.8916 C   0  0  0  0  0  0  0  0  0  0  0  0
   25.5402  -25.6626  -18.2734 C   0  0  0  0  0  0  0  0  0  0  0  0
   26.2782  -25.1341  -17.0976 C   0  0  0  0  0  0  0  0  0  0  0  0
   27.2872  -24.1277  -17.6012 C   0  0  2  0  0  0  0  0  0  0  0  0
   28.4597  -24.8734  -18.0183 N   0  0  0  0  0  0  0  0  0  0  0  0
   27.6832  -23.2395  -16.4515 C   0  0  0  0  0  0  0  0  0  0  0  0
   28.5893  -23.6282  -15.6544 O   0  0  0  0  0  0  0  0  0  0  0  0
   25.8448  -26.9070  -18.8022 C   0  0  0  0  0  0  0  0  0  0  0  0
   25.1569  -27.3961  -19.8953 C   0  0  0  0  0  0  0  0  0  0  0  0
   26.7985  -18.7116  -15.0908 C   0  0  0  0  0  0  0  0  0  0  0  0
   27.7125  -19.7317  -15.6528 C   0  0  2  0  0  0  0  0  0  0  0  0
   27.7754  -19.7218  -17.1641 C   0  0  0  0  0  0  0  0  0  0  0  0
   27.4919  -21.1478  -15.1262 C   0  0  2  0  0  0  0  0  0  0  0  0
   27.0525  -21.9851  -16.2616 N   0  0  0  0  0  0  0  0  0  0  0  0
   26.4359  -21.2396  -14.1064 C   0  0  0  0  0  0  0  0  0  0  0  0
   25.3284  -21.7919  -14.3824 O   0  0  0  0  0  0  0  0  0  0  0  0
   25.2242  -20.6776   -7.9417 C   0  0  0  0  0  0  0  0  0  0  0  0
   24.8154  -20.8874   -9.3519 C   0  0  0  0  0  0  0  0  0  0  0  0
   25.8951  -20.7548  -10.3928 C   0  0  2  0  0  0  0  0  0  0  0  0
   26.6770  -19.5164  -10.0631 C   0  0  0  0  0  0  0  0  0  0  0  0
   25.4476  -20.8618  -11.7976 C   0  0  2  0  0  0  0  0  0  0  0  0
   26.5010  -20.7670  -12.7842 N   0  0  0  0  0  0  0  0  0  0  0  0
   24.3650  -19.9702  -12.2112 C   0  0  0  0  0  0  0  0  0  0  0  0
   23.0192  -20.2830  -12.2139 O   0  0  0  0  0  0  0  0  0  0  0  0
   24.6408  -18.8057  -12.6069 O   0  0  0  0  0  0  0  0  0  0  0  0
  2  1  1  0
  3  2  2  0
  4  3  1  0
  5  4  2  0
  5 11  1  0
  6  5  1  0
  7  6  1  0
  7  9  1  0
  7  8  1  1
  9 10  2  0
 11 12  2  0
 12  2  1  0
 14 13  1  6
 14 15  1  0
 14 16  1  0
 16 17  1  6
 17  9  1  0
 18 16  1  0
 18 19  2  0
 20 21  1  0
 21 22  1  0
 22 23  1  6
 22 24  1  0
 24 25  1  6
 24 26  1  0
 25 18  1  0
 26 28  2  0
 26 27  1  0
M  END
$$$$
