YVI.pdb
     RDKit          3D

 28 28  0  0  1  0  0  0  0  0999 V2000
   18.3655  -18.0816  -14.8001 O   0  0  0  0  0  0  0  0  0  0  0  0
   19.3181  -18.7403  -14.0160 C   0  0  0  0  0  0  0  0  0  0  0  0
   19.0721  -19.9728  -13.4544 C   0  0  0  0  0  0  0  0  0  0  0  0
   20.0258  -20.6037  -12.6850 C   0  0  0  0  0  0  0  0  0  0  0  0
   21.2644  -20.0398  -12.4391 C   0  0  0  0  0  0  0  0  0  0  0  0
   22.2954  -20.7161  -11.6108 C   0  0  0  0  0  0  0  0  0  0  0  0
   23.5737  -20.7654  -12.4158 C   0  0  2  0  0  0  0  0  0  0  0  0
   23.3605  -21.7113  -13.4949 N   0  0  0  0  0  0  0  0  0  0  0  0
   24.6682  -21.3034  -11.5325 C   0  0  0  0  0  0  0  0  0  0  0  0
   24.6532  -22.5287  -11.2075 O   0  0  0  0  0  0  0  0  0  0  0  0
   21.5104  -18.7988  -13.0053 C   0  0  0  0  0  0  0  0  0  0  0  0
   20.5502  -18.1724  -13.7752 C   0  0  0  0  0  0  0  0  0  0  0  0
   28.4789  -19.3998  -11.1914 C   0  0  0  0  0  0  0  0  0  0  0  0
   28.0995  -20.8210  -11.0244 C   0  0  2  0  0  0  0  0  0  0  0  0
   28.1228  -21.6099  -12.3149 C   0  0  0  0  0  0  0  0  0  0  0  0
   26.7918  -21.0495  -10.2700 C   0  0  2  0  0  0  0  0  0  0  0  0
   25.7023  -20.4526  -11.0700 N   0  0  0  0  0  0  0  0  0  0  0  0
   26.7492  -20.3961   -8.9529 C   0  0  0  0  0  0  0  0  0  0  0  0
   26.0305  -19.3669   -8.7740 O   0  0  0  0  0  0  0  0  0  0  0  0
   28.6426  -20.8201   -2.9328 C   0  0  0  0  0  0  0  0  0  0  0  0
   28.0173  -20.1123   -4.0764 C   0  0  0  0  0  0  0  0  0  0  0  0
   28.0628  -20.8130   -5.4082 C   0  0  2  0  0  0  0  0  0  0  0  0
   29.4699  -21.2976   -5.6047 C   0  0  0  0  0  0  0  0  0  0  0  0
   27.4898  -20.0639   -6.5464 C   0  0  2  0  0  0  0  0  0  0  0  0
   27.4432  -20.7908   -7.7960 N   0  0  0  0  0  0  0  0  0  0  0  0
   28.0591  -18.7445   -6.8168 C   0  0  0  0  0  0  0  0  0  0  0  0
   29.1560  -18.4879   -7.6170 O   0  0  0  0  0  0  0  0  0  0  0  0
   27.5332  -17.7256   -6.2934 O   0  0  0  0  0  0  0  0  0  0  0  0
  2  1  1  0
  3  2  2  0
  4  3  1  0
  5  4  2  0
  5 11  1  0
  6  5  1  0
  7  6  1  0
  7  9  1  0
  7  8  1  6
  9 10  2  0
 11 12  2  0
 12  2  1  0
 14 13  1  6
 14 15  1  0
 14 16  1  0
 16 17  1  6
 17  9  1  0
 18 16  1  0
 18 19  2  0
 20 21  1  0
 21 22  1  0
 22 23  1  6
 22 24  1  0
 24 25  1  6
 24 26  1  0
 25 18  1  0
 26 28  2  0
 26 27  1  0
M  END
$$$$
