YVI.pdb
     RDKit          3D

 28 28  0  0  1  0  0  0  0  0999 V2000
   31.0803  -23.1395  -18.5291 O   0  0  0  0  0  0  0  0  0  0  0  0
   30.3660  -22.4006  -17.5804 C   0  0  0  0  0  0  0  0  0  0  0  0
   30.2266  -22.8282  -16.2794 C   0  0  0  0  0  0  0  0  0  0  0  0
   29.5182  -22.0836  -15.3611 C   0  0  0  0  0  0  0  0  0  0  0  0
   28.9173  -20.8831  -15.6932 C   0  0  0  0  0  0  0  0  0  0  0  0
   28.1530  -20.0771  -14.7068 C   0  0  0  0  0  0  0  0  0  0  0  0
   26.9255  -20.8684  -14.3176 C   0  0  2  0  0  0  0  0  0  0  0  0
   25.9846  -20.7619  -15.4168 N   0  0  0  0  0  0  0  0  0  0  0  0
   26.3071  -20.2173  -13.1088 C   0  0  0  0  0  0  0  0  0  0  0  0
   25.5167  -19.2393  -13.2707 O   0  0  0  0  0  0  0  0  0  0  0  0
   29.0586  -20.4541  -17.0036 C   0  0  0  0  0  0  0  0  0  0  0  0
   29.7699  -21.2052  -17.9184 C   0  0  0  0  0  0  0  0  0  0  0  0
   23.4634  -20.0313   -9.8024 C   0  0  0  0  0  0  0  0  0  0  0  0
   24.3744  -20.5091  -10.8671 C   0  0  2  0  0  0  0  0  0  0  0  0
   24.2324  -21.9846  -11.1688 C   0  0  0  0  0  0  0  0  0  0  0  0
   25.8409  -20.1321  -10.6708 C   0  0  2  0  0  0  0  0  0  0  0  0
   26.6034  -20.6904  -11.8067 N   0  0  0  0  0  0  0  0  0  0  0  0
   26.4364  -20.6967   -9.4501 C   0  0  0  0  0  0  0  0  0  0  0  0
   26.7756  -21.9179   -9.4114 O   0  0  0  0  0  0  0  0  0  0  0  0
   29.7247  -19.4377   -4.3016 C   0  0  0  0  0  0  0  0  0  0  0  0
   28.7887  -20.3036   -5.0592 C   0  0  0  0  0  0  0  0  0  0  0  0
   28.2213  -19.7309   -6.3307 C   0  0  2  0  0  0  0  0  0  0  0  0
   27.7244  -18.3510   -6.0108 C   0  0  0  0  0  0  0  0  0  0  0  0
   27.2617  -20.5948   -7.0504 C   0  0  2  0  0  0  0  0  0  0  0  0
   26.6957  -20.0150   -8.2486 N   0  0  0  0  0  0  0  0  0  0  0  0
   26.1646  -21.1552   -6.2627 C   0  0  0  0  0  0  0  0  0  0  0  0
   26.2896  -22.1057   -5.2676 O   0  0  0  0  0  0  0  0  0  0  0  0
   24.9860  -20.7641   -6.4790 O   0  0  0  0  0  0  0  0  0  0  0  0
  2  1  1  0
  3  2  2  0
  4  3  1  0
  5  4  2  0
  5 11  1  0
  6  5  1  0
  7  6  1  0
  7  9  1  0
  7  8  1  6
  9 10  2  0
 11 12  2  0
 12  2  1  0
 14 13  1  1
 14 15  1  0
 14 16  1  0
 16 17  1  6
 17  9  1  0
 18 16  1  0
 18 19  2  0
 20 21  1  0
 21 22  1  0
 22 23  1  1
 22 24  1  0
 24 25  1  6
 24 26  1  0
 25 18  1  0
 26 28  2  0
 26 27  1  0
M  END
$$$$
