YVI.pdb
     RDKit          3D

 28 28  0  0  1  0  0  0  0  0999 V2000
   18.8009  -18.2839  -15.2208 O   0  0  0  0  0  0  0  0  0  0  0  0
   19.7181  -18.8950  -14.3597 C   0  0  0  0  0  0  0  0  0  0  0  0
   20.8363  -18.2361  -13.9012 C   0  0  0  0  0  0  0  0  0  0  0  0
   21.7270  -18.8581  -13.0530 C   0  0  0  0  0  0  0  0  0  0  0  0
   21.5475  -20.1603  -12.6231 C   0  0  0  0  0  0  0  0  0  0  0  0
   22.5045  -20.8346  -11.7088 C   0  0  0  0  0  0  0  0  0  0  0  0
   23.8652  -20.8102  -12.3667 C   0  0  2  0  0  0  0  0  0  0  0  0
   23.8408  -21.7961  -13.4307 N   0  0  0  0  0  0  0  0  0  0  0  0
   24.8890  -21.2441  -11.3512 C   0  0  0  0  0  0  0  0  0  0  0  0
   24.8780  -22.4421  -10.9363 O   0  0  0  0  0  0  0  0  0  0  0  0
   20.4211  -20.8222  -13.0859 C   0  0  0  0  0  0  0  0  0  0  0  0
   19.5328  -20.1928  -13.9355 C   0  0  0  0  0  0  0  0  0  0  0  0
   28.2769  -21.4338  -12.0835 C   0  0  0  0  0  0  0  0  0  0  0  0
   28.2473  -20.7087  -10.7931 C   0  0  2  0  0  0  0  0  0  0  0  0
   29.4389  -20.9990   -9.9077 C   0  0  0  0  0  0  0  0  0  0  0  0
   26.9424  -20.8457  -10.0123 C   0  0  2  0  0  0  0  0  0  0  0  0
   25.8529  -20.3267  -10.8649 N   0  0  0  0  0  0  0  0  0  0  0  0
   26.9127  -20.0573   -8.7708 C   0  0  0  0  0  0  0  0  0  0  0  0
   26.4272  -18.8859   -8.7701 O   0  0  0  0  0  0  0  0  0  0  0  0
   27.9750  -19.8713   -2.7179 C   0  0  0  0  0  0  0  0  0  0  0  0
   27.0797  -19.4624   -3.8273 C   0  0  0  0  0  0  0  0  0  0  0  0
   27.0983  -20.3257   -5.0606 C   0  0  2  0  0  0  0  0  0  0  0  0
   27.9386  -21.5290   -4.7451 C   0  0  0  0  0  0  0  0  0  0  0  0
   27.4373  -19.6339   -6.3222 C   0  0  2  0  0  0  0  0  0  0  0  0
   27.3798  -20.4604   -7.5079 N   0  0  0  0  0  0  0  0  0  0  0  0
   28.7017  -18.9000   -6.3489 C   0  0  0  0  0  0  0  0  0  0  0  0
   28.9179  -17.6461   -5.8101 O   0  0  0  0  0  0  0  0  0  0  0  0
   29.7071  -19.4212   -6.9022 O   0  0  0  0  0  0  0  0  0  0  0  0
  2  1  1  0
  3  2  2  0
  4  3  1  0
  5  4  2  0
  5 11  1  0
  6  5  1  0
  7  6  1  0
  7  9  1  0
  7  8  1  6
  9 10  2  0
 11 12  2  0
 12  2  1  0
 14 13  1  6
 14 15  1  0
 14 16  1  0
 16 17  1  6
 17  9  1  0
 18 16  1  0
 18 19  2  0
 20 21  1  0
 21 22  1  0
 22 23  1  1
 22 24  1  0
 24 25  1  6
 24 26  1  0
 25 18  1  0
 26 28  2  0
 26 27  1  0
M  END
$$$$
