IFP.pdb
     RDKit          3D

 27 28  0  0  1  0  0  0  0  0999 V2000
   12.8174  -19.8029   19.9983 C   0  0  0  0  0  0  0  0  0  0  0  0
   11.4941  -19.4730   20.6125 C   0  0  0  0  0  0  0  0  0  0  0  0
   11.5830  -18.3926   21.6693 C   0  0  2  0  0  0  0  0  0  0  0  0
   10.9723  -18.9866   22.9405 C   0  0  0  0  0  0  0  0  0  0  0  0
   10.7398  -17.2391   21.2052 C   0  0  2  0  0  0  0  0  0  0  0  0
   11.3435  -16.6437   20.0535 N   0  0  0  0  0  0  0  0  0  0  0  0
   10.5310  -16.2368   22.3055 C   0  0  0  0  0  0  0  0  0  0  0  0
   11.4462  -15.4386   22.6056 O   0  0  0  0  0  0  0  0  0  0  0  0
    9.3141  -16.1719   23.0178 N   0  0  0  0  0  0  0  0  0  0  0  0
    8.9739  -15.3252   24.1281 C   0  0  1  0  0  0  0  0  0  0  0  0
    7.6271  -14.6756   23.9262 C   0  0  0  0  0  0  0  0  0  0  0  0
    7.2613  -13.6699   24.9437 C   0  0  0  0  0  0  0  0  0  0  0  0
    6.5002  -14.0645   26.0155 C   0  0  0  0  0  0  0  0  0  0  0  0
    6.1103  -13.1727   27.0103 C   0  0  0  0  0  0  0  0  0  0  0  0
    6.4946  -11.8565   26.9243 C   0  0  0  0  0  0  0  0  0  0  0  0
    7.2666  -11.4485   25.8403 C   0  0  0  0  0  0  0  0  0  0  0  0
    7.6408  -12.3564   24.8641 C   0  0  0  0  0  0  0  0  0  0  0  0
    9.2181  -15.9102   25.4411 C   0  0  0  0  0  0  0  0  0  0  0  0
    8.7674  -17.0359   25.7271 O   0  0  0  0  0  0  0  0  0  0  0  0
    9.9888  -15.2467   26.4859 N   0  0  0  0  0  0  0  0  0  0  0  0
   10.4066  -13.8613   26.4801 C   0  0  0  0  0  0  0  0  0  0  0  0
   10.1159  -13.4837   27.9389 C   0  0  0  0  0  0  0  0  0  0  0  0
   10.6835  -14.6997   28.6664 C   0  0  0  0  0  0  0  0  0  0  0  0
   10.4538  -15.8498   27.6817 C   0  0  1  0  0  0  0  0  0  0  0  0
    9.5034  -16.8096   28.2813 C   0  0  0  0  0  0  0  0  0  0  0  0
    8.3290  -16.8600   27.7850 O   0  0  0  0  0  0  0  0  0  0  0  0
    9.7870  -17.6461   29.3207 O   0  0  0  0  0  0  0  0  0  0  0  0
  1  2  1  0
  3  2  1  0
  3  4  1  1
  5  3  1  0
  5  6  1  6
  7  8  2  0
  7  5  1  0
  9  7  1  0
 10  9  1  0
 11 12  1  0
 10 11  1  1
 12 13  2  0
 13 14  1  0
 15 14  2  0
 16 15  1  0
 17 12  1  0
 17 16  2  0
 18 10  1  0
 18 19  2  0
 20 18  1  0
 21 20  1  0
 22 21  1  0
 23 22  1  0
 23 24  1  0
 24 20  1  0
 25 27  1  0
 24 25  1  1
 26 25  2  0
M  END
$$$$
