IFP.pdb
     RDKit          3D

 27 28  0  0  1  0  0  0  0  0999 V2000
    8.4254  -21.1700   21.6142 C   0  0  0  0  0  0  0  0  0  0  0  0
    7.1796  -20.4856   22.0800 C   0  0  0  0  0  0  0  0  0  0  0  0
    6.8357  -20.7954   23.5214 C   0  0  2  0  0  0  0  0  0  0  0  0
    6.6101  -22.3075   23.5915 C   0  0  0  0  0  0  0  0  0  0  0  0
    5.5502  -20.0861   23.8394 C   0  0  2  0  0  0  0  0  0  0  0  0
    4.5350  -20.5130   22.9269 N   0  0  0  0  0  0  0  0  0  0  0  0
    5.7285  -18.5940   23.8158 C   0  0  0  0  0  0  0  0  0  0  0  0
    5.2941  -17.9279   22.8502 O   0  0  0  0  0  0  0  0  0  0  0  0
    6.3814  -17.9163   24.8678 N   0  0  0  0  0  0  0  0  0  0  0  0
    6.8078  -16.5447   24.9172 C   0  0  1  0  0  0  0  0  0  0  0  0
    6.7728  -16.0130   26.3288 C   0  0  0  0  0  0  0  0  0  0  0  0
    6.9280  -14.5493   26.4476 C   0  0  0  0  0  0  0  0  0  0  0  0
    8.1804  -14.0364   26.6756 C   0  0  0  0  0  0  0  0  0  0  0  0
    8.4040  -12.6690   26.8061 C   0  0  0  0  0  0  0  0  0  0  0  0
    7.3446  -11.7999   26.7049 C   0  0  0  0  0  0  0  0  0  0  0  0
    6.0713  -12.3124   26.4739 C   0  0  0  0  0  0  0  0  0  0  0  0
    5.8765  -13.6775   26.3481 C   0  0  0  0  0  0  0  0  0  0  0  0
    8.0092  -16.2492   24.1456 C   0  0  0  0  0  0  0  0  0  0  0  0
    9.0869  -16.8159   24.4091 O   0  0  0  0  0  0  0  0  0  0  0  0
    8.0400  -15.3018   23.0377 N   0  0  0  0  0  0  0  0  0  0  0  0
    6.9671  -14.4087   22.6566 C   0  0  0  0  0  0  0  0  0  0  0  0
    7.7662  -13.1296   22.3730 C   0  0  0  0  0  0  0  0  0  0  0  0
    8.9339  -13.6955   21.5690 C   0  0  0  0  0  0  0  0  0  0  0  0
    9.1284  -15.0980   22.1525 C   0  0  1  0  0  0  0  0  0  0  0  0
   10.4541  -15.1656   22.8021 C   0  0  0  0  0  0  0  0  0  0  0  0
   10.4853  -15.1242   24.0770 O   0  0  0  0  0  0  0  0  0  0  0  0
   11.6438  -15.2718   22.1436 O   0  0  0  0  0  0  0  0  0  0  0  0
  1  2  1  0
  3  2  1  0
  3  4  1  6
  5  3  1  0
  5  6  1  6
  7  8  2  0
  7  5  1  0
  9  7  1  0
 10  9  1  0
 11 12  1  0
 10 11  1  1
 12 13  2  0
 13 14  1  0
 15 14  2  0
 16 15  1  0
 17 12  1  0
 17 16  2  0
 18 10  1  0
 18 19  2  0
 20 18  1  0
 21 20  1  0
 22 21  1  0
 23 22  1  0
 23 24  1  0
 24 20  1  0
 25 27  1  0
 24 25  1  1
 26 25  2  0
M  END
$$$$
