IFP.pdb
     RDKit          3D

 27 28  0  0  1  0  0  0  0  0999 V2000
    8.8286  -21.1479   21.7323 C   0  0  0  0  0  0  0  0  0  0  0  0
    7.5384  -20.6207   22.2752 C   0  0  0  0  0  0  0  0  0  0  0  0
    7.3887  -20.8382   23.7659 C   0  0  2  0  0  0  0  0  0  0  0  0
    7.3612  -22.3538   23.9762 C   0  0  0  0  0  0  0  0  0  0  0  0
    6.0655  -20.2560   24.1746 C   0  0  2  0  0  0  0  0  0  0  0  0
    5.0286  -20.8249   23.3704 N   0  0  0  0  0  0  0  0  0  0  0  0
    6.0779  -18.7556   24.0877 C   0  0  0  0  0  0  0  0  0  0  0  0
    5.4897  -18.1793   23.1461 O   0  0  0  0  0  0  0  0  0  0  0  0
    6.7442  -17.9702   25.0529 N   0  0  0  0  0  0  0  0  0  0  0  0
    7.0002  -16.5562   25.0308 C   0  0  1  0  0  0  0  0  0  0  0  0
    6.9421  -15.9694   26.4196 C   0  0  0  0  0  0  0  0  0  0  0  0
    6.9643  -14.4939   26.4744 C   0  0  0  0  0  0  0  0  0  0  0  0
    8.1674  -13.8600   26.6597 C   0  0  0  0  0  0  0  0  0  0  0  0
    8.2667  -12.4736   26.7290 C   0  0  0  0  0  0  0  0  0  0  0  0
    7.1311  -11.7095   26.6092 C   0  0  0  0  0  0  0  0  0  0  0  0
    5.9071  -12.3450   26.4211 C   0  0  0  0  0  0  0  0  0  0  0  0
    5.8363  -13.7263   26.3559 C   0  0  0  0  0  0  0  0  0  0  0  0
    8.1329  -16.1523   24.2061 C   0  0  0  0  0  0  0  0  0  0  0  0
    9.2850  -16.5410   24.4777 O   0  0  0  0  0  0  0  0  0  0  0  0
    8.0082  -15.2939   23.0342 N   0  0  0  0  0  0  0  0  0  0  0  0
    6.7905  -14.6639   22.5712 C   0  0  0  0  0  0  0  0  0  0  0  0
    7.3251  -13.2712   22.2113 C   0  0  0  0  0  0  0  0  0  0  0  0
    8.6076  -13.6409   21.4707 C   0  0  0  0  0  0  0  0  0  0  0  0
    9.0611  -14.9331   22.1562 C   0  0  1  0  0  0  0  0  0  0  0  0
   10.3520  -14.6875   22.8325 C   0  0  0  0  0  0  0  0  0  0  0  0
   10.3507  -14.6642   24.1082 O   0  0  0  0  0  0  0  0  0  0  0  0
   11.5425  -14.4876   22.1976 O   0  0  0  0  0  0  0  0  0  0  0  0
  1  2  1  0
  3  2  1  0
  3  4  1  6
  5  3  1  0
  5  6  1  6
  7  8  2  0
  7  5  1  0
  9  7  1  0
 10  9  1  0
 11 12  1  0
 10 11  1  1
 12 13  2  0
 13 14  1  0
 15 14  2  0
 16 15  1  0
 17 12  1  0
 17 16  2  0
 18 10  1  0
 18 19  2  0
 20 18  1  0
 21 20  1  0
 22 21  1  0
 23 22  1  0
 23 24  1  0
 24 20  1  0
 25 27  1  0
 24 25  1  1
 26 25  2  0
M  END
$$$$
