IFP.pdb
     RDKit          3D

 27 28  0  0  1  0  0  0  0  0999 V2000
    6.6199  -22.4247   20.7163 C   0  0  0  0  0  0  0  0  0  0  0  0
    6.1504  -21.9274   22.0465 C   0  0  0  0  0  0  0  0  0  0  0  0
    6.0190  -20.4203   22.1040 C   0  0  2  0  0  0  0  0  0  0  0  0
    7.4216  -19.8591   21.8588 C   0  0  0  0  0  0  0  0  0  0  0  0
    5.5761  -20.0602   23.4936 C   0  0  2  0  0  0  0  0  0  0  0  0
    4.2715  -20.5970   23.7293 N   0  0  0  0  0  0  0  0  0  0  0  0
    5.6145  -18.5737   23.7120 C   0  0  0  0  0  0  0  0  0  0  0  0
    4.7470  -17.8421   23.1855 O   0  0  0  0  0  0  0  0  0  0  0  0
    6.6162  -17.9742   24.5054 N   0  0  0  0  0  0  0  0  0  0  0  0
    6.9687  -16.5840   24.5978 C   0  0  1  0  0  0  0  0  0  0  0  0
    6.9771  -16.1176   26.0327 C   0  0  0  0  0  0  0  0  0  0  0  0
    7.1310  -14.6601   26.2133 C   0  0  0  0  0  0  0  0  0  0  0  0
    8.3946  -14.1444   26.3583 C   0  0  0  0  0  0  0  0  0  0  0  0
    8.6184  -12.7829   26.5397 C   0  0  0  0  0  0  0  0  0  0  0  0
    7.5477  -11.9226   26.5759 C   0  0  0  0  0  0  0  0  0  0  0  0
    6.2630  -12.4378   26.4297 C   0  0  0  0  0  0  0  0  0  0  0  0
    6.0683  -13.7970   26.2506 C   0  0  0  0  0  0  0  0  0  0  0  0
    8.1110  -16.1870   23.7831 C   0  0  0  0  0  0  0  0  0  0  0  0
    9.2399  -16.6685   23.9972 O   0  0  0  0  0  0  0  0  0  0  0  0
    8.0222  -15.2303   22.6865 N   0  0  0  0  0  0  0  0  0  0  0  0
    6.8462  -14.4727   22.3162 C   0  0  0  0  0  0  0  0  0  0  0  0
    7.4801  -13.1012   22.0474 C   0  0  0  0  0  0  0  0  0  0  0  0
    8.7075  -13.5086   21.2365 C   0  0  0  0  0  0  0  0  0  0  0  0
    9.0754  -14.8828   21.8034 C   0  0  1  0  0  0  0  0  0  0  0  0
   10.4004  -14.7931   22.4518 C   0  0  0  0  0  0  0  0  0  0  0  0
   10.4301  -14.7902   23.7273 O   0  0  0  0  0  0  0  0  0  0  0  0
   11.5913  -14.7166   21.7912 O   0  0  0  0  0  0  0  0  0  0  0  0
  1  2  1  0
  3  2  1  0
  3  4  1  1
  5  3  1  0
  5  6  1  6
  7  8  2  0
  7  5  1  0
  9  7  1  0
 10  9  1  0
 11 12  1  0
 10 11  1  1
 12 13  2  0
 13 14  1  0
 15 14  2  0
 16 15  1  0
 17 12  1  0
 17 16  2  0
 18 10  1  0
 18 19  2  0
 20 18  1  0
 21 20  1  0
 22 21  1  0
 23 22  1  0
 23 24  1  0
 24 20  1  0
 25 27  1  0
 24 25  1  1
 26 25  2  0
M  END
$$$$
