IFP.pdb
     RDKit          3D

 27 28  0  0  1  0  0  0  0  0999 V2000
    6.5052  -22.6237   21.1438 C   0  0  0  0  0  0  0  0  0  0  0  0
    5.6574  -21.8202   22.0780 C   0  0  0  0  0  0  0  0  0  0  0  0
    6.0243  -20.3516   22.0981 C   0  0  2  0  0  0  0  0  0  0  0  0
    7.4822  -20.2814   22.5584 C   0  0  0  0  0  0  0  0  0  0  0  0
    5.1484  -19.6831   23.1192 C   0  0  2  0  0  0  0  0  0  0  0  0
    3.7787  -19.8189   22.7305 N   0  0  0  0  0  0  0  0  0  0  0  0
    5.5328  -18.2429   23.3108 C   0  0  0  0  0  0  0  0  0  0  0  0
    5.2169  -17.3920   22.4500 O   0  0  0  0  0  0  0  0  0  0  0  0
    6.2499  -17.8201   24.4507 N   0  0  0  0  0  0  0  0  0  0  0  0
    6.8318  -16.5323   24.7122 C   0  0  1  0  0  0  0  0  0  0  0  0
    6.3249  -15.9585   26.0123 C   0  0  0  0  0  0  0  0  0  0  0  0
    6.8117  -14.6000   26.3258 C   0  0  0  0  0  0  0  0  0  0  0  0
    5.9551  -13.5400   26.1638 C   0  0  0  0  0  0  0  0  0  0  0  0
    6.3439  -12.2310   26.4320 C   0  0  0  0  0  0  0  0  0  0  0  0
    7.6217  -11.9839   26.8724 C   0  0  0  0  0  0  0  0  0  0  0  0
    8.4964  -13.0537   27.0392 C   0  0  0  0  0  0  0  0  0  0  0  0
    8.0839  -14.3468   26.7650 C   0  0  0  0  0  0  0  0  0  0  0  0
    8.2707  -16.4545   24.4897 C   0  0  0  0  0  0  0  0  0  0  0  0
    9.0657  -16.9723   25.2971 O   0  0  0  0  0  0  0  0  0  0  0  0
    8.8713  -15.7905   23.3389 N   0  0  0  0  0  0  0  0  0  0  0  0
    8.1561  -15.0665   22.3101 C   0  0  0  0  0  0  0  0  0  0  0  0
    9.0760  -13.8493   22.1450 C   0  0  0  0  0  0  0  0  0  0  0  0
   10.4441  -14.5262   22.1289 C   0  0  0  0  0  0  0  0  0  0  0  0
   10.2562  -15.7428   23.0399 C   0  0  1  0  0  0  0  0  0  0  0  0
   11.1237  -15.5896   24.2265 C   0  0  0  0  0  0  0  0  0  0  0  0
   10.5531  -15.3623   25.3448 O   0  0  0  0  0  0  0  0  0  0  0  0
   12.4849  -15.6758   24.2172 O   0  0  0  0  0  0  0  0  0  0  0  0
  1  2  1  0
  3  2  1  0
  3  4  1  1
  5  3  1  0
  5  6  1  6
  7  8  2  0
  7  5  1  0
  9  7  1  0
 10  9  1  0
 11 12  1  0
 10 11  1  1
 12 13  2  0
 13 14  1  0
 15 14  2  0
 16 15  1  0
 17 12  1  0
 17 16  2  0
 18 10  1  0
 18 19  2  0
 20 18  1  0
 21 20  1  0
 22 21  1  0
 23 22  1  0
 23 24  1  0
 24 20  1  0
 25 27  1  0
 24 25  1  1
 26 25  2  0
M  END
$$$$
