IFP.pdb
     RDKit          3D

 27 28  0  0  1  0  0  0  0  0999 V2000
   13.2789  -19.6039   20.2360 C   0  0  0  0  0  0  0  0  0  0  0  0
   12.1051  -18.6880   20.0928 C   0  0  0  0  0  0  0  0  0  0  0  0
   11.9383  -17.7488   21.2684 C   0  0  2  0  0  0  0  0  0  0  0  0
   11.7237  -18.6356   22.4970 C   0  0  0  0  0  0  0  0  0  0  0  0
   10.7003  -16.9345   21.0212 C   0  0  2  0  0  0  0  0  0  0  0  0
   10.8033  -16.2896   19.7488 N   0  0  0  0  0  0  0  0  0  0  0  0
   10.4654  -15.9464   22.1291 C   0  0  0  0  0  0  0  0  0  0  0  0
   11.2511  -14.9859   22.2867 O   0  0  0  0  0  0  0  0  0  0  0  0
    9.3678  -16.0756   23.0071 N   0  0  0  0  0  0  0  0  0  0  0  0
    8.9995  -15.2264   24.1065 C   0  0  1  0  0  0  0  0  0  0  0  0
    7.6529  -14.5867   23.8744 C   0  0  0  0  0  0  0  0  0  0  0  0
    7.2270  -13.6340   24.9192 C   0  0  0  0  0  0  0  0  0  0  0  0
    6.3972  -14.0793   25.9175 C   0  0  0  0  0  0  0  0  0  0  0  0
    5.9482  -13.2391   26.9320 C   0  0  0  0  0  0  0  0  0  0  0  0
    6.3429  -11.9231   26.9415 C   0  0  0  0  0  0  0  0  0  0  0  0
    7.1843  -11.4637   25.9324 C   0  0  0  0  0  0  0  0  0  0  0  0
    7.6164  -12.3211   24.9346 C   0  0  0  0  0  0  0  0  0  0  0  0
    9.2208  -15.8042   25.4269 C   0  0  0  0  0  0  0  0  0  0  0  0
    8.7129  -16.9001   25.7322 O   0  0  0  0  0  0  0  0  0  0  0  0
   10.0321  -15.1672   26.4573 N   0  0  0  0  0  0  0  0  0  0  0  0
   10.4864  -13.7933   26.4489 C   0  0  0  0  0  0  0  0  0  0  0  0
   10.2387  -13.4162   27.9156 C   0  0  0  0  0  0  0  0  0  0  0  0
   10.7897  -14.6508   28.6243 C   0  0  0  0  0  0  0  0  0  0  0  0
   10.5074  -15.7890   27.6393 C   0  0  1  0  0  0  0  0  0  0  0  0
    9.5454  -16.7265   28.2555 C   0  0  0  0  0  0  0  0  0  0  0  0
    8.3717  -16.7740   27.7574 O   0  0  0  0  0  0  0  0  0  0  0  0
    9.8177  -17.5452   29.3119 O   0  0  0  0  0  0  0  0  0  0  0  0
  1  2  1  0
  3  2  1  0
  3  4  1  1
  5  3  1  0
  5  6  1  6
  7  8  2  0
  7  5  1  0
  9  7  1  0
 10  9  1  0
 11 12  1  0
 10 11  1  6
 12 13  2  0
 13 14  1  0
 15 14  2  0
 16 15  1  0
 17 12  1  0
 17 16  2  0
 18 10  1  0
 18 19  2  0
 20 18  1  0
 21 20  1  0
 22 21  1  0
 23 22  1  0
 23 24  1  0
 24 20  1  0
 25 27  1  0
 24 25  1  1
 26 25  2  0
M  END
$$$$
