IFP.pdb
     RDKit          3D

 27 28  0  0  1  0  0  0  0  0999 V2000
    7.1695  -22.7311   21.4290 C   0  0  0  0  0  0  0  0  0  0  0  0
    6.2714  -22.0788   22.4316 C   0  0  0  0  0  0  0  0  0  0  0  0
    6.3277  -20.5667   22.3838 C   0  0  2  0  0  0  0  0  0  0  0  0
    7.7949  -20.1867   22.5960 C   0  0  0  0  0  0  0  0  0  0  0  0
    5.5096  -20.0497   23.5328 C   0  0  2  0  0  0  0  0  0  0  0  0
    4.1507  -20.4657   23.3721 N   0  0  0  0  0  0  0  0  0  0  0  0
    5.6239  -18.5563   23.6572 C   0  0  0  0  0  0  0  0  0  0  0  0
    5.0872  -17.8152   22.8043 O   0  0  0  0  0  0  0  0  0  0  0  0
    6.3298  -17.9608   24.7247 N   0  0  0  0  0  0  0  0  0  0  0  0
    6.7805  -16.6018   24.8487 C   0  0  1  0  0  0  0  0  0  0  0  0
    6.6967  -16.1277   26.2787 C   0  0  0  0  0  0  0  0  0  0  0  0
    6.9512  -14.6861   26.4733 C   0  0  0  0  0  0  0  0  0  0  0  0
    5.8862  -13.8207   26.4506 C   0  0  0  0  0  0  0  0  0  0  0  0
    6.0480  -12.4488   26.6193 C   0  0  0  0  0  0  0  0  0  0  0  0
    7.3082  -11.9375   26.8150 C   0  0  0  0  0  0  0  0  0  0  0  0
    8.3935  -12.8088   26.8392 C   0  0  0  0  0  0  0  0  0  0  0  0
    8.2045  -14.1699   26.6685 C   0  0  0  0  0  0  0  0  0  0  0  0
    8.0188  -16.3006   24.1402 C   0  0  0  0  0  0  0  0  0  0  0  0
    9.0853  -16.8575   24.4634 O   0  0  0  0  0  0  0  0  0  0  0  0
    8.1011  -15.3586   23.0304 N   0  0  0  0  0  0  0  0  0  0  0  0
    7.0251  -14.5178   22.5513 C   0  0  0  0  0  0  0  0  0  0  0  0
    7.7866  -13.2047   22.3252 C   0  0  0  0  0  0  0  0  0  0  0  0
    9.0431  -13.7204   21.6286 C   0  0  0  0  0  0  0  0  0  0  0  0
    9.2507  -15.1094   22.2392 C   0  0  1  0  0  0  0  0  0  0  0  0
   10.5177  -15.1125   22.9998 C   0  0  0  0  0  0  0  0  0  0  0  0
   10.4374  -15.1019   24.2731 O   0  0  0  0  0  0  0  0  0  0  0  0
   11.7636  -15.1292   22.4448 O   0  0  0  0  0  0  0  0  0  0  0  0
  1  2  1  0
  3  2  1  0
  3  4  1  1
  5  3  1  0
  5  6  1  6
  7  8  2  0
  7  5  1  0
  9  7  1  0
 10  9  1  0
 11 12  1  0
 10 11  1  1
 12 13  2  0
 13 14  1  0
 15 14  2  0
 16 15  1  0
 17 12  1  0
 17 16  2  0
 18 10  1  0
 18 19  2  0
 20 18  1  0
 21 20  1  0
 22 21  1  0
 23 22  1  0
 23 24  1  0
 24 20  1  0
 25 27  1  0
 24 25  1  1
 26 25  2  0
M  END
$$$$
