IFP.pdb
     RDKit          3D

 27 28  0  0  1  0  0  0  0  0999 V2000
   13.6351  -19.5676   20.4624 C   0  0  0  0  0  0  0  0  0  0  0  0
   12.3960  -18.7501   20.2791 C   0  0  0  0  0  0  0  0  0  0  0  0
   12.1511  -17.7805   21.4157 C   0  0  2  0  0  0  0  0  0  0  0  0
   11.9525  -18.6340   22.6704 C   0  0  0  0  0  0  0  0  0  0  0  0
   10.8788  -17.0422   21.1107 C   0  0  2  0  0  0  0  0  0  0  0  0
   10.9818  -16.4331   19.8208 N   0  0  0  0  0  0  0  0  0  0  0  0
   10.5621  -16.0338   22.1791 C   0  0  0  0  0  0  0  0  0  0  0  0
   11.2392  -14.9859   22.2698 O   0  0  0  0  0  0  0  0  0  0  0  0
    9.5075  -16.2409   23.0941 N   0  0  0  0  0  0  0  0  0  0  0  0
    9.0788  -15.3893   24.1696 C   0  0  1  0  0  0  0  0  0  0  0  0
    7.6937  -14.8469   23.9169 C   0  0  0  0  0  0  0  0  0  0  0  0
    7.2010  -13.8971   24.9347 C   0  0  0  0  0  0  0  0  0  0  0  0
    7.5154  -12.5679   24.8016 C   0  0  0  0  0  0  0  0  0  0  0  0
    7.0934  -11.6150   25.7241 C   0  0  0  0  0  0  0  0  0  0  0  0
    6.3390  -12.0087   26.8028 C   0  0  0  0  0  0  0  0  0  0  0  0
    6.0161  -13.3551   26.9449 C   0  0  0  0  0  0  0  0  0  0  0  0
    6.4490  -14.2828   26.0124 C   0  0  0  0  0  0  0  0  0  0  0  0
    9.3321  -15.9160   25.5054 C   0  0  0  0  0  0  0  0  0  0  0  0
    8.9033  -17.0381   25.8360 O   0  0  0  0  0  0  0  0  0  0  0  0
   10.0874  -15.1957   26.5235 N   0  0  0  0  0  0  0  0  0  0  0  0
   10.4557  -13.7971   26.4739 C   0  0  0  0  0  0  0  0  0  0  0  0
   10.1639  -13.3878   27.9238 C   0  0  0  0  0  0  0  0  0  0  0  0
   10.7802  -14.5614   28.6808 C   0  0  0  0  0  0  0  0  0  0  0  0
   10.5833  -15.7470   27.7317 C   0  0  1  0  0  0  0  0  0  0  0  0
    9.6725  -16.7218   28.3675 C   0  0  0  0  0  0  0  0  0  0  0  0
    8.5085  -16.8533   27.8618 O   0  0  0  0  0  0  0  0  0  0  0  0
    9.9826  -17.4922   29.4495 O   0  0  0  0  0  0  0  0  0  0  0  0
  1  2  1  0
  3  2  1  0
  3  4  1  1
  5  3  1  0
  5  6  1  6
  7  8  2  0
  7  5  1  0
  9  7  1  0
 10  9  1  0
 11 12  1  0
 10 11  1  6
 12 13  2  0
 13 14  1  0
 15 14  2  0
 16 15  1  0
 17 12  1  0
 17 16  2  0
 18 10  1  0
 18 19  2  0
 20 18  1  0
 21 20  1  0
 22 21  1  0
 23 22  1  0
 23 24  1  0
 24 20  1  0
 25 27  1  0
 24 25  1  1
 26 25  2  0
M  END
$$$$
