PDN.pdb
     RDKit          3D

 24 24  0  0  1  0  0  0  0  0999 V2000
    8.8472  -14.8818   19.4805 N   0  0  0  0  0  0  0  0  0  0  0  0
    8.8545  -14.0849   18.2597 C   0  0  0  0  0  0  0  0  0  0  0  0
    7.7529  -13.0697   18.4242 C   0  0  0  0  0  0  0  0  0  0  0  0
    7.3166  -13.2165   19.8720 C   0  0  0  0  0  0  0  0  0  0  0  0
    8.5121  -13.9031   20.4937 C   0  0  1  0  0  0  0  0  0  0  0  0
    8.1534  -14.5429   21.7822 C   0  0  0  0  0  0  0  0  0  0  0  0
    7.7402  -13.8063   22.7077 O   0  0  0  0  0  0  0  0  0  0  0  0
    8.2641  -15.9240   21.9839 N   0  0  0  0  0  0  0  0  0  0  0  0
    7.8718  -16.6168   23.1787 C   0  0  1  0  0  0  0  0  0  0  0  0
    7.6256  -18.0819   23.0044 C   0  0  0  0  0  0  0  0  0  0  0  0
    7.2597  -18.7359   24.2826 C   0  0  0  0  0  0  0  0  0  0  0  0
    6.1059  -18.6482   24.7722 O   0  0  0  0  0  0  0  0  0  0  0  0
    8.8903  -16.3987   24.2594 C   0  0  0  0  0  0  0  0  0  0  0  0
   10.1184  -16.4604   23.9918 O   0  0  0  0  0  0  0  0  0  0  0  0
    8.2066  -19.4723   24.9753 O   0  0  0  0  0  0  0  0  0  0  0  0
   11.2088  -14.7666   28.5493 N   0  0  0  0  0  0  0  0  0  0  0  0
    9.9307  -14.1742   28.4798 C   0  0  0  0  0  0  0  0  0  0  0  0
    9.6772  -13.2355   29.2618 O   0  0  0  0  0  0  0  0  0  0  0  0
    8.9469  -14.6466   27.5265 C   0  0  0  0  0  0  0  0  0  0  0  0
    9.4534  -15.7279   26.5970 C   0  0  2  0  0  0  0  0  0  0  0  0
    8.5102  -16.1209   25.5968 N   0  0  0  0  0  0  0  0  0  0  0  0
    9.9987  -16.8888   27.3589 C   0  0  0  0  0  0  0  0  0  0  0  0
    9.4581  -18.0253   27.3668 O   0  0  0  0  0  0  0  0  0  0  0  0
   11.1568  -16.7487   28.1075 O   0  0  0  0  0  0  0  0  0  0  0  0
  1  5  1  0
  2  1  1  0
  2  3  1  0
  3  4  1  0
  5  4  1  0
  6  8  1  0
  5  6  1  1
  7  6  2  0
  9  8  1  0
  9 10  1  6
 11 10  1  0
 11 15  1  0
 12 11  2  0
 13 21  1  0
 13  9  1  0
 14 13  2  0
 17 16  1  0
 18 17  2  0
 19 17  1  0
 20 21  1  0
 20 19  1  1
 22 20  1  0
 23 22  2  0
 24 22  1  0
M  END
$$$$
