PDN.pdb
     RDKit          3D

 24 24  0  0  1  0  0  0  0  0999 V2000
    8.7989  -13.8924   18.1513 N   0  0  0  0  0  0  0  0  0  0  0  0
    7.9982  -12.7636   17.6926 C   0  0  0  0  0  0  0  0  0  0  0  0
    6.7075  -12.8325   18.4674 C   0  0  0  0  0  0  0  0  0  0  0  0
    6.9516  -13.9063   19.5139 C   0  0  0  0  0  0  0  0  0  0  0  0
    8.4621  -13.9667   19.5576 C   0  0  1  0  0  0  0  0  0  0  0  0
    8.9311  -15.2322   20.1715 C   0  0  0  0  0  0  0  0  0  0  0  0
    8.5773  -15.4797   21.3477 O   0  0  0  0  0  0  0  0  0  0  0  0
    9.7442  -16.1385   19.4802 N   0  0  0  0  0  0  0  0  0  0  0  0
   10.2004  -17.3976   19.9976 C   0  0  1  0  0  0  0  0  0  0  0  0
   10.6126  -18.3925   18.9594 C   0  0  0  0  0  0  0  0  0  0  0  0
   10.9461  -19.7070   19.5562 C   0  0  0  0  0  0  0  0  0  0  0  0
   12.0257  -19.9098   20.1661 O   0  0  0  0  0  0  0  0  0  0  0  0
   11.3259  -17.1799   20.9665 C   0  0  0  0  0  0  0  0  0  0  0  0
   12.2091  -16.3165   20.7250 O   0  0  0  0  0  0  0  0  0  0  0  0
   10.0516  -20.7591   19.4485 O   0  0  0  0  0  0  0  0  0  0  0  0
   12.9089  -17.9019   26.7041 N   0  0  0  0  0  0  0  0  0  0  0  0
   12.7754  -17.0722   25.5714 C   0  0  0  0  0  0  0  0  0  0  0  0
   13.5204  -16.0750   25.4850 O   0  0  0  0  0  0  0  0  0  0  0  0
   11.8004  -17.3751   24.5431 C   0  0  0  0  0  0  0  0  0  0  0  0
   12.3986  -17.6260   23.1759 C   0  0  2  0  0  0  0  0  0  0  0  0
   11.4315  -17.9272   22.1667 N   0  0  0  0  0  0  0  0  0  0  0  0
   13.4954  -18.6351   23.2387 C   0  0  0  0  0  0  0  0  0  0  0  0
   14.5931  -18.4272   23.8181 O   0  0  0  0  0  0  0  0  0  0  0  0
   13.3358  -19.8758   22.6414 O   0  0  0  0  0  0  0  0  0  0  0  0
  1  5  1  0
  2  1  1  0
  2  3  1  0
  3  4  1  0
  5  4  1  0
  6  8  1  0
  5  6  1  6
  7  6  2  0
  9  8  1  0
  9 10  1  6
 11 10  1  0
 11 15  1  0
 12 11  2  0
 13 21  1  0
 13  9  1  0
 14 13  2  0
 17 16  1  0
 18 17  2  0
 19 17  1  0
 20 21  1  0
 20 19  1  1
 22 20  1  0
 23 22  2  0
 24 22  1  0
M  END
$$$$
