PDN.pdb
     RDKit          3D

 24 24  0  0  1  0  0  0  0  0999 V2000
    8.9189  -14.2824   18.6207 N   0  0  0  0  0  0  0  0  0  0  0  0
    8.5434  -13.0624   17.9162 C   0  0  0  0  0  0  0  0  0  0  0  0
    7.3668  -12.4976   18.6697 C   0  0  0  0  0  0  0  0  0  0  0  0
    7.2820  -13.3443   19.9281 C   0  0  0  0  0  0  0  0  0  0  0  0
    8.6716  -13.9359   20.0047 C   0  0  1  0  0  0  0  0  0  0  0  0
    8.6997  -15.1281   20.8857 C   0  0  0  0  0  0  0  0  0  0  0  0
    8.2633  -15.0044   22.0537 O   0  0  0  0  0  0  0  0  0  0  0  0
    9.1930  -16.3641   20.4505 N   0  0  0  0  0  0  0  0  0  0  0  0
    9.3120  -17.5384   21.2679 C   0  0  1  0  0  0  0  0  0  0  0  0
    9.3246  -18.8307   20.5148 C   0  0  0  0  0  0  0  0  0  0  0  0
    8.2547  -18.8834   19.4911 C   0  0  0  0  0  0  0  0  0  0  0  0
    7.0641  -18.5785   19.7520 O   0  0  0  0  0  0  0  0  0  0  0  0
   10.5353  -17.4433   22.1325 C   0  0  0  0  0  0  0  0  0  0  0  0
   10.8969  -18.4293   22.8259 O   0  0  0  0  0  0  0  0  0  0  0  0
    8.5571  -19.2796   18.1986 O   0  0  0  0  0  0  0  0  0  0  0  0
   14.6363  -15.8144   24.7574 N   0  0  0  0  0  0  0  0  0  0  0  0
   13.4763  -16.4366   25.2638 C   0  0  0  0  0  0  0  0  0  0  0  0
   13.4856  -16.8132   26.4533 O   0  0  0  0  0  0  0  0  0  0  0  0
   12.3124  -16.6291   24.4222 C   0  0  0  0  0  0  0  0  0  0  0  0
   12.4943  -16.1593   22.9953 C   0  0  2  0  0  0  0  0  0  0  0  0
   11.3121  -16.2591   22.1972 N   0  0  0  0  0  0  0  0  0  0  0  0
   13.6751  -16.8083   22.3551 C   0  0  0  0  0  0  0  0  0  0  0  0
   13.9865  -18.0134   22.5414 O   0  0  0  0  0  0  0  0  0  0  0  0
   14.4947  -16.0811   21.5061 O   0  0  0  0  0  0  0  0  0  0  0  0
  1  5  1  0
  2  1  1  0
  2  3  1  0
  3  4  1  0
  5  4  1  0
  6  8  1  0
  5  6  1  1
  7  6  2  0
  9  8  1  0
  9 10  1  6
 11 10  1  0
 11 15  1  0
 12 11  2  0
 13 21  1  0
 13  9  1  0
 14 13  2  0
 17 16  1  0
 18 17  2  0
 19 17  1  0
 20 21  1  0
 20 19  1  1
 22 20  1  0
 23 22  2  0
 24 22  1  0
M  END
$$$$
