PDN.pdb
     RDKit          3D

 24 24  0  0  1  0  0  0  0  0999 V2000
    9.4100  -12.7262   18.5728 N   0  0  0  0  0  0  0  0  0  0  0  0
    8.1066  -12.1612   18.2446 C   0  0  0  0  0  0  0  0  0  0  0  0
    7.1625  -13.3319   18.1503 C   0  0  0  0  0  0  0  0  0  0  0  0
    7.9698  -14.5112   18.6652 C   0  0  0  0  0  0  0  0  0  0  0  0
    9.0650  -13.8251   19.4504 C   0  0  1  0  0  0  0  0  0  0  0  0
   10.2146  -14.7341   19.6750 C   0  0  0  0  0  0  0  0  0  0  0  0
    9.9859  -15.8516   20.1933 O   0  0  0  0  0  0  0  0  0  0  0  0
   11.5237  -14.3787   19.3278 N   0  0  0  0  0  0  0  0  0  0  0  0
   12.6792  -15.2119   19.5067 C   0  0  1  0  0  0  0  0  0  0  0  0
   13.8754  -14.8096   18.7038 C   0  0  0  0  0  0  0  0  0  0  0  0
   13.7012  -15.1129   17.2640 C   0  0  0  0  0  0  0  0  0  0  0  0
   13.7985  -14.2276   16.3777 O   0  0  0  0  0  0  0  0  0  0  0  0
   13.0445  -15.2819   20.9608 C   0  0  0  0  0  0  0  0  0  0  0  0
   13.4629  -14.2557   21.5571 O   0  0  0  0  0  0  0  0  0  0  0  0
   13.4213  -16.4086   16.8621 O   0  0  0  0  0  0  0  0  0  0  0  0
   13.0597  -16.6716   26.0234 N   0  0  0  0  0  0  0  0  0  0  0  0
   12.9322  -17.8198   25.2144 C   0  0  0  0  0  0  0  0  0  0  0  0
   13.1395  -18.9324   25.7399 O   0  0  0  0  0  0  0  0  0  0  0  0
   12.5708  -17.7033   23.8159 C   0  0  0  0  0  0  0  0  0  0  0  0
   13.2573  -16.5664   23.0906 C   0  0  2  0  0  0  0  0  0  0  0  0
   12.9333  -16.4865   21.7002 N   0  0  0  0  0  0  0  0  0  0  0  0
   14.7285  -16.5732   23.3373 C   0  0  0  0  0  0  0  0  0  0  0  0
   15.5610  -17.0729   22.5364 O   0  0  0  0  0  0  0  0  0  0  0  0
   15.2434  -16.0108   24.4948 O   0  0  0  0  0  0  0  0  0  0  0  0
  1  5  1  0
  2  1  1  0
  2  3  1  0
  3  4  1  0
  5  4  1  0
  6  8  1  0
  5  6  1  6
  7  6  2  0
  9  8  1  0
  9 10  1  6
 11 10  1  0
 11 15  1  0
 12 11  2  0
 13 21  1  0
 13  9  1  0
 14 13  2  0
 17 16  1  0
 18 17  2  0
 19 17  1  0
 20 21  1  0
 20 19  1  6
 22 20  1  0
 23 22  2  0
 24 22  1  0
M  END
$$$$
