PDN.pdb
     RDKit          3D

 24 24  0  0  1  0  0  0  0  0999 V2000
    8.9079  -14.0932   17.9965 N   0  0  0  0  0  0  0  0  0  0  0  0
    8.0832  -13.1037   17.3135 C   0  0  0  0  0  0  0  0  0  0  0  0
    6.8554  -12.9296   18.1698 C   0  0  0  0  0  0  0  0  0  0  0  0
    7.1709  -13.6953   19.4434 C   0  0  0  0  0  0  0  0  0  0  0  0
    8.6797  -13.7840   19.3926 C   0  0  1  0  0  0  0  0  0  0  0  0
    9.1846  -14.8550   20.2849 C   0  0  0  0  0  0  0  0  0  0  0  0
    8.9067  -14.7817   21.5045 O   0  0  0  0  0  0  0  0  0  0  0  0
    9.9498  -15.9249   19.8049 N   0  0  0  0  0  0  0  0  0  0  0  0
   10.3978  -17.0375   20.5940 C   0  0  1  0  0  0  0  0  0  0  0  0
   10.9253  -18.1952   19.8072 C   0  0  0  0  0  0  0  0  0  0  0  0
   11.1928  -19.3713   20.6677 C   0  0  0  0  0  0  0  0  0  0  0  0
   10.4512  -19.6742   21.6356 O   0  0  0  0  0  0  0  0  0  0  0  0
   11.4307  -16.5848   21.5845 C   0  0  0  0  0  0  0  0  0  0  0  0
   12.2961  -15.7344   21.2506 O   0  0  0  0  0  0  0  0  0  0  0  0
   12.2917  -20.1753   20.4130 O   0  0  0  0  0  0  0  0  0  0  0  0
   13.0075  -15.0155   26.6063 N   0  0  0  0  0  0  0  0  0  0  0  0
   12.8642  -16.3904   26.3261 C   0  0  0  0  0  0  0  0  0  0  0  0
   13.5673  -17.1955   26.9697 O   0  0  0  0  0  0  0  0  0  0  0  0
   11.9264  -16.8468   25.3200 C   0  0  0  0  0  0  0  0  0  0  0  0
   12.3723  -16.5936   23.8963 C   0  0  2  0  0  0  0  0  0  0  0  0
   11.4667  -17.0915   22.9082 N   0  0  0  0  0  0  0  0  0  0  0  0
   13.7734  -17.0553   23.6748 C   0  0  0  0  0  0  0  0  0  0  0  0
   14.7833  -16.3658   23.9728 O   0  0  0  0  0  0  0  0  0  0  0  0
   14.0166  -18.2999   23.1151 O   0  0  0  0  0  0  0  0  0  0  0  0
  1  5  1  0
  2  1  1  0
  2  3  1  0
  3  4  1  0
  5  4  1  0
  6  8  1  0
  5  6  1  1
  7  6  2  0
  9  8  1  0
  9 10  1  6
 11 10  1  0
 11 15  1  0
 12 11  2  0
 13 21  1  0
 13  9  1  0
 14 13  2  0
 17 16  1  0
 18 17  2  0
 19 17  1  0
 20 21  1  0
 20 19  1  1
 22 20  1  0
 23 22  2  0
 24 22  1  0
M  END
$$$$
