PDN.pdb
     RDKit          3D

 24 24  0  0  1  0  0  0  0  0999 V2000
    9.0483  -13.9899   17.9089 N   0  0  0  0  0  0  0  0  0  0  0  0
    8.1044  -12.9811   17.4430 C   0  0  0  0  0  0  0  0  0  0  0  0
    6.9122  -13.0784   18.3596 C   0  0  0  0  0  0  0  0  0  0  0  0
    7.3604  -14.0200   19.4643 C   0  0  0  0  0  0  0  0  0  0  0  0
    8.8664  -13.9521   19.3450 C   0  0  1  0  0  0  0  0  0  0  0  0
    9.5104  -15.1081   20.0136 C   0  0  0  0  0  0  0  0  0  0  0  0
    9.2390  -15.3140   21.2193 O   0  0  0  0  0  0  0  0  0  0  0  0
   10.3975  -15.9577   19.3413 N   0  0  0  0  0  0  0  0  0  0  0  0
   11.1257  -17.0362   19.9479 C   0  0  1  0  0  0  0  0  0  0  0  0
   11.9869  -17.8202   19.0093 C   0  0  0  0  0  0  0  0  0  0  0  0
   12.4983  -19.0617   19.6359 C   0  0  0  0  0  0  0  0  0  0  0  0
   11.8503  -19.6828   20.5152 O   0  0  0  0  0  0  0  0  0  0  0  0
   11.9557  -16.5214   21.0876 C   0  0  0  0  0  0  0  0  0  0  0  0
   12.7033  -15.5223   20.9239 O   0  0  0  0  0  0  0  0  0  0  0  0
   13.7289  -19.5698   19.2535 O   0  0  0  0  0  0  0  0  0  0  0  0
   10.2805  -15.0882   23.9973 N   0  0  0  0  0  0  0  0  0  0  0  0
   10.6072  -16.2050   24.7942 C   0  0  0  0  0  0  0  0  0  0  0  0
    9.7034  -16.7140   25.4877 O   0  0  0  0  0  0  0  0  0  0  0  0
   11.9539  -16.7399   24.8022 C   0  0  0  0  0  0  0  0  0  0  0  0
   12.6739  -16.6273   23.4759 C   0  0  2  0  0  0  0  0  0  0  0  0
   11.9271  -17.1330   22.3664 N   0  0  0  0  0  0  0  0  0  0  0  0
   14.0481  -17.2026   23.5524 C   0  0  0  0  0  0  0  0  0  0  0  0
   15.0666  -16.5226   23.8427 O   0  0  0  0  0  0  0  0  0  0  0  0
   14.2548  -18.5494   23.2977 O   0  0  0  0  0  0  0  0  0  0  0  0
  1  5  1  0
  2  1  1  0
  2  3  1  0
  3  4  1  0
  5  4  1  0
  6  8  1  0
  5  6  1  1
  7  6  2  0
  9  8  1  0
  9 10  1  6
 11 10  1  0
 11 15  1  0
 12 11  2  0
 13 21  1  0
 13  9  1  0
 14 13  2  0
 17 16  1  0
 18 17  2  0
 19 17  1  0
 20 21  1  0
 20 19  1  1
 22 20  1  0
 23 22  2  0
 24 22  1  0
M  END
$$$$
