PDN.pdb
     RDKit          3D

 24 24  0  0  1  0  0  0  0  0999 V2000
    7.7038  -14.1965   19.6210 N   0  0  0  0  0  0  0  0  0  0  0  0
    7.1155  -12.9951   19.0409 C   0  0  0  0  0  0  0  0  0  0  0  0
    8.2575  -12.2409   18.4102 C   0  0  0  0  0  0  0  0  0  0  0  0
    9.4314  -13.2024   18.4825 C   0  0  0  0  0  0  0  0  0  0  0  0
    8.7380  -14.5338   18.6652 C   0  0  1  0  0  0  0  0  0  0  0  0
    9.6704  -15.5558   19.1985 C   0  0  0  0  0  0  0  0  0  0  0  0
   10.6350  -15.9025   18.4779 O   0  0  0  0  0  0  0  0  0  0  0  0
    9.5004  -16.1308   20.4638 N   0  0  0  0  0  0  0  0  0  0  0  0
   10.3435  -17.1470   21.0277 C   0  0  1  0  0  0  0  0  0  0  0  0
    9.9993  -18.5456   20.6240 C   0  0  0  0  0  0  0  0  0  0  0  0
   10.3158  -19.5221   21.6924 C   0  0  0  0  0  0  0  0  0  0  0  0
   10.8646  -19.1802   22.7697 O   0  0  0  0  0  0  0  0  0  0  0  0
   11.7810  -16.8641   20.7016 C   0  0  0  0  0  0  0  0  0  0  0  0
   12.3312  -17.4352   19.7243 O   0  0  0  0  0  0  0  0  0  0  0  0
   10.0043  -20.8604   21.5165 O   0  0  0  0  0  0  0  0  0  0  0  0
   15.8216  -14.7570   18.7944 N   0  0  0  0  0  0  0  0  0  0  0  0
   14.5551  -14.3191   19.2342 C   0  0  0  0  0  0  0  0  0  0  0  0
   13.7418  -13.9226   18.3751 O   0  0  0  0  0  0  0  0  0  0  0  0
   14.2157  -14.3323   20.6429 C   0  0  0  0  0  0  0  0  0  0  0  0
   13.9378  -15.7111   21.2011 C   0  0  2  0  0  0  0  0  0  0  0  0
   12.5558  -15.9595   21.4706 N   0  0  0  0  0  0  0  0  0  0  0  0
   14.8133  -16.0110   22.3711 C   0  0  0  0  0  0  0  0  0  0  0  0
   14.3671  -16.2970   23.5125 O   0  0  0  0  0  0  0  0  0  0  0  0
   16.1925  -15.9835   22.2344 O   0  0  0  0  0  0  0  0  0  0  0  0
  1  5  1  0
  2  1  1  0
  2  3  1  0
  3  4  1  0
  5  4  1  0
  6  8  1  0
  5  6  1  1
  7  6  2  0
  9  8  1  0
  9 10  1  6
 11 10  1  0
 11 15  1  0
 12 11  2  0
 13 21  1  0
 13  9  1  0
 14 13  2  0
 17 16  1  0
 18 17  2  0
 19 17  1  0
 20 21  1  0
 20 19  1  1
 22 20  1  0
 23 22  2  0
 24 22  1  0
M  END
$$$$
