PDN.pdb
     RDKit          3D

 24 24  0  0  1  0  0  0  0  0999 V2000
    8.4496  -14.5177   19.5268 N   0  0  0  0  0  0  0  0  0  0  0  0
    8.5125  -13.4286   18.5595 C   0  0  0  0  0  0  0  0  0  0  0  0
    7.3698  -12.5077   18.9016 C   0  0  0  0  0  0  0  0  0  0  0  0
    6.8425  -13.0349   20.2251 C   0  0  0  0  0  0  0  0  0  0  0  0
    8.0154  -13.8435   20.7325 C   0  0  1  0  0  0  0  0  0  0  0  0
    7.5924  -14.8036   21.7801 C   0  0  0  0  0  0  0  0  0  0  0  0
    7.2371  -14.3421   22.8894 O   0  0  0  0  0  0  0  0  0  0  0  0
    7.5814  -16.1866   21.5618 N   0  0  0  0  0  0  0  0  0  0  0  0
    7.0904  -17.1642   22.4917 C   0  0  1  0  0  0  0  0  0  0  0  0
    6.3395  -18.3001   21.8726 C   0  0  0  0  0  0  0  0  0  0  0  0
    5.8035  -19.2295   22.8945 C   0  0  0  0  0  0  0  0  0  0  0  0
    5.1273  -18.8280   23.8744 O   0  0  0  0  0  0  0  0  0  0  0  0
    8.2197  -17.6968   23.3246 C   0  0  0  0  0  0  0  0  0  0  0  0
    8.0326  -18.6795   24.0882 O   0  0  0  0  0  0  0  0  0  0  0  0
    6.0452  -20.5889   22.7834 O   0  0  0  0  0  0  0  0  0  0  0  0
   11.8909  -18.1867   21.2455 N   0  0  0  0  0  0  0  0  0  0  0  0
   12.0063  -17.0780   22.1096 C   0  0  0  0  0  0  0  0  0  0  0  0
   12.1452  -15.9486   21.5977 O   0  0  0  0  0  0  0  0  0  0  0  0
   11.9638  -17.2528   23.5475 C   0  0  0  0  0  0  0  0  0  0  0  0
   10.5934  -17.5950   24.0904 C   0  0  2  0  0  0  0  0  0  0  0  0
    9.5144  -17.1205   23.2810 N   0  0  0  0  0  0  0  0  0  0  0  0
   10.4584  -17.1915   25.5202 C   0  0  0  0  0  0  0  0  0  0  0  0
    9.6363  -16.3260   25.9191 O   0  0  0  0  0  0  0  0  0  0  0  0
   11.2604  -17.7762   26.4878 O   0  0  0  0  0  0  0  0  0  0  0  0
  1  5  1  0
  2  1  1  0
  2  3  1  0
  3  4  1  0
  5  4  1  0
  6  8  1  0
  5  6  1  1
  7  6  2  0
  9  8  1  0
  9 10  1  6
 11 10  1  0
 11 15  1  0
 12 11  2  0
 13 21  1  0
 13  9  1  0
 14 13  2  0
 17 16  1  0
 18 17  2  0
 19 17  1  0
 20 21  1  0
 20 19  1  6
 22 20  1  0
 23 22  2  0
 24 22  1  0
M  END
$$$$
