DQH.pdb
     RDKit          3D

 28 28  0  0  1  0  0  0  0  0999 V2000
   21.4875  -14.7984  -15.6407 N   0  0  0  0  0  0  0  0  0  0  0  0
   20.9438  -13.7067  -16.3951 C   0  0  1  0  0  0  0  0  0  0  0  0
   19.4128  -13.7354  -16.3482 C   0  0  0  0  0  0  0  0  0  0  0  0
   18.9158  -15.0773  -16.7496 C   0  0  0  0  0  0  0  0  0  0  0  0
   19.4385  -15.7451  -17.6508 O   0  0  0  0  0  0  0  0  0  0  0  0
   21.4581  -12.3842  -15.9739 C   0  0  0  0  0  0  0  0  0  0  0  0
   21.2131  -11.9680  -14.8176 O   0  0  0  0  0  0  0  0  0  0  0  0
   17.8144  -15.6131  -16.0875 O   0  0  0  0  0  0  0  0  0  0  0  0
   26.0264   -9.3054  -19.0064 N   0  0  0  0  0  0  0  0  0  0  0  0
   25.7432   -8.4275  -17.9132 C   0  0  0  0  0  0  0  0  0  0  0  0
   26.4916   -7.4389  -17.7725 O   0  0  0  0  0  0  0  0  0  0  0  0
   24.5972   -8.7532  -17.0435 C   0  0  0  0  0  0  0  0  0  0  0  0
   23.9426  -10.0673  -17.3791 C   0  0  0  0  0  0  0  0  0  0  0  0
   22.7287  -10.2833  -16.5378 C   0  0  2  0  0  0  0  0  0  0  0  0
   22.2106  -11.6006  -16.8508 N   0  0  0  0  0  0  0  0  0  0  0  0
   21.6964   -9.2323  -16.7490 C   0  0  0  0  0  0  0  0  0  0  0  0
   21.0460   -9.1930  -17.8196 O   0  0  0  0  0  0  0  0  0  0  0  0
   21.4443   -8.2761  -15.7476 N   0  0  0  0  0  0  0  0  0  0  0  0
   20.3582   -7.3371  -15.7782 C   0  0  1  0  0  0  0  0  0  0  0  0
   19.0184   -8.0219  -15.9473 C   0  0  0  0  0  0  0  0  0  0  0  0
   17.8880   -7.0643  -15.8842 C   0  0  0  0  0  0  0  0  0  0  0  0
   17.9768   -5.6825  -15.7313 C   0  0  0  0  0  0  0  0  0  0  0  0
   16.7485   -5.1808  -15.7212 N   0  0  0  0  0  0  0  0  0  0  0  0
   15.8705   -6.1697  -15.8600 C   0  0  0  0  0  0  0  0  0  0  0  0
   16.5766   -7.3169  -15.9589 N   0  0  0  0  0  0  0  0  0  0  0  0
   20.3904   -6.5221  -14.5464 C   0  0  0  0  0  0  0  0  0  0  0  0
   19.4226   -5.5555  -14.3480 O   0  0  0  0  0  0  0  0  0  0  0  0
   21.2568   -6.6572  -13.6566 O   0  0  0  0  0  0  0  0  0  0  0  0
  2  1  1  1
  3  2  1  0
  3  4  1  0
  4  5  2  0
  6  2  1  0
  6  7  2  0
  8  4  1  0
  9 10  1  0
 10 12  1  0
 11 10  2  0
 12 13  1  0
 14 13  1  6
 14 15  1  0
 15  6  1  0
 16 14  1  0
 17 16  2  0
 18 16  1  0
 19 18  1  0
 19 26  1  0
 19 20  1  1
 21 25  1  0
 21 20  1  0
 22 21  2  0
 23 22  1  0
 23 24  1  0
 24 25  2  0
 26 27  1  0
 28 26  2  0
M  END
$$$$
