DQH.pdb
     RDKit          3D

 28 28  0  0  1  0  0  0  0  0999 V2000
   14.1569  -11.8415   -9.6028 N   0  0  0  0  0  0  0  0  0  0  0  0
   13.6885  -11.2763  -10.8348 C   0  0  1  0  0  0  0  0  0  0  0  0
   12.1583  -11.2022  -10.8404 C   0  0  0  0  0  0  0  0  0  0  0  0
   11.5816  -12.5678  -10.7341 C   0  0  0  0  0  0  0  0  0  0  0  0
   12.2111  -13.5883  -11.0402 O   0  0  0  0  0  0  0  0  0  0  0  0
   14.2802   -9.9544  -11.1402 C   0  0  0  0  0  0  0  0  0  0  0  0
   14.0699   -9.4291  -12.2584 O   0  0  0  0  0  0  0  0  0  0  0  0
   10.2767  -12.7134  -10.2708 O   0  0  0  0  0  0  0  0  0  0  0  0
   15.1127   -5.6742   -6.9200 N   0  0  0  0  0  0  0  0  0  0  0  0
   13.9742   -5.9053   -7.7544 C   0  0  0  0  0  0  0  0  0  0  0  0
   12.8906   -5.4096   -7.3836 O   0  0  0  0  0  0  0  0  0  0  0  0
   14.1655   -6.7033   -8.9801 C   0  0  0  0  0  0  0  0  0  0  0  0
   15.5688   -7.2243   -9.1449 C   0  0  0  0  0  0  0  0  0  0  0  0
   15.6980   -8.0039  -10.4112 C   0  0  2  0  0  0  0  0  0  0  0  0
   15.0669   -9.2912  -10.1966 N   0  0  0  0  0  0  0  0  0  0  0  0
   17.1145   -8.1611  -10.8399 C   0  0  0  0  0  0  0  0  0  0  0  0
   17.9285   -8.7783  -10.1139 O   0  0  0  0  0  0  0  0  0  0  0  0
   17.5486   -7.6176  -12.0634 N   0  0  0  0  0  0  0  0  0  0  0  0
   18.8901   -7.7196  -12.5654 C   0  0  1  0  0  0  0  0  0  0  0  0
   19.0286   -8.8160  -13.6005 C   0  0  0  0  0  0  0  0  0  0  0  0
   20.3853   -8.8544  -14.1976 C   0  0  0  0  0  0  0  0  0  0  0  0
   21.4816   -9.5722  -13.7246 C   0  0  0  0  0  0  0  0  0  0  0  0
   22.5110   -9.3474  -14.5309 N   0  0  0  0  0  0  0  0  0  0  0  0
   22.1344   -8.5201  -15.5014 C   0  0  0  0  0  0  0  0  0  0  0  0
   20.8337   -8.2245  -15.2891 N   0  0  0  0  0  0  0  0  0  0  0  0
   19.3003   -6.4109  -13.1147 C   0  0  0  0  0  0  0  0  0  0  0  0
   18.3904   -5.3707  -13.1383 O   0  0  0  0  0  0  0  0  0  0  0  0
   20.4422   -6.1842  -13.5676 O   0  0  0  0  0  0  0  0  0  0  0  0
  2  1  1  1
  3  2  1  0
  3  4  1  0
  4  5  2  0
  6  2  1  0
  6  7  2  0
  8  4  1  0
  9 10  1  0
 10 12  1  0
 11 10  2  0
 12 13  1  0
 14 13  1  1
 14 15  1  0
 15  6  1  0
 16 14  1  0
 17 16  2  0
 18 16  1  0
 19 18  1  0
 19 26  1  0
 19 20  1  6
 21 25  1  0
 21 20  1  0
 22 21  2  0
 23 22  1  0
 23 24  1  0
 24 25  2  0
 26 27  1  0
 28 26  2  0
M  END
$$$$
