DQH.pdb
     RDKit          3D

 28 28  0  0  1  0  0  0  0  0999 V2000
   13.9931  -10.2639   -9.7153 N   0  0  0  0  0  0  0  0  0  0  0  0
   15.2904   -9.9127  -10.2156 C   0  0  1  0  0  0  0  0  0  0  0  0
   15.5956  -10.6901  -11.5000 C   0  0  0  0  0  0  0  0  0  0  0  0
   15.5840  -12.1508  -11.2265 C   0  0  0  0  0  0  0  0  0  0  0  0
   14.7087  -12.9088  -11.6630 O   0  0  0  0  0  0  0  0  0  0  0  0
   15.4679   -8.4585  -10.4262 C   0  0  0  0  0  0  0  0  0  0  0  0
   14.4586   -7.7196  -10.5029 O   0  0  0  0  0  0  0  0  0  0  0  0
   16.5990  -12.6977  -10.4459 O   0  0  0  0  0  0  0  0  0  0  0  0
   14.7703   -4.3315   -7.8702 N   0  0  0  0  0  0  0  0  0  0  0  0
   15.8385   -3.6194   -8.5009 C   0  0  0  0  0  0  0  0  0  0  0  0
   15.8943   -2.3888   -8.3007 O   0  0  0  0  0  0  0  0  0  0  0  0
   16.7859   -4.3865   -9.3313 C   0  0  0  0  0  0  0  0  0  0  0  0
   16.5054   -5.8660   -9.3518 C   0  0  0  0  0  0  0  0  0  0  0  0
   17.0230   -6.4849  -10.6076 C   0  0  2  0  0  0  0  0  0  0  0  0
   16.7451   -7.9061  -10.5396 N   0  0  0  0  0  0  0  0  0  0  0  0
   18.4745   -6.2272  -10.8119 C   0  0  0  0  0  0  0  0  0  0  0  0
   19.2670   -6.2790   -9.8424 O   0  0  0  0  0  0  0  0  0  0  0  0
   18.9660   -5.9239  -12.0954 N   0  0  0  0  0  0  0  0  0  0  0  0
   20.3331   -5.5912  -12.3822 C   0  0  1  0  0  0  0  0  0  0  0  0
   20.8074   -6.2047  -13.6827 C   0  0  0  0  0  0  0  0  0  0  0  0
   20.8201   -7.6866  -13.6311 C   0  0  0  0  0  0  0  0  0  0  0  0
   20.5285   -8.4823  -12.5254 C   0  0  0  0  0  0  0  0  0  0  0  0
   20.6497   -9.7552  -12.8797 N   0  0  0  0  0  0  0  0  0  0  0  0
   21.0050   -9.8216  -14.1593 C   0  0  0  0  0  0  0  0  0  0  0  0
   21.1066   -8.5522  -14.6097 N   0  0  0  0  0  0  0  0  0  0  0  0
   20.4780   -4.1210  -12.4005 C   0  0  0  0  0  0  0  0  0  0  0  0
   19.3652   -3.3279  -12.1930 O   0  0  0  0  0  0  0  0  0  0  0  0
   21.5671   -3.5411  -12.5960 O   0  0  0  0  0  0  0  0  0  0  0  0
  2  1  1  6
  3  2  1  0
  3  4  1  0
  4  5  2  0
  6  2  1  0
  6  7  2  0
  8  4  1  0
  9 10  1  0
 10 12  1  0
 11 10  2  0
 12 13  1  0
 14 13  1  1
 14 15  1  0
 15  6  1  0
 16 14  1  0
 17 16  2  0
 18 16  1  0
 19 18  1  0
 19 26  1  0
 19 20  1  6
 21 25  1  0
 21 20  1  0
 22 21  2  0
 23 22  1  0
 23 24  1  0
 24 25  2  0
 26 27  1  0
 28 26  2  0
M  END
$$$$
