DQH.pdb
     RDKit          3D

 28 28  0  0  1  0  0  0  0  0999 V2000
   12.1079  -10.9501   -9.9643 N   0  0  0  0  0  0  0  0  0  0  0  0
   13.5387  -10.9200  -10.0566 C   0  0  1  0  0  0  0  0  0  0  0  0
   14.0295  -11.9506  -11.0783 C   0  0  0  0  0  0  0  0  0  0  0  0
   13.7396  -13.3257  -10.5945 C   0  0  0  0  0  0  0  0  0  0  0  0
   13.2670  -13.5579   -9.4747 O   0  0  0  0  0  0  0  0  0  0  0  0
   14.0823   -9.5774  -10.3612 C   0  0  0  0  0  0  0  0  0  0  0  0
   13.8308   -9.0480  -11.4688 O   0  0  0  0  0  0  0  0  0  0  0  0
   14.0088  -14.4048  -11.4322 O   0  0  0  0  0  0  0  0  0  0  0  0
   15.0457   -4.9733   -6.4126 N   0  0  0  0  0  0  0  0  0  0  0  0
   13.8801   -5.2717   -7.1861 C   0  0  0  0  0  0  0  0  0  0  0  0
   12.8245   -4.6871   -6.8678 O   0  0  0  0  0  0  0  0  0  0  0  0
   14.0129   -6.2380   -8.2926 C   0  0  0  0  0  0  0  0  0  0  0  0
   15.3973   -6.8164   -8.4222 C   0  0  0  0  0  0  0  0  0  0  0  0
   15.5175   -7.6255   -9.6708 C   0  0  2  0  0  0  0  0  0  0  0  0
   14.8694   -8.8995   -9.4285 N   0  0  0  0  0  0  0  0  0  0  0  0
   16.9322   -7.8107  -10.0941 C   0  0  0  0  0  0  0  0  0  0  0  0
   17.7491   -8.3797   -9.3329 O   0  0  0  0  0  0  0  0  0  0  0  0
   17.3612   -7.3479  -11.3521 N   0  0  0  0  0  0  0  0  0  0  0  0
   18.6746   -7.5643  -11.8909 C   0  0  1  0  0  0  0  0  0  0  0  0
   18.7345   -8.7982  -12.7662 C   0  0  0  0  0  0  0  0  0  0  0  0
   20.0571   -8.9598  -13.4169 C   0  0  0  0  0  0  0  0  0  0  0  0
   21.1495   -8.1027  -13.3035 C   0  0  0  0  0  0  0  0  0  0  0  0
   22.1443   -8.5905  -14.0334 N   0  0  0  0  0  0  0  0  0  0  0  0
   21.7491   -9.7201  -14.6128 C   0  0  0  0  0  0  0  0  0  0  0  0
   20.4721   -9.9375  -14.2300 N   0  0  0  0  0  0  0  0  0  0  0  0
   19.0949   -6.3595  -12.6356 C   0  0  0  0  0  0  0  0  0  0  0  0
   18.1343   -5.5493  -13.2112 O   0  0  0  0  0  0  0  0  0  0  0  0
   20.2895   -6.0232  -12.7787 O   0  0  0  0  0  0  0  0  0  0  0  0
  2  1  1  6
  3  2  1  0
  3  4  1  0
  4  5  2  0
  6  2  1  0
  6  7  2  0
  8  4  1  0
  9 10  1  0
 10 12  1  0
 11 10  2  0
 12 13  1  0
 14 13  1  1
 14 15  1  0
 15  6  1  0
 16 14  1  0
 17 16  2  0
 18 16  1  0
 19 18  1  0
 19 26  1  0
 19 20  1  6
 21 25  1  0
 21 20  1  0
 22 21  2  0
 23 22  1  0
 23 24  1  0
 24 25  2  0
 26 27  1  0
 28 26  2  0
M  END
$$$$
