DQH.pdb
     RDKit          3D

 28 28  0  0  1  0  0  0  0  0999 V2000
   19.2860  -14.1119  -15.3417 N   0  0  0  0  0  0  0  0  0  0  0  0
   18.9581  -12.9165  -16.0630 C   0  0  1  0  0  0  0  0  0  0  0  0
   17.4380  -12.7479  -16.1538 C   0  0  0  0  0  0  0  0  0  0  0  0
   16.8240  -13.9683  -16.7388 C   0  0  0  0  0  0  0  0  0  0  0  0
   17.1039  -14.3848  -17.8699 O   0  0  0  0  0  0  0  0  0  0  0  0
   19.5899  -11.6993  -15.5064 C   0  0  0  0  0  0  0  0  0  0  0  0
   19.4062  -11.4059  -14.3020 O   0  0  0  0  0  0  0  0  0  0  0  0
   15.8922  -14.6795  -15.9873 O   0  0  0  0  0  0  0  0  0  0  0  0
   25.0828   -9.6562  -17.2230 N   0  0  0  0  0  0  0  0  0  0  0  0
   24.6555   -8.5539  -16.4178 C   0  0  0  0  0  0  0  0  0  0  0  0
   25.4891   -7.6492  -16.2083 O   0  0  0  0  0  0  0  0  0  0  0  0
   23.2738   -8.5689  -15.9018 C   0  0  0  0  0  0  0  0  0  0  0  0
   22.4944   -9.7921  -16.3069 C   0  0  0  0  0  0  0  0  0  0  0  0
   21.0794   -9.6955  -15.8416 C   0  0  2  0  0  0  0  0  0  0  0  0
   20.3853  -10.8793  -16.3089 N   0  0  0  0  0  0  0  0  0  0  0  0
   20.4090   -8.4539  -16.3146 C   0  0  0  0  0  0  0  0  0  0  0  0
   20.4675   -8.1265  -17.5230 O   0  0  0  0  0  0  0  0  0  0  0  0
   19.7051   -7.6396  -15.4078 N   0  0  0  0  0  0  0  0  0  0  0  0
   19.0108   -6.4358  -15.7693 C   0  0  1  0  0  0  0  0  0  0  0  0
   17.7787   -6.2119  -14.9182 C   0  0  0  0  0  0  0  0  0  0  0  0
   17.0453   -4.9831  -15.3067 C   0  0  0  0  0  0  0  0  0  0  0  0
   16.9314   -4.4538  -16.5903 C   0  0  0  0  0  0  0  0  0  0  0  0
   16.1979   -3.3500  -16.5265 N   0  0  0  0  0  0  0  0  0  0  0  0
   15.8323   -3.1397  -15.2655 C   0  0  0  0  0  0  0  0  0  0  0  0
   16.3550   -4.1430  -14.5276 N   0  0  0  0  0  0  0  0  0  0  0  0
   19.9429   -5.2936  -15.6716 C   0  0  0  0  0  0  0  0  0  0  0  0
   19.6318   -4.1086  -16.3115 O   0  0  0  0  0  0  0  0  0  0  0  0
   21.0156   -5.3360  -15.0330 O   0  0  0  0  0  0  0  0  0  0  0  0
  2  1  1  1
  3  2  1  0
  3  4  1  0
  4  5  2  0
  6  2  1  0
  6  7  2  0
  8  4  1  0
  9 10  1  0
 10 12  1  0
 11 10  2  0
 12 13  1  0
 14 13  1  6
 14 15  1  0
 15  6  1  0
 16 14  1  0
 17 16  2  0
 18 16  1  0
 19 18  1  0
 19 26  1  0
 19 20  1  1
 21 25  1  0
 21 20  1  0
 22 21  2  0
 23 22  1  0
 23 24  1  0
 24 25  2  0
 26 27  1  0
 28 26  2  0
M  END
$$$$
