QDS.pdb
     RDKit          3D

 24 23  0  0  1  0  0  0  0  0999 V2000
    7.4389  -12.6493   16.7609 N   0  0  0  0  0  0  0  0  0  0  0  0
    8.0410  -13.9084   16.4424 C   0  0  0  0  0  0  0  0  0  0  0  0
    7.9237  -14.3353   15.2576 O   0  0  0  0  0  0  0  0  0  0  0  0
    8.7573  -14.6347   17.4932 C   0  0  0  0  0  0  0  0  0  0  0  0
    8.7402  -14.0197   18.8442 C   0  0  0  0  0  0  0  0  0  0  0  0
    9.6235  -14.6710   19.8698 C   0  0  2  0  0  0  0  0  0  0  0  0
   10.1069  -15.9146   19.3587 N   0  0  0  0  0  0  0  0  0  0  0  0
    8.8335  -14.8402   21.1205 C   0  0  0  0  0  0  0  0  0  0  0  0
    8.1245  -13.9346   21.6204 O   0  0  0  0  0  0  0  0  0  0  0  0
    8.8669  -16.0805   21.8046 N   0  0  0  0  0  0  0  0  0  0  0  0
    8.2044  -16.3450   23.0528 C   0  0  1  0  0  0  0  0  0  0  0  0
    7.7516  -17.7508   23.1066 C   0  0  0  0  0  0  0  0  0  0  0  0
    6.6246  -17.9842   22.1826 C   0  0  0  0  0  0  0  0  0  0  0  0
    5.5537  -17.3747   22.3471 O   0  0  0  0  0  0  0  0  0  0  0  0
    8.9466  -15.8507   24.2217 C   0  0  0  0  0  0  0  0  0  0  0  0
   10.2061  -16.0253   24.2258 O   0  0  0  0  0  0  0  0  0  0  0  0
    6.7512  -18.8724   21.1395 O   0  0  0  0  0  0  0  0  0  0  0  0
    9.0519  -13.1695   28.2808 O   0  0  0  0  0  0  0  0  0  0  0  0
    8.3428  -13.6927   27.1852 C   0  0  0  0  0  0  0  0  0  0  0  0
    9.1341  -14.7894   26.5043 C   0  0  2  0  0  0  0  0  0  0  0  0
    8.3677  -15.1972   25.3388 N   0  0  0  0  0  0  0  0  0  0  0  0
    9.4834  -15.8999   27.3917 C   0  0  0  0  0  0  0  0  0  0  0  0
    8.7749  -16.9385   27.4851 O   0  0  0  0  0  0  0  0  0  0  0  0
   10.6263  -15.8348   28.1676 O   0  0  0  0  0  0  0  0  0  0  0  0
  2  1  1  0
  2  3  2  0
  4  2  1  0
  5  6  1  0
  5  4  1  0
  6  7  1  6
  8 10  1  0
  8  6  1  0
  9  8  2  0
 11 10  1  0
 11 12  1  1
 12 13  1  0
 13 17  1  0
 14 13  2  0
 15 11  1  0
 16 15  2  0
 19 18  1  0
 20 21  1  0
 20 19  1  1
 21 15  1  0
 22 20  1  0
 23 22  2  0
 24 22  1  0
M  END
$$$$
