QDS.pdb
     RDKit          3D

 24 23  0  0  1  0  0  0  0  0999 V2000
    9.1524  -12.6549   18.9887 N   0  0  0  0  0  0  0  0  0  0  0  0
    8.2092  -13.5827   18.4421 C   0  0  0  0  0  0  0  0  0  0  0  0
    7.9754  -13.5234   17.2004 O   0  0  0  0  0  0  0  0  0  0  0  0
    7.5668  -14.5470   19.3376 C   0  0  0  0  0  0  0  0  0  0  0  0
    7.9255  -14.4476   20.7747 C   0  0  0  0  0  0  0  0  0  0  0  0
    9.3684  -14.7005   21.1070 C   0  0  2  0  0  0  0  0  0  0  0  0
    9.9130  -15.6362   20.1747 N   0  0  0  0  0  0  0  0  0  0  0  0
    9.4409  -15.1907   22.5110 C   0  0  0  0  0  0  0  0  0  0  0  0
    8.6379  -14.8425   23.4091 O   0  0  0  0  0  0  0  0  0  0  0  0
   10.4630  -16.0996   22.8810 N   0  0  0  0  0  0  0  0  0  0  0  0
   10.6058  -16.6836   24.1868 C   0  0  1  0  0  0  0  0  0  0  0  0
   11.5472  -17.8219   24.1408 C   0  0  0  0  0  0  0  0  0  0  0  0
   11.1244  -18.8241   23.1431 C   0  0  0  0  0  0  0  0  0  0  0  0
    9.9654  -19.2727   23.1702 O   0  0  0  0  0  0  0  0  0  0  0  0
   10.8305  -15.6902   25.2471 C   0  0  0  0  0  0  0  0  0  0  0  0
   11.9404  -15.0699   25.2354 O   0  0  0  0  0  0  0  0  0  0  0  0
   12.0049  -19.2654   22.1825 O   0  0  0  0  0  0  0  0  0  0  0  0
    7.8654  -13.9138   27.2965 O   0  0  0  0  0  0  0  0  0  0  0  0
    9.1575  -13.3595   27.3039 C   0  0  0  0  0  0  0  0  0  0  0  0
   10.2106  -14.4463   27.3543 C   0  0  2  0  0  0  0  0  0  0  0  0
    9.9083  -15.3728   26.2761 N   0  0  0  0  0  0  0  0  0  0  0  0
   10.3276  -15.0911   28.6632 C   0  0  0  0  0  0  0  0  0  0  0  0
   10.1589  -16.3301   28.8234 O   0  0  0  0  0  0  0  0  0  0  0  0
   10.6335  -14.3384   29.7823 O   0  0  0  0  0  0  0  0  0  0  0  0
  2  1  1  0
  2  3  2  0
  4  2  1  0
  5  6  1  0
  5  4  1  0
  6  7  1  6
  8 10  1  0
  8  6  1  0
  9  8  2  0
 11 10  1  0
 11 12  1  6
 12 13  1  0
 13 17  1  0
 14 13  2  0
 15 11  1  0
 16 15  2  0
 19 18  1  0
 20 21  1  0
 20 19  1  1
 21 15  1  0
 22 20  1  0
 23 22  2  0
 24 22  1  0
M  END
$$$$
