QDS.pdb
     RDKit          3D

 24 23  0  0  1  0  0  0  0  0999 V2000
    8.2003  -11.8097   19.3167 N   0  0  0  0  0  0  0  0  0  0  0  0
    8.1013  -13.0924   19.9444 C   0  0  0  0  0  0  0  0  0  0  0  0
    7.4605  -13.1688   21.0323 O   0  0  0  0  0  0  0  0  0  0  0  0
    8.7401  -14.2437   19.3033 C   0  0  0  0  0  0  0  0  0  0  0  0
    9.4614  -13.9714   18.0347 C   0  0  0  0  0  0  0  0  0  0  0  0
   10.2646  -15.1138   17.4815 C   0  0  2  0  0  0  0  0  0  0  0  0
    9.3802  -16.1437   17.0359 N   0  0  0  0  0  0  0  0  0  0  0  0
   11.1933  -15.5847   18.5459 C   0  0  0  0  0  0  0  0  0  0  0  0
   10.9464  -16.5541   19.3022 O   0  0  0  0  0  0  0  0  0  0  0  0
   12.4294  -14.9193   18.7381 N   0  0  0  0  0  0  0  0  0  0  0  0
   13.4170  -15.2927   19.7136 C   0  0  1  0  0  0  0  0  0  0  0  0
   14.7201  -14.6761   19.3880 C   0  0  0  0  0  0  0  0  0  0  0  0
   15.7769  -15.1458   20.3050 C   0  0  0  0  0  0  0  0  0  0  0  0
   15.7674  -16.3215   20.7089 O   0  0  0  0  0  0  0  0  0  0  0  0
   12.9506  -15.1447   21.1000 C   0  0  0  0  0  0  0  0  0  0  0  0
   12.8602  -13.9623   21.5588 O   0  0  0  0  0  0  0  0  0  0  0  0
   16.7733  -14.2908   20.7162 O   0  0  0  0  0  0  0  0  0  0  0  0
   10.1713  -17.2656   22.9753 O   0  0  0  0  0  0  0  0  0  0  0  0
   10.6830  -16.0154   23.3655 C   0  0  0  0  0  0  0  0  0  0  0  0
   12.1969  -16.0216   23.3439 C   0  0  2  0  0  0  0  0  0  0  0  0
   12.5954  -16.2147   21.9597 N   0  0  0  0  0  0  0  0  0  0  0  0
   12.7940  -16.9905   24.2644 C   0  0  0  0  0  0  0  0  0  0  0  0
   13.4851  -17.9658   23.8638 O   0  0  0  0  0  0  0  0  0  0  0  0
   12.6098  -16.8560   25.6285 O   0  0  0  0  0  0  0  0  0  0  0  0
  2  1  1  0
  2  3  2  0
  4  2  1  0
  5  6  1  0
  5  4  1  0
  6  7  1  1
  8 10  1  0
  8  6  1  0
  9  8  2  0
 11 10  1  0
 11 12  1  1
 12 13  1  0
 13 17  1  0
 14 13  2  0
 15 11  1  0
 16 15  2  0
 19 18  1  0
 20 21  1  0
 20 19  1  6
 21 15  1  0
 22 20  1  0
 23 22  2  0
 24 22  1  0
M  END
$$$$
