QDS.pdb
     RDKit          3D

 24 23  0  0  1  0  0  0  0  0999 V2000
    9.9382  -13.2148   18.0341 N   0  0  0  0  0  0  0  0  0  0  0  0
    8.5466  -13.0450   17.7441 C   0  0  0  0  0  0  0  0  0  0  0  0
    8.2329  -12.5811   16.6100 O   0  0  0  0  0  0  0  0  0  0  0  0
    7.5625  -13.4134   18.7641 C   0  0  0  0  0  0  0  0  0  0  0  0
    8.0592  -14.2557   19.8810 C   0  0  0  0  0  0  0  0  0  0  0  0
    8.5455  -15.6250   19.5005 C   0  0  2  0  0  0  0  0  0  0  0  0
    7.4817  -16.3517   18.8829 N   0  0  0  0  0  0  0  0  0  0  0  0
    9.0512  -16.2948   20.7303 C   0  0  0  0  0  0  0  0  0  0  0  0
    8.3074  -16.8553   21.5701 O   0  0  0  0  0  0  0  0  0  0  0  0
   10.4436  -16.3141   20.9922 N   0  0  0  0  0  0  0  0  0  0  0  0
   11.0607  -17.0099   22.0884 C   0  0  1  0  0  0  0  0  0  0  0  0
   12.4383  -17.4102   21.7330 C   0  0  0  0  0  0  0  0  0  0  0  0
   13.0635  -18.1920   22.8175 C   0  0  0  0  0  0  0  0  0  0  0  0
   14.0041  -17.7046   23.4680 O   0  0  0  0  0  0  0  0  0  0  0  0
   10.8891  -16.3293   23.3802 C   0  0  0  0  0  0  0  0  0  0  0  0
   11.6330  -15.3239   23.6099 O   0  0  0  0  0  0  0  0  0  0  0  0
   12.6121  -19.4574   23.1139 O   0  0  0  0  0  0  0  0  0  0  0  0
    7.4806  -16.3933   25.6214 O   0  0  0  0  0  0  0  0  0  0  0  0
    8.4773  -15.4062   25.7177 C   0  0  0  0  0  0  0  0  0  0  0  0
    9.8576  -16.0262   25.6641 C   0  0  2  0  0  0  0  0  0  0  0  0
    9.9618  -16.7066   24.3841 N   0  0  0  0  0  0  0  0  0  0  0  0
   10.1607  -16.8861   26.8093 C   0  0  0  0  0  0  0  0  0  0  0  0
   10.3899  -18.1196   26.6859 O   0  0  0  0  0  0  0  0  0  0  0  0
   10.2039  -16.3531   28.0847 O   0  0  0  0  0  0  0  0  0  0  0  0
  2  1  1  0
  2  3  2  0
  4  2  1  0
  5  6  1  0
  5  4  1  0
  6  7  1  1
  8 10  1  0
  8  6  1  0
  9  8  2  0
 11 10  1  0
 11 12  1  6
 12 13  1  0
 13 17  1  0
 14 13  2  0
 15 11  1  0
 16 15  2  0
 19 18  1  0
 20 21  1  0
 20 19  1  1
 21 15  1  0
 22 20  1  0
 23 22  2  0
 24 22  1  0
M  END
$$$$
