QDS.pdb
     RDKit          3D

 24 23  0  0  1  0  0  0  0  0999 V2000
    5.9348  -18.5312   14.7390 N   0  0  0  0  0  0  0  0  0  0  0  0
    6.6890  -17.4348   14.2113 C   0  0  0  0  0  0  0  0  0  0  0  0
    6.8992  -17.4097   12.9643 O   0  0  0  0  0  0  0  0  0  0  0  0
    7.1761  -16.4048   15.1312 C   0  0  0  0  0  0  0  0  0  0  0  0
    7.7492  -16.8877   16.4127 C   0  0  0  0  0  0  0  0  0  0  0  0
    8.8738  -16.0667   16.9760 C   0  0  2  0  0  0  0  0  0  0  0  0
    9.9557  -16.0404   16.0432 N   0  0  0  0  0  0  0  0  0  0  0  0
    9.2675  -16.6574   18.2849 C   0  0  0  0  0  0  0  0  0  0  0  0
    8.4645  -16.8475   19.2292 O   0  0  0  0  0  0  0  0  0  0  0  0
   10.6160  -17.0330   18.5037 N   0  0  0  0  0  0  0  0  0  0  0  0
   11.1255  -17.5751   19.7339 C   0  0  1  0  0  0  0  0  0  0  0  0
   12.4455  -18.2016   19.5119 C   0  0  0  0  0  0  0  0  0  0  0  0
   12.3304  -19.4015   18.6603 C   0  0  0  0  0  0  0  0  0  0  0  0
   13.2080  -19.6461   17.8146 O   0  0  0  0  0  0  0  0  0  0  0  0
   11.0249  -16.6429   20.8663 C   0  0  0  0  0  0  0  0  0  0  0  0
   11.9591  -15.7908   21.0012 O   0  0  0  0  0  0  0  0  0  0  0  0
   11.2575  -20.2521   18.7962 O   0  0  0  0  0  0  0  0  0  0  0  0
    8.4589  -14.2449   24.1155 O   0  0  0  0  0  0  0  0  0  0  0  0
    8.5453  -15.2016   23.0888 C   0  0  0  0  0  0  0  0  0  0  0  0
    9.9570  -15.7350   22.9656 C   0  0  2  0  0  0  0  0  0  0  0  0
    9.9709  -16.6217   21.8142 N   0  0  0  0  0  0  0  0  0  0  0  0
   10.4582  -16.3601   24.1906 C   0  0  0  0  0  0  0  0  0  0  0  0
   10.5712  -17.6096   24.3139 O   0  0  0  0  0  0  0  0  0  0  0  0
   10.8285  -15.5761   25.2680 O   0  0  0  0  0  0  0  0  0  0  0  0
  2  1  1  0
  2  3  2  0
  4  2  1  0
  5  6  1  0
  5  4  1  0
  6  7  1  6
  8 10  1  0
  8  6  1  0
  9  8  2  0
 11 10  1  0
 11 12  1  6
 12 13  1  0
 13 17  1  0
 14 13  2  0
 15 11  1  0
 16 15  2  0
 19 18  1  0
 20 21  1  0
 20 19  1  1
 21 15  1  0
 22 20  1  0
 23 22  2  0
 24 22  1  0
M  END
$$$$
