QDS.pdb
     RDKit          3D

 24 23  0  0  1  0  0  0  0  0999 V2000
    9.2168  -12.6395   18.9804 N   0  0  0  0  0  0  0  0  0  0  0  0
    8.2161  -13.4818   18.3987 C   0  0  0  0  0  0  0  0  0  0  0  0
    8.0336  -13.4045   17.1495 O   0  0  0  0  0  0  0  0  0  0  0  0
    7.4591  -14.3840   19.2691 C   0  0  0  0  0  0  0  0  0  0  0  0
    7.8337  -14.3773   20.7056 C   0  0  0  0  0  0  0  0  0  0  0  0
    9.2716  -14.6896   21.0074 C   0  0  2  0  0  0  0  0  0  0  0  0
    9.7726  -15.6063   20.0327 N   0  0  0  0  0  0  0  0  0  0  0  0
    9.3461  -15.2353   22.3907 C   0  0  0  0  0  0  0  0  0  0  0  0
    8.4815  -15.0125   23.2713 O   0  0  0  0  0  0  0  0  0  0  0  0
   10.4429  -16.0526   22.7604 N   0  0  0  0  0  0  0  0  0  0  0  0
   10.6202  -16.6470   24.0573 C   0  0  1  0  0  0  0  0  0  0  0  0
   11.6228  -17.7311   23.9931 C   0  0  0  0  0  0  0  0  0  0  0  0
   11.2788  -18.7150   22.9482 C   0  0  0  0  0  0  0  0  0  0  0  0
   10.3014  -19.4670   23.1047 O   0  0  0  0  0  0  0  0  0  0  0  0
   10.7922  -15.6586   25.1319 C   0  0  0  0  0  0  0  0  0  0  0  0
   11.8454  -14.9466   25.1026 O   0  0  0  0  0  0  0  0  0  0  0  0
   12.0329  -18.8056   21.8011 O   0  0  0  0  0  0  0  0  0  0  0  0
    7.7199  -14.1351   27.3312 O   0  0  0  0  0  0  0  0  0  0  0  0
    8.9532  -13.4776   27.1772 C   0  0  0  0  0  0  0  0  0  0  0  0
   10.1016  -14.4621   27.2446 C   0  0  2  0  0  0  0  0  0  0  0  0
    9.8775  -15.4397   26.1928 N   0  0  0  0  0  0  0  0  0  0  0  0
   10.2866  -15.0597   28.5680 C   0  0  0  0  0  0  0  0  0  0  0  0
   10.2048  -16.3021   28.7656 O   0  0  0  0  0  0  0  0  0  0  0  0
   10.5621  -14.2563   29.6594 O   0  0  0  0  0  0  0  0  0  0  0  0
  2  1  1  0
  2  3  2  0
  4  2  1  0
  5  6  1  0
  5  4  1  0
  6  7  1  6
  8 10  1  0
  8  6  1  0
  9  8  2  0
 11 10  1  0
 11 12  1  6
 12 13  1  0
 13 17  1  0
 14 13  2  0
 15 11  1  0
 16 15  2  0
 19 18  1  0
 20 21  1  0
 20 19  1  1
 21 15  1  0
 22 20  1  0
 23 22  2  0
 24 22  1  0
M  END
$$$$
