QDS.pdb
     RDKit          3D

 24 23  0  0  1  0  0  0  0  0999 V2000
    7.5492  -13.3077   16.0169 N   0  0  0  0  0  0  0  0  0  0  0  0
    8.0885  -13.7212   14.7570 C   0  0  0  0  0  0  0  0  0  0  0  0
    7.7793  -13.0461   13.7330 O   0  0  0  0  0  0  0  0  0  0  0  0
    8.9641  -14.8942   14.7142 C   0  0  0  0  0  0  0  0  0  0  0  0
    9.2569  -15.5421   16.0174 C   0  0  0  0  0  0  0  0  0  0  0  0
    9.1969  -17.0429   16.0291 C   0  0  2  0  0  0  0  0  0  0  0  0
    7.9076  -17.4697   15.5855 N   0  0  0  0  0  0  0  0  0  0  0  0
    9.5044  -17.5076   17.4098 C   0  0  0  0  0  0  0  0  0  0  0  0
    8.7042  -17.4055   18.3699 O   0  0  0  0  0  0  0  0  0  0  0  0
   10.7623  -18.0999   17.6829 N   0  0  0  0  0  0  0  0  0  0  0  0
   11.1544  -18.6379   18.9571 C   0  0  1  0  0  0  0  0  0  0  0  0
   11.9921  -19.8413   18.7712 C   0  0  0  0  0  0  0  0  0  0  0  0
   12.4110  -20.4055   20.0691 C   0  0  0  0  0  0  0  0  0  0  0  0
   13.3169  -19.8556   20.7189 O   0  0  0  0  0  0  0  0  0  0  0  0
   11.6672  -17.6199   19.8856 C   0  0  0  0  0  0  0  0  0  0  0  0
   12.5674  -16.8358   19.4477 O   0  0  0  0  0  0  0  0  0  0  0  0
   11.8052  -21.5368   20.5653 O   0  0  0  0  0  0  0  0  0  0  0  0
   10.1291  -16.9139   23.7898 O   0  0  0  0  0  0  0  0  0  0  0  0
   10.6215  -15.9097   22.9378 C   0  0  0  0  0  0  0  0  0  0  0  0
   11.7773  -16.4259   22.1069 C   0  0  2  0  0  0  0  0  0  0  0  0
   11.2362  -17.4467   21.2251 N   0  0  0  0  0  0  0  0  0  0  0  0
   12.9151  -16.8861   22.9045 C   0  0  0  0  0  0  0  0  0  0  0  0
   13.2257  -18.1044   22.9982 O   0  0  0  0  0  0  0  0  0  0  0  0
   13.6954  -15.9737   23.5908 O   0  0  0  0  0  0  0  0  0  0  0  0
  2  1  1  0
  2  3  2  0
  4  2  1  0
  5  6  1  0
  5  4  1  0
  6  7  1  1
  8 10  1  0
  8  6  1  0
  9  8  2  0
 11 10  1  0
 11 12  1  6
 12 13  1  0
 13 17  1  0
 14 13  2  0
 15 11  1  0
 16 15  2  0
 19 18  1  0
 20 21  1  0
 20 19  1  1
 21 15  1  0
 22 20  1  0
 23 22  2  0
 24 22  1  0
M  END
$$$$
