QDS.pdb
     RDKit          3D

 24 23  0  0  1  0  0  0  0  0999 V2000
    7.3739  -12.3225   13.8533 N   0  0  0  0  0  0  0  0  0  0  0  0
    8.2592  -13.3826   14.2299 C   0  0  0  0  0  0  0  0  0  0  0  0
    9.1914  -13.6845   13.4301 O   0  0  0  0  0  0  0  0  0  0  0  0
    8.0455  -14.0600   15.5105 C   0  0  0  0  0  0  0  0  0  0  0  0
    9.0784  -15.0485   15.9102 C   0  0  0  0  0  0  0  0  0  0  0  0
    9.1695  -16.2802   15.0553 C   0  0  2  0  0  0  0  0  0  0  0  0
    7.9514  -17.0197   15.1572 N   0  0  0  0  0  0  0  0  0  0  0  0
   10.3508  -17.0681   15.5033 C   0  0  0  0  0  0  0  0  0  0  0  0
   10.2711  -18.0747   16.2469 O   0  0  0  0  0  0  0  0  0  0  0  0
   11.6476  -16.6816   15.0830 N   0  0  0  0  0  0  0  0  0  0  0  0
   12.8566  -17.3911   15.4016 C   0  0  1  0  0  0  0  0  0  0  0  0
   13.9716  -16.9114   14.5583 C   0  0  0  0  0  0  0  0  0  0  0  0
   13.9115  -17.5023   13.2072 C   0  0  0  0  0  0  0  0  0  0  0  0
   13.2230  -18.5177   13.0065 O   0  0  0  0  0  0  0  0  0  0  0  0
   13.1176  -17.4771   16.8458 C   0  0  0  0  0  0  0  0  0  0  0  0
   13.4170  -16.3972   17.4468 O   0  0  0  0  0  0  0  0  0  0  0  0
   14.6127  -16.9366   12.1674 O   0  0  0  0  0  0  0  0  0  0  0  0
   12.7365  -21.0261   19.0014 O   0  0  0  0  0  0  0  0  0  0  0  0
   12.5389  -19.7933   19.6480 C   0  0  0  0  0  0  0  0  0  0  0  0
   13.4012  -18.7144   19.0277 C   0  0  2  0  0  0  0  0  0  0  0  0
   13.0609  -18.6663   17.6156 N   0  0  0  0  0  0  0  0  0  0  0  0
   14.8327  -18.8897   19.2781 C   0  0  0  0  0  0  0  0  0  0  0  0
   15.6490  -19.1754   18.3608 O   0  0  0  0  0  0  0  0  0  0  0  0
   15.3362  -18.7426   20.5578 O   0  0  0  0  0  0  0  0  0  0  0  0
  2  1  1  0
  2  3  2  0
  4  2  1  0
  5  6  1  0
  5  4  1  0
  6  7  1  1
  8 10  1  0
  8  6  1  0
  9  8  2  0
 11 10  1  0
 11 12  1  6
 12 13  1  0
 13 17  1  0
 14 13  2  0
 15 11  1  0
 16 15  2  0
 19 18  1  0
 20 21  1  0
 20 19  1  6
 21 15  1  0
 22 20  1  0
 23 22  2  0
 24 22  1  0
M  END
$$$$
