QDS.pdb
     RDKit          3D

 24 23  0  0  1  0  0  0  0  0999 V2000
    8.3404  -13.4501   15.8524 N   0  0  0  0  0  0  0  0  0  0  0  0
    7.6547  -14.6382   16.2618 C   0  0  0  0  0  0  0  0  0  0  0  0
    7.2740  -15.4397   15.3605 O   0  0  0  0  0  0  0  0  0  0  0  0
    7.4293  -14.8667   17.6907 C   0  0  0  0  0  0  0  0  0  0  0  0
    7.6533  -13.7027   18.5845 C   0  0  0  0  0  0  0  0  0  0  0  0
    9.0746  -13.4706   19.0113 C   0  0  2  0  0  0  0  0  0  0  0  0
    9.8837  -13.2334   17.8579 N   0  0  0  0  0  0  0  0  0  0  0  0
    9.5252  -14.6597   19.7858 C   0  0  0  0  0  0  0  0  0  0  0  0
    8.7761  -15.3143   20.5493 O   0  0  0  0  0  0  0  0  0  0  0  0
   10.8683  -15.0972   19.6744 N   0  0  0  0  0  0  0  0  0  0  0  0
   11.4042  -16.2667   20.3160 C   0  0  1  0  0  0  0  0  0  0  0  0
   12.5853  -16.7620   19.5785 C   0  0  0  0  0  0  0  0  0  0  0  0
   12.7871  -18.2068   19.8024 C   0  0  0  0  0  0  0  0  0  0  0  0
   13.9395  -18.6712   19.8431 O   0  0  0  0  0  0  0  0  0  0  0  0
   11.5565  -16.1144   21.7703 C   0  0  0  0  0  0  0  0  0  0  0  0
   12.4060  -15.2609   22.1786 O   0  0  0  0  0  0  0  0  0  0  0  0
   11.7077  -19.0439   19.9667 O   0  0  0  0  0  0  0  0  0  0  0  0
    8.7405  -16.9615   24.9084 O   0  0  0  0  0  0  0  0  0  0  0  0
    9.7429  -15.9998   24.6906 C   0  0  0  0  0  0  0  0  0  0  0  0
   11.0105  -16.6487   24.1762 C   0  0  2  0  0  0  0  0  0  0  0  0
   10.8316  -16.8429   22.7470 N   0  0  0  0  0  0  0  0  0  0  0  0
   11.3760  -17.8727   24.8909 C   0  0  0  0  0  0  0  0  0  0  0  0
   11.6533  -17.8798   26.1207 O   0  0  0  0  0  0  0  0  0  0  0  0
   11.4272  -19.0798   24.2180 O   0  0  0  0  0  0  0  0  0  0  0  0
  2  1  1  0
  2  3  2  0
  4  2  1  0
  5  6  1  0
  5  4  1  0
  6  7  1  6
  8 10  1  0
  8  6  1  0
  9  8  2  0
 11 10  1  0
 11 12  1  6
 12 13  1  0
 13 17  1  0
 14 13  2  0
 15 11  1  0
 16 15  2  0
 19 18  1  0
 20 21  1  0
 20 19  1  1
 21 15  1  0
 22 20  1  0
 23 22  2  0
 24 22  1  0
M  END
$$$$
