DRT.pdb
     RDKit          3D

 27 26  0  0  1  0  0  0  0  0999 V2000
   11.8350  -18.5785   19.2355 N   0  0  0  0  0  0  0  0  0  0  0  0
   12.4321  -17.2647   19.1259 C   0  0  1  0  0  0  0  0  0  0  0  0
   12.3464  -16.7975   17.6942 C   0  0  0  0  0  0  0  0  0  0  0  0
   13.5120  -17.3046   16.9254 C   0  0  0  0  0  0  0  0  0  0  0  0
   14.3788  -18.0295   17.5137 O   0  0  0  0  0  0  0  0  0  0  0  0
   11.8277  -16.2967   20.0713 C   0  0  0  0  0  0  0  0  0  0  0  0
   12.5325  -15.4011   20.6369 O   0  0  0  0  0  0  0  0  0  0  0  0
   13.7214  -17.0399   15.6009 O   0  0  0  0  0  0  0  0  0  0  0  0
    8.0629  -15.0320   16.8773 N   0  0  0  0  0  0  0  0  0  0  0  0
    7.7338  -13.6620   16.8069 C   0  0  0  0  0  0  0  0  0  0  0  0
    7.8306  -12.9712   15.7112 N   0  0  0  0  0  0  0  0  0  0  0  0
    7.2740  -12.9917   17.9783 N   0  0  0  0  0  0  0  0  0  0  0  0
    7.2014  -13.6792   19.2648 C   0  0  0  0  0  0  0  0  0  0  0  0
    8.6091  -14.0854   19.6477 C   0  0  0  0  0  0  0  0  0  0  0  0
    8.5238  -14.8570   20.9412 C   0  0  0  0  0  0  0  0  0  0  0  0
    9.8567  -15.4116   21.3743 C   0  0  2  0  0  0  0  0  0  0  0  0
   10.4481  -16.2961   20.4092 N   0  0  0  0  0  0  0  0  0  0  0  0
    9.6486  -16.1237   22.6533 C   0  0  0  0  0  0  0  0  0  0  0  0
    8.5339  -16.6983   22.8670 O   0  0  0  0  0  0  0  0  0  0  0  0
    7.5995  -11.9713   15.6696 C   0  0  0  0  0  0  0  0  0  0  0  0
   11.9502  -19.4107   24.9608 C   0  0  1  0  0  0  0  0  0  0  0  0
   11.2403  -18.5420   23.9742 O   0  0  0  0  0  0  0  0  0  0  0  0
   10.1916  -19.2254   23.3753 C   0  0  1  0  0  0  0  0  0  0  0  0
   10.6810  -17.2859   24.6076 N   0  0  0  0  0  0  0  0  0  0  0  0
   10.6343  -16.2028   23.6673 C   0  0  0  0  0  0  0  0  0  0  0  0
   11.5300  -16.9477   25.7582 O   0  0  0  0  0  0  0  0  0  0  0  0
   12.2913  -15.7932   25.7651 O   0  0  0  0  0  0  0  0  0  0  0  0
  2  1  1  6
  3  2  1  0
  3  4  1  0
  4  5  2  0
  4  8  1  0
  6  7  2  0
  6  2  1  0
  9 10  1  0
 10 12  1  0
 11 10  2  0
 12 13  1  0
 14 13  1  0
 15 14  1  0
 16 15  1  6
 16 17  1  0
 17  6  1  0
 18 16  1  0
 18 19  2  0
 21 20  1  6
 21 22  1  0
 21 23  1  0
 23 25  1  0
 23 24  1  6
 24 18  1  0
 25 26  1  0
 27 25  2  0
M  END
$$$$
