DRT.pdb
     RDKit          3D

 27 26  0  0  1  0  0  0  0  0999 V2000
   10.8853  -17.9820   17.5214 N   0  0  0  0  0  0  0  0  0  0  0  0
   12.2001  -17.8889   18.1191 C   0  0  1  0  0  0  0  0  0  0  0  0
   13.1681  -17.3291   17.1067 C   0  0  0  0  0  0  0  0  0  0  0  0
   13.0454  -18.0704   15.8251 C   0  0  0  0  0  0  0  0  0  0  0  0
   12.3263  -17.5863   14.8916 O   0  0  0  0  0  0  0  0  0  0  0  0
   12.1865  -17.1064   19.3776 C   0  0  0  0  0  0  0  0  0  0  0  0
   13.2292  -17.0018   20.0991 O   0  0  0  0  0  0  0  0  0  0  0  0
   13.6655  -19.2625   15.5751 O   0  0  0  0  0  0  0  0  0  0  0  0
    6.2363  -13.9799   18.3088 N   0  0  0  0  0  0  0  0  0  0  0  0
    7.2414  -13.0914   17.8723 C   0  0  0  0  0  0  0  0  0  0  0  0
    7.4119  -12.7823   16.6223 N   0  0  0  0  0  0  0  0  0  0  0  0
    8.1157  -12.4990   18.8300 N   0  0  0  0  0  0  0  0  0  0  0  0
    8.3911  -13.1495   20.1084 C   0  0  0  0  0  0  0  0  0  0  0  0
    9.6025  -14.0382   19.9190 C   0  0  0  0  0  0  0  0  0  0  0  0
    9.8460  -14.7588   21.2217 C   0  0  0  0  0  0  0  0  0  0  0  0
   10.9702  -15.7586   21.1298 C   0  0  2  0  0  0  0  0  0  0  0  0
   11.0350  -16.4302   19.8615 N   0  0  0  0  0  0  0  0  0  0  0  0
   10.7799  -16.7440   22.2156 C   0  0  0  0  0  0  0  0  0  0  0  0
    9.8880  -17.6419   22.0866 O   0  0  0  0  0  0  0  0  0  0  0  0
    8.1855  -12.1863   16.3041 C   0  0  0  0  0  0  0  0  0  0  0  0
   13.9699  -18.0832   24.2223 C   0  0  2  0  0  0  0  0  0  0  0  0
   12.6470  -18.7760   24.1759 O   0  0  0  0  0  0  0  0  0  0  0  0
   12.5603  -19.7472   25.1632 C   0  0  1  0  0  0  0  0  0  0  0  0
   11.4873  -17.8196   24.3553 N   0  0  0  0  0  0  0  0  0  0  0  0
   11.5455  -16.7439   23.4072 C   0  0  0  0  0  0  0  0  0  0  0  0
   11.5353  -17.3102   25.7328 O   0  0  0  0  0  0  0  0  0  0  0  0
   11.3525  -18.1570   26.8107 O   0  0  0  0  0  0  0  0  0  0  0  0
  2  1  1  6
  3  2  1  0
  3  4  1  0
  4  5  2  0
  4  8  1  0
  6  7  2  0
  6  2  1  0
  9 10  1  0
 10 12  1  0
 11 10  2  0
 12 13  1  0
 14 13  1  0
 15 14  1  0
 16 15  1  6
 16 17  1  0
 17  6  1  0
 18 16  1  0
 18 19  2  0
 21 20  1  6
 21 22  1  0
 21 23  1  0
 23 25  1  0
 23 24  1  6
 24 18  1  0
 25 26  1  0
 27 25  2  0
M  END
$$$$
