DRT.pdb
     RDKit          3D

 27 26  0  0  1  0  0  0  0  0999 V2000
   12.4997  -16.3594   20.4311 N   0  0  0  0  0  0  0  0  0  0  0  0
   13.3066  -15.7445   21.4633 C   0  0  1  0  0  0  0  0  0  0  0  0
   14.0460  -14.5661   20.8805 C   0  0  0  0  0  0  0  0  0  0  0  0
   14.7137  -14.9632   19.6142 C   0  0  0  0  0  0  0  0  0  0  0  0
   15.5678  -15.9082   19.6299 O   0  0  0  0  0  0  0  0  0  0  0  0
   12.5033  -15.3733   22.6521 C   0  0  0  0  0  0  0  0  0  0  0  0
   13.0354  -14.7914   23.6506 O   0  0  0  0  0  0  0  0  0  0  0  0
   14.4679  -14.3699   18.4076 O   0  0  0  0  0  0  0  0  0  0  0  0
    7.0896  -12.4161   19.2953 N   0  0  0  0  0  0  0  0  0  0  0  0
    7.6275  -13.6584   18.8984 C   0  0  0  0  0  0  0  0  0  0  0  0
    7.8049  -13.9817   17.6529 N   0  0  0  0  0  0  0  0  0  0  0  0
    7.9973  -14.6107   19.8928 N   0  0  0  0  0  0  0  0  0  0  0  0
    8.2421  -14.2062   21.2748 C   0  0  0  0  0  0  0  0  0  0  0  0
    8.5489  -15.4572   22.0711 C   0  0  0  0  0  0  0  0  0  0  0  0
    8.8377  -15.0337   23.4899 C   0  0  0  0  0  0  0  0  0  0  0  0
   10.2931  -15.1799   23.8535 C   0  0  2  0  0  0  0  0  0  0  0  0
   11.1114  -15.6333   22.7634 N   0  0  0  0  0  0  0  0  0  0  0  0
   10.3771  -16.1334   24.9806 C   0  0  0  0  0  0  0  0  0  0  0  0
   10.6145  -17.3592   24.7372 O   0  0  0  0  0  0  0  0  0  0  0  0
    8.3383  -14.8132   17.3716 C   0  0  0  0  0  0  0  0  0  0  0  0
   11.6066  -14.9945   28.8293 C   0  0  2  0  0  0  0  0  0  0  0  0
   10.4606  -15.9496   28.7485 O   0  0  0  0  0  0  0  0  0  0  0  0
    9.2526  -15.2924   28.9343 C   0  0  2  0  0  0  0  0  0  0  0  0
   10.4025  -16.6713   27.4190 N   0  0  0  0  0  0  0  0  0  0  0  0
   10.2056  -15.7528   26.3340 C   0  0  0  0  0  0  0  0  0  0  0  0
    9.3070  -17.6483   27.4867 O   0  0  0  0  0  0  0  0  0  0  0  0
    9.3724  -18.7314   28.3441 O   0  0  0  0  0  0  0  0  0  0  0  0
  2  1  1  6
  3  2  1  0
  3  4  1  0
  4  5  2  0
  4  8  1  0
  6  7  2  0
  6  2  1  0
  9 10  1  0
 10 12  1  0
 11 10  2  0
 12 13  1  0
 14 13  1  0
 15 14  1  0
 16 15  1  6
 16 17  1  0
 17  6  1  0
 18 16  1  0
 18 19  2  0
 21 20  1  1
 21 22  1  0
 21 23  1  0
 23 25  1  0
 23 24  1  1
 24 18  1  0
 25 26  1  0
 27 25  2  0
M  END
$$$$
