DRT.pdb
     RDKit          3D

 27 26  0  0  1  0  0  0  0  0999 V2000
   11.8863  -19.6908   17.7030 N   0  0  0  0  0  0  0  0  0  0  0  0
   13.0196  -18.9482   18.2119 C   0  0  1  0  0  0  0  0  0  0  0  0
   13.6048  -18.1113   17.1017 C   0  0  0  0  0  0  0  0  0  0  0  0
   14.8822  -17.4987   17.5488 C   0  0  0  0  0  0  0  0  0  0  0  0
   15.5923  -18.1022   18.4173 O   0  0  0  0  0  0  0  0  0  0  0  0
   12.6668  -18.1381   19.4016 C   0  0  0  0  0  0  0  0  0  0  0  0
   13.5675  -17.6416   20.1506 O   0  0  0  0  0  0  0  0  0  0  0  0
   15.3568  -16.3054   17.0809 O   0  0  0  0  0  0  0  0  0  0  0  0
    8.3029  -11.1220   20.4224 N   0  0  0  0  0  0  0  0  0  0  0  0
    8.1197  -12.5162   20.5362 C   0  0  0  0  0  0  0  0  0  0  0  0
    7.7257  -13.0859   21.6350 N   0  0  0  0  0  0  0  0  0  0  0  0
    8.3730  -13.3496   19.4076 N   0  0  0  0  0  0  0  0  0  0  0  0
    8.2400  -14.8016   19.4934 C   0  0  0  0  0  0  0  0  0  0  0  0
    9.6341  -15.3845   19.5931 C   0  0  0  0  0  0  0  0  0  0  0  0
    9.6408  -16.3516   20.7509 C   0  0  0  0  0  0  0  0  0  0  0  0
   10.9663  -17.0501   20.9150 C   0  0  2  0  0  0  0  0  0  0  0  0
   11.3277  -17.8617   19.7861 N   0  0  0  0  0  0  0  0  0  0  0  0
   10.8822  -17.8847   22.1327 C   0  0  0  0  0  0  0  0  0  0  0  0
   10.0228  -18.8214   22.1824 O   0  0  0  0  0  0  0  0  0  0  0  0
    7.6217  -14.1043   21.7193 C   0  0  0  0  0  0  0  0  0  0  0  0
   13.2674  -20.2524   23.5356 C   0  0  2  0  0  0  0  0  0  0  0  0
   12.9656  -19.2796   24.6286 O   0  0  0  0  0  0  0  0  0  0  0  0
   13.9703  -18.3286   24.7382 C   0  0  2  0  0  0  0  0  0  0  0  0
   11.6547  -18.5543   24.4110 N   0  0  0  0  0  0  0  0  0  0  0  0
   11.7164  -17.6969   23.2618 C   0  0  0  0  0  0  0  0  0  0  0  0
   11.3614  -17.7838   25.6273 O   0  0  0  0  0  0  0  0  0  0  0  0
   11.0877  -18.4209   26.8238 O   0  0  0  0  0  0  0  0  0  0  0  0
  2  1  1  6
  3  2  1  0
  3  4  1  0
  4  5  2  0
  4  8  1  0
  6  7  2  0
  6  2  1  0
  9 10  1  0
 10 12  1  0
 11 10  2  0
 12 13  1  0
 14 13  1  0
 15 14  1  0
 16 15  1  6
 16 17  1  0
 17  6  1  0
 18 16  1  0
 18 19  2  0
 21 20  1  1
 21 22  1  0
 21 23  1  0
 23 25  1  0
 23 24  1  1
 24 18  1  0
 25 26  1  0
 27 25  2  0
M  END
$$$$
