DRT.pdb
     RDKit          3D

 27 26  0  0  1  0  0  0  0  0999 V2000
   14.5795  -16.7092   16.5080 N   0  0  0  0  0  0  0  0  0  0  0  0
   15.2942  -15.9777   17.5322 C   0  0  1  0  0  0  0  0  0  0  0  0
   15.9822  -14.7901   16.9064 C   0  0  0  0  0  0  0  0  0  0  0  0
   15.9630  -14.9157   15.4263 C   0  0  0  0  0  0  0  0  0  0  0  0
   16.9191  -14.4192   14.7463 O   0  0  0  0  0  0  0  0  0  0  0  0
   14.4123  -15.5888   18.6579 C   0  0  0  0  0  0  0  0  0  0  0  0
   14.8815  -15.0238   19.6969 O   0  0  0  0  0  0  0  0  0  0  0  0
   14.9670  -15.5415   14.7302 O   0  0  0  0  0  0  0  0  0  0  0  0
    7.4935  -12.4929   20.3074 N   0  0  0  0  0  0  0  0  0  0  0  0
    7.8191  -13.0022   19.0328 C   0  0  0  0  0  0  0  0  0  0  0  0
    7.7684  -12.2810   17.9537 N   0  0  0  0  0  0  0  0  0  0  0  0
    8.2227  -14.3637   18.9055 N   0  0  0  0  0  0  0  0  0  0  0  0
    8.3572  -15.2263   20.0764 C   0  0  0  0  0  0  0  0  0  0  0  0
    9.7909  -15.1302   20.5543 C   0  0  0  0  0  0  0  0  0  0  0  0
   10.6801  -15.5599   19.4139 C   0  0  0  0  0  0  0  0  0  0  0  0
   12.1451  -15.4808   19.7596 C   0  0  2  0  0  0  0  0  0  0  0  0
   13.0097  -15.8124   18.6614 N   0  0  0  0  0  0  0  0  0  0  0  0
   12.3863  -16.4026   20.8904 C   0  0  0  0  0  0  0  0  0  0  0  0
   12.3380  -17.6574   20.6866 O   0  0  0  0  0  0  0  0  0  0  0  0
    8.0723  -12.6374   17.0396 C   0  0  0  0  0  0  0  0  0  0  0  0
   13.8184  -17.1158   25.5999 C   0  0  2  0  0  0  0  0  0  0  0  0
   13.6444  -16.2100   24.4246 O   0  0  0  0  0  0  0  0  0  0  0  0
   14.8731  -15.7861   23.9384 C   0  0  1  0  0  0  0  0  0  0  0  0
   12.8944  -16.8739   23.2895 N   0  0  0  0  0  0  0  0  0  0  0  0
   12.6720  -15.9604   22.2053 C   0  0  0  0  0  0  0  0  0  0  0  0
   11.6210  -17.3742   23.8256 O   0  0  0  0  0  0  0  0  0  0  0  0
   11.5381  -18.6250   24.4097 O   0  0  0  0  0  0  0  0  0  0  0  0
  2  1  1  6
  3  2  1  0
  3  4  1  0
  4  5  2  0
  4  8  1  0
  6  7  2  0
  6  2  1  0
  9 10  1  0
 10 12  1  0
 11 10  2  0
 12 13  1  0
 14 13  1  0
 15 14  1  0
 16 15  1  6
 16 17  1  0
 17  6  1  0
 18 16  1  0
 18 19  2  0
 21 20  1  1
 21 22  1  0
 21 23  1  0
 23 25  1  0
 23 24  1  1
 24 18  1  0
 25 26  1  0
 27 25  2  0
M  END
$$$$
