DRT.pdb
     RDKit          3D

 27 26  0  0  1  0  0  0  0  0999 V2000
   11.3378  -18.0923   19.3446 N   0  0  0  0  0  0  0  0  0  0  0  0
   11.5038  -17.3694   20.5874 C   0  0  1  0  0  0  0  0  0  0  0  0
   12.3513  -16.1460   20.3416 C   0  0  0  0  0  0  0  0  0  0  0  0
   13.7105  -16.5520   19.9002 C   0  0  0  0  0  0  0  0  0  0  0  0
   14.3738  -17.3791   20.6064 O   0  0  0  0  0  0  0  0  0  0  0  0
   10.2042  -17.0368   21.2171 C   0  0  0  0  0  0  0  0  0  0  0  0
    9.1117  -17.1597   20.5766 O   0  0  0  0  0  0  0  0  0  0  0  0
   14.3099  -16.0876   18.7630 O   0  0  0  0  0  0  0  0  0  0  0  0
   10.6103  -21.2643   22.8621 N   0  0  0  0  0  0  0  0  0  0  0  0
   10.3969  -21.6225   24.2099 C   0  0  0  0  0  0  0  0  0  0  0  0
   11.1177  -22.5119   24.8233 N   0  0  0  0  0  0  0  0  0  0  0  0
    9.3503  -20.9916   24.9443 N   0  0  0  0  0  0  0  0  0  0  0  0
    8.4353  -20.0512   24.3026 C   0  0  0  0  0  0  0  0  0  0  0  0
    9.1457  -18.7178   24.2003 C   0  0  0  0  0  0  0  0  0  0  0  0
    8.1802  -17.7340   23.5875 C   0  0  0  0  0  0  0  0  0  0  0  0
    8.8326  -16.4197   23.2428 C   0  0  2  0  0  0  0  0  0  0  0  0
   10.0834  -16.5668   22.5520 N   0  0  0  0  0  0  0  0  0  0  0  0
    9.0358  -15.6783   24.5060 C   0  0  0  0  0  0  0  0  0  0  0  0
   10.1342  -15.8145   25.1332 O   0  0  0  0  0  0  0  0  0  0  0  0
   11.0427  -22.6782   25.8341 C   0  0  0  0  0  0  0  0  0  0  0  0
    7.5896  -11.8960   27.3939 C   0  0  2  0  0  0  0  0  0  0  0  0
    7.2511  -12.9127   26.3529 O   0  0  0  0  0  0  0  0  0  0  0  0
    6.9884  -12.3058   25.1330 C   0  0  1  0  0  0  0  0  0  0  0  0
    8.3621  -13.9201   26.1463 N   0  0  0  0  0  0  0  0  0  0  0  0
    8.0626  -14.8136   25.0640 C   0  0  0  0  0  0  0  0  0  0  0  0
    8.5380  -14.6580   27.4047 O   0  0  0  0  0  0  0  0  0  0  0  0
    9.1826  -14.0805   28.4834 O   0  0  0  0  0  0  0  0  0  0  0  0
  2  1  1  6
  3  2  1  0
  3  4  1  0
  4  5  2  0
  4  8  1  0
  6  7  2  0
  6  2  1  0
  9 10  1  0
 10 12  1  0
 11 10  2  0
 12 13  1  0
 14 13  1  0
 15 14  1  0
 16 15  1  1
 16 17  1  0
 17  6  1  0
 18 16  1  0
 18 19  2  0
 21 20  1  1
 21 22  1  0
 21 23  1  0
 23 25  1  0
 23 24  1  1
 24 18  1  0
 25 26  1  0
 27 25  2  0
M  END
$$$$
