DRT.pdb
     RDKit          3D

 27 26  0  0  1  0  0  0  0  0999 V2000
    9.3537  -14.1607   18.8994 N   0  0  0  0  0  0  0  0  0  0  0  0
    7.9368  -14.0188   19.1586 C   0  0  1  0  0  0  0  0  0  0  0  0
    7.1594  -14.6074   18.0078 C   0  0  0  0  0  0  0  0  0  0  0  0
    7.8883  -14.3772   16.7339 C   0  0  0  0  0  0  0  0  0  0  0  0
    9.0322  -13.8173   16.7630 O   0  0  0  0  0  0  0  0  0  0  0  0
    7.5465  -14.6075   20.4614 C   0  0  0  0  0  0  0  0  0  0  0  0
    6.3320  -14.6216   20.8400 O   0  0  0  0  0  0  0  0  0  0  0  0
    7.4036  -14.7334   15.5066 O   0  0  0  0  0  0  0  0  0  0  0  0
   11.4807  -18.8223   19.9329 N   0  0  0  0  0  0  0  0  0  0  0  0
   12.5622  -18.6013   20.8115 C   0  0  0  0  0  0  0  0  0  0  0  0
   13.8023  -18.6828   20.4340 N   0  0  0  0  0  0  0  0  0  0  0  0
   12.3010  -18.2737   22.1742 N   0  0  0  0  0  0  0  0  0  0  0  0
   10.9435  -18.2994   22.7124 C   0  0  0  0  0  0  0  0  0  0  0  0
   10.2822  -16.9858   22.3515 C   0  0  0  0  0  0  0  0  0  0  0  0
    8.9226  -16.9664   23.0049 C   0  0  0  0  0  0  0  0  0  0  0  0
    8.1215  -15.7430   22.6400 C   0  0  2  0  0  0  0  0  0  0  0  0
    8.4775  -15.1868   21.3642 N   0  0  0  0  0  0  0  0  0  0  0  0
    8.3299  -14.7397   23.7059 C   0  0  0  0  0  0  0  0  0  0  0  0
    9.2405  -13.8633   23.5608 O   0  0  0  0  0  0  0  0  0  0  0  0
   14.5841  -18.4717   21.0658 C   0  0  0  0  0  0  0  0  0  0  0  0
    6.4989  -11.7809   27.0188 C   0  0  2  0  0  0  0  0  0  0  0  0
    6.4444  -12.7946   25.9226 O   0  0  0  0  0  0  0  0  0  0  0  0
    6.2761  -12.1827   24.6886 C   0  0  1  0  0  0  0  0  0  0  0  0
    7.6958  -13.6440   25.8584 N   0  0  0  0  0  0  0  0  0  0  0  0
    7.5620  -14.6995   24.8954 C   0  0  0  0  0  0  0  0  0  0  0  0
    7.9395  -14.1857   27.2024 O   0  0  0  0  0  0  0  0  0  0  0  0
    7.9208  -15.5490   27.4337 O   0  0  0  0  0  0  0  0  0  0  0  0
  2  1  1  6
  3  2  1  0
  3  4  1  0
  4  5  2  0
  4  8  1  0
  6  7  2  0
  6  2  1  0
  9 10  1  0
 10 12  1  0
 11 10  2  0
 12 13  1  0
 14 13  1  0
 15 14  1  0
 16 15  1  1
 16 17  1  0
 17  6  1  0
 18 16  1  0
 18 19  2  0
 21 20  1  1
 21 22  1  0
 21 23  1  0
 23 25  1  0
 23 24  1  1
 24 18  1  0
 25 26  1  0
 27 25  2  0
M  END
$$$$
