DRT.pdb
     RDKit          3D

 27 26  0  0  1  0  0  0  0  0999 V2000
   11.9942  -17.8145   14.3627 N   0  0  0  0  0  0  0  0  0  0  0  0
   11.6597  -18.2778   15.6924 C   0  0  1  0  0  0  0  0  0  0  0  0
   12.9085  -18.3055   16.5381 C   0  0  0  0  0  0  0  0  0  0  0  0
   13.8992  -19.2418   15.9477 C   0  0  0  0  0  0  0  0  0  0  0  0
   13.4890  -20.2172   15.2384 O   0  0  0  0  0  0  0  0  0  0  0  0
   10.5799  -17.4714   16.3089 C   0  0  0  0  0  0  0  0  0  0  0  0
   10.2934  -16.3113   15.8720 O   0  0  0  0  0  0  0  0  0  0  0  0
   15.2503  -19.1244   16.1180 O   0  0  0  0  0  0  0  0  0  0  0  0
    3.2805  -21.1763   17.6474 N   0  0  0  0  0  0  0  0  0  0  0  0
    3.8252  -20.9022   16.3753 C   0  0  0  0  0  0  0  0  0  0  0  0
    3.2932  -21.3393   15.2739 N   0  0  0  0  0  0  0  0  0  0  0  0
    5.0089  -20.1138   16.2760 N   0  0  0  0  0  0  0  0  0  0  0  0
    5.6673  -19.5830   17.4667 C   0  0  0  0  0  0  0  0  0  0  0  0
    6.8275  -18.7259   17.0055 C   0  0  0  0  0  0  0  0  0  0  0  0
    7.4972  -18.1667   18.2361 C   0  0  0  0  0  0  0  0  0  0  0  0
    8.6391  -17.2406   17.9044 C   0  0  2  0  0  0  0  0  0  0  0  0
    9.8019  -17.9227   17.4081 N   0  0  0  0  0  0  0  0  0  0  0  0
    8.9772  -16.4921   19.1340 C   0  0  0  0  0  0  0  0  0  0  0  0
    9.9814  -16.8576   19.8241 O   0  0  0  0  0  0  0  0  0  0  0  0
    3.7058  -21.1521   14.3521 C   0  0  0  0  0  0  0  0  0  0  0  0
    6.9543  -12.8236   20.2365 C   0  0  2  0  0  0  0  0  0  0  0  0
    8.3918  -13.1249   20.5098 O   0  0  0  0  0  0  0  0  0  0  0  0
    8.8378  -12.4410   21.6319 C   0  0  1  0  0  0  0  0  0  0  0  0
    8.6407  -14.6018   20.7307 N   0  0  0  0  0  0  0  0  0  0  0  0
    8.2354  -15.3759   19.5923 C   0  0  0  0  0  0  0  0  0  0  0  0
    7.8996  -15.0064   21.9332 O   0  0  0  0  0  0  0  0  0  0  0  0
    8.2947  -14.5813   23.1884 O   0  0  0  0  0  0  0  0  0  0  0  0
  2  1  1  6
  3  2  1  0
  3  4  1  0
  4  5  2  0
  4  8  1  0
  6  7  2  0
  6  2  1  0
  9 10  1  0
 10 12  1  0
 11 10  2  0
 12 13  1  0
 14 13  1  0
 15 14  1  0
 16 15  1  1
 16 17  1  0
 17  6  1  0
 18 16  1  0
 18 19  2  0
 21 20  1  6
 21 22  1  0
 21 23  1  0
 23 25  1  0
 23 24  1  6
 24 18  1  0
 25 26  1  0
 27 25  2  0
M  END
$$$$
