DRT.pdb
     RDKit          3D

 27 26  0  0  1  0  0  0  0  0999 V2000
   11.6890  -15.8258   19.2696 N   0  0  0  0  0  0  0  0  0  0  0  0
   12.5998  -15.6101   20.3735 C   0  0  1  0  0  0  0  0  0  0  0  0
   13.5028  -14.4452   20.0527 C   0  0  0  0  0  0  0  0  0  0  0  0
   14.2915  -14.7381   18.8284 C   0  0  0  0  0  0  0  0  0  0  0  0
   14.6269  -15.9409   18.5761 O   0  0  0  0  0  0  0  0  0  0  0  0
   11.8852  -15.4312   21.6594 C   0  0  0  0  0  0  0  0  0  0  0  0
   12.5166  -15.1702   22.7327 O   0  0  0  0  0  0  0  0  0  0  0  0
   14.6901  -13.7832   17.9353 O   0  0  0  0  0  0  0  0  0  0  0  0
    6.8935  -12.7330   18.1008 N   0  0  0  0  0  0  0  0  0  0  0  0
    8.1888  -13.2269   18.3625 C   0  0  0  0  0  0  0  0  0  0  0  0
    8.9723  -13.6747   17.4283 N   0  0  0  0  0  0  0  0  0  0  0  0
    8.6742  -13.2424   19.7030 N   0  0  0  0  0  0  0  0  0  0  0  0
    7.7744  -13.0453   20.8365 C   0  0  0  0  0  0  0  0  0  0  0  0
    8.6063  -13.1164   22.0999 C   0  0  0  0  0  0  0  0  0  0  0  0
    8.4309  -14.4967   22.6827 C   0  0  0  0  0  0  0  0  0  0  0  0
    9.7454  -15.1753   22.9715 C   0  0  2  0  0  0  0  0  0  0  0  0
   10.4745  -15.5354   21.7872 N   0  0  0  0  0  0  0  0  0  0  0  0
    9.4564  -16.3825   23.7750 C   0  0  0  0  0  0  0  0  0  0  0  0
    8.6609  -17.2594   23.3097 O   0  0  0  0  0  0  0  0  0  0  0  0
    9.8676  -14.1337   17.6351 C   0  0  0  0  0  0  0  0  0  0  0  0
   10.1940  -19.1722   23.5845 C   0  0  2  0  0  0  0  0  0  0  0  0
   10.6932  -18.9609   24.9768 O   0  0  0  0  0  0  0  0  0  0  0  0
   12.0324  -18.5973   24.9742 C   0  0  2  0  0  0  0  0  0  0  0  0
    9.9174  -17.8892   25.7124 N   0  0  0  0  0  0  0  0  0  0  0  0
   10.0237  -16.6201   25.0509 C   0  0  0  0  0  0  0  0  0  0  0  0
   10.4443  -17.8145   27.0820 O   0  0  0  0  0  0  0  0  0  0  0  0
   10.2343  -18.8437   27.9816 O   0  0  0  0  0  0  0  0  0  0  0  0
  2  1  1  6
  3  2  1  0
  3  4  1  0
  4  5  2  0
  4  8  1  0
  6  7  2  0
  6  2  1  0
  9 10  1  0
 10 12  1  0
 11 10  2  0
 12 13  1  0
 14 13  1  0
 15 14  1  0
 16 15  1  6
 16 17  1  0
 17  6  1  0
 18 16  1  0
 18 19  2  0
 21 20  1  1
 21 22  1  0
 21 23  1  0
 23 25  1  0
 23 24  1  1
 24 18  1  0
 25 26  1  0
 27 25  2  0
M  END
$$$$
