DRT.pdb
     RDKit          3D

 27 26  0  0  1  0  0  0  0  0999 V2000
    7.5789  -16.4398   18.9883 N   0  0  0  0  0  0  0  0  0  0  0  0
    8.1043  -15.3908   19.8358 C   0  0  1  0  0  0  0  0  0  0  0  0
    7.5948  -14.0568   19.3497 C   0  0  0  0  0  0  0  0  0  0  0  0
    8.1353  -13.7713   17.9957 C   0  0  0  0  0  0  0  0  0  0  0  0
    9.0299  -14.5359   17.5079 O   0  0  0  0  0  0  0  0  0  0  0  0
    7.7968  -15.6235   21.2668 C   0  0  0  0  0  0  0  0  0  0  0  0
    6.5954  -15.7119   21.6761 O   0  0  0  0  0  0  0  0  0  0  0  0
    7.7283  -12.7209   17.2216 O   0  0  0  0  0  0  0  0  0  0  0  0
   11.6627  -19.9344   21.4157 N   0  0  0  0  0  0  0  0  0  0  0  0
   12.4360  -19.4779   22.5039 C   0  0  0  0  0  0  0  0  0  0  0  0
   13.7319  -19.4011   22.4620 N   0  0  0  0  0  0  0  0  0  0  0  0
   11.7838  -19.0802   23.7077 N   0  0  0  0  0  0  0  0  0  0  0  0
   10.3781  -19.3961   23.9473 C   0  0  0  0  0  0  0  0  0  0  0  0
    9.5457  -18.3419   23.2479 C   0  0  0  0  0  0  0  0  0  0  0  0
    9.4129  -17.1697   24.1881 C   0  0  0  0  0  0  0  0  0  0  0  0
    8.5238  -16.0838   23.6386 C   0  0  2  0  0  0  0  0  0  0  0  0
    8.7972  -15.7620   22.2655 N   0  0  0  0  0  0  0  0  0  0  0  0
    8.7079  -14.8860   24.4858 C   0  0  0  0  0  0  0  0  0  0  0  0
    9.7686  -14.1954   24.3583 O   0  0  0  0  0  0  0  0  0  0  0  0
   14.2921  -19.1156   23.2742 C   0  0  0  0  0  0  0  0  0  0  0  0
    6.1915  -11.8168   25.3687 C   0  0  2  0  0  0  0  0  0  0  0  0
    6.6786  -12.5796   26.5574 O   0  0  0  0  0  0  0  0  0  0  0  0
    5.7357  -13.5102   26.9705 C   0  0  2  0  0  0  0  0  0  0  0  0
    7.9733  -13.3141   26.2818 N   0  0  0  0  0  0  0  0  0  0  0  0
    7.7564  -14.4591   25.4442 C   0  0  0  0  0  0  0  0  0  0  0  0
    8.5485  -13.7093   27.5748 O   0  0  0  0  0  0  0  0  0  0  0  0
    8.9299  -12.7584   28.5037 O   0  0  0  0  0  0  0  0  0  0  0  0
  2  1  1  6
  3  2  1  0
  3  4  1  0
  4  5  2  0
  4  8  1  0
  6  7  2  0
  6  2  1  0
  9 10  1  0
 10 12  1  0
 11 10  2  0
 12 13  1  0
 14 13  1  0
 15 14  1  0
 16 15  1  1
 16 17  1  0
 17  6  1  0
 18 16  1  0
 18 19  2  0
 21 20  1  1
 21 22  1  0
 21 23  1  0
 23 25  1  0
 23 24  1  1
 24 18  1  0
 25 26  1  0
 27 25  2  0
M  END
$$$$
