QDC.pdb
     RDKit          3D

 24 23  0  0  1  0  0  0  0  0999 V2000
    7.4452  -13.0990   19.0915 N   0  0  0  0  0  0  0  0  0  0  0  0
    7.7377  -13.0594   20.4737 C   0  0  0  0  0  0  0  0  0  0  0  0
    8.0251  -11.9696   20.9993 O   0  0  0  0  0  0  0  0  0  0  0  0
    7.7018  -14.2946   21.2752 C   0  0  0  0  0  0  0  0  0  0  0  0
    7.2301  -15.4833   20.5026 C   0  0  0  0  0  0  0  0  0  0  0  0
    7.1198  -16.7586   21.2672 C   0  0  2  0  0  0  0  0  0  0  0  0
    5.9315  -16.5812   22.1407 N   0  0  0  0  0  0  0  0  0  0  0  0
    8.2709  -16.9102   22.2015 C   0  0  0  0  0  0  0  0  0  0  0  0
    8.1574  -17.5480   23.2980 O   0  0  0  0  0  0  0  0  0  0  0  0
    9.5675  -16.3744   21.9633 N   0  0  0  0  0  0  0  0  0  0  0  0
   10.6735  -16.5800   22.8441 C   0  0  1  0  0  0  0  0  0  0  0  0
   12.0000  -16.2387   22.2425 C   0  0  0  0  0  0  0  0  0  0  0  0
   13.1521  -16.4791   23.0842 C   0  0  0  0  0  0  0  0  0  0  0  0
   13.2031  -17.4898   23.8102 O   0  0  0  0  0  0  0  0  0  0  0  0
   10.4703  -15.9277   24.1756 C   0  0  0  0  0  0  0  0  0  0  0  0
   11.2982  -16.0559   25.1157 O   0  0  0  0  0  0  0  0  0  0  0  0
   14.2177  -15.6124   23.1128 O   0  0  0  0  0  0  0  0  0  0  0  0
    9.3286  -15.1271   24.4489 N   0  0  0  0  0  0  0  0  0  0  0  0
    9.0980  -14.4562   25.6936 C   0  0  1  0  0  0  0  0  0  0  0  0
    7.9426  -13.5123   25.6707 C   0  0  0  0  0  0  0  0  0  0  0  0
    7.8263  -12.6994   27.2807 S   0  0  0  0  0  0  0  0  0  0  0  0
    8.9411  -15.3916   26.8314 C   0  0  0  0  0  0  0  0  0  0  0  0
    9.2335  -14.9706   28.1169 O   0  0  0  0  0  0  0  0  0  0  0  0
    8.5481  -16.5588   26.6517 O   0  0  0  0  0  0  0  0  0  0  0  0
  1  2  1  0
  2  4  1  0
  3  2  2  0
  4  5  1  0
  6  5  1  0
  6  7  1  1
  8  6  1  0
  8  9  2  0
 10  8  1  0
 11 10  1  0
 11 15  1  0
 11 12  1  6
 13 12  1  0
 13 17  1  0
 14 13  2  0
 15 16  2  0
 15 18  1  0
 18 19  1  0
 19 20  1  6
 21 20  1  0
 22 23  1  0
 22 19  1  0
 24 22  2  0
M  END
$$$$
