QDC.pdb
     RDKit          3D

 24 23  0  0  1  0  0  0  0  0999 V2000
    7.9181  -15.5685   16.9345 N   0  0  0  0  0  0  0  0  0  0  0  0
    7.9852  -14.1786   16.6874 C   0  0  0  0  0  0  0  0  0  0  0  0
    8.1883  -13.7805   15.5269 O   0  0  0  0  0  0  0  0  0  0  0  0
    7.8168  -13.2196   17.7926 C   0  0  0  0  0  0  0  0  0  0  0  0
    7.6174  -13.8795   19.1183 C   0  0  0  0  0  0  0  0  0  0  0  0
    8.5681  -13.4828   20.1961 C   0  0  2  0  0  0  0  0  0  0  0  0
    9.9139  -13.8159   19.6629 N   0  0  0  0  0  0  0  0  0  0  0  0
    8.3965  -14.3546   21.3926 C   0  0  0  0  0  0  0  0  0  0  0  0
    7.3346  -14.3181   22.0948 O   0  0  0  0  0  0  0  0  0  0  0  0
    9.3727  -15.2839   21.8491 N   0  0  0  0  0  0  0  0  0  0  0  0
    9.2522  -16.0068   23.0755 C   0  0  1  0  0  0  0  0  0  0  0  0
    9.9838  -17.3118   23.0852 C   0  0  0  0  0  0  0  0  0  0  0  0
    9.7745  -18.1579   21.9303 C   0  0  0  0  0  0  0  0  0  0  0  0
    8.6251  -18.5151   21.6100 O   0  0  0  0  0  0  0  0  0  0  0  0
    9.5802  -15.1643   24.2681 C   0  0  0  0  0  0  0  0  0  0  0  0
   10.7049  -14.6159   24.4098 O   0  0  0  0  0  0  0  0  0  0  0  0
   10.8223  -18.5922   21.1552 O   0  0  0  0  0  0  0  0  0  0  0  0
    8.6362  -14.9387   25.3060 N   0  0  0  0  0  0  0  0  0  0  0  0
    8.9401  -14.2699   26.5359 C   0  0  1  0  0  0  0  0  0  0  0  0
    7.9168  -13.2668   26.9515 C   0  0  0  0  0  0  0  0  0  0  0  0
    6.8304  -12.9310   25.5467 S   0  0  0  0  0  0  0  0  0  0  0  0
    9.1865  -15.2079   27.6556 C   0  0  0  0  0  0  0  0  0  0  0  0
    9.6502  -14.7289   28.8684 O   0  0  0  0  0  0  0  0  0  0  0  0
    8.9828  -16.4288   27.5252 O   0  0  0  0  0  0  0  0  0  0  0  0
  1  2  1  0
  2  4  1  0
  3  2  2  0
  4  5  1  0
  6  5  1  0
  6  7  1  6
  8  6  1  0
  8  9  2  0
 10  8  1  0
 11 10  1  0
 11 15  1  0
 11 12  1  6
 13 12  1  0
 13 17  1  0
 14 13  2  0
 15 16  2  0
 15 18  1  0
 18 19  1  0
 19 20  1  1
 21 20  1  0
 22 23  1  0
 22 19  1  0
 24 22  2  0
M  END
$$$$
