QDC.pdb
     RDKit          3D

 24 23  0  0  1  0  0  0  0  0999 V2000
    7.9480  -12.5460   18.6398 N   0  0  0  0  0  0  0  0  0  0  0  0
    7.9157  -13.6106   17.7108 C   0  0  0  0  0  0  0  0  0  0  0  0
    8.4578  -13.4610   16.6016 O   0  0  0  0  0  0  0  0  0  0  0  0
    7.2474  -14.8768   18.0564 C   0  0  0  0  0  0  0  0  0  0  0  0
    7.1415  -15.1027   19.5296 C   0  0  0  0  0  0  0  0  0  0  0  0
    8.3713  -14.8218   20.3245 C   0  0  2  0  0  0  0  0  0  0  0  0
    9.4310  -15.6542   19.6996 N   0  0  0  0  0  0  0  0  0  0  0  0
    8.2297  -15.3482   21.7116 C   0  0  0  0  0  0  0  0  0  0  0  0
    7.1819  -15.1296   22.4018 O   0  0  0  0  0  0  0  0  0  0  0  0
    9.2213  -16.1233   22.3756 N   0  0  0  0  0  0  0  0  0  0  0  0
    9.0864  -16.5786   23.7232 C   0  0  1  0  0  0  0  0  0  0  0  0
    9.9544  -17.7504   24.0576 C   0  0  0  0  0  0  0  0  0  0  0  0
    9.8279  -18.2616   25.4052 C   0  0  0  0  0  0  0  0  0  0  0  0
    8.7214  -18.2655   25.9771 O   0  0  0  0  0  0  0  0  0  0  0  0
    9.2261  -15.4679   24.7164 C   0  0  0  0  0  0  0  0  0  0  0  0
   10.3118  -14.8518   24.8815 O   0  0  0  0  0  0  0  0  0  0  0  0
   10.9094  -18.7547   26.0939 O   0  0  0  0  0  0  0  0  0  0  0  0
    8.1370  -15.0497   25.5277 N   0  0  0  0  0  0  0  0  0  0  0  0
    8.2158  -13.9978   26.4971 C   0  0  1  0  0  0  0  0  0  0  0  0
    6.9141  -13.3197   26.7656 C   0  0  0  0  0  0  0  0  0  0  0  0
    6.3978  -12.4439   25.2714 S   0  0  0  0  0  0  0  0  0  0  0  0
    8.8090  -14.4406   27.7802 C   0  0  0  0  0  0  0  0  0  0  0  0
    9.0983  -13.5115   28.7642 O   0  0  0  0  0  0  0  0  0  0  0  0
    9.0542  -15.6424   27.9917 O   0  0  0  0  0  0  0  0  0  0  0  0
  1  2  1  0
  2  4  1  0
  3  2  2  0
  4  5  1  0
  6  5  1  0
  6  7  1  6
  8  6  1  0
  8  9  2  0
 10  8  1  0
 11 10  1  0
 11 15  1  0
 11 12  1  1
 13 12  1  0
 13 17  1  0
 14 13  2  0
 15 16  2  0
 15 18  1  0
 18 19  1  0
 19 20  1  1
 21 20  1  0
 22 23  1  0
 22 19  1  0
 24 22  2  0
M  END
$$$$
