QDC.pdb
     RDKit          3D

 24 23  0  0  1  0  0  0  0  0999 V2000
    6.7152  -13.5705   19.7423 N   0  0  0  0  0  0  0  0  0  0  0  0
    8.1090  -13.3391   19.7779 C   0  0  0  0  0  0  0  0  0  0  0  0
    8.5254  -12.1999   20.0525 O   0  0  0  0  0  0  0  0  0  0  0  0
    9.0505  -14.4353   19.4925 C   0  0  0  0  0  0  0  0  0  0  0  0
    8.3715  -15.7016   19.0826 C   0  0  0  0  0  0  0  0  0  0  0  0
    9.2646  -16.8028   18.6211 C   0  0  2  0  0  0  0  0  0  0  0  0
    8.3463  -17.8972   18.2145 N   0  0  0  0  0  0  0  0  0  0  0  0
   10.0475  -17.3551   19.7626 C   0  0  0  0  0  0  0  0  0  0  0  0
    9.5110  -18.1196   20.6285 O   0  0  0  0  0  0  0  0  0  0  0  0
   11.4278  -17.0903   19.9854 N   0  0  0  0  0  0  0  0  0  0  0  0
   12.1336  -17.5377   21.1443 C   0  0  1  0  0  0  0  0  0  0  0  0
   13.6218  -17.5242   20.9912 C   0  0  0  0  0  0  0  0  0  0  0  0
   14.1543  -18.3795   19.9528 C   0  0  0  0  0  0  0  0  0  0  0  0
   14.9073  -17.9140   19.0766 O   0  0  0  0  0  0  0  0  0  0  0  0
   11.6856  -16.8388   22.3894 C   0  0  0  0  0  0  0  0  0  0  0  0
   11.5240  -15.5908   22.4338 O   0  0  0  0  0  0  0  0  0  0  0  0
   13.8526  -19.7185   19.8962 O   0  0  0  0  0  0  0  0  0  0  0  0
   11.4184  -17.5498   23.5904 N   0  0  0  0  0  0  0  0  0  0  0  0
   10.9338  -16.9405   24.7930 C   0  0  1  0  0  0  0  0  0  0  0  0
    9.6153  -16.2588   24.6407 C   0  0  0  0  0  0  0  0  0  0  0  0
    9.1724  -15.4946   26.2175 S   0  0  0  0  0  0  0  0  0  0  0  0
   10.8652  -17.8868   25.9306 C   0  0  0  0  0  0  0  0  0  0  0  0
   10.7687  -17.4053   27.2245 O   0  0  0  0  0  0  0  0  0  0  0  0
   10.8929  -19.1169   25.7432 O   0  0  0  0  0  0  0  0  0  0  0  0
  1  2  1  0
  2  4  1  0
  3  2  2  0
  4  5  1  0
  6  5  1  0
  6  7  1  1
  8  6  1  0
  8  9  2  0
 10  8  1  0
 11 10  1  0
 11 15  1  0
 11 12  1  6
 13 12  1  0
 13 17  1  0
 14 13  2  0
 15 16  2  0
 15 18  1  0
 18 19  1  0
 19 20  1  6
 21 20  1  0
 22 23  1  0
 22 19  1  0
 24 22  2  0
M  END
$$$$
