QDC.pdb
     RDKit          3D

 24 23  0  0  1  0  0  0  0  0999 V2000
  -93.5206   75.8037  -93.0252 N   0  0  0  0  0  0  0  0  0  0  0  0
  -93.3841   74.4016  -92.9114 C   0  0  0  0  0  0  0  0  0  0  0  0
  -92.5694   73.8127  -93.6435 O   0  0  0  0  0  0  0  0  0  0  0  0
  -94.1983   73.6536  -91.9382 C   0  0  0  0  0  0  0  0  0  0  0  0
  -94.5781   74.4651  -90.7425 C   0  0  0  0  0  0  0  0  0  0  0  0
  -94.4429   73.7866  -89.4218 C   0  0  2  0  0  0  0  0  0  0  0  0
  -93.8108   74.7962  -88.5342 N   0  0  0  0  0  0  0  0  0  0  0  0
  -93.4589   72.6704  -89.5049 C   0  0  0  0  0  0  0  0  0  0  0  0
  -93.1829   71.9508  -88.4909 O   0  0  0  0  0  0  0  0  0  0  0  0
  -92.7571   72.3123  -90.6898 N   0  0  0  0  0  0  0  0  0  0  0  0
  -91.8646   71.1991  -90.7650 C   0  0  1  0  0  0  0  0  0  0  0  0
  -91.2469   71.0065  -92.1139 C   0  0  0  0  0  0  0  0  0  0  0  0
  -92.1685   70.7199  -93.1918 C   0  0  0  0  0  0  0  0  0  0  0  0
  -92.4825   71.6083  -94.0064 O   0  0  0  0  0  0  0  0  0  0  0  0
  -90.8438   71.2125  -89.6708 C   0  0  0  0  0  0  0  0  0  0  0  0
  -90.3522   70.1519  -89.2027 O   0  0  0  0  0  0  0  0  0  0  0  0
  -92.7237   69.4738  -93.3537 O   0  0  0  0  0  0  0  0  0  0  0  0
  -90.3746   72.4269  -89.1013 N   0  0  0  0  0  0  0  0  0  0  0  0
  -89.4914   72.4971  -87.9756 C   0  0  1  0  0  0  0  0  0  0  0  0
  -88.0753   72.1487  -88.2911 C   0  0  0  0  0  0  0  0  0  0  0  0
  -87.0658   72.4372  -86.8200 S   0  0  0  0  0  0  0  0  0  0  0  0
  -89.5301   73.8120  -87.2946 C   0  0  0  0  0  0  0  0  0  0  0  0
  -88.4798   74.7001  -87.4476 O   0  0  0  0  0  0  0  0  0  0  0  0
  -90.4974   74.1359  -86.5814 O   0  0  0  0  0  0  0  0  0  0  0  0
  1  2  1  0
  2  4  1  0
  3  2  2  0
  4  5  1  0
  6  5  1  0
  6  7  1  1
  8  6  1  0
  8  9  2  0
 10  8  1  0
 11 10  1  0
 11 15  1  0
 11 12  1  6
 13 12  1  0
 13 17  1  0
 14 13  2  0
 15 16  2  0
 15 18  1  0
 18 19  1  0
 19 20  1  6
 21 20  1  0
 22 23  1  0
 22 19  1  0
 24 22  2  0
M  END
$$$$
