QDC.pdb
     RDKit          3D

 24 23  0  0  1  0  0  0  0  0999 V2000
    6.7761  -12.9153   18.2583 N   0  0  0  0  0  0  0  0  0  0  0  0
    7.2592  -13.6871   17.1774 C   0  0  0  0  0  0  0  0  0  0  0  0
    6.9033  -13.3974   16.0216 O   0  0  0  0  0  0  0  0  0  0  0  0
    8.1707  -14.8179   17.4223 C   0  0  0  0  0  0  0  0  0  0  0  0
    8.4628  -15.0344   18.8716 C   0  0  0  0  0  0  0  0  0  0  0  0
    9.9029  -15.0223   19.2574 C   0  0  2  0  0  0  0  0  0  0  0  0
   10.6065  -15.6979   18.1371 N   0  0  0  0  0  0  0  0  0  0  0  0
   10.1343  -15.8934   20.4444 C   0  0  0  0  0  0  0  0  0  0  0  0
    9.2020  -16.1477   21.2740 O   0  0  0  0  0  0  0  0  0  0  0  0
   11.3807  -16.5068   20.7528 N   0  0  0  0  0  0  0  0  0  0  0  0
   11.5789  -17.3481   21.8904 C   0  0  1  0  0  0  0  0  0  0  0  0
   12.8591  -18.1216   21.8576 C   0  0  0  0  0  0  0  0  0  0  0  0
   13.0741  -18.9308   20.6776 C   0  0  0  0  0  0  0  0  0  0  0  0
   12.1529  -19.6309   20.2164 O   0  0  0  0  0  0  0  0  0  0  0  0
   11.3932  -16.6140   23.1812 C   0  0  0  0  0  0  0  0  0  0  0  0
   11.8549  -15.4569   23.3642 O   0  0  0  0  0  0  0  0  0  0  0  0
   14.2862  -18.9561   20.0315 O   0  0  0  0  0  0  0  0  0  0  0  0
   10.6836  -17.1868   24.2711 N   0  0  0  0  0  0  0  0  0  0  0  0
   10.4018  -16.4987   25.4957 C   0  0  1  0  0  0  0  0  0  0  0  0
    9.4711  -15.3425   25.3431 C   0  0  0  0  0  0  0  0  0  0  0  0
    7.8794  -15.9547   24.7448 S   0  0  0  0  0  0  0  0  0  0  0  0
    9.8928  -17.3978   26.5572 C   0  0  0  0  0  0  0  0  0  0  0  0
    9.7269  -16.9205   27.8456 O   0  0  0  0  0  0  0  0  0  0  0  0
    9.6091  -18.5843   26.3103 O   0  0  0  0  0  0  0  0  0  0  0  0
  1  2  1  0
  2  4  1  0
  3  2  2  0
  4  5  1  0
  6  5  1  0
  6  7  1  6
  8  6  1  0
  8  9  2  0
 10  8  1  0
 11 10  1  0
 11 15  1  0
 11 12  1  1
 13 12  1  0
 13 17  1  0
 14 13  2  0
 15 16  2  0
 15 18  1  0
 18 19  1  0
 19 20  1  6
 21 20  1  0
 22 23  1  0
 22 19  1  0
 24 22  2  0
M  END
$$$$
