QDC.pdb
     RDKit          3D

 24 23  0  0  1  0  0  0  0  0999 V2000
    8.6958  -14.0216   16.8844 N   0  0  0  0  0  0  0  0  0  0  0  0
    7.6847  -14.7615   17.5384 C   0  0  0  0  0  0  0  0  0  0  0  0
    7.0909  -15.6572   16.9126 O   0  0  0  0  0  0  0  0  0  0  0  0
    7.3429  -14.4712   18.9414 C   0  0  0  0  0  0  0  0  0  0  0  0
    7.9039  -13.1743   19.4270 C   0  0  0  0  0  0  0  0  0  0  0  0
    9.2099  -13.2533   20.1419 C   0  0  2  0  0  0  0  0  0  0  0  0
   10.1357  -13.9045   19.1799 N   0  0  0  0  0  0  0  0  0  0  0  0
    9.1200  -14.1945   21.2940 C   0  0  0  0  0  0  0  0  0  0  0  0
    8.2171  -14.0717   22.1838 O   0  0  0  0  0  0  0  0  0  0  0  0
   10.0066  -15.2881   21.5016 N   0  0  0  0  0  0  0  0  0  0  0  0
    9.8836  -16.1988   22.5955 C   0  0  1  0  0  0  0  0  0  0  0  0
   10.4652  -17.5510   22.3277 C   0  0  0  0  0  0  0  0  0  0  0  0
   10.4375  -18.4780   23.4384 C   0  0  0  0  0  0  0  0  0  0  0  0
    9.3617  -18.7560   24.0013 O   0  0  0  0  0  0  0  0  0  0  0  0
   10.3768  -15.6143   23.8818 C   0  0  0  0  0  0  0  0  0  0  0  0
   11.5393  -15.1452   24.0002 O   0  0  0  0  0  0  0  0  0  0  0  0
   11.5817  -19.0772   23.9062 O   0  0  0  0  0  0  0  0  0  0  0  0
    9.5559  -15.5582   25.0404 N   0  0  0  0  0  0  0  0  0  0  0  0
    9.9628  -14.9773   26.2851 C   0  0  1  0  0  0  0  0  0  0  0  0
    9.0518  -13.9054   26.7825 C   0  0  0  0  0  0  0  0  0  0  0  0
    9.7925  -13.1488   28.2472 S   0  0  0  0  0  0  0  0  0  0  0  0
   10.1599  -15.9845   27.3533 C   0  0  0  0  0  0  0  0  0  0  0  0
   10.9767  -15.6956   28.4325 O   0  0  0  0  0  0  0  0  0  0  0  0
    9.6001  -17.0947   27.2982 O   0  0  0  0  0  0  0  0  0  0  0  0
  1  2  1  0
  2  4  1  0
  3  2  2  0
  4  5  1  0
  6  5  1  0
  6  7  1  6
  8  6  1  0
  8  9  2  0
 10  8  1  0
 11 10  1  0
 11 15  1  0
 11 12  1  6
 13 12  1  0
 13 17  1  0
 14 13  2  0
 15 16  2  0
 15 18  1  0
 18 19  1  0
 19 20  1  1
 21 20  1  0
 22 23  1  0
 22 19  1  0
 24 22  2  0
M  END
$$$$
