QDC.pdb
     RDKit          3D

 24 23  0  0  1  0  0  0  0  0999 V2000
    7.8534  -12.0288   18.5077 N   0  0  0  0  0  0  0  0  0  0  0  0
    7.6260  -13.3838   18.8392 C   0  0  0  0  0  0  0  0  0  0  0  0
    7.2311  -14.1639   17.9549 O   0  0  0  0  0  0  0  0  0  0  0  0
    7.8546  -13.8596   20.2143 C   0  0  0  0  0  0  0  0  0  0  0  0
    9.2494  -14.3432   20.4448 C   0  0  0  0  0  0  0  0  0  0  0  0
    9.4308  -15.8225   20.4834 C   0  0  2  0  0  0  0  0  0  0  0  0
    8.1915  -16.3774   19.8812 N   0  0  0  0  0  0  0  0  0  0  0  0
    9.4335  -16.3132   21.8906 C   0  0  0  0  0  0  0  0  0  0  0  0
    8.3815  -16.2813   22.6077 O   0  0  0  0  0  0  0  0  0  0  0  0
   10.5770  -16.8496   22.5461 N   0  0  0  0  0  0  0  0  0  0  0  0
   10.5701  -17.2739   23.9104 C   0  0  1  0  0  0  0  0  0  0  0  0
   11.5950  -18.3168   24.2268 C   0  0  0  0  0  0  0  0  0  0  0  0
   11.5557  -19.5063   23.4039 C   0  0  0  0  0  0  0  0  0  0  0  0
   10.4677  -20.0447   23.1250 O   0  0  0  0  0  0  0  0  0  0  0  0
   10.6196  -16.1226   24.8653 C   0  0  0  0  0  0  0  0  0  0  0  0
   11.2398  -15.0597   24.5988 O   0  0  0  0  0  0  0  0  0  0  0  0
   12.7019  -20.0775   22.9068 O   0  0  0  0  0  0  0  0  0  0  0  0
    9.9668  -16.1696   26.1266 N   0  0  0  0  0  0  0  0  0  0  0  0
    9.9420  -15.0818   27.0585 C   0  0  1  0  0  0  0  0  0  0  0  0
    8.5928  -14.4732   27.2470 C   0  0  0  0  0  0  0  0  0  0  0  0
    8.7389  -13.0833   28.3930 S   0  0  0  0  0  0  0  0  0  0  0  0
   10.5029  -15.4437   28.3809 C   0  0  0  0  0  0  0  0  0  0  0  0
   10.7987  -16.7649   28.6673 O   0  0  0  0  0  0  0  0  0  0  0  0
   10.7150  -14.5748   29.2464 O   0  0  0  0  0  0  0  0  0  0  0  0
  1  2  1  0
  2  4  1  0
  3  2  2  0
  4  5  1  0
  6  5  1  0
  6  7  1  6
  8  6  1  0
  8  9  2  0
 10  8  1  0
 11 10  1  0
 11 15  1  0
 11 12  1  6
 13 12  1  0
 13 17  1  0
 14 13  2  0
 15 16  2  0
 15 18  1  0
 18 19  1  0
 19 20  1  1
 21 20  1  0
 22 23  1  0
 22 19  1  0
 24 22  2  0
M  END
$$$$
