QDC.pdb
     RDKit          3D

 24 23  0  0  1  0  0  0  0  0999 V2000
    8.1267  -18.8566   16.7444 N   0  0  0  0  0  0  0  0  0  0  0  0
    8.7838  -19.1149   15.5200 C   0  0  0  0  0  0  0  0  0  0  0  0
    8.1771  -18.9100   14.4539 O   0  0  0  0  0  0  0  0  0  0  0  0
   10.1673  -19.6201   15.5128 C   0  0  0  0  0  0  0  0  0  0  0  0
   10.7274  -19.8203   16.8835 C   0  0  0  0  0  0  0  0  0  0  0  0
   11.2798  -18.6054   17.5482 C   0  0  2  0  0  0  0  0  0  0  0  0
   12.6419  -18.4418   16.9787 N   0  0  0  0  0  0  0  0  0  0  0  0
   11.4928  -18.8551   19.0019 C   0  0  0  0  0  0  0  0  0  0  0  0
   10.5126  -18.9830   19.8050 O   0  0  0  0  0  0  0  0  0  0  0  0
   12.7731  -18.9727   19.6118 N   0  0  0  0  0  0  0  0  0  0  0  0
   12.9559  -19.2735   20.9966 C   0  0  1  0  0  0  0  0  0  0  0  0
   14.2576  -19.9431   21.3054 C   0  0  0  0  0  0  0  0  0  0  0  0
   14.4401  -21.2578   20.7292 C   0  0  0  0  0  0  0  0  0  0  0  0
   13.4707  -22.0287   20.5972 O   0  0  0  0  0  0  0  0  0  0  0  0
   12.7060  -18.0879   21.8750 C   0  0  0  0  0  0  0  0  0  0  0  0
   13.4247  -17.0553   21.8240 O   0  0  0  0  0  0  0  0  0  0  0  0
   15.6729  -21.6976   20.3124 O   0  0  0  0  0  0  0  0  0  0  0  0
   11.6409  -18.0661   22.8154 N   0  0  0  0  0  0  0  0  0  0  0  0
   11.4584  -17.0395   23.7977 C   0  0  1  0  0  0  0  0  0  0  0  0
   10.0707  -16.4943   23.8569 C   0  0  0  0  0  0  0  0  0  0  0  0
    9.5968  -15.9350   22.2050 S   0  0  0  0  0  0  0  0  0  0  0  0
   11.8752  -17.4610   25.1552 C   0  0  0  0  0  0  0  0  0  0  0  0
   11.9235  -16.5340   26.1817 O   0  0  0  0  0  0  0  0  0  0  0  0
   12.1854  -18.6428   25.3921 O   0  0  0  0  0  0  0  0  0  0  0  0
  1  2  1  0
  2  4  1  0
  3  2  2  0
  4  5  1  0
  6  5  1  0
  6  7  1  6
  8  6  1  0
  8  9  2  0
 10  8  1  0
 11 10  1  0
 11 15  1  0
 11 12  1  6
 13 12  1  0
 13 17  1  0
 14 13  2  0
 15 16  2  0
 15 18  1  0
 18 19  1  0
 19 20  1  1
 21 20  1  0
 22 23  1  0
 22 19  1  0
 24 22  2  0
M  END
$$$$
