QDC.pdb
     RDKit          3D

 24 23  0  0  1  0  0  0  0  0999 V2000
    8.6677  -12.5603   18.0421 N   0  0  0  0  0  0  0  0  0  0  0  0
    8.0815  -13.6712   17.3944 C   0  0  0  0  0  0  0  0  0  0  0  0
    8.2952  -13.8454   16.1817 O   0  0  0  0  0  0  0  0  0  0  0  0
    7.2297  -14.6059   18.1496 C   0  0  0  0  0  0  0  0  0  0  0  0
    7.0160  -14.1907   19.5690 C   0  0  0  0  0  0  0  0  0  0  0  0
    8.2485  -13.9518   20.3732 C   0  0  2  0  0  0  0  0  0  0  0  0
    9.3414  -14.5983   19.6025 N   0  0  0  0  0  0  0  0  0  0  0  0
    8.1860  -14.6985   21.6615 C   0  0  0  0  0  0  0  0  0  0  0  0
    7.1623  -14.6363   22.4168 O   0  0  0  0  0  0  0  0  0  0  0  0
    9.2318  -15.5283   22.1541 N   0  0  0  0  0  0  0  0  0  0  0  0
    9.1720  -16.1977   23.4149 C   0  0  1  0  0  0  0  0  0  0  0  0
    9.9873  -17.4506   23.4760 C   0  0  0  0  0  0  0  0  0  0  0  0
    9.7971  -18.3780   22.3818 C   0  0  0  0  0  0  0  0  0  0  0  0
   10.7392  -18.6486   21.6133 O   0  0  0  0  0  0  0  0  0  0  0  0
    9.4571  -15.2794   24.5616 C   0  0  0  0  0  0  0  0  0  0  0  0
   10.6041  -14.8015   24.7656 O   0  0  0  0  0  0  0  0  0  0  0  0
    8.5863  -18.9856   22.1537 O   0  0  0  0  0  0  0  0  0  0  0  0
    8.4448  -14.8978   25.4829 N   0  0  0  0  0  0  0  0  0  0  0  0
    8.6816  -14.1066   26.6535 C   0  0  1  0  0  0  0  0  0  0  0  0
    7.4928  -13.3316   27.1143 C   0  0  0  0  0  0  0  0  0  0  0  0
    6.8072  -12.4300   25.7060 S   0  0  0  0  0  0  0  0  0  0  0  0
    9.2162  -14.8988   27.7853 C   0  0  0  0  0  0  0  0  0  0  0  0
    9.6914  -14.2556   28.9148 O   0  0  0  0  0  0  0  0  0  0  0  0
    9.2462  -16.1422   27.7393 O   0  0  0  0  0  0  0  0  0  0  0  0
  1  2  1  0
  2  4  1  0
  3  2  2  0
  4  5  1  0
  6  5  1  0
  6  7  1  6
  8  6  1  0
  8  9  2  0
 10  8  1  0
 11 10  1  0
 11 15  1  0
 11 12  1  6
 13 12  1  0
 13 17  1  0
 14 13  2  0
 15 16  2  0
 15 18  1  0
 18 19  1  0
 19 20  1  1
 21 20  1  0
 22 23  1  0
 22 19  1  0
 24 22  2  0
M  END
$$$$
