KYI.pdb
     RDKit          3D

 30 30  0  0  1  0  0  0  0  0999 V2000
   26.8999  -23.8327  -17.0676 N   0  0  0  0  0  0  0  0  0  0  0  0
   26.9166  -22.4302  -16.6501 C   0  0  1  0  0  0  0  0  0  0  0  0
   26.2648  -21.5632  -17.6859 C   0  0  0  0  0  0  0  0  0  0  0  0
   26.9617  -21.6091  -19.0006 C   0  0  0  0  0  0  0  0  0  0  0  0
   28.3841  -21.0534  -18.8556 C   0  0  0  0  0  0  0  0  0  0  0  0
   29.1250  -21.0245  -20.1563 C   0  0  0  0  0  0  0  0  0  0  0  0
   29.0142  -19.6792  -20.7113 N   0  0  0  0  0  0  0  0  0  0  0  0
   26.3180  -22.2994  -15.2931 C   0  0  0  0  0  0  0  0  0  0  0  0
   25.2195  -22.8033  -14.9579 O   0  0  0  0  0  0  0  0  0  0  0  0
   25.4423  -20.0718   -6.7081 O   0  0  0  0  0  0  0  0  0  0  0  0
   25.9192  -20.2420   -8.0117 C   0  0  0  0  0  0  0  0  0  0  0  0
   26.0365  -19.1869   -8.8839 C   0  0  0  0  0  0  0  0  0  0  0  0
   26.5108  -19.3374  -10.1900 C   0  0  0  0  0  0  0  0  0  0  0  0
   26.8708  -20.5985  -10.6048 C   0  0  0  0  0  0  0  0  0  0  0  0
   27.3739  -20.8160  -11.9580 C   0  0  0  0  0  0  0  0  0  0  0  0
   26.3787  -21.3663  -12.9330 C   0  0  2  0  0  0  0  0  0  0  0  0
   26.9881  -21.5635  -14.2565 N   0  0  0  0  0  0  0  0  0  0  0  0
   25.1578  -20.5879  -13.1025 C   0  0  0  0  0  0  0  0  0  0  0  0
   25.0787  -19.5420  -13.8242 O   0  0  0  0  0  0  0  0  0  0  0  0
   26.7561  -21.6672   -9.7334 C   0  0  0  0  0  0  0  0  0  0  0  0
   26.2811  -21.4960   -8.4357 C   0  0  0  0  0  0  0  0  0  0  0  0
   20.8088  -19.3674  -15.8223 C   0  0  0  0  0  0  0  0  0  0  0  0
   21.1412  -19.4601  -14.3747 C   0  0  0  0  0  0  0  0  0  0  0  0
   22.3660  -20.2337  -14.0208 C   0  0  2  0  0  0  0  0  0  0  0  0
   22.1447  -21.6647  -14.5140 C   0  0  0  0  0  0  0  0  0  0  0  0
   22.7399  -20.2187  -12.5612 C   0  0  2  0  0  0  0  0  0  0  0  0
   23.9638  -20.9872  -12.4432 N   0  0  0  0  0  0  0  0  0  0  0  0
   21.6606  -20.6719  -11.6937 C   0  0  0  0  0  0  0  0  0  0  0  0
   21.6123  -21.8502  -10.9745 O   0  0  0  0  0  0  0  0  0  0  0  0
   20.6315  -19.9236  -11.5598 O   0  0  0  0  0  0  0  0  0  0  0  0
  2  1  1  6
  3  4  1  0
  3  2  1  0
  5  6  1  0
  5  4  1  0
  6  7  1  0
  8  9  2  0
  8  2  1  0
 10 11  1  0
 11 12  2  0
 12 13  1  0
 14 13  2  0
 14 15  1  0
 16 15  1  1
 16 17  1  0
 17  8  1  0
 18 16  1  0
 18 19  2  0
 20 14  1  0
 21 11  1  0
 21 20  2  0
 23 22  1  0
 24 23  1  0
 24 26  1  0
 24 25  1  1
 26 27  1  6
 27 18  1  0
 28 29  1  0
 28 26  1  0
 30 28  2  0
M  END
$$$$
