KYI.pdb
     RDKit          3D

 30 30  0  0  1  0  0  0  0  0999 V2000
   27.2385  -22.5089  -17.8900 N   0  0  0  0  0  0  0  0  0  0  0  0
   26.6977  -23.0853  -16.6583 C   0  0  1  0  0  0  0  0  0  0  0  0
   27.3112  -24.4271  -16.3895 C   0  0  0  0  0  0  0  0  0  0  0  0
   26.6407  -25.5292  -17.1326 C   0  0  0  0  0  0  0  0  0  0  0  0
   25.1529  -25.5770  -16.7623 C   0  0  0  0  0  0  0  0  0  0  0  0
   24.4974  -26.8564  -17.1809 C   0  0  0  0  0  0  0  0  0  0  0  0
   25.0523  -27.2485  -18.4727 N   0  0  0  0  0  0  0  0  0  0  0  0
   26.8520  -22.1179  -15.5370 C   0  0  0  0  0  0  0  0  0  0  0  0
   27.9479  -21.6211  -15.1832 O   0  0  0  0  0  0  0  0  0  0  0  0
   28.3228  -16.7563  -18.1698 O   0  0  0  0  0  0  0  0  0  0  0  0
   27.5597  -17.4008  -17.1911 C   0  0  0  0  0  0  0  0  0  0  0  0
   26.3172  -17.9187  -17.4655 C   0  0  0  0  0  0  0  0  0  0  0  0
   25.5400  -18.5659  -16.5008 C   0  0  0  0  0  0  0  0  0  0  0  0
   26.0531  -18.6815  -15.2298 C   0  0  0  0  0  0  0  0  0  0  0  0
   25.2868  -19.3485  -14.1812 C   0  0  0  0  0  0  0  0  0  0  0  0
   25.8369  -20.6635  -13.7208 C   0  0  2  0  0  0  0  0  0  0  0  0
   25.7155  -21.6848  -14.7716 N   0  0  0  0  0  0  0  0  0  0  0  0
   25.2605  -21.1988  -12.4934 C   0  0  0  0  0  0  0  0  0  0  0  0
   24.3032  -22.0378  -12.4671 O   0  0  0  0  0  0  0  0  0  0  0  0
   27.3037  -18.1629  -14.9439 C   0  0  0  0  0  0  0  0  0  0  0  0
   28.0622  -17.5214  -15.9198 C   0  0  0  0  0  0  0  0  0  0  0  0
   26.4490  -20.5610   -6.3838 C   0  0  0  0  0  0  0  0  0  0  0  0
   25.6533  -21.1328   -7.5039 C   0  0  0  0  0  0  0  0  0  0  0  0
   26.0610  -20.7345   -8.8819 C   0  0  2  0  0  0  0  0  0  0  0  0
   26.1305  -19.2064   -8.8996 C   0  0  0  0  0  0  0  0  0  0  0  0
   25.1777  -21.2464   -9.9901 C   0  0  2  0  0  0  0  0  0  0  0  0
   25.7697  -20.7879  -11.2317 N   0  0  0  0  0  0  0  0  0  0  0  0
   23.7792  -20.8755   -9.8189 C   0  0  0  0  0  0  0  0  0  0  0  0
   22.8209  -21.5595   -9.0966 O   0  0  0  0  0  0  0  0  0  0  0  0
   23.3587  -19.8073  -10.3839 O   0  0  0  0  0  0  0  0  0  0  0  0
  2  1  1  6
  3  4  1  0
  3  2  1  0
  5  6  1  0
  5  4  1  0
  6  7  1  0
  8  9  2  0
  8  2  1  0
 10 11  1  0
 11 12  2  0
 12 13  1  0
 14 13  2  0
 14 15  1  0
 16 15  1  6
 16 17  1  0
 17  8  1  0
 18 16  1  0
 18 19  2  0
 20 14  1  0
 21 11  1  0
 21 20  2  0
 23 22  1  0
 24 23  1  0
 24 26  1  0
 24 25  1  1
 26 27  1  6
 27 18  1  0
 28 29  1  0
 28 26  1  0
 30 28  2  0
M  END
$$$$
