KYI.pdb
     RDKit          3D

 30 30  0  0  1  0  0  0  0  0999 V2000
   28.3240  -22.2308  -16.1396 N   0  0  0  0  0  0  0  0  0  0  0  0
   27.6081  -21.0098  -15.7676 C   0  0  1  0  0  0  0  0  0  0  0  0
   26.9522  -20.3958  -16.9685 C   0  0  0  0  0  0  0  0  0  0  0  0
   27.9266  -20.0088  -18.0255 C   0  0  0  0  0  0  0  0  0  0  0  0
   27.1924  -19.3230  -19.1846 C   0  0  0  0  0  0  0  0  0  0  0  0
   28.1086  -18.9649  -20.3134 C   0  0  0  0  0  0  0  0  0  0  0  0
   27.2988  -18.4232  -21.4001 N   0  0  0  0  0  0  0  0  0  0  0  0
   26.6679  -21.2956  -14.6491 C   0  0  0  0  0  0  0  0  0  0  0  0
   26.0463  -22.3764  -14.5122 O   0  0  0  0  0  0  0  0  0  0  0  0
   31.2646  -22.0471   -9.8702 O   0  0  0  0  0  0  0  0  0  0  0  0
   29.9943  -21.5572  -10.1893 C   0  0  0  0  0  0  0  0  0  0  0  0
   28.9343  -21.6732   -9.3229 C   0  0  0  0  0  0  0  0  0  0  0  0
   27.6578  -21.1899   -9.6241 C   0  0  0  0  0  0  0  0  0  0  0  0
   27.4705  -20.5758  -10.8406 C   0  0  0  0  0  0  0  0  0  0  0  0
   26.1590  -20.0508  -11.2093 C   0  0  0  0  0  0  0  0  0  0  0  0
   25.5685  -20.6190  -12.4633 C   0  0  2  0  0  0  0  0  0  0  0  0
   26.4114  -20.3161  -13.6294 N   0  0  0  0  0  0  0  0  0  0  0  0
   24.2032  -20.2075  -12.7659 C   0  0  0  0  0  0  0  0  0  0  0  0
   23.9096  -19.1792  -13.4569 O   0  0  0  0  0  0  0  0  0  0  0  0
   28.5321  -20.4545  -11.7197 C   0  0  0  0  0  0  0  0  0  0  0  0
   29.7965  -20.9429  -11.4004 C   0  0  0  0  0  0  0  0  0  0  0  0
   22.1214  -22.0581  -16.2829 C   0  0  0  0  0  0  0  0  0  0  0  0
   22.3040  -21.1866  -15.0906 C   0  0  0  0  0  0  0  0  0  0  0  0
   21.4606  -21.4996  -13.9012 C   0  0  2  0  0  0  0  0  0  0  0  0
   20.0027  -21.3475  -14.3390 C   0  0  0  0  0  0  0  0  0  0  0  0
   21.7434  -20.6732  -12.6734 C   0  0  2  0  0  0  0  0  0  0  0  0
   23.1072  -20.9725  -12.2826 N   0  0  0  0  0  0  0  0  0  0  0  0
   20.7594  -20.8702  -11.6172 C   0  0  0  0  0  0  0  0  0  0  0  0
   19.6916  -20.0485  -11.3131 O   0  0  0  0  0  0  0  0  0  0  0  0
   20.8645  -21.9049  -10.8719 O   0  0  0  0  0  0  0  0  0  0  0  0
  2  1  1  6
  3  4  1  0
  3  2  1  0
  5  6  1  0
  5  4  1  0
  6  7  1  0
  8  9  2  0
  8  2  1  0
 10 11  1  0
 11 12  2  0
 12 13  1  0
 14 13  2  0
 14 15  1  0
 16 15  1  1
 16 17  1  0
 17  8  1  0
 18 16  1  0
 18 19  2  0
 20 14  1  0
 21 11  1  0
 21 20  2  0
 23 22  1  0
 24 23  1  0
 24 26  1  0
 24 25  1  6
 26 27  1  1
 27 18  1  0
 28 29  1  0
 28 26  1  0
 30 28  2  0
M  END
$$$$
