KYI.pdb
     RDKit          3D

 30 30  0  0  1  0  0  0  0  0999 V2000
   27.9518  -26.6961  -16.3510 N   0  0  0  0  0  0  0  0  0  0  0  0
   27.7300  -25.5320  -17.2097 C   0  0  1  0  0  0  0  0  0  0  0  0
   26.7401  -25.8534  -18.2895 C   0  0  0  0  0  0  0  0  0  0  0  0
   27.3842  -26.1125  -19.6064 C   0  0  0  0  0  0  0  0  0  0  0  0
   28.5719  -27.0664  -19.4264 C   0  0  0  0  0  0  0  0  0  0  0  0
   29.2776  -27.3549  -20.7151 C   0  0  0  0  0  0  0  0  0  0  0  0
   30.4006  -28.2418  -20.4281 N   0  0  0  0  0  0  0  0  0  0  0  0
   27.3530  -24.3553  -16.3790 C   0  0  0  0  0  0  0  0  0  0  0  0
   26.6358  -24.4207  -15.3521 O   0  0  0  0  0  0  0  0  0  0  0  0
   26.5732  -15.5969  -14.7478 O   0  0  0  0  0  0  0  0  0  0  0  0
   27.0356  -16.8757  -15.0737 C   0  0  0  0  0  0  0  0  0  0  0  0
   27.3939  -17.7847  -14.1078 C   0  0  0  0  0  0  0  0  0  0  0  0
   27.8581  -19.0670  -14.4141 C   0  0  0  0  0  0  0  0  0  0  0  0
   27.9547  -19.4189  -15.7404 C   0  0  0  0  0  0  0  0  0  0  0  0
   28.4322  -20.7453  -16.1202 C   0  0  0  0  0  0  0  0  0  0  0  0
   27.4648  -21.8662  -15.8931 C   0  0  2  0  0  0  0  0  0  0  0  0
   27.8050  -23.0342  -16.7188 N   0  0  0  0  0  0  0  0  0  0  0  0
   26.0591  -21.5461  -16.1098 C   0  0  0  0  0  0  0  0  0  0  0  0
   25.4358  -21.7892  -17.1930 O   0  0  0  0  0  0  0  0  0  0  0  0
   27.5962  -18.5101  -16.7202 C   0  0  0  0  0  0  0  0  0  0  0  0
   27.1359  -17.2370  -16.3938 C   0  0  0  0  0  0  0  0  0  0  0  0
   22.6488  -23.8896  -17.0273 C   0  0  0  0  0  0  0  0  0  0  0  0
   23.2868  -22.5636  -16.8055 C   0  0  0  0  0  0  0  0  0  0  0  0
   23.2304  -22.0210  -15.4176 C   0  0  2  0  0  0  0  0  0  0  0  0
   21.7542  -21.9747  -15.0191 C   0  0  0  0  0  0  0  0  0  0  0  0
   23.8835  -20.6772  -15.2225 C   0  0  2  0  0  0  0  0  0  0  0  0
   25.3039  -20.9286  -15.0762 N   0  0  0  0  0  0  0  0  0  0  0  0
   23.2939  -19.9122  -14.1317 C   0  0  0  0  0  0  0  0  0  0  0  0
   23.8553  -19.6612  -12.8949 O   0  0  0  0  0  0  0  0  0  0  0  0
   22.1325  -19.4033  -14.3027 O   0  0  0  0  0  0  0  0  0  0  0  0
  2  1  1  1
  3  4  1  0
  3  2  1  0
  5  6  1  0
  5  4  1  0
  6  7  1  0
  8  9  2  0
  8  2  1  0
 10 11  1  0
 11 12  2  0
 12 13  1  0
 14 13  2  0
 14 15  1  0
 16 15  1  6
 16 17  1  0
 17  8  1  0
 18 16  1  0
 18 19  2  0
 20 14  1  0
 21 11  1  0
 21 20  2  0
 23 22  1  0
 24 23  1  0
 24 26  1  0
 24 25  1  6
 26 27  1  1
 27 18  1  0
 28 29  1  0
 28 26  1  0
 30 28  2  0
M  END
$$$$
