KYI.pdb
     RDKit          3D

 30 30  0  0  1  0  0  0  0  0999 V2000
   25.8061  -21.7865  -10.7936 N   0  0  0  0  0  0  0  0  0  0  0  0
   26.5880  -20.6676  -11.3213 C   0  0  1  0  0  0  0  0  0  0  0  0
   27.9589  -21.1245  -11.7228 C   0  0  0  0  0  0  0  0  0  0  0  0
   29.0186  -20.6722  -10.7800 C   0  0  0  0  0  0  0  0  0  0  0  0
   30.4025  -20.9754  -11.3679 C   0  0  0  0  0  0  0  0  0  0  0  0
   31.2771  -21.7329  -10.4177 C   0  0  0  0  0  0  0  0  0  0  0  0
   32.5141  -22.0736  -11.1135 N   0  0  0  0  0  0  0  0  0  0  0  0
   25.8340  -19.9950  -12.4149 C   0  0  0  0  0  0  0  0  0  0  0  0
   25.6620  -18.7549  -12.4905 O   0  0  0  0  0  0  0  0  0  0  0  0
   29.5344  -17.5109  -17.7641 O   0  0  0  0  0  0  0  0  0  0  0  0
   28.4579  -18.2758  -17.3039 C   0  0  0  0  0  0  0  0  0  0  0  0
   28.6289  -19.5505  -16.8207 C   0  0  0  0  0  0  0  0  0  0  0  0
   27.5656  -20.3300  -16.3567 C   0  0  0  0  0  0  0  0  0  0  0  0
   26.3029  -19.7856  -16.3912 C   0  0  0  0  0  0  0  0  0  0  0  0
   25.1541  -20.5528  -15.9187 C   0  0  0  0  0  0  0  0  0  0  0  0
   24.5716  -20.1005  -14.6148 C   0  0  2  0  0  0  0  0  0  0  0  0
   25.2412  -20.7547  -13.4810 N   0  0  0  0  0  0  0  0  0  0  0  0
   23.1331  -20.2828  -14.4641 C   0  0  0  0  0  0  0  0  0  0  0  0
   22.5983  -21.3342  -13.9850 O   0  0  0  0  0  0  0  0  0  0  0  0
   26.1209  -18.5025  -16.8762 C   0  0  0  0  0  0  0  0  0  0  0  0
   27.1940  -17.7422  -17.3340 C   0  0  0  0  0  0  0  0  0  0  0  0
   18.4702  -17.1608  -12.5329 C   0  0  0  0  0  0  0  0  0  0  0  0
   18.9071  -18.1314  -13.5729 C   0  0  0  0  0  0  0  0  0  0  0  0
   20.3753  -18.2351  -13.8125 C   0  0  2  0  0  0  0  0  0  0  0  0
   20.8244  -16.8960  -14.4003 C   0  0  0  0  0  0  0  0  0  0  0  0
   20.8070  -19.3807  -14.6909 C   0  0  2  0  0  0  0  0  0  0  0  0
   22.2410  -19.2499  -14.8607 N   0  0  0  0  0  0  0  0  0  0  0  0
   20.0589  -19.4527  -15.9390 C   0  0  0  0  0  0  0  0  0  0  0  0
   20.5360  -19.1947  -17.2093 O   0  0  0  0  0  0  0  0  0  0  0  0
   18.8251  -19.7880  -15.8913 O   0  0  0  0  0  0  0  0  0  0  0  0
  2  1  1  6
  3  4  1  0
  3  2  1  0
  5  6  1  0
  5  4  1  0
  6  7  1  0
  8  9  2  0
  8  2  1  0
 10 11  1  0
 11 12  2  0
 12 13  1  0
 14 13  2  0
 14 15  1  0
 16 15  1  6
 16 17  1  0
 17  8  1  0
 18 16  1  0
 18 19  2  0
 20 14  1  0
 21 11  1  0
 21 20  2  0
 23 22  1  0
 24 23  1  0
 24 26  1  0
 24 25  1  6
 26 27  1  6
 27 18  1  0
 28 29  1  0
 28 26  1  0
 30 28  2  0
M  END
$$$$
