CEV.pdb
     RDKit          3D

 23 22  0  0  1  0  0  0  0  0999 V2000
   14.7199  -11.3047  -15.3993 N   0  0  0  0  0  0  0  0  0  0  0  0
   15.5251  -11.7810  -16.4798 C   0  0  1  0  0  0  0  0  0  0  0  0
   14.6465  -12.0960  -17.6528 C   0  0  0  0  0  0  0  0  0  0  0  0
   13.6674  -13.5745  -17.2300 S   0  0  0  0  0  0  0  0  0  0  0  0
   16.6312  -10.8533  -16.8246 C   0  0  0  0  0  0  0  0  0  0  0  0
   17.4023  -11.1635  -17.7740 O   0  0  0  0  0  0  0  0  0  0  0  0
   16.8575   -9.6338  -16.1324 N   0  0  0  0  0  0  0  0  0  0  0  0
   17.9280   -8.7193  -16.4241 C   0  0  1  0  0  0  0  0  0  0  0  0
   17.4694   -7.2662  -16.2842 C   0  0  0  0  0  0  0  0  0  0  0  0
   16.6677   -6.8361  -17.4902 C   0  0  0  0  0  0  0  0  0  0  0  0
   16.2401   -5.4399  -17.3108 C   0  0  0  0  0  0  0  0  0  0  0  0
   15.3559   -5.1339  -16.4907 O   0  0  0  0  0  0  0  0  0  0  0  0
   19.0714   -8.8847  -15.4697 C   0  0  0  0  0  0  0  0  0  0  0  0
   18.8564   -8.9311  -14.2322 O   0  0  0  0  0  0  0  0  0  0  0  0
   16.8247   -4.4117  -18.0672 O   0  0  0  0  0  0  0  0  0  0  0  0
   21.9075  -11.5397  -15.9146 C   0  0  0  0  0  0  0  0  0  0  0  0
   22.5322  -10.2120  -15.5838 C   0  0  2  0  0  0  0  0  0  0  0  0
   23.5658  -10.4581  -14.4990 C   0  0  0  0  0  0  0  0  0  0  0  0
   21.5051   -9.2733  -14.9947 C   0  0  2  0  0  0  0  0  0  0  0  0
   20.4216   -8.9946  -15.9010 N   0  0  0  0  0  0  0  0  0  0  0  0
   22.1862   -8.0050  -14.6644 C   0  0  0  0  0  0  0  0  0  0  0  0
   23.0239   -7.9177  -13.7341 O   0  0  0  0  0  0  0  0  0  0  0  0
   21.9078   -6.8714  -15.3874 O   0  0  0  0  0  0  0  0  0  0  0  0
  2  3  1  0
  2  5  1  0
  2  1  1  1
  4  3  1  0
  5  6  2  0
  7  5  1  0
  7  8  1  0
  8 13  1  0
  9 10  1  0
  8  9  1  1
 10 11  1  0
 11 12  2  0
 13 20  1  0
 14 13  2  0
 15 11  1  0
 17 16  1  1
 17 18  1  0
 19 17  1  0
 19 20  1  6
 21 23  1  0
 21 19  1  0
 22 21  2  0
M  END
$$$$
