CEV.pdb
     RDKit          3D

 23 22  0  0  1  0  0  0  0  0999 V2000
   23.7807  -21.3851   -9.5725 N   0  0  0  0  0  0  0  0  0  0  0  0
   24.5682  -20.5013  -10.3734 C   0  0  1  0  0  0  0  0  0  0  0  0
   25.9975  -20.5664   -9.9265 C   0  0  0  0  0  0  0  0  0  0  0  0
   26.1710  -19.4874   -8.4673 S   0  0  0  0  0  0  0  0  0  0  0  0
   24.4104  -20.7500  -11.8282 C   0  0  0  0  0  0  0  0  0  0  0  0
   24.9177  -21.7965  -12.3178 O   0  0  0  0  0  0  0  0  0  0  0  0
   23.7140  -19.8615  -12.6902 N   0  0  0  0  0  0  0  0  0  0  0  0
   23.5343  -20.0709  -14.1013 C   0  0  1  0  0  0  0  0  0  0  0  0
   22.0509  -20.0744  -14.4769 C   0  0  0  0  0  0  0  0  0  0  0  0
   21.4328  -21.4279  -14.2167 C   0  0  0  0  0  0  0  0  0  0  0  0
   19.9935  -21.3650  -14.5148 C   0  0  0  0  0  0  0  0  0  0  0  0
   19.4868  -22.0634  -15.4111 O   0  0  0  0  0  0  0  0  0  0  0  0
   24.1611  -18.9737  -14.9069 C   0  0  0  0  0  0  0  0  0  0  0  0
   23.8568  -17.7751  -14.6817 O   0  0  0  0  0  0  0  0  0  0  0  0
   19.1511  -20.5081  -13.7885 O   0  0  0  0  0  0  0  0  0  0  0  0
   27.9210  -16.7926  -16.5677 C   0  0  0  0  0  0  0  0  0  0  0  0
   27.1441  -17.8539  -15.8378 C   0  0  2  0  0  0  0  0  0  0  0  0
   27.9807  -19.1208  -15.8609 C   0  0  0  0  0  0  0  0  0  0  0  0
   25.8612  -18.1718  -16.5701 C   0  0  2  0  0  0  0  0  0  0  0  0
   25.1064  -19.2230  -15.9391 N   0  0  0  0  0  0  0  0  0  0  0  0
   26.2141  -18.5969  -17.9399 C   0  0  0  0  0  0  0  0  0  0  0  0
   26.0113  -19.7651  -18.3513 O   0  0  0  0  0  0  0  0  0  0  0  0
   26.7842  -17.6993  -18.8085 O   0  0  0  0  0  0  0  0  0  0  0  0
  2  3  1  0
  2  5  1  0
  2  1  1  1
  4  3  1  0
  5  6  2  0
  7  5  1  0
  7  8  1  0
  8 13  1  0
  9 10  1  0
  8  9  1  1
 10 11  1  0
 11 12  2  0
 13 20  1  0
 14 13  2  0
 15 11  1  0
 17 16  1  6
 17 18  1  0
 19 17  1  0
 19 20  1  1
 21 23  1  0
 21 19  1  0
 22 21  2  0
M  END
$$$$
