CEV.pdb
     RDKit          3D

 23 22  0  0  1  0  0  0  0  0999 V2000
   13.3201  -11.4328  -11.6210 N   0  0  0  0  0  0  0  0  0  0  0  0
   13.9889  -10.1783  -11.4736 C   0  0  1  0  0  0  0  0  0  0  0  0
   14.3852   -9.9919  -10.0400 C   0  0  0  0  0  0  0  0  0  0  0  0
   12.8651   -9.6890   -9.0804 S   0  0  0  0  0  0  0  0  0  0  0  0
   15.1307  -10.0226  -12.4091 C   0  0  0  0  0  0  0  0  0  0  0  0
   15.8141  -11.0430  -12.6989 O   0  0  0  0  0  0  0  0  0  0  0  0
   15.4856   -8.7761  -12.9903 N   0  0  0  0  0  0  0  0  0  0  0  0
   16.5488   -8.5951  -13.9412 C   0  0  1  0  0  0  0  0  0  0  0  0
   16.0617   -7.8415  -15.1807 C   0  0  0  0  0  0  0  0  0  0  0  0
   17.1520   -7.7573  -16.2228 C   0  0  0  0  0  0  0  0  0  0  0  0
   16.6209   -7.0914  -17.4224 C   0  0  0  0  0  0  0  0  0  0  0  0
   15.8174   -7.6653  -18.1793 O   0  0  0  0  0  0  0  0  0  0  0  0
   17.6656   -7.7742  -13.3718 C   0  0  0  0  0  0  0  0  0  0  0  0
   17.4168   -6.8607  -12.5451 O   0  0  0  0  0  0  0  0  0  0  0  0
   17.0117   -5.7816  -17.7434 O   0  0  0  0  0  0  0  0  0  0  0  0
   22.4739   -7.2155  -12.3983 C   0  0  0  0  0  0  0  0  0  0  0  0
   21.3798   -8.0392  -13.0204 C   0  0  2  0  0  0  0  0  0  0  0  0
   21.8096   -8.3600  -14.4410 C   0  0  0  0  0  0  0  0  0  0  0  0
   20.1048   -7.2355  -13.1276 C   0  0  2  0  0  0  0  0  0  0  0  0
   19.0271   -7.9792  -13.7262 N   0  0  0  0  0  0  0  0  0  0  0  0
   20.3848   -6.0498  -13.9626 C   0  0  0  0  0  0  0  0  0  0  0  0
   19.9822   -5.9554  -15.1475 O   0  0  0  0  0  0  0  0  0  0  0  0
   21.1082   -5.0042  -13.4442 O   0  0  0  0  0  0  0  0  0  0  0  0
  2  3  1  0
  2  5  1  0
  2  1  1  1
  4  3  1  0
  5  6  2  0
  7  5  1  0
  7  8  1  0
  8 13  1  0
  9 10  1  0
  8  9  1  6
 10 11  1  0
 11 12  2  0
 13 20  1  0
 14 13  2  0
 15 11  1  0
 17 16  1  6
 17 18  1  0
 19 17  1  0
 19 20  1  6
 21 23  1  0
 21 19  1  0
 22 21  2  0
M  END
$$$$
