CEV.pdb
     RDKit          3D

 23 22  0  0  1  0  0  0  0  0999 V2000
   17.2314  -14.2662  -18.3438 N   0  0  0  0  0  0  0  0  0  0  0  0
   17.2117  -13.4807  -17.1500 C   0  0  1  0  0  0  0  0  0  0  0  0
   17.5834  -14.3430  -15.9816 C   0  0  0  0  0  0  0  0  0  0  0  0
   16.0971  -15.2753  -15.4866 S   0  0  0  0  0  0  0  0  0  0  0  0
   18.0500  -12.2600  -17.2515 C   0  0  0  0  0  0  0  0  0  0  0  0
   19.1286  -12.3238  -17.9033 O   0  0  0  0  0  0  0  0  0  0  0  0
   17.6899  -11.0260  -16.6472 N   0  0  0  0  0  0  0  0  0  0  0  0
   18.4077   -9.7930  -16.8252 C   0  0  1  0  0  0  0  0  0  0  0  0
   17.4486   -8.6116  -16.9866 C   0  0  0  0  0  0  0  0  0  0  0  0
   18.1947   -7.3650  -17.4006 C   0  0  0  0  0  0  0  0  0  0  0  0
   17.2357   -6.2607  -17.5599 C   0  0  0  0  0  0  0  0  0  0  0  0
   16.3627   -6.2842  -18.4460 O   0  0  0  0  0  0  0  0  0  0  0  0
   19.2598   -9.4729  -15.6348 C   0  0  0  0  0  0  0  0  0  0  0  0
   18.7921   -9.5964  -14.4747 O   0  0  0  0  0  0  0  0  0  0  0  0
   17.2838   -5.1455  -16.7083 O   0  0  0  0  0  0  0  0  0  0  0  0
   23.4126   -9.2989  -16.0716 C   0  0  0  0  0  0  0  0  0  0  0  0
   22.7725   -9.5868  -14.7411 C   0  0  2  0  0  0  0  0  0  0  0  0
   22.4354  -11.0671  -14.7142 C   0  0  0  0  0  0  0  0  0  0  0  0
   21.4629   -8.8445  -14.6096 C   0  0  2  0  0  0  0  0  0  0  0  0
   20.6041   -9.0251  -15.7511 N   0  0  0  0  0  0  0  0  0  0  0  0
   21.7687   -7.4065  -14.4682 C   0  0  0  0  0  0  0  0  0  0  0  0
   22.3757   -6.9462  -13.4708 O   0  0  0  0  0  0  0  0  0  0  0  0
   21.3848   -6.5264  -15.4496 O   0  0  0  0  0  0  0  0  0  0  0  0
  2  3  1  0
  2  5  1  0
  2  1  1  6
  4  3  1  0
  5  6  2  0
  7  5  1  0
  7  8  1  0
  8 13  1  0
  9 10  1  0
  8  9  1  1
 10 11  1  0
 11 12  2  0
 13 20  1  0
 14 13  2  0
 15 11  1  0
 17 16  1  6
 17 18  1  0
 19 17  1  0
 19 20  1  6
 21 23  1  0
 21 19  1  0
 22 21  2  0
M  END
$$$$
