CEV.pdb
     RDKit          3D

 23 22  0  0  1  0  0  0  0  0999 V2000
   17.5371  -11.0038  -16.8532 N   0  0  0  0  0  0  0  0  0  0  0  0
   18.6184  -11.4581  -16.0364 C   0  0  1  0  0  0  0  0  0  0  0  0
   19.0396  -12.8250  -16.4851 C   0  0  0  0  0  0  0  0  0  0  0  0
   17.7000  -13.9852  -16.0579 S   0  0  0  0  0  0  0  0  0  0  0  0
   19.7477  -10.4961  -15.9909 C   0  0  0  0  0  0  0  0  0  0  0  0
   20.7668  -10.7969  -15.3102 O   0  0  0  0  0  0  0  0  0  0  0  0
   19.7296   -9.2541  -16.6798 N   0  0  0  0  0  0  0  0  0  0  0  0
   20.7643   -8.2597  -16.5916 C   0  0  1  0  0  0  0  0  0  0  0  0
   21.0809   -7.6655  -17.9657 C   0  0  0  0  0  0  0  0  0  0  0  0
   21.8188   -8.6634  -18.8269 C   0  0  0  0  0  0  0  0  0  0  0  0
   22.1270   -8.0436  -20.1251 C   0  0  0  0  0  0  0  0  0  0  0  0
   22.5759   -6.8857  -20.1994 O   0  0  0  0  0  0  0  0  0  0  0  0
   20.3502   -7.1064  -15.7290 C   0  0  0  0  0  0  0  0  0  0  0  0
   19.1869   -6.6392  -15.8191 O   0  0  0  0  0  0  0  0  0  0  0  0
   21.9201   -8.7506  -21.3204 O   0  0  0  0  0  0  0  0  0  0  0  0
   22.1655   -6.4014  -12.0531 C   0  0  0  0  0  0  0  0  0  0  0  0
   20.8052   -5.8933  -12.4454 C   0  0  2  0  0  0  0  0  0  0  0  0
   19.8407   -7.0614  -12.3418 C   0  0  0  0  0  0  0  0  0  0  0  0
   20.7979   -5.4560  -13.8918 C   0  0  2  0  0  0  0  0  0  0  0  0
   21.2262   -6.4968  -14.7896 N   0  0  0  0  0  0  0  0  0  0  0  0
   21.7172   -4.3075  -14.0231 C   0  0  0  0  0  0  0  0  0  0  0  0
   22.8069   -4.3895  -14.6403 O   0  0  0  0  0  0  0  0  0  0  0  0
   21.3875   -3.1001  -13.4585 O   0  0  0  0  0  0  0  0  0  0  0  0
  2  3  1  0
  2  5  1  0
  2  1  1  6
  4  3  1  0
  5  6  2  0
  7  5  1  0
  7  8  1  0
  8 13  1  0
  9 10  1  0
  8  9  1  6
 10 11  1  0
 11 12  2  0
 13 20  1  0
 14 13  2  0
 15 11  1  0
 17 16  1  6
 17 18  1  0
 19 17  1  0
 19 20  1  6
 21 23  1  0
 21 19  1  0
 22 21  2  0
M  END
$$$$
