CEV.pdb
     RDKit          3D

 23 22  0  0  1  0  0  0  0  0999 V2000
   26.6972  -21.2892  -11.8216 N   0  0  0  0  0  0  0  0  0  0  0  0
   26.3875  -20.4020  -12.8984 C   0  0  1  0  0  0  0  0  0  0  0  0
   27.5908  -20.2508  -13.7794 C   0  0  0  0  0  0  0  0  0  0  0  0
   28.6944  -19.0246  -13.0038 S   0  0  0  0  0  0  0  0  0  0  0  0
   25.1746  -20.8115  -13.6495 C   0  0  0  0  0  0  0  0  0  0  0  0
   24.8073  -22.0171  -13.5874 O   0  0  0  0  0  0  0  0  0  0  0  0
   24.4117  -19.9054  -14.4334 N   0  0  0  0  0  0  0  0  0  0  0  0
   23.1552  -20.2255  -15.0547 C   0  0  1  0  0  0  0  0  0  0  0  0
   22.0843  -20.5426  -14.0087 C   0  0  0  0  0  0  0  0  0  0  0  0
   20.7490  -20.8004  -14.6661 C   0  0  0  0  0  0  0  0  0  0  0  0
   19.7767  -21.2047  -13.6386 C   0  0  0  0  0  0  0  0  0  0  0  0
   18.7496  -20.5372  -13.4209 O   0  0  0  0  0  0  0  0  0  0  0  0
   22.6240  -19.0736  -15.8526 C   0  0  0  0  0  0  0  0  0  0  0  0
   22.4318  -17.9611  -15.3002 O   0  0  0  0  0  0  0  0  0  0  0  0
   19.9873  -22.3628  -12.8733 O   0  0  0  0  0  0  0  0  0  0  0  0
   22.7766  -16.7960  -20.1281 C   0  0  0  0  0  0  0  0  0  0  0  0
   23.0224  -18.0191  -19.2879 C   0  0  2  0  0  0  0  0  0  0  0  0
   22.6274  -19.2253  -20.1214 C   0  0  0  0  0  0  0  0  0  0  0  0
   22.1215  -18.0205  -18.0748 C   0  0  2  0  0  0  0  0  0  0  0  0
   22.3181  -19.1750  -17.2373 N   0  0  0  0  0  0  0  0  0  0  0  0
   20.7226  -18.0101  -18.5486 C   0  0  0  0  0  0  0  0  0  0  0  0
   19.9764  -19.0147  -18.4537 O   0  0  0  0  0  0  0  0  0  0  0  0
   20.2013  -16.8732  -19.1150 O   0  0  0  0  0  0  0  0  0  0  0  0
  2  3  1  0
  2  5  1  0
  2  1  1  1
  4  3  1  0
  5  6  2  0
  7  5  1  0
  7  8  1  0
  8 13  1  0
  9 10  1  0
  8  9  1  1
 10 11  1  0
 11 12  2  0
 13 20  1  0
 14 13  2  0
 15 11  1  0
 17 16  1  6
 17 18  1  0
 19 17  1  0
 19 20  1  6
 21 23  1  0
 21 19  1  0
 22 21  2  0
M  END
$$$$
