CEV.pdb
     RDKit          3D

 23 22  0  0  1  0  0  0  0  0999 V2000
   24.3984  -12.5265  -18.6443 N   0  0  0  0  0  0  0  0  0  0  0  0
   24.3530  -11.8123  -17.4071 C   0  0  1  0  0  0  0  0  0  0  0  0
   25.7495  -11.4875  -16.9695 C   0  0  0  0  0  0  0  0  0  0  0  0
   26.4905  -13.0144  -16.3043 S   0  0  0  0  0  0  0  0  0  0  0  0
   23.4776  -10.6152  -17.4666 C   0  0  0  0  0  0  0  0  0  0  0  0
   23.5967   -9.8314  -18.4483 O   0  0  0  0  0  0  0  0  0  0  0  0
   22.5138  -10.3155  -16.4672 N   0  0  0  0  0  0  0  0  0  0  0  0
   21.5898   -9.2158  -16.5318 C   0  0  1  0  0  0  0  0  0  0  0  0
   20.1935   -9.6369  -16.0688 C   0  0  0  0  0  0  0  0  0  0  0  0
   19.1880   -8.5384  -16.3222 C   0  0  0  0  0  0  0  0  0  0  0  0
   17.8698   -8.9701  -15.8319 C   0  0  0  0  0  0  0  0  0  0  0  0
   16.8606   -8.2565  -15.9743 O   0  0  0  0  0  0  0  0  0  0  0  0
   22.0028   -8.0934  -15.6287 C   0  0  0  0  0  0  0  0  0  0  0  0
   22.5352   -8.3431  -14.5179 O   0  0  0  0  0  0  0  0  0  0  0  0
   17.7188  -10.2077  -15.1863 O   0  0  0  0  0  0  0  0  0  0  0  0
   23.2508   -3.3282  -15.1811 C   0  0  0  0  0  0  0  0  0  0  0  0
   22.7701   -4.4613  -16.0458 C   0  0  2  0  0  0  0  0  0  0  0  0
   21.5020   -3.9934  -16.7378 C   0  0  0  0  0  0  0  0  0  0  0  0
   22.3838   -5.6505  -15.1974 C   0  0  2  0  0  0  0  0  0  0  0  0
   21.8194   -6.7257  -15.9708 N   0  0  0  0  0  0  0  0  0  0  0  0
   21.3816   -5.1979  -14.2113 C   0  0  0  0  0  0  0  0  0  0  0  0
   20.1572   -5.4409  -14.3416 O   0  0  0  0  0  0  0  0  0  0  0  0
   21.7818   -4.4857  -13.1077 O   0  0  0  0  0  0  0  0  0  0  0  0
  2  3  1  0
  2  5  1  0
  2  1  1  6
  4  3  1  0
  5  6  2  0
  7  5  1  0
  7  8  1  0
  8 13  1  0
  9 10  1  0
  8  9  1  1
 10 11  1  0
 11 12  2  0
 13 20  1  0
 14 13  2  0
 15 11  1  0
 17 16  1  1
 17 18  1  0
 19 17  1  0
 19 20  1  6
 21 23  1  0
 21 19  1  0
 22 21  2  0
M  END
$$$$
