PPN.pdb
     RDKit          3D

 23 24  0  0  1  0  0  0  0  0999 V2000
   27.4973  -18.2898  -16.7976 N   0  0  0  0  0  0  0  0  0  0  0  0
   27.1222  -16.8689  -16.8951 C   0  0  0  0  0  0  0  0  0  0  0  0
   26.2833  -16.7435  -15.6448 C   0  0  0  0  0  0  0  0  0  0  0  0
   27.1332  -17.4474  -14.6148 C   0  0  0  0  0  0  0  0  0  0  0  0
   27.8980  -18.4559  -15.4124 C   0  0  1  0  0  0  0  0  0  0  0  0
   27.6014  -19.8130  -14.8936 C   0  0  0  0  0  0  0  0  0  0  0  0
   27.0248  -20.6303  -15.6761 O   0  0  0  0  0  0  0  0  0  0  0  0
   27.9540  -20.1764  -13.5699 N   0  0  0  0  0  0  0  0  0  0  0  0
   28.4361  -19.2746  -12.5611 C   0  0  0  0  0  0  0  0  0  0  0  0
   29.1860  -20.1279  -11.5549 C   0  0  0  0  0  0  0  0  0  0  0  0
   28.9860  -21.5742  -11.9834 C   0  0  0  0  0  0  0  0  0  0  0  0
   27.8897  -21.5144  -13.0293 C   0  0  1  0  0  0  0  0  0  0  0  0
   26.5585  -21.7971  -12.4387 C   0  0  0  0  0  0  0  0  0  0  0  0
   26.5059  -22.5640  -11.4360 O   0  0  0  0  0  0  0  0  0  0  0  0
   21.9554  -20.9241  -10.4245 N   0  0  0  0  0  0  0  0  0  0  0  0
   23.2075  -20.4534   -9.9695 C   0  0  0  0  0  0  0  0  0  0  0  0
   23.2254  -19.9182   -8.8327 O   0  0  0  0  0  0  0  0  0  0  0  0
   24.4543  -20.5647  -10.7572 C   0  0  0  0  0  0  0  0  0  0  0  0
   24.1742  -21.2080  -12.0826 C   0  0  2  0  0  0  0  0  0  0  0  0
   25.3545  -21.2697  -12.9194 N   0  0  0  0  0  0  0  0  0  0  0  0
   23.1410  -20.4756  -12.8208 C   0  0  0  0  0  0  0  0  0  0  0  0
   23.4548  -19.5356  -13.5698 O   0  0  0  0  0  0  0  0  0  0  0  0
   21.8142  -20.8163  -12.6959 O   0  0  0  0  0  0  0  0  0  0  0  0
  1  5  1  0
  1  2  1  0
  2  3  1  0
  4  3  1  0
  5  4  1  0
  5  6  1  1
  7  6  2  0
  8  6  1  0
  8 12  1  0
  9 10  1  0
  9  8  1  0
 10 11  1  0
 11 12  1  0
 12 13  1  1
 13 14  2  0
 16 15  1  0
 17 16  2  0
 18 16  1  0
 19 18  1  1
 20 13  1  0
 20 19  1  0
 21 19  1  0
 21 23  1  0
 22 21  2  0
M  END
$$$$
