PPN.pdb
     RDKit          3D

 23 24  0  0  1  0  0  0  0  0999 V2000
   25.9971  -17.7173  -14.6107 N   0  0  0  0  0  0  0  0  0  0  0  0
   26.7230  -16.4562  -14.8390 C   0  0  0  0  0  0  0  0  0  0  0  0
   28.0995  -17.0071  -15.1299 C   0  0  0  0  0  0  0  0  0  0  0  0
   27.7994  -18.1336  -16.0889 C   0  0  0  0  0  0  0  0  0  0  0  0
   26.4226  -18.5734  -15.7030 C   0  0  1  0  0  0  0  0  0  0  0  0
   26.4582  -20.0059  -15.3218 C   0  0  0  0  0  0  0  0  0  0  0  0
   26.7554  -20.8489  -16.2240 O   0  0  0  0  0  0  0  0  0  0  0  0
   26.1706  -20.4105  -13.9943 N   0  0  0  0  0  0  0  0  0  0  0  0
   25.8915  -19.5254  -12.8980 C   0  0  0  0  0  0  0  0  0  0  0  0
   26.1965  -20.3087  -11.6344 C   0  0  0  0  0  0  0  0  0  0  0  0
   26.5353  -21.7245  -12.0770 C   0  0  0  0  0  0  0  0  0  0  0  0
   26.1194  -21.7788  -13.5342 C   0  0  1  0  0  0  0  0  0  0  0  0
   24.7605  -22.3530  -13.6910 C   0  0  0  0  0  0  0  0  0  0  0  0
   24.4222  -23.2940  -12.9187 O   0  0  0  0  0  0  0  0  0  0  0  0
   19.7231  -21.6673  -13.6375 N   0  0  0  0  0  0  0  0  0  0  0  0
   20.6861  -21.0571  -12.8027 C   0  0  0  0  0  0  0  0  0  0  0  0
   20.2476  -20.4401  -11.7995 O   0  0  0  0  0  0  0  0  0  0  0  0
   22.1413  -21.1170  -13.0595 C   0  0  0  0  0  0  0  0  0  0  0  0
   22.4128  -21.8653  -14.3305 C   0  0  2  0  0  0  0  0  0  0  0  0
   23.8265  -21.9210  -14.6395 N   0  0  0  0  0  0  0  0  0  0  0  0
   21.7309  -21.2431  -15.4692 C   0  0  0  0  0  0  0  0  0  0  0  0
   22.2478  -20.2788  -16.0575 O   0  0  0  0  0  0  0  0  0  0  0  0
   20.5134  -21.7152  -15.9018 O   0  0  0  0  0  0  0  0  0  0  0  0
  1  5  1  0
  1  2  1  0
  2  3  1  0
  4  3  1  0
  5  4  1  0
  5  6  1  1
  7  6  2  0
  8  6  1  0
  8 12  1  0
  9 10  1  0
  9  8  1  0
 10 11  1  0
 11 12  1  0
 12 13  1  1
 13 14  2  0
 16 15  1  0
 17 16  2  0
 18 16  1  0
 19 18  1  1
 20 13  1  0
 20 19  1  0
 21 19  1  0
 21 23  1  0
 22 21  2  0
M  END
$$$$
