PPN.pdb
     RDKit          3D

 23 24  0  0  1  0  0  0  0  0999 V2000
   28.3128  -19.8946  -15.7437 N   0  0  0  0  0  0  0  0  0  0  0  0
   28.6201  -18.5377  -16.2273 C   0  0  0  0  0  0  0  0  0  0  0  0
   27.3945  -17.8088  -15.7279 C   0  0  0  0  0  0  0  0  0  0  0  0
   27.2683  -18.3224  -14.3141 C   0  0  0  0  0  0  0  0  0  0  0  0
   27.8689  -19.6911  -14.3767 C   0  0  1  0  0  0  0  0  0  0  0  0
   26.8552  -20.6873  -13.9539 C   0  0  0  0  0  0  0  0  0  0  0  0
   26.6472  -21.6784  -14.7202 O   0  0  0  0  0  0  0  0  0  0  0  0
   26.1494  -20.5311  -12.7349 N   0  0  0  0  0  0  0  0  0  0  0  0
   26.3294  -19.4531  -11.8028 C   0  0  0  0  0  0  0  0  0  0  0  0
   25.8261  -19.9628  -10.4649 C   0  0  0  0  0  0  0  0  0  0  0  0
   25.2315  -21.3391  -10.7249 C   0  0  0  0  0  0  0  0  0  0  0  0
   25.1411  -21.4368  -12.2354 C   0  0  1  0  0  0  0  0  0  0  0  0
   23.7901  -21.0674  -12.7245 C   0  0  0  0  0  0  0  0  0  0  0  0
   23.3259  -19.9413  -12.3887 O   0  0  0  0  0  0  0  0  0  0  0  0
   18.8401  -22.1352  -12.7666 N   0  0  0  0  0  0  0  0  0  0  0  0
   19.7398  -21.9464  -11.6936 C   0  0  0  0  0  0  0  0  0  0  0  0
   19.2356  -21.8834  -10.5442 O   0  0  0  0  0  0  0  0  0  0  0  0
   21.2031  -21.8245  -11.8699 C   0  0  0  0  0  0  0  0  0  0  0  0
   21.5674  -22.0005  -13.3140 C   0  0  2  0  0  0  0  0  0  0  0  0
   22.9940  -21.8850  -13.5347 N   0  0  0  0  0  0  0  0  0  0  0  0
   20.9030  -21.0006  -14.1551 C   0  0  0  0  0  0  0  0  0  0  0  0
   21.4294  -19.8912  -14.3427 O   0  0  0  0  0  0  0  0  0  0  0  0
   19.6916  -21.2741  -14.7467 O   0  0  0  0  0  0  0  0  0  0  0  0
  1  5  1  0
  1  2  1  0
  2  3  1  0
  4  3  1  0
  5  4  1  0
  5  6  1  6
  7  6  2  0
  8  6  1  0
  8 12  1  0
  9 10  1  0
  9  8  1  0
 10 11  1  0
 11 12  1  0
 12 13  1  6
 13 14  2  0
 16 15  1  0
 17 16  2  0
 18 16  1  0
 19 18  1  1
 20 13  1  0
 20 19  1  0
 21 19  1  0
 21 23  1  0
 22 21  2  0
M  END
$$$$
