PPN.pdb
     RDKit          3D

 23 24  0  0  1  0  0  0  0  0999 V2000
   27.1384  -19.2983  -13.9228 N   0  0  0  0  0  0  0  0  0  0  0  0
   28.4371  -18.9811  -14.5408 C   0  0  0  0  0  0  0  0  0  0  0  0
   29.0847  -20.3448  -14.4799 C   0  0  0  0  0  0  0  0  0  0  0  0
   27.9793  -21.2484  -14.9701 C   0  0  0  0  0  0  0  0  0  0  0  0
   26.7287  -20.5302  -14.5722 C   0  0  1  0  0  0  0  0  0  0  0  0
   25.9282  -21.4039  -13.6808 C   0  0  0  0  0  0  0  0  0  0  0  0
   25.5877  -22.5444  -14.1238 O   0  0  0  0  0  0  0  0  0  0  0  0
   25.5620  -20.9732  -12.3813 N   0  0  0  0  0  0  0  0  0  0  0  0
   26.2629  -19.9897  -11.6036 C   0  0  0  0  0  0  0  0  0  0  0  0
   25.8875  -20.2495  -10.1562 C   0  0  0  0  0  0  0  0  0  0  0  0
   24.8346  -21.3479  -10.1753 C   0  0  0  0  0  0  0  0  0  0  0  0
   24.4280  -21.4618  -11.6316 C   0  0  1  0  0  0  0  0  0  0  0  0
   23.2065  -20.6702  -11.9188 C   0  0  0  0  0  0  0  0  0  0  0  0
   23.2400  -19.4271  -11.6955 O   0  0  0  0  0  0  0  0  0  0  0  0
   23.2230  -20.7327  -15.7415 N   0  0  0  0  0  0  0  0  0  0  0  0
   21.8977  -20.5203  -15.2997 C   0  0  0  0  0  0  0  0  0  0  0  0
   20.9984  -21.1650  -15.8955 O   0  0  0  0  0  0  0  0  0  0  0  0
   21.5445  -19.5978  -14.1991 C   0  0  0  0  0  0  0  0  0  0  0  0
   21.0080  -20.3680  -13.0295 C   0  0  2  0  0  0  0  0  0  0  0  0
   22.0172  -21.2101  -12.4215 N   0  0  0  0  0  0  0  0  0  0  0  0
   19.8895  -21.2278  -13.4276 C   0  0  0  0  0  0  0  0  0  0  0  0
   18.7956  -20.7278  -13.7383 O   0  0  0  0  0  0  0  0  0  0  0  0
   20.0333  -22.5954  -13.4629 O   0  0  0  0  0  0  0  0  0  0  0  0
  1  5  1  0
  1  2  1  0
  2  3  1  0
  4  3  1  0
  5  4  1  0
  5  6  1  1
  7  6  2  0
  8  6  1  0
  8 12  1  0
  9 10  1  0
  9  8  1  0
 10 11  1  0
 11 12  1  0
 12 13  1  1
 13 14  2  0
 16 15  1  0
 17 16  2  0
 18 16  1  0
 19 18  1  6
 20 13  1  0
 20 19  1  0
 21 19  1  0
 21 23  1  0
 22 21  2  0
M  END
$$$$
