PPN.pdb
     RDKit          3D

 23 24  0  0  1  0  0  0  0  0999 V2000
   28.6566  -20.5792  -14.8212 N   0  0  0  0  0  0  0  0  0  0  0  0
   28.9905  -19.3623  -15.5809 C   0  0  0  0  0  0  0  0  0  0  0  0
   27.6697  -18.6349  -15.4844 C   0  0  0  0  0  0  0  0  0  0  0  0
   27.3203  -18.7941  -14.0246 C   0  0  0  0  0  0  0  0  0  0  0  0
   27.9751  -20.0829  -13.6395 C   0  0  1  0  0  0  0  0  0  0  0  0
   26.9427  -21.0236  -13.1416 C   0  0  0  0  0  0  0  0  0  0  0  0
   26.8661  -22.1631  -13.6971 O   0  0  0  0  0  0  0  0  0  0  0  0
   26.0771  -20.6556  -12.0814 N   0  0  0  0  0  0  0  0  0  0  0  0
   26.2177  -19.4838  -11.2627 C   0  0  0  0  0  0  0  0  0  0  0  0
   25.4672  -19.7746   -9.9761 C   0  0  0  0  0  0  0  0  0  0  0  0
   24.7864  -21.1216  -10.1702 C   0  0  0  0  0  0  0  0  0  0  0  0
   24.9196  -21.4064  -11.6536 C   0  0  1  0  0  0  0  0  0  0  0  0
   23.7028  -20.9976  -12.3974 C   0  0  0  0  0  0  0  0  0  0  0  0
   23.6059  -19.7902  -12.7569 O   0  0  0  0  0  0  0  0  0  0  0  0
   23.4607  -24.2879  -14.9657 N   0  0  0  0  0  0  0  0  0  0  0  0
   22.8624  -23.0470  -15.2799 C   0  0  0  0  0  0  0  0  0  0  0  0
   23.5160  -22.2856  -16.0365 O   0  0  0  0  0  0  0  0  0  0  0  0
   21.5402  -22.6276  -14.7671 C   0  0  0  0  0  0  0  0  0  0  0  0
   21.6996  -21.5241  -13.7642 C   0  0  2  0  0  0  0  0  0  0  0  0
   22.6530  -21.8620  -12.7280 N   0  0  0  0  0  0  0  0  0  0  0  0
   20.4245  -21.2101  -13.1128 C   0  0  0  0  0  0  0  0  0  0  0  0
   20.2889  -21.3774  -11.8894 O   0  0  0  0  0  0  0  0  0  0  0  0
   19.3631  -20.7278  -13.8430 O   0  0  0  0  0  0  0  0  0  0  0  0
  1  5  1  0
  1  2  1  0
  2  3  1  0
  4  3  1  0
  5  4  1  0
  5  6  1  6
  7  6  2  0
  8  6  1  0
  8 12  1  0
  9 10  1  0
  9  8  1  0
 10 11  1  0
 11 12  1  0
 12 13  1  6
 13 14  2  0
 16 15  1  0
 17 16  2  0
 18 16  1  0
 19 18  1  6
 20 13  1  0
 20 19  1  0
 21 19  1  0
 21 23  1  0
 22 21  2  0
M  END
$$$$
