PPN.pdb
     RDKit          3D

 23 24  0  0  1  0  0  0  0  0999 V2000
   28.1400  -20.7877  -15.3747 N   0  0  0  0  0  0  0  0  0  0  0  0
   28.8053  -19.6015  -15.9399 C   0  0  0  0  0  0  0  0  0  0  0  0
   27.8232  -18.5352  -15.5142 C   0  0  0  0  0  0  0  0  0  0  0  0
   27.5599  -18.8971  -14.0725 C   0  0  0  0  0  0  0  0  0  0  0  0
   27.7659  -20.3783  -14.0332 C   0  0  1  0  0  0  0  0  0  0  0  0
   26.5190  -21.0310  -13.5665 C   0  0  0  0  0  0  0  0  0  0  0  0
   25.9913  -21.9036  -14.3234 O   0  0  0  0  0  0  0  0  0  0  0  0
   25.9443  -20.6874  -12.3174 N   0  0  0  0  0  0  0  0  0  0  0  0
   26.5464  -19.8319  -11.3330 C   0  0  0  0  0  0  0  0  0  0  0  0
   25.8939  -20.1862  -10.0094 C   0  0  0  0  0  0  0  0  0  0  0  0
   24.7988  -21.1943  -10.3258 C   0  0  0  0  0  0  0  0  0  0  0  0
   24.6636  -21.1499  -11.8354 C   0  0  1  0  0  0  0  0  0  0  0  0
   23.5665  -20.2445  -12.2569 C   0  0  0  0  0  0  0  0  0  0  0  0
   23.8669  -19.0613  -12.5827 O   0  0  0  0  0  0  0  0  0  0  0  0
   20.9198  -18.8055  -16.2448 N   0  0  0  0  0  0  0  0  0  0  0  0
   21.1272  -20.1503  -15.8641 C   0  0  0  0  0  0  0  0  0  0  0  0
   20.5069  -21.0215  -16.5240 O   0  0  0  0  0  0  0  0  0  0  0  0
   22.0177  -20.5542  -14.7545 C   0  0  0  0  0  0  0  0  0  0  0  0
   21.3827  -20.2283  -13.4356 C   0  0  2  0  0  0  0  0  0  0  0  0
   22.2181  -20.6146  -12.3176 N   0  0  0  0  0  0  0  0  0  0  0  0
   20.0925  -20.9076  -13.2848 C   0  0  0  0  0  0  0  0  0  0  0  0
   20.0387  -22.1483  -13.2517 O   0  0  0  0  0  0  0  0  0  0  0  0
   18.9268  -20.1851  -13.1786 O   0  0  0  0  0  0  0  0  0  0  0  0
  1  5  1  0
  1  2  1  0
  2  3  1  0
  4  3  1  0
  5  4  1  0
  5  6  1  6
  7  6  2  0
  8  6  1  0
  8 12  1  0
  9 10  1  0
  9  8  1  0
 10 11  1  0
 11 12  1  0
 12 13  1  1
 13 14  2  0
 16 15  1  0
 17 16  2  0
 18 16  1  0
 19 18  1  6
 20 13  1  0
 20 19  1  0
 21 19  1  0
 21 23  1  0
 22 21  2  0
M  END
$$$$
