PPN.pdb
     RDKit          3D

 23 24  0  0  1  0  0  0  0  0999 V2000
   28.2211  -20.1943  -15.7108 N   0  0  0  0  0  0  0  0  0  0  0  0
   28.6731  -18.9279  -16.3119 C   0  0  0  0  0  0  0  0  0  0  0  0
   27.5002  -18.0458  -15.9526 C   0  0  0  0  0  0  0  0  0  0  0  0
   27.2669  -18.3952  -14.5027 C   0  0  0  0  0  0  0  0  0  0  0  0
   27.7402  -19.8103  -14.3961 C   0  0  1  0  0  0  0  0  0  0  0  0
   26.6216  -20.6638  -13.9283 C   0  0  0  0  0  0  0  0  0  0  0  0
   26.1595  -21.5262  -14.7380 O   0  0  0  0  0  0  0  0  0  0  0  0
   26.0941  -20.5159  -12.6212 N   0  0  0  0  0  0  0  0  0  0  0  0
   26.5662  -19.5840  -11.6353 C   0  0  0  0  0  0  0  0  0  0  0  0
   26.1306  -20.1352  -10.2901 C   0  0  0  0  0  0  0  0  0  0  0  0
   25.2741  -21.3583  -10.5831 C   0  0  0  0  0  0  0  0  0  0  0  0
   25.0014  -21.2853  -12.0730 C   0  0  1  0  0  0  0  0  0  0  0  0
   23.6928  -20.6462  -12.3558 C   0  0  0  0  0  0  0  0  0  0  0  0
   23.6607  -19.3886  -12.4730 O   0  0  0  0  0  0  0  0  0  0  0  0
   19.1381  -21.1679  -15.9360 N   0  0  0  0  0  0  0  0  0  0  0  0
   20.1675  -20.4458  -15.2916 C   0  0  0  0  0  0  0  0  0  0  0  0
   20.0586  -19.1938  -15.2923 O   0  0  0  0  0  0  0  0  0  0  0  0
   21.3281  -21.0895  -14.6392 C   0  0  0  0  0  0  0  0  0  0  0  0
   21.3538  -20.7529  -13.1780 C   0  0  2  0  0  0  0  0  0  0  0  0
   22.4890  -21.3450  -12.5015 N   0  0  0  0  0  0  0  0  0  0  0  0
   20.1388  -21.2199  -12.5039 C   0  0  0  0  0  0  0  0  0  0  0  0
   20.0925  -22.3622  -12.0180 O   0  0  0  0  0  0  0  0  0  0  0  0
   19.0360  -20.4042  -12.3998 O   0  0  0  0  0  0  0  0  0  0  0  0
  1  5  1  0
  1  2  1  0
  2  3  1  0
  4  3  1  0
  5  4  1  0
  5  6  1  6
  7  6  2  0
  8  6  1  0
  8 12  1  0
  9 10  1  0
  9  8  1  0
 10 11  1  0
 11 12  1  0
 12 13  1  1
 13 14  2  0
 16 15  1  0
 17 16  2  0
 18 16  1  0
 19 18  1  6
 20 13  1  0
 20 19  1  0
 21 19  1  0
 21 23  1  0
 22 21  2  0
M  END
$$$$
