PPN.pdb
     RDKit          3D

 23 24  0  0  1  0  0  0  0  0999 V2000
   28.2367  -20.4684  -15.2217 N   0  0  0  0  0  0  0  0  0  0  0  0
   28.8039  -19.2249  -15.7709 C   0  0  0  0  0  0  0  0  0  0  0  0
   27.6681  -18.2753  -15.4689 C   0  0  0  0  0  0  0  0  0  0  0  0
   27.3228  -18.6295  -14.0427 C   0  0  0  0  0  0  0  0  0  0  0  0
   27.6992  -20.0732  -13.9326 C   0  0  1  0  0  0  0  0  0  0  0  0
   26.5022  -20.8604  -13.5502 C   0  0  0  0  0  0  0  0  0  0  0  0
   26.0871  -21.7376  -14.3694 O   0  0  0  0  0  0  0  0  0  0  0  0
   25.8516  -20.6354  -12.3114 N   0  0  0  0  0  0  0  0  0  0  0  0
   26.2960  -19.7253  -11.2928 C   0  0  0  0  0  0  0  0  0  0  0  0
   25.6694  -20.2037   -9.9960 C   0  0  0  0  0  0  0  0  0  0  0  0
   24.7431  -21.3535  -10.3642 C   0  0  0  0  0  0  0  0  0  0  0  0
   24.6412  -21.2925  -11.8759 C   0  0  1  0  0  0  0  0  0  0  0  0
   23.4338  -20.5477  -12.3101 C   0  0  0  0  0  0  0  0  0  0  0  0
   23.5092  -19.2888  -12.3847 O   0  0  0  0  0  0  0  0  0  0  0  0
   19.6950  -19.8512  -15.7849 N   0  0  0  0  0  0  0  0  0  0  0  0
   20.6057  -20.9078  -16.0098 C   0  0  0  0  0  0  0  0  0  0  0  0
   20.6243  -21.3944  -17.1683 O   0  0  0  0  0  0  0  0  0  0  0  0
   21.5063  -21.4426  -14.9657 C   0  0  0  0  0  0  0  0  0  0  0  0
   21.3878  -20.6278  -13.7122 C   0  0  2  0  0  0  0  0  0  0  0  0
   22.2142  -21.1483  -12.6430 N   0  0  0  0  0  0  0  0  0  0  0  0
   20.0038  -20.5928  -13.2303 C   0  0  0  0  0  0  0  0  0  0  0  0
   19.6183  -21.4066  -12.3746 O   0  0  0  0  0  0  0  0  0  0  0  0
   19.1146  -19.6625  -13.7163 O   0  0  0  0  0  0  0  0  0  0  0  0
  1  5  1  0
  1  2  1  0
  2  3  1  0
  4  3  1  0
  5  4  1  0
  5  6  1  6
  7  6  2  0
  8  6  1  0
  8 12  1  0
  9 10  1  0
  9  8  1  0
 10 11  1  0
 11 12  1  0
 12 13  1  1
 13 14  2  0
 16 15  1  0
 17 16  2  0
 18 16  1  0
 19 18  1  6
 20 13  1  0
 20 19  1  0
 21 19  1  0
 21 23  1  0
 22 21  2  0
M  END
$$$$
