PPN.pdb
     RDKit          3D

 23 24  0  0  1  0  0  0  0  0999 V2000
   28.2528  -19.8872  -15.3214 N   0  0  0  0  0  0  0  0  0  0  0  0
   28.5814  -18.5433  -15.8265 C   0  0  0  0  0  0  0  0  0  0  0  0
   27.3092  -17.8172  -15.4564 C   0  0  0  0  0  0  0  0  0  0  0  0
   27.0728  -18.2832  -14.0402 C   0  0  0  0  0  0  0  0  0  0  0  0
   27.6944  -19.6435  -14.0038 C   0  0  1  0  0  0  0  0  0  0  0  0
   26.6623  -20.6404  -13.6304 C   0  0  0  0  0  0  0  0  0  0  0  0
   26.3971  -21.5568  -14.4688 O   0  0  0  0  0  0  0  0  0  0  0  0
   26.0013  -20.5659  -12.3790 N   0  0  0  0  0  0  0  0  0  0  0  0
   26.2947  -19.6190  -11.3395 C   0  0  0  0  0  0  0  0  0  0  0  0
   25.7813  -20.2340  -10.0505 C   0  0  0  0  0  0  0  0  0  0  0  0
   25.0654  -21.5185  -10.4418 C   0  0  0  0  0  0  0  0  0  0  0  0
   24.9315  -21.4366  -11.9500 C   0  0  1  0  0  0  0  0  0  0  0  0
   23.6058  -20.9043  -12.3502 C   0  0  0  0  0  0  0  0  0  0  0  0
   23.4777  -19.6519  -12.4565 O   0  0  0  0  0  0  0  0  0  0  0  0
   19.7420  -20.6618  -15.6699 N   0  0  0  0  0  0  0  0  0  0  0  0
   20.3946  -21.9144  -15.7111 C   0  0  0  0  0  0  0  0  0  0  0  0
   20.0854  -22.6761  -16.6616 O   0  0  0  0  0  0  0  0  0  0  0  0
   21.3938  -22.3452  -14.7096 C   0  0  0  0  0  0  0  0  0  0  0  0
   21.5169  -21.3169  -13.6249 C   0  0  2  0  0  0  0  0  0  0  0  0
   22.4853  -21.6989  -12.6182 N   0  0  0  0  0  0  0  0  0  0  0  0
   20.2335  -21.0999  -12.9506 C   0  0  0  0  0  0  0  0  0  0  0  0
   19.9797  -21.6857  -11.8849 O   0  0  0  0  0  0  0  0  0  0  0  0
   19.2947  -20.2484  -13.4852 O   0  0  0  0  0  0  0  0  0  0  0  0
  1  5  1  0
  1  2  1  0
  2  3  1  0
  4  3  1  0
  5  4  1  0
  5  6  1  6
  7  6  2  0
  8  6  1  0
  8 12  1  0
  9 10  1  0
  9  8  1  0
 10 11  1  0
 11 12  1  0
 12 13  1  1
 13 14  2  0
 16 15  1  0
 17 16  2  0
 18 16  1  0
 19 18  1  6
 20 13  1  0
 20 19  1  0
 21 19  1  0
 21 23  1  0
 22 21  2  0
M  END
$$$$
