PPN.pdb
     RDKit          3D

 23 24  0  0  1  0  0  0  0  0999 V2000
   26.9322  -17.6731  -14.9081 N   0  0  0  0  0  0  0  0  0  0  0  0
   27.0835  -16.6905  -15.9949 C   0  0  0  0  0  0  0  0  0  0  0  0
   27.5201  -17.6127  -17.1092 C   0  0  0  0  0  0  0  0  0  0  0  0
   26.5490  -18.7607  -16.9762 C   0  0  0  0  0  0  0  0  0  0  0  0
   26.2037  -18.7690  -15.5206 C   0  0  1  0  0  0  0  0  0  0  0  0
   26.5651  -20.0856  -14.9422 C   0  0  0  0  0  0  0  0  0  0  0  0
   25.9787  -21.1133  -15.4035 O   0  0  0  0  0  0  0  0  0  0  0  0
   27.5332  -20.1839  -13.9117 N   0  0  0  0  0  0  0  0  0  0  0  0
   28.3414  -19.1007  -13.4250 C   0  0  0  0  0  0  0  0  0  0  0  0
   29.5568  -19.7383  -12.7775 C   0  0  0  0  0  0  0  0  0  0  0  0
   29.3229  -21.2415  -12.8099 C   0  0  0  0  0  0  0  0  0  0  0  0
   27.8635  -21.3925  -13.1931 C   0  0  1  0  0  0  0  0  0  0  0  0
   27.0023  -21.5650  -11.9975 C   0  0  0  0  0  0  0  0  0  0  0  0
   27.1995  -22.5761  -11.2660 O   0  0  0  0  0  0  0  0  0  0  0  0
   25.2418  -21.5126   -7.6387 N   0  0  0  0  0  0  0  0  0  0  0  0
   25.9137  -20.3139   -7.9675 C   0  0  0  0  0  0  0  0  0  0  0  0
   26.4375  -19.6855   -7.0135 O   0  0  0  0  0  0  0  0  0  0  0  0
   26.0182  -19.7911   -9.3469 C   0  0  0  0  0  0  0  0  0  0  0  0
   25.3768  -20.7433  -10.3118 C   0  0  2  0  0  0  0  0  0  0  0  0
   25.9836  -20.6803  -11.6252 N   0  0  0  0  0  0  0  0  0  0  0  0
   23.9469  -20.4600  -10.4664 C   0  0  0  0  0  0  0  0  0  0  0  0
   23.5429  -19.7864  -11.4288 O   0  0  0  0  0  0  0  0  0  0  0  0
   23.0346  -20.9333   -9.5521 O   0  0  0  0  0  0  0  0  0  0  0  0
  1  5  1  0
  1  2  1  0
  2  3  1  0
  4  3  1  0
  5  4  1  0
  5  6  1  1
  7  6  2  0
  8  6  1  0
  8 12  1  0
  9 10  1  0
  9  8  1  0
 10 11  1  0
 11 12  1  0
 12 13  1  1
 13 14  2  0
 16 15  1  0
 17 16  2  0
 18 16  1  0
 19 18  1  1
 20 13  1  0
 20 19  1  0
 21 19  1  0
 21 23  1  0
 22 21  2  0
M  END
$$$$
