YSD.pdb
     RDKit          3D

 27 27  0  0  1  0  0  0  0  0999 V2000
    6.0752  -19.2653   15.5145 O   0  0  0  0  0  0  0  0  0  0  0  0
    6.7459  -19.1442   16.7262 C   0  0  0  0  0  0  0  0  0  0  0  0
    6.0420  -18.9831   17.8958 C   0  0  0  0  0  0  0  0  0  0  0  0
    6.6867  -18.8635   19.0882 C   0  0  0  0  0  0  0  0  0  0  0  0
    8.0743  -18.9045   19.1247 C   0  0  0  0  0  0  0  0  0  0  0  0
    8.7091  -18.7739   20.4377 C   0  0  0  0  0  0  0  0  0  0  0  0
    9.0810  -17.3340   20.6741 C   0  0  2  0  0  0  0  0  0  0  0  0
   10.1400  -16.9008   19.7772 N   0  0  0  0  0  0  0  0  0  0  0  0
    9.4583  -17.1014   22.0723 C   0  0  0  0  0  0  0  0  0  0  0  0
   10.6525  -16.9951   22.4182 O   0  0  0  0  0  0  0  0  0  0  0  0
    8.7696  -19.0654   17.9564 C   0  0  0  0  0  0  0  0  0  0  0  0
    8.1028  -19.1868   16.7425 C   0  0  0  0  0  0  0  0  0  0  0  0
    6.4888  -16.4960   25.1298 O   0  0  0  0  0  0  0  0  0  0  0  0
    7.7620  -15.9999   25.2172 C   0  0  0  0  0  0  0  0  0  0  0  0
    8.7905  -16.8362   24.4957 C   0  0  2  0  0  0  0  0  0  0  0  0
    8.4739  -16.9878   23.0911 N   0  0  0  0  0  0  0  0  0  0  0  0
    8.9931  -18.1561   25.1548 C   0  0  0  0  0  0  0  0  0  0  0  0
    8.7740  -19.2503   24.5806 O   0  0  0  0  0  0  0  0  0  0  0  0
    9.4551  -18.2292   26.4969 N   0  0  0  0  0  0  0  0  0  0  0  0
   10.4518  -19.1860   26.8772 C   0  0  1  0  0  0  0  0  0  0  0  0
   11.6408  -19.0436   25.9685 C   0  0  0  0  0  0  0  0  0  0  0  0
   12.0597  -20.2648   25.2876 C   0  0  0  0  0  0  0  0  0  0  0  0
   11.4531  -21.3487   25.4677 O   0  0  0  0  0  0  0  0  0  0  0  0
   10.8156  -19.1115   28.3016 C   0  0  0  0  0  0  0  0  0  0  0  0
   11.4538  -17.9921   28.7978 O   0  0  0  0  0  0  0  0  0  0  0  0
   13.1517  -20.2231   24.4236 O   0  0  0  0  0  0  0  0  0  0  0  0
   10.5585  -20.0487   29.0877 O   0  0  0  0  0  0  0  0  0  0  0  0
  2  1  1  0
  3  2  2  0
  4  3  1  0
  5  4  2  0
  5 11  1  0
  6  5  1  0
  7  6  1  0
  7  9  1  0
  7  8  1  6
  9 16  1  0
 10  9  2  0
 11 12  2  0
 12  2  1  0
 14 13  1  0
 15 14  1  1
 15 17  1  0
 16 15  1  0
 17 18  2  0
 17 19  1  0
 19 20  1  0
 20 21  1  6
 21 22  1  0
 22 23  2  0
 22 26  1  0
 24 20  1  0
 24 25  1  0
 27 24  2  0
M  END
$$$$
