YSD.pdb
     RDKit          3D

 27 27  0  0  1  0  0  0  0  0999 V2000
    7.0709  -11.7421   18.0926 O   0  0  0  0  0  0  0  0  0  0  0  0
    7.5427  -12.5942   19.0844 C   0  0  0  0  0  0  0  0  0  0  0  0
    6.6632  -13.2422   19.9186 C   0  0  0  0  0  0  0  0  0  0  0  0
    7.1124  -14.0789   20.8934 C   0  0  0  0  0  0  0  0  0  0  0  0
    8.4775  -14.2811   21.0480 C   0  0  0  0  0  0  0  0  0  0  0  0
    8.8980  -15.1952   22.1119 C   0  0  0  0  0  0  0  0  0  0  0  0
    9.0146  -16.5903   21.5574 C   0  0  2  0  0  0  0  0  0  0  0  0
    7.7099  -17.1587   21.2601 N   0  0  0  0  0  0  0  0  0  0  0  0
    9.7668  -17.4649   22.4633 C   0  0  0  0  0  0  0  0  0  0  0  0
    9.2154  -18.0428   23.4219 O   0  0  0  0  0  0  0  0  0  0  0  0
    9.3484  -13.6329   20.2139 C   0  0  0  0  0  0  0  0  0  0  0  0
    8.8807  -12.7799   19.2207 C   0  0  0  0  0  0  0  0  0  0  0  0
   12.9950  -19.3664   20.9432 O   0  0  0  0  0  0  0  0  0  0  0  0
   12.3572  -19.8148   22.0686 C   0  0  0  0  0  0  0  0  0  0  0  0
   11.9028  -18.7096   22.9904 C   0  0  2  0  0  0  0  0  0  0  0  0
   11.1587  -17.6886   22.2831 N   0  0  0  0  0  0  0  0  0  0  0  0
   13.0380  -18.1251   23.7567 C   0  0  0  0  0  0  0  0  0  0  0  0
   13.6001  -17.0497   23.4365 O   0  0  0  0  0  0  0  0  0  0  0  0
   13.5425  -18.7811   24.9122 N   0  0  0  0  0  0  0  0  0  0  0  0
   14.6418  -18.2286   25.6467 C   0  0  1  0  0  0  0  0  0  0  0  0
   14.8256  -19.0106   26.9173 C   0  0  0  0  0  0  0  0  0  0  0  0
   13.6309  -19.1551   27.7433 C   0  0  0  0  0  0  0  0  0  0  0  0
   13.0051  -18.1502   28.1605 O   0  0  0  0  0  0  0  0  0  0  0  0
   15.8798  -18.1334   24.8562 C   0  0  0  0  0  0  0  0  0  0  0  0
   16.9157  -17.3259   25.2824 O   0  0  0  0  0  0  0  0  0  0  0  0
   13.1801  -20.4315   28.0723 O   0  0  0  0  0  0  0  0  0  0  0  0
   16.0222  -18.7740   23.7923 O   0  0  0  0  0  0  0  0  0  0  0  0
  2  1  1  0
  3  2  2  0
  4  3  1  0
  5  4  2  0
  5 11  1  0
  6  5  1  0
  7  6  1  0
  7  9  1  0
  7  8  1  1
  9 16  1  0
 10  9  2  0
 11 12  2  0
 12  2  1  0
 14 13  1  0
 15 14  1  6
 15 17  1  0
 16 15  1  0
 17 18  2  0
 17 19  1  0
 19 20  1  0
 20 21  1  1
 21 22  1  0
 22 23  2  0
 22 26  1  0
 24 20  1  0
 24 25  1  0
 27 24  2  0
M  END
$$$$
