YSD.pdb
     RDKit          3D

 27 27  0  0  1  0  0  0  0  0999 V2000
    2.4662  -23.7413   18.6322 O   0  0  0  0  0  0  0  0  0  0  0  0
    3.4618  -23.0567   19.3196 C   0  0  0  0  0  0  0  0  0  0  0  0
    4.6376  -22.7249   18.6895 C   0  0  0  0  0  0  0  0  0  0  0  0
    5.6198  -22.0549   19.3514 C   0  0  0  0  0  0  0  0  0  0  0  0
    5.4326  -21.7013   20.6812 C   0  0  0  0  0  0  0  0  0  0  0  0
    6.5243  -20.9788   21.3372 C   0  0  0  0  0  0  0  0  0  0  0  0
    6.0419  -19.6161   21.7589 C   0  0  2  0  0  0  0  0  0  0  0  0
    5.6442  -18.8117   20.6150 N   0  0  0  0  0  0  0  0  0  0  0  0
    7.0514  -18.9153   22.5596 C   0  0  0  0  0  0  0  0  0  0  0  0
    8.0123  -18.3231   22.0276 O   0  0  0  0  0  0  0  0  0  0  0  0
    4.2593  -22.0345   21.3030 C   0  0  0  0  0  0  0  0  0  0  0  0
    3.2611  -22.7191   20.6192 C   0  0  0  0  0  0  0  0  0  0  0  0
    6.1768  -17.7160   26.4412 O   0  0  0  0  0  0  0  0  0  0  0  0
    7.1955  -17.1654   25.7107 C   0  0  0  0  0  0  0  0  0  0  0  0
    7.9024  -18.1526   24.8143 C   0  0  2  0  0  0  0  0  0  0  0  0
    6.9735  -18.8838   23.9784 N   0  0  0  0  0  0  0  0  0  0  0  0
    8.7813  -19.0729   25.5876 C   0  0  0  0  0  0  0  0  0  0  0  0
    8.3743  -20.1476   26.0919 O   0  0  0  0  0  0  0  0  0  0  0  0
   10.1530  -18.7606   25.7899 N   0  0  0  0  0  0  0  0  0  0  0  0
   10.9949  -19.6256   26.5622 C   0  0  1  0  0  0  0  0  0  0  0  0
   12.4305  -19.3624   26.2027 C   0  0  0  0  0  0  0  0  0  0  0  0
   13.4052  -20.2598   26.8151 C   0  0  0  0  0  0  0  0  0  0  0  0
   13.0389  -21.2364   27.5133 O   0  0  0  0  0  0  0  0  0  0  0  0
   10.7482  -19.5356   28.0105 C   0  0  0  0  0  0  0  0  0  0  0  0
   10.0527  -18.4623   28.5312 O   0  0  0  0  0  0  0  0  0  0  0  0
   14.7645  -20.0256   26.6194 O   0  0  0  0  0  0  0  0  0  0  0  0
   11.1573  -20.4182   28.7954 O   0  0  0  0  0  0  0  0  0  0  0  0
  2  1  1  0
  3  2  2  0
  4  3  1  0
  5  4  2  0
  5 11  1  0
  6  5  1  0
  7  6  1  0
  7  9  1  0
  7  8  1  6
  9 16  1  0
 10  9  2  0
 11 12  2  0
 12  2  1  0
 14 13  1  0
 15 14  1  1
 15 17  1  0
 16 15  1  0
 17 18  2  0
 17 19  1  0
 19 20  1  0
 20 21  1  1
 21 22  1  0
 22 23  2  0
 22 26  1  0
 24 20  1  0
 24 25  1  0
 27 24  2  0
M  END
$$$$
