YSD.pdb
     RDKit          3D

 27 27  0  0  1  0  0  0  0  0999 V2000
    4.9980  -10.7155   28.0868 O   0  0  0  0  0  0  0  0  0  0  0  0
    5.7756  -11.5620   27.3049 C   0  0  0  0  0  0  0  0  0  0  0  0
    5.3381  -11.9560   26.0628 C   0  0  0  0  0  0  0  0  0  0  0  0
    6.0899  -12.7843   25.2878 C   0  0  0  0  0  0  0  0  0  0  0  0
    7.3155  -13.2380   25.7574 C   0  0  0  0  0  0  0  0  0  0  0  0
    8.0788  -14.1235   24.8757 C   0  0  0  0  0  0  0  0  0  0  0  0
    7.3807  -15.4538   24.7743 C   0  0  2  0  0  0  0  0  0  0  0  0
    7.2302  -16.0798   26.0778 N   0  0  0  0  0  0  0  0  0  0  0  0
    8.0735  -16.3522   23.8447 C   0  0  0  0  0  0  0  0  0  0  0  0
    8.7861  -17.2919   24.2524 O   0  0  0  0  0  0  0  0  0  0  0  0
    7.7456  -12.8418   26.9952 C   0  0  0  0  0  0  0  0  0  0  0  0
    6.9712  -11.9954   27.7804 C   0  0  0  0  0  0  0  0  0  0  0  0
    8.3534  -15.2710   19.7304 O   0  0  0  0  0  0  0  0  0  0  0  0
    8.3757  -16.5999   20.0591 C   0  0  0  0  0  0  0  0  0  0  0  0
    8.8061  -16.8668   21.4808 C   0  0  2  0  0  0  0  0  0  0  0  0
    7.9593  -16.1861   22.4378 N   0  0  0  0  0  0  0  0  0  0  0  0
   10.2432  -16.5410   21.6954 C   0  0  0  0  0  0  0  0  0  0  0  0
   10.6389  -15.4250   22.1112 O   0  0  0  0  0  0  0  0  0  0  0  0
   11.2500  -17.5085   21.4299 N   0  0  0  0  0  0  0  0  0  0  0  0
   12.6357  -17.1926   21.6128 C   0  0  1  0  0  0  0  0  0  0  0  0
   13.1488  -17.9191   22.8246 C   0  0  0  0  0  0  0  0  0  0  0  0
   14.5667  -17.7307   23.1153 C   0  0  0  0  0  0  0  0  0  0  0  0
   15.2873  -17.0047   22.3878 O   0  0  0  0  0  0  0  0  0  0  0  0
   13.4523  -17.4437   20.4141 C   0  0  0  0  0  0  0  0  0  0  0  0
   13.0310  -18.3535   19.4647 O   0  0  0  0  0  0  0  0  0  0  0  0
   15.1267  -18.3688   24.2198 O   0  0  0  0  0  0  0  0  0  0  0  0
   14.5345  -16.8463   20.2284 O   0  0  0  0  0  0  0  0  0  0  0  0
  2  1  1  0
  3  2  2  0
  4  3  1  0
  5  4  2  0
  5 11  1  0
  6  5  1  0
  7  6  1  0
  7  9  1  0
  7  8  1  1
  9 16  1  0
 10  9  2  0
 11 12  2  0
 12  2  1  0
 14 13  1  0
 15 14  1  6
 15 17  1  0
 16 15  1  0
 17 18  2  0
 17 19  1  0
 19 20  1  0
 20 21  1  1
 21 22  1  0
 22 23  2  0
 22 26  1  0
 24 20  1  0
 24 25  1  0
 27 24  2  0
M  END
$$$$
