DWC.pdb
     RDKit          3D

 29 30  0  0  1  0  0  0  0  0999 V2000
   31.8939  -29.8168  -18.2994 N   0  0  0  0  0  0  0  0  0  0  0  0
   30.8194  -30.6297  -18.8167 C   0  0  1  0  0  0  0  0  0  0  0  0
   31.3145  -32.0503  -18.8313 C   0  0  0  0  0  0  0  0  0  0  0  0
   31.9338  -32.4663  -20.0925 C   0  0  0  0  0  0  0  0  0  0  0  0
   32.1037  -31.6141  -21.0023 O   0  0  0  0  0  0  0  0  0  0  0  0
   29.5895  -30.4380  -18.0195 C   0  0  0  0  0  0  0  0  0  0  0  0
   29.5665  -30.0617  -16.8263 O   0  0  0  0  0  0  0  0  0  0  0  0
   32.3485  -33.7498  -20.3508 O   0  0  0  0  0  0  0  0  0  0  0  0
   28.3441  -30.6959  -18.6415 N   0  0  0  0  0  0  0  0  0  0  0  0
   27.0887  -30.5644  -17.8818 C   0  0  1  0  0  0  0  0  0  0  0  0
   25.9254  -30.5018  -18.7963 C   0  0  0  0  0  0  0  0  0  0  0  0
   24.6458  -30.3667  -18.0907 C   0  0  0  0  0  0  0  0  0  0  0  0
   24.2947  -29.4359  -17.1034 C   0  0  0  0  0  0  0  0  0  0  0  0
   23.0402  -29.6879  -16.6991 N   0  0  0  0  0  0  0  0  0  0  0  0
   22.5207  -30.7329  -17.3529 C   0  0  0  0  0  0  0  0  0  0  0  0
   21.2939  -31.3920  -17.3150 C   0  0  0  0  0  0  0  0  0  0  0  0
   21.0675  -32.4791  -18.1490 C   0  0  0  0  0  0  0  0  0  0  0  0
   22.0405  -32.9134  -19.0125 C   0  0  0  0  0  0  0  0  0  0  0  0
   23.2524  -32.2391  -19.0296 C   0  0  0  0  0  0  0  0  0  0  0  0
   23.4984  -31.1609  -18.2132 C   0  0  0  0  0  0  0  0  0  0  0  0
   26.9983  -31.7753  -17.0506 C   0  0  0  0  0  0  0  0  0  0  0  0
   27.2797  -32.8920  -17.6152 O   0  0  0  0  0  0  0  0  0  0  0  0
   26.6406  -31.8448  -15.6924 N   0  0  0  0  0  0  0  0  0  0  0  0
   26.5628  -33.0944  -14.9735 C   0  0  1  0  0  0  0  0  0  0  0  0
   27.3941  -33.0413  -13.6970 C   0  0  0  0  0  0  0  0  0  0  0  0
   27.4693  -34.7038  -12.9759 S   0  0  0  0  0  0  0  0  0  0  0  0
   25.2234  -33.5264  -14.5986 C   0  0  0  0  0  0  0  0  0  0  0  0
   25.1064  -34.7240  -14.1589 O   0  0  0  0  0  0  0  0  0  0  0  0
   24.0532  -32.8034  -14.6564 O   0  0  0  0  0  0  0  0  0  0  0  0
  2  1  1  1
  2  6  1  0
  3  2  1  0
  3  4  1  0
  4  8  1  0
  5  4  2  0
  6  9  1  0
  7  6  2  0
  9 10  1  0
 10 11  1  6
 12 11  1  0
 13 12  2  0
 14 13  1  0
 15 14  1  0
 15 20  2  0
 16 15  1  0
 17 16  2  0
 17 18  1  0
 18 19  2  0
 19 20  1  0
 20 12  1  0
 21 22  2  0
 21 10  1  0
 23 21  1  0
 24 23  1  0
 24 27  1  0
 24 25  1  1
 26 25  1  0
 27 29  1  0
 28 27  2  0
M  END
$$$$
