DWC.pdb
     RDKit          3D

 29 30  0  0  1  0  0  0  0  0999 V2000
   27.5844  -20.0002  -14.5002 N   0  0  0  0  0  0  0  0  0  0  0  0
   26.8632  -21.2321  -14.7131 C   0  0  1  0  0  0  0  0  0  0  0  0
   27.8828  -22.2785  -15.0717 C   0  0  0  0  0  0  0  0  0  0  0  0
   28.3910  -22.1887  -16.4432 C   0  0  0  0  0  0  0  0  0  0  0  0
   27.8922  -21.3405  -17.2272 O   0  0  0  0  0  0  0  0  0  0  0  0
   26.0536  -21.5750  -13.5248 C   0  0  0  0  0  0  0  0  0  0  0  0
   25.4583  -22.6631  -13.3594 O   0  0  0  0  0  0  0  0  0  0  0  0
   29.3949  -22.9847  -16.9376 O   0  0  0  0  0  0  0  0  0  0  0  0
   25.9375  -20.6101  -12.4954 N   0  0  0  0  0  0  0  0  0  0  0  0
   25.1503  -20.9011  -11.2845 C   0  0  1  0  0  0  0  0  0  0  0  0
   25.6752  -20.1472  -10.1228 C   0  0  0  0  0  0  0  0  0  0  0  0
   26.9588  -20.6641   -9.6341 C   0  0  0  0  0  0  0  0  0  0  0  0
   27.8020  -21.6047  -10.2413 C   0  0  0  0  0  0  0  0  0  0  0  0
   28.8557  -21.8212   -9.4391 N   0  0  0  0  0  0  0  0  0  0  0  0
   28.7769  -21.0842   -8.3255 C   0  0  0  0  0  0  0  0  0  0  0  0
   29.5817  -20.9361   -7.1981 C   0  0  0  0  0  0  0  0  0  0  0  0
   29.2017  -20.0622   -6.1878 C   0  0  0  0  0  0  0  0  0  0  0  0
   28.0397  -19.3406   -6.2869 C   0  0  0  0  0  0  0  0  0  0  0  0
   27.2573  -19.5074   -7.4200 C   0  0  0  0  0  0  0  0  0  0  0  0
   27.6138  -20.3666   -8.4321 C   0  0  0  0  0  0  0  0  0  0  0  0
   23.7805  -20.4549  -11.5842 C   0  0  0  0  0  0  0  0  0  0  0  0
   23.6494  -19.5147  -12.4467 O   0  0  0  0  0  0  0  0  0  0  0  0
   22.5878  -20.9527  -11.0299 N   0  0  0  0  0  0  0  0  0  0  0  0
   21.3482  -20.9970  -11.7684 C   0  0  1  0  0  0  0  0  0  0  0  0
   21.4823  -21.8769  -13.0059 C   0  0  0  0  0  0  0  0  0  0  0  0
   19.8931  -21.9073  -13.8796 S   0  0  0  0  0  0  0  0  0  0  0  0
   20.1865  -21.4687  -11.0274 C   0  0  0  0  0  0  0  0  0  0  0  0
   20.2960  -22.6055  -10.4471 O   0  0  0  0  0  0  0  0  0  0  0  0
   18.9714  -20.8411  -10.8687 O   0  0  0  0  0  0  0  0  0  0  0  0
  2  1  1  1
  2  6  1  0
  3  2  1  0
  3  4  1  0
  4  8  1  0
  5  4  2  0
  6  9  1  0
  7  6  2  0
  9 10  1  0
 10 11  1  1
 12 11  1  0
 13 12  2  0
 14 13  1  0
 15 14  1  0
 15 20  2  0
 16 15  1  0
 17 16  2  0
 17 18  1  0
 18 19  2  0
 19 20  1  0
 20 12  1  0
 21 22  2  0
 21 10  1  0
 23 21  1  0
 24 23  1  0
 24 27  1  0
 24 25  1  6
 26 25  1  0
 27 29  1  0
 28 27  2  0
M  END
$$$$
