DWC.pdb
     RDKit          3D

 29 30  0  0  1  0  0  0  0  0999 V2000
   27.5308  -22.9875  -16.5449 N   0  0  0  0  0  0  0  0  0  0  0  0
   27.4048  -21.7929  -15.7449 C   0  0  1  0  0  0  0  0  0  0  0  0
   26.8535  -20.7207  -16.6448 C   0  0  0  0  0  0  0  0  0  0  0  0
   27.7826  -20.2561  -17.6783 C   0  0  0  0  0  0  0  0  0  0  0  0
   28.9920  -20.5965  -17.6130 O   0  0  0  0  0  0  0  0  0  0  0  0
   26.5734  -22.0502  -14.5500 C   0  0  0  0  0  0  0  0  0  0  0  0
   26.0519  -23.1526  -14.2701 O   0  0  0  0  0  0  0  0  0  0  0  0
   27.4122  -19.4586  -18.7332 O   0  0  0  0  0  0  0  0  0  0  0  0
   26.3454  -20.9793  -13.6526 N   0  0  0  0  0  0  0  0  0  0  0  0
   25.5198  -21.1770  -12.4486 C   0  0  1  0  0  0  0  0  0  0  0  0
   25.8849  -20.2021  -11.3951 C   0  0  0  0  0  0  0  0  0  0  0  0
   27.0898  -20.5848  -10.6500 C   0  0  0  0  0  0  0  0  0  0  0  0
   28.2631  -21.1725  -11.1425 C   0  0  0  0  0  0  0  0  0  0  0  0
   29.1001  -21.3907  -10.1165 N   0  0  0  0  0  0  0  0  0  0  0  0
   28.5646  -20.9862   -8.9593 C   0  0  0  0  0  0  0  0  0  0  0  0
   28.9970  -20.9851   -7.6350 C   0  0  0  0  0  0  0  0  0  0  0  0
   28.1721  -20.4789   -6.6391 C   0  0  0  0  0  0  0  0  0  0  0  0
   26.9323  -19.9783   -6.9445 C   0  0  0  0  0  0  0  0  0  0  0  0
   26.5268  -19.9916   -8.2708 C   0  0  0  0  0  0  0  0  0  0  0  0
   27.3267  -20.4877   -9.2728 C   0  0  0  0  0  0  0  0  0  0  0  0
   24.1311  -20.9443  -12.8763 C   0  0  0  0  0  0  0  0  0  0  0  0
   23.8354  -19.7627  -13.2782 O   0  0  0  0  0  0  0  0  0  0  0  0
   23.0841  -21.8827  -12.8994 N   0  0  0  0  0  0  0  0  0  0  0  0
   21.7161  -21.5123  -13.1744 C   0  0  1  0  0  0  0  0  0  0  0  0
   20.8098  -22.7378  -13.1776 C   0  0  0  0  0  0  0  0  0  0  0  0
   19.1210  -22.2181  -13.5868 S   0  0  0  0  0  0  0  0  0  0  0  0
   21.1272  -20.5426  -12.2612 C   0  0  0  0  0  0  0  0  0  0  0  0
   20.5456  -19.5316  -12.7910 O   0  0  0  0  0  0  0  0  0  0  0  0
   21.1152  -20.5743  -10.8848 O   0  0  0  0  0  0  0  0  0  0  0  0
  2  1  1  6
  2  6  1  0
  3  2  1  0
  3  4  1  0
  4  8  1  0
  5  4  2  0
  6  9  1  0
  7  6  2  0
  9 10  1  0
 10 11  1  1
 12 11  1  0
 13 12  2  0
 14 13  1  0
 15 14  1  0
 15 20  2  0
 16 15  1  0
 17 16  2  0
 17 18  1  0
 18 19  2  0
 19 20  1  0
 20 12  1  0
 21 22  2  0
 21 10  1  0
 23 21  1  0
 24 23  1  0
 24 27  1  0
 24 25  1  1
 26 25  1  0
 27 29  1  0
 28 27  2  0
M  END
$$$$
