DWC.pdb
     RDKit          3D

 29 30  0  0  1  0  0  0  0  0999 V2000
   25.3723  -32.8511   -5.1525 N   0  0  0  0  0  0  0  0  0  0  0  0
   26.3291  -33.3151   -6.1283 C   0  0  1  0  0  0  0  0  0  0  0  0
   27.0206  -34.5089   -5.5283 C   0  0  0  0  0  0  0  0  0  0  0  0
   28.1248  -34.1813   -4.6224 C   0  0  0  0  0  0  0  0  0  0  0  0
   28.2892  -32.9867   -4.2634 O   0  0  0  0  0  0  0  0  0  0  0  0
   25.6638  -33.6003   -7.4171 C   0  0  0  0  0  0  0  0  0  0  0  0
   24.7323  -34.4215   -7.5705 O   0  0  0  0  0  0  0  0  0  0  0  0
   29.0083  -35.1106   -4.1306 O   0  0  0  0  0  0  0  0  0  0  0  0
   26.1050  -32.8994   -8.5653 N   0  0  0  0  0  0  0  0  0  0  0  0
   25.5670  -33.2322   -9.8958 C   0  0  1  0  0  0  0  0  0  0  0  0
   25.9859  -32.2260  -10.8986 C   0  0  0  0  0  0  0  0  0  0  0  0
   25.4327  -32.4800  -12.2339 C   0  0  0  0  0  0  0  0  0  0  0  0
   24.1256  -32.2559  -12.6874 C   0  0  0  0  0  0  0  0  0  0  0  0
   24.0359  -32.6617  -13.9634 N   0  0  0  0  0  0  0  0  0  0  0  0
   25.2031  -33.1467  -14.4012 C   0  0  0  0  0  0  0  0  0  0  0  0
   25.6414  -33.6841  -15.6094 C   0  0  0  0  0  0  0  0  0  0  0  0
   26.9569  -34.1099  -15.7396 C   0  0  0  0  0  0  0  0  0  0  0  0
   27.8329  -34.0074  -14.6894 C   0  0  0  0  0  0  0  0  0  0  0  0
   27.3702  -33.4688  -13.4980 C   0  0  0  0  0  0  0  0  0  0  0  0
   26.0725  -33.0410  -13.3466 C   0  0  0  0  0  0  0  0  0  0  0  0
   26.1424  -34.5419  -10.2409 C   0  0  0  0  0  0  0  0  0  0  0  0
   27.3331  -34.7820   -9.8293 O   0  0  0  0  0  0  0  0  0  0  0  0
   25.5246  -35.5713  -10.9732 N   0  0  0  0  0  0  0  0  0  0  0  0
   26.1967  -36.8089  -11.2903 C   0  0  1  0  0  0  0  0  0  0  0  0
   26.7423  -37.4711  -10.0305 C   0  0  0  0  0  0  0  0  0  0  0  0
   25.3562  -37.8781   -8.9338 S   0  0  0  0  0  0  0  0  0  0  0  0
   25.3942  -37.8042  -11.9879 C   0  0  0  0  0  0  0  0  0  0  0  0
   25.9997  -38.8653  -12.3733 O   0  0  0  0  0  0  0  0  0  0  0  0
   24.0519  -37.7499  -12.2890 O   0  0  0  0  0  0  0  0  0  0  0  0
  2  1  1  1
  2  6  1  0
  3  2  1  0
  3  4  1  0
  4  8  1  0
  5  4  2  0
  6  9  1  0
  7  6  2  0
  9 10  1  0
 10 11  1  6
 12 11  1  0
 13 12  2  0
 14 13  1  0
 15 14  1  0
 15 20  2  0
 16 15  1  0
 17 16  2  0
 17 18  1  0
 18 19  2  0
 19 20  1  0
 20 12  1  0
 21 22  2  0
 21 10  1  0
 23 21  1  0
 24 23  1  0
 24 27  1  0
 24 25  1  1
 26 25  1  0
 27 29  1  0
 28 27  2  0
M  END
$$$$
