DWC.pdb
     RDKit          3D

 29 30  0  0  1  0  0  0  0  0999 V2000
   27.7390  -19.6264  -15.2703 N   0  0  0  0  0  0  0  0  0  0  0  0
   27.2422  -20.9638  -15.4882 C   0  0  1  0  0  0  0  0  0  0  0  0
   28.4272  -21.8158  -15.8532 C   0  0  0  0  0  0  0  0  0  0  0  0
   29.0778  -21.4462  -17.1131 C   0  0  0  0  0  0  0  0  0  0  0  0
   30.3044  -21.1663  -17.1103 O   0  0  0  0  0  0  0  0  0  0  0  0
   26.5069  -21.4473  -14.3005 C   0  0  0  0  0  0  0  0  0  0  0  0
   26.1110  -22.6233  -14.1389 O   0  0  0  0  0  0  0  0  0  0  0  0
   28.4237  -21.3843  -18.3190 O   0  0  0  0  0  0  0  0  0  0  0  0
   26.2261  -20.5215  -13.2669 N   0  0  0  0  0  0  0  0  0  0  0  0
   25.4327  -20.9294  -12.0945 C   0  0  1  0  0  0  0  0  0  0  0  0
   25.7819  -20.1084  -10.9123 C   0  0  0  0  0  0  0  0  0  0  0  0
   27.0108  -20.5540  -10.2453 C   0  0  0  0  0  0  0  0  0  0  0  0
   28.0486  -21.3347  -10.7724 C   0  0  0  0  0  0  0  0  0  0  0  0
   28.9637  -21.5410   -9.8128 N   0  0  0  0  0  0  0  0  0  0  0  0
   28.6083  -20.9472   -8.6680 C   0  0  0  0  0  0  0  0  0  0  0  0
   29.1815  -20.8538   -7.4018 C   0  0  0  0  0  0  0  0  0  0  0  0
   28.5340  -20.1413   -6.4009 C   0  0  0  0  0  0  0  0  0  0  0  0
   27.3326  -19.5264   -6.6448 C   0  0  0  0  0  0  0  0  0  0  0  0
   26.7843  -19.6356   -7.9141 C   0  0  0  0  0  0  0  0  0  0  0  0
   27.4075  -20.3356   -8.9198 C   0  0  0  0  0  0  0  0  0  0  0  0
   24.0280  -20.6915  -12.4628 C   0  0  0  0  0  0  0  0  0  0  0  0
   23.6897  -19.4811  -12.7191 O   0  0  0  0  0  0  0  0  0  0  0  0
   23.0072  -21.6526  -12.5721 N   0  0  0  0  0  0  0  0  0  0  0  0
   21.6595  -21.3121  -12.9618 C   0  0  1  0  0  0  0  0  0  0  0  0
   21.1293  -22.2915  -14.0024 C   0  0  0  0  0  0  0  0  0  0  0  0
   21.5761  -23.9771  -13.5035 S   0  0  0  0  0  0  0  0  0  0  0  0
   20.6830  -21.2586  -11.8826 C   0  0  0  0  0  0  0  0  0  0  0  0
   19.5154  -20.8255  -12.1831 O   0  0  0  0  0  0  0  0  0  0  0  0
   20.8564  -21.6188  -10.5651 O   0  0  0  0  0  0  0  0  0  0  0  0
  2  1  1  1
  2  6  1  0
  3  2  1  0
  3  4  1  0
  4  8  1  0
  5  4  2  0
  6  9  1  0
  7  6  2  0
  9 10  1  0
 10 11  1  1
 12 11  1  0
 13 12  2  0
 14 13  1  0
 15 14  1  0
 15 20  2  0
 16 15  1  0
 17 16  2  0
 17 18  1  0
 18 19  2  0
 19 20  1  0
 20 12  1  0
 21 22  2  0
 21 10  1  0
 23 21  1  0
 24 23  1  0
 24 27  1  0
 24 25  1  6
 26 25  1  0
 27 29  1  0
 28 27  2  0
M  END
$$$$
