DWC.pdb
     RDKit          3D

 29 30  0  0  1  0  0  0  0  0999 V2000
   28.0334  -20.0364  -15.2177 N   0  0  0  0  0  0  0  0  0  0  0  0
   27.3514  -21.2857  -15.4564 C   0  0  1  0  0  0  0  0  0  0  0  0
   28.4049  -22.2949  -15.8240 C   0  0  0  0  0  0  0  0  0  0  0  0
   29.1646  -21.9689  -17.0338 C   0  0  0  0  0  0  0  0  0  0  0  0
   29.9654  -22.8187  -17.5022 O   0  0  0  0  0  0  0  0  0  0  0  0
   26.5437  -21.6725  -14.2804 C   0  0  0  0  0  0  0  0  0  0  0  0
   25.9367  -22.7602  -14.1608 O   0  0  0  0  0  0  0  0  0  0  0  0
   29.0572  -20.7740  -17.7022 O   0  0  0  0  0  0  0  0  0  0  0  0
   26.4438  -20.7536  -13.2080 N   0  0  0  0  0  0  0  0  0  0  0  0
   25.5913  -21.0538  -12.0446 C   0  0  1  0  0  0  0  0  0  0  0  0
   25.9194  -20.1616  -10.9088 C   0  0  0  0  0  0  0  0  0  0  0  0
   27.1233  -20.5773  -10.1800 C   0  0  0  0  0  0  0  0  0  0  0  0
   28.2295  -21.2869  -10.6672 C   0  0  0  0  0  0  0  0  0  0  0  0
   29.0903  -21.4903   -9.6581 N   0  0  0  0  0  0  0  0  0  0  0  0
   28.6341  -20.9615   -8.5173 C   0  0  0  0  0  0  0  0  0  0  0  0
   29.1201  -20.8941   -7.2134 C   0  0  0  0  0  0  0  0  0  0  0  0
   28.3760  -20.2543   -6.2308 C   0  0  0  0  0  0  0  0  0  0  0  0
   27.1641  -19.6859   -6.5294 C   0  0  0  0  0  0  0  0  0  0  0  0
   26.7040  -19.7676   -7.8352 C   0  0  0  0  0  0  0  0  0  0  0  0
   27.4235  -20.3959   -8.8238 C   0  0  0  0  0  0  0  0  0  0  0  0
   24.2109  -20.8013  -12.4875 C   0  0  0  0  0  0  0  0  0  0  0  0
   24.0038  -19.7359  -13.1709 O   0  0  0  0  0  0  0  0  0  0  0  0
   23.0843  -21.6083  -12.2482 N   0  0  0  0  0  0  0  0  0  0  0  0
   21.7612  -21.2466  -12.6985 C   0  0  1  0  0  0  0  0  0  0  0  0
   21.3058  -22.1537  -13.8357 C   0  0  0  0  0  0  0  0  0  0  0  0
   19.6146  -21.6992  -14.3079 S   0  0  0  0  0  0  0  0  0  0  0  0
   20.7181  -21.2716  -11.6825 C   0  0  0  0  0  0  0  0  0  0  0  0
   20.7827  -22.2106  -10.8134 O   0  0  0  0  0  0  0  0  0  0  0  0
   19.6591  -20.4043  -11.5346 O   0  0  0  0  0  0  0  0  0  0  0  0
  2  1  1  1
  2  6  1  0
  3  2  1  0
  3  4  1  0
  4  8  1  0
  5  4  2  0
  6  9  1  0
  7  6  2  0
  9 10  1  0
 10 11  1  1
 12 11  1  0
 13 12  2  0
 14 13  1  0
 15 14  1  0
 15 20  2  0
 16 15  1  0
 17 16  2  0
 17 18  1  0
 18 19  2  0
 19 20  1  0
 20 12  1  0
 21 22  2  0
 21 10  1  0
 23 21  1  0
 24 23  1  0
 24 27  1  0
 24 25  1  6
 26 25  1  0
 27 29  1  0
 28 27  2  0
M  END
$$$$
