DWC.pdb
     RDKit          3D

 29 30  0  0  1  0  0  0  0  0999 V2000
   26.1358  -37.8259  -12.6980 N   0  0  0  0  0  0  0  0  0  0  0  0
   25.4379  -37.6306  -11.4500 C   0  0  1  0  0  0  0  0  0  0  0  0
   25.6365  -38.8816  -10.6382 C   0  0  0  0  0  0  0  0  0  0  0  0
   24.8541  -40.0337  -11.0939 C   0  0  0  0  0  0  0  0  0  0  0  0
   24.3597  -40.0199  -12.2507 O   0  0  0  0  0  0  0  0  0  0  0  0
   25.9100  -36.4036  -10.7743 C   0  0  0  0  0  0  0  0  0  0  0  0
   27.0565  -35.9184  -10.9001 O   0  0  0  0  0  0  0  0  0  0  0  0
   24.6210  -41.1483  -10.3262 O   0  0  0  0  0  0  0  0  0  0  0  0
   25.0081  -35.7218   -9.9223 N   0  0  0  0  0  0  0  0  0  0  0  0
   25.3923  -34.4443   -9.2973 C   0  0  1  0  0  0  0  0  0  0  0  0
   24.3881  -33.3948   -9.5867 C   0  0  0  0  0  0  0  0  0  0  0  0
   24.3310  -33.0294  -11.0068 C   0  0  0  0  0  0  0  0  0  0  0  0
   25.3413  -33.1414  -11.9717 C   0  0  0  0  0  0  0  0  0  0  0  0
   24.8814  -32.6584  -13.1362 N   0  0  0  0  0  0  0  0  0  0  0  0
   23.6210  -32.2264  -13.0181 C   0  0  0  0  0  0  0  0  0  0  0  0
   22.7039  -31.6506  -13.8946 C   0  0  0  0  0  0  0  0  0  0  0  0
   21.4377  -31.3049  -13.4409 C   0  0  0  0  0  0  0  0  0  0  0  0
   21.0778  -31.5242  -12.1357 C   0  0  0  0  0  0  0  0  0  0  0  0
   22.0102  -32.0986  -11.2847 C   0  0  0  0  0  0  0  0  0  0  0  0
   23.2691  -32.4487  -11.7120 C   0  0  0  0  0  0  0  0  0  0  0  0
   25.4297  -34.7055   -7.8496 C   0  0  0  0  0  0  0  0  0  0  0  0
   24.4360  -35.3412   -7.3462 O   0  0  0  0  0  0  0  0  0  0  0  0
   26.4455  -34.3378   -6.9492 N   0  0  0  0  0  0  0  0  0  0  0  0
   26.4197  -34.7127   -5.5553 C   0  0  1  0  0  0  0  0  0  0  0  0
   27.7766  -34.4765   -4.9024 C   0  0  0  0  0  0  0  0  0  0  0  0
   28.2380  -32.7360   -5.1201 S   0  0  0  0  0  0  0  0  0  0  0  0
   25.4233  -34.0362   -4.7364 C   0  0  0  0  0  0  0  0  0  0  0  0
   24.7911  -33.0653   -5.2830 O   0  0  0  0  0  0  0  0  0  0  0  0
   25.0694  -34.3105   -3.4344 O   0  0  0  0  0  0  0  0  0  0  0  0
  2  1  1  6
  2  6  1  0
  3  2  1  0
  3  4  1  0
  4  8  1  0
  5  4  2  0
  6  9  1  0
  7  6  2  0
  9 10  1  0
 10 11  1  1
 12 11  1  0
 13 12  2  0
 14 13  1  0
 15 14  1  0
 15 20  2  0
 16 15  1  0
 17 16  2  0
 17 18  1  0
 18 19  2  0
 19 20  1  0
 20 12  1  0
 21 22  2  0
 21 10  1  0
 23 21  1  0
 24 23  1  0
 24 27  1  0
 24 25  1  1
 26 25  1  0
 27 29  1  0
 28 27  2  0
M  END
$$$$
