DWC.pdb
     RDKit          3D

 29 30  0  0  1  0  0  0  0  0999 V2000
   28.7726  -22.5208  -15.8457 N   0  0  0  0  0  0  0  0  0  0  0  0
   27.9403  -21.4048  -15.4653 C   0  0  1  0  0  0  0  0  0  0  0  0
   27.2370  -20.9399  -16.7113 C   0  0  0  0  0  0  0  0  0  0  0  0
   26.3006  -19.8319  -16.5044 C   0  0  0  0  0  0  0  0  0  0  0  0
   26.7181  -18.7659  -15.9827 O   0  0  0  0  0  0  0  0  0  0  0  0
   27.0212  -21.7877  -14.3727 C   0  0  0  0  0  0  0  0  0  0  0  0
   26.4923  -22.9151  -14.2501 O   0  0  0  0  0  0  0  0  0  0  0  0
   24.9723  -19.8823  -16.8494 O   0  0  0  0  0  0  0  0  0  0  0  0
   26.7111  -20.8165  -13.3904 N   0  0  0  0  0  0  0  0  0  0  0  0
   25.8217  -21.1509  -12.2645 C   0  0  1  0  0  0  0  0  0  0  0  0
   26.1587  -20.3420  -11.0705 C   0  0  0  0  0  0  0  0  0  0  0  0
   27.3443  -20.8333  -10.3589 C   0  0  0  0  0  0  0  0  0  0  0  0
   28.4103  -21.5873  -10.8684 C   0  0  0  0  0  0  0  0  0  0  0  0
   29.2656  -21.8553   -9.8697 N   0  0  0  0  0  0  0  0  0  0  0  0
   28.8432  -21.3285   -8.7150 C   0  0  0  0  0  0  0  0  0  0  0  0
   29.3395  -21.3136   -7.4133 C   0  0  0  0  0  0  0  0  0  0  0  0
   28.6345  -20.6581   -6.4124 C   0  0  0  0  0  0  0  0  0  0  0  0
   27.4512  -20.0230   -6.6907 C   0  0  0  0  0  0  0  0  0  0  0  0
   26.9800  -20.0535   -7.9948 C   0  0  0  0  0  0  0  0  0  0  0  0
   27.6611  -20.6962   -9.0013 C   0  0  0  0  0  0  0  0  0  0  0  0
   24.4625  -20.8170  -12.7190 C   0  0  0  0  0  0  0  0  0  0  0  0
   24.1922  -19.5742  -12.8847 O   0  0  0  0  0  0  0  0  0  0  0  0
   23.4192  -21.7170  -13.0004 N   0  0  0  0  0  0  0  0  0  0  0  0
   22.1022  -21.2785  -13.3970 C   0  0  1  0  0  0  0  0  0  0  0  0
   21.4046  -22.3409  -14.2386 C   0  0  0  0  0  0  0  0  0  0  0  0
   22.2277  -23.9350  -13.9718 S   0  0  0  0  0  0  0  0  0  0  0  0
   21.1984  -20.9267  -12.3105 C   0  0  0  0  0  0  0  0  0  0  0  0
   21.5942  -21.1952  -11.1221 O   0  0  0  0  0  0  0  0  0  0  0  0
   19.9584  -20.3349  -12.3986 O   0  0  0  0  0  0  0  0  0  0  0  0
  2  1  1  6
  2  6  1  0
  3  2  1  0
  3  4  1  0
  4  8  1  0
  5  4  2  0
  6  9  1  0
  7  6  2  0
  9 10  1  0
 10 11  1  1
 12 11  1  0
 13 12  2  0
 14 13  1  0
 15 14  1  0
 15 20  2  0
 16 15  1  0
 17 16  2  0
 17 18  1  0
 18 19  2  0
 19 20  1  0
 20 12  1  0
 21 22  2  0
 21 10  1  0
 23 21  1  0
 24 23  1  0
 24 27  1  0
 24 25  1  1
 26 25  1  0
 27 29  1  0
 28 27  2  0
M  END
$$$$
