FSV.pdb
     RDKit          3D

 25 25  0  0  1  0  0  0  0  0999 V2000
    6.6899  -18.2260   20.1047 N   0  0  0  0  0  0  0  0  0  0  0  0
    7.0493  -16.9546   20.6666 C   0  0  1  0  0  0  0  0  0  0  0  0
    6.2083  -15.8852   20.0048 C   0  0  0  0  0  0  0  0  0  0  0  0
    6.9823  -14.6289   20.0180 C   0  0  0  0  0  0  0  0  0  0  0  0
    7.7343  -14.2911   18.9252 C   0  0  0  0  0  0  0  0  0  0  0  0
    8.4722  -13.1209   18.9035 C   0  0  0  0  0  0  0  0  0  0  0  0
    8.4341  -12.2916   20.0186 C   0  0  0  0  0  0  0  0  0  0  0  0
    7.6811  -12.6278   21.1152 C   0  0  0  0  0  0  0  0  0  0  0  0
    6.9569  -13.8041   21.1021 C   0  0  0  0  0  0  0  0  0  0  0  0
    6.7699  -16.8926   22.1200 C   0  0  0  0  0  0  0  0  0  0  0  0
    5.6069  -16.7163   22.5436 O   0  0  0  0  0  0  0  0  0  0  0  0
    7.3917  -18.1653   26.5662 O   0  0  0  0  0  0  0  0  0  0  0  0
    7.7348  -18.2663   25.2260 C   0  0  0  0  0  0  0  0  0  0  0  0
    7.4768  -17.0005   24.4741 C   0  0  2  0  0  0  0  0  0  0  0  0
    7.7826  -17.0266   23.0950 N   0  0  0  0  0  0  0  0  0  0  0  0
    8.2925  -15.9098   25.1016 C   0  0  0  0  0  0  0  0  0  0  0  0
    9.5102  -15.7561   24.8252 O   0  0  0  0  0  0  0  0  0  0  0  0
    6.5413  -13.1900   27.9651 C   0  0  0  0  0  0  0  0  0  0  0  0
    7.6612  -12.8427   27.0481 C   0  0  2  0  0  0  0  0  0  0  0  0
    7.2090  -12.2217   25.7512 C   0  0  0  0  0  0  0  0  0  0  0  0
    8.5637  -14.0368   26.7488 C   0  0  2  0  0  0  0  0  0  0  0  0
    7.7338  -14.9947   26.0393 N   0  0  0  0  0  0  0  0  0  0  0  0
    9.1489  -14.6082   27.9750 C   0  0  0  0  0  0  0  0  0  0  0  0
   10.1472  -13.9127   28.6145 O   0  0  0  0  0  0  0  0  0  0  0  0
    8.7566  -15.6964   28.4321 O   0  0  0  0  0  0  0  0  0  0  0  0
  2  1  1  6
  2 10  1  0
  3  2  1  0
  4  3  1  0
  5  4  2  0
  6  5  1  0
  7  6  2  0
  7  8  1  0
  8  9  2  0
  9  4  1  0
 10 11  2  0
 12 13  1  0
 14 13  1  1
 15 10  1  0
 15 14  1  0
 16 14  1  0
 16 17  2  0
 19 18  1  6
 19 21  1  0
 20 19  1  0
 21 22  1  1
 22 16  1  0
 23 21  1  0
 23 24  1  0
 25 23  2  0
M  END
$$$$
