FSV.pdb
     RDKit          3D

 25 25  0  0  1  0  0  0  0  0999 V2000
    7.4048  -17.5300   19.4656 N   0  0  0  0  0  0  0  0  0  0  0  0
    7.7625  -16.4222   20.3061 C   0  0  1  0  0  0  0  0  0  0  0  0
    6.6741  -15.3762   20.2063 C   0  0  0  0  0  0  0  0  0  0  0  0
    7.0812  -14.2205   21.0285 C   0  0  0  0  0  0  0  0  0  0  0  0
    6.6922  -14.1577   22.3394 C   0  0  0  0  0  0  0  0  0  0  0  0
    7.0561  -13.0888   23.1391 C   0  0  0  0  0  0  0  0  0  0  0  0
    7.8279  -12.0757   22.5819 C   0  0  0  0  0  0  0  0  0  0  0  0
    8.2191  -12.1362   21.2681 C   0  0  0  0  0  0  0  0  0  0  0  0
    7.8375  -13.2185   20.4992 C   0  0  0  0  0  0  0  0  0  0  0  0
    7.8597  -16.8167   21.7306 C   0  0  0  0  0  0  0  0  0  0  0  0
    7.0224  -17.5923   22.2409 O   0  0  0  0  0  0  0  0  0  0  0  0
   10.2948  -18.7049   25.0205 O   0  0  0  0  0  0  0  0  0  0  0  0
   10.0164  -18.1943   23.7613 C   0  0  0  0  0  0  0  0  0  0  0  0
    9.1524  -16.9759   23.8179 C   0  0  2  0  0  0  0  0  0  0  0  0
    8.8855  -16.3483   22.5806 N   0  0  0  0  0  0  0  0  0  0  0  0
    9.8218  -15.9691   24.7050 C   0  0  0  0  0  0  0  0  0  0  0  0
   10.8231  -15.3131   24.3180 O   0  0  0  0  0  0  0  0  0  0  0  0
    7.9797  -14.3191   28.0974 C   0  0  0  0  0  0  0  0  0  0  0  0
    9.1926  -13.7846   27.4199 C   0  0  2  0  0  0  0  0  0  0  0  0
    8.8837  -12.8661   26.2654 C   0  0  0  0  0  0  0  0  0  0  0  0
   10.1338  -14.8898   26.9484 C   0  0  2  0  0  0  0  0  0  0  0  0
    9.3612  -15.7039   26.0265 N   0  0  0  0  0  0  0  0  0  0  0  0
   10.6679  -15.6781   28.0735 C   0  0  0  0  0  0  0  0  0  0  0  0
   11.6265  -15.1107   28.8789 O   0  0  0  0  0  0  0  0  0  0  0  0
   10.2682  -16.8338   28.3004 O   0  0  0  0  0  0  0  0  0  0  0  0
  2  1  1  6
  2 10  1  0
  3  2  1  0
  4  3  1  0
  5  4  2  0
  6  5  1  0
  7  6  2  0
  7  8  1  0
  8  9  2  0
  9  4  1  0
 10 11  2  0
 12 13  1  0
 14 13  1  6
 15 10  1  0
 15 14  1  0
 16 14  1  0
 16 17  2  0
 19 18  1  6
 19 21  1  0
 20 19  1  0
 21 22  1  6
 22 16  1  0
 23 21  1  0
 23 24  1  0
 25 23  2  0
M  END
$$$$
