FSV.pdb
     RDKit          3D

 25 25  0  0  1  0  0  0  0  0999 V2000
    6.0529  -17.8915   20.4625 N   0  0  0  0  0  0  0  0  0  0  0  0
    6.7919  -16.7853   21.0024 C   0  0  1  0  0  0  0  0  0  0  0  0
    5.9283  -15.5461   20.9154 C   0  0  0  0  0  0  0  0  0  0  0  0
    6.8233  -14.3738   20.8688 C   0  0  0  0  0  0  0  0  0  0  0  0
    7.4771  -14.0731   19.7044 C   0  0  0  0  0  0  0  0  0  0  0  0
    8.3236  -12.9815   19.6252 C   0  0  0  0  0  0  0  0  0  0  0  0
    8.4974  -12.1931   20.7570 C   0  0  0  0  0  0  0  0  0  0  0  0
    7.8432  -12.4924   21.9254 C   0  0  0  0  0  0  0  0  0  0  0  0
    7.0056  -13.5900   21.9681 C   0  0  0  0  0  0  0  0  0  0  0  0
    7.1242  -16.9863   22.4319 C   0  0  0  0  0  0  0  0  0  0  0  0
    6.2244  -17.1599   23.2823 O   0  0  0  0  0  0  0  0  0  0  0  0
   10.8859  -18.2035   23.8803 O   0  0  0  0  0  0  0  0  0  0  0  0
    9.6896  -18.3328   24.5702 C   0  0  0  0  0  0  0  0  0  0  0  0
    8.7374  -17.2191   24.2749 C   0  0  2  0  0  0  0  0  0  0  0  0
    8.4531  -16.9935   22.9095 N   0  0  0  0  0  0  0  0  0  0  0  0
    9.3109  -15.9526   24.8367 C   0  0  0  0  0  0  0  0  0  0  0  0
   10.1648  -15.2791   24.2043 O   0  0  0  0  0  0  0  0  0  0  0  0
    7.5497  -13.6732   27.8827 C   0  0  0  0  0  0  0  0  0  0  0  0
    8.6903  -13.2627   27.0189 C   0  0  2  0  0  0  0  0  0  0  0  0
    8.2657  -12.6772   25.6964 C   0  0  0  0  0  0  0  0  0  0  0  0
    9.6775  -14.4007   26.7739 C   0  0  2  0  0  0  0  0  0  0  0  0
    8.9207  -15.4479   26.1103 N   0  0  0  0  0  0  0  0  0  0  0  0
   10.2999  -14.8713   28.0244 C   0  0  0  0  0  0  0  0  0  0  0  0
    9.9928  -16.1314   28.4795 O   0  0  0  0  0  0  0  0  0  0  0  0
   11.0883  -14.1529   28.6643 O   0  0  0  0  0  0  0  0  0  0  0  0
  2  1  1  1
  2 10  1  0
  3  2  1  0
  4  3  1  0
  5  4  2  0
  6  5  1  0
  7  6  2  0
  7  8  1  0
  8  9  2  0
  9  4  1  0
 10 11  2  0
 12 13  1  0
 14 13  1  6
 15 10  1  0
 15 14  1  0
 16 14  1  0
 16 17  2  0
 19 18  1  6
 19 21  1  0
 20 19  1  0
 21 22  1  1
 22 16  1  0
 23 21  1  0
 23 24  1  0
 25 23  2  0
M  END
$$$$
