FSV.pdb
     RDKit          3D

 25 25  0  0  1  0  0  0  0  0999 V2000
    5.7417  -16.1655   24.9889 N   0  0  0  0  0  0  0  0  0  0  0  0
    7.0195  -15.5639   24.7308 C   0  0  1  0  0  0  0  0  0  0  0  0
    7.3559  -14.6442   25.8840 C   0  0  0  0  0  0  0  0  0  0  0  0
    6.6467  -13.3686   25.6666 C   0  0  0  0  0  0  0  0  0  0  0  0
    7.1389  -12.4725   24.7564 C   0  0  0  0  0  0  0  0  0  0  0  0
    6.4995  -11.2671   24.5274 C   0  0  0  0  0  0  0  0  0  0  0  0
    5.3421  -10.9833   25.2434 C   0  0  0  0  0  0  0  0  0  0  0  0
    4.8466  -11.8799   26.1563 C   0  0  0  0  0  0  0  0  0  0  0  0
    5.5111  -13.0738   26.3593 C   0  0  0  0  0  0  0  0  0  0  0  0
    8.1003  -16.5735   24.6480 C   0  0  0  0  0  0  0  0  0  0  0  0
    8.0880  -17.5890   25.3773 O   0  0  0  0  0  0  0  0  0  0  0  0
   11.3503  -15.9918   22.1214 O   0  0  0  0  0  0  0  0  0  0  0  0
   11.3180  -17.2145   22.7756 C   0  0  0  0  0  0  0  0  0  0  0  0
   10.3599  -17.2226   23.9229 C   0  0  2  0  0  0  0  0  0  0  0  0
    9.1885  -16.4506   23.7564 N   0  0  0  0  0  0  0  0  0  0  0  0
   11.0775  -16.7071   25.1345 C   0  0  0  0  0  0  0  0  0  0  0  0
   11.9116  -15.7685   25.0562 O   0  0  0  0  0  0  0  0  0  0  0  0
   11.0689  -14.3756   27.1384 C   0  0  0  0  0  0  0  0  0  0  0  0
   10.8844  -15.5245   28.0668 C   0  0  2  0  0  0  0  0  0  0  0  0
   11.2966  -15.2261   29.4857 C   0  0  0  0  0  0  0  0  0  0  0  0
   11.6000  -16.7845   27.5873 C   0  0  2  0  0  0  0  0  0  0  0  0
   10.8534  -17.2507   26.4319 N   0  0  0  0  0  0  0  0  0  0  0  0
   11.6852  -17.8079   28.6446 C   0  0  0  0  0  0  0  0  0  0  0  0
   12.6698  -17.6911   29.5967 O   0  0  0  0  0  0  0  0  0  0  0  0
   10.8889  -18.7625   28.6860 O   0  0  0  0  0  0  0  0  0  0  0  0
  2  1  1  1
  2 10  1  0
  3  2  1  0
  4  3  1  0
  5  4  2  0
  6  5  1  0
  7  6  2  0
  7  8  1  0
  8  9  2  0
  9  4  1  0
 10 11  2  0
 12 13  1  0
 14 13  1  6
 15 10  1  0
 15 14  1  0
 16 14  1  0
 16 17  2  0
 19 18  1  6
 19 21  1  0
 20 19  1  0
 21 22  1  6
 22 16  1  0
 23 21  1  0
 23 24  1  0
 25 23  2  0
M  END
$$$$
