FSV.pdb
     RDKit          3D

 25 25  0  0  1  0  0  0  0  0999 V2000
    8.2160  -17.4515   19.2524 N   0  0  0  0  0  0  0  0  0  0  0  0
    8.3455  -16.3484   20.1622 C   0  0  1  0  0  0  0  0  0  0  0  0
    7.0893  -15.5095   20.0774 C   0  0  0  0  0  0  0  0  0  0  0  0
    7.2580  -14.3510   20.9755 C   0  0  0  0  0  0  0  0  0  0  0  0
    6.7684  -14.4133   22.2524 C   0  0  0  0  0  0  0  0  0  0  0  0
    6.9089  -13.3457   23.1212 C   0  0  0  0  0  0  0  0  0  0  0  0
    7.5601  -12.2037   22.6693 C   0  0  0  0  0  0  0  0  0  0  0  0
    8.0518  -12.1386   21.3899 C   0  0  0  0  0  0  0  0  0  0  0  0
    7.8935  -13.2236   20.5497 C   0  0  0  0  0  0  0  0  0  0  0  0
    8.4740  -16.8012   21.5667 C   0  0  0  0  0  0  0  0  0  0  0  0
    7.5678  -17.4677   22.1123 O   0  0  0  0  0  0  0  0  0  0  0  0
   12.1088  -17.6833   23.2629 O   0  0  0  0  0  0  0  0  0  0  0  0
   10.8754  -18.1745   23.6649 C   0  0  0  0  0  0  0  0  0  0  0  0
    9.8023  -17.1354   23.6105 C   0  0  2  0  0  0  0  0  0  0  0  0
    9.6074  -16.5119   22.3579 N   0  0  0  0  0  0  0  0  0  0  0  0
   10.1375  -16.0649   24.6057 C   0  0  0  0  0  0  0  0  0  0  0  0
   10.2823  -14.8645   24.2579 O   0  0  0  0  0  0  0  0  0  0  0  0
    8.9796  -13.8161   25.6206 C   0  0  0  0  0  0  0  0  0  0  0  0
    9.2176  -14.4625   26.9402 C   0  0  2  0  0  0  0  0  0  0  0  0
    9.2273  -13.4929   28.0943 C   0  0  0  0  0  0  0  0  0  0  0  0
   10.5009  -15.2885   26.9637 C   0  0  2  0  0  0  0  0  0  0  0  0
   10.3089  -16.3497   25.9908 N   0  0  0  0  0  0  0  0  0  0  0  0
   10.7954  -15.8138   28.3091 C   0  0  0  0  0  0  0  0  0  0  0  0
   11.6628  -15.1142   29.1140 O   0  0  0  0  0  0  0  0  0  0  0  0
   10.2766  -16.8669   28.7197 O   0  0  0  0  0  0  0  0  0  0  0  0
  2  1  1  6
  2 10  1  0
  3  2  1  0
  4  3  1  0
  5  4  2  0
  6  5  1  0
  7  6  2  0
  7  8  1  0
  8  9  2  0
  9  4  1  0
 10 11  2  0
 12 13  1  0
 14 13  1  6
 15 10  1  0
 15 14  1  0
 16 14  1  0
 16 17  2  0
 19 18  1  6
 19 21  1  0
 20 19  1  0
 21 22  1  6
 22 16  1  0
 23 21  1  0
 23 24  1  0
 25 23  2  0
M  END
$$$$
