FRF.pdb
     RDKit          3D

 34 35  0  0  1  0  0  0  0  0999 V2000
    6.0087  -17.9170   26.0949 N   0  0  0  0  0  0  0  0  0  0  0  0
    6.2538  -16.5439   25.7015 C   0  0  1  0  0  0  0  0  0  0  0  0
    6.5191  -15.7598   26.9599 C   0  0  0  0  0  0  0  0  0  0  0  0
    6.5407  -14.3253   26.7580 C   0  0  0  0  0  0  0  0  0  0  0  0
    5.3836  -13.5907   26.8444 C   0  0  0  0  0  0  0  0  0  0  0  0
    5.3654  -12.2169   26.6577 C   0  0  0  0  0  0  0  0  0  0  0  0
    6.5429  -11.5638   26.3764 C   0  0  0  0  0  0  0  0  0  0  0  0
    7.7153  -12.2679   26.2832 C   0  0  0  0  0  0  0  0  0  0  0  0
    7.6996  -13.6371   26.4749 C   0  0  0  0  0  0  0  0  0  0  0  0
    7.3493  -16.5291   24.7509 C   0  0  0  0  0  0  0  0  0  0  0  0
    8.2607  -17.3924   24.8225 O   0  0  0  0  0  0  0  0  0  0  0  0
    8.6588  -15.3436   16.3520 N   0  0  0  0  0  0  0  0  0  0  0  0
    8.2431  -14.2157   17.0899 C   0  0  0  0  0  0  0  0  0  0  0  0
    8.0422  -13.0982   16.4363 N   0  0  0  0  0  0  0  0  0  0  0  0
    8.0532  -14.3022   18.4883 N   0  0  0  0  0  0  0  0  0  0  0  0
    9.0947  -13.9103   19.3750 C   0  0  0  0  0  0  0  0  0  0  0  0
    9.3733  -14.9364   20.4531 C   0  0  0  0  0  0  0  0  0  0  0  0
    8.3277  -14.7734   21.5236 C   0  0  0  0  0  0  0  0  0  0  0  0
    8.5556  -15.6703   22.7087 C   0  0  2  0  0  0  0  0  0  0  0  0
    7.4968  -15.5800   23.6899 N   0  0  0  0  0  0  0  0  0  0  0  0
    9.8450  -15.4138   23.3801 C   0  0  0  0  0  0  0  0  0  0  0  0
   10.2151  -14.2199   23.5153 O   0  0  0  0  0  0  0  0  0  0  0  0
    7.7837  -12.2226   16.9230 N   0  0  0  0  0  0  0  0  0  0  0  0
   10.6929  -16.4124   23.8817 C   0  0  1  0  0  0  0  0  0  0  0  0
   12.0876  -16.1336   24.1363 C   0  0  0  0  0  0  0  0  0  0  0  0
   12.2343  -14.9465   25.0697 C   0  0  0  0  0  0  0  0  0  0  0  0
   11.4508  -15.1653   26.3037 C   0  0  0  0  0  0  0  0  0  0  0  0
   11.2046  -16.4469   26.7915 C   0  0  0  0  0  0  0  0  0  0  0  0
   10.4949  -16.6920   27.9350 C   0  0  0  0  0  0  0  0  0  0  0  0
    9.9863  -15.6556   28.6623 C   0  0  0  0  0  0  0  0  0  0  0  0
   10.1992  -14.3646   28.2267 C   0  0  0  0  0  0  0  0  0  0  0  0
   10.9170  -14.1361   27.0717 C   0  0  0  0  0  0  0  0  0  0  0  0
   12.7418  -17.3535   24.6080 O   0  0  0  0  0  0  0  0  0  0  0  0
   12.0381  -18.4054   24.7502 O   0  0  0  0  0  0  0  0  0  0  0  0
  2  1  1  1
  2  3  1  0
  3  4  1  0
  4  5  2  0
  4  9  1  0
  5  6  1  0
  6  7  2  0
  8  7  1  0
  9  8  2  0
 10 20  1  0
 10  2  1  0
 11 10  2  0
 13 12  1  0
 13 15  1  0
 14 13  2  0
 16 15  1  0
 16 17  1  0
 17 18  1  0
 19 18  1  6
 19 21  1  0
 19 20  1  0
 21 23  1  0
 22 21  2  0
 23 24  1  0
 24 32  1  0
 24 25  1  6
 25 26  1  0
 26 27  2  0
 27 28  1  0
 29 28  2  0
 30 29  1  0
 31 26  1  0
 31 30  2  0
 32 34  1  0
 33 32  2  0
M  END
$$$$
