FRF.pdb
     RDKit          3D

 34 35  0  0  1  0  0  0  0  0999 V2000
    5.1434  -17.9345   20.0899 N   0  0  0  0  0  0  0  0  0  0  0  0
    6.1857  -16.9983   20.4604 C   0  0  1  0  0  0  0  0  0  0  0  0
    5.6371  -15.6120   20.2461 C   0  0  0  0  0  0  0  0  0  0  0  0
    6.6121  -14.5613   20.4567 C   0  0  0  0  0  0  0  0  0  0  0  0
    7.5333  -14.2586   19.4841 C   0  0  0  0  0  0  0  0  0  0  0  0
    8.4809  -13.2600   19.6498 C   0  0  0  0  0  0  0  0  0  0  0  0
    8.5030  -12.5462   20.8255 C   0  0  0  0  0  0  0  0  0  0  0  0
    7.5972  -12.8236   21.8162 C   0  0  0  0  0  0  0  0  0  0  0  0
    6.6650  -13.8256   21.6199 C   0  0  0  0  0  0  0  0  0  0  0  0
    6.5837  -17.2744   21.8276 C   0  0  0  0  0  0  0  0  0  0  0  0
    5.7492  -17.1708   22.7625 O   0  0  0  0  0  0  0  0  0  0  0  0
    6.7632  -21.8810   27.7129 N   0  0  0  0  0  0  0  0  0  0  0  0
    7.8861  -21.1185   28.0963 C   0  0  0  0  0  0  0  0  0  0  0  0
    8.6666  -21.6065   29.0284 N   0  0  0  0  0  0  0  0  0  0  0  0
    8.1490  -19.8702   27.4865 N   0  0  0  0  0  0  0  0  0  0  0  0
    7.8390  -19.6684   26.1126 C   0  0  0  0  0  0  0  0  0  0  0  0
    9.0594  -19.7079   25.2171 C   0  0  0  0  0  0  0  0  0  0  0  0
    8.6077  -19.4130   23.8117 C   0  0  0  0  0  0  0  0  0  0  0  0
    8.2310  -17.9720   23.6060 C   0  0  2  0  0  0  0  0  0  0  0  0
    7.8980  -17.6721   22.2309 N   0  0  0  0  0  0  0  0  0  0  0  0
    9.2826  -17.0370   24.0521 C   0  0  0  0  0  0  0  0  0  0  0  0
   10.0744  -16.5805   23.1887 O   0  0  0  0  0  0  0  0  0  0  0  0
    9.4815  -21.0791   29.3865 N   0  0  0  0  0  0  0  0  0  0  0  0
    9.4639  -16.6181   25.3785 C   0  0  2  0  0  0  0  0  0  0  0  0
   10.5802  -15.7738   25.7373 C   0  0  0  0  0  0  0  0  0  0  0  0
   10.3421  -14.3477   25.2770 C   0  0  0  0  0  0  0  0  0  0  0  0
    9.2260  -13.7444   26.0351 C   0  0  0  0  0  0  0  0  0  0  0  0
    8.0085  -13.4485   25.4257 C   0  0  0  0  0  0  0  0  0  0  0  0
    6.9475  -12.9012   26.0936 C   0  0  0  0  0  0  0  0  0  0  0  0
    7.0475  -12.6162   27.4241 C   0  0  0  0  0  0  0  0  0  0  0  0
    8.2299  -12.8882   28.0796 C   0  0  0  0  0  0  0  0  0  0  0  0
    9.2892  -13.4401   27.3906 C   0  0  0  0  0  0  0  0  0  0  0  0
   10.8408  -15.9072   27.1701 O   0  0  0  0  0  0  0  0  0  0  0  0
   11.8395  -15.2927   27.6668 O   0  0  0  0  0  0  0  0  0  0  0  0
  2  1  1  1
  2  3  1  0
  3  4  1  0
  4  5  2  0
  4  9  1  0
  5  6  1  0
  6  7  2  0
  8  7  1  0
  9  8  2  0
 10 20  1  0
 10  2  1  0
 11 10  2  0
 13 12  1  0
 13 15  1  0
 14 13  2  0
 16 15  1  0
 16 17  1  0
 17 18  1  0
 19 18  1  6
 19 21  1  0
 19 20  1  0
 21 23  1  0
 22 21  2  0
 23 24  1  0
 24 32  1  0
 24 25  1  6
 25 26  1  0
 26 27  2  0
 27 28  1  0
 29 28  2  0
 30 29  1  0
 31 26  1  0
 31 30  2  0
 32 34  1  0
 33 32  2  0
M  END
$$$$
