FRF.pdb
     RDKit          3D

 34 35  0  0  1  0  0  0  0  0999 V2000
    6.2063  -18.1949   25.5787 N   0  0  0  0  0  0  0  0  0  0  0  0
    6.4345  -16.8351   25.1323 C   0  0  1  0  0  0  0  0  0  0  0  0
    6.4424  -15.9588   26.3573 C   0  0  0  0  0  0  0  0  0  0  0  0
    6.2176  -14.5564   26.0710 C   0  0  0  0  0  0  0  0  0  0  0  0
    5.0033  -13.9746   26.3413 C   0  0  0  0  0  0  0  0  0  0  0  0
    4.7517  -12.6361   26.0813 C   0  0  0  0  0  0  0  0  0  0  0  0
    5.7481  -11.8613   25.5345 C   0  0  0  0  0  0  0  0  0  0  0  0
    6.9716  -12.4115   25.2528 C   0  0  0  0  0  0  0  0  0  0  0  0
    7.1906  -13.7495   25.5241 C   0  0  0  0  0  0  0  0  0  0  0  0
    7.6697  -16.8044   24.3725 C   0  0  0  0  0  0  0  0  0  0  0  0
    8.6370  -17.5343   24.7079 O   0  0  0  0  0  0  0  0  0  0  0  0
    7.1620  -14.1990   17.0327 N   0  0  0  0  0  0  0  0  0  0  0  0
    8.3749  -13.8447   17.6595 C   0  0  0  0  0  0  0  0  0  0  0  0
    8.7367  -12.5862   17.6229 N   0  0  0  0  0  0  0  0  0  0  0  0
    9.1644  -14.8257   18.3026 N   0  0  0  0  0  0  0  0  0  0  0  0
    8.5444  -15.9465   18.9221 C   0  0  0  0  0  0  0  0  0  0  0  0
    7.9395  -15.6194   20.2711 C   0  0  0  0  0  0  0  0  0  0  0  0
    9.0616  -15.2273   21.1948 C   0  0  0  0  0  0  0  0  0  0  0  0
    9.1155  -16.0651   22.4421 C   0  0  2  0  0  0  0  0  0  0  0  0
    7.9012  -15.9829   23.2236 N   0  0  0  0  0  0  0  0  0  0  0  0
   10.2598  -15.7247   23.3103 C   0  0  0  0  0  0  0  0  0  0  0  0
   10.2046  -14.6566   23.9714 O   0  0  0  0  0  0  0  0  0  0  0  0
    9.6520  -12.2726   17.9894 N   0  0  0  0  0  0  0  0  0  0  0  0
   11.4123  -16.5117   23.4521 C   0  0  1  0  0  0  0  0  0  0  0  0
   12.1099  -16.5736   24.7159 C   0  0  0  0  0  0  0  0  0  0  0  0
   11.1375  -16.8309   25.8518 C   0  0  0  0  0  0  0  0  0  0  0  0
   11.1612  -15.7066   26.8109 C   0  0  0  0  0  0  0  0  0  0  0  0
   11.0461  -14.3849   26.3855 C   0  0  0  0  0  0  0  0  0  0  0  0
   11.0517  -13.3173   27.2408 C   0  0  0  0  0  0  0  0  0  0  0  0
   11.1741  -13.5157   28.5852 C   0  0  0  0  0  0  0  0  0  0  0  0
   11.2913  -14.8038   29.0633 C   0  0  0  0  0  0  0  0  0  0  0  0
   11.2837  -15.8682   28.1867 C   0  0  0  0  0  0  0  0  0  0  0  0
   13.1925  -17.5520   24.6182 O   0  0  0  0  0  0  0  0  0  0  0  0
   13.9698  -17.7011   25.6158 O   0  0  0  0  0  0  0  0  0  0  0  0
  2  1  1  1
  2  3  1  0
  3  4  1  0
  4  5  2  0
  4  9  1  0
  5  6  1  0
  6  7  2  0
  8  7  1  0
  9  8  2  0
 10 20  1  0
 10  2  1  0
 11 10  2  0
 13 12  1  0
 13 15  1  0
 14 13  2  0
 16 15  1  0
 16 17  1  0
 17 18  1  0
 19 18  1  6
 19 21  1  0
 19 20  1  0
 21 23  1  0
 22 21  2  0
 23 24  1  0
 24 32  1  0
 24 25  1  6
 25 26  1  0
 26 27  2  0
 27 28  1  0
 29 28  2  0
 30 29  1  0
 31 26  1  0
 31 30  2  0
 32 34  1  0
 33 32  2  0
M  END
$$$$
