FRF.pdb
     RDKit          3D

 34 35  0  0  1  0  0  0  0  0999 V2000
    5.3651  -18.0779   24.5224 N   0  0  0  0  0  0  0  0  0  0  0  0
    5.9258  -16.7434   24.5930 C   0  0  1  0  0  0  0  0  0  0  0  0
    6.2499  -16.4716   26.0386 C   0  0  0  0  0  0  0  0  0  0  0  0
    6.6110  -15.0940   26.3049 C   0  0  0  0  0  0  0  0  0  0  0  0
    6.4451  -14.5586   27.5587 C   0  0  0  0  0  0  0  0  0  0  0  0
    6.7795  -13.2451   27.8509 C   0  0  0  0  0  0  0  0  0  0  0  0
    7.2948  -12.4480   26.8553 C   0  0  0  0  0  0  0  0  0  0  0  0
    7.4728  -12.9518   25.5930 C   0  0  0  0  0  0  0  0  0  0  0  0
    7.1294  -14.2659   25.3341 C   0  0  0  0  0  0  0  0  0  0  0  0
    7.0718  -16.6812   23.7059 C   0  0  0  0  0  0  0  0  0  0  0  0
    7.8108  -17.6874   23.5558 O   0  0  0  0  0  0  0  0  0  0  0  0
    8.0004  -12.5032   16.1318 N   0  0  0  0  0  0  0  0  0  0  0  0
    8.3710  -13.8641   16.1197 C   0  0  0  0  0  0  0  0  0  0  0  0
    8.3745  -14.4862   14.9668 N   0  0  0  0  0  0  0  0  0  0  0  0
    8.7248  -14.5229   17.3198 N   0  0  0  0  0  0  0  0  0  0  0  0
    8.7071  -13.8150   18.5538 C   0  0  0  0  0  0  0  0  0  0  0  0
    9.2323  -14.6331   19.7147 C   0  0  0  0  0  0  0  0  0  0  0  0
    8.2159  -14.5633   20.8229 C   0  0  0  0  0  0  0  0  0  0  0  0
    8.4511  -15.5850   21.9007 C   0  0  2  0  0  0  0  0  0  0  0  0
    7.4579  -15.5285   22.9506 N   0  0  0  0  0  0  0  0  0  0  0  0
    9.7906  -15.4740   22.5110 C   0  0  0  0  0  0  0  0  0  0  0  0
   10.4755  -14.4513   22.2545 O   0  0  0  0  0  0  0  0  0  0  0  0
    8.6865  -15.4689   14.8801 N   0  0  0  0  0  0  0  0  0  0  0  0
   10.3586  -16.4334   23.3623 C   0  0  1  0  0  0  0  0  0  0  0  0
   10.8275  -16.0639   24.6781 C   0  0  0  0  0  0  0  0  0  0  0  0
    9.8484  -15.1189   25.3492 C   0  0  0  0  0  0  0  0  0  0  0  0
   10.3409  -14.7385   26.6899 C   0  0  0  0  0  0  0  0  0  0  0  0
    9.5465  -14.0181   27.5793 C   0  0  0  0  0  0  0  0  0  0  0  0
    9.9598  -13.6566   28.8323 C   0  0  0  0  0  0  0  0  0  0  0  0
   11.2056  -14.0003   29.2697 C   0  0  0  0  0  0  0  0  0  0  0  0
   12.0357  -14.7142   28.4313 C   0  0  0  0  0  0  0  0  0  0  0  0
   11.6027  -15.0702   27.1714 C   0  0  0  0  0  0  0  0  0  0  0  0
   11.1127  -17.2770   25.4434 O   0  0  0  0  0  0  0  0  0  0  0  0
   12.1485  -17.3000   26.1838 O   0  0  0  0  0  0  0  0  0  0  0  0
  2  1  1  1
  2  3  1  0
  3  4  1  0
  4  5  2  0
  4  9  1  0
  5  6  1  0
  6  7  2  0
  8  7  1  0
  9  8  2  0
 10 20  1  0
 10  2  1  0
 11 10  2  0
 13 12  1  0
 13 15  1  0
 14 13  2  0
 16 15  1  0
 16 17  1  0
 17 18  1  0
 19 18  1  6
 19 21  1  0
 19 20  1  0
 21 23  1  0
 22 21  2  0
 23 24  1  0
 24 32  1  0
 24 25  1  6
 25 26  1  0
 26 27  2  0
 27 28  1  0
 29 28  2  0
 30 29  1  0
 31 26  1  0
 31 30  2  0
 32 34  1  0
 33 32  2  0
M  END
$$$$
