FRF.pdb
     RDKit          3D

 34 35  0  0  1  0  0  0  0  0999 V2000
    5.4438  -16.7596   25.8571 N   0  0  0  0  0  0  0  0  0  0  0  0
    6.0154  -15.6182   25.1709 C   0  0  1  0  0  0  0  0  0  0  0  0
    6.7744  -14.8159   26.1951 C   0  0  0  0  0  0  0  0  0  0  0  0
    6.2654  -13.4715   26.3749 C   0  0  0  0  0  0  0  0  0  0  0  0
    6.7083  -12.4449   25.5774 C   0  0  0  0  0  0  0  0  0  0  0  0
    6.2440  -11.1461   25.7198 C   0  0  0  0  0  0  0  0  0  0  0  0
    5.3089  -10.8720   26.6907 C   0  0  0  0  0  0  0  0  0  0  0  0
    4.8462  -11.8743   27.5034 C   0  0  0  0  0  0  0  0  0  0  0  0
    5.3293  -13.1589   27.3356 C   0  0  0  0  0  0  0  0  0  0  0  0
    6.8310  -16.1050   24.0746 C   0  0  0  0  0  0  0  0  0  0  0  0
    7.5745  -17.1062   24.2354 O   0  0  0  0  0  0  0  0  0  0  0  0
    7.9136  -13.6311   15.8631 N   0  0  0  0  0  0  0  0  0  0  0  0
    9.0823  -14.3704   16.1405 C   0  0  0  0  0  0  0  0  0  0  0  0
    9.7785  -14.8168   15.1245 N   0  0  0  0  0  0  0  0  0  0  0  0
    9.4780  -14.6143   17.4759 N   0  0  0  0  0  0  0  0  0  0  0  0
    8.6389  -14.2134   18.5528 C   0  0  0  0  0  0  0  0  0  0  0  0
    9.1859  -14.6062   19.9090 C   0  0  0  0  0  0  0  0  0  0  0  0
    8.0756  -14.4534   20.9139 C   0  0  0  0  0  0  0  0  0  0  0  0
    8.0586  -15.5506   21.9418 C   0  0  2  0  0  0  0  0  0  0  0  0
    6.8707  -15.5255   22.7666 N   0  0  0  0  0  0  0  0  0  0  0  0
    9.2444  -15.5290   22.8207 C   0  0  0  0  0  0  0  0  0  0  0  0
    9.2210  -14.7777   23.8286 O   0  0  0  0  0  0  0  0  0  0  0  0
   10.6520  -15.3548   15.2582 N   0  0  0  0  0  0  0  0  0  0  0  0
   10.4034  -16.2910   22.6115 C   0  0  1  0  0  0  0  0  0  0  0  0
   11.5000  -16.2354   23.5507 C   0  0  0  0  0  0  0  0  0  0  0  0
   11.0788  -16.7908   24.8984 C   0  0  0  0  0  0  0  0  0  0  0  0
   10.8181  -15.6885   25.8479 C   0  0  0  0  0  0  0  0  0  0  0  0
   11.1759  -15.7852   27.1909 C   0  0  0  0  0  0  0  0  0  0  0  0
   10.9632  -14.7844   28.0990 C   0  0  0  0  0  0  0  0  0  0  0  0
   10.3735  -13.6176   27.7084 C   0  0  0  0  0  0  0  0  0  0  0  0
    9.9983  -13.4661   26.3902 C   0  0  0  0  0  0  0  0  0  0  0  0
   10.2205  -14.4853   25.4884 C   0  0  0  0  0  0  0  0  0  0  0  0
   12.6659  -16.8966   22.9659 O   0  0  0  0  0  0  0  0  0  0  0  0
   12.5150  -17.5518   21.8843 O   0  0  0  0  0  0  0  0  0  0  0  0
  2  1  1  1
  2  3  1  0
  3  4  1  0
  4  5  2  0
  4  9  1  0
  5  6  1  0
  6  7  2  0
  8  7  1  0
  9  8  2  0
 10 20  1  0
 10  2  1  0
 11 10  2  0
 13 12  1  0
 13 15  1  0
 14 13  2  0
 16 15  1  0
 16 17  1  0
 17 18  1  0
 19 18  1  6
 19 21  1  0
 19 20  1  0
 21 23  1  0
 22 21  2  0
 23 24  1  0
 24 32  1  0
 24 25  1  1
 25 26  1  0
 26 27  2  0
 27 28  1  0
 29 28  2  0
 30 29  1  0
 31 26  1  0
 31 30  2  0
 32 34  1  0
 33 32  2  0
M  END
$$$$
