MEK.pdb
     RDKit          3D

 27 26  0  0  1  0  0  0  0  0999 V2000
    7.7137  -11.4349   26.5269 C   0  0  0  0  0  0  0  0  0  0  0  0
    7.2367  -12.2442   24.9578 S   0  0  0  0  0  0  0  0  0  0  0  0
    6.9543  -14.0000   25.3651 C   0  0  0  0  0  0  0  0  0  0  0  0
    6.6625  -14.7827   24.1183 C   0  0  0  0  0  0  0  0  0  0  0  0
    6.4411  -16.2375   24.4839 C   0  0  2  0  0  0  0  0  0  0  0  0
    6.1220  -16.2844   25.9251 N   0  0  0  0  0  0  0  0  0  0  0  0
    7.6586  -17.0783   24.2713 C   0  0  0  0  0  0  0  0  0  0  0  0
    7.5188  -18.3410   24.1421 O   0  0  0  0  0  0  0  0  0  0  0  0
    8.9606  -16.5517   24.2035 N   0  0  0  0  0  0  0  0  0  0  0  0
   10.1819  -17.3246   23.9701 C   0  0  1  0  0  0  0  0  0  0  0  0
   11.0369  -16.5847   22.9740 C   0  0  0  0  0  0  0  0  0  0  0  0
   12.3704  -17.1801   22.7000 C   0  0  0  0  0  0  0  0  0  0  0  0
   13.0492  -16.2700   21.7169 C   0  0  0  0  0  0  0  0  0  0  0  0
   14.1001  -15.6673   21.9867 O   0  0  0  0  0  0  0  0  0  0  0  0
   10.8539  -17.5288   25.2682 C   0  0  0  0  0  0  0  0  0  0  0  0
   10.9040  -16.5878   26.1400 O   0  0  0  0  0  0  0  0  0  0  0  0
   12.4548  -16.1182   20.4713 O   0  0  0  0  0  0  0  0  0  0  0  0
   11.4896  -18.7201   25.6984 N   0  0  0  0  0  0  0  0  0  0  0  0
   11.9207  -18.9212   27.0687 C   0  0  1  0  0  0  0  0  0  0  0  0
   11.1098  -19.9939   27.7572 C   0  0  0  0  0  0  0  0  0  0  0  0
   11.5863  -20.3567   29.1258 C   0  0  0  0  0  0  0  0  0  0  0  0
   10.6609  -21.4668   29.6289 C   0  0  0  0  0  0  0  0  0  0  0  0
   11.1592  -21.9676   30.9850 C   0  0  0  0  0  0  0  0  0  0  0  0
   10.2487  -23.0137   31.4064 N   0  0  0  0  0  0  0  0  0  0  0  0
   13.3673  -19.1953   27.0944 C   0  0  0  0  0  0  0  0  0  0  0  0
   14.2327  -18.7709   28.0898 O   0  0  0  0  0  0  0  0  0  0  0  0
   13.8868  -19.8592   26.1613 O   0  0  0  0  0  0  0  0  0  0  0  0
  2  1  1  0
  3  2  1  0
  4  3  1  0
  5  4  1  0
  5  6  1  1
  7  8  2  0
  7  5  1  0
  9  7  1  0
 10  9  1  0
 11 12  1  0
 10 11  1  6
 13 14  2  0
 13 12  1  0
 15 10  1  0
 15 16  2  0
 17 13  1  0
 18 15  1  0
 19 20  1  6
 19 18  1  0
 21 20  1  0
 22 21  1  0
 23 22  1  0
 23 24  1  0
 25 19  1  0
 26 25  1  0
 27 25  2  0
M  END
$$$$
