MEK.pdb
     RDKit          3D

 27 26  0  0  1  0  0  0  0  0999 V2000
    8.1433  -11.1971   20.0631 C   0  0  0  0  0  0  0  0  0  0  0  0
    7.4914  -12.1419   18.6395 S   0  0  0  0  0  0  0  0  0  0  0  0
    8.4378  -13.7010   18.5968 C   0  0  0  0  0  0  0  0  0  0  0  0
    8.1897  -14.4943   19.8464 C   0  0  0  0  0  0  0  0  0  0  0  0
    9.5002  -15.0834   20.3307 C   0  0  2  0  0  0  0  0  0  0  0  0
    9.9724  -16.0189   19.2901 N   0  0  0  0  0  0  0  0  0  0  0  0
    9.3495  -15.8658   21.5956 C   0  0  0  0  0  0  0  0  0  0  0  0
    8.8282  -15.2960   22.6125 O   0  0  0  0  0  0  0  0  0  0  0  0
    9.7518  -17.2066   21.7287 N   0  0  0  0  0  0  0  0  0  0  0  0
    9.5819  -18.0329   22.9252 C   0  0  1  0  0  0  0  0  0  0  0  0
    9.9289  -19.4579   22.5795 C   0  0  0  0  0  0  0  0  0  0  0  0
   11.2899  -19.9047   22.9743 C   0  0  0  0  0  0  0  0  0  0  0  0
   11.4184  -21.3304   22.5199 C   0  0  0  0  0  0  0  0  0  0  0  0
   10.5209  -21.9087   21.8869 O   0  0  0  0  0  0  0  0  0  0  0  0
   10.4318  -17.4754   23.9954 C   0  0  0  0  0  0  0  0  0  0  0  0
   11.4161  -16.6991   23.7188 O   0  0  0  0  0  0  0  0  0  0  0  0
   12.5946  -21.9976   22.8351 O   0  0  0  0  0  0  0  0  0  0  0  0
   10.2790  -17.7062   25.3853 N   0  0  0  0  0  0  0  0  0  0  0  0
   10.0866  -16.6285   26.3368 C   0  0  1  0  0  0  0  0  0  0  0  0
    8.8780  -15.7896   25.9934 C   0  0  0  0  0  0  0  0  0  0  0  0
    8.6572  -14.6146   26.8890 C   0  0  0  0  0  0  0  0  0  0  0  0
    7.4251  -13.8831   26.3515 C   0  0  0  0  0  0  0  0  0  0  0  0
    7.1101  -12.6889   27.2531 C   0  0  0  0  0  0  0  0  0  0  0  0
    5.9864  -11.9960   26.6545 N   0  0  0  0  0  0  0  0  0  0  0  0
   10.0286  -17.1806   27.7008 C   0  0  0  0  0  0  0  0  0  0  0  0
    9.1448  -18.1634   28.1167 O   0  0  0  0  0  0  0  0  0  0  0  0
   10.8240  -16.7515   28.5751 O   0  0  0  0  0  0  0  0  0  0  0  0
  2  1  1  0
  3  2  1  0
  4  3  1  0
  5  4  1  0
  5  6  1  6
  7  8  2  0
  7  5  1  0
  9  7  1  0
 10  9  1  0
 11 12  1  0
 10 11  1  6
 13 14  2  0
 13 12  1  0
 15 10  1  0
 15 16  2  0
 17 13  1  0
 18 15  1  0
 19 20  1  6
 19 18  1  0
 21 20  1  0
 22 21  1  0
 23 22  1  0
 23 24  1  0
 25 19  1  0
 26 25  1  0
 27 25  2  0
M  END
$$$$
