MEK.pdb
     RDKit          3D

 27 26  0  0  1  0  0  0  0  0999 V2000
    9.3848  -11.4588   19.9131 C   0  0  0  0  0  0  0  0  0  0  0  0
    8.1965  -12.6088   19.1321 S   0  0  0  0  0  0  0  0  0  0  0  0
    8.0783  -14.0443   20.2518 C   0  0  0  0  0  0  0  0  0  0  0  0
    7.0327  -15.0023   19.7607 C   0  0  0  0  0  0  0  0  0  0  0  0
    6.9626  -16.1887   20.7023 C   0  0  2  0  0  0  0  0  0  0  0  0
    6.5632  -15.6742   22.0278 N   0  0  0  0  0  0  0  0  0  0  0  0
    8.2817  -16.8716   20.8703 C   0  0  0  0  0  0  0  0  0  0  0  0
    8.5843  -17.8273   20.0793 O   0  0  0  0  0  0  0  0  0  0  0  0
    9.2167  -16.5163   21.8586 N   0  0  0  0  0  0  0  0  0  0  0  0
   10.5063  -17.1707   22.0868 C   0  0  1  0  0  0  0  0  0  0  0  0
   11.3688  -16.9737   20.8669 C   0  0  0  0  0  0  0  0  0  0  0  0
   12.7102  -17.6108   20.9152 C   0  0  0  0  0  0  0  0  0  0  0  0
   13.6442  -16.6928   20.1799 C   0  0  0  0  0  0  0  0  0  0  0  0
   13.2969  -16.0650   19.1671 O   0  0  0  0  0  0  0  0  0  0  0  0
   11.1016  -16.6027   23.3121 C   0  0  0  0  0  0  0  0  0  0  0  0
   11.8813  -15.5844   23.2556 O   0  0  0  0  0  0  0  0  0  0  0  0
   14.9348  -16.5640   20.6754 O   0  0  0  0  0  0  0  0  0  0  0  0
   10.8988  -17.0754   24.6327 N   0  0  0  0  0  0  0  0  0  0  0  0
   10.4516  -16.2116   25.7086 C   0  0  1  0  0  0  0  0  0  0  0  0
    9.1529  -15.5199   25.3661 C   0  0  0  0  0  0  0  0  0  0  0  0
    8.6413  -14.5925   26.4196 C   0  0  0  0  0  0  0  0  0  0  0  0
    7.3118  -14.0379   25.9031 C   0  0  0  0  0  0  0  0  0  0  0  0
    6.7385  -13.0575   26.9269 C   0  0  0  0  0  0  0  0  0  0  0  0
    5.4849  -12.5710   26.3857 N   0  0  0  0  0  0  0  0  0  0  0  0
   10.3735  -16.9841   26.9599 C   0  0  0  0  0  0  0  0  0  0  0  0
   10.4910  -16.4423   28.2297 O   0  0  0  0  0  0  0  0  0  0  0  0
   10.1876  -18.2267   26.9079 O   0  0  0  0  0  0  0  0  0  0  0  0
  2  1  1  0
  3  2  1  0
  4  3  1  0
  5  4  1  0
  5  6  1  1
  7  8  2  0
  7  5  1  0
  9  7  1  0
 10  9  1  0
 11 12  1  0
 10 11  1  6
 13 14  2  0
 13 12  1  0
 15 10  1  0
 15 16  2  0
 17 13  1  0
 18 15  1  0
 19 20  1  6
 19 18  1  0
 21 20  1  0
 22 21  1  0
 23 22  1  0
 23 24  1  0
 25 19  1  0
 26 25  1  0
 27 25  2  0
M  END
$$$$
