MEK.pdb
     RDKit          3D

 27 26  0  0  1  0  0  0  0  0999 V2000
    8.4296  -11.4034   26.7589 C   0  0  0  0  0  0  0  0  0  0  0  0
    6.6571  -11.8516   26.7177 S   0  0  0  0  0  0  0  0  0  0  0  0
    6.4719  -13.0386   25.3447 C   0  0  0  0  0  0  0  0  0  0  0  0
    7.4739  -14.1480   25.4776 C   0  0  0  0  0  0  0  0  0  0  0  0
    7.3541  -15.0731   24.2822 C   0  0  2  0  0  0  0  0  0  0  0  0
    6.0301  -15.7227   24.3607 N   0  0  0  0  0  0  0  0  0  0  0  0
    8.3820  -16.1586   24.2866 C   0  0  0  0  0  0  0  0  0  0  0  0
    8.1803  -17.1933   25.0072 O   0  0  0  0  0  0  0  0  0  0  0  0
    9.5682  -16.1041   23.5335 N   0  0  0  0  0  0  0  0  0  0  0  0
   10.5888  -17.1520   23.4734 C   0  0  1  0  0  0  0  0  0  0  0  0
   11.5674  -16.8088   22.3801 C   0  0  0  0  0  0  0  0  0  0  0  0
   12.7313  -17.7226   22.2454 C   0  0  0  0  0  0  0  0  0  0  0  0
   13.5584  -17.1940   21.1087 C   0  0  0  0  0  0  0  0  0  0  0  0
   14.6041  -16.5510   21.2919 O   0  0  0  0  0  0  0  0  0  0  0  0
   11.2219  -17.2562   24.8026 C   0  0  0  0  0  0  0  0  0  0  0  0
   11.7129  -16.2214   25.3821 O   0  0  0  0  0  0  0  0  0  0  0  0
   13.1103  -17.4500   19.8197 O   0  0  0  0  0  0  0  0  0  0  0  0
   11.3582  -18.4402   25.5693 N   0  0  0  0  0  0  0  0  0  0  0  0
   12.0179  -18.4596   26.8609 C   0  0  1  0  0  0  0  0  0  0  0  0
   11.5255  -19.5988   27.7223 C   0  0  0  0  0  0  0  0  0  0  0  0
   12.2308  -19.7435   29.0313 C   0  0  0  0  0  0  0  0  0  0  0  0
   11.5724  -20.9217   29.7526 C   0  0  0  0  0  0  0  0  0  0  0  0
   12.1751  -21.0621   31.1508 C   0  0  0  0  0  0  0  0  0  0  0  0
   11.6192  -22.2698   31.7281 N   0  0  0  0  0  0  0  0  0  0  0  0
   13.4777  -18.4805   26.6678 C   0  0  0  0  0  0  0  0  0  0  0  0
   14.3684  -17.6244   27.2951 O   0  0  0  0  0  0  0  0  0  0  0  0
   13.9850  -19.3230   25.8841 O   0  0  0  0  0  0  0  0  0  0  0  0
  2  1  1  0
  3  2  1  0
  4  3  1  0
  5  4  1  0
  5  6  1  1
  7  8  2  0
  7  5  1  0
  9  7  1  0
 10  9  1  0
 11 12  1  0
 10 11  1  6
 13 14  2  0
 13 12  1  0
 15 10  1  0
 15 16  2  0
 17 13  1  0
 18 15  1  0
 19 20  1  6
 19 18  1  0
 21 20  1  0
 22 21  1  0
 23 22  1  0
 23 24  1  0
 25 19  1  0
 26 25  1  0
 27 25  2  0
M  END
$$$$
