MEK.pdb
     RDKit          3D

 27 26  0  0  1  0  0  0  0  0999 V2000
    7.5014  -11.5611   19.1328 C   0  0  0  0  0  0  0  0  0  0  0  0
    8.0851  -12.7783   20.3665 S   0  0  0  0  0  0  0  0  0  0  0  0
    6.7935  -14.0639   20.4523 C   0  0  0  0  0  0  0  0  0  0  0  0
    7.1116  -15.0490   21.5389 C   0  0  0  0  0  0  0  0  0  0  0  0
    8.5755  -14.9225   21.9129 C   0  0  2  0  0  0  0  0  0  0  0  0
    9.3624  -15.5198   20.8151 N   0  0  0  0  0  0  0  0  0  0  0  0
    8.9191  -15.6684   23.1620 C   0  0  0  0  0  0  0  0  0  0  0  0
    8.2664  -15.4134   24.2296 O   0  0  0  0  0  0  0  0  0  0  0  0
    9.9289  -16.6448   23.2274 N   0  0  0  0  0  0  0  0  0  0  0  0
   10.3395  -17.3673   24.4327 C   0  0  1  0  0  0  0  0  0  0  0  0
   11.4681  -18.2992   24.0744 C   0  0  0  0  0  0  0  0  0  0  0  0
   12.0025  -19.1241   25.1887 C   0  0  0  0  0  0  0  0  0  0  0  0
   13.1327  -19.9313   24.6169 C   0  0  0  0  0  0  0  0  0  0  0  0
   14.0720  -19.4103   23.9950 O   0  0  0  0  0  0  0  0  0  0  0  0
   10.7139  -16.3758   25.4599 C   0  0  0  0  0  0  0  0  0  0  0  0
   11.6855  -15.5596   25.2654 O   0  0  0  0  0  0  0  0  0  0  0  0
   13.0958  -21.3061   24.8073 O   0  0  0  0  0  0  0  0  0  0  0  0
   10.0848  -16.2020   26.7178 N   0  0  0  0  0  0  0  0  0  0  0  0
   10.6174  -15.3208   27.7394 C   0  0  1  0  0  0  0  0  0  0  0  0
    9.6021  -14.2888   28.1712 C   0  0  0  0  0  0  0  0  0  0  0  0
    8.9787  -13.5186   27.0533 C   0  0  0  0  0  0  0  0  0  0  0  0
    7.4753  -13.4799   27.3365 C   0  0  0  0  0  0  0  0  0  0  0  0
    6.7759  -12.6555   26.2552 C   0  0  0  0  0  0  0  0  0  0  0  0
    5.3684  -12.6196   26.5995 N   0  0  0  0  0  0  0  0  0  0  0  0
   11.1287  -16.1229   28.8636 C   0  0  0  0  0  0  0  0  0  0  0  0
   11.0569  -17.5042   28.9436 O   0  0  0  0  0  0  0  0  0  0  0  0
   11.6754  -15.5440   29.8369 O   0  0  0  0  0  0  0  0  0  0  0  0
  2  1  1  0
  3  2  1  0
  4  3  1  0
  5  4  1  0
  5  6  1  6
  7  8  2  0
  7  5  1  0
  9  7  1  0
 10  9  1  0
 11 12  1  0
 10 11  1  6
 13 14  2  0
 13 12  1  0
 15 10  1  0
 15 16  2  0
 17 13  1  0
 18 15  1  0
 19 20  1  1
 19 18  1  0
 21 20  1  0
 22 21  1  0
 23 22  1  0
 23 24  1  0
 25 19  1  0
 26 25  1  0
 27 25  2  0
M  END
$$$$
