MEK.pdb
     RDKit          3D

 27 26  0  0  1  0  0  0  0  0999 V2000
    8.0579  -13.4577   16.2698 C   0  0  0  0  0  0  0  0  0  0  0  0
    6.9354  -13.9417   17.6300 S   0  0  0  0  0  0  0  0  0  0  0  0
    7.9231  -13.8274   19.1597 C   0  0  0  0  0  0  0  0  0  0  0  0
    7.1083  -14.2713   20.3392 C   0  0  0  0  0  0  0  0  0  0  0  0
    7.9112  -14.0580   21.6077 C   0  0  2  0  0  0  0  0  0  0  0  0
    9.1588  -13.3658   21.2265 N   0  0  0  0  0  0  0  0  0  0  0  0
    8.2998  -15.3416   22.2681 C   0  0  0  0  0  0  0  0  0  0  0  0
    7.3827  -16.0836   22.7571 O   0  0  0  0  0  0  0  0  0  0  0  0
    9.6304  -15.7822   22.3805 N   0  0  0  0  0  0  0  0  0  0  0  0
   10.1054  -16.8406   23.2734 C   0  0  1  0  0  0  0  0  0  0  0  0
   11.4092  -17.3734   22.7377 C   0  0  0  0  0  0  0  0  0  0  0  0
   12.0353  -18.4634   23.5299 C   0  0  0  0  0  0  0  0  0  0  0  0
   13.2018  -18.9593   22.7243 C   0  0  0  0  0  0  0  0  0  0  0  0
   13.2803  -20.1308   22.3219 O   0  0  0  0  0  0  0  0  0  0  0  0
   10.2270  -16.2777   24.6324 C   0  0  0  0  0  0  0  0  0  0  0  0
   11.1491  -15.4305   24.9153 O   0  0  0  0  0  0  0  0  0  0  0  0
   14.2117  -18.0508   22.4368 O   0  0  0  0  0  0  0  0  0  0  0  0
    9.3892  -16.5770   25.7356 N   0  0  0  0  0  0  0  0  0  0  0  0
    9.4822  -15.8692   26.9982 C   0  0  1  0  0  0  0  0  0  0  0  0
    8.2925  -14.9650   27.2204 C   0  0  0  0  0  0  0  0  0  0  0  0
    8.3749  -13.6421   26.5314 C   0  0  0  0  0  0  0  0  0  0  0  0
    7.0152  -12.9663   26.7225 C   0  0  0  0  0  0  0  0  0  0  0  0
    6.9982  -11.6369   25.9672 C   0  0  0  0  0  0  0  0  0  0  0  0
    5.7072  -11.0279   26.2186 N   0  0  0  0  0  0  0  0  0  0  0  0
    9.6753  -16.8365   28.0917 C   0  0  0  0  0  0  0  0  0  0  0  0
    9.6678  -18.2134   27.9368 O   0  0  0  0  0  0  0  0  0  0  0  0
    9.8627  -16.4164   29.2619 O   0  0  0  0  0  0  0  0  0  0  0  0
  2  1  1  0
  3  2  1  0
  4  3  1  0
  5  4  1  0
  5  6  1  6
  7  8  2  0
  7  5  1  0
  9  7  1  0
 10  9  1  0
 11 12  1  0
 10 11  1  6
 13 14  2  0
 13 12  1  0
 15 10  1  0
 15 16  2  0
 17 13  1  0
 18 15  1  0
 19 20  1  1
 19 18  1  0
 21 20  1  0
 22 21  1  0
 23 22  1  0
 23 24  1  0
 25 19  1  0
 26 25  1  0
 27 25  2  0
M  END
$$$$
