MEK.pdb
     RDKit          3D

 27 26  0  0  1  0  0  0  0  0999 V2000
    8.0654  -11.5999   26.8582 C   0  0  0  0  0  0  0  0  0  0  0  0
    6.4220  -12.2947   27.2595 S   0  0  0  0  0  0  0  0  0  0  0  0
    6.0370  -13.4753   25.9230 C   0  0  0  0  0  0  0  0  0  0  0  0
    7.1472  -14.4743   25.7757 C   0  0  0  0  0  0  0  0  0  0  0  0
    6.8282  -15.4071   24.6237 C   0  0  2  0  0  0  0  0  0  0  0  0
    5.6362  -16.1892   25.0091 N   0  0  0  0  0  0  0  0  0  0  0  0
    7.9279  -16.3812   24.3476 C   0  0  0  0  0  0  0  0  0  0  0  0
    7.9491  -17.4834   24.9921 O   0  0  0  0  0  0  0  0  0  0  0  0
    8.9486  -16.1503   23.4083 N   0  0  0  0  0  0  0  0  0  0  0  0
   10.0721  -17.0474   23.1322 C   0  0  1  0  0  0  0  0  0  0  0  0
   10.7941  -16.5517   21.9061 C   0  0  0  0  0  0  0  0  0  0  0  0
   12.0363  -17.2842   21.5481 C   0  0  0  0  0  0  0  0  0  0  0  0
   12.5060  -16.7127   20.2411 C   0  0  0  0  0  0  0  0  0  0  0  0
   13.4574  -15.9190   20.1675 O   0  0  0  0  0  0  0  0  0  0  0  0
   10.9328  -17.0911   24.3305 C   0  0  0  0  0  0  0  0  0  0  0  0
   11.2421  -16.0158   24.9598 O   0  0  0  0  0  0  0  0  0  0  0  0
   11.8310  -17.1053   19.0929 O   0  0  0  0  0  0  0  0  0  0  0  0
   11.4930  -18.2561   24.9113 N   0  0  0  0  0  0  0  0  0  0  0  0
   12.2746  -18.2184   26.1325 C   0  0  1  0  0  0  0  0  0  0  0  0
   11.6961  -19.1247   27.1938 C   0  0  0  0  0  0  0  0  0  0  0  0
   12.5377  -19.2692   28.4195 C   0  0  0  0  0  0  0  0  0  0  0  0
   11.7579  -20.1709   29.3791 C   0  0  0  0  0  0  0  0  0  0  0  0
   12.6065  -20.4450   30.6212 C   0  0  0  0  0  0  0  0  0  0  0  0
   11.9039  -21.4479   31.3967 N   0  0  0  0  0  0  0  0  0  0  0  0
   13.6819  -18.5253   25.8259 C   0  0  0  0  0  0  0  0  0  0  0  0
   14.1007  -19.3961   24.8328 O   0  0  0  0  0  0  0  0  0  0  0  0
   14.5938  -17.9749   26.4942 O   0  0  0  0  0  0  0  0  0  0  0  0
  2  1  1  0
  3  2  1  0
  4  3  1  0
  5  4  1  0
  5  6  1  1
  7  8  2  0
  7  5  1  0
  9  7  1  0
 10  9  1  0
 11 12  1  0
 10 11  1  6
 13 14  2  0
 13 12  1  0
 15 10  1  0
 15 16  2  0
 17 13  1  0
 18 15  1  0
 19 20  1  1
 19 18  1  0
 21 20  1  0
 22 21  1  0
 23 22  1  0
 23 24  1  0
 25 19  1  0
 26 25  1  0
 27 25  2  0
M  END
$$$$
