QLI.pdb
     RDKit          3D

 26 25  0  0  1  0  0  0  0  0999 V2000
   20.8544  -21.9110  -15.9420 N   0  0  0  0  0  0  0  0  0  0  0  0
   20.7470  -20.5072  -15.8581 C   0  0  0  0  0  0  0  0  0  0  0  0
   19.9493  -19.9429  -16.6752 O   0  0  0  0  0  0  0  0  0  0  0  0
   21.4826  -19.6905  -14.9039 C   0  0  0  0  0  0  0  0  0  0  0  0
   22.2935  -20.3981  -13.8782 C   0  0  0  0  0  0  0  0  0  0  0  0
   23.6585  -20.8418  -14.3373 C   0  0  2  0  0  0  0  0  0  0  0  0
   23.5497  -21.9633  -15.2159 N   0  0  0  0  0  0  0  0  0  0  0  0
   24.5139  -21.1536  -13.1364 C   0  0  0  0  0  0  0  0  0  0  0  0
   24.0798  -21.7704  -12.1345 O   0  0  0  0  0  0  0  0  0  0  0  0
   29.3839  -22.5592  -10.9272 C   0  0  0  0  0  0  0  0  0  0  0  0
   29.2277  -21.1168  -11.3414 C   0  0  1  0  0  0  0  0  0  0  0  0
   30.5817  -20.7196  -11.9526 C   0  0  0  0  0  0  0  0  0  0  0  0
   28.2132  -20.8804  -12.3868 C   0  0  0  0  0  0  0  0  0  0  0  0
   26.7730  -20.9701  -12.0018 C   0  0  2  0  0  0  0  0  0  0  0  0
   25.8771  -20.7419  -13.1151 N   0  0  0  0  0  0  0  0  0  0  0  0
   26.3875  -20.2956  -10.7621 C   0  0  0  0  0  0  0  0  0  0  0  0
   26.0046  -19.1068  -10.7825 O   0  0  0  0  0  0  0  0  0  0  0  0
   22.7571  -21.5364   -7.1125 C   0  0  0  0  0  0  0  0  0  0  0  0
   23.7541  -20.7958   -7.9596 C   0  0  0  0  0  0  0  0  0  0  0  0
   25.1726  -20.9749   -7.4392 C   0  0  2  0  0  0  0  0  0  0  0  0
   25.2151  -20.3891   -6.0477 C   0  0  0  0  0  0  0  0  0  0  0  0
   26.1713  -20.2421   -8.2951 C   0  0  2  0  0  0  0  0  0  0  0  0
   26.4436  -20.9827   -9.5267 N   0  0  0  0  0  0  0  0  0  0  0  0
   27.4042  -20.0422   -7.5030 C   0  0  0  0  0  0  0  0  0  0  0  0
   28.3412  -20.9011   -7.5420 O   0  0  0  0  0  0  0  0  0  0  0  0
   27.5575  -18.9155   -6.7037 O   0  0  0  0  0  0  0  0  0  0  0  0
  2  1  1  0
  3  2  2  0
  4  2  1  0
  5  4  1  0
  6  8  1  0
  6  5  1  0
  6  7  1  6
  8  9  2  0
 11 10  1  6
 12 11  1  0
 14 13  1  6
 13 11  1  0
 15 14  1  0
 15  8  1  0
 16 17  2  0
 16 14  1  0
 18 19  1  0
 19 20  1  0
 20 22  1  0
 20 21  1  1
 22 24  1  0
 22 23  1  6
 23 16  1  0
 24 26  1  0
 25 24  2  0
M  END
$$$$
