QLI.pdb
     RDKit          3D

 26 25  0  0  1  0  0  0  0  0999 V2000
   20.2109  -19.0316  -14.2149 N   0  0  0  0  0  0  0  0  0  0  0  0
   21.4559  -18.7527  -14.8160 C   0  0  0  0  0  0  0  0  0  0  0  0
   21.4283  -18.1968  -15.9617 O   0  0  0  0  0  0  0  0  0  0  0  0
   22.7412  -19.0584  -14.2049 C   0  0  0  0  0  0  0  0  0  0  0  0
   22.7268  -19.7435  -12.8856 C   0  0  0  0  0  0  0  0  0  0  0  0
   24.0854  -20.0507  -12.3104 C   0  0  2  0  0  0  0  0  0  0  0  0
   24.9066  -20.6954  -13.2859 N   0  0  0  0  0  0  0  0  0  0  0  0
   23.9256  -20.8920  -11.0703 C   0  0  0  0  0  0  0  0  0  0  0  0
   23.7722  -22.1360  -11.1082 O   0  0  0  0  0  0  0  0  0  0  0  0
   26.6231  -19.3263   -6.6692 C   0  0  0  0  0  0  0  0  0  0  0  0
   25.9408  -20.1639   -7.7224 C   0  0  1  0  0  0  0  0  0  0  0  0
   26.7196  -21.4894   -7.7563 C   0  0  0  0  0  0  0  0  0  0  0  0
   24.5384  -20.5120   -7.4223 C   0  0  0  0  0  0  0  0  0  0  0  0
   23.6698  -20.9649   -8.5497 C   0  0  2  0  0  0  0  0  0  0  0  0
   23.9479  -20.2711   -9.7887 N   0  0  0  0  0  0  0  0  0  0  0  0
   22.2473  -21.1291   -8.2499 C   0  0  0  0  0  0  0  0  0  0  0  0
   21.4763  -20.1470   -8.2879 O   0  0  0  0  0  0  0  0  0  0  0  0
   18.9215  -23.3781  -11.0578 C   0  0  0  0  0  0  0  0  0  0  0  0
   19.5896  -22.5698   -9.9806 C   0  0  0  0  0  0  0  0  0  0  0  0
   19.5764  -23.2985   -8.6451 C   0  0  2  0  0  0  0  0  0  0  0  0
   18.1320  -23.4350   -8.2251 C   0  0  0  0  0  0  0  0  0  0  0  0
   20.3092  -22.5207   -7.5845 C   0  0  2  0  0  0  0  0  0  0  0  0
   21.7293  -22.4020   -7.9141 N   0  0  0  0  0  0  0  0  0  0  0  0
   20.1125  -23.2040   -6.2876 C   0  0  0  0  0  0  0  0  0  0  0  0
   20.9505  -24.0707   -5.8826 O   0  0  0  0  0  0  0  0  0  0  0  0
   19.0102  -22.9117   -5.4931 O   0  0  0  0  0  0  0  0  0  0  0  0
  2  1  1  0
  3  2  2  0
  4  2  1  0
  5  4  1  0
  6  8  1  0
  6  5  1  0
  6  7  1  6
  8  9  2  0
 11 10  1  1
 12 11  1  0
 14 13  1  1
 13 11  1  0
 15 14  1  0
 15  8  1  0
 16 17  2  0
 16 14  1  0
 18 19  1  0
 19 20  1  0
 20 22  1  0
 20 21  1  1
 22 24  1  0
 22 23  1  6
 23 16  1  0
 24 26  1  0
 25 24  2  0
M  END
$$$$
