QLI.pdb
     RDKit          3D

 26 25  0  0  1  0  0  0  0  0999 V2000
   25.0725  -27.3839  -18.3251 N   0  0  0  0  0  0  0  0  0  0  0  0
   26.0530  -26.4343  -18.6801 C   0  0  0  0  0  0  0  0  0  0  0  0
   25.8335  -25.7481  -19.7305 O   0  0  0  0  0  0  0  0  0  0  0  0
   27.2734  -26.2025  -17.9215 C   0  0  0  0  0  0  0  0  0  0  0  0
   27.4469  -24.8656  -17.2948 C   0  0  0  0  0  0  0  0  0  0  0  0
   26.2845  -24.3962  -16.4585 C   0  0  2  0  0  0  0  0  0  0  0  0
   25.1813  -24.0382  -17.2930 N   0  0  0  0  0  0  0  0  0  0  0  0
   26.7246  -23.2460  -15.5899 C   0  0  0  0  0  0  0  0  0  0  0  0
   27.7266  -23.3067  -14.8382 O   0  0  0  0  0  0  0  0  0  0  0  0
   26.2061  -17.7859  -16.7957 C   0  0  0  0  0  0  0  0  0  0  0  0
   26.6658  -19.1000  -16.2142 C   0  0  1  0  0  0  0  0  0  0  0  0
   28.0376  -18.8087  -15.5834 C   0  0  0  0  0  0  0  0  0  0  0  0
   25.8133  -19.6290  -15.1319 C   0  0  0  0  0  0  0  0  0  0  0  0
   26.1144  -20.9927  -14.6027 C   0  0  2  0  0  0  0  0  0  0  0  0
   25.9884  -22.0270  -15.6069 N   0  0  0  0  0  0  0  0  0  0  0  0
   25.5307  -21.3305  -13.3044 C   0  0  0  0  0  0  0  0  0  0  0  0
   24.4877  -22.0146  -13.2395 O   0  0  0  0  0  0  0  0  0  0  0  0
   28.5571  -20.8248   -8.6550 C   0  0  0  0  0  0  0  0  0  0  0  0
   27.5727  -21.4416   -9.6093 C   0  0  0  0  0  0  0  0  0  0  0  0
   26.2838  -20.6364   -9.6811 C   0  0  2  0  0  0  0  0  0  0  0  0
   25.5210  -20.8996   -8.4043 C   0  0  0  0  0  0  0  0  0  0  0  0
   25.4287  -21.0657  -10.8437 C   0  0  2  0  0  0  0  0  0  0  0  0
   26.1417  -20.8863  -12.1082 N   0  0  0  0  0  0  0  0  0  0  0  0
   24.1765  -20.2792  -10.8150 C   0  0  0  0  0  0  0  0  0  0  0  0
   24.1331  -19.1181  -11.3320 O   0  0  0  0  0  0  0  0  0  0  0  0
   23.0298  -20.7948  -10.2226 O   0  0  0  0  0  0  0  0  0  0  0  0
  2  1  1  0
  3  2  2  0
  4  2  1  0
  5  4  1  0
  6  8  1  0
  6  5  1  0
  6  7  1  6
  8  9  2  0
 11 10  1  1
 12 11  1  0
 14 13  1  6
 13 11  1  0
 15 14  1  0
 15  8  1  0
 16 17  2  0
 16 14  1  0
 18 19  1  0
 19 20  1  0
 20 22  1  0
 20 21  1  1
 22 24  1  0
 22 23  1  6
 23 16  1  0
 24 26  1  0
 25 24  2  0
M  END
$$$$
