QLI.pdb
     RDKit          3D

 26 25  0  0  1  0  0  0  0  0999 V2000
   16.8375  -13.9114  -13.9378 N   0  0  0  0  0  0  0  0  0  0  0  0
   17.5688  -12.8229  -14.4570 C   0  0  0  0  0  0  0  0  0  0  0  0
   18.7730  -12.6994  -14.0608 O   0  0  0  0  0  0  0  0  0  0  0  0
   17.0294  -11.8579  -15.4038 C   0  0  0  0  0  0  0  0  0  0  0  0
   16.7776  -10.4790  -14.9083 C   0  0  0  0  0  0  0  0  0  0  0  0
   15.6531  -10.3532  -13.9129 C   0  0  2  0  0  0  0  0  0  0  0  0
   14.3970  -10.6100  -14.5435 N   0  0  0  0  0  0  0  0  0  0  0  0
   15.6929   -8.9847  -13.2829 C   0  0  0  0  0  0  0  0  0  0  0  0
   15.2541   -7.9595  -13.8566 O   0  0  0  0  0  0  0  0  0  0  0  0
   14.9963   -5.1701   -9.6218 C   0  0  0  0  0  0  0  0  0  0  0  0
   15.8117   -6.3388   -9.1263 C   0  0  1  0  0  0  0  0  0  0  0  0
   15.2212   -6.6938   -7.7515 C   0  0  0  0  0  0  0  0  0  0  0  0
   15.7090   -7.5581   -9.9514 C   0  0  0  0  0  0  0  0  0  0  0  0
   16.3518   -7.5510  -11.2994 C   0  0  2  0  0  0  0  0  0  0  0  0
   16.2460   -8.8233  -11.9805 N   0  0  0  0  0  0  0  0  0  0  0  0
   17.6687   -6.9201  -11.3891 C   0  0  0  0  0  0  0  0  0  0  0  0
   18.5121   -7.0870  -10.4829 O   0  0  0  0  0  0  0  0  0  0  0  0
   21.0078   -8.5711  -14.4646 C   0  0  0  0  0  0  0  0  0  0  0  0
   20.2726   -7.8333  -13.3805 C   0  0  0  0  0  0  0  0  0  0  0  0
   20.1069   -6.3596  -13.7202 C   0  0  2  0  0  0  0  0  0  0  0  0
   21.4925   -5.7715  -13.8449 C   0  0  0  0  0  0  0  0  0  0  0  0
   19.3725   -5.6215  -12.6325 C   0  0  2  0  0  0  0  0  0  0  0  0
   18.0015   -6.1145  -12.5034 N   0  0  0  0  0  0  0  0  0  0  0  0
   19.3980   -4.1776  -12.9518 C   0  0  0  0  0  0  0  0  0  0  0  0
   18.4525   -3.6484  -13.6178 O   0  0  0  0  0  0  0  0  0  0  0  0
   20.4540   -3.3777  -12.5313 O   0  0  0  0  0  0  0  0  0  0  0  0
  2  1  1  0
  3  2  2  0
  4  2  1  0
  5  4  1  0
  6  8  1  0
  6  5  1  0
  6  7  1  6
  8  9  2  0
 11 10  1  6
 12 11  1  0
 14 13  1  1
 13 11  1  0
 15 14  1  0
 15  8  1  0
 16 17  2  0
 16 14  1  0
 18 19  1  0
 19 20  1  0
 20 22  1  0
 20 21  1  1
 22 24  1  0
 22 23  1  6
 23 16  1  0
 24 26  1  0
 25 24  2  0
M  END
$$$$
