QLI.pdb
     RDKit          3D

 26 25  0  0  1  0  0  0  0  0999 V2000
   25.4703  -21.5908  -19.8208 N   0  0  0  0  0  0  0  0  0  0  0  0
   26.5245  -22.4424  -20.2116 C   0  0  0  0  0  0  0  0  0  0  0  0
   26.7399  -22.5521  -21.4622 O   0  0  0  0  0  0  0  0  0  0  0  0
   27.3613  -23.1823  -19.2784 C   0  0  0  0  0  0  0  0  0  0  0  0
   27.0564  -23.0477  -17.8296 C   0  0  0  0  0  0  0  0  0  0  0  0
   27.1290  -21.6428  -17.2892 C   0  0  2  0  0  0  0  0  0  0  0  0
   28.4872  -21.2054  -17.2161 N   0  0  0  0  0  0  0  0  0  0  0  0
   26.4510  -21.5879  -15.9444 C   0  0  0  0  0  0  0  0  0  0  0  0
   25.4034  -22.2265  -15.6850 O   0  0  0  0  0  0  0  0  0  0  0  0
   29.6767  -20.1119  -11.5852 C   0  0  0  0  0  0  0  0  0  0  0  0
   28.6675  -20.8142  -12.4597 C   0  0  1  0  0  0  0  0  0  0  0  0
   28.3923  -22.1584  -11.7654 C   0  0  0  0  0  0  0  0  0  0  0  0
   27.3651  -20.1294  -12.5730 C   0  0  0  0  0  0  0  0  0  0  0  0
   26.4007  -20.6190  -13.6028 C   0  0  2  0  0  0  0  0  0  0  0  0
   27.0053  -20.7849  -14.9070 N   0  0  0  0  0  0  0  0  0  0  0  0
   25.0851  -19.9794  -13.6187 C   0  0  0  0  0  0  0  0  0  0  0  0
   24.9824  -18.7508  -13.8196 O   0  0  0  0  0  0  0  0  0  0  0  0
   20.1215  -19.4675  -16.3096 C   0  0  0  0  0  0  0  0  0  0  0  0
   20.6635  -19.4816  -14.9074 C   0  0  0  0  0  0  0  0  0  0  0  0
   22.0230  -20.1614  -14.8402 C   0  0  2  0  0  0  0  0  0  0  0  0
   21.8114  -21.6178  -15.1801 C   0  0  0  0  0  0  0  0  0  0  0  0
   22.6152  -20.0761  -13.4585 C   0  0  2  0  0  0  0  0  0  0  0  0
   23.9146  -20.7454  -13.4071 N   0  0  0  0  0  0  0  0  0  0  0  0
   21.6596  -20.6807  -12.5051 C   0  0  0  0  0  0  0  0  0  0  0  0
   21.7479  -21.9117  -12.1981 O   0  0  0  0  0  0  0  0  0  0  0  0
   20.6511  -19.9153  -11.9318 O   0  0  0  0  0  0  0  0  0  0  0  0
  2  1  1  0
  3  2  2  0
  4  2  1  0
  5  4  1  0
  6  8  1  0
  6  5  1  0
  6  7  1  1
  8  9  2  0
 11 10  1  1
 12 11  1  0
 14 13  1  1
 13 11  1  0
 15 14  1  0
 15  8  1  0
 16 17  2  0
 16 14  1  0
 18 19  1  0
 19 20  1  0
 20 22  1  0
 20 21  1  1
 22 24  1  0
 22 23  1  6
 23 16  1  0
 24 26  1  0
 25 24  2  0
M  END
$$$$
