QLI.pdb
     RDKit          3D

 26 25  0  0  1  0  0  0  0  0999 V2000
   25.0352  -23.5487  -19.5160 N   0  0  0  0  0  0  0  0  0  0  0  0
   26.0843  -24.4668  -19.3022 C   0  0  0  0  0  0  0  0  0  0  0  0
   26.1796  -25.4317  -20.1282 O   0  0  0  0  0  0  0  0  0  0  0  0
   27.0434  -24.3669  -18.2119 C   0  0  0  0  0  0  0  0  0  0  0  0
   26.8468  -23.2730  -17.2246 C   0  0  0  0  0  0  0  0  0  0  0  0
   26.2641  -23.7023  -15.9028 C   0  0  2  0  0  0  0  0  0  0  0  0
   24.9342  -24.1941  -16.0795 N   0  0  0  0  0  0  0  0  0  0  0  0
   26.3088  -22.5466  -14.9367 C   0  0  0  0  0  0  0  0  0  0  0  0
   27.3756  -21.9721  -14.6133 O   0  0  0  0  0  0  0  0  0  0  0  0
   23.2038  -18.2835  -15.5060 C   0  0  0  0  0  0  0  0  0  0  0  0
   24.2723  -19.2781  -15.1250 C   0  0  1  0  0  0  0  0  0  0  0  0
   25.5755  -18.4657  -15.0461 C   0  0  0  0  0  0  0  0  0  0  0  0
   24.0905  -19.9038  -13.8009 C   0  0  0  0  0  0  0  0  0  0  0  0
   25.0403  -20.9831  -13.3969 C   0  0  2  0  0  0  0  0  0  0  0  0
   25.1011  -22.0670  -14.3538 N   0  0  0  0  0  0  0  0  0  0  0  0
   24.9855  -21.4083  -11.9982 C   0  0  0  0  0  0  0  0  0  0  0  0
   24.3025  -22.3999  -11.6657 O   0  0  0  0  0  0  0  0  0  0  0  0
   27.2689  -19.9582   -6.3810 C   0  0  0  0  0  0  0  0  0  0  0  0
   26.2677  -20.6626   -7.2537 C   0  0  0  0  0  0  0  0  0  0  0  0
   26.3987  -20.2390   -8.7091 C   0  0  2  0  0  0  0  0  0  0  0  0
   25.9965  -18.7854   -8.7893 C   0  0  0  0  0  0  0  0  0  0  0  0
   25.4838  -21.0361   -9.6005 C   0  0  2  0  0  0  0  0  0  0  0  0
   25.7060  -20.7014  -11.0069 N   0  0  0  0  0  0  0  0  0  0  0  0
   24.0875  -20.7637   -9.1960 C   0  0  0  0  0  0  0  0  0  0  0  0
   23.5957  -21.3201   -8.1636 O   0  0  0  0  0  0  0  0  0  0  0  0
   23.2915  -19.8981   -9.9370 O   0  0  0  0  0  0  0  0  0  0  0  0
  2  1  1  0
  3  2  2  0
  4  2  1  0
  5  4  1  0
  6  8  1  0
  6  5  1  0
  6  7  1  6
  8  9  2  0
 11 10  1  1
 12 11  1  0
 14 13  1  6
 13 11  1  0
 15 14  1  0
 15  8  1  0
 16 17  2  0
 16 14  1  0
 18 19  1  0
 19 20  1  0
 20 22  1  0
 20 21  1  1
 22 24  1  0
 22 23  1  6
 23 16  1  0
 24 26  1  0
 25 24  2  0
M  END
$$$$
