QLI.pdb
     RDKit          3D

 26 25  0  0  1  0  0  0  0  0999 V2000
   12.6799  -20.4459   -1.4237 N   0  0  0  0  0  0  0  0  0  0  0  0
   12.8632  -21.8116   -1.7246 C   0  0  0  0  0  0  0  0  0  0  0  0
   12.4056  -22.2196   -2.8411 O   0  0  0  0  0  0  0  0  0  0  0  0
   13.5368  -22.7553   -0.8447 C   0  0  0  0  0  0  0  0  0  0  0  0
   14.0395  -22.2404    0.4562 C   0  0  0  0  0  0  0  0  0  0  0  0
   15.2465  -21.3428    0.3646 C   0  0  2  0  0  0  0  0  0  0  0  0
   16.3231  -22.0186   -0.2879 N   0  0  0  0  0  0  0  0  0  0  0  0
   15.6324  -20.8801    1.7460 C   0  0  0  0  0  0  0  0  0  0  0  0
   14.8199  -20.3388    2.5331 O   0  0  0  0  0  0  0  0  0  0  0  0
   19.0075  -23.8676    4.8280 C   0  0  0  0  0  0  0  0  0  0  0  0
   17.9475  -22.9247    4.3144 C   0  0  1  0  0  0  0  0  0  0  0  0
   16.8625  -22.8992    5.4038 C   0  0  0  0  0  0  0  0  0  0  0  0
   18.3943  -21.5293    4.1385 C   0  0  0  0  0  0  0  0  0  0  0  0
   17.4620  -20.5712    3.4727 C   0  0  2  0  0  0  0  0  0  0  0  0
   16.9706  -21.0554    2.2007 N   0  0  0  0  0  0  0  0  0  0  0  0
   17.8637  -19.1645    3.4746 C   0  0  0  0  0  0  0  0  0  0  0  0
   18.7637  -18.7635    2.7068 O   0  0  0  0  0  0  0  0  0  0  0  0
   16.4445  -13.5596    2.9736 C   0  0  0  0  0  0  0  0  0  0  0  0
   17.3535  -14.5009    3.7138 C   0  0  0  0  0  0  0  0  0  0  0  0
   16.8086  -15.9214    3.7122 C   0  0  2  0  0  0  0  0  0  0  0  0
   15.5018  -15.8994    4.4691 C   0  0  0  0  0  0  0  0  0  0  0  0
   17.7458  -16.8729    4.4075 C   0  0  2  0  0  0  0  0  0  0  0  0
   17.2368  -18.2427    4.3457 N   0  0  0  0  0  0  0  0  0  0  0  0
   17.9119  -16.4224    5.8064 C   0  0  0  0  0  0  0  0  0  0  0  0
   17.2881  -17.0052    6.7491 O   0  0  0  0  0  0  0  0  0  0  0  0
   18.7494  -15.3564    6.1125 O   0  0  0  0  0  0  0  0  0  0  0  0
  2  1  1  0
  3  2  2  0
  4  2  1  0
  5  4  1  0
  6  8  1  0
  6  5  1  0
  6  7  1  1
  8  9  2  0
 11 10  1  1
 12 11  1  0
 14 13  1  6
 13 11  1  0
 15 14  1  0
 15  8  1  0
 16 17  2  0
 16 14  1  0
 18 19  1  0
 19 20  1  0
 20 22  1  0
 20 21  1  1
 22 24  1  0
 22 23  1  1
 23 16  1  0
 24 26  1  0
 25 24  2  0
M  END
$$$$
