QLI.pdb
     RDKit          3D

 26 25  0  0  1  0  0  0  0  0999 V2000
   18.8763  -16.0897  -15.2254 N   0  0  0  0  0  0  0  0  0  0  0  0
   19.7990  -16.3796  -16.2518 C   0  0  0  0  0  0  0  0  0  0  0  0
   20.2956  -17.5525  -16.2625 O   0  0  0  0  0  0  0  0  0  0  0  0
   20.2003  -15.4283  -17.2778 C   0  0  0  0  0  0  0  0  0  0  0  0
   21.4669  -14.6807  -17.0612 C   0  0  0  0  0  0  0  0  0  0  0  0
   21.6043  -13.4110  -17.8612 C   0  0  2  0  0  0  0  0  0  0  0  0
   22.5916  -13.5684  -18.8820 N   0  0  0  0  0  0  0  0  0  0  0  0
   21.9349  -12.2689  -16.9352 C   0  0  0  0  0  0  0  0  0  0  0  0
   21.1950  -11.9323  -15.9803 O   0  0  0  0  0  0  0  0  0  0  0  0
   27.3157  -10.7964  -16.1984 C   0  0  0  0  0  0  0  0  0  0  0  0
   25.8526  -11.1155  -16.0148 C   0  0  1  0  0  0  0  0  0  0  0  0
   25.6688  -11.3289  -14.5031 C   0  0  0  0  0  0  0  0  0  0  0  0
   24.9303  -10.0288  -16.3974 C   0  0  0  0  0  0  0  0  0  0  0  0
   23.4654  -10.3197  -16.4039 C   0  0  2  0  0  0  0  0  0  0  0  0
   23.1339  -11.5259  -17.1314 N   0  0  0  0  0  0  0  0  0  0  0  0
   22.5781   -9.1867  -16.6671 C   0  0  0  0  0  0  0  0  0  0  0  0
   22.4746   -8.7202  -17.8212 O   0  0  0  0  0  0  0  0  0  0  0  0
   17.2607   -7.0732  -16.7242 C   0  0  0  0  0  0  0  0  0  0  0  0
   18.6612   -6.6526  -16.3753 C   0  0  0  0  0  0  0  0  0  0  0  0
   19.5501   -7.8531  -16.0865 C   0  0  2  0  0  0  0  0  0  0  0  0
   19.0649   -8.4678  -14.7951 C   0  0  0  0  0  0  0  0  0  0  0  0
   20.9885   -7.4449  -15.9088 C   0  0  2  0  0  0  0  0  0  0  0  0
   21.8270   -8.6074  -15.6174 N   0  0  0  0  0  0  0  0  0  0  0  0
   21.0569   -6.4451  -14.8210 C   0  0  0  0  0  0  0  0  0  0  0  0
   20.7188   -5.2377  -15.0338 O   0  0  0  0  0  0  0  0  0  0  0  0
   21.4921   -6.8079  -13.5519 O   0  0  0  0  0  0  0  0  0  0  0  0
  2  1  1  0
  3  2  2  0
  4  2  1  0
  5  4  1  0
  6  8  1  0
  6  5  1  0
  6  7  1  6
  8  9  2  0
 11 10  1  1
 12 11  1  0
 14 13  1  6
 13 11  1  0
 15 14  1  0
 15  8  1  0
 16 17  2  0
 16 14  1  0
 18 19  1  0
 19 20  1  0
 20 22  1  0
 20 21  1  1
 22 24  1  0
 22 23  1  1
 23 16  1  0
 24 26  1  0
 25 24  2  0
M  END
$$$$
