QLI.pdb
     RDKit          3D

 26 25  0  0  1  0  0  0  0  0999 V2000
   27.5518  -18.3408  -19.1347 N   0  0  0  0  0  0  0  0  0  0  0  0
   28.4148  -17.5123  -18.3879 C   0  0  0  0  0  0  0  0  0  0  0  0
   29.1592  -16.7164  -19.0473 O   0  0  0  0  0  0  0  0  0  0  0  0
   28.4930  -17.5189  -16.9344 C   0  0  0  0  0  0  0  0  0  0  0  0
   27.5215  -18.3715  -16.1999 C   0  0  0  0  0  0  0  0  0  0  0  0
   28.0703  -19.6849  -15.7052 C   0  0  2  0  0  0  0  0  0  0  0  0
   28.5068  -20.4888  -16.8028 N   0  0  0  0  0  0  0  0  0  0  0  0
   27.0224  -20.3867  -14.8803 C   0  0  0  0  0  0  0  0  0  0  0  0
   26.1234  -21.0992  -15.3870 O   0  0  0  0  0  0  0  0  0  0  0  0
   24.9569  -22.3933  -10.0439 C   0  0  0  0  0  0  0  0  0  0  0  0
   25.2199  -20.9137  -10.1783 C   0  0  1  0  0  0  0  0  0  0  0  0
   25.7386  -20.4655   -8.8018 C   0  0  0  0  0  0  0  0  0  0  0  0
   26.2680  -20.5584  -11.1545 C   0  0  0  0  0  0  0  0  0  0  0  0
   25.9263  -20.6215  -12.6070 C   0  0  2  0  0  0  0  0  0  0  0  0
   27.0332  -20.2516  -13.4625 N   0  0  0  0  0  0  0  0  0  0  0  0
   24.6375  -20.0501  -12.9978 C   0  0  0  0  0  0  0  0  0  0  0  0
   24.4693  -18.8123  -12.9979 O   0  0  0  0  0  0  0  0  0  0  0  0
   20.6007  -19.4471  -17.0588 C   0  0  0  0  0  0  0  0  0  0  0  0
   20.7181  -19.6845  -15.5789 C   0  0  0  0  0  0  0  0  0  0  0  0
   22.0771  -20.2610  -15.2111 C   0  0  2  0  0  0  0  0  0  0  0  0
   22.1136  -21.6811  -15.7241 C   0  0  0  0  0  0  0  0  0  0  0  0
   22.2799  -20.2882  -13.7194 C   0  0  2  0  0  0  0  0  0  0  0  0
   23.5677  -20.8931  -13.3803 N   0  0  0  0  0  0  0  0  0  0  0  0
   21.1572  -21.0347  -13.1113 C   0  0  0  0  0  0  0  0  0  0  0  0
   20.0082  -20.4993  -13.0087 O   0  0  0  0  0  0  0  0  0  0  0  0
   21.3398  -22.3301  -12.6419 O   0  0  0  0  0  0  0  0  0  0  0  0
  2  1  1  0
  3  2  2  0
  4  2  1  0
  5  4  1  0
  6  8  1  0
  6  5  1  0
  6  7  1  6
  8  9  2  0
 11 10  1  1
 12 11  1  0
 14 13  1  1
 13 11  1  0
 15 14  1  0
 15  8  1  0
 16 17  2  0
 16 14  1  0
 18 19  1  0
 19 20  1  0
 20 22  1  0
 20 21  1  1
 22 24  1  0
 22 23  1  6
 23 16  1  0
 24 26  1  0
 25 24  2  0
M  END
$$$$
