QLI.pdb
     RDKit          3D

 26 25  0  0  1  0  0  0  0  0999 V2000
   16.7483   -8.5739  -12.3353 N   0  0  0  0  0  0  0  0  0  0  0  0
   17.7135   -9.5224  -11.9380 C   0  0  0  0  0  0  0  0  0  0  0  0
   17.3813  -10.3229  -11.0046 O   0  0  0  0  0  0  0  0  0  0  0  0
   19.0387   -9.6318  -12.5303 C   0  0  0  0  0  0  0  0  0  0  0  0
   19.3911   -8.6660  -13.6041 C   0  0  0  0  0  0  0  0  0  0  0  0
   20.7500   -8.8671  -14.2237 C   0  0  2  0  0  0  0  0  0  0  0  0
   21.7731   -8.7456  -13.2337 N   0  0  0  0  0  0  0  0  0  0  0  0
   20.9392   -7.8804  -15.3470 C   0  0  0  0  0  0  0  0  0  0  0  0
   21.9454   -7.1373  -15.4365 O   0  0  0  0  0  0  0  0  0  0  0  0
   19.5362   -9.2487  -20.5480 C   0  0  0  0  0  0  0  0  0  0  0  0
   20.1922   -8.6631  -19.3220 C   0  0  1  0  0  0  0  0  0  0  0  0
   21.5736   -8.1775  -19.7918 C   0  0  0  0  0  0  0  0  0  0  0  0
   19.5062   -7.4849  -18.7572 C   0  0  0  0  0  0  0  0  0  0  0  0
   20.0549   -6.8857  -17.5040 C   0  0  2  0  0  0  0  0  0  0  0  0
   19.9477   -7.7696  -16.3633 N   0  0  0  0  0  0  0  0  0  0  0  0
   19.6894   -5.4953  -17.2332 C   0  0  0  0  0  0  0  0  0  0  0  0
   18.6693   -5.2293  -16.5631 O   0  0  0  0  0  0  0  0  0  0  0  0
   22.1052    0.2005  -17.1474 C   0  0  0  0  0  0  0  0  0  0  0  0
   20.9017   -0.6982  -17.2126 C   0  0  0  0  0  0  0  0  0  0  0  0
   21.2984   -2.1478  -17.4497 C   0  0  2  0  0  0  0  0  0  0  0  0
   21.9209   -2.2215  -18.8238 C   0  0  0  0  0  0  0  0  0  0  0  0
   20.1008   -3.0598  -17.4199 C   0  0  2  0  0  0  0  0  0  0  0  0
   20.4875   -4.4366  -17.7268 N   0  0  0  0  0  0  0  0  0  0  0  0
   19.1052   -2.5513  -18.3882 C   0  0  0  0  0  0  0  0  0  0  0  0
   19.0671   -3.0101  -19.5738 O   0  0  0  0  0  0  0  0  0  0  0  0
   18.1981   -1.5651  -18.0193 O   0  0  0  0  0  0  0  0  0  0  0  0
  2  1  1  0
  3  2  2  0
  4  2  1  0
  5  4  1  0
  6  8  1  0
  6  5  1  0
  6  7  1  1
  8  9  2  0
 11 10  1  6
 12 11  1  0
 14 13  1  6
 13 11  1  0
 15 14  1  0
 15  8  1  0
 16 17  2  0
 16 14  1  0
 18 19  1  0
 19 20  1  0
 20 22  1  0
 20 21  1  6
 22 24  1  0
 22 23  1  6
 23 16  1  0
 24 26  1  0
 25 24  2  0
M  END
$$$$
