PHL.pdb
     RDKit          3D

 26 27  0  0  1  0  0  0  0  0999 V2000
   26.7819  -20.1330  -14.9785 N   0  0  0  0  0  0  0  0  0  0  0  0
   27.7638  -19.0855  -15.1354 C   0  0  0  0  0  0  0  0  0  0  0  0
   28.9822  -19.4939  -14.3455 C   0  0  0  0  0  0  0  0  0  0  0  0
   28.6774  -20.8965  -13.8764 C   0  0  0  0  0  0  0  0  0  0  0  0
   27.1851  -20.9267  -13.8339 C   0  0  1  0  0  0  0  0  0  0  0  0
   26.6210  -20.3361  -12.5920 C   0  0  0  0  0  0  0  0  0  0  0  0
   26.6865  -19.1040  -12.4086 O   0  0  0  0  0  0  0  0  0  0  0  0
   26.0006  -21.1144  -11.5853 N   0  0  0  0  0  0  0  0  0  0  0  0
   25.4504  -20.5404  -10.3650 C   0  0  1  0  0  0  0  0  0  0  0  0
   24.0191  -21.0639  -10.2159 C   0  0  0  0  0  0  0  0  0  0  0  0
   23.1416  -20.4979  -11.2716 C   0  0  0  0  0  0  0  0  0  0  0  0
   23.4790  -19.6125  -12.2737 C   0  0  0  0  0  0  0  0  0  0  0  0
   22.4157  -19.3325  -13.0345 N   0  0  0  0  0  0  0  0  0  0  0  0
   21.3966  -20.0468  -12.5095 C   0  0  0  0  0  0  0  0  0  0  0  0
   21.8322  -20.7523  -11.4437 N   0  0  0  0  0  0  0  0  0  0  0  0
   26.2344  -20.9068   -9.1784 C   0  0  0  0  0  0  0  0  0  0  0  0
   26.6652  -22.0788   -9.0487 O   0  0  0  0  0  0  0  0  0  0  0  0
   29.2204  -18.3286   -4.3597 C   0  0  0  0  0  0  0  0  0  0  0  0
   28.8430  -19.5322   -5.1506 C   0  0  2  0  0  0  0  0  0  0  0  0
   30.1316  -20.2776   -5.5375 C   0  0  0  0  0  0  0  0  0  0  0  0
   28.1283  -19.2501   -6.4106 C   0  0  0  0  0  0  0  0  0  0  0  0
   27.2479  -20.3022   -6.9741 C   0  0  2  0  0  0  0  0  0  0  0  0
   26.5184  -19.9524   -8.1638 N   0  0  0  0  0  0  0  0  0  0  0  0
   26.3875  -20.9602   -5.9560 C   0  0  0  0  0  0  0  0  0  0  0  0
   24.9991  -20.9601   -6.0410 O   0  0  0  0  0  0  0  0  0  0  0  0
   26.8828  -21.5516   -4.9632 O   0  0  0  0  0  0  0  0  0  0  0  0
  1  2  1  0
  3  2  1  0
  4  5  1  0
  4  3  1  0
  5  1  1  0
  5  6  1  1
  6  8  1  0
  7  6  2  0
  9  8  1  0
 10 11  1  0
  9 10  1  1
 11 12  2  0
 13 12  1  0
 14 13  1  0
 15 14  2  0
 15 11  1  0
 16  9  1  0
 17 16  2  0
 19 18  1  6
 19 21  1  0
 20 19  1  0
 22 21  1  1
 22 24  1  0
 22 23  1  0
 23 16  1  0
 24 25  1  0
 26 24  2  0
M  END
$$$$
