PHL.pdb
     RDKit          3D

 26 27  0  0  1  0  0  0  0  0999 V2000
   24.0579  -13.7383  -15.9000 N   0  0  0  0  0  0  0  0  0  0  0  0
   23.3611  -14.8642  -16.4767 C   0  0  0  0  0  0  0  0  0  0  0  0
   23.5968  -14.8197  -17.9659 C   0  0  0  0  0  0  0  0  0  0  0  0
   24.5924  -13.7009  -18.1590 C   0  0  0  0  0  0  0  0  0  0  0  0
   24.3463  -12.8164  -16.9814 C   0  0  1  0  0  0  0  0  0  0  0  0
   23.1973  -11.8927  -17.1710 C   0  0  0  0  0  0  0  0  0  0  0  0
   23.1126  -11.2183  -18.2171 O   0  0  0  0  0  0  0  0  0  0  0  0
   22.1727  -11.7345  -16.2070 N   0  0  0  0  0  0  0  0  0  0  0  0
   21.0140  -10.8767  -16.4142 C   0  0  1  0  0  0  0  0  0  0  0  0
   19.7636  -11.7345  -16.2009 C   0  0  0  0  0  0  0  0  0  0  0  0
   19.6175  -12.7287  -17.2941 C   0  0  0  0  0  0  0  0  0  0  0  0
   19.5357  -12.4952  -18.6509 C   0  0  0  0  0  0  0  0  0  0  0  0
   19.4093  -13.6450  -19.3214 N   0  0  0  0  0  0  0  0  0  0  0  0
   19.4111  -14.6146  -18.3810 C   0  0  0  0  0  0  0  0  0  0  0  0
   19.5368  -14.0639  -17.1546 N   0  0  0  0  0  0  0  0  0  0  0  0
   20.9944   -9.7389  -15.4858 C   0  0  0  0  0  0  0  0  0  0  0  0
   21.0523   -9.9386  -14.2478 O   0  0  0  0  0  0  0  0  0  0  0  0
   21.1645   -3.4977  -15.5129 C   0  0  0  0  0  0  0  0  0  0  0  0
   21.3606   -4.7856  -14.7923 C   0  0  2  0  0  0  0  0  0  0  0  0
   22.7277   -4.7405  -14.0888 C   0  0  0  0  0  0  0  0  0  0  0  0
   21.3719   -5.9847  -15.6525 C   0  0  0  0  0  0  0  0  0  0  0  0
   20.9224   -7.2739  -15.0732 C   0  0  2  0  0  0  0  0  0  0  0  0
   20.9105   -8.4031  -15.9647 N   0  0  0  0  0  0  0  0  0  0  0  0
   19.6666   -7.1617  -14.2858 C   0  0  0  0  0  0  0  0  0  0  0  0
   19.6641   -6.8931  -12.9210 O   0  0  0  0  0  0  0  0  0  0  0  0
   18.5401   -7.3064  -14.8252 O   0  0  0  0  0  0  0  0  0  0  0  0
  1  2  1  0
  3  2  1  0
  4  5  1  0
  4  3  1  0
  5  1  1  0
  5  6  1  6
  6  8  1  0
  7  6  2  0
  9  8  1  0
 10 11  1  0
  9 10  1  1
 11 12  2  0
 13 12  1  0
 14 13  1  0
 15 14  2  0
 15 11  1  0
 16  9  1  0
 17 16  2  0
 19 18  1  6
 19 21  1  0
 20 19  1  0
 22 21  1  6
 22 24  1  0
 22 23  1  0
 23 16  1  0
 24 25  1  0
 26 24  2  0
M  END
$$$$
