PHL.pdb
     RDKit          3D

 26 27  0  0  1  0  0  0  0  0999 V2000
   19.4213  -14.7384  -17.0542 N   0  0  0  0  0  0  0  0  0  0  0  0
   18.3961  -15.3239  -17.8860 C   0  0  0  0  0  0  0  0  0  0  0  0
   18.8803  -15.2461  -19.3125 C   0  0  0  0  0  0  0  0  0  0  0  0
   20.2960  -14.7318  -19.2048 C   0  0  0  0  0  0  0  0  0  0  0  0
   20.2850  -13.9639  -17.9243 C   0  0  1  0  0  0  0  0  0  0  0  0
   19.7437  -12.5873  -18.0698 C   0  0  0  0  0  0  0  0  0  0  0  0
   20.2071  -11.8306  -18.9466 O   0  0  0  0  0  0  0  0  0  0  0  0
   18.7086  -12.0790  -17.2487 N   0  0  0  0  0  0  0  0  0  0  0  0
   18.2426  -10.7009  -17.3214 C   0  0  1  0  0  0  0  0  0  0  0  0
   16.7145  -10.7369  -17.4115 C   0  0  0  0  0  0  0  0  0  0  0  0
   16.1499  -11.6423  -16.3788 C   0  0  0  0  0  0  0  0  0  0  0  0
   16.4286  -12.9774  -16.1738 C   0  0  0  0  0  0  0  0  0  0  0  0
   15.7218  -13.4550  -15.1443 N   0  0  0  0  0  0  0  0  0  0  0  0
   14.9893  -12.4133  -14.6937 C   0  0  0  0  0  0  0  0  0  0  0  0
   15.2459  -11.3162  -15.4379 N   0  0  0  0  0  0  0  0  0  0  0  0
   18.6480   -9.9169  -16.1475 C   0  0  0  0  0  0  0  0  0  0  0  0
   18.6894  -10.4583  -15.0156 O   0  0  0  0  0  0  0  0  0  0  0  0
   23.0841   -6.5469  -14.4953 C   0  0  0  0  0  0  0  0  0  0  0  0
   21.7881   -7.1349  -14.0580 C   0  0  2  0  0  0  0  0  0  0  0  0
   22.0624   -8.0792  -12.8753 C   0  0  0  0  0  0  0  0  0  0  0  0
   21.0920   -7.9379  -15.0819 C   0  0  0  0  0  0  0  0  0  0  0  0
   19.6174   -7.8207  -15.1894 C   0  0  2  0  0  0  0  0  0  0  0  0
   18.9978   -8.5443  -16.2677 N   0  0  0  0  0  0  0  0  0  0  0  0
   19.1275   -6.4206  -15.0929 C   0  0  0  0  0  0  0  0  0  0  0  0
   18.8217   -5.8202  -13.8761 O   0  0  0  0  0  0  0  0  0  0  0  0
   18.9667   -5.7108  -16.1181 O   0  0  0  0  0  0  0  0  0  0  0  0
  1  2  1  0
  3  2  1  0
  4  5  1  0
  4  3  1  0
  5  1  1  0
  5  6  1  6
  6  8  1  0
  7  6  2  0
  9  8  1  0
 10 11  1  0
  9 10  1  1
 11 12  2  0
 13 12  1  0
 14 13  1  0
 15 14  2  0
 15 11  1  0
 16  9  1  0
 17 16  2  0
 19 18  1  6
 19 21  1  0
 20 19  1  0
 22 21  1  6
 22 24  1  0
 22 23  1  0
 23 16  1  0
 24 25  1  0
 26 24  2  0
M  END
$$$$
