PHL.pdb
     RDKit          3D

 26 27  0  0  1  0  0  0  0  0999 V2000
   29.0834  -19.5194  -18.4797 N   0  0  0  0  0  0  0  0  0  0  0  0
   28.6407  -18.8461  -19.6782 C   0  0  0  0  0  0  0  0  0  0  0  0
   28.8040  -17.3649  -19.4443 C   0  0  0  0  0  0  0  0  0  0  0  0
   29.5102  -17.2669  -18.1131 C   0  0  0  0  0  0  0  0  0  0  0  0
   29.1130  -18.5290  -17.4210 C   0  0  1  0  0  0  0  0  0  0  0  0
   27.7773  -18.4484  -16.7738 C   0  0  0  0  0  0  0  0  0  0  0  0
   27.5104  -17.4869  -16.0252 O   0  0  0  0  0  0  0  0  0  0  0  0
   26.7713  -19.4256  -16.9662 N   0  0  0  0  0  0  0  0  0  0  0  0
   25.4459  -19.3277  -16.3702 C   0  0  1  0  0  0  0  0  0  0  0  0
   24.4297  -19.7342  -17.4410 C   0  0  0  0  0  0  0  0  0  0  0  0
   24.0920  -18.5775  -18.3089 C   0  0  0  0  0  0  0  0  0  0  0  0
   24.4886  -17.2642  -18.1681 C   0  0  0  0  0  0  0  0  0  0  0  0
   23.9812  -16.5097  -19.1484 N   0  0  0  0  0  0  0  0  0  0  0  0
   23.2572  -17.3528  -19.9163 C   0  0  0  0  0  0  0  0  0  0  0  0
   23.3223  -18.6034  -19.4114 N   0  0  0  0  0  0  0  0  0  0  0  0
   25.3005  -20.1999  -15.1976 C   0  0  0  0  0  0  0  0  0  0  0  0
   25.7778  -21.3608  -15.2164 O   0  0  0  0  0  0  0  0  0  0  0  0
   25.6695  -20.2157   -9.1965 C   0  0  0  0  0  0  0  0  0  0  0  0
   25.2341  -20.9192  -10.4342 C   0  0  2  0  0  0  0  0  0  0  0  0
   26.1753  -22.1134  -10.6658 C   0  0  0  0  0  0  0  0  0  0  0  0
   25.2823  -20.1037  -11.6633 C   0  0  0  0  0  0  0  0  0  0  0  0
   24.5235  -20.5687  -12.8498 C   0  0  2  0  0  0  0  0  0  0  0  0
   24.6239  -19.7522  -14.0302 N   0  0  0  0  0  0  0  0  0  0  0  0
   23.1194  -20.9473  -12.5417 C   0  0  0  0  0  0  0  0  0  0  0  0
   22.1137  -20.0023  -12.3676 O   0  0  0  0  0  0  0  0  0  0  0  0
   22.7764  -22.1512  -12.4240 O   0  0  0  0  0  0  0  0  0  0  0  0
  1  2  1  0
  3  2  1  0
  4  5  1  0
  4  3  1  0
  5  1  1  0
  5  6  1  6
  6  8  1  0
  7  6  2  0
  9  8  1  0
 10 11  1  0
  9 10  1  6
 11 12  2  0
 13 12  1  0
 14 13  1  0
 15 14  2  0
 15 11  1  0
 16  9  1  0
 17 16  2  0
 19 18  1  1
 19 21  1  0
 20 19  1  0
 22 21  1  1
 22 24  1  0
 22 23  1  0
 23 16  1  0
 24 25  1  0
 26 24  2  0
M  END
$$$$
