PHL.pdb
     RDKit          3D

 26 27  0  0  1  0  0  0  0  0999 V2000
   14.3472   -8.6104  -16.7953 N   0  0  0  0  0  0  0  0  0  0  0  0
   14.8387   -9.9038  -17.2093 C   0  0  0  0  0  0  0  0  0  0  0  0
   14.0083  -10.9445  -16.5004 C   0  0  0  0  0  0  0  0  0  0  0  0
   12.9296  -10.1550  -15.7980 C   0  0  0  0  0  0  0  0  0  0  0  0
   13.5616   -8.8176  -15.5943 C   0  0  1  0  0  0  0  0  0  0  0  0
   14.4471   -8.7622  -14.4017 C   0  0  0  0  0  0  0  0  0  0  0  0
   14.0217   -9.1568  -13.2974 O   0  0  0  0  0  0  0  0  0  0  0  0
   15.7752   -8.2752  -14.4540 N   0  0  0  0  0  0  0  0  0  0  0  0
   16.6503   -8.2304  -13.2906 C   0  0  1  0  0  0  0  0  0  0  0  0
   18.0710   -7.9617  -13.7945 C   0  0  0  0  0  0  0  0  0  0  0  0
   18.6567   -9.1894  -14.3903 C   0  0  0  0  0  0  0  0  0  0  0  0
   18.1100  -10.4546  -14.4405 C   0  0  0  0  0  0  0  0  0  0  0  0
   18.9378  -11.3027  -15.0594 N   0  0  0  0  0  0  0  0  0  0  0  0
   20.0177  -10.5681  -15.4039 C   0  0  0  0  0  0  0  0  0  0  0  0
   19.8507   -9.2902  -15.0008 N   0  0  0  0  0  0  0  0  0  0  0  0
   16.2575   -7.1798  -12.3425 C   0  0  0  0  0  0  0  0  0  0  0  0
   15.9777   -6.0299  -12.7613 O   0  0  0  0  0  0  0  0  0  0  0  0
   14.1690   -6.5645   -6.5161 C   0  0  0  0  0  0  0  0  0  0  0  0
   14.5994   -5.9478   -7.8010 C   0  0  2  0  0  0  0  0  0  0  0  0
   13.4398   -5.0906   -8.3360 C   0  0  0  0  0  0  0  0  0  0  0  0
   14.9379   -6.9078   -8.8695 C   0  0  0  0  0  0  0  0  0  0  0  0
   15.7656   -6.4366  -10.0064 C   0  0  2  0  0  0  0  0  0  0  0  0
   16.1869   -7.4406  -10.9469 N   0  0  0  0  0  0  0  0  0  0  0  0
   16.8805   -5.5435   -9.5951 C   0  0  0  0  0  0  0  0  0  0  0  0
   16.6866   -4.1996   -9.2937 O   0  0  0  0  0  0  0  0  0  0  0  0
   18.0599   -5.9691   -9.5009 O   0  0  0  0  0  0  0  0  0  0  0  0
  1  2  1  0
  3  2  1  0
  4  5  1  0
  4  3  1  0
  5  1  1  0
  5  6  1  1
  6  8  1  0
  7  6  2  0
  9  8  1  0
 10 11  1  0
  9 10  1  6
 11 12  2  0
 13 12  1  0
 14 13  1  0
 15 14  2  0
 15 11  1  0
 16  9  1  0
 17 16  2  0
 19 18  1  1
 19 21  1  0
 20 19  1  0
 22 21  1  1
 22 24  1  0
 22 23  1  0
 23 16  1  0
 24 25  1  0
 26 24  2  0
M  END
$$$$
