KSH.pdb
     RDKit          3D

 26 26  0  0  1  0  0  0  0  0999 V2000
   10.0090  -17.1700   17.4058 N   0  0  0  0  0  0  0  0  0  0  0  0
    8.9414  -17.4413   18.3040 C   0  0  1  0  0  0  0  0  0  0  0  0
    8.8733  -18.8464   18.7238 C   0  0  0  0  0  0  0  0  0  0  0  0
   10.0454  -19.6866   18.8322 C   0  0  0  0  0  0  0  0  0  0  0  0
   10.1259  -21.0893   19.1681 C   0  0  0  0  0  0  0  0  0  0  0  0
   11.3649  -21.8717   19.2571 C   0  0  0  0  0  0  0  0  0  0  0  0
   10.8925  -23.2529   19.6687 N   0  0  0  0  0  0  0  0  0  0  0  0
    9.0905  -16.5077   19.4871 C   0  0  0  0  0  0  0  0  0  0  0  0
   10.2350  -16.2860   19.9281 O   0  0  0  0  0  0  0  0  0  0  0  0
    5.7606  -15.4169   21.6233 O   0  0  0  0  0  0  0  0  0  0  0  0
    6.6646  -14.4054   21.3854 C   0  0  0  0  0  0  0  0  0  0  0  0
    8.0635  -15.0022   21.2450 C   0  0  2  0  0  0  0  0  0  0  0  0
    7.9855  -15.8875   20.0984 N   0  0  0  0  0  0  0  0  0  0  0  0
    8.4997  -15.6916   22.4641 C   0  0  0  0  0  0  0  0  0  0  0  0
    8.4781  -16.9622   22.4828 O   0  0  0  0  0  0  0  0  0  0  0  0
    8.9512  -15.0543   23.6454 N   0  0  0  0  0  0  0  0  0  0  0  0
    9.3731  -15.7797   24.8396 C   0  0  1  0  0  0  0  0  0  0  0  0
    8.4653  -16.9196   25.1435 C   0  0  0  0  0  0  0  0  0  0  0  0
    8.8964  -17.6900   26.3224 C   0  0  0  0  0  0  0  0  0  0  0  0
    9.8333  -17.2199   27.2281 C   0  0  0  0  0  0  0  0  0  0  0  0
   10.0293  -18.1430   28.2151 N   0  0  0  0  0  0  0  0  0  0  0  0
    9.2103  -19.1824   27.9140 C   0  0  0  0  0  0  0  0  0  0  0  0
    8.5511  -18.8953   26.7940 N   0  0  0  0  0  0  0  0  0  0  0  0
   10.7583  -16.2411   24.7387 C   0  0  0  0  0  0  0  0  0  0  0  0
   11.1471  -16.8362   23.7130 O   0  0  0  0  0  0  0  0  0  0  0  0
   11.6616  -16.0319   25.7648 O   0  0  0  0  0  0  0  0  0  0  0  0
  2  8  1  0
  2  1  1  6
  3  2  1  0
  4  3  1  0
  5  6  1  0
  5  4  1  0
  7  6  1  0
  8  9  2  0
 10 11  1  0
 12 11  1  1
 13 12  1  0
 13  8  1  0
 14 15  2  0
 14 12  1  0
 16 14  1  0
 17 24  1  0
 17 16  1  0
 17 18  1  6
 19 18  1  0
 20 19  2  0
 21 20  1  0
 22 21  1  0
 22 23  2  0
 23 19  1  0
 24 26  1  0
 25 24  2  0
M  END
$$$$
