KSH.pdb
     RDKit          3D

 26 26  0  0  1  0  0  0  0  0999 V2000
    8.1154  -18.3368   19.2328 N   0  0  0  0  0  0  0  0  0  0  0  0
    9.1240  -17.6421   19.9543 C   0  0  1  0  0  0  0  0  0  0  0  0
    8.8963  -16.1937   20.0297 C   0  0  0  0  0  0  0  0  0  0  0  0
    8.8232  -15.3527   18.8556 C   0  0  0  0  0  0  0  0  0  0  0  0
    8.6738  -13.9179   18.7775 C   0  0  0  0  0  0  0  0  0  0  0  0
    8.5449  -13.1436   17.5370 C   0  0  0  0  0  0  0  0  0  0  0  0
    8.3421  -11.7196   18.0182 N   0  0  0  0  0  0  0  0  0  0  0  0
    9.2167  -18.2690   21.3297 C   0  0  0  0  0  0  0  0  0  0  0  0
    8.1637  -18.4530   21.9706 O   0  0  0  0  0  0  0  0  0  0  0  0
   12.9061  -19.4833   22.7601 O   0  0  0  0  0  0  0  0  0  0  0  0
   11.7713  -20.1626   23.1440 C   0  0  0  0  0  0  0  0  0  0  0  0
   10.6048  -19.1814   23.2408 C   0  0  2  0  0  0  0  0  0  0  0  0
   10.4452  -18.6477   21.9013 N   0  0  0  0  0  0  0  0  0  0  0  0
   10.8383  -18.1359   24.2428 C   0  0  0  0  0  0  0  0  0  0  0  0
   11.6474  -17.1967   23.9619 O   0  0  0  0  0  0  0  0  0  0  0  0
   10.2306  -18.0791   25.5207 N   0  0  0  0  0  0  0  0  0  0  0  0
   10.5856  -17.0937   26.5371 C   0  0  1  0  0  0  0  0  0  0  0  0
    9.3825  -16.5543   27.2281 C   0  0  0  0  0  0  0  0  0  0  0  0
    9.7230  -15.6199   28.3144 C   0  0  0  0  0  0  0  0  0  0  0  0
    9.6399  -14.2438   28.1782 C   0  0  0  0  0  0  0  0  0  0  0  0
   10.0111  -13.6382   29.3443 N   0  0  0  0  0  0  0  0  0  0  0  0
   10.3228  -14.6456   30.1985 C   0  0  0  0  0  0  0  0  0  0  0  0
   10.1463  -15.8063   29.5715 N   0  0  0  0  0  0  0  0  0  0  0  0
   11.5377  -17.6304   27.5104 C   0  0  0  0  0  0  0  0  0  0  0  0
   12.5374  -16.9616   27.8432 O   0  0  0  0  0  0  0  0  0  0  0  0
   11.3564  -18.8775   28.0800 O   0  0  0  0  0  0  0  0  0  0  0  0
  2  8  1  0
  2  1  1  6
  3  2  1  0
  4  3  1  0
  5  6  1  0
  5  4  1  0
  7  6  1  0
  8  9  2  0
 10 11  1  0
 12 11  1  6
 13 12  1  0
 13  8  1  0
 14 15  2  0
 14 12  1  0
 16 14  1  0
 17 24  1  0
 17 16  1  0
 17 18  1  1
 19 18  1  0
 20 19  2  0
 21 20  1  0
 22 21  1  0
 22 23  2  0
 23 19  1  0
 24 26  1  0
 25 24  2  0
M  END
$$$$
