KSH.pdb
     RDKit          3D

 26 26  0  0  1  0  0  0  0  0999 V2000
    9.6885  -14.7218   16.1350 N   0  0  0  0  0  0  0  0  0  0  0  0
   10.1189  -15.8616   16.8670 C   0  0  1  0  0  0  0  0  0  0  0  0
   11.0543  -16.7148   16.1237 C   0  0  0  0  0  0  0  0  0  0  0  0
   11.7819  -16.2498   14.9636 C   0  0  0  0  0  0  0  0  0  0  0  0
   12.6847  -16.9835   14.1071 C   0  0  0  0  0  0  0  0  0  0  0  0
   13.4021  -16.4268   12.9537 C   0  0  0  0  0  0  0  0  0  0  0  0
   14.2756  -17.5736   12.4823 N   0  0  0  0  0  0  0  0  0  0  0  0
   10.7184  -15.3703   18.1679 C   0  0  0  0  0  0  0  0  0  0  0  0
   11.5369  -14.4312   18.1273 O   0  0  0  0  0  0  0  0  0  0  0  0
   10.0103  -17.4301   21.7902 O   0  0  0  0  0  0  0  0  0  0  0  0
   10.0259  -16.0536   21.7472 C   0  0  0  0  0  0  0  0  0  0  0  0
   11.0098  -15.5938   20.6733 C   0  0  2  0  0  0  0  0  0  0  0  0
   10.3821  -15.9366   19.4112 N   0  0  0  0  0  0  0  0  0  0  0  0
   12.3334  -16.2057   20.8320 C   0  0  0  0  0  0  0  0  0  0  0  0
   12.8108  -16.8776   19.8645 O   0  0  0  0  0  0  0  0  0  0  0  0
   13.1424  -16.1129   21.9907 N   0  0  0  0  0  0  0  0  0  0  0  0
   14.5070  -15.5954   21.9795 C   0  0  1  0  0  0  0  0  0  0  0  0
   14.5919  -14.2749   21.2976 C   0  0  0  0  0  0  0  0  0  0  0  0
   15.1170  -14.3773   19.9254 C   0  0  0  0  0  0  0  0  0  0  0  0
   15.3039  -15.5881   19.2787 C   0  0  0  0  0  0  0  0  0  0  0  0
   15.7954  -15.3732   18.0230 N   0  0  0  0  0  0  0  0  0  0  0  0
   15.9102  -14.0266   17.8989 C   0  0  0  0  0  0  0  0  0  0  0  0
   15.5051  -13.4578   19.0320 N   0  0  0  0  0  0  0  0  0  0  0  0
   15.0719  -15.5131   23.3271 C   0  0  0  0  0  0  0  0  0  0  0  0
   14.3199  -15.3851   24.3148 O   0  0  0  0  0  0  0  0  0  0  0  0
   16.4373  -15.5743   23.5386 O   0  0  0  0  0  0  0  0  0  0  0  0
  2  8  1  0
  2  1  1  6
  3  2  1  0
  4  3  1  0
  5  6  1  0
  5  4  1  0
  7  6  1  0
  8  9  2  0
 10 11  1  0
 12 11  1  1
 13 12  1  0
 13  8  1  0
 14 15  2  0
 14 12  1  0
 16 14  1  0
 17 24  1  0
 17 16  1  0
 17 18  1  1
 19 18  1  0
 20 19  2  0
 21 20  1  0
 22 21  1  0
 22 23  2  0
 23 19  1  0
 24 26  1  0
 25 24  2  0
M  END
$$$$
