KSH.pdb
     RDKit          3D

 26 26  0  0  1  0  0  0  0  0999 V2000
    8.3143  -18.1875   18.4026 N   0  0  0  0  0  0  0  0  0  0  0  0
    9.1422  -17.2227   19.0383 C   0  0  1  0  0  0  0  0  0  0  0  0
    8.8432  -15.8419   18.6390 C   0  0  0  0  0  0  0  0  0  0  0  0
    8.3463  -15.4994   17.3248 C   0  0  0  0  0  0  0  0  0  0  0  0
    8.0237  -14.1968   16.7900 C   0  0  0  0  0  0  0  0  0  0  0  0
    7.4777  -13.9394   15.4518 C   0  0  0  0  0  0  0  0  0  0  0  0
    7.3948  -12.4267   15.3791 N   0  0  0  0  0  0  0  0  0  0  0  0
    9.0062  -17.4174   20.5339 C   0  0  0  0  0  0  0  0  0  0  0  0
    7.8618  -17.4581   21.0259 O   0  0  0  0  0  0  0  0  0  0  0  0
   12.3983  -17.5179   23.1038 O   0  0  0  0  0  0  0  0  0  0  0  0
   11.3679  -18.4276   23.1906 C   0  0  0  0  0  0  0  0  0  0  0  0
   10.0563  -17.7408   22.8153 C   0  0  2  0  0  0  0  0  0  0  0  0
   10.1234  -17.5531   21.3783 N   0  0  0  0  0  0  0  0  0  0  0  0
    9.8589  -16.4822   23.5422 C   0  0  0  0  0  0  0  0  0  0  0  0
    9.7761  -15.4034   22.8752 O   0  0  0  0  0  0  0  0  0  0  0  0
    9.7506  -16.3599   24.9488 N   0  0  0  0  0  0  0  0  0  0  0  0
    9.2689  -15.1548   25.6167 C   0  0  1  0  0  0  0  0  0  0  0  0
    7.9272  -14.7455   25.1186 C   0  0  0  0  0  0  0  0  0  0  0  0
    7.3965  -13.5650   25.8214 C   0  0  0  0  0  0  0  0  0  0  0  0
    7.6909  -12.2660   25.4405 C   0  0  0  0  0  0  0  0  0  0  0  0
    7.0578  -11.3842   26.2687 N   0  0  0  0  0  0  0  0  0  0  0  0
    6.3729  -12.1443   27.1603 C   0  0  0  0  0  0  0  0  0  0  0  0
    6.5862  -13.4276   26.8791 N   0  0  0  0  0  0  0  0  0  0  0  0
    9.2504  -15.3064   27.0723 C   0  0  0  0  0  0  0  0  0  0  0  0
    9.2285  -14.2977   27.8068 O   0  0  0  0  0  0  0  0  0  0  0  0
    9.2566  -16.5561   27.6645 O   0  0  0  0  0  0  0  0  0  0  0  0
  2  8  1  0
  2  1  1  6
  3  2  1  0
  4  3  1  0
  5  6  1  0
  5  4  1  0
  7  6  1  0
  8  9  2  0
 10 11  1  0
 12 11  1  1
 13 12  1  0
 13  8  1  0
 14 15  2  0
 14 12  1  0
 16 14  1  0
 17 24  1  0
 17 16  1  0
 17 18  1  6
 19 18  1  0
 20 19  2  0
 21 20  1  0
 22 21  1  0
 22 23  2  0
 23 19  1  0
 24 26  1  0
 25 24  2  0
M  END
$$$$
