KSH.pdb
     RDKit          3D

 26 26  0  0  1  0  0  0  0  0999 V2000
    7.4050  -16.9418   20.5057 N   0  0  0  0  0  0  0  0  0  0  0  0
    8.1933  -15.9651   21.1727 C   0  0  1  0  0  0  0  0  0  0  0  0
    7.6788  -14.5981   21.0248 C   0  0  0  0  0  0  0  0  0  0  0  0
    7.7704  -13.8593   19.7850 C   0  0  0  0  0  0  0  0  0  0  0  0
    8.8971  -13.7282   18.8904 C   0  0  0  0  0  0  0  0  0  0  0  0
    8.9344  -12.8851   17.6892 C   0  0  0  0  0  0  0  0  0  0  0  0
    7.4807  -12.5196   17.4577 N   0  0  0  0  0  0  0  0  0  0  0  0
    8.2935  -16.3736   22.6275 C   0  0  0  0  0  0  0  0  0  0  0  0
    7.2398  -16.5786   23.2607 O   0  0  0  0  0  0  0  0  0  0  0  0
   11.9610  -17.3817   24.1009 O   0  0  0  0  0  0  0  0  0  0  0  0
   10.8340  -17.9891   24.6087 C   0  0  0  0  0  0  0  0  0  0  0  0
    9.6913  -16.9765   24.6510 C   0  0  2  0  0  0  0  0  0  0  0  0
    9.5300  -16.5282   23.2808 N   0  0  0  0  0  0  0  0  0  0  0  0
    9.9591  -15.8732   25.5799 C   0  0  0  0  0  0  0  0  0  0  0  0
   10.6534  -14.8906   25.1701 O   0  0  0  0  0  0  0  0  0  0  0  0
    9.5040  -15.8046   26.9191 N   0  0  0  0  0  0  0  0  0  0  0  0
    9.8394  -14.7127   27.8277 C   0  0  1  0  0  0  0  0  0  0  0  0
    8.6216  -14.0713   28.3945 C   0  0  0  0  0  0  0  0  0  0  0  0
    7.7240  -13.5394   27.3550 C   0  0  0  0  0  0  0  0  0  0  0  0
    8.1866  -12.9385   26.1957 C   0  0  0  0  0  0  0  0  0  0  0  0
    7.1315  -12.5496   25.4211 N   0  0  0  0  0  0  0  0  0  0  0  0
    6.0183  -12.9130   26.1071 C   0  0  0  0  0  0  0  0  0  0  0  0
    6.3898  -13.4950   27.2450 N   0  0  0  0  0  0  0  0  0  0  0  0
   10.7348  -15.1488   28.9001 C   0  0  0  0  0  0  0  0  0  0  0  0
   11.1154  -14.3364   29.7676 O   0  0  0  0  0  0  0  0  0  0  0  0
   11.1771  -16.4568   28.9791 O   0  0  0  0  0  0  0  0  0  0  0  0
  2  8  1  0
  2  1  1  6
  3  2  1  0
  4  3  1  0
  5  6  1  0
  5  4  1  0
  7  6  1  0
  8  9  2  0
 10 11  1  0
 12 11  1  6
 13 12  1  0
 13  8  1  0
 14 15  2  0
 14 12  1  0
 16 14  1  0
 17 24  1  0
 17 16  1  0
 17 18  1  1
 19 18  1  0
 20 19  2  0
 21 20  1  0
 22 21  1  0
 22 23  2  0
 23 19  1  0
 24 26  1  0
 25 24  2  0
M  END
$$$$
