KSH.pdb
     RDKit          3D

 26 26  0  0  1  0  0  0  0  0999 V2000
    8.0543  -17.5907   18.9714 N   0  0  0  0  0  0  0  0  0  0  0  0
    8.7368  -16.6958   19.8395 C   0  0  1  0  0  0  0  0  0  0  0  0
    8.2919  -15.3026   19.7103 C   0  0  0  0  0  0  0  0  0  0  0  0
    8.4328  -14.5486   18.4844 C   0  0  0  0  0  0  0  0  0  0  0  0
    8.1093  -13.1637   18.2310 C   0  0  0  0  0  0  0  0  0  0  0  0
    8.3458  -12.4534   16.9682 C   0  0  0  0  0  0  0  0  0  0  0  0
    7.1822  -12.8752   16.0917 N   0  0  0  0  0  0  0  0  0  0  0  0
    8.5672  -17.2112   21.2533 C   0  0  0  0  0  0  0  0  0  0  0  0
    7.4162  -17.4636   21.6593 O   0  0  0  0  0  0  0  0  0  0  0  0
   11.8506  -18.5468   23.1238 O   0  0  0  0  0  0  0  0  0  0  0  0
   10.6330  -19.0812   23.4826 C   0  0  0  0  0  0  0  0  0  0  0  0
    9.5707  -17.9844   23.4458 C   0  0  2  0  0  0  0  0  0  0  0  0
    9.6606  -17.4128   22.1155 N   0  0  0  0  0  0  0  0  0  0  0  0
    9.7627  -16.9875   24.5046 C   0  0  0  0  0  0  0  0  0  0  0  0
   10.6389  -16.0828   24.3338 O   0  0  0  0  0  0  0  0  0  0  0  0
    9.0445  -16.9431   25.7243 N   0  0  0  0  0  0  0  0  0  0  0  0
    9.3470  -16.0066   26.8022 C   0  0  1  0  0  0  0  0  0  0  0  0
    8.1119  -15.4025   27.3726 C   0  0  0  0  0  0  0  0  0  0  0  0
    7.4443  -14.4835   26.4352 C   0  0  0  0  0  0  0  0  0  0  0  0
    7.9850  -14.1348   25.2084 C   0  0  0  0  0  0  0  0  0  0  0  0
    7.1458  -13.2762   24.5579 N   0  0  0  0  0  0  0  0  0  0  0  0
    6.0871  -13.0977   25.3881 C   0  0  0  0  0  0  0  0  0  0  0  0
    6.2829  -13.8183   26.4898 N   0  0  0  0  0  0  0  0  0  0  0  0
   10.1480  -16.6278   27.8579 C   0  0  0  0  0  0  0  0  0  0  0  0
   10.4541  -17.8354   27.7834 O   0  0  0  0  0  0  0  0  0  0  0  0
   10.5814  -15.9016   28.9521 O   0  0  0  0  0  0  0  0  0  0  0  0
  2  8  1  0
  2  1  1  6
  3  2  1  0
  4  3  1  0
  5  6  1  0
  5  4  1  0
  7  6  1  0
  8  9  2  0
 10 11  1  0
 12 11  1  6
 13 12  1  0
 13  8  1  0
 14 15  2  0
 14 12  1  0
 16 14  1  0
 17 24  1  0
 17 16  1  0
 17 18  1  1
 19 18  1  0
 20 19  2  0
 21 20  1  0
 22 21  1  0
 22 23  2  0
 23 19  1  0
 24 26  1  0
 25 24  2  0
M  END
$$$$
