KSH.pdb
     RDKit          3D

 26 26  0  0  1  0  0  0  0  0999 V2000
    8.5349  -18.5644   20.0422 N   0  0  0  0  0  0  0  0  0  0  0  0
    8.0746  -19.3332   21.1455 C   0  0  1  0  0  0  0  0  0  0  0  0
    8.4545  -20.7493   21.0704 C   0  0  0  0  0  0  0  0  0  0  0  0
    8.6784  -21.4321   19.8154 C   0  0  0  0  0  0  0  0  0  0  0  0
    9.0229  -22.8163   19.5867 C   0  0  0  0  0  0  0  0  0  0  0  0
    9.1898  -23.4437   18.2701 C   0  0  0  0  0  0  0  0  0  0  0  0
    9.5358  -24.8840   18.5962 N   0  0  0  0  0  0  0  0  0  0  0  0
    8.5939  -18.6780   22.4082 C   0  0  0  0  0  0  0  0  0  0  0  0
    9.8072  -18.4016   22.4779 O   0  0  0  0  0  0  0  0  0  0  0  0
    5.9883  -18.1800   25.5036 O   0  0  0  0  0  0  0  0  0  0  0  0
    6.9502  -17.2013   25.3869 C   0  0  0  0  0  0  0  0  0  0  0  0
    8.2033  -17.7995   24.7507 C   0  0  2  0  0  0  0  0  0  0  0  0
    7.7552  -18.3736   23.4961 N   0  0  0  0  0  0  0  0  0  0  0  0
    8.8554  -18.7826   25.6224 C   0  0  0  0  0  0  0  0  0  0  0  0
    8.7180  -20.0171   25.3532 O   0  0  0  0  0  0  0  0  0  0  0  0
    9.6395  -18.4721   26.7601 N   0  0  0  0  0  0  0  0  0  0  0  0
   10.2923  -19.4822   27.5870 C   0  0  1  0  0  0  0  0  0  0  0  0
   11.5599  -19.9643   26.9732 C   0  0  0  0  0  0  0  0  0  0  0  0
   12.2115  -21.0180   27.7696 C   0  0  0  0  0  0  0  0  0  0  0  0
   11.5946  -21.6424   28.8414 C   0  0  0  0  0  0  0  0  0  0  0  0
   12.4333  -22.5747   29.3816 N   0  0  0  0  0  0  0  0  0  0  0  0
   13.5681  -22.5221   28.6391 C   0  0  0  0  0  0  0  0  0  0  0  0
   13.4168  -21.5975   27.6937 N   0  0  0  0  0  0  0  0  0  0  0  0
   10.5327  -19.0026   28.9486 C   0  0  0  0  0  0  0  0  0  0  0  0
   10.2548  -17.8255   29.2563 O   0  0  0  0  0  0  0  0  0  0  0  0
   11.0675  -19.8312   29.9181 O   0  0  0  0  0  0  0  0  0  0  0  0
  2  8  1  0
  2  1  1  6
  3  2  1  0
  4  3  1  0
  5  6  1  0
  5  4  1  0
  7  6  1  0
  8  9  2  0
 10 11  1  0
 12 11  1  1
 13 12  1  0
 13  8  1  0
 14 15  2  0
 14 12  1  0
 16 14  1  0
 17 24  1  0
 17 16  1  0
 17 18  1  6
 19 18  1  0
 20 19  2  0
 21 20  1  0
 22 21  1  0
 22 23  2  0
 23 19  1  0
 24 26  1  0
 25 24  2  0
M  END
$$$$
