KSH.pdb
     RDKit          3D

 26 26  0  0  1  0  0  0  0  0999 V2000
    9.4747  -16.1109   19.0844 N   0  0  0  0  0  0  0  0  0  0  0  0
    9.3236  -15.1721   20.1408 C   0  0  1  0  0  0  0  0  0  0  0  0
    8.4063  -14.0721   19.8186 C   0  0  0  0  0  0  0  0  0  0  0  0
    8.2825  -13.5236   18.4862 C   0  0  0  0  0  0  0  0  0  0  0  0
    7.8607  -14.1822   17.2716 C   0  0  0  0  0  0  0  0  0  0  0  0
    7.6788  -13.5285   15.9699 C   0  0  0  0  0  0  0  0  0  0  0  0
    7.1325  -14.6313   15.0836 N   0  0  0  0  0  0  0  0  0  0  0  0
    8.8767  -15.9349   21.3703 C   0  0  0  0  0  0  0  0  0  0  0  0
    7.9882  -16.7995   21.2424 O   0  0  0  0  0  0  0  0  0  0  0  0
   11.1710  -17.7267   23.3908 O   0  0  0  0  0  0  0  0  0  0  0  0
    9.8059  -17.8711   23.5032 C   0  0  0  0  0  0  0  0  0  0  0  0
    9.1795  -16.5139   23.8167 C   0  0  2  0  0  0  0  0  0  0  0  0
    9.4297  -15.6997   22.6425 N   0  0  0  0  0  0  0  0  0  0  0  0
    9.7219  -15.9203   25.0435 C   0  0  0  0  0  0  0  0  0  0  0  0
   10.8316  -15.3039   24.9795 O   0  0  0  0  0  0  0  0  0  0  0  0
    9.1070  -15.9745   26.3180 N   0  0  0  0  0  0  0  0  0  0  0  0
    9.6293  -15.2840   27.4931 C   0  0  1  0  0  0  0  0  0  0  0  0
    8.5467  -14.6245   28.2734 C   0  0  0  0  0  0  0  0  0  0  0  0
    7.8085  -13.6227   27.4856 C   0  0  0  0  0  0  0  0  0  0  0  0
    8.3387  -13.0066   26.3638 C   0  0  0  0  0  0  0  0  0  0  0  0
    7.4295  -12.1328   25.8401 N   0  0  0  0  0  0  0  0  0  0  0  0
    6.3383  -12.2130   26.6430 C   0  0  0  0  0  0  0  0  0  0  0  0
    6.5824  -13.0972   27.6074 N   0  0  0  0  0  0  0  0  0  0  0  0
   10.4079  -16.1776   28.3516 C   0  0  0  0  0  0  0  0  0  0  0  0
   10.5025  -17.3900   28.0716 O   0  0  0  0  0  0  0  0  0  0  0  0
   11.0515  -15.7074   29.4818 O   0  0  0  0  0  0  0  0  0  0  0  0
  2  8  1  0
  2  1  1  6
  3  2  1  0
  4  3  1  0
  5  6  1  0
  5  4  1  0
  7  6  1  0
  8  9  2  0
 10 11  1  0
 12 11  1  6
 13 12  1  0
 13  8  1  0
 14 15  2  0
 14 12  1  0
 16 14  1  0
 17 24  1  0
 17 16  1  0
 17 18  1  1
 19 18  1  0
 20 19  2  0
 21 20  1  0
 22 21  1  0
 22 23  2  0
 23 19  1  0
 24 26  1  0
 25 24  2  0
M  END
$$$$
