KSH.pdb
     RDKit          3D

 26 26  0  0  1  0  0  0  0  0999 V2000
    8.1902  -12.5260   17.0552 N   0  0  0  0  0  0  0  0  0  0  0  0
    7.7009  -13.6388   17.7919 C   0  0  1  0  0  0  0  0  0  0  0  0
    7.6599  -14.8829   17.0134 C   0  0  0  0  0  0  0  0  0  0  0  0
    8.6110  -15.1796   15.9652 C   0  0  0  0  0  0  0  0  0  0  0  0
    9.7899  -16.0126   16.0216 C   0  0  0  0  0  0  0  0  0  0  0  0
   10.7337  -16.2248   14.9174 C   0  0  0  0  0  0  0  0  0  0  0  0
   11.6912  -17.2709   15.4550 N   0  0  0  0  0  0  0  0  0  0  0  0
    8.5588  -13.7796   19.0318 C   0  0  0  0  0  0  0  0  0  0  0  0
    9.7038  -13.2874   19.0207 O   0  0  0  0  0  0  0  0  0  0  0  0
    7.2246  -16.0459   22.2619 O   0  0  0  0  0  0  0  0  0  0  0  0
    7.7764  -14.8070   22.5014 C   0  0  0  0  0  0  0  0  0  0  0  0
    8.8344  -14.5126   21.4398 C   0  0  2  0  0  0  0  0  0  0  0  0
    8.1063  -14.4431   20.1870 N   0  0  0  0  0  0  0  0  0  0  0  0
    9.8995  -15.5208   21.4206 C   0  0  0  0  0  0  0  0  0  0  0  0
   10.2737  -15.9863   20.2986 O   0  0  0  0  0  0  0  0  0  0  0  0
   10.5608  -16.0320   22.5637 N   0  0  0  0  0  0  0  0  0  0  0  0
   12.0060  -16.2214   22.6395 C   0  0  1  0  0  0  0  0  0  0  0  0
   12.7448  -14.9645   22.3389 C   0  0  0  0  0  0  0  0  0  0  0  0
   13.1714  -14.8793   20.9319 C   0  0  0  0  0  0  0  0  0  0  0  0
   12.8353  -15.8319   19.9838 C   0  0  0  0  0  0  0  0  0  0  0  0
   13.3637  -15.4884   18.7725 N   0  0  0  0  0  0  0  0  0  0  0  0
   14.0259  -14.3217   18.9780 C   0  0  0  0  0  0  0  0  0  0  0  0
   13.9003  -13.9798   20.2581 N   0  0  0  0  0  0  0  0  0  0  0  0
   12.4199  -16.7613   23.9353 C   0  0  0  0  0  0  0  0  0  0  0  0
   11.6155  -16.7863   24.8892 O   0  0  0  0  0  0  0  0  0  0  0  0
   13.6975  -17.2519   24.1341 O   0  0  0  0  0  0  0  0  0  0  0  0
  2  8  1  0
  2  1  1  6
  3  2  1  0
  4  3  1  0
  5  6  1  0
  5  4  1  0
  7  6  1  0
  8  9  2  0
 10 11  1  0
 12 11  1  1
 13 12  1  0
 13  8  1  0
 14 15  2  0
 14 12  1  0
 16 14  1  0
 17 24  1  0
 17 16  1  0
 17 18  1  1
 19 18  1  0
 20 19  2  0
 21 20  1  0
 22 21  1  0
 22 23  2  0
 23 19  1  0
 24 26  1  0
 25 24  2  0
M  END
$$$$
