LPL.pdb
     RDKit          3D

 24 24  0  0  1  0  0  0  0  0999 V2000
   36.4258  -30.2111  -16.3195 C   0  0  0  0  0  0  0  0  0  0  0  0
   35.2033  -31.0827  -16.2533 C   0  0  2  0  0  0  0  0  0  0  0  0
   34.0368  -30.1792  -15.8145 C   0  0  0  0  0  0  0  0  0  0  0  0
   35.3188  -32.1939  -15.2885 C   0  0  0  0  0  0  0  0  0  0  0  0
   36.3003  -33.2674  -15.5235 C   0  0  2  0  0  0  0  0  0  0  0  0
   35.8459  -33.9255  -16.7846 N   0  0  0  0  0  0  0  0  0  0  0  0
   36.4720  -34.3085  -14.5398 C   0  0  0  0  0  0  0  0  0  0  0  0
   35.8237  -35.4017  -14.6977 O   0  0  0  0  0  0  0  0  0  0  0  0
   37.3006  -34.2730  -13.3710 N   0  0  0  0  0  0  0  0  0  0  0  0
   38.0251  -33.0945  -12.9750 C   0  0  0  0  0  0  0  0  0  0  0  0
   39.2429  -33.6411  -12.2648 C   0  0  0  0  0  0  0  0  0  0  0  0
   38.9449  -35.0678  -11.9346 C   0  0  0  0  0  0  0  0  0  0  0  0
   37.5750  -35.2957  -12.4281 C   0  0  1  0  0  0  0  0  0  0  0  0
   36.5593  -35.4308  -11.3574 C   0  0  0  0  0  0  0  0  0  0  0  0
   36.0016  -34.3772  -10.9547 O   0  0  0  0  0  0  0  0  0  0  0  0
   33.1316  -39.9836   -9.0268 C   0  0  0  0  0  0  0  0  0  0  0  0
   33.4490  -38.4849   -8.9651 C   0  0  2  0  0  0  0  0  0  0  0  0
   32.2180  -37.7311   -9.3567 C   0  0  0  0  0  0  0  0  0  0  0  0
   34.5639  -38.1969   -9.9392 C   0  0  0  0  0  0  0  0  0  0  0  0
   35.1403  -36.8086   -9.7708 C   0  0  2  0  0  0  0  0  0  0  0  0
   36.1677  -36.6488  -10.7520 N   0  0  0  0  0  0  0  0  0  0  0  0
   35.6790  -36.6947   -8.3750 C   0  0  0  0  0  0  0  0  0  0  0  0
   36.8383  -37.0649   -8.0703 O   0  0  0  0  0  0  0  0  0  0  0  0
   34.8887  -36.1654   -7.3677 O   0  0  0  0  0  0  0  0  0  0  0  0
  2  1  1  1
  2  3  1  0
  4  2  1  0
  4  5  1  0
  5  7  1  0
  5  6  1  6
  7  8  2  0
  9 13  1  0
  9  7  1  0
 10  9  1  0
 11 10  1  0
 11 12  1  0
 12 13  1  0
 13 14  1  1
 14 15  2  0
 17 16  1  6
 17 19  1  0
 18 17  1  0
 20 19  1  1
 20 21  1  0
 20 22  1  0
 21 14  1  0
 22 23  2  0
 22 24  1  0
M  END
$$$$
