LPL.pdb
     RDKit          3D

 24 24  0  0  1  0  0  0  0  0999 V2000
   27.1141  -21.5290   -4.7356 C   0  0  0  0  0  0  0  0  0  0  0  0
   27.9549  -20.7757   -5.7277 C   0  0  2  0  0  0  0  0  0  0  0  0
   29.2842  -20.4470   -5.0245 C   0  0  0  0  0  0  0  0  0  0  0  0
   27.3448  -19.5109   -6.1828 C   0  0  0  0  0  0  0  0  0  0  0  0
   27.7831  -18.9024   -7.4511 C   0  0  2  0  0  0  0  0  0  0  0  0
   27.3139  -17.4869   -7.3732 N   0  0  0  0  0  0  0  0  0  0  0  0
   27.3089  -19.4381   -8.7037 C   0  0  0  0  0  0  0  0  0  0  0  0
   26.1769  -19.0322   -9.1445 O   0  0  0  0  0  0  0  0  0  0  0  0
   27.9633  -20.3981   -9.5429 N   0  0  0  0  0  0  0  0  0  0  0  0
   29.0765  -21.1882   -9.0877 C   0  0  0  0  0  0  0  0  0  0  0  0
   29.8795  -21.4379  -10.3443 C   0  0  0  0  0  0  0  0  0  0  0  0
   28.9796  -21.1349  -11.4982 C   0  0  0  0  0  0  0  0  0  0  0  0
   27.6932  -20.7527  -10.8888 C   0  0  1  0  0  0  0  0  0  0  0  0
   26.6206  -21.7622  -11.0532 C   0  0  0  0  0  0  0  0  0  0  0  0
   26.3185  -22.4526  -10.0456 O   0  0  0  0  0  0  0  0  0  0  0  0
   22.5217  -18.6566  -12.7472 C   0  0  0  0  0  0  0  0  0  0  0  0
   22.6808  -20.1397  -12.3930 C   0  0  2  0  0  0  0  0  0  0  0  0
   21.9307  -20.3995  -11.1254 C   0  0  0  0  0  0  0  0  0  0  0  0
   24.1485  -20.4237  -12.1932 C   0  0  0  0  0  0  0  0  0  0  0  0
   24.4998  -21.8745  -12.4382 C   0  0  2  0  0  0  0  0  0  0  0  0
   25.9106  -22.0117  -12.2518 N   0  0  0  0  0  0  0  0  0  0  0  0
   24.0850  -22.2236  -13.8372 C   0  0  0  0  0  0  0  0  0  0  0  0
   23.1119  -22.9771  -14.0810 O   0  0  0  0  0  0  0  0  0  0  0  0
   24.7844  -21.7090  -14.9168 O   0  0  0  0  0  0  0  0  0  0  0  0
  2  1  1  1
  2  3  1  0
  4  2  1  0
  4  5  1  0
  5  7  1  0
  5  6  1  1
  7  8  2  0
  9 13  1  0
  9  7  1  0
 10  9  1  0
 11 10  1  0
 11 12  1  0
 12 13  1  0
 13 14  1  1
 14 15  2  0
 17 16  1  1
 17 19  1  0
 18 17  1  0
 20 19  1  6
 20 21  1  0
 20 22  1  0
 21 14  1  0
 22 23  2  0
 22 24  1  0
M  END
$$$$
