LPL.pdb
     RDKit          3D

 24 24  0  0  1  0  0  0  0  0999 V2000
   27.4598  -21.6811  -17.4267 C   0  0  0  0  0  0  0  0  0  0  0  0
   28.5855  -21.6748  -16.4312 C   0  0  2  0  0  0  0  0  0  0  0  0
   28.5310  -23.0230  -15.6904 C   0  0  0  0  0  0  0  0  0  0  0  0
   28.4882  -20.5918  -15.4328 C   0  0  0  0  0  0  0  0  0  0  0  0
   27.2333  -19.8313  -15.2988 C   0  0  2  0  0  0  0  0  0  0  0  0
   27.5512  -18.4783  -15.8447 N   0  0  0  0  0  0  0  0  0  0  0  0
   26.6503  -19.6359  -13.9938 C   0  0  0  0  0  0  0  0  0  0  0  0
   27.1577  -18.7388  -13.2337 O   0  0  0  0  0  0  0  0  0  0  0  0
   25.5418  -20.3416  -13.4216 N   0  0  0  0  0  0  0  0  0  0  0  0
   24.9035  -21.4455  -14.0883 C   0  0  0  0  0  0  0  0  0  0  0  0
   23.4734  -21.3830  -13.6015 C   0  0  0  0  0  0  0  0  0  0  0  0
   23.4701  -20.5160  -12.3843 C   0  0  0  0  0  0  0  0  0  0  0  0
   24.8788  -20.1308  -12.1862 C   0  0  1  0  0  0  0  0  0  0  0  0
   25.5278  -20.7814  -11.0235 C   0  0  0  0  0  0  0  0  0  0  0  0
   26.0353  -21.9180  -11.2072 O   0  0  0  0  0  0  0  0  0  0  0  0
   28.7924  -20.5712   -8.0483 C   0  0  0  0  0  0  0  0  0  0  0  0
   27.7444  -19.4525   -8.0190 C   0  0  2  0  0  0  0  0  0  0  0  0
   28.2289  -18.3838   -7.0917 C   0  0  0  0  0  0  0  0  0  0  0  0
   26.4483  -20.0314   -7.5093 C   0  0  0  0  0  0  0  0  0  0  0  0
   25.7918  -20.9586   -8.5080 C   0  0  2  0  0  0  0  0  0  0  0  0
   25.6213  -20.2273   -9.7245 N   0  0  0  0  0  0  0  0  0  0  0  0
   24.4783  -21.4039   -7.9356 C   0  0  0  0  0  0  0  0  0  0  0  0
   23.3894  -20.8718   -8.2598 O   0  0  0  0  0  0  0  0  0  0  0  0
   24.4382  -22.4377   -7.0141 O   0  0  0  0  0  0  0  0  0  0  0  0
  2  1  1  6
  2  3  1  0
  4  2  1  0
  4  5  1  0
  5  7  1  0
  5  6  1  1
  7  8  2  0
  9 13  1  0
  9  7  1  0
 10  9  1  0
 11 10  1  0
 11 12  1  0
 12 13  1  0
 13 14  1  1
 14 15  2  0
 17 16  1  1
 17 19  1  0
 18 17  1  0
 20 19  1  1
 20 21  1  0
 20 22  1  0
 21 14  1  0
 22 23  2  0
 22 24  1  0
M  END
$$$$
