LPL.pdb
     RDKit          3D

 24 24  0  0  1  0  0  0  0  0999 V2000
   26.0794  -14.8788  -16.4701 C   0  0  0  0  0  0  0  0  0  0  0  0
   24.7398  -15.5095  -16.2129 C   0  0  2  0  0  0  0  0  0  0  0  0
   24.0117  -14.6081  -15.1996 C   0  0  0  0  0  0  0  0  0  0  0  0
   24.8239  -16.8706  -15.6476 C   0  0  0  0  0  0  0  0  0  0  0  0
   25.4784  -17.9430  -16.4174 C   0  0  2  0  0  0  0  0  0  0  0  0
   24.5815  -18.1679  -17.5899 N   0  0  0  0  0  0  0  0  0  0  0  0
   25.7051  -19.2287  -15.8039 C   0  0  0  0  0  0  0  0  0  0  0  0
   24.8381  -20.1514  -15.9968 O   0  0  0  0  0  0  0  0  0  0  0  0
   26.8111  -19.6162  -14.9788 N   0  0  0  0  0  0  0  0  0  0  0  0
   27.7858  -18.6711  -14.5022 C   0  0  0  0  0  0  0  0  0  0  0  0
   29.0509  -19.4896  -14.3769 C   0  0  0  0  0  0  0  0  0  0  0  0
   28.6381  -20.9258  -14.3908 C   0  0  0  0  0  0  0  0  0  0  0  0
   27.1680  -20.8994  -14.4926 C   0  0  1  0  0  0  0  0  0  0  0  0
   26.4667  -21.3010  -13.2502 C   0  0  0  0  0  0  0  0  0  0  0  0
   26.8381  -22.3685  -12.6973 O   0  0  0  0  0  0  0  0  0  0  0  0
   26.1020  -19.7687   -7.9520 C   0  0  0  0  0  0  0  0  0  0  0  0
   25.2097  -20.5655   -8.9110 C   0  0  2  0  0  0  0  0  0  0  0  0
   25.2050  -21.9933   -8.4657 C   0  0  0  0  0  0  0  0  0  0  0  0
   25.7916  -20.4581  -10.2983 C   0  0  0  0  0  0  0  0  0  0  0  0
   24.8146  -20.8782  -11.3740 C   0  0  2  0  0  0  0  0  0  0  0  0
   25.4136  -20.5808  -12.6375 N   0  0  0  0  0  0  0  0  0  0  0  0
   23.5392  -20.1152  -11.1675 C   0  0  0  0  0  0  0  0  0  0  0  0
   22.7234  -20.4039  -10.2592 O   0  0  0  0  0  0  0  0  0  0  0  0
   23.2269  -19.0493  -11.9956 O   0  0  0  0  0  0  0  0  0  0  0  0
  2  1  1  1
  2  3  1  0
  4  2  1  0
  4  5  1  0
  5  7  1  0
  5  6  1  6
  7  8  2  0
  9 13  1  0
  9  7  1  0
 10  9  1  0
 11 10  1  0
 11 12  1  0
 12 13  1  0
 13 14  1  1
 14 15  2  0
 17 16  1  1
 17 19  1  0
 18 17  1  0
 20 19  1  1
 20 21  1  0
 20 22  1  0
 21 14  1  0
 22 23  2  0
 22 24  1  0
M  END
$$$$
