LPL.pdb
     RDKit          3D

 24 24  0  0  1  0  0  0  0  0999 V2000
   24.7236  -22.6044  -18.4160 C   0  0  0  0  0  0  0  0  0  0  0  0
   25.4830  -23.6287  -17.6207 C   0  0  2  0  0  0  0  0  0  0  0  0
   24.5445  -24.8352  -17.4390 C   0  0  0  0  0  0  0  0  0  0  0  0
   25.8956  -23.1556  -16.2847 C   0  0  0  0  0  0  0  0  0  0  0  0
   27.1345  -22.3718  -16.1368 C   0  0  2  0  0  0  0  0  0  0  0  0
   28.2329  -23.3465  -16.4072 N   0  0  0  0  0  0  0  0  0  0  0  0
   27.4329  -21.7350  -14.8773 C   0  0  0  0  0  0  0  0  0  0  0  0
   28.2144  -22.3416  -14.0639 O   0  0  0  0  0  0  0  0  0  0  0  0
   26.9493  -20.4711  -14.4052 N   0  0  0  0  0  0  0  0  0  0  0  0
   26.0748  -19.6389  -15.1883 C   0  0  0  0  0  0  0  0  0  0  0  0
   26.4164  -18.2354  -14.7412 C   0  0  0  0  0  0  0  0  0  0  0  0
   27.1596  -18.3630  -13.4510 C   0  0  0  0  0  0  0  0  0  0  0  0
   27.2017  -19.8104  -13.1763 C   0  0  1  0  0  0  0  0  0  0  0  0
   26.3293  -20.2412  -12.0584 C   0  0  0  0  0  0  0  0  0  0  0  0
   25.2434  -20.8025  -12.3570 O   0  0  0  0  0  0  0  0  0  0  0  0
   28.4137  -21.1990   -8.0052 C   0  0  0  0  0  0  0  0  0  0  0  0
   27.8239  -19.8000   -8.2191 C   0  0  2  0  0  0  0  0  0  0  0  0
   28.1768  -18.9590   -7.0337 C   0  0  0  0  0  0  0  0  0  0  0  0
   26.3257  -19.9305   -8.3334 C   0  0  0  0  0  0  0  0  0  0  0  0
   25.8981  -20.6499   -9.5935 C   0  0  2  0  0  0  0  0  0  0  0  0
   26.6196  -20.0712  -10.6836 N   0  0  0  0  0  0  0  0  0  0  0  0
   24.4161  -20.4744   -9.7491 C   0  0  0  0  0  0  0  0  0  0  0  0
   23.9171  -19.5311  -10.4088 O   0  0  0  0  0  0  0  0  0  0  0  0
   23.5451  -21.3720   -9.1533 O   0  0  0  0  0  0  0  0  0  0  0  0
  2  1  1  1
  2  3  1  0
  4  2  1  0
  4  5  1  0
  5  7  1  0
  5  6  1  1
  7  8  2  0
  9 13  1  0
  9  7  1  0
 10  9  1  0
 11 10  1  0
 11 12  1  0
 12 13  1  0
 13 14  1  1
 14 15  2  0
 17 16  1  1
 17 19  1  0
 18 17  1  0
 20 19  1  1
 20 21  1  0
 20 22  1  0
 21 14  1  0
 22 23  2  0
 22 24  1  0
M  END
$$$$
