LPL.pdb
     RDKit          3D

 24 24  0  0  1  0  0  0  0  0999 V2000
   27.1687  -15.4933  -17.7066 C   0  0  0  0  0  0  0  0  0  0  0  0
   25.7375  -15.9492  -17.7540 C   0  0  2  0  0  0  0  0  0  0  0  0
   24.8685  -14.7181  -17.4396 C   0  0  0  0  0  0  0  0  0  0  0  0
   25.4188  -17.0056  -16.7735 C   0  0  0  0  0  0  0  0  0  0  0  0
   26.1156  -18.3020  -16.8429 C   0  0  2  0  0  0  0  0  0  0  0  0
   25.5958  -18.9444  -18.0867 N   0  0  0  0  0  0  0  0  0  0  0  0
   25.9577  -19.2579  -15.7741 C   0  0  0  0  0  0  0  0  0  0  0  0
   24.8652  -19.9237  -15.7155 O   0  0  0  0  0  0  0  0  0  0  0  0
   26.8969  -19.5653  -14.7360 N   0  0  0  0  0  0  0  0  0  0  0  0
   28.1569  -18.8821  -14.6091 C   0  0  0  0  0  0  0  0  0  0  0  0
   29.0670  -19.9162  -13.9857 C   0  0  0  0  0  0  0  0  0  0  0  0
   28.1847  -20.9801  -13.4174 C   0  0  0  0  0  0  0  0  0  0  0  0
   26.8107  -20.5260  -13.6968 C   0  0  1  0  0  0  0  0  0  0  0  0
   26.0678  -20.0682  -12.4989 C   0  0  0  0  0  0  0  0  0  0  0  0
   26.3351  -18.9205  -12.0579 O   0  0  0  0  0  0  0  0  0  0  0  0
   22.1283  -19.1324  -12.3053 C   0  0  0  0  0  0  0  0  0  0  0  0
   22.3728  -20.6390  -12.1598 C   0  0  2  0  0  0  0  0  0  0  0  0
   21.0605  -21.3408  -12.3079 C   0  0  0  0  0  0  0  0  0  0  0  0
   22.9447  -20.8952  -10.7879 C   0  0  0  0  0  0  0  0  0  0  0  0
   24.3671  -20.3998  -10.6479 C   0  0  2  0  0  0  0  0  0  0  0  0
   25.0837  -20.8183  -11.8120 N   0  0  0  0  0  0  0  0  0  0  0  0
   24.9440  -20.9902   -9.3949 C   0  0  0  0  0  0  0  0  0  0  0  0
   25.7290  -21.9687   -9.4132 O   0  0  0  0  0  0  0  0  0  0  0  0
   24.6147  -20.4546   -8.1604 O   0  0  0  0  0  0  0  0  0  0  0  0
  2  1  1  1
  2  3  1  0
  4  2  1  0
  4  5  1  0
  5  7  1  0
  5  6  1  6
  7  8  2  0
  9 13  1  0
  9  7  1  0
 10  9  1  0
 11 10  1  0
 11 12  1  0
 12 13  1  0
 13 14  1  1
 14 15  2  0
 17 16  1  1
 17 19  1  0
 18 17  1  0
 20 19  1  6
 20 21  1  0
 20 22  1  0
 21 14  1  0
 22 23  2  0
 22 24  1  0
M  END
$$$$
