LPL.pdb
     RDKit          3D

 24 24  0  0  1  0  0  0  0  0999 V2000
   26.9555  -19.3171  -14.7562 C   0  0  0  0  0  0  0  0  0  0  0  0
   25.6984  -19.4893  -13.9508 C   0  0  2  0  0  0  0  0  0  0  0  0
   25.0174  -18.1101  -13.8901 C   0  0  0  0  0  0  0  0  0  0  0  0
   25.9378  -19.9505  -12.5691 C   0  0  0  0  0  0  0  0  0  0  0  0
   26.6686  -21.2082  -12.3343 C   0  0  2  0  0  0  0  0  0  0  0  0
   25.6705  -22.2832  -12.6135 N   0  0  0  0  0  0  0  0  0  0  0  0
   27.2298  -21.4779  -11.0331 C   0  0  0  0  0  0  0  0  0  0  0  0
   26.4567  -21.9502  -10.1278 O   0  0  0  0  0  0  0  0  0  0  0  0
   28.5847  -21.2766  -10.6111 N   0  0  0  0  0  0  0  0  0  0  0  0
   29.5831  -20.7009  -11.4727 C   0  0  0  0  0  0  0  0  0  0  0  0
   30.8736  -21.3328  -11.0022 C   0  0  0  0  0  0  0  0  0  0  0  0
   30.6034  -21.9090   -9.6500 C   0  0  0  0  0  0  0  0  0  0  0  0
   29.1960  -21.5749   -9.3671 C   0  0  1  0  0  0  0  0  0  0  0  0
   29.0170  -20.5312   -8.3303 C   0  0  0  0  0  0  0  0  0  0  0  0
   29.0069  -19.3328   -8.7135 O   0  0  0  0  0  0  0  0  0  0  0  0
   25.6221  -19.4990   -6.1522 C   0  0  0  0  0  0  0  0  0  0  0  0
   26.3585  -20.7518   -5.6635 C   0  0  2  0  0  0  0  0  0  0  0  0
   25.4677  -21.4704   -4.7007 C   0  0  0  0  0  0  0  0  0  0  0  0
   27.6251  -20.3161   -4.9703 C   0  0  0  0  0  0  0  0  0  0  0  0
   28.6627  -19.7836   -5.9336 C   0  0  2  0  0  0  0  0  0  0  0  0
   28.8576  -20.7748   -6.9452 N   0  0  0  0  0  0  0  0  0  0  0  0
   29.9218  -19.5190   -5.1615 C   0  0  0  0  0  0  0  0  0  0  0  0
   30.9018  -20.3019   -5.1862 O   0  0  0  0  0  0  0  0  0  0  0  0
   30.0324  -18.3765   -4.3857 O   0  0  0  0  0  0  0  0  0  0  0  0
  2  1  1  6
  2  3  1  0
  4  2  1  0
  4  5  1  0
  5  7  1  0
  5  6  1  1
  7  8  2  0
  9 13  1  0
  9  7  1  0
 10  9  1  0
 11 10  1  0
 11 12  1  0
 12 13  1  0
 13 14  1  1
 14 15  2  0
 17 16  1  1
 17 19  1  0
 18 17  1  0
 20 19  1  1
 20 21  1  0
 20 22  1  0
 21 14  1  0
 22 23  2  0
 22 24  1  0
M  END
$$$$
