LPL.pdb
     RDKit          3D

 24 24  0  0  1  0  0  0  0  0999 V2000
   27.4193  -16.2665  -15.6392 C   0  0  0  0  0  0  0  0  0  0  0  0
   26.1202  -17.0214  -15.6707 C   0  0  2  0  0  0  0  0  0  0  0  0
   25.0421  -16.0735  -15.1151 C   0  0  0  0  0  0  0  0  0  0  0  0
   26.1274  -18.2487  -14.8504 C   0  0  0  0  0  0  0  0  0  0  0  0
   27.1099  -19.3102  -15.1312 C   0  0  2  0  0  0  0  0  0  0  0  0
   26.7015  -19.8621  -16.4572 N   0  0  0  0  0  0  0  0  0  0  0  0
   27.2351  -20.4273  -14.2271 C   0  0  0  0  0  0  0  0  0  0  0  0
   26.4740  -21.4409  -14.4102 O   0  0  0  0  0  0  0  0  0  0  0  0
   28.1300  -20.5499  -13.1143 N   0  0  0  0  0  0  0  0  0  0  0  0
   28.9057  -19.4420  -12.6230 C   0  0  0  0  0  0  0  0  0  0  0  0
   30.1479  -20.0935  -12.0583 C   0  0  0  0  0  0  0  0  0  0  0  0
   29.8330  -21.5441  -11.8855 C   0  0  0  0  0  0  0  0  0  0  0  0
   28.4317  -21.6849  -12.3200 C   0  0  1  0  0  0  0  0  0  0  0  0
   27.4758  -21.9311  -11.2144 C   0  0  0  0  0  0  0  0  0  0  0  0
   27.4717  -23.0794  -10.7001 O   0  0  0  0  0  0  0  0  0  0  0  0
   27.4905  -19.5015   -8.7969 C   0  0  0  0  0  0  0  0  0  0  0  0
   26.0998  -19.6959   -8.1815 C   0  0  2  0  0  0  0  0  0  0  0  0
   26.2199  -19.5398   -6.6989 C   0  0  0  0  0  0  0  0  0  0  0  0
   25.6234  -21.0866   -8.5185 C   0  0  0  0  0  0  0  0  0  0  0  0
   25.3536  -21.2680   -9.9959 C   0  0  2  0  0  0  0  0  0  0  0  0
   26.5681  -20.9789  -10.6924 N   0  0  0  0  0  0  0  0  0  0  0  0
   24.2497  -20.3295  -10.3857 C   0  0  0  0  0  0  0  0  0  0  0  0
   24.4353  -19.3579  -11.1574 O   0  0  0  0  0  0  0  0  0  0  0  0
   22.9700  -20.5201   -9.8900 O   0  0  0  0  0  0  0  0  0  0  0  0
  2  1  1  1
  2  3  1  0
  4  2  1  0
  4  5  1  0
  5  7  1  0
  5  6  1  6
  7  8  2  0
  9 13  1  0
  9  7  1  0
 10  9  1  0
 11 10  1  0
 11 12  1  0
 12 13  1  0
 13 14  1  1
 14 15  2  0
 17 16  1  6
 17 19  1  0
 18 17  1  0
 20 19  1  1
 20 21  1  0
 20 22  1  0
 21 14  1  0
 22 23  2  0
 22 24  1  0
M  END
$$$$
