LPL.pdb
     RDKit          3D

 24 24  0  0  1  0  0  0  0  0999 V2000
   24.6123  -16.9662  -14.1006 C   0  0  0  0  0  0  0  0  0  0  0  0
   25.8705  -17.7863  -14.1552 C   0  0  2  0  0  0  0  0  0  0  0  0
   27.0284  -16.8063  -14.4164 C   0  0  0  0  0  0  0  0  0  0  0  0
   25.8705  -18.8017  -15.2267 C   0  0  0  0  0  0  0  0  0  0  0  0
   26.8966  -19.8591  -15.2320 C   0  0  2  0  0  0  0  0  0  0  0  0
   26.5891  -20.6782  -16.4421 N   0  0  0  0  0  0  0  0  0  0  0  0
   26.9927  -20.7692  -14.1170 C   0  0  0  0  0  0  0  0  0  0  0  0
   26.1430  -21.7246  -14.0420 O   0  0  0  0  0  0  0  0  0  0  0  0
   27.9471  -20.7382  -13.0482 N   0  0  0  0  0  0  0  0  0  0  0  0
   28.7836  -19.5952  -12.7945 C   0  0  0  0  0  0  0  0  0  0  0  0
   30.0364  -20.1912  -12.1932 C   0  0  0  0  0  0  0  0  0  0  0  0
   29.6883  -21.5782  -11.7593 C   0  0  0  0  0  0  0  0  0  0  0  0
   28.2603  -21.7342  -12.0890 C   0  0  1  0  0  0  0  0  0  0  0  0
   27.3639  -21.7522  -10.9089 C   0  0  0  0  0  0  0  0  0  0  0  0
   27.3345  -22.8064  -10.2226 O   0  0  0  0  0  0  0  0  0  0  0  0
   27.0596  -20.7123   -6.7809 C   0  0  0  0  0  0  0  0  0  0  0  0
   27.1627  -19.5813   -7.8108 C   0  0  2  0  0  0  0  0  0  0  0  0
   27.4187  -18.3038   -7.0765 C   0  0  0  0  0  0  0  0  0  0  0  0
   25.8530  -19.4974   -8.5541 C   0  0  0  0  0  0  0  0  0  0  0  0
   25.5956  -20.7109   -9.4197 C   0  0  2  0  0  0  0  0  0  0  0  0
   26.5389  -20.6798  -10.4935 N   0  0  0  0  0  0  0  0  0  0  0  0
   24.1818  -20.6366   -9.9164 C   0  0  0  0  0  0  0  0  0  0  0  0
   23.8935  -20.2112  -11.0609 O   0  0  0  0  0  0  0  0  0  0  0  0
   23.1383  -21.0461   -9.1023 O   0  0  0  0  0  0  0  0  0  0  0  0
  2  1  1  6
  2  3  1  0
  4  2  1  0
  4  5  1  0
  5  7  1  0
  5  6  1  6
  7  8  2  0
  9 13  1  0
  9  7  1  0
 10  9  1  0
 11 10  1  0
 11 12  1  0
 12 13  1  0
 13 14  1  1
 14 15  2  0
 17 16  1  1
 17 19  1  0
 18 17  1  0
 20 19  1  1
 20 21  1  0
 20 22  1  0
 21 14  1  0
 22 23  2  0
 22 24  1  0
M  END
$$$$
