LPL.pdb
     RDKit          3D

 24 24  0  0  1  0  0  0  0  0999 V2000
   28.2283  -17.4480  -15.6218 C   0  0  0  0  0  0  0  0  0  0  0  0
   26.8624  -17.4193  -14.9957 C   0  0  2  0  0  0  0  0  0  0  0  0
   26.5815  -15.9560  -14.6092 C   0  0  0  0  0  0  0  0  0  0  0  0
   26.7492  -18.2506  -13.7810 C   0  0  0  0  0  0  0  0  0  0  0  0
   27.0602  -19.6893  -13.8480 C   0  0  2  0  0  0  0  0  0  0  0  0
   25.9658  -20.2743  -14.6786 N   0  0  0  0  0  0  0  0  0  0  0  0
   27.1308  -20.4638  -12.6330 C   0  0  0  0  0  0  0  0  0  0  0  0
   26.0418  -20.9402  -12.1561 O   0  0  0  0  0  0  0  0  0  0  0  0
   28.3013  -20.7762  -11.8672 N   0  0  0  0  0  0  0  0  0  0  0  0
   29.6077  -20.2881  -12.2218 C   0  0  0  0  0  0  0  0  0  0  0  0
   30.5439  -21.3615  -11.7144 C   0  0  0  0  0  0  0  0  0  0  0  0
   29.7644  -22.1905  -10.7456 C   0  0  0  0  0  0  0  0  0  0  0  0
   28.4297  -21.5672  -10.6975 C   0  0  1  0  0  0  0  0  0  0  0  0
   28.1423  -20.8459   -9.4351 C   0  0  0  0  0  0  0  0  0  0  0  0
   29.1222  -20.5515   -8.7028 O   0  0  0  0  0  0  0  0  0  0  0  0
   28.2660  -20.9039   -5.3522 C   0  0  0  0  0  0  0  0  0  0  0  0
   27.9735  -19.7807   -6.3539 C   0  0  2  0  0  0  0  0  0  0  0  0
   28.2791  -18.4746   -5.6924 C   0  0  0  0  0  0  0  0  0  0  0  0
   26.5126  -19.8444   -6.7232 C   0  0  0  0  0  0  0  0  0  0  0  0
   26.2235  -20.8890   -7.7784 C   0  0  2  0  0  0  0  0  0  0  0  0
   26.8552  -20.4631   -8.9881 N   0  0  0  0  0  0  0  0  0  0  0  0
   24.7348  -20.9942   -7.9331 C   0  0  0  0  0  0  0  0  0  0  0  0
   24.1471  -20.6893   -8.9988 O   0  0  0  0  0  0  0  0  0  0  0  0
   23.9576  -21.4413   -6.8769 O   0  0  0  0  0  0  0  0  0  0  0  0
  2  1  1  1
  2  3  1  0
  4  2  1  0
  4  5  1  0
  5  7  1  0
  5  6  1  6
  7  8  2  0
  9 13  1  0
  9  7  1  0
 10  9  1  0
 11 10  1  0
 11 12  1  0
 12 13  1  0
 13 14  1  1
 14 15  2  0
 17 16  1  1
 17 19  1  0
 18 17  1  0
 20 19  1  1
 20 21  1  0
 20 22  1  0
 21 14  1  0
 22 23  2  0
 22 24  1  0
M  END
$$$$
