LPL.pdb
     RDKit          3D

 24 24  0  0  1  0  0  0  0  0999 V2000
   21.8712  -27.6530  -12.5398 C   0  0  0  0  0  0  0  0  0  0  0  0
   20.5922  -28.0758  -11.8734 C   0  0  2  0  0  0  0  0  0  0  0  0
   20.0951  -26.8677  -11.0592 C   0  0  0  0  0  0  0  0  0  0  0  0
   20.7521  -29.2207  -10.9555 C   0  0  0  0  0  0  0  0  0  0  0  0
   21.0146  -30.5641  -11.5009 C   0  0  2  0  0  0  0  0  0  0  0  0
   19.8347  -30.8572  -12.3679 N   0  0  0  0  0  0  0  0  0  0  0  0
   21.1703  -31.6831  -10.6039 C   0  0  0  0  0  0  0  0  0  0  0  0
   20.1135  -32.2720  -10.1835 O   0  0  0  0  0  0  0  0  0  0  0  0
   22.3957  -32.2358  -10.1067 N   0  0  0  0  0  0  0  0  0  0  0  0
   23.6770  -31.6411  -10.3811 C   0  0  0  0  0  0  0  0  0  0  0  0
   24.6291  -32.8157  -10.3731 C   0  0  0  0  0  0  0  0  0  0  0  0
   23.9183  -33.9419   -9.6952 C   0  0  0  0  0  0  0  0  0  0  0  0
   22.6075  -33.3892   -9.3098 C   0  0  1  0  0  0  0  0  0  0  0  0
   22.4480  -33.1657   -7.8534 C   0  0  0  0  0  0  0  0  0  0  0  0
   22.9486  -32.1163   -7.3724 O   0  0  0  0  0  0  0  0  0  0  0  0
   18.7997  -32.7726   -5.4245 C   0  0  0  0  0  0  0  0  0  0  0  0
   19.1208  -34.2128   -5.8410 C   0  0  2  0  0  0  0  0  0  0  0  0
   17.9813  -35.0851   -5.4199 C   0  0  0  0  0  0  0  0  0  0  0  0
   20.3855  -34.6380   -5.1376 C   0  0  0  0  0  0  0  0  0  0  0  0
   21.5889  -33.8251   -5.5609 C   0  0  2  0  0  0  0  0  0  0  0  0
   21.7790  -34.0378   -6.9618 N   0  0  0  0  0  0  0  0  0  0  0  0
   22.7695  -34.2905   -4.7603 C   0  0  0  0  0  0  0  0  0  0  0  0
   23.6789  -34.9993   -5.2548 O   0  0  0  0  0  0  0  0  0  0  0  0
   22.8839  -33.9392   -3.4251 O   0  0  0  0  0  0  0  0  0  0  0  0
  2  1  1  1
  2  3  1  0
  4  2  1  0
  4  5  1  0
  5  7  1  0
  5  6  1  6
  7  8  2  0
  9 13  1  0
  9  7  1  0
 10  9  1  0
 11 10  1  0
 11 12  1  0
 12 13  1  0
 13 14  1  1
 14 15  2  0
 17 16  1  1
 17 19  1  0
 18 17  1  0
 20 19  1  1
 20 21  1  0
 20 22  1  0
 21 14  1  0
 22 23  2  0
 22 24  1  0
M  END
$$$$
