KYN.pdb
     RDKit          3D

 30 30  0  0  1  0  0  0  0  0999 V2000
    6.9279  -15.2792   20.6225 N   0  0  0  0  0  0  0  0  0  0  0  0
    8.1362  -14.5526   20.4080 C   0  0  1  0  0  0  0  0  0  0  0  0
    7.9245  -13.1325   19.9310 C   0  0  0  0  0  0  0  0  0  0  0  0
    7.1928  -13.1580   18.6300 C   0  0  0  0  0  0  0  0  0  0  0  0
    8.0675  -13.5078   17.4559 C   0  0  0  0  0  0  0  0  0  0  0  0
    7.2618  -13.5119   16.1866 C   0  0  0  0  0  0  0  0  0  0  0  0
    8.0203  -13.9811   15.0491 N   0  0  0  0  0  0  0  0  0  0  0  0
    8.9148  -14.4822   21.6563 C   0  0  0  0  0  0  0  0  0  0  0  0
   10.0797  -13.9704   21.7048 O   0  0  0  0  0  0  0  0  0  0  0  0
   10.5364  -14.9551   30.3623 O   0  0  0  0  0  0  0  0  0  0  0  0
    9.9942  -14.8634   29.0983 C   0  0  0  0  0  0  0  0  0  0  0  0
    9.9534  -13.6673   28.4219 C   0  0  0  0  0  0  0  0  0  0  0  0
    9.4212  -13.5408   27.1631 C   0  0  0  0  0  0  0  0  0  0  0  0
    8.8987  -14.6490   26.5296 C   0  0  0  0  0  0  0  0  0  0  0  0
    8.3032  -14.6218   25.1933 C   0  0  0  0  0  0  0  0  0  0  0  0
    9.2107  -15.0204   24.0726 C   0  0  2  0  0  0  0  0  0  0  0  0
    8.3864  -14.9869   22.8551 N   0  0  0  0  0  0  0  0  0  0  0  0
    9.7417  -16.3890   24.2624 C   0  0  0  0  0  0  0  0  0  0  0  0
    8.9763  -17.3974   24.2810 O   0  0  0  0  0  0  0  0  0  0  0  0
    8.9373  -15.8543   27.2061 C   0  0  0  0  0  0  0  0  0  0  0  0
    9.4754  -15.9806   28.4779 C   0  0  0  0  0  0  0  0  0  0  0  0
   12.1692  -19.0397   21.7369 N   0  0  0  0  0  0  0  0  0  0  0  0
   12.7347  -17.9425   22.4235 C   0  0  0  0  0  0  0  0  0  0  0  0
   13.0077  -16.8983   21.8022 O   0  0  0  0  0  0  0  0  0  0  0  0
   12.9960  -18.0424   23.8647 C   0  0  0  0  0  0  0  0  0  0  0  0
   11.6958  -17.9380   24.6198 C   0  0  2  0  0  0  0  0  0  0  0  0
   11.1388  -16.5871   24.4284 N   0  0  0  0  0  0  0  0  0  0  0  0
   11.9227  -18.1538   26.0595 C   0  0  0  0  0  0  0  0  0  0  0  0
   11.7097  -17.2929   26.9236 O   0  0  0  0  0  0  0  0  0  0  0  0
   12.4023  -19.3876   26.4848 O   0  0  0  0  0  0  0  0  0  0  0  0
  2  1  1  1
  3  4  1  0
  3  2  1  0
  5  6  1  0
  5  4  1  0
  6  7  1  0
  8  2  1  0
  8  9  2  0
 10 11  1  0
 11 12  2  0
 12 13  1  0
 14 13  2  0
 14 15  1  0
 16 15  1  1
 16 17  1  0
 17  8  1  0
 18 16  1  0
 19 18  2  0
 20 14  1  0
 21 11  1  0
 21 20  2  0
 22 23  1  0
 23 25  1  0
 24 23  2  0
 26 25  1  6
 26 28  1  0
 26 27  1  0
 27 18  1  0
 28 30  1  0
 29 28  2  0
M  END
$$$$
