KYN.pdb
     RDKit          3D

 30 30  0  0  1  0  0  0  0  0999 V2000
    6.8936  -15.9495   19.5195 N   0  0  0  0  0  0  0  0  0  0  0  0
    8.0291  -15.1098   19.3200 C   0  0  1  0  0  0  0  0  0  0  0  0
    7.7210  -13.8202   18.5914 C   0  0  0  0  0  0  0  0  0  0  0  0
    7.2220  -14.1402   17.2213 C   0  0  0  0  0  0  0  0  0  0  0  0
    7.6086  -13.1169   16.1872 C   0  0  0  0  0  0  0  0  0  0  0  0
    6.8865  -13.3807   14.8952 C   0  0  0  0  0  0  0  0  0  0  0  0
    7.4997  -14.4370   14.1222 N   0  0  0  0  0  0  0  0  0  0  0  0
    8.6260  -14.7467   20.6166 C   0  0  0  0  0  0  0  0  0  0  0  0
    9.7165  -14.0955   20.7062 O   0  0  0  0  0  0  0  0  0  0  0  0
    9.2207  -14.0796   29.4592 O   0  0  0  0  0  0  0  0  0  0  0  0
    8.8100  -14.2541   28.1550 C   0  0  0  0  0  0  0  0  0  0  0  0
    8.5253  -15.5027   27.6551 C   0  0  0  0  0  0  0  0  0  0  0  0
    8.1142  -15.7119   26.3624 C   0  0  0  0  0  0  0  0  0  0  0  0
    7.9737  -14.6370   25.5096 C   0  0  0  0  0  0  0  0  0  0  0  0
    7.5488  -14.7508   24.1140 C   0  0  0  0  0  0  0  0  0  0  0  0
    8.6519  -14.8450   23.1078 C   0  0  2  0  0  0  0  0  0  0  0  0
    7.9989  -15.1143   21.8178 N   0  0  0  0  0  0  0  0  0  0  0  0
    9.5824  -15.9525   23.4219 C   0  0  0  0  0  0  0  0  0  0  0  0
    9.2471  -17.1626   23.2595 O   0  0  0  0  0  0  0  0  0  0  0  0
    8.2591  -13.3791   26.0078 C   0  0  0  0  0  0  0  0  0  0  0  0
    8.6742  -13.1693   27.3141 C   0  0  0  0  0  0  0  0  0  0  0  0
   14.7444  -17.9751   22.9799 N   0  0  0  0  0  0  0  0  0  0  0  0
   14.2652  -17.2037   24.0617 C   0  0  0  0  0  0  0  0  0  0  0  0
   14.7038  -17.4081   25.2093 O   0  0  0  0  0  0  0  0  0  0  0  0
   13.2535  -16.1667   23.8241 C   0  0  0  0  0  0  0  0  0  0  0  0
   11.8821  -16.7313   24.0929 C   0  0  2  0  0  0  0  0  0  0  0  0
   10.8823  -15.6631   23.9169 N   0  0  0  0  0  0  0  0  0  0  0  0
   11.7979  -17.2315   25.4761 C   0  0  0  0  0  0  0  0  0  0  0  0
   11.7952  -18.4341   25.7712 O   0  0  0  0  0  0  0  0  0  0  0  0
   11.7166  -16.3133   26.5171 O   0  0  0  0  0  0  0  0  0  0  0  0
  2  1  1  1
  3  4  1  0
  3  2  1  0
  5  6  1  0
  5  4  1  0
  6  7  1  0
  8  2  1  0
  8  9  2  0
 10 11  1  0
 11 12  2  0
 12 13  1  0
 14 13  2  0
 14 15  1  0
 16 15  1  1
 16 17  1  0
 17  8  1  0
 18 16  1  0
 19 18  2  0
 20 14  1  0
 21 11  1  0
 21 20  2  0
 22 23  1  0
 23 25  1  0
 24 23  2  0
 26 25  1  1
 26 28  1  0
 26 27  1  0
 27 18  1  0
 28 30  1  0
 29 28  2  0
M  END
$$$$
