KYN.pdb
     RDKit          3D

 30 30  0  0  1  0  0  0  0  0999 V2000
    6.8994  -15.4242   20.5688 N   0  0  0  0  0  0  0  0  0  0  0  0
    8.2022  -14.8635   20.4191 C   0  0  1  0  0  0  0  0  0  0  0  0
    8.2037  -13.4299   19.9355 C   0  0  0  0  0  0  0  0  0  0  0  0
    7.4151  -13.3399   18.6711 C   0  0  0  0  0  0  0  0  0  0  0  0
    8.2196  -13.6535   17.4381 C   0  0  0  0  0  0  0  0  0  0  0  0
    7.3444  -13.6051   16.2166 C   0  0  0  0  0  0  0  0  0  0  0  0
    8.0364  -14.0296   15.0207 N   0  0  0  0  0  0  0  0  0  0  0  0
    8.9175  -14.8906   21.7063 C   0  0  0  0  0  0  0  0  0  0  0  0
   10.0880  -14.4089   21.8456 O   0  0  0  0  0  0  0  0  0  0  0  0
    5.7154  -10.3492   26.3535 O   0  0  0  0  0  0  0  0  0  0  0  0
    6.2403  -11.5899   26.0615 C   0  0  0  0  0  0  0  0  0  0  0  0
    5.4337  -12.6387   25.6884 C   0  0  0  0  0  0  0  0  0  0  0  0
    5.9230  -13.8861   25.3909 C   0  0  0  0  0  0  0  0  0  0  0  0
    7.2803  -14.1205   25.4625 C   0  0  0  0  0  0  0  0  0  0  0  0
    7.9032  -15.4125   25.1728 C   0  0  0  0  0  0  0  0  0  0  0  0
    8.9928  -15.3898   24.1479 C   0  0  2  0  0  0  0  0  0  0  0  0
    8.3196  -15.4593   22.8422 N   0  0  0  0  0  0  0  0  0  0  0  0
    9.8984  -16.5521   24.2901 C   0  0  0  0  0  0  0  0  0  0  0  0
    9.4862  -17.7358   24.1117 O   0  0  0  0  0  0  0  0  0  0  0  0
    8.0958  -13.0687   25.8374 C   0  0  0  0  0  0  0  0  0  0  0  0
    7.5999  -11.8090   26.1377 C   0  0  0  0  0  0  0  0  0  0  0  0
   15.3218  -18.5978   23.9296 N   0  0  0  0  0  0  0  0  0  0  0  0
   14.5524  -18.0358   24.9722 C   0  0  0  0  0  0  0  0  0  0  0  0
   14.6774  -18.4660   26.1342 O   0  0  0  0  0  0  0  0  0  0  0  0
   13.6111  -16.9485   24.6771 C   0  0  0  0  0  0  0  0  0  0  0  0
   12.2009  -17.4787   24.7205 C   0  0  2  0  0  0  0  0  0  0  0  0
   11.2615  -16.3465   24.6341 N   0  0  0  0  0  0  0  0  0  0  0  0
   11.9625  -18.1924   25.9873 C   0  0  0  0  0  0  0  0  0  0  0  0
   12.0659  -19.4199   26.1125 O   0  0  0  0  0  0  0  0  0  0  0  0
   11.6008  -17.4591   27.1119 O   0  0  0  0  0  0  0  0  0  0  0  0
  2  1  1  1
  3  4  1  0
  3  2  1  0
  5  6  1  0
  5  4  1  0
  6  7  1  0
  8  2  1  0
  8  9  2  0
 10 11  1  0
 11 12  2  0
 12 13  1  0
 14 13  2  0
 14 15  1  0
 16 15  1  1
 16 17  1  0
 17  8  1  0
 18 16  1  0
 19 18  2  0
 20 14  1  0
 21 11  1  0
 21 20  2  0
 22 23  1  0
 23 25  1  0
 24 23  2  0
 26 25  1  1
 26 28  1  0
 26 27  1  0
 27 18  1  0
 28 30  1  0
 29 28  2  0
M  END
$$$$
