KYN.pdb
     RDKit          3D

 30 30  0  0  1  0  0  0  0  0999 V2000
    7.9781  -16.1807   19.3388 N   0  0  0  0  0  0  0  0  0  0  0  0
    8.9739  -15.1604   19.3764 C   0  0  1  0  0  0  0  0  0  0  0  0
    8.6127  -13.9182   18.5919 C   0  0  0  0  0  0  0  0  0  0  0  0
    7.8426  -14.3148   17.3761 C   0  0  0  0  0  0  0  0  0  0  0  0
    8.5135  -13.9242   16.0864 C   0  0  0  0  0  0  0  0  0  0  0  0
    7.6302  -14.2566   14.9161 C   0  0  0  0  0  0  0  0  0  0  0  0
    8.2316  -13.9058   13.6494 N   0  0  0  0  0  0  0  0  0  0  0  0
    9.2199  -14.7422   20.7671 C   0  0  0  0  0  0  0  0  0  0  0  0
   10.0307  -13.8063   21.0637 O   0  0  0  0  0  0  0  0  0  0  0  0
    6.9394  -11.5101   28.3913 O   0  0  0  0  0  0  0  0  0  0  0  0
    7.0102  -12.1864   27.1922 C   0  0  0  0  0  0  0  0  0  0  0  0
    6.0297  -13.0710   26.8103 C   0  0  0  0  0  0  0  0  0  0  0  0
    6.0689  -13.7605   25.6241 C   0  0  0  0  0  0  0  0  0  0  0  0
    7.1290  -13.5734   24.7619 C   0  0  0  0  0  0  0  0  0  0  0  0
    7.2703  -14.2620   23.4786 C   0  0  0  0  0  0  0  0  0  0  0  0
    8.6294  -14.8161   23.1882 C   0  0  2  0  0  0  0  0  0  0  0  0
    8.5551  -15.3746   21.8297 N   0  0  0  0  0  0  0  0  0  0  0  0
    8.9926  -15.8927   24.1370 C   0  0  0  0  0  0  0  0  0  0  0  0
    9.0162  -15.6910   25.3867 O   0  0  0  0  0  0  0  0  0  0  0  0
    8.1178  -12.6846   25.1417 C   0  0  0  0  0  0  0  0  0  0  0  0
    8.0768  -11.9887   26.3404 C   0  0  0  0  0  0  0  0  0  0  0  0
   13.1679  -18.9059   23.2660 N   0  0  0  0  0  0  0  0  0  0  0  0
   13.0243  -17.5157   23.4700 C   0  0  0  0  0  0  0  0  0  0  0  0
   14.0150  -16.8317   23.7888 O   0  0  0  0  0  0  0  0  0  0  0  0
   11.7074  -16.8882   23.3044 C   0  0  0  0  0  0  0  0  0  0  0  0
   10.6480  -17.7770   23.9041 C   0  0  2  0  0  0  0  0  0  0  0  0
    9.3239  -17.1840   23.6457 N   0  0  0  0  0  0  0  0  0  0  0  0
   10.8383  -17.8867   25.3610 C   0  0  0  0  0  0  0  0  0  0  0  0
   10.9245  -18.9660   25.9617 O   0  0  0  0  0  0  0  0  0  0  0  0
   10.9277  -16.7217   26.1148 O   0  0  0  0  0  0  0  0  0  0  0  0
  2  1  1  1
  3  4  1  0
  3  2  1  0
  5  6  1  0
  5  4  1  0
  6  7  1  0
  8  2  1  0
  8  9  2  0
 10 11  1  0
 11 12  2  0
 12 13  1  0
 14 13  2  0
 14 15  1  0
 16 15  1  1
 16 17  1  0
 17  8  1  0
 18 16  1  0
 19 18  2  0
 20 14  1  0
 21 11  1  0
 21 20  2  0
 22 23  1  0
 23 25  1  0
 24 23  2  0
 26 25  1  1
 26 28  1  0
 26 27  1  0
 27 18  1  0
 28 30  1  0
 29 28  2  0
M  END
$$$$
