KYN.pdb
     RDKit          3D

 30 30  0  0  1  0  0  0  0  0999 V2000
    8.1879  -16.5612   19.5493 N   0  0  0  0  0  0  0  0  0  0  0  0
    8.8907  -15.3322   19.3770 C   0  0  1  0  0  0  0  0  0  0  0  0
    8.2072  -14.3576   18.4430 C   0  0  0  0  0  0  0  0  0  0  0  0
    7.9350  -15.0369   17.1419 C   0  0  0  0  0  0  0  0  0  0  0  0
    8.0457  -14.1215   15.9520 C   0  0  0  0  0  0  0  0  0  0  0  0
    7.7312  -14.8693   14.6861 C   0  0  0  0  0  0  0  0  0  0  0  0
    7.8726  -14.0469   13.5059 N   0  0  0  0  0  0  0  0  0  0  0  0
    9.0521  -14.6535   20.6741 C   0  0  0  0  0  0  0  0  0  0  0  0
    9.7529  -13.5990   20.8088 O   0  0  0  0  0  0  0  0  0  0  0  0
    6.4965  -11.6664   28.5589 O   0  0  0  0  0  0  0  0  0  0  0  0
    6.6589  -12.3292   27.3613 C   0  0  0  0  0  0  0  0  0  0  0  0
    6.8533  -11.6449   26.1849 C   0  0  0  0  0  0  0  0  0  0  0  0
    7.0185  -12.2731   24.9758 C   0  0  0  0  0  0  0  0  0  0  0  0
    6.9919  -13.6508   24.9144 C   0  0  0  0  0  0  0  0  0  0  0  0
    7.1511  -14.4172   23.6782 C   0  0  0  0  0  0  0  0  0  0  0  0
    8.5320  -14.4373   23.1029 C   0  0  2  0  0  0  0  0  0  0  0  0
    8.4259  -15.1577   21.8251 N   0  0  0  0  0  0  0  0  0  0  0  0
    9.4797  -15.1527   23.9867 C   0  0  0  0  0  0  0  0  0  0  0  0
    9.4950  -14.9537   25.2370 O   0  0  0  0  0  0  0  0  0  0  0  0
    6.7965  -14.3436   26.0950 C   0  0  0  0  0  0  0  0  0  0  0  0
    6.6298  -13.7074   27.3159 C   0  0  0  0  0  0  0  0  0  0  0  0
   10.5941  -19.4405   26.2938 N   0  0  0  0  0  0  0  0  0  0  0  0
   10.3049  -19.4949   24.9124 C   0  0  0  0  0  0  0  0  0  0  0  0
   10.4782  -20.5570   24.2856 O   0  0  0  0  0  0  0  0  0  0  0  0
    9.8022  -18.2981   24.2267 C   0  0  0  0  0  0  0  0  0  0  0  0
   10.8739  -17.2384   24.2140 C   0  0  2  0  0  0  0  0  0  0  0  0
   10.3965  -16.0849   23.4308 N   0  0  0  0  0  0  0  0  0  0  0  0
   12.0999  -17.7595   23.5848 C   0  0  0  0  0  0  0  0  0  0  0  0
   13.0378  -18.2589   24.2207 O   0  0  0  0  0  0  0  0  0  0  0  0
   12.2236  -17.6932   22.2014 O   0  0  0  0  0  0  0  0  0  0  0  0
  2  1  1  1
  3  4  1  0
  3  2  1  0
  5  6  1  0
  5  4  1  0
  6  7  1  0
  8  2  1  0
  8  9  2  0
 10 11  1  0
 11 12  2  0
 12 13  1  0
 14 13  2  0
 14 15  1  0
 16 15  1  1
 16 17  1  0
 17  8  1  0
 18 16  1  0
 19 18  2  0
 20 14  1  0
 21 11  1  0
 21 20  2  0
 22 23  1  0
 23 25  1  0
 24 23  2  0
 26 25  1  6
 26 28  1  0
 26 27  1  0
 27 18  1  0
 28 30  1  0
 29 28  2  0
M  END
$$$$
