KYN.pdb
     RDKit          3D

 30 30  0  0  1  0  0  0  0  0999 V2000
    7.3739  -16.1897   21.1884 N   0  0  0  0  0  0  0  0  0  0  0  0
    8.2228  -15.0478   21.2864 C   0  0  1  0  0  0  0  0  0  0  0  0
    7.7392  -13.8513   20.4966 C   0  0  0  0  0  0  0  0  0  0  0  0
    7.5957  -14.2384   19.0620 C   0  0  0  0  0  0  0  0  0  0  0  0
    7.9896  -13.1468   18.1032 C   0  0  0  0  0  0  0  0  0  0  0  0
    7.6708  -13.5514   16.6908 C   0  0  0  0  0  0  0  0  0  0  0  0
    7.9220  -12.4923   15.7398 N   0  0  0  0  0  0  0  0  0  0  0  0
    8.3429  -14.6236   22.6917 C   0  0  0  0  0  0  0  0  0  0  0  0
    7.3299  -14.3188   23.4004 O   0  0  0  0  0  0  0  0  0  0  0  0
    5.6760  -10.8893   27.4348 O   0  0  0  0  0  0  0  0  0  0  0  0
    6.3572  -11.9597   26.8961 C   0  0  0  0  0  0  0  0  0  0  0  0
    7.7259  -11.9458   26.7674 C   0  0  0  0  0  0  0  0  0  0  0  0
    8.4352  -12.9938   26.2359 C   0  0  0  0  0  0  0  0  0  0  0  0
    7.7663  -14.1207   25.8055 C   0  0  0  0  0  0  0  0  0  0  0  0
    8.4250  -15.2883   25.2192 C   0  0  0  0  0  0  0  0  0  0  0  0
    9.7968  -15.0500   24.6717 C   0  0  2  0  0  0  0  0  0  0  0  0
    9.6027  -14.5405   23.3059 N   0  0  0  0  0  0  0  0  0  0  0  0
   10.5858  -16.3012   24.6161 C   0  0  0  0  0  0  0  0  0  0  0  0
   10.7634  -17.0160   25.6460 O   0  0  0  0  0  0  0  0  0  0  0  0
    6.3895  -14.1393   25.9328 C   0  0  0  0  0  0  0  0  0  0  0  0
    5.6744  -13.0797   26.4700 C   0  0  0  0  0  0  0  0  0  0  0  0
   12.6034  -20.4796   21.0184 N   0  0  0  0  0  0  0  0  0  0  0  0
   13.1500  -19.4143   21.7675 C   0  0  0  0  0  0  0  0  0  0  0  0
   14.2532  -19.5545   22.3281 O   0  0  0  0  0  0  0  0  0  0  0  0
   12.4125  -18.1498   21.8792 C   0  0  0  0  0  0  0  0  0  0  0  0
   11.8743  -18.0037   23.2795 C   0  0  2  0  0  0  0  0  0  0  0  0
   11.1608  -16.7186   23.3858 N   0  0  0  0  0  0  0  0  0  0  0  0
   12.9789  -18.0107   24.2544 C   0  0  0  0  0  0  0  0  0  0  0  0
   13.2550  -18.9824   24.9706 O   0  0  0  0  0  0  0  0  0  0  0  0
   13.7626  -16.8699   24.3876 O   0  0  0  0  0  0  0  0  0  0  0  0
  2  1  1  1
  3  4  1  0
  3  2  1  0
  5  6  1  0
  5  4  1  0
  6  7  1  0
  8  2  1  0
  8  9  2  0
 10 11  1  0
 11 12  2  0
 12 13  1  0
 14 13  2  0
 14 15  1  0
 16 15  1  6
 16 17  1  0
 17  8  1  0
 18 16  1  0
 19 18  2  0
 20 14  1  0
 21 11  1  0
 21 20  2  0
 22 23  1  0
 23 25  1  0
 24 23  2  0
 26 25  1  6
 26 28  1  0
 26 27  1  0
 27 18  1  0
 28 30  1  0
 29 28  2  0
M  END
$$$$
