KYN.pdb
     RDKit          3D

 30 30  0  0  1  0  0  0  0  0999 V2000
    8.2303  -16.6252   20.4157 N   0  0  0  0  0  0  0  0  0  0  0  0
    9.1169  -15.5094   20.3620 C   0  0  1  0  0  0  0  0  0  0  0  0
    8.6198  -14.3686   19.5014 C   0  0  0  0  0  0  0  0  0  0  0  0
    8.3986  -14.8656   18.1113 C   0  0  0  0  0  0  0  0  0  0  0  0
    8.2195  -13.7640   17.1011 C   0  0  0  0  0  0  0  0  0  0  0  0
    7.9965  -14.3420   15.7313 C   0  0  0  0  0  0  0  0  0  0  0  0
    7.6879  -13.3309   14.7456 N   0  0  0  0  0  0  0  0  0  0  0  0
    9.3383  -14.9712   21.7150 C   0  0  0  0  0  0  0  0  0  0  0  0
   10.0616  -13.9456   21.9303 O   0  0  0  0  0  0  0  0  0  0  0  0
    5.8845  -10.5603   27.5875 O   0  0  0  0  0  0  0  0  0  0  0  0
    6.3128  -11.6894   26.9229 C   0  0  0  0  0  0  0  0  0  0  0  0
    5.6710  -12.1428   25.7949 C   0  0  0  0  0  0  0  0  0  0  0  0
    6.0708  -13.2626   25.1091 C   0  0  0  0  0  0  0  0  0  0  0  0
    7.1619  -13.9801   25.5531 C   0  0  0  0  0  0  0  0  0  0  0  0
    7.6658  -15.1889   24.9006 C   0  0  0  0  0  0  0  0  0  0  0  0
    8.9681  -15.0398   24.1796 C   0  0  2  0  0  0  0  0  0  0  0  0
    8.7470  -15.5839   22.8313 N   0  0  0  0  0  0  0  0  0  0  0  0
   10.0479  -15.8059   24.8416 C   0  0  0  0  0  0  0  0  0  0  0  0
   10.1847  -15.8008   26.1003 O   0  0  0  0  0  0  0  0  0  0  0  0
    7.8107  -13.5281   26.6874 C   0  0  0  0  0  0  0  0  0  0  0  0
    7.4055  -12.3965   27.3791 C   0  0  0  0  0  0  0  0  0  0  0  0
   11.1230  -20.4703   26.4423 N   0  0  0  0  0  0  0  0  0  0  0  0
   10.9526  -20.1416   25.0792 C   0  0  0  0  0  0  0  0  0  0  0  0
   11.2764  -20.9620   24.2001 O   0  0  0  0  0  0  0  0  0  0  0  0
   10.3950  -18.8347   24.7102 C   0  0  0  0  0  0  0  0  0  0  0  0
   11.5132  -17.8353   24.5595 C   0  0  2  0  0  0  0  0  0  0  0  0
   10.9562  -16.5667   24.0575 N   0  0  0  0  0  0  0  0  0  0  0  0
   12.5103  -18.3268   23.5926 C   0  0  0  0  0  0  0  0  0  0  0  0
   12.3575  -18.2764   22.3649 O   0  0  0  0  0  0  0  0  0  0  0  0
   13.6926  -18.8801   24.0718 O   0  0  0  0  0  0  0  0  0  0  0  0
  2  1  1  1
  3  4  1  0
  3  2  1  0
  5  6  1  0
  5  4  1  0
  6  7  1  0
  8  2  1  0
  8  9  2  0
 10 11  1  0
 11 12  2  0
 12 13  1  0
 14 13  2  0
 14 15  1  0
 16 15  1  1
 16 17  1  0
 17  8  1  0
 18 16  1  0
 19 18  2  0
 20 14  1  0
 21 11  1  0
 21 20  2  0
 22 23  1  0
 23 25  1  0
 24 23  2  0
 26 25  1  6
 26 28  1  0
 26 27  1  0
 27 18  1  0
 28 30  1  0
 29 28  2  0
M  END
$$$$
