KYN.pdb
     RDKit          3D

 30 30  0  0  1  0  0  0  0  0999 V2000
    7.9988  -15.7913   19.0785 N   0  0  0  0  0  0  0  0  0  0  0  0
    8.9202  -14.7082   19.1878 C   0  0  1  0  0  0  0  0  0  0  0  0
    8.5089  -13.4700   18.4218 C   0  0  0  0  0  0  0  0  0  0  0  0
    7.8122  -13.8806   17.1670 C   0  0  0  0  0  0  0  0  0  0  0  0
    8.7516  -14.3036   16.0695 C   0  0  0  0  0  0  0  0  0  0  0  0
    7.9891  -14.5637   14.8001 C   0  0  0  0  0  0  0  0  0  0  0  0
    8.8462  -14.9793   13.7129 N   0  0  0  0  0  0  0  0  0  0  0  0
    9.0780  -14.3163   20.5987 C   0  0  0  0  0  0  0  0  0  0  0  0
    9.9557  -13.4755   20.9783 O   0  0  0  0  0  0  0  0  0  0  0  0
    6.8505  -12.1682   28.7635 O   0  0  0  0  0  0  0  0  0  0  0  0
    6.8862  -12.6639   27.4779 C   0  0  0  0  0  0  0  0  0  0  0  0
    6.2260  -13.8209   27.1381 C   0  0  0  0  0  0  0  0  0  0  0  0
    6.2406  -14.3420   25.8684 C   0  0  0  0  0  0  0  0  0  0  0  0
    6.9420  -13.6932   24.8736 C   0  0  0  0  0  0  0  0  0  0  0  0
    7.0272  -14.1664   23.4917 C   0  0  0  0  0  0  0  0  0  0  0  0
    8.4060  -14.4673   22.9949 C   0  0  2  0  0  0  0  0  0  0  0  0
    8.2492  -14.8681   21.5886 N   0  0  0  0  0  0  0  0  0  0  0  0
    9.0266  -15.5786   23.7506 C   0  0  0  0  0  0  0  0  0  0  0  0
    9.0919  -15.5616   25.0149 O   0  0  0  0  0  0  0  0  0  0  0  0
    7.6078  -12.5291   25.2105 C   0  0  0  0  0  0  0  0  0  0  0  0
    7.5921  -12.0039   26.4938 C   0  0  0  0  0  0  0  0  0  0  0  0
    9.8051  -19.0976   20.5038 N   0  0  0  0  0  0  0  0  0  0  0  0
    9.6922  -19.2226   21.9061 C   0  0  0  0  0  0  0  0  0  0  0  0
    8.6628  -19.7182   22.4020 O   0  0  0  0  0  0  0  0  0  0  0  0
   10.7898  -18.7670   22.7680 C   0  0  0  0  0  0  0  0  0  0  0  0
   10.2623  -17.7735   23.7712 C   0  0  2  0  0  0  0  0  0  0  0  0
    9.5638  -16.6932   23.0523 N   0  0  0  0  0  0  0  0  0  0  0  0
   11.3729  -17.1856   24.5402 C   0  0  0  0  0  0  0  0  0  0  0  0
   11.6538  -17.5157   25.7002 O   0  0  0  0  0  0  0  0  0  0  0  0
   12.1569  -16.2051   23.9425 O   0  0  0  0  0  0  0  0  0  0  0  0
  2  1  1  1
  3  4  1  0
  3  2  1  0
  5  6  1  0
  5  4  1  0
  6  7  1  0
  8  2  1  0
  8  9  2  0
 10 11  1  0
 11 12  2  0
 12 13  1  0
 14 13  2  0
 14 15  1  0
 16 15  1  1
 16 17  1  0
 17  8  1  0
 18 16  1  0
 19 18  2  0
 20 14  1  0
 21 11  1  0
 21 20  2  0
 22 23  1  0
 23 25  1  0
 24 23  2  0
 26 25  1  6
 26 28  1  0
 26 27  1  0
 27 18  1  0
 28 30  1  0
 29 28  2  0
M  END
$$$$
