KYN.pdb
     RDKit          3D

 30 30  0  0  1  0  0  0  0  0999 V2000
    9.0999  -18.7171   21.0169 N   0  0  0  0  0  0  0  0  0  0  0  0
   10.1993  -17.8447   20.7637 C   0  0  1  0  0  0  0  0  0  0  0  0
   10.2669  -17.3362   19.3403 C   0  0  0  0  0  0  0  0  0  0  0  0
   10.2560  -18.4995   18.4048 C   0  0  0  0  0  0  0  0  0  0  0  0
   10.2118  -18.1025   16.9535 C   0  0  0  0  0  0  0  0  0  0  0  0
   10.2935  -19.3203   16.0757 C   0  0  0  0  0  0  0  0  0  0  0  0
   10.1303  -19.0064   14.6742 N   0  0  0  0  0  0  0  0  0  0  0  0
   10.1262  -16.6668   21.6449 C   0  0  0  0  0  0  0  0  0  0  0  0
   10.9907  -15.7327   21.6068 O   0  0  0  0  0  0  0  0  0  0  0  0
    6.1613  -10.9210   27.1203 O   0  0  0  0  0  0  0  0  0  0  0  0
    6.4771  -11.9730   26.2874 C   0  0  0  0  0  0  0  0  0  0  0  0
    6.2666  -13.2767   26.6695 C   0  0  0  0  0  0  0  0  0  0  0  0
    6.5693  -14.3471   25.8655 C   0  0  0  0  0  0  0  0  0  0  0  0
    7.1092  -14.1290   24.6151 C   0  0  0  0  0  0  0  0  0  0  0  0
    7.4731  -15.1975   23.6841 C   0  0  0  0  0  0  0  0  0  0  0  0
    8.9270  -15.2921   23.3444 C   0  0  2  0  0  0  0  0  0  0  0  0
    9.0807  -16.5345   22.5725 N   0  0  0  0  0  0  0  0  0  0  0  0
    9.7666  -15.3690   24.5611 C   0  0  0  0  0  0  0  0  0  0  0  0
   10.3623  -14.3493   25.0176 O   0  0  0  0  0  0  0  0  0  0  0  0
    7.3230  -12.8194   24.2264 C   0  0  0  0  0  0  0  0  0  0  0  0
    7.0166  -11.7390   25.0399 C   0  0  0  0  0  0  0  0  0  0  0  0
   11.2987  -15.2924   29.4914 N   0  0  0  0  0  0  0  0  0  0  0  0
   10.6904  -16.4061   28.8711 C   0  0  0  0  0  0  0  0  0  0  0  0
   10.8094  -17.5376   29.3775 O   0  0  0  0  0  0  0  0  0  0  0  0
    9.9225  -16.2201   27.6337 C   0  0  0  0  0  0  0  0  0  0  0  0
   10.7316  -16.7121   26.4611 C   0  0  2  0  0  0  0  0  0  0  0  0
    9.9143  -16.6087   25.2392 N   0  0  0  0  0  0  0  0  0  0  0  0
   11.1089  -18.1228   26.6570 C   0  0  0  0  0  0  0  0  0  0  0  0
   10.5575  -19.0669   26.0757 O   0  0  0  0  0  0  0  0  0  0  0  0
   12.1393  -18.4245   27.5405 O   0  0  0  0  0  0  0  0  0  0  0  0
  2  1  1  6
  3  4  1  0
  3  2  1  0
  5  6  1  0
  5  4  1  0
  6  7  1  0
  8  2  1  0
  8  9  2  0
 10 11  1  0
 11 12  2  0
 12 13  1  0
 14 13  2  0
 14 15  1  0
 16 15  1  1
 16 17  1  0
 17  8  1  0
 18 16  1  0
 19 18  2  0
 20 14  1  0
 21 11  1  0
 21 20  2  0
 22 23  1  0
 23 25  1  0
 24 23  2  0
 26 25  1  1
 26 28  1  0
 26 27  1  0
 27 18  1  0
 28 30  1  0
 29 28  2  0
M  END
$$$$
