KYN.pdb
     RDKit          3D

 30 30  0  0  1  0  0  0  0  0999 V2000
    9.1039  -14.0560   18.2287 N   0  0  0  0  0  0  0  0  0  0  0  0
    8.5197  -14.9348   19.1880 C   0  0  1  0  0  0  0  0  0  0  0  0
    8.9760  -16.3721   19.0648 C   0  0  0  0  0  0  0  0  0  0  0  0
    8.6544  -16.8711   17.6950 C   0  0  0  0  0  0  0  0  0  0  0  0
    9.0598  -18.3027   17.4670 C   0  0  0  0  0  0  0  0  0  0  0  0
    8.6080  -18.7641   16.1093 C   0  0  0  0  0  0  0  0  0  0  0  0
    8.8575  -20.1708   15.8895 N   0  0  0  0  0  0  0  0  0  0  0  0
    8.8485  -14.4880   20.5524 C   0  0  0  0  0  0  0  0  0  0  0  0
    9.8670  -13.7673   20.8064 O   0  0  0  0  0  0  0  0  0  0  0  0
    7.1554  -11.3486   28.5628 O   0  0  0  0  0  0  0  0  0  0  0  0
    7.1232  -11.9094   27.3040 C   0  0  0  0  0  0  0  0  0  0  0  0
    6.6290  -13.1755   27.0969 C   0  0  0  0  0  0  0  0  0  0  0  0
    6.5821  -13.7637   25.8577 C   0  0  0  0  0  0  0  0  0  0  0  0
    7.0456  -13.0729   24.7575 C   0  0  0  0  0  0  0  0  0  0  0  0
    7.0467  -13.6095   23.3962 C   0  0  0  0  0  0  0  0  0  0  0  0
    8.3010  -14.3098   22.9782 C   0  0  2  0  0  0  0  0  0  0  0  0
    8.0332  -14.8497   21.6367 N   0  0  0  0  0  0  0  0  0  0  0  0
    8.6329  -15.4249   23.8934 C   0  0  0  0  0  0  0  0  0  0  0  0
    8.8642  -15.2241   25.1219 O   0  0  0  0  0  0  0  0  0  0  0  0
    7.5437  -11.7991   24.9608 C   0  0  0  0  0  0  0  0  0  0  0  0
    7.5904  -11.2062   26.2134 C   0  0  0  0  0  0  0  0  0  0  0  0
   10.5904  -18.1595   22.0852 N   0  0  0  0  0  0  0  0  0  0  0  0
    9.7225  -19.2376   22.3668 C   0  0  0  0  0  0  0  0  0  0  0  0
    9.7162  -20.2369   21.6237 O   0  0  0  0  0  0  0  0  0  0  0  0
    8.8345  -19.1710   23.5340 C   0  0  0  0  0  0  0  0  0  0  0  0
    9.0686  -17.8771   24.2707 C   0  0  2  0  0  0  0  0  0  0  0  0
    8.6960  -16.7532   23.3932 N   0  0  0  0  0  0  0  0  0  0  0  0
   10.4916  -17.7433   24.6282 C   0  0  0  0  0  0  0  0  0  0  0  0
   11.0499  -18.4355   25.4899 O   0  0  0  0  0  0  0  0  0  0  0  0
   11.2615  -16.7911   23.9695 O   0  0  0  0  0  0  0  0  0  0  0  0
  2  1  1  6
  3  4  1  0
  3  2  1  0
  5  6  1  0
  5  4  1  0
  6  7  1  0
  8  2  1  0
  8  9  2  0
 10 11  1  0
 11 12  2  0
 12 13  1  0
 14 13  2  0
 14 15  1  0
 16 15  1  1
 16 17  1  0
 17  8  1  0
 18 16  1  0
 19 18  2  0
 20 14  1  0
 21 11  1  0
 21 20  2  0
 22 23  1  0
 23 25  1  0
 24 23  2  0
 26 25  1  6
 26 28  1  0
 26 27  1  0
 27 18  1  0
 28 30  1  0
 29 28  2  0
M  END
$$$$
