KYN.pdb
     RDKit          3D

 30 30  0  0  1  0  0  0  0  0999 V2000
    7.8410  -16.0271   19.5407 N   0  0  0  0  0  0  0  0  0  0  0  0
    8.7467  -14.9256   19.5238 C   0  0  1  0  0  0  0  0  0  0  0  0
    8.2667  -13.7461   18.7067 C   0  0  0  0  0  0  0  0  0  0  0  0
    7.7303  -14.2401   17.4041 C   0  0  0  0  0  0  0  0  0  0  0  0
    8.7730  -14.3351   16.3225 C   0  0  0  0  0  0  0  0  0  0  0  0
    8.1498  -14.7973   15.0348 C   0  0  0  0  0  0  0  0  0  0  0  0
    9.1070  -14.8863   13.9554 N   0  0  0  0  0  0  0  0  0  0  0  0
    8.9817  -14.4404   20.8944 C   0  0  0  0  0  0  0  0  0  0  0  0
    9.8056  -13.5050   21.1542 O   0  0  0  0  0  0  0  0  0  0  0  0
    6.4342  -11.2924   28.5921 O   0  0  0  0  0  0  0  0  0  0  0  0
    6.5703  -11.9188   27.3719 C   0  0  0  0  0  0  0  0  0  0  0  0
    6.1698  -13.2209   27.1870 C   0  0  0  0  0  0  0  0  0  0  0  0
    6.2907  -13.8745   25.9861 C   0  0  0  0  0  0  0  0  0  0  0  0
    6.8350  -13.2155   24.9035 C   0  0  0  0  0  0  0  0  0  0  0  0
    7.0143  -13.8211   23.5836 C   0  0  0  0  0  0  0  0  0  0  0  0
    8.3716  -14.3884   23.3112 C   0  0  2  0  0  0  0  0  0  0  0  0
    8.2909  -15.0049   21.9785 N   0  0  0  0  0  0  0  0  0  0  0  0
    8.7385  -15.4233   24.3040 C   0  0  0  0  0  0  0  0  0  0  0  0
    8.8741  -15.1424   25.5311 O   0  0  0  0  0  0  0  0  0  0  0  0
    7.2394  -11.9058   25.0846 C   0  0  0  0  0  0  0  0  0  0  0  0
    7.1166  -11.2468   26.2985 C   0  0  0  0  0  0  0  0  0  0  0  0
    6.4125  -18.5183   25.4537 N   0  0  0  0  0  0  0  0  0  0  0  0
    7.2354  -18.7953   24.3396 C   0  0  0  0  0  0  0  0  0  0  0  0
    6.7463  -18.7951   23.1942 O   0  0  0  0  0  0  0  0  0  0  0  0
    8.6611  -19.0812   24.5413 C   0  0  0  0  0  0  0  0  0  0  0  0
    9.3953  -17.7972   24.8315 C   0  0  2  0  0  0  0  0  0  0  0  0
    8.9453  -16.7641   23.8819 N   0  0  0  0  0  0  0  0  0  0  0  0
   10.8464  -17.9899   24.6645 C   0  0  0  0  0  0  0  0  0  0  0  0
   11.5489  -18.6293   25.4589 O   0  0  0  0  0  0  0  0  0  0  0  0
   11.4743  -17.4280   23.5584 O   0  0  0  0  0  0  0  0  0  0  0  0
  2  1  1  1
  3  4  1  0
  3  2  1  0
  5  6  1  0
  5  4  1  0
  6  7  1  0
  8  2  1  0
  8  9  2  0
 10 11  1  0
 11 12  2  0
 12 13  1  0
 14 13  2  0
 14 15  1  0
 16 15  1  1
 16 17  1  0
 17  8  1  0
 18 16  1  0
 19 18  2  0
 20 14  1  0
 21 11  1  0
 21 20  2  0
 22 23  1  0
 23 25  1  0
 24 23  2  0
 26 25  1  6
 26 28  1  0
 26 27  1  0
 27 18  1  0
 28 30  1  0
 29 28  2  0
M  END
$$$$
