SHC.pdb
     RDKit          3D

 23 23  0  0  1  0  0  0  0  0999 V2000
   18.6634  -13.4937  -17.0651 O   0  0  0  0  0  0  0  0  0  0  0  0
   19.1987  -12.2376  -16.9164 C   0  0  0  0  0  0  0  0  0  0  0  0
   20.4195  -12.0154  -17.7747 C   0  0  2  0  0  0  0  0  0  0  0  0
   21.1621  -13.2405  -17.9772 N   0  0  0  0  0  0  0  0  0  0  0  0
   21.3287  -10.9991  -17.2237 C   0  0  0  0  0  0  0  0  0  0  0  0
   22.3440  -11.3125  -16.5125 O   0  0  0  0  0  0  0  0  0  0  0  0
   21.0784   -9.6246  -17.4848 N   0  0  0  0  0  0  0  0  0  0  0  0
   22.0288   -8.5729  -17.1045 C   0  0  1  0  0  0  0  0  0  0  0  0
   22.4518   -7.8660  -18.3914 C   0  0  0  0  0  0  0  0  0  0  0  0
   23.3788   -8.6815  -19.1940 C   0  0  0  0  0  0  0  0  0  0  0  0
   23.1294   -9.0100  -20.5270 C   0  0  0  0  0  0  0  0  0  0  0  0
   24.1495   -9.7535  -20.9748 N   0  0  0  0  0  0  0  0  0  0  0  0
   25.0477   -9.9132  -19.9702 C   0  0  0  0  0  0  0  0  0  0  0  0
   24.5483   -9.2493  -18.9033 N   0  0  0  0  0  0  0  0  0  0  0  0
   21.3869   -7.5579  -16.2476 C   0  0  0  0  0  0  0  0  0  0  0  0
   20.2848   -7.0851  -16.5876 O   0  0  0  0  0  0  0  0  0  0  0  0
   21.9891   -7.1094  -15.0532 N   0  0  0  0  0  0  0  0  0  0  0  0
   21.2672   -6.2050  -14.2053 C   0  0  1  0  0  0  0  0  0  0  0  0
   21.3289   -6.5660  -12.7454 C   0  0  0  0  0  0  0  0  0  0  0  0
   20.5117   -8.1969  -12.5662 S   0  0  0  0  0  0  0  0  0  0  0  0
   21.8677   -4.8453  -14.3509 C   0  0  0  0  0  0  0  0  0  0  0  0
   21.1673   -3.7663  -13.7825 O   0  0  0  0  0  0  0  0  0  0  0  0
   22.9536   -4.6634  -14.9548 O   0  0  0  0  0  0  0  0  0  0  0  0
  2  1  1  0
  3  2  1  0
  3  5  1  0
  3  4  1  1
  5  6  2  0
  7  8  1  0
  7  5  1  0
  8 15  1  0
  8  9  1  6
 10  9  1  0
 10 11  2  0
 12 11  1  0
 13 12  1  0
 14 13  2  0
 14 10  1  0
 15 17  1  0
 15 16  2  0
 17 18  1  0
 18 21  1  0
 18 19  1  1
 20 19  1  0
 21 23  2  0
 21 22  1  0
M  END
$$$$
