SHC.pdb
     RDKit          3D

 23 23  0  0  1  0  0  0  0  0999 V2000
   22.8756  -11.6123  -17.6076 O   0  0  0  0  0  0  0  0  0  0  0  0
   22.2378  -10.4219  -17.3580 C   0  0  0  0  0  0  0  0  0  0  0  0
   20.8609  -10.6068  -16.7693 C   0  0  2  0  0  0  0  0  0  0  0  0
   19.8977  -11.0022  -17.7739 N   0  0  0  0  0  0  0  0  0  0  0  0
   20.3635   -9.4018  -16.0883 C   0  0  0  0  0  0  0  0  0  0  0  0
   19.7649   -8.4651  -16.7198 O   0  0  0  0  0  0  0  0  0  0  0  0
   20.5499   -9.2666  -14.6857 N   0  0  0  0  0  0  0  0  0  0  0  0
   20.0848   -8.0866  -13.9474 C   0  0  1  0  0  0  0  0  0  0  0  0
   19.9666   -8.4954  -12.4799 C   0  0  0  0  0  0  0  0  0  0  0  0
   19.3958   -7.4222  -11.6488 C   0  0  0  0  0  0  0  0  0  0  0  0
   19.1149   -6.1512  -12.1514 C   0  0  0  0  0  0  0  0  0  0  0  0
   18.6088   -5.4087  -11.1582 N   0  0  0  0  0  0  0  0  0  0  0  0
   18.5555   -6.1635  -10.0318 C   0  0  0  0  0  0  0  0  0  0  0  0
   19.0411   -7.3806  -10.3653 N   0  0  0  0  0  0  0  0  0  0  0  0
   21.0735   -6.9934  -14.0110 C   0  0  0  0  0  0  0  0  0  0  0  0
   22.2883   -7.2730  -14.0195 O   0  0  0  0  0  0  0  0  0  0  0  0
   20.6784   -5.6401  -14.0624 N   0  0  0  0  0  0  0  0  0  0  0  0
   21.6538   -4.6411  -14.3923 C   0  0  1  0  0  0  0  0  0  0  0  0
   22.2242   -4.7878  -15.7774 C   0  0  0  0  0  0  0  0  0  0  0  0
   23.3196   -3.3448  -16.0568 S   0  0  0  0  0  0  0  0  0  0  0  0
   20.9955   -3.3023  -14.3240 C   0  0  0  0  0  0  0  0  0  0  0  0
   19.5899   -3.2719  -14.3571 O   0  0  0  0  0  0  0  0  0  0  0  0
   21.6622   -2.2413  -14.2402 O   0  0  0  0  0  0  0  0  0  0  0  0
  2  1  1  0
  3  2  1  0
  3  5  1  0
  3  4  1  6
  5  6  2  0
  7  8  1  0
  7  5  1  0
  8 15  1  0
  8  9  1  1
 10  9  1  0
 10 11  2  0
 12 11  1  0
 13 12  1  0
 14 13  2  0
 14 10  1  0
 15 17  1  0
 15 16  2  0
 17 18  1  0
 18 21  1  0
 18 19  1  6
 20 19  1  0
 21 23  2  0
 21 22  1  0
M  END
$$$$
