SHC.pdb
     RDKit          3D

 23 23  0  0  1  0  0  0  0  0999 V2000
   14.7050   -8.1097  -17.4203 O   0  0  0  0  0  0  0  0  0  0  0  0
   14.9143   -8.2924  -16.0753 C   0  0  0  0  0  0  0  0  0  0  0  0
   16.0671   -9.2206  -15.7822 C   0  0  2  0  0  0  0  0  0  0  0  0
   15.7462  -10.5930  -16.1091 N   0  0  0  0  0  0  0  0  0  0  0  0
   16.5071   -9.1610  -14.3800 C   0  0  0  0  0  0  0  0  0  0  0  0
   16.1913  -10.0640  -13.5318 O   0  0  0  0  0  0  0  0  0  0  0  0
   17.3080   -8.0698  -13.9465 N   0  0  0  0  0  0  0  0  0  0  0  0
   17.8464   -7.9908  -12.5835 C   0  0  1  0  0  0  0  0  0  0  0  0
   19.1930   -7.2746  -12.6755 C   0  0  0  0  0  0  0  0  0  0  0  0
   20.2241   -8.1106  -13.3130 C   0  0  0  0  0  0  0  0  0  0  0  0
   19.9840   -9.4257  -13.7127 C   0  0  0  0  0  0  0  0  0  0  0  0
   21.1083   -9.9128  -14.2536 N   0  0  0  0  0  0  0  0  0  0  0  0
   22.0645   -8.9508  -14.2140 C   0  0  0  0  0  0  0  0  0  0  0  0
   21.4937   -7.8695  -13.6366 N   0  0  0  0  0  0  0  0  0  0  0  0
   16.9814   -7.1699  -11.7147 C   0  0  0  0  0  0  0  0  0  0  0  0
   16.4910   -6.1168  -12.1667 O   0  0  0  0  0  0  0  0  0  0  0  0
   16.6957   -7.5471  -10.3857 N   0  0  0  0  0  0  0  0  0  0  0  0
   15.7858   -6.7495   -9.6149 C   0  0  1  0  0  0  0  0  0  0  0  0
   15.0373   -7.5291   -8.5673 C   0  0  0  0  0  0  0  0  0  0  0  0
   14.1591   -8.8821   -9.4379 S   0  0  0  0  0  0  0  0  0  0  0  0
   16.5711   -5.6956   -8.9057 C   0  0  0  0  0  0  0  0  0  0  0  0
   15.8481   -4.6721   -8.2671 O   0  0  0  0  0  0  0  0  0  0  0  0
   17.8264   -5.7144   -8.8755 O   0  0  0  0  0  0  0  0  0  0  0  0
  2  1  1  0
  3  2  1  0
  3  5  1  0
  3  4  1  1
  5  6  2  0
  7  8  1  0
  7  5  1  0
  8 15  1  0
  8  9  1  6
 10  9  1  0
 10 11  2  0
 12 11  1  0
 13 12  1  0
 14 13  2  0
 14 10  1  0
 15 17  1  0
 15 16  2  0
 17 18  1  0
 18 21  1  0
 18 19  1  1
 20 19  1  0
 21 23  2  0
 21 22  1  0
M  END
$$$$
