YSD.pdb
     RDKit          3D

 27 27  0  0  1  0  0  0  0  0999 V2000
   19.5874  -14.1700  -18.9377 O   0  0  0  0  0  0  0  0  0  0  0  0
   19.5957  -12.9317  -18.3060 C   0  0  0  0  0  0  0  0  0  0  0  0
   20.1782  -11.8459  -18.9153 C   0  0  0  0  0  0  0  0  0  0  0  0
   20.1930  -10.6284  -18.3075 C   0  0  0  0  0  0  0  0  0  0  0  0
   19.6119  -10.4803  -17.0550 C   0  0  0  0  0  0  0  0  0  0  0  0
   19.6568   -9.1453  -16.4549 C   0  0  0  0  0  0  0  0  0  0  0  0
   20.8454   -9.0483  -15.5355 C   0  0  2  0  0  0  0  0  0  0  0  0
   20.7328   -9.9696  -14.4165 N   0  0  0  0  0  0  0  0  0  0  0  0
   21.0426   -7.6753  -15.0589 C   0  0  0  0  0  0  0  0  0  0  0  0
   20.3312   -7.1878  -14.1569 O   0  0  0  0  0  0  0  0  0  0  0  0
   19.0332  -11.5655  -16.4535 C   0  0  0  0  0  0  0  0  0  0  0  0
   19.0228  -12.8056  -17.0817 C   0  0  0  0  0  0  0  0  0  0  0  0
   23.8644   -3.6727  -15.1902 O   0  0  0  0  0  0  0  0  0  0  0  0
   23.6336   -4.9700  -15.5623 C   0  0  0  0  0  0  0  0  0  0  0  0
   22.2440   -5.4582  -15.2330 C   0  0  2  0  0  0  0  0  0  0  0  0
   22.0557   -6.8438  -15.6084 N   0  0  0  0  0  0  0  0  0  0  0  0
   21.1943   -4.5846  -15.8268 C   0  0  0  0  0  0  0  0  0  0  0  0
   20.7473   -4.7425  -16.9888 O   0  0  0  0  0  0  0  0  0  0  0  0
   20.6434   -3.5085  -15.0796 N   0  0  0  0  0  0  0  0  0  0  0  0
   19.6444   -2.6553  -15.6519 C   0  0  1  0  0  0  0  0  0  0  0  0
   18.2878   -3.1110  -15.1921 C   0  0  0  0  0  0  0  0  0  0  0  0
   17.1699   -2.2672  -15.6033 C   0  0  0  0  0  0  0  0  0  0  0  0
   16.5520   -1.5583  -14.7719 O   0  0  0  0  0  0  0  0  0  0  0  0
   19.8807   -1.2263  -15.3896 C   0  0  0  0  0  0  0  0  0  0  0  0
   20.9137   -0.8336  -14.5617 O   0  0  0  0  0  0  0  0  0  0  0  0
   16.7849   -2.2507  -16.9420 O   0  0  0  0  0  0  0  0  0  0  0  0
   19.1606   -0.3435  -15.9040 O   0  0  0  0  0  0  0  0  0  0  0  0
  2  1  1  0
  3  2  2  0
  4  3  1  0
  5  4  2  0
  5 11  1  0
  6  5  1  0
  7  6  1  0
  7  9  1  0
  7  8  1  1
  9 16  1  0
 10  9  2  0
 11 12  2  0
 12  2  1  0
 14 13  1  0
 15 14  1  6
 15 17  1  0
 16 15  1  0
 17 18  2  0
 17 19  1  0
 19 20  1  0
 20 21  1  1
 21 22  1  0
 22 23  2  0
 22 26  1  0
 24 20  1  0
 24 25  1  0
 27 24  2  0
M  END
$$$$
