YSD.pdb
     RDKit          3D

 27 27  0  0  1  0  0  0  0  0999 V2000
   15.3468  -12.1814  -21.9487 O   0  0  0  0  0  0  0  0  0  0  0  0
   15.8581  -11.6997  -20.7491 C   0  0  0  0  0  0  0  0  0  0  0  0
   15.1309  -11.8157  -19.5884 C   0  0  0  0  0  0  0  0  0  0  0  0
   15.6202  -11.3481  -18.4079 C   0  0  0  0  0  0  0  0  0  0  0  0
   16.8709  -10.7455  -18.3745 C   0  0  0  0  0  0  0  0  0  0  0  0
   17.3435  -10.2661  -17.0741 C   0  0  0  0  0  0  0  0  0  0  0  0
   18.5236  -11.0914  -16.6339 C   0  0  2  0  0  0  0  0  0  0  0  0
   18.1455  -12.4717  -16.3782 N   0  0  0  0  0  0  0  0  0  0  0  0
   19.1768  -10.5065  -15.4582 C   0  0  0  0  0  0  0  0  0  0  0  0
   18.6588  -10.5671  -14.3246 O   0  0  0  0  0  0  0  0  0  0  0  0
   17.5903  -10.6331  -19.5339 C   0  0  0  0  0  0  0  0  0  0  0  0
   17.0826  -11.1135  -20.7356 C   0  0  0  0  0  0  0  0  0  0  0  0
   22.9292   -8.3253  -15.7326 O   0  0  0  0  0  0  0  0  0  0  0  0
   22.6198   -9.1682  -14.6989 C   0  0  0  0  0  0  0  0  0  0  0  0
   21.1387   -9.2856  -14.4336 C   0  0  2  0  0  0  0  0  0  0  0  0
   20.4304   -9.8454  -15.5655 N   0  0  0  0  0  0  0  0  0  0  0  0
   20.5472   -7.9870  -14.0077 C   0  0  0  0  0  0  0  0  0  0  0  0
   20.0272   -7.1742  -14.8102 O   0  0  0  0  0  0  0  0  0  0  0  0
   20.5490   -7.6077  -12.6380 N   0  0  0  0  0  0  0  0  0  0  0  0
   19.9601   -6.3701  -12.2200 C   0  0  1  0  0  0  0  0  0  0  0  0
   19.5054   -6.5002  -10.7931 C   0  0  0  0  0  0  0  0  0  0  0  0
   18.8467   -5.3233  -10.2349 C   0  0  0  0  0  0  0  0  0  0  0  0
   18.5683   -4.3332  -10.9544 O   0  0  0  0  0  0  0  0  0  0  0  0
   20.8385   -5.2079  -12.4307 C   0  0  0  0  0  0  0  0  0  0  0  0
   22.2008   -5.3834  -12.5715 O   0  0  0  0  0  0  0  0  0  0  0  0
   18.5228   -5.3019   -8.8802 O   0  0  0  0  0  0  0  0  0  0  0  0
   20.3780   -4.0471  -12.4866 O   0  0  0  0  0  0  0  0  0  0  0  0
  2  1  1  0
  3  2  2  0
  4  3  1  0
  5  4  2  0
  5 11  1  0
  6  5  1  0
  7  6  1  0
  7  9  1  0
  7  8  1  1
  9 16  1  0
 10  9  2  0
 11 12  2  0
 12  2  1  0
 14 13  1  0
 15 14  1  6
 15 17  1  0
 16 15  1  0
 17 18  2  0
 17 19  1  0
 19 20  1  0
 20 21  1  1
 21 22  1  0
 22 23  2  0
 22 26  1  0
 24 20  1  0
 24 25  1  0
 27 24  2  0
M  END
$$$$
