YSD.pdb
     RDKit          3D

 27 27  0  0  1  0  0  0  0  0999 V2000
   22.5063  -14.9072  -25.2784 O   0  0  0  0  0  0  0  0  0  0  0  0
   22.3765  -14.2004  -24.0884 C   0  0  0  0  0  0  0  0  0  0  0  0
   23.3535  -13.3165  -23.6963 C   0  0  0  0  0  0  0  0  0  0  0  0
   23.2382  -12.6187  -22.5337 C   0  0  0  0  0  0  0  0  0  0  0  0
   22.1190  -12.8015  -21.7322 C   0  0  0  0  0  0  0  0  0  0  0  0
   22.0516  -12.0195  -20.4961 C   0  0  0  0  0  0  0  0  0  0  0  0
   22.9165  -12.6653  -19.4461 C   0  0  2  0  0  0  0  0  0  0  0  0
   22.3799  -13.9498  -19.0269 N   0  0  0  0  0  0  0  0  0  0  0  0
   23.1065  -11.7811  -18.2915 C   0  0  0  0  0  0  0  0  0  0  0  0
   22.2493  -11.6905  -17.3892 O   0  0  0  0  0  0  0  0  0  0  0  0
   21.1495  -13.6831  -22.1284 C   0  0  0  0  0  0  0  0  0  0  0  0
   21.2754  -14.3919  -23.3177 C   0  0  0  0  0  0  0  0  0  0  0  0
   26.7761  -10.7102  -16.5075 O   0  0  0  0  0  0  0  0  0  0  0  0
   25.9635   -9.6946  -16.9353 C   0  0  0  0  0  0  0  0  0  0  0  0
   24.5104  -10.0860  -17.0483 C   0  0  2  0  0  0  0  0  0  0  0  0
   24.2794  -10.9901  -18.1553 N   0  0  0  0  0  0  0  0  0  0  0  0
   23.6196   -8.8950  -17.1216 C   0  0  0  0  0  0  0  0  0  0  0  0
   23.2213   -8.4020  -18.2048 O   0  0  0  0  0  0  0  0  0  0  0  0
   23.1739   -8.2529  -15.9346 N   0  0  0  0  0  0  0  0  0  0  0  0
   22.3265   -7.0992  -15.9999 C   0  0  1  0  0  0  0  0  0  0  0  0
   21.7378   -6.8450  -14.6403 C   0  0  0  0  0  0  0  0  0  0  0  0
   20.8722   -7.9009  -14.1242 C   0  0  0  0  0  0  0  0  0  0  0  0
   20.3761   -8.7645  -14.8881 O   0  0  0  0  0  0  0  0  0  0  0  0
   22.9997   -5.9142  -16.5560 C   0  0  0  0  0  0  0  0  0  0  0  0
   22.2561   -4.8656  -17.0603 O   0  0  0  0  0  0  0  0  0  0  0  0
   20.5939   -7.9480  -12.7600 O   0  0  0  0  0  0  0  0  0  0  0  0
   24.2465   -5.8289  -16.5849 O   0  0  0  0  0  0  0  0  0  0  0  0
  2  1  1  0
  3  2  2  0
  4  3  1  0
  5  4  2  0
  5 11  1  0
  6  5  1  0
  7  6  1  0
  7  9  1  0
  7  8  1  1
  9 16  1  0
 10  9  2  0
 11 12  2  0
 12  2  1  0
 14 13  1  0
 15 14  1  6
 15 17  1  0
 16 15  1  0
 17 18  2  0
 17 19  1  0
 19 20  1  0
 20 21  1  1
 21 22  1  0
 22 23  2  0
 22 26  1  0
 24 20  1  0
 24 25  1  0
 27 24  2  0
M  END
$$$$
