YSD.pdb
     RDKit          3D

 27 27  0  0  1  0  0  0  0  0999 V2000
   27.9324  -20.3519   -5.0068 O   0  0  0  0  0  0  0  0  0  0  0  0
   27.2963  -20.1370   -6.2241 C   0  0  0  0  0  0  0  0  0  0  0  0
   26.3246  -21.0050   -6.6620 C   0  0  0  0  0  0  0  0  0  0  0  0
   25.6946  -20.8057   -7.8516 C   0  0  0  0  0  0  0  0  0  0  0  0
   26.0375  -19.7110   -8.6342 C   0  0  0  0  0  0  0  0  0  0  0  0
   25.3216  -19.5491   -9.9013 C   0  0  0  0  0  0  0  0  0  0  0  0
   25.5466  -20.7633  -10.7631 C   0  0  2  0  0  0  0  0  0  0  0  0
   26.9602  -20.9780  -11.0263 N   0  0  0  0  0  0  0  0  0  0  0  0
   24.7931  -20.6755  -12.0184 C   0  0  0  0  0  0  0  0  0  0  0  0
   24.8960  -19.6886  -12.7751 O   0  0  0  0  0  0  0  0  0  0  0  0
   27.0059  -18.8500   -8.1924 C   0  0  0  0  0  0  0  0  0  0  0  0
   27.6445  -19.0613   -6.9757 C   0  0  0  0  0  0  0  0  0  0  0  0
   22.7076  -22.6526  -15.7619 O   0  0  0  0  0  0  0  0  0  0  0  0
   23.3718  -22.7643  -14.5699 C   0  0  0  0  0  0  0  0  0  0  0  0
   23.0782  -21.6429  -13.6035 C   0  0  2  0  0  0  0  0  0  0  0  0
   23.9129  -21.7155  -12.4228 N   0  0  0  0  0  0  0  0  0  0  0  0
   21.6335  -21.5821  -13.2474 C   0  0  0  0  0  0  0  0  0  0  0  0
   21.1439  -22.1864  -12.2624 O   0  0  0  0  0  0  0  0  0  0  0  0
   20.7286  -20.8162  -14.0313 N   0  0  0  0  0  0  0  0  0  0  0  0
   19.3418  -20.7356  -13.6795 C   0  0  1  0  0  0  0  0  0  0  0  0
   18.7012  -19.6226  -14.4608 C   0  0  0  0  0  0  0  0  0  0  0  0
   18.7336  -18.3097  -13.8240 C   0  0  0  0  0  0  0  0  0  0  0  0
   19.2289  -18.1550  -12.6810 O   0  0  0  0  0  0  0  0  0  0  0  0
   18.6291  -22.0149  -13.8280 C   0  0  0  0  0  0  0  0  0  0  0  0
   17.7429  -22.4334  -12.8554 O   0  0  0  0  0  0  0  0  0  0  0  0
   18.2050  -17.2116  -14.4989 O   0  0  0  0  0  0  0  0  0  0  0  0
   18.8066  -22.7454  -14.8268 O   0  0  0  0  0  0  0  0  0  0  0  0
  2  1  1  0
  3  2  2  0
  4  3  1  0
  5  4  2  0
  5 11  1  0
  6  5  1  0
  7  6  1  0
  7  9  1  0
  7  8  1  6
  9 16  1  0
 10  9  2  0
 11 12  2  0
 12  2  1  0
 14 13  1  0
 15 14  1  6
 15 17  1  0
 16 15  1  0
 17 18  2  0
 17 19  1  0
 19 20  1  0
 20 21  1  6
 21 22  1  0
 22 23  2  0
 22 26  1  0
 24 20  1  0
 24 25  1  0
 27 24  2  0
M  END
$$$$
