YSD.pdb
     RDKit          3D

 27 27  0  0  1  0  0  0  0  0999 V2000
   29.2785  -19.8915   -3.2039 O   0  0  0  0  0  0  0  0  0  0  0  0
   28.8452  -19.7452   -4.5167 C   0  0  0  0  0  0  0  0  0  0  0  0
   28.0377  -18.6895   -4.8673 C   0  0  0  0  0  0  0  0  0  0  0  0
   27.6068  -18.5352   -6.1488 C   0  0  0  0  0  0  0  0  0  0  0  0
   27.9875  -19.4562   -7.1158 C   0  0  0  0  0  0  0  0  0  0  0  0
   27.4945  -19.2338   -8.4766 C   0  0  0  0  0  0  0  0  0  0  0  0
   26.3916  -20.2139   -8.7770 C   0  0  2  0  0  0  0  0  0  0  0  0
   26.7810  -21.5752   -8.4471 N   0  0  0  0  0  0  0  0  0  0  0  0
   25.9610  -20.1225  -10.1761 C   0  0  0  0  0  0  0  0  0  0  0  0
   25.6525  -19.0306  -10.6953 O   0  0  0  0  0  0  0  0  0  0  0  0
   28.7920  -20.5054   -6.7603 C   0  0  0  0  0  0  0  0  0  0  0  0
   29.2275  -20.6554   -5.4487 C   0  0  0  0  0  0  0  0  0  0  0  0
   27.4407  -22.0311  -13.4370 O   0  0  0  0  0  0  0  0  0  0  0  0
   26.1158  -22.2953  -13.2146 C   0  0  0  0  0  0  0  0  0  0  0  0
   25.4219  -21.2534  -12.3716 C   0  0  2  0  0  0  0  0  0  0  0  0
   25.8782  -21.2793  -10.9978 N   0  0  0  0  0  0  0  0  0  0  0  0
   23.9397  -21.3689  -12.4565 C   0  0  0  0  0  0  0  0  0  0  0  0
   23.2147  -21.6347  -11.4672 O   0  0  0  0  0  0  0  0  0  0  0  0
   23.2706  -21.1774  -13.6957 N   0  0  0  0  0  0  0  0  0  0  0  0
   21.8416  -21.0867  -13.7501 C   0  0  1  0  0  0  0  0  0  0  0  0
   21.3869  -19.9638  -12.8601 C   0  0  0  0  0  0  0  0  0  0  0  0
   19.9421  -19.7730  -12.7795 C   0  0  0  0  0  0  0  0  0  0  0  0
   19.1497  -20.7259  -12.9787 O   0  0  0  0  0  0  0  0  0  0  0  0
   21.3183  -20.9700  -15.1210 C   0  0  0  0  0  0  0  0  0  0  0  0
   20.0915  -21.5147  -15.4448 O   0  0  0  0  0  0  0  0  0  0  0  0
   19.4372  -18.5105  -12.4761 O   0  0  0  0  0  0  0  0  0  0  0  0
   21.9642  -20.3819  -16.0151 O   0  0  0  0  0  0  0  0  0  0  0  0
  2  1  1  0
  3  2  2  0
  4  3  1  0
  5  4  2  0
  5 11  1  0
  6  5  1  0
  7  6  1  0
  7  9  1  0
  7  8  1  6
  9 16  1  0
 10  9  2  0
 11 12  2  0
 12  2  1  0
 14 13  1  0
 15 14  1  6
 15 17  1  0
 16 15  1  0
 17 18  2  0
 17 19  1  0
 19 20  1  0
 20 21  1  1
 21 22  1  0
 22 23  2  0
 22 26  1  0
 24 20  1  0
 24 25  1  0
 27 24  2  0
M  END
$$$$
