DHP.pdb
     RDKit          3D

 26 27  0  0  1  0  0  0  0  0999 V2000
   12.5367  -16.7278   21.3316 N   0  0  0  0  0  0  0  0  0  0  0  0
   11.4372  -17.0999   22.1839 C   0  0  1  0  0  0  0  0  0  0  0  0
   11.8769  -17.9543   23.3461 C   0  0  0  0  0  0  0  0  0  0  0  0
   12.3045  -19.2552   22.8129 C   0  0  0  0  0  0  0  0  0  0  0  0
   13.5269  -19.4322   22.4978 O   0  0  0  0  0  0  0  0  0  0  0  0
   10.7169  -15.9182   22.7135 C   0  0  0  0  0  0  0  0  0  0  0  0
   11.3245  -15.0041   23.3653 O   0  0  0  0  0  0  0  0  0  0  0  0
   11.3603  -20.2651   22.6624 O   0  0  0  0  0  0  0  0  0  0  0  0
    9.3178  -15.7187   22.5359 N   0  0  0  0  0  0  0  0  0  0  0  0
    8.6438  -14.5840   23.1952 C   0  0  1  0  0  0  0  0  0  0  0  0
    7.3149  -14.4214   22.4425 C   0  0  0  0  0  0  0  0  0  0  0  0
    7.5538  -14.1496   21.0175 C   0  0  0  0  0  0  0  0  0  0  0  0
    8.0521  -12.9995   20.4467 C   0  0  0  0  0  0  0  0  0  0  0  0
    8.0997  -13.1697   19.1201 N   0  0  0  0  0  0  0  0  0  0  0  0
    7.6389  -14.4133   18.8306 C   0  0  0  0  0  0  0  0  0  0  0  0
    7.3144  -14.9844   20.0076 N   0  0  0  0  0  0  0  0  0  0  0  0
    8.3182  -14.9730   24.5828 C   0  0  0  0  0  0  0  0  0  0  0  0
    8.6216  -16.1294   25.0425 O   0  0  0  0  0  0  0  0  0  0  0  0
    7.6575  -14.0964   25.4850 N   0  0  0  0  0  0  0  0  0  0  0  0
    6.8653  -12.9289   25.1632 C   0  0  0  0  0  0  0  0  0  0  0  0
    7.2317  -11.9442   26.2577 C   0  0  0  0  0  0  0  0  0  0  0  0
    7.8799  -12.7372   27.3438 C   0  0  0  0  0  0  0  0  0  0  0  0
    7.6287  -14.1685   26.9410 C   0  0  1  0  0  0  0  0  0  0  0  0
    6.3081  -14.6427   27.4380 C   0  0  0  0  0  0  0  0  0  0  0  0
    6.1125  -15.0896   28.7409 O   0  0  0  0  0  0  0  0  0  0  0  0
    5.3148  -14.6531   26.6837 O   0  0  0  0  0  0  0  0  0  0  0  0
  2  3  1  0
  2  1  1  1
  4  3  1  0
  4  8  1  0
  5  4  2  0
  6  2  1  0
  7  6  2  0
  9  6  1  0
 10  9  1  0
 11 12  1  0
 10 11  1  6
 12 16  1  0
 13 14  1  0
 13 12  2  0
 14 15  1  0
 15 16  2  0
 17 19  1  0
 17 10  1  0
 18 17  2  0
 19 20  1  0
 20 21  1  0
 22 21  1  0
 23 22  1  0
 23 19  1  0
 23 24  1  6
 24 25  1  0
 26 24  2  0
M  END
$$$$
