DHP.pdb
     RDKit          3D

 26 27  0  0  1  0  0  0  0  0999 V2000
    9.6697  -17.4952   19.7088 N   0  0  0  0  0  0  0  0  0  0  0  0
   10.2890  -17.1256   20.9552 C   0  0  1  0  0  0  0  0  0  0  0  0
   11.4310  -16.1597   20.7633 C   0  0  0  0  0  0  0  0  0  0  0  0
   12.4881  -16.8543   20.0152 C   0  0  0  0  0  0  0  0  0  0  0  0
   13.0973  -17.8350   20.5554 O   0  0  0  0  0  0  0  0  0  0  0  0
    9.3204  -16.5278   21.9040 C   0  0  0  0  0  0  0  0  0  0  0  0
    8.5048  -15.6164   21.5382 O   0  0  0  0  0  0  0  0  0  0  0  0
   12.8008  -16.4212   18.7312 O   0  0  0  0  0  0  0  0  0  0  0  0
    9.2293  -16.9207   23.2700 N   0  0  0  0  0  0  0  0  0  0  0  0
    8.2077  -16.3160   24.1460 C   0  0  1  0  0  0  0  0  0  0  0  0
    7.6857  -17.4773   25.0052 C   0  0  0  0  0  0  0  0  0  0  0  0
    6.9318  -18.4351   24.1831 C   0  0  0  0  0  0  0  0  0  0  0  0
    5.7089  -18.2519   23.5767 C   0  0  0  0  0  0  0  0  0  0  0  0
    5.3803  -19.3788   22.9340 N   0  0  0  0  0  0  0  0  0  0  0  0
    6.3753  -20.2836   23.1189 C   0  0  0  0  0  0  0  0  0  0  0  0
    7.3052  -19.6781   23.8841 N   0  0  0  0  0  0  0  0  0  0  0  0
    8.8742  -15.3614   25.0555 C   0  0  0  0  0  0  0  0  0  0  0  0
   10.1487  -15.2363   25.0775 O   0  0  0  0  0  0  0  0  0  0  0  0
    8.1498  -14.5295   25.9512 N   0  0  0  0  0  0  0  0  0  0  0  0
    6.7209  -14.5084   26.1790 C   0  0  0  0  0  0  0  0  0  0  0  0
    6.4163  -13.0330   26.3581 C   0  0  0  0  0  0  0  0  0  0  0  0
    7.7208  -12.3589   26.6266 C   0  0  0  0  0  0  0  0  0  0  0  0
    8.6780  -13.5038   26.8429 C   0  0  1  0  0  0  0  0  0  0  0  0
    8.6647  -13.9546   28.2615 C   0  0  0  0  0  0  0  0  0  0  0  0
    9.2977  -13.2486   29.2797 O   0  0  0  0  0  0  0  0  0  0  0  0
    8.0715  -15.0024   28.5870 O   0  0  0  0  0  0  0  0  0  0  0  0
  2  3  1  0
  2  1  1  6
  4  3  1  0
  4  8  1  0
  5  4  2  0
  6  2  1  0
  7  6  2  0
  9  6  1  0
 10  9  1  0
 11 12  1  0
 10 11  1  1
 12 16  1  0
 13 14  1  0
 13 12  2  0
 14 15  1  0
 15 16  2  0
 17 19  1  0
 17 10  1  0
 18 17  2  0
 19 20  1  0
 20 21  1  0
 22 21  1  0
 23 22  1  0
 23 19  1  0
 23 24  1  1
 24 25  1  0
 26 24  2  0
M  END
$$$$
