DHP.pdb
     RDKit          3D

 26 27  0  0  1  0  0  0  0  0999 V2000
   10.6595  -17.8776   21.1471 N   0  0  0  0  0  0  0  0  0  0  0  0
   11.5331  -16.9657   21.8392 C   0  0  1  0  0  0  0  0  0  0  0  0
   12.5873  -16.3825   20.9323 C   0  0  0  0  0  0  0  0  0  0  0  0
   13.5878  -17.4273   20.6737 C   0  0  0  0  0  0  0  0  0  0  0  0
   13.4976  -18.1334   19.6163 O   0  0  0  0  0  0  0  0  0  0  0  0
   10.7885  -15.8526   22.4735 C   0  0  0  0  0  0  0  0  0  0  0  0
   11.3733  -15.0023   23.2249 O   0  0  0  0  0  0  0  0  0  0  0  0
   14.6118  -17.6225   21.5942 O   0  0  0  0  0  0  0  0  0  0  0  0
    9.3899  -15.6528   22.2931 N   0  0  0  0  0  0  0  0  0  0  0  0
    8.6972  -14.5751   23.0248 C   0  0  1  0  0  0  0  0  0  0  0  0
    7.3620  -14.3914   22.2882 C   0  0  0  0  0  0  0  0  0  0  0  0
    7.5885  -14.0911   20.8670 C   0  0  0  0  0  0  0  0  0  0  0  0
    7.9933  -12.8995   20.3073 C   0  0  0  0  0  0  0  0  0  0  0  0
    8.0655  -13.0562   18.9802 N   0  0  0  0  0  0  0  0  0  0  0  0
    7.7127  -14.3321   18.6793 C   0  0  0  0  0  0  0  0  0  0  0  0
    7.4279  -14.9362   19.8501 N   0  0  0  0  0  0  0  0  0  0  0  0
    8.3855  -15.0567   24.3863 C   0  0  0  0  0  0  0  0  0  0  0  0
    8.6955  -16.2405   24.7647 O   0  0  0  0  0  0  0  0  0  0  0  0
    7.7317  -14.2441   25.3511 N   0  0  0  0  0  0  0  0  0  0  0  0
    6.9017  -13.0828   25.1129 C   0  0  0  0  0  0  0  0  0  0  0  0
    7.2775  -12.1452   26.2449 C   0  0  0  0  0  0  0  0  0  0  0  0
    7.9781  -12.9747   27.2694 C   0  0  0  0  0  0  0  0  0  0  0  0
    7.7497  -14.3900   26.8018 C   0  0  1  0  0  0  0  0  0  0  0  0
    6.4570  -14.9228   27.3127 C   0  0  0  0  0  0  0  0  0  0  0  0
    6.3065  -15.4165   28.6048 O   0  0  0  0  0  0  0  0  0  0  0  0
    5.4472  -14.9422   26.5810 O   0  0  0  0  0  0  0  0  0  0  0  0
  2  3  1  0
  2  1  1  6
  4  3  1  0
  4  8  1  0
  5  4  2  0
  6  2  1  0
  7  6  2  0
  9  6  1  0
 10  9  1  0
 11 12  1  0
 10 11  1  6
 12 16  1  0
 13 14  1  0
 13 12  2  0
 14 15  1  0
 15 16  2  0
 17 19  1  0
 17 10  1  0
 18 17  2  0
 19 20  1  0
 20 21  1  0
 22 21  1  0
 23 22  1  0
 23 19  1  0
 23 24  1  1
 24 25  1  0
 26 24  2  0
M  END
$$$$
