DHP.pdb
     RDKit          3D

 26 27  0  0  1  0  0  0  0  0999 V2000
   12.3777  -16.6850   20.0640 N   0  0  0  0  0  0  0  0  0  0  0  0
   11.9107  -17.1993   21.3253 C   0  0  1  0  0  0  0  0  0  0  0  0
   12.9973  -17.9106   22.0917 C   0  0  0  0  0  0  0  0  0  0  0  0
   13.3869  -19.1004   21.3222 C   0  0  0  0  0  0  0  0  0  0  0  0
   12.4924  -19.9332   20.9601 O   0  0  0  0  0  0  0  0  0  0  0  0
   11.3454  -16.1347   22.1873 C   0  0  0  0  0  0  0  0  0  0  0  0
   12.0555  -15.1506   22.5834 O   0  0  0  0  0  0  0  0  0  0  0  0
   14.7283  -19.2905   21.0085 O   0  0  0  0  0  0  0  0  0  0  0  0
    9.9911  -16.1312   22.6283 N   0  0  0  0  0  0  0  0  0  0  0  0
    9.5352  -15.1248   23.6059 C   0  0  1  0  0  0  0  0  0  0  0  0
    8.0128  -15.0502   23.4165 C   0  0  0  0  0  0  0  0  0  0  0  0
    7.6791  -14.5417   22.0780 C   0  0  0  0  0  0  0  0  0  0  0  0
    7.8973  -13.2790   21.5732 C   0  0  0  0  0  0  0  0  0  0  0  0
    7.4335  -13.2370   20.3186 N   0  0  0  0  0  0  0  0  0  0  0  0
    6.9202  -14.4553   20.0101 C   0  0  0  0  0  0  0  0  0  0  0  0
    7.0850  -15.2272   21.1027 N   0  0  0  0  0  0  0  0  0  0  0  0
    9.7839  -15.6449   24.9662 C   0  0  0  0  0  0  0  0  0  0  0  0
   10.3366  -16.7846   25.1563 O   0  0  0  0  0  0  0  0  0  0  0  0
    9.4314  -14.9193   26.1359 N   0  0  0  0  0  0  0  0  0  0  0  0
    8.4289  -13.8837   26.2656 C   0  0  0  0  0  0  0  0  0  0  0  0
    9.0698  -12.8930   27.2194 C   0  0  0  0  0  0  0  0  0  0  0  0
   10.1992  -13.6101   27.8818 C   0  0  0  0  0  0  0  0  0  0  0  0
   10.0004  -15.0477   27.4723 C   0  0  1  0  0  0  0  0  0  0  0  0
    9.0670  -15.7459   28.3980 C   0  0  0  0  0  0  0  0  0  0  0  0
    9.4446  -16.1654   29.6697 O   0  0  0  0  0  0  0  0  0  0  0  0
    7.8915  -15.9805   28.0533 O   0  0  0  0  0  0  0  0  0  0  0  0
  2  3  1  0
  2  1  1  6
  4  3  1  0
  4  8  1  0
  5  4  2  0
  6  2  1  0
  7  6  2  0
  9  6  1  0
 10  9  1  0
 11 12  1  0
 10 11  1  1
 12 16  1  0
 13 14  1  0
 13 12  2  0
 14 15  1  0
 15 16  2  0
 17 19  1  0
 17 10  1  0
 18 17  2  0
 19 20  1  0
 20 21  1  0
 22 21  1  0
 23 22  1  0
 23 19  1  0
 23 24  1  1
 24 25  1  0
 26 24  2  0
M  END
$$$$
