DHP.pdb
     RDKit          3D

 26 27  0  0  1  0  0  0  0  0999 V2000
   10.9772  -17.7109   14.4842 N   0  0  0  0  0  0  0  0  0  0  0  0
   10.2831  -16.4669   14.2738 C   0  0  1  0  0  0  0  0  0  0  0  0
    9.4894  -16.4634   12.9916 C   0  0  0  0  0  0  0  0  0  0  0  0
   10.4412  -16.4841   11.8721 C   0  0  0  0  0  0  0  0  0  0  0  0
   11.2260  -17.4792   11.7352 O   0  0  0  0  0  0  0  0  0  0  0  0
    9.3700  -16.1409   15.3943 C   0  0  0  0  0  0  0  0  0  0  0  0
    8.7445  -15.0291   15.4426 O   0  0  0  0  0  0  0  0  0  0  0  0
   10.4639  -15.4118   10.9869 O   0  0  0  0  0  0  0  0  0  0  0  0
    9.1267  -17.0297   16.4804 N   0  0  0  0  0  0  0  0  0  0  0  0
    8.3071  -16.5898   17.6255 C   0  0  1  0  0  0  0  0  0  0  0  0
    7.8192  -17.8883   18.2850 C   0  0  0  0  0  0  0  0  0  0  0  0
    7.0528  -17.5963   19.5052 C   0  0  0  0  0  0  0  0  0  0  0  0
    7.5212  -17.4999   20.7968 C   0  0  0  0  0  0  0  0  0  0  0  0
    6.4888  -17.2300   21.6042 N   0  0  0  0  0  0  0  0  0  0  0  0
    5.3632  -17.1514   20.8493 C   0  0  0  0  0  0  0  0  0  0  0  0
    5.7405  -17.3795   19.5756 N   0  0  0  0  0  0  0  0  0  0  0  0
    9.1857  -15.9065   18.5971 C   0  0  0  0  0  0  0  0  0  0  0  0
   10.4230  -16.2164   18.7139 O   0  0  0  0  0  0  0  0  0  0  0  0
    8.7180  -14.8721   19.4516 N   0  0  0  0  0  0  0  0  0  0  0  0
    7.3490  -14.4582   19.6717 C   0  0  0  0  0  0  0  0  0  0  0  0
    7.4529  -12.9487   19.7837 C   0  0  0  0  0  0  0  0  0  0  0  0
    8.8925  -12.6384   20.0278 C   0  0  0  0  0  0  0  0  0  0  0  0
    9.5088  -13.9876   20.2992 C   0  0  1  0  0  0  0  0  0  0  0  0
    9.3858  -14.3553   21.7364 C   0  0  0  0  0  0  0  0  0  0  0  0
    8.5202  -15.3474   22.1862 O   0  0  0  0  0  0  0  0  0  0  0  0
   10.0713  -13.7719   22.5997 O   0  0  0  0  0  0  0  0  0  0  0  0
  2  3  1  0
  2  1  1  1
  4  3  1  0
  4  8  1  0
  5  4  2  0
  6  2  1  0
  7  6  2  0
  9  6  1  0
 10  9  1  0
 11 12  1  0
 10 11  1  1
 12 16  1  0
 13 14  1  0
 13 12  2  0
 14 15  1  0
 15 16  2  0
 17 19  1  0
 17 10  1  0
 18 17  2  0
 19 20  1  0
 20 21  1  0
 22 21  1  0
 23 22  1  0
 23 19  1  0
 23 24  1  1
 24 25  1  0
 26 24  2  0
M  END
$$$$
