DHP.pdb
     RDKit          3D

 26 27  0  0  1  0  0  0  0  0999 V2000
    9.2700  -15.2549   19.7141 N   0  0  0  0  0  0  0  0  0  0  0  0
    8.4572  -14.1831   20.2282 C   0  0  1  0  0  0  0  0  0  0  0  0
    7.3565  -13.7908   19.2749 C   0  0  0  0  0  0  0  0  0  0  0  0
    7.9121  -13.8045   17.9145 C   0  0  0  0  0  0  0  0  0  0  0  0
    8.8703  -14.5979   17.6369 O   0  0  0  0  0  0  0  0  0  0  0  0
    7.8493  -14.5217   21.5364 C   0  0  0  0  0  0  0  0  0  0  0  0
    7.1089  -13.6913   22.1624 O   0  0  0  0  0  0  0  0  0  0  0  0
    7.3780  -12.9459   16.9598 O   0  0  0  0  0  0  0  0  0  0  0  0
    8.0426  -15.7778   22.1796 N   0  0  0  0  0  0  0  0  0  0  0  0
    7.6638  -15.9488   23.5952 C   0  0  1  0  0  0  0  0  0  0  0  0
    7.7174  -17.4643   23.8389 C   0  0  0  0  0  0  0  0  0  0  0  0
    7.5022  -17.7709   25.2606 C   0  0  0  0  0  0  0  0  0  0  0  0
    6.3082  -18.0109   25.9038 C   0  0  0  0  0  0  0  0  0  0  0  0
    6.5610  -18.2380   27.1981 N   0  0  0  0  0  0  0  0  0  0  0  0
    7.9010  -18.1474   27.3956 C   0  0  0  0  0  0  0  0  0  0  0  0
    8.4456  -17.8617   26.1963 N   0  0  0  0  0  0  0  0  0  0  0  0
    8.7076  -15.3308   24.4387 C   0  0  0  0  0  0  0  0  0  0  0  0
    9.9494  -15.4163   24.1370 O   0  0  0  0  0  0  0  0  0  0  0  0
    8.4013  -14.6084   25.6233 N   0  0  0  0  0  0  0  0  0  0  0  0
    7.0922  -14.2967   26.1556 C   0  0  0  0  0  0  0  0  0  0  0  0
    7.2608  -12.8904   26.6994 C   0  0  0  0  0  0  0  0  0  0  0  0
    8.7300  -12.6512   26.8121 C   0  0  0  0  0  0  0  0  0  0  0  0
    9.3340  -14.0119   26.5722 C   0  0  1  0  0  0  0  0  0  0  0  0
    9.4059  -14.7980   27.8343 C   0  0  0  0  0  0  0  0  0  0  0  0
   10.2561  -14.4596   28.8823 O   0  0  0  0  0  0  0  0  0  0  0  0
    8.6890  -15.8062   27.9935 O   0  0  0  0  0  0  0  0  0  0  0  0
  2  3  1  0
  2  1  1  6
  4  3  1  0
  4  8  1  0
  5  4  2  0
  6  2  1  0
  7  6  2  0
  9  6  1  0
 10  9  1  0
 11 12  1  0
 10 11  1  1
 12 16  1  0
 13 14  1  0
 13 12  2  0
 14 15  1  0
 15 16  2  0
 17 19  1  0
 17 10  1  0
 18 17  2  0
 19 20  1  0
 20 21  1  0
 22 21  1  0
 23 22  1  0
 23 19  1  0
 23 24  1  1
 24 25  1  0
 26 24  2  0
M  END
$$$$
