DHP.pdb
     RDKit          3D

 26 27  0  0  1  0  0  0  0  0999 V2000
   12.6233  -16.5634   21.0539 N   0  0  0  0  0  0  0  0  0  0  0  0
   11.5294  -17.0382   21.8610 C   0  0  1  0  0  0  0  0  0  0  0  0
   11.9907  -17.9397   22.9783 C   0  0  0  0  0  0  0  0  0  0  0  0
   12.6378  -19.1123   22.3735 C   0  0  0  0  0  0  0  0  0  0  0  0
   12.2935  -19.4844   21.2039 O   0  0  0  0  0  0  0  0  0  0  0  0
   10.7440  -15.9262   22.4463 C   0  0  0  0  0  0  0  0  0  0  0  0
   11.2909  -15.0408   23.1856 O   0  0  0  0  0  0  0  0  0  0  0  0
   13.6127  -19.7916   23.0961 O   0  0  0  0  0  0  0  0  0  0  0  0
    9.3454  -15.7662   22.2294 N   0  0  0  0  0  0  0  0  0  0  0  0
    8.6076  -14.6955   22.9263 C   0  0  1  0  0  0  0  0  0  0  0  0
    7.2751  -14.5771   22.1716 C   0  0  0  0  0  0  0  0  0  0  0  0
    7.5047  -14.2318   20.7611 C   0  0  0  0  0  0  0  0  0  0  0  0
    7.9148  -13.0243   20.2408 C   0  0  0  0  0  0  0  0  0  0  0  0
    7.9882  -13.1383   18.9094 N   0  0  0  0  0  0  0  0  0  0  0  0
    7.6311  -14.4024   18.5670 C   0  0  0  0  0  0  0  0  0  0  0  0
    7.3423  -15.0429   19.7172 N   0  0  0  0  0  0  0  0  0  0  0  0
    8.2976  -15.1535   24.2963 C   0  0  0  0  0  0  0  0  0  0  0  0
    8.7192  -16.2798   24.7369 O   0  0  0  0  0  0  0  0  0  0  0  0
    7.5226  -14.3797   25.2016 N   0  0  0  0  0  0  0  0  0  0  0  0
    6.6789  -13.2442   24.8967 C   0  0  0  0  0  0  0  0  0  0  0  0
    6.9067  -12.3126   26.0723 C   0  0  0  0  0  0  0  0  0  0  0  0
    7.5319  -13.1338   27.1508 C   0  0  0  0  0  0  0  0  0  0  0  0
    7.4021  -14.5484   26.6449 C   0  0  1  0  0  0  0  0  0  0  0  0
    6.0853  -15.1338   27.0179 C   0  0  0  0  0  0  0  0  0  0  0  0
    5.8271  -15.6579   28.2806 O   0  0  0  0  0  0  0  0  0  0  0  0
    5.1528  -15.1721   26.1905 O   0  0  0  0  0  0  0  0  0  0  0  0
  2  3  1  0
  2  1  1  1
  4  3  1  0
  4  8  1  0
  5  4  2  0
  6  2  1  0
  7  6  2  0
  9  6  1  0
 10  9  1  0
 11 12  1  0
 10 11  1  6
 12 16  1  0
 13 14  1  0
 13 12  2  0
 14 15  1  0
 15 16  2  0
 17 19  1  0
 17 10  1  0
 18 17  2  0
 19 20  1  0
 20 21  1  0
 22 21  1  0
 23 22  1  0
 23 19  1  0
 23 24  1  6
 24 25  1  0
 26 24  2  0
M  END
$$$$
