DHP.pdb
     RDKit          3D

 26 27  0  0  1  0  0  0  0  0999 V2000
   13.0911  -18.6008   23.2842 N   0  0  0  0  0  0  0  0  0  0  0  0
   13.4746  -17.2424   23.5696 C   0  0  1  0  0  0  0  0  0  0  0  0
   14.6561  -16.7956   22.7461 C   0  0  0  0  0  0  0  0  0  0  0  0
   15.8242  -17.5796   23.1709 C   0  0  0  0  0  0  0  0  0  0  0  0
   15.8066  -18.1677   24.3017 O   0  0  0  0  0  0  0  0  0  0  0  0
   12.3604  -16.2903   23.3509 C   0  0  0  0  0  0  0  0  0  0  0  0
   12.5226  -15.0316   23.4884 O   0  0  0  0  0  0  0  0  0  0  0  0
   16.9260  -17.6591   22.3261 O   0  0  0  0  0  0  0  0  0  0  0  0
   11.0496  -16.7031   22.9764 N   0  0  0  0  0  0  0  0  0  0  0  0
    9.9555  -15.7157   22.9083 C   0  0  1  0  0  0  0  0  0  0  0  0
    9.1499  -16.1032   21.6594 C   0  0  0  0  0  0  0  0  0  0  0  0
    8.1295  -15.0874   21.3622 C   0  0  0  0  0  0  0  0  0  0  0  0
    6.8031  -15.0857   21.7330 C   0  0  0  0  0  0  0  0  0  0  0  0
    6.2275  -13.9796   21.2471 N   0  0  0  0  0  0  0  0  0  0  0  0
    7.1658  -13.2703   20.5693 C   0  0  0  0  0  0  0  0  0  0  0  0
    8.3132  -13.9719   20.6579 N   0  0  0  0  0  0  0  0  0  0  0  0
    9.0739  -15.9100   24.0778 C   0  0  0  0  0  0  0  0  0  0  0  0
    9.1422  -16.9661   24.7993 O   0  0  0  0  0  0  0  0  0  0  0  0
    8.1073  -14.9461   24.4722 N   0  0  0  0  0  0  0  0  0  0  0  0
    7.7767  -13.7029   23.8095 C   0  0  0  0  0  0  0  0  0  0  0  0
    7.5383  -12.7444   24.9611 C   0  0  0  0  0  0  0  0  0  0  0  0
    7.3472  -13.5840   26.1806 C   0  0  0  0  0  0  0  0  0  0  0  0
    7.2299  -14.9853   25.6361 C   0  0  1  0  0  0  0  0  0  0  0  0
    5.8261  -15.2964   25.2510 C   0  0  0  0  0  0  0  0  0  0  0  0
    4.8369  -15.5832   26.1863 O   0  0  0  0  0  0  0  0  0  0  0  0
    5.4872  -15.3088   24.0507 O   0  0  0  0  0  0  0  0  0  0  0  0
  2  3  1  0
  2  1  1  6
  4  3  1  0
  4  8  1  0
  5  4  2  0
  6  2  1  0
  7  6  2  0
  9  6  1  0
 10  9  1  0
 11 12  1  0
 10 11  1  6
 12 16  1  0
 13 14  1  0
 13 12  2  0
 14 15  1  0
 15 16  2  0
 17 19  1  0
 17 10  1  0
 18 17  2  0
 19 20  1  0
 20 21  1  0
 22 21  1  0
 23 22  1  0
 23 19  1  0
 23 24  1  6
 24 25  1  0
 26 24  2  0
M  END
$$$$
