DHP.pdb
     RDKit          3D

 26 27  0  0  1  0  0  0  0  0999 V2000
   11.0078  -16.1774   19.7030 N   0  0  0  0  0  0  0  0  0  0  0  0
   11.3180  -16.6192   21.0380 C   0  0  1  0  0  0  0  0  0  0  0  0
   12.7877  -16.5006   21.3538 C   0  0  0  0  0  0  0  0  0  0  0  0
   13.5082  -17.4712   20.5180 C   0  0  0  0  0  0  0  0  0  0  0  0
   14.7463  -17.6856   20.7323 O   0  0  0  0  0  0  0  0  0  0  0  0
   10.5536  -15.8726   22.0647 C   0  0  0  0  0  0  0  0  0  0  0  0
   10.7941  -14.6436   22.3122 O   0  0  0  0  0  0  0  0  0  0  0  0
   12.8189  -18.1333   19.5078 O   0  0  0  0  0  0  0  0  0  0  0  0
    9.5113  -16.4616   22.8365 N   0  0  0  0  0  0  0  0  0  0  0  0
    8.8162  -15.6672   23.8671 C   0  0  1  0  0  0  0  0  0  0  0  0
    7.5453  -16.4661   24.1922 C   0  0  0  0  0  0  0  0  0  0  0  0
    6.8344  -15.8717   25.3336 C   0  0  0  0  0  0  0  0  0  0  0  0
    6.1225  -14.6932   25.3673 C   0  0  0  0  0  0  0  0  0  0  0  0
    5.6448  -14.5206   26.6054 N   0  0  0  0  0  0  0  0  0  0  0  0
    6.0399  -15.5720   27.3678 C   0  0  0  0  0  0  0  0  0  0  0  0
    6.7627  -16.3769   26.5639 N   0  0  0  0  0  0  0  0  0  0  0  0
    9.6486  -15.6498   25.0876 C   0  0  0  0  0  0  0  0  0  0  0  0
   10.6906  -16.3864   25.1976 O   0  0  0  0  0  0  0  0  0  0  0  0
    9.3493  -14.8213   26.2025 N   0  0  0  0  0  0  0  0  0  0  0  0
    8.1763  -13.9980   26.4029 C   0  0  0  0  0  0  0  0  0  0  0  0
    8.7314  -12.7534   27.0698 C   0  0  0  0  0  0  0  0  0  0  0  0
   10.0915  -13.1102   27.5711 C   0  0  0  0  0  0  0  0  0  0  0  0
   10.1559  -14.6068   27.3981 C   0  0  1  0  0  0  0  0  0  0  0  0
    9.5808  -15.3093   28.5777 C   0  0  0  0  0  0  0  0  0  0  0  0
    8.4641  -16.1345   28.4893 O   0  0  0  0  0  0  0  0  0  0  0  0
   10.0952  -15.1764   29.7061 O   0  0  0  0  0  0  0  0  0  0  0  0
  2  3  1  0
  2  1  1  6
  4  3  1  0
  4  8  1  0
  5  4  2  0
  6  2  1  0
  7  6  2  0
  9  6  1  0
 10  9  1  0
 11 12  1  0
 10 11  1  1
 12 16  1  0
 13 14  1  0
 13 12  2  0
 14 15  1  0
 15 16  2  0
 17 19  1  0
 17 10  1  0
 18 17  2  0
 19 20  1  0
 20 21  1  0
 22 21  1  0
 23 22  1  0
 23 19  1  0
 23 24  1  1
 24 25  1  0
 26 24  2  0
M  END
$$$$
