CGM.pdb
     RDKit          3D

 19 18  0  0  1  0  0  0  0  0999 V2000
   26.8417  -19.2464  -16.2675 N   0  0  0  0  0  0  0  0  0  0  0  0
   26.3387  -19.8105  -17.5046 C   0  0  1  0  0  0  0  0  0  0  0  0
   26.9245  -19.0375  -18.6498 C   0  0  0  0  0  0  0  0  0  0  0  0
   26.4127  -17.2991  -18.6363 S   0  0  0  0  0  0  0  0  0  0  0  0
   26.6082  -21.2763  -17.5780 C   0  0  0  0  0  0  0  0  0  0  0  0
   26.2185  -21.9051  -18.5920 O   0  0  0  0  0  0  0  0  0  0  0  0
   27.2832  -21.9807  -16.5556 N   0  0  0  0  0  0  0  0  0  0  0  0
   26.7499  -23.1258  -15.9144 C   0  0  0  0  0  0  0  0  0  0  0  0
   26.0826  -22.9304  -14.6301 C   0  0  0  0  0  0  0  0  0  0  0  0
   25.4138  -23.9311  -14.1988 O   0  0  0  0  0  0  0  0  0  0  0  0
   25.7291  -19.7221   -7.4773 C   0  0  0  0  0  0  0  0  0  0  0  0
   26.4926  -19.9285   -9.1102 S   0  0  0  0  0  0  0  0  0  0  0  0
   25.3829  -20.8734  -10.2133 C   0  0  0  0  0  0  0  0  0  0  0  0
   26.1059  -21.0730  -11.4955 C   0  0  0  0  0  0  0  0  0  0  0  0
   25.3015  -21.7593  -12.5673 C   0  0  2  0  0  0  0  0  0  0  0  0
   26.0919  -21.7772  -13.8176 N   0  0  0  0  0  0  0  0  0  0  0  0
   24.0330  -21.0760  -12.7769 C   0  0  0  0  0  0  0  0  0  0  0  0
   23.8085  -20.2896  -13.8756 O   0  0  0  0  0  0  0  0  0  0  0  0
   23.0804  -21.1830  -11.9403 O   0  0  0  0  0  0  0  0  0  0  0  0
  2  1  1  1
  3  2  1  0
  4  3  1  0
  5  2  1  0
  5  6  2  0
  7  5  1  0
  8  7  1  0
  9  8  1  0
 10  9  2  0
 11 12  1  0
 13 12  1  0
 13 14  1  0
 15 14  1  1
 15 16  1  0
 15 17  1  0
 16  9  1  0
 17 18  1  0
 19 17  2  0
M  END
$$$$
