CGM.pdb
     RDKit          3D

 19 18  0  0  1  0  0  0  0  0999 V2000
   25.4170  -21.7209  -16.7738 N   0  0  0  0  0  0  0  0  0  0  0  0
   26.8554  -21.7966  -16.6091 C   0  0  1  0  0  0  0  0  0  0  0  0
   27.5003  -21.4619  -17.9222 C   0  0  0  0  0  0  0  0  0  0  0  0
   26.8157  -22.4345  -19.2895 S   0  0  0  0  0  0  0  0  0  0  0  0
   27.3158  -20.9316  -15.4838 C   0  0  0  0  0  0  0  0  0  0  0  0
   28.5458  -20.8730  -15.2403 O   0  0  0  0  0  0  0  0  0  0  0  0
   26.4253  -20.1782  -14.6861 N   0  0  0  0  0  0  0  0  0  0  0  0
   26.8491  -19.3232  -13.6389 C   0  0  0  0  0  0  0  0  0  0  0  0
   26.5016  -19.7061  -12.2731 C   0  0  0  0  0  0  0  0  0  0  0  0
   26.7724  -18.8400  -11.3723 O   0  0  0  0  0  0  0  0  0  0  0  0
   29.0906  -19.9142   -6.9789 C   0  0  0  0  0  0  0  0  0  0  0  0
   27.5015  -19.1288   -7.3657 S   0  0  0  0  0  0  0  0  0  0  0  0
   26.3633  -20.3417   -8.1234 C   0  0  0  0  0  0  0  0  0  0  0  0
   26.5930  -20.3010   -9.5905 C   0  0  0  0  0  0  0  0  0  0  0  0
   25.6022  -21.0933  -10.4012 C   0  0  2  0  0  0  0  0  0  0  0  0
   25.9062  -20.9084  -11.8371 N   0  0  0  0  0  0  0  0  0  0  0  0
   24.2406  -20.6678  -10.1104 C   0  0  0  0  0  0  0  0  0  0  0  0
   23.6571  -20.8945   -8.8921 O   0  0  0  0  0  0  0  0  0  0  0  0
   23.5366  -20.0678  -10.9839 O   0  0  0  0  0  0  0  0  0  0  0  0
  2  1  1  6
  3  2  1  0
  4  3  1  0
  5  2  1  0
  5  6  2  0
  7  5  1  0
  8  7  1  0
  9  8  1  0
 10  9  2  0
 11 12  1  0
 13 12  1  0
 13 14  1  0
 15 14  1  1
 15 16  1  0
 15 17  1  0
 16  9  1  0
 17 18  1  0
 19 17  2  0
M  END
$$$$
