CGM.pdb
     RDKit          3D

 19 18  0  0  1  0  0  0  0  0999 V2000
   16.9826  -13.1844  -19.8000 N   0  0  0  0  0  0  0  0  0  0  0  0
   18.3504  -13.6570  -19.8865 C   0  0  1  0  0  0  0  0  0  0  0  0
   18.4259  -14.6916  -20.9710 C   0  0  0  0  0  0  0  0  0  0  0  0
   18.1738  -16.3700  -20.3358 S   0  0  0  0  0  0  0  0  0  0  0  0
   19.3016  -12.5237  -20.0797 C   0  0  0  0  0  0  0  0  0  0  0  0
   19.4548  -12.0633  -21.2373 O   0  0  0  0  0  0  0  0  0  0  0  0
   20.0324  -11.9503  -19.0147 N   0  0  0  0  0  0  0  0  0  0  0  0
   20.8887  -10.8323  -19.1694 C   0  0  0  0  0  0  0  0  0  0  0  0
   21.5358  -10.3073  -17.9701 C   0  0  0  0  0  0  0  0  0  0  0  0
   20.8754  -10.4426  -16.8836 O   0  0  0  0  0  0  0  0  0  0  0  0
   26.9666  -11.9010  -14.9663 C   0  0  0  0  0  0  0  0  0  0  0  0
   27.0558  -10.0980  -15.1483 S   0  0  0  0  0  0  0  0  0  0  0  0
   25.3773   -9.3750  -15.1230 C   0  0  0  0  0  0  0  0  0  0  0  0
   24.7437   -9.6924  -16.4286 C   0  0  0  0  0  0  0  0  0  0  0  0
   23.3039   -9.2680  -16.5451 C   0  0  2  0  0  0  0  0  0  0  0  0
   22.7935   -9.6759  -17.8722 N   0  0  0  0  0  0  0  0  0  0  0  0
   23.1751   -7.8284  -16.3707 C   0  0  0  0  0  0  0  0  0  0  0  0
   22.9809   -7.2641  -15.1378 O   0  0  0  0  0  0  0  0  0  0  0  0
   23.2361   -7.0358  -17.3641 O   0  0  0  0  0  0  0  0  0  0  0  0
  2  1  1  6
  3  2  1  0
  4  3  1  0
  5  2  1  0
  5  6  2  0
  7  5  1  0
  8  7  1  0
  9  8  1  0
 10  9  2  0
 11 12  1  0
 13 12  1  0
 13 14  1  0
 15 14  1  6
 15 16  1  0
 15 17  1  0
 16  9  1  0
 17 18  1  0
 19 17  2  0
M  END
$$$$
