CGM.pdb
     RDKit          3D

 19 18  0  0  1  0  0  0  0  0999 V2000
   24.3986  -12.8502  -16.6227 N   0  0  0  0  0  0  0  0  0  0  0  0
   23.2783  -11.9539  -16.8308 C   0  0  1  0  0  0  0  0  0  0  0  0
   22.0553  -12.7803  -17.1022 C   0  0  0  0  0  0  0  0  0  0  0  0
   22.2568  -13.8464  -18.5537 S   0  0  0  0  0  0  0  0  0  0  0  0
   23.1177  -11.0151  -15.6822 C   0  0  0  0  0  0  0  0  0  0  0  0
   23.1132  -11.4889  -14.5198 O   0  0  0  0  0  0  0  0  0  0  0  0
   22.9726   -9.6196  -15.8512 N   0  0  0  0  0  0  0  0  0  0  0  0
   22.7925   -8.7181  -14.7733 C   0  0  0  0  0  0  0  0  0  0  0  0
   22.5682   -7.3124  -15.1000 C   0  0  0  0  0  0  0  0  0  0  0  0
   22.2623   -7.0719  -16.3179 O   0  0  0  0  0  0  0  0  0  0  0  0
   17.5801   -2.7089  -16.8212 C   0  0  0  0  0  0  0  0  0  0  0  0
   18.3883   -4.1708  -16.1131 S   0  0  0  0  0  0  0  0  0  0  0  0
   20.0846   -3.7571  -15.5723 C   0  0  0  0  0  0  0  0  0  0  0  0
   20.7138   -5.0175  -15.1009 C   0  0  0  0  0  0  0  0  0  0  0  0
   22.1573   -4.8826  -14.6949 C   0  0  2  0  0  0  0  0  0  0  0  0
   22.6476   -6.2005  -14.2355 N   0  0  0  0  0  0  0  0  0  0  0  0
   22.3057   -3.8889  -13.6412 C   0  0  0  0  0  0  0  0  0  0  0  0
   22.3607   -2.5480  -13.9148 O   0  0  0  0  0  0  0  0  0  0  0  0
   22.3928   -4.2319  -12.4191 O   0  0  0  0  0  0  0  0  0  0  0  0
  2  1  1  1
  3  2  1  0
  4  3  1  0
  5  2  1  0
  5  6  2  0
  7  5  1  0
  8  7  1  0
  9  8  1  0
 10  9  2  0
 11 12  1  0
 13 12  1  0
 13 14  1  0
 15 14  1  1
 15 16  1  0
 15 17  1  0
 16  9  1  0
 17 18  1  0
 19 17  2  0
M  END
$$$$
