CGM.pdb
     RDKit          3D

 19 18  0  0  1  0  0  0  0  0999 V2000
   25.1441  -17.8995  -13.8377 N   0  0  0  0  0  0  0  0  0  0  0  0
   26.3596  -18.2489  -14.5462 C   0  0  1  0  0  0  0  0  0  0  0  0
   27.2574  -17.0466  -14.5671 C   0  0  0  0  0  0  0  0  0  0  0  0
   26.4304  -15.5854  -15.2493 S   0  0  0  0  0  0  0  0  0  0  0  0
   27.0009  -19.4587  -13.9533 C   0  0  0  0  0  0  0  0  0  0  0  0
   27.9573  -19.9899  -14.5687 O   0  0  0  0  0  0  0  0  0  0  0  0
   26.5764  -20.0263  -12.7308 N   0  0  0  0  0  0  0  0  0  0  0  0
   27.1181  -21.2211  -12.1959 C   0  0  0  0  0  0  0  0  0  0  0  0
   27.0860  -21.3859  -10.7451 C   0  0  0  0  0  0  0  0  0  0  0  0
   27.5344  -22.5004  -10.3072 O   0  0  0  0  0  0  0  0  0  0  0  0
   28.8095  -18.6184   -5.8299 C   0  0  0  0  0  0  0  0  0  0  0  0
   27.5880  -19.5615   -4.8759 S   0  0  0  0  0  0  0  0  0  0  0  0
   26.4759  -20.4774   -6.0007 C   0  0  0  0  0  0  0  0  0  0  0  0
   26.9131  -20.1783   -7.3885 C   0  0  0  0  0  0  0  0  0  0  0  0
   26.1887  -20.9568   -8.4543 C   0  0  2  0  0  0  0  0  0  0  0  0
   26.6236  -20.4663   -9.7805 N   0  0  0  0  0  0  0  0  0  0  0  0
   24.7473  -20.8145   -8.3068 C   0  0  0  0  0  0  0  0  0  0  0  0
   24.0814  -21.2987   -7.2122 O   0  0  0  0  0  0  0  0  0  0  0  0
   24.0477  -20.2330   -9.1964 O   0  0  0  0  0  0  0  0  0  0  0  0
  2  1  1  1
  3  2  1  0
  4  3  1  0
  5  2  1  0
  5  6  2  0
  7  5  1  0
  8  7  1  0
  9  8  1  0
 10  9  2  0
 11 12  1  0
 13 12  1  0
 13 14  1  0
 15 14  1  1
 15 16  1  0
 15 17  1  0
 16  9  1  0
 17 18  1  0
 19 17  2  0
M  END
$$$$
