CGM.pdb
     RDKit          3D

 19 18  0  0  1  0  0  0  0  0999 V2000
   26.7508  -24.5656  -16.0723 N   0  0  0  0  0  0  0  0  0  0  0  0
   25.8788  -24.3158  -17.2032 C   0  0  1  0  0  0  0  0  0  0  0  0
   25.2043  -25.6040  -17.5742 C   0  0  0  0  0  0  0  0  0  0  0  0
   26.3832  -26.9692  -17.7495 S   0  0  0  0  0  0  0  0  0  0  0  0
   24.9231  -23.2072  -16.9131 C   0  0  0  0  0  0  0  0  0  0  0  0
   23.9279  -23.0646  -17.6646 O   0  0  0  0  0  0  0  0  0  0  0  0
   25.0933  -22.3164  -15.8293 N   0  0  0  0  0  0  0  0  0  0  0  0
   24.2186  -21.2338  -15.5649 C   0  0  0  0  0  0  0  0  0  0  0  0
   23.2023  -21.4242  -14.5335 C   0  0  0  0  0  0  0  0  0  0  0  0
   23.1442  -22.5968  -14.0270 O   0  0  0  0  0  0  0  0  0  0  0  0
   23.7659  -20.4729   -8.7159 C   0  0  0  0  0  0  0  0  0  0  0  0
   22.1955  -19.6201   -9.0297 S   0  0  0  0  0  0  0  0  0  0  0  0
   21.2870  -20.4442  -10.3849 C   0  0  0  0  0  0  0  0  0  0  0  0
   22.0369  -20.1795  -11.6395 C   0  0  0  0  0  0  0  0  0  0  0  0
   21.4433  -20.8138  -12.8691 C   0  0  2  0  0  0  0  0  0  0  0  0
   22.2874  -20.4731  -14.0352 N   0  0  0  0  0  0  0  0  0  0  0  0
   20.0776  -20.3545  -13.0780 C   0  0  0  0  0  0  0  0  0  0  0  0
   19.7558  -19.4744  -14.0769 O   0  0  0  0  0  0  0  0  0  0  0  0
   19.1264  -20.7546  -12.3336 O   0  0  0  0  0  0  0  0  0  0  0  0
  2  1  1  1
  3  2  1  0
  4  3  1  0
  5  2  1  0
  5  6  2  0
  7  5  1  0
  8  7  1  0
  9  8  1  0
 10  9  2  0
 11 12  1  0
 13 12  1  0
 13 14  1  0
 15 14  1  1
 15 16  1  0
 15 17  1  0
 16  9  1  0
 17 18  1  0
 19 17  2  0
M  END
$$$$
