CGM.pdb
     RDKit          3D

 19 18  0  0  1  0  0  0  0  0999 V2000
   13.2653  -23.0684   -0.3644 N   0  0  0  0  0  0  0  0  0  0  0  0
   14.2898  -23.1975    0.6531 C   0  0  1  0  0  0  0  0  0  0  0  0
   15.2328  -24.2890    0.2393 C   0  0  0  0  0  0  0  0  0  0  0  0
   14.7462  -25.9036    0.9031 S   0  0  0  0  0  0  0  0  0  0  0  0
   14.9667  -21.8920    0.9059 C   0  0  0  0  0  0  0  0  0  0  0  0
   15.2710  -21.1764   -0.0794 O   0  0  0  0  0  0  0  0  0  0  0  0
   15.2760  -21.4314    2.2056 N   0  0  0  0  0  0  0  0  0  0  0  0
   15.9275  -20.1998    2.4621 C   0  0  0  0  0  0  0  0  0  0  0  0
   16.1874  -19.8517    3.8564 C   0  0  0  0  0  0  0  0  0  0  0  0
   15.5519  -20.5428    4.7244 O   0  0  0  0  0  0  0  0  0  0  0  0
   22.3573  -19.9603    6.7879 C   0  0  0  0  0  0  0  0  0  0  0  0
   21.1200  -18.6390    6.6660 S   0  0  0  0  0  0  0  0  0  0  0  0
   19.4684  -19.3468    6.3312 C   0  0  0  0  0  0  0  0  0  0  0  0
   18.5292  -18.2080    6.1648 C   0  0  0  0  0  0  0  0  0  0  0  0
   17.1213  -18.6049    5.8083 C   0  0  2  0  0  0  0  0  0  0  0  0
   17.0510  -18.8523    4.3516 N   0  0  0  0  0  0  0  0  0  0  0  0
   16.1791  -17.5641    6.1938 C   0  0  0  0  0  0  0  0  0  0  0  0
   15.6429  -16.6989    5.2773 O   0  0  0  0  0  0  0  0  0  0  0  0
   15.8181  -17.4172    7.4050 O   0  0  0  0  0  0  0  0  0  0  0  0
  2  1  1  6
  3  2  1  0
  4  3  1  0
  5  2  1  0
  5  6  2  0
  7  5  1  0
  8  7  1  0
  9  8  1  0
 10  9  2  0
 11 12  1  0
 13 12  1  0
 13 14  1  0
 15 14  1  6
 15 16  1  0
 15 17  1  0
 16  9  1  0
 17 18  1  0
 19 17  2  0
M  END
$$$$
