CGM.pdb
     RDKit          3D

 19 18  0  0  1  0  0  0  0  0999 V2000
   19.9145  -14.5007  -17.6177 N   0  0  0  0  0  0  0  0  0  0  0  0
   20.9526  -13.5133  -17.3967 C   0  0  1  0  0  0  0  0  0  0  0  0
   22.1476  -13.8901  -18.2225 C   0  0  0  0  0  0  0  0  0  0  0  0
   22.7978  -15.5233  -17.7818 S   0  0  0  0  0  0  0  0  0  0  0  0
   20.4526  -12.1343  -17.6704 C   0  0  0  0  0  0  0  0  0  0  0  0
   19.5440  -11.9869  -18.5237 O   0  0  0  0  0  0  0  0  0  0  0  0
   20.9589  -10.9931  -17.0082 N   0  0  0  0  0  0  0  0  0  0  0  0
   20.5185   -9.6743  -17.2800 C   0  0  0  0  0  0  0  0  0  0  0  0
   21.2508   -8.5764  -16.6545 C   0  0  0  0  0  0  0  0  0  0  0  0
   22.1299   -8.9210  -15.7924 O   0  0  0  0  0  0  0  0  0  0  0  0
   23.7124   -1.0472  -16.7918 C   0  0  0  0  0  0  0  0  0  0  0  0
   22.6627   -2.3891  -17.4155 S   0  0  0  0  0  0  0  0  0  0  0  0
   22.8086   -3.8596  -16.3396 C   0  0  0  0  0  0  0  0  0  0  0  0
   21.9563   -4.9222  -16.9321 C   0  0  0  0  0  0  0  0  0  0  0  0
   21.9929   -6.2360  -16.1976 C   0  0  2  0  0  0  0  0  0  0  0  0
   21.1030   -7.1934  -16.8902 N   0  0  0  0  0  0  0  0  0  0  0  0
   21.5766   -6.0643  -14.8131 C   0  0  0  0  0  0  0  0  0  0  0  0
   20.3047   -6.3588  -14.3989 O   0  0  0  0  0  0  0  0  0  0  0  0
   22.3837   -5.6291  -13.9311 O   0  0  0  0  0  0  0  0  0  0  0  0
  2  1  1  6
  3  2  1  0
  4  3  1  0
  5  2  1  0
  5  6  2  0
  7  5  1  0
  8  7  1  0
  9  8  1  0
 10  9  2  0
 11 12  1  0
 13 12  1  0
 13 14  1  0
 15 14  1  6
 15 16  1  0
 15 17  1  0
 16  9  1  0
 17 18  1  0
 19 17  2  0
M  END
$$$$
