CGM.pdb
     RDKit          3D

 19 18  0  0  1  0  0  0  0  0999 V2000
   26.7938  -23.2877  -16.1584 N   0  0  0  0  0  0  0  0  0  0  0  0
   27.6665  -22.1353  -16.0494 C   0  0  1  0  0  0  0  0  0  0  0  0
   27.7914  -21.5064  -17.4062 C   0  0  0  0  0  0  0  0  0  0  0  0
   28.4930  -22.6462  -18.6280 S   0  0  0  0  0  0  0  0  0  0  0  0
   27.1847  -21.1910  -14.9993 C   0  0  0  0  0  0  0  0  0  0  0  0
   27.7125  -20.0542  -14.9308 O   0  0  0  0  0  0  0  0  0  0  0  0
   26.1611  -21.5247  -14.0839 N   0  0  0  0  0  0  0  0  0  0  0  0
   25.5840  -20.5934  -13.1857 C   0  0  0  0  0  0  0  0  0  0  0  0
   24.1516  -20.3367  -13.3085 C   0  0  0  0  0  0  0  0  0  0  0  0
   23.6510  -19.5691  -12.4168 O   0  0  0  0  0  0  0  0  0  0  0  0
   17.7170  -19.0429  -17.5231 C   0  0  0  0  0  0  0  0  0  0  0  0
   19.5014  -19.2990  -17.3178 S   0  0  0  0  0  0  0  0  0  0  0  0
   19.8823  -19.7446  -15.5866 C   0  0  0  0  0  0  0  0  0  0  0  0
   21.3463  -19.9838  -15.5076 C   0  0  0  0  0  0  0  0  0  0  0  0
   21.8213  -20.5270  -14.1863 C   0  0  2  0  0  0  0  0  0  0  0  0
   23.2654  -20.8313  -14.2883 N   0  0  0  0  0  0  0  0  0  0  0  0
   21.0739  -21.7220  -13.8215 C   0  0  0  0  0  0  0  0  0  0  0  0
   19.8681  -21.6514  -13.1758 O   0  0  0  0  0  0  0  0  0  0  0  0
   21.5174  -22.8842  -14.0888 O   0  0  0  0  0  0  0  0  0  0  0  0
  2  1  1  6
  3  2  1  0
  4  3  1  0
  5  2  1  0
  5  6  2  0
  7  5  1  0
  8  7  1  0
  9  8  1  0
 10  9  2  0
 11 12  1  0
 13 12  1  0
 13 14  1  0
 15 14  1  6
 15 16  1  0
 15 17  1  0
 16  9  1  0
 17 18  1  0
 19 17  2  0
M  END
$$$$
