CGM.pdb
     RDKit          3D

 19 18  0  0  1  0  0  0  0  0999 V2000
   44.2741  -10.5415   -6.5965 N   0  0  0  0  0  0  0  0  0  0  0  0
   44.4180  -10.9289   -7.9861 C   0  0  1  0  0  0  0  0  0  0  0  0
   43.6418  -12.1941   -8.2074 C   0  0  0  0  0  0  0  0  0  0  0  0
   41.8536  -11.9340   -8.0701 S   0  0  0  0  0  0  0  0  0  0  0  0
   44.0178   -9.8192   -8.8998 C   0  0  0  0  0  0  0  0  0  0  0  0
   44.1884   -9.9710  -10.1341 O   0  0  0  0  0  0  0  0  0  0  0  0
   43.4554   -8.6101   -8.4320 N   0  0  0  0  0  0  0  0  0  0  0  0
   42.9328   -7.6102   -9.2887 C   0  0  0  0  0  0  0  0  0  0  0  0
   41.4810   -7.4628   -9.3464 C   0  0  0  0  0  0  0  0  0  0  0  0
   40.8719   -8.2976  -10.0994 O   0  0  0  0  0  0  0  0  0  0  0  0
   34.9192   -6.8920   -5.3271 C   0  0  0  0  0  0  0  0  0  0  0  0
   36.6976   -6.5934   -5.5269 S   0  0  0  0  0  0  0  0  0  0  0  0
   37.1604   -6.6830   -7.2929 C   0  0  0  0  0  0  0  0  0  0  0  0
   38.6438   -6.6414   -7.3597 C   0  0  0  0  0  0  0  0  0  0  0  0
   39.2069   -6.6162   -8.7558 C   0  0  2  0  0  0  0  0  0  0  0  0
   40.6805   -6.5165   -8.6728 N   0  0  0  0  0  0  0  0  0  0  0  0
   38.6628   -5.4966   -9.5109 C   0  0  0  0  0  0  0  0  0  0  0  0
   37.4566   -5.5771  -10.1547 O   0  0  0  0  0  0  0  0  0  0  0  0
   39.2931   -4.3953   -9.6034 O   0  0  0  0  0  0  0  0  0  0  0  0
  2  1  1  1
  3  2  1  0
  4  3  1  0
  5  2  1  0
  5  6  2  0
  7  5  1  0
  8  7  1  0
  9  8  1  0
 10  9  2  0
 11 12  1  0
 13 12  1  0
 13 14  1  0
 15 14  1  1
 15 16  1  0
 15 17  1  0
 16  9  1  0
 17 18  1  0
 19 17  2  0
M  END
$$$$
