DQA.pdb
     RDKit          3D

 23 22  0  0  1  0  0  0  0  0999 V2000
    8.2468  -12.7184   18.9020 N   0  0  0  0  0  0  0  0  0  0  0  0
    7.3446  -13.3563   19.8191 C   0  0  1  0  0  0  0  0  0  0  0  0
    6.9026  -14.6683   19.2451 C   0  0  0  0  0  0  0  0  0  0  0  0
    7.9978  -15.2366   18.4215 C   0  0  0  0  0  0  0  0  0  0  0  0
    8.9485  -14.5047   18.0044 O   0  0  0  0  0  0  0  0  0  0  0  0
    8.0161  -13.5966   21.1334 C   0  0  0  0  0  0  0  0  0  0  0  0
    9.2704  -13.6694   21.1798 O   0  0  0  0  0  0  0  0  0  0  0  0
    8.0506  -16.5791   18.0621 O   0  0  0  0  0  0  0  0  0  0  0  0
    5.5325  -12.3213   26.7982 N   0  0  0  0  0  0  0  0  0  0  0  0
    6.8638  -12.6658   27.1243 C   0  0  0  0  0  0  0  0  0  0  0  0
    7.2364  -12.4494   28.3051 O   0  0  0  0  0  0  0  0  0  0  0  0
    7.7019  -13.2462   26.0623 C   0  0  0  0  0  0  0  0  0  0  0  0
    7.0865  -13.3068   24.7170 C   0  0  0  0  0  0  0  0  0  0  0  0
    7.9253  -13.8947   23.6315 C   0  0  2  0  0  0  0  0  0  0  0  0
    7.3010  -13.7464   22.3321 N   0  0  0  0  0  0  0  0  0  0  0  0
    8.2701  -15.3114   23.9115 C   0  0  0  0  0  0  0  0  0  0  0  0
    7.4181  -16.2127   23.7207 O   0  0  0  0  0  0  0  0  0  0  0  0
   11.1557  -17.4123   23.9674 C   0  0  0  0  0  0  0  0  0  0  0  0
    9.9102  -17.0085   24.7592 C   0  0  2  0  0  0  0  0  0  0  0  0
    9.5714  -15.6583   24.3993 N   0  0  0  0  0  0  0  0  0  0  0  0
   10.2585  -17.1389   26.1962 C   0  0  0  0  0  0  0  0  0  0  0  0
   10.2939  -16.0843   26.8802 O   0  0  0  0  0  0  0  0  0  0  0  0
   10.5424  -18.3300   26.8207 O   0  0  0  0  0  0  0  0  0  0  0  0
  2  1  1  6
  3  2  1  0
  4  3  1  0
  5  4  2  0
  6  7  2  0
  6  2  1  0
  8  4  1  0
  9 10  1  0
 10 12  1  0
 11 10  2  0
 12 13  1  0
 14 13  1  1
 14 16  1  0
 14 15  1  0
 15  6  1  0
 16 17  2  0
 19 18  1  6
 20 19  1  0
 20 16  1  0
 21 19  1  0
 22 21  2  0
 23 21  1  0
M  END
$$$$
