DQA.pdb
     RDKit          3D

 23 22  0  0  1  0  0  0  0  0999 V2000
    9.6962  -17.1697   17.8737 N   0  0  0  0  0  0  0  0  0  0  0  0
   10.9543  -17.7555   18.2424 C   0  0  1  0  0  0  0  0  0  0  0  0
   11.8595  -17.7738   17.0480 C   0  0  0  0  0  0  0  0  0  0  0  0
   11.3181  -18.7150   16.0372 C   0  0  0  0  0  0  0  0  0  0  0  0
   10.3820  -19.5217   16.3312 O   0  0  0  0  0  0  0  0  0  0  0  0
   11.5999  -16.9657   19.3357 C   0  0  0  0  0  0  0  0  0  0  0  0
   12.2221  -15.9115   19.0489 O   0  0  0  0  0  0  0  0  0  0  0  0
   11.7923  -18.7714   14.7310 O   0  0  0  0  0  0  0  0  0  0  0  0
   11.3894  -18.3494   25.5746 N   0  0  0  0  0  0  0  0  0  0  0  0
   12.2447  -17.2246   25.5583 C   0  0  0  0  0  0  0  0  0  0  0  0
   12.7584  -16.8822   26.6533 O   0  0  0  0  0  0  0  0  0  0  0  0
   12.4640  -16.5482   24.2692 C   0  0  0  0  0  0  0  0  0  0  0  0
   11.8023  -17.1656   23.0974 C   0  0  0  0  0  0  0  0  0  0  0  0
   12.1921  -16.6308   21.7596 C   0  0  2  0  0  0  0  0  0  0  0  0
   11.5421  -17.3525   20.6840 N   0  0  0  0  0  0  0  0  0  0  0  0
   13.6665  -16.6077   21.5868 C   0  0  0  0  0  0  0  0  0  0  0  0
   14.2780  -17.6608   21.2838 O   0  0  0  0  0  0  0  0  0  0  0  0
   16.0831  -14.1188   20.6146 C   0  0  0  0  0  0  0  0  0  0  0  0
   15.8151  -15.3158   21.5293 C   0  0  2  0  0  0  0  0  0  0  0  0
   14.3984  -15.3893   21.7638 N   0  0  0  0  0  0  0  0  0  0  0  0
   16.5821  -15.0779   22.7776 C   0  0  0  0  0  0  0  0  0  0  0  0
   17.8266  -14.9310   22.6719 O   0  0  0  0  0  0  0  0  0  0  0  0
   16.0223  -15.0086   24.0309 O   0  0  0  0  0  0  0  0  0  0  0  0
  2  1  1  6
  3  2  1  0
  4  3  1  0
  5  4  2  0
  6  7  2  0
  6  2  1  0
  8  4  1  0
  9 10  1  0
 10 12  1  0
 11 10  2  0
 12 13  1  0
 14 13  1  1
 14 16  1  0
 14 15  1  0
 15  6  1  0
 16 17  2  0
 19 18  1  6
 20 19  1  0
 20 16  1  0
 21 19  1  0
 22 21  2  0
 23 21  1  0
M  END
$$$$
