DQA.pdb
     RDKit          3D

 23 22  0  0  1  0  0  0  0  0999 V2000
   16.4566  -17.6635   16.9496 N   0  0  0  0  0  0  0  0  0  0  0  0
   16.4667  -18.1131   18.3133 C   0  0  1  0  0  0  0  0  0  0  0  0
   17.4374  -17.2846   19.0993 C   0  0  0  0  0  0  0  0  0  0  0  0
   18.8176  -17.5860   18.6468 C   0  0  0  0  0  0  0  0  0  0  0  0
   19.8018  -16.8867   19.0416 O   0  0  0  0  0  0  0  0  0  0  0  0
   15.1058  -17.9812   18.9188 C   0  0  0  0  0  0  0  0  0  0  0  0
   14.5583  -16.8503   18.9626 O   0  0  0  0  0  0  0  0  0  0  0  0
   19.1138  -18.6321   17.7794 O   0  0  0  0  0  0  0  0  0  0  0  0
   10.4633  -21.5525   18.5888 N   0  0  0  0  0  0  0  0  0  0  0  0
   10.0131  -20.9403   19.7804 C   0  0  0  0  0  0  0  0  0  0  0  0
    8.7819  -21.0042   20.0249 O   0  0  0  0  0  0  0  0  0  0  0  0
   11.0153  -20.2811   20.6338 C   0  0  0  0  0  0  0  0  0  0  0  0
   12.4043  -20.2909   20.1212 C   0  0  0  0  0  0  0  0  0  0  0  0
   13.1028  -18.9726   20.0777 C   0  0  2  0  0  0  0  0  0  0  0  0
   14.4034  -19.0761   19.4470 N   0  0  0  0  0  0  0  0  0  0  0  0
   13.1987  -18.3583   21.4259 C   0  0  0  0  0  0  0  0  0  0  0  0
   14.2311  -18.5270   22.1189 O   0  0  0  0  0  0  0  0  0  0  0  0
   10.9533  -16.0915   23.4339 C   0  0  0  0  0  0  0  0  0  0  0  0
   12.1345  -17.0526   23.2837 C   0  0  2  0  0  0  0  0  0  0  0  0
   12.1187  -17.5723   21.9432 N   0  0  0  0  0  0  0  0  0  0  0  0
   11.9506  -18.1156   24.3033 C   0  0  0  0  0  0  0  0  0  0  0  0
   11.5146  -19.2267   23.9074 O   0  0  0  0  0  0  0  0  0  0  0  0
   12.2248  -17.9628   25.6414 O   0  0  0  0  0  0  0  0  0  0  0  0
  2  1  1  6
  3  2  1  0
  4  3  1  0
  5  4  2  0
  6  7  2  0
  6  2  1  0
  8  4  1  0
  9 10  1  0
 10 12  1  0
 11 10  2  0
 12 13  1  0
 14 13  1  1
 14 16  1  0
 14 15  1  0
 15  6  1  0
 16 17  2  0
 19 18  1  6
 20 19  1  0
 20 16  1  0
 21 19  1  0
 22 21  2  0
 23 21  1  0
M  END
$$$$
