DQA.pdb
     RDKit          3D

 23 22  0  0  1  0  0  0  0  0999 V2000
   14.8400  -21.7730   14.3684 N   0  0  0  0  0  0  0  0  0  0  0  0
   15.4002  -20.6809   15.1137 C   0  0  1  0  0  0  0  0  0  0  0  0
   14.6522  -19.4241   14.7860 C   0  0  0  0  0  0  0  0  0  0  0  0
   15.1736  -18.8605   13.5167 C   0  0  0  0  0  0  0  0  0  0  0  0
   16.2180  -19.3354   12.9716 O   0  0  0  0  0  0  0  0  0  0  0  0
   15.3002  -20.9429   16.5826 C   0  0  0  0  0  0  0  0  0  0  0  0
   14.2579  -21.4733   17.0439 O   0  0  0  0  0  0  0  0  0  0  0  0
   14.5635  -17.7984   12.8579 O   0  0  0  0  0  0  0  0  0  0  0  0
   19.8986  -19.8573   20.8991 N   0  0  0  0  0  0  0  0  0  0  0  0
   18.8732  -20.4086   21.7005 C   0  0  0  0  0  0  0  0  0  0  0  0
   19.1249  -20.5637   22.9222 O   0  0  0  0  0  0  0  0  0  0  0  0
   17.6015  -20.7549   21.0448 C   0  0  0  0  0  0  0  0  0  0  0  0
   17.5193  -20.4511   19.5980 C   0  0  0  0  0  0  0  0  0  0  0  0
   16.2544  -20.8442   18.9102 C   0  0  2  0  0  0  0  0  0  0  0  0
   16.3299  -20.6195   17.4805 N   0  0  0  0  0  0  0  0  0  0  0  0
   15.0739  -20.1692   19.5059 C   0  0  0  0  0  0  0  0  0  0  0  0
   14.7737  -19.0036   19.1511 O   0  0  0  0  0  0  0  0  0  0  0  0
   11.8736  -20.7740   20.6031 C   0  0  0  0  0  0  0  0  0  0  0  0
   13.1769  -20.1841   21.1461 C   0  0  2  0  0  0  0  0  0  0  0  0
   14.2725  -20.8401   20.4854 N   0  0  0  0  0  0  0  0  0  0  0  0
   13.1754  -20.4247   22.6108 C   0  0  0  0  0  0  0  0  0  0  0  0
   14.0254  -21.2329   23.0644 O   0  0  0  0  0  0  0  0  0  0  0  0
   12.3106  -19.8248   23.4947 O   0  0  0  0  0  0  0  0  0  0  0  0
  2  1  1  6
  3  2  1  0
  4  3  1  0
  5  4  2  0
  6  7  2  0
  6  2  1  0
  8  4  1  0
  9 10  1  0
 10 12  1  0
 11 10  2  0
 12 13  1  0
 14 13  1  1
 14 16  1  0
 14 15  1  0
 15  6  1  0
 16 17  2  0
 19 18  1  6
 20 19  1  0
 20 16  1  0
 21 19  1  0
 22 21  2  0
 23 21  1  0
M  END
$$$$
