DQA.pdb
     RDKit          3D

 23 22  0  0  1  0  0  0  0  0999 V2000
   13.1367  -15.3887   17.1210 N   0  0  0  0  0  0  0  0  0  0  0  0
   13.8151  -15.4276   18.3860 C   0  0  1  0  0  0  0  0  0  0  0  0
   15.1909  -14.8548   18.2265 C   0  0  0  0  0  0  0  0  0  0  0  0
   15.8431  -15.4688   17.0440 C   0  0  0  0  0  0  0  0  0  0  0  0
   15.7762  -16.7203   16.8375 O   0  0  0  0  0  0  0  0  0  0  0  0
   13.0669  -14.6310   19.4068 C   0  0  0  0  0  0  0  0  0  0  0  0
   13.5857  -13.5849   19.8726 O   0  0  0  0  0  0  0  0  0  0  0  0
   16.5542  -14.7270   16.1068 O   0  0  0  0  0  0  0  0  0  0  0  0
    7.5673  -12.3464   19.3612 N   0  0  0  0  0  0  0  0  0  0  0  0
    7.8343  -13.6449   18.8715 C   0  0  0  0  0  0  0  0  0  0  0  0
    7.0217  -14.1188   18.0378 O   0  0  0  0  0  0  0  0  0  0  0  0
    9.0344  -14.3340   19.3736 C   0  0  0  0  0  0  0  0  0  0  0  0
    9.8883  -13.5509   20.2955 C   0  0  0  0  0  0  0  0  0  0  0  0
   11.0594  -14.2668   20.8816 C   0  0  2  0  0  0  0  0  0  0  0  0
   11.7963  -15.0029   19.8740 N   0  0  0  0  0  0  0  0  0  0  0  0
   10.6574  -15.1429   22.0108 C   0  0  0  0  0  0  0  0  0  0  0  0
   10.0285  -14.6611   22.9840 O   0  0  0  0  0  0  0  0  0  0  0  0
   10.3541  -18.8111   22.4559 C   0  0  0  0  0  0  0  0  0  0  0  0
   10.5732  -17.4208   23.0562 C   0  0  2  0  0  0  0  0  0  0  0  0
   10.9827  -16.5377   21.9980 N   0  0  0  0  0  0  0  0  0  0  0  0
   11.6152  -17.5685   24.1030 C   0  0  0  0  0  0  0  0  0  0  0  0
   12.7042  -16.9660   23.9233 O   0  0  0  0  0  0  0  0  0  0  0  0
   11.4656  -18.3162   25.2465 O   0  0  0  0  0  0  0  0  0  0  0  0
  2  1  1  6
  3  2  1  0
  4  3  1  0
  5  4  2  0
  6  7  2  0
  6  2  1  0
  8  4  1  0
  9 10  1  0
 10 12  1  0
 11 10  2  0
 12 13  1  0
 14 13  1  6
 14 16  1  0
 14 15  1  0
 15  6  1  0
 16 17  2  0
 19 18  1  6
 20 19  1  0
 20 16  1  0
 21 19  1  0
 22 21  2  0
 23 21  1  0
M  END
$$$$
