DQA.pdb
     RDKit          3D

 23 22  0  0  1  0  0  0  0  0999 V2000
    6.6703  -16.4836   20.2027 N   0  0  0  0  0  0  0  0  0  0  0  0
    7.8860  -16.2907   20.9420 C   0  0  1  0  0  0  0  0  0  0  0  0
    8.5884  -15.0706   20.4280 C   0  0  0  0  0  0  0  0  0  0  0  0
    9.1580  -15.3607   19.0893 C   0  0  0  0  0  0  0  0  0  0  0  0
    9.0995  -14.5025   18.1547 O   0  0  0  0  0  0  0  0  0  0  0  0
    7.5917  -16.1113   22.3972 C   0  0  0  0  0  0  0  0  0  0  0  0
    6.7747  -15.2254   22.7555 O   0  0  0  0  0  0  0  0  0  0  0  0
    9.7791  -16.5662   18.7807 O   0  0  0  0  0  0  0  0  0  0  0  0
    7.5364  -20.6714   26.6126 N   0  0  0  0  0  0  0  0  0  0  0  0
    7.2482  -19.5610   27.4380 C   0  0  0  0  0  0  0  0  0  0  0  0
    6.9294  -19.8031   28.6295 O   0  0  0  0  0  0  0  0  0  0  0  0
    7.3436  -18.2190   26.8404 C   0  0  0  0  0  0  0  0  0  0  0  0
    7.7302  -18.1763   25.4118 C   0  0  0  0  0  0  0  0  0  0  0  0
    7.8494  -16.8206   24.7989 C   0  0  2  0  0  0  0  0  0  0  0  0
    8.1935  -16.8966   23.3932 N   0  0  0  0  0  0  0  0  0  0  0  0
    8.8024  -15.9626   25.5472 C   0  0  0  0  0  0  0  0  0  0  0  0
   10.0382  -16.1255   25.4026 O   0  0  0  0  0  0  0  0  0  0  0  0
    8.3762  -12.9766   27.8088 C   0  0  0  0  0  0  0  0  0  0  0  0
    9.2153  -14.0593   27.1270 C   0  0  2  0  0  0  0  0  0  0  0  0
    8.3207  -14.9473   26.4354 N   0  0  0  0  0  0  0  0  0  0  0  0
    9.9756  -14.7474   28.2002 C   0  0  0  0  0  0  0  0  0  0  0  0
    9.6346  -15.9233   28.4870 O   0  0  0  0  0  0  0  0  0  0  0  0
   11.0201  -14.1847   28.8941 O   0  0  0  0  0  0  0  0  0  0  0  0
  2  1  1  6
  3  2  1  0
  4  3  1  0
  5  4  2  0
  6  7  2  0
  6  2  1  0
  8  4  1  0
  9 10  1  0
 10 12  1  0
 11 10  2  0
 12 13  1  0
 14 13  1  1
 14 16  1  0
 14 15  1  0
 15  6  1  0
 16 17  2  0
 19 18  1  1
 20 19  1  0
 20 16  1  0
 21 19  1  0
 22 21  2  0
 23 21  1  0
M  END
$$$$
