DQA.pdb
     RDKit          3D

 23 22  0  0  1  0  0  0  0  0999 V2000
   10.2327  -16.4855   20.2460 N   0  0  0  0  0  0  0  0  0  0  0  0
    9.2271  -16.7187   21.2441 C   0  0  1  0  0  0  0  0  0  0  0  0
    9.1427  -18.1882   21.5264 C   0  0  0  0  0  0  0  0  0  0  0  0
    8.2764  -18.8334   20.5096 C   0  0  0  0  0  0  0  0  0  0  0  0
    8.7792  -19.4396   19.5131 O   0  0  0  0  0  0  0  0  0  0  0  0
    9.5654  -15.9946   22.5081 C   0  0  0  0  0  0  0  0  0  0  0  0
   10.7694  -15.7488   22.7736 O   0  0  0  0  0  0  0  0  0  0  0  0
    6.8877  -18.8150   20.5829 O   0  0  0  0  0  0  0  0  0  0  0  0
    5.4497  -12.7196   26.0776 N   0  0  0  0  0  0  0  0  0  0  0  0
    6.6573  -12.5191   26.7837 C   0  0  0  0  0  0  0  0  0  0  0  0
    6.6214  -11.7337   27.7644 O   0  0  0  0  0  0  0  0  0  0  0  0
    7.8526  -13.2410   26.3173 C   0  0  0  0  0  0  0  0  0  0  0  0
    7.6868  -14.0237   25.0715 C   0  0  0  0  0  0  0  0  0  0  0  0
    8.8771  -14.7996   24.6143 C   0  0  2  0  0  0  0  0  0  0  0  0
    8.5877  -15.5718   23.4226 N   0  0  0  0  0  0  0  0  0  0  0  0
    9.4233  -15.6548   25.6980 C   0  0  0  0  0  0  0  0  0  0  0  0
    8.9301  -16.7891   25.9094 O   0  0  0  0  0  0  0  0  0  0  0  0
   12.1366  -15.1739   28.2768 C   0  0  0  0  0  0  0  0  0  0  0  0
   11.0766  -16.0050   27.5508 C   0  0  2  0  0  0  0  0  0  0  0  0
   10.5121  -15.1938   26.5065 N   0  0  0  0  0  0  0  0  0  0  0  0
   10.0698  -16.3946   28.5695 C   0  0  0  0  0  0  0  0  0  0  0  0
    8.9788  -15.7692   28.5723 O   0  0  0  0  0  0  0  0  0  0  0  0
   10.2536  -17.3876   29.5018 O   0  0  0  0  0  0  0  0  0  0  0  0
  2  1  1  6
  3  2  1  0
  4  3  1  0
  5  4  2  0
  6  7  2  0
  6  2  1  0
  8  4  1  0
  9 10  1  0
 10 12  1  0
 11 10  2  0
 12 13  1  0
 14 13  1  1
 14 16  1  0
 14 15  1  0
 15  6  1  0
 16 17  2  0
 19 18  1  1
 20 19  1  0
 20 16  1  0
 21 19  1  0
 22 21  2  0
 23 21  1  0
M  END
$$$$
