DQA.pdb
     RDKit          3D

 23 22  0  0  1  0  0  0  0  0999 V2000
    8.6098  -16.1668   19.9743 N   0  0  0  0  0  0  0  0  0  0  0  0
    8.7557  -14.9943   20.7902 C   0  0  1  0  0  0  0  0  0  0  0  0
    7.6734  -14.0160   20.4472 C   0  0  0  0  0  0  0  0  0  0  0  0
    7.8112  -13.6109   19.0268 C   0  0  0  0  0  0  0  0  0  0  0  0
    8.7928  -14.0098   18.3262 O   0  0  0  0  0  0  0  0  0  0  0  0
    8.6560  -15.3486   22.2396 C   0  0  0  0  0  0  0  0  0  0  0  0
    7.5867  -15.1156   22.8583 O   0  0  0  0  0  0  0  0  0  0  0  0
    6.8927  -12.7857   18.3869 O   0  0  0  0  0  0  0  0  0  0  0  0
   11.7572  -20.0646   24.8175 N   0  0  0  0  0  0  0  0  0  0  0  0
   12.5316  -18.8871   24.7114 C   0  0  0  0  0  0  0  0  0  0  0  0
   13.7802  -19.0178   24.7717 O   0  0  0  0  0  0  0  0  0  0  0  0
   11.8187  -17.6105   24.5401 C   0  0  0  0  0  0  0  0  0  0  0  0
   10.3409  -17.6971   24.5100 C   0  0  0  0  0  0  0  0  0  0  0  0
    9.6067  -16.4126   24.3138 C   0  0  2  0  0  0  0  0  0  0  0  0
    9.7151  -15.9366   22.9492 N   0  0  0  0  0  0  0  0  0  0  0  0
   10.0406  -15.3790   25.2872 C   0  0  0  0  0  0  0  0  0  0  0  0
   10.4757  -14.2758   24.8769 O   0  0  0  0  0  0  0  0  0  0  0  0
    9.3270  -13.4972   27.5938 C   0  0  0  0  0  0  0  0  0  0  0  0
   10.3434  -14.6389   27.6640 C   0  0  2  0  0  0  0  0  0  0  0  0
    9.9662  -15.6319   26.6950 N   0  0  0  0  0  0  0  0  0  0  0  0
   10.3018  -15.1612   29.0528 C   0  0  0  0  0  0  0  0  0  0  0  0
    9.8296  -16.3142   29.2226 O   0  0  0  0  0  0  0  0  0  0  0  0
   10.7432  -14.4694   30.1554 O   0  0  0  0  0  0  0  0  0  0  0  0
  2  1  1  6
  3  2  1  0
  4  3  1  0
  5  4  2  0
  6  7  2  0
  6  2  1  0
  8  4  1  0
  9 10  1  0
 10 12  1  0
 11 10  2  0
 12 13  1  0
 14 13  1  6
 14 16  1  0
 14 15  1  0
 15  6  1  0
 16 17  2  0
 19 18  1  1
 20 19  1  0
 20 16  1  0
 21 19  1  0
 22 21  2  0
 23 21  1  0
M  END
$$$$
