DQA.pdb
     RDKit          3D

 23 22  0  0  1  0  0  0  0  0999 V2000
   10.6125  -19.0944   21.3791 N   0  0  0  0  0  0  0  0  0  0  0  0
   10.4743  -17.6678   21.4656 C   0  0  1  0  0  0  0  0  0  0  0  0
    9.7577  -17.1662   20.2486 C   0  0  0  0  0  0  0  0  0  0  0  0
   10.6738  -17.2212   19.0831 C   0  0  0  0  0  0  0  0  0  0  0  0
   11.8695  -17.6303   19.2110 O   0  0  0  0  0  0  0  0  0  0  0  0
    9.6953  -17.2896   22.6848 C   0  0  0  0  0  0  0  0  0  0  0  0
    8.4394  -17.3365   22.6521 O   0  0  0  0  0  0  0  0  0  0  0  0
   10.2881  -16.8360   17.8036 O   0  0  0  0  0  0  0  0  0  0  0  0
   11.7112  -18.0419   28.5311 N   0  0  0  0  0  0  0  0  0  0  0  0
   10.5411  -17.2902   28.7822 C   0  0  0  0  0  0  0  0  0  0  0  0
   10.2505  -17.0715   29.9854 O   0  0  0  0  0  0  0  0  0  0  0  0
    9.7614  -16.8270   27.6226 C   0  0  0  0  0  0  0  0  0  0  0  0
   10.3103  -17.1820   26.2941 C   0  0  0  0  0  0  0  0  0  0  0  0
    9.5914  -16.6249   25.1107 C   0  0  2  0  0  0  0  0  0  0  0  0
   10.3102  -16.8797   23.8784 N   0  0  0  0  0  0  0  0  0  0  0  0
    9.2953  -15.1799   25.2796 C   0  0  0  0  0  0  0  0  0  0  0  0
   10.2216  -14.3372   25.1993 O   0  0  0  0  0  0  0  0  0  0  0  0
    6.1185  -13.2012   25.7091 C   0  0  0  0  0  0  0  0  0  0  0  0
    7.6412  -13.3501   25.7325 C   0  0  2  0  0  0  0  0  0  0  0  0
    7.9565  -14.7389   25.5342 N   0  0  0  0  0  0  0  0  0  0  0  0
    8.0976  -12.8509   27.0538 C   0  0  0  0  0  0  0  0  0  0  0  0
    8.4787  -13.7053   27.8940 O   0  0  0  0  0  0  0  0  0  0  0  0
    8.1294  -11.5247   27.4133 O   0  0  0  0  0  0  0  0  0  0  0  0
  2  1  1  6
  3  2  1  0
  4  3  1  0
  5  4  2  0
  6  7  2  0
  6  2  1  0
  8  4  1  0
  9 10  1  0
 10 12  1  0
 11 10  2  0
 12 13  1  0
 14 13  1  1
 14 16  1  0
 14 15  1  0
 15  6  1  0
 16 17  2  0
 19 18  1  1
 20 19  1  0
 20 16  1  0
 21 19  1  0
 22 21  2  0
 23 21  1  0
M  END
$$$$
