DQA.pdb
     RDKit          3D

 23 22  0  0  1  0  0  0  0  0999 V2000
   15.5155  -17.7443   14.7758 N   0  0  0  0  0  0  0  0  0  0  0  0
   15.9821  -17.9051   16.1243 C   0  0  1  0  0  0  0  0  0  0  0  0
   16.9905  -16.8388   16.4284 C   0  0  0  0  0  0  0  0  0  0  0  0
   18.1614  -17.0018   15.5323 C   0  0  0  0  0  0  0  0  0  0  0  0
   18.5852  -18.1564   15.2150 O   0  0  0  0  0  0  0  0  0  0  0  0
   14.8449  -17.7951   17.0891 C   0  0  0  0  0  0  0  0  0  0  0  0
   13.7772  -17.2422   16.7219 O   0  0  0  0  0  0  0  0  0  0  0  0
   18.8539  -15.9221   14.9948 O   0  0  0  0  0  0  0  0  0  0  0  0
   12.6565  -22.1777   20.5952 N   0  0  0  0  0  0  0  0  0  0  0  0
   14.0187  -21.8383   20.7578 C   0  0  0  0  0  0  0  0  0  0  0  0
   14.7719  -22.7187   21.2452 O   0  0  0  0  0  0  0  0  0  0  0  0
   14.4436  -20.4902   20.3463 C   0  0  0  0  0  0  0  0  0  0  0  0
   13.3950  -19.6438   19.7329 C   0  0  0  0  0  0  0  0  0  0  0  0
   13.8066  -18.2658   19.3337 C   0  0  2  0  0  0  0  0  0  0  0  0
   14.9165  -18.2871   18.4020 N   0  0  0  0  0  0  0  0  0  0  0  0
   14.1042  -17.4184   20.5159 C   0  0  0  0  0  0  0  0  0  0  0  0
   15.2946  -17.2126   20.8552 O   0  0  0  0  0  0  0  0  0  0  0  0
   11.9450  -15.6772   23.0745 C   0  0  0  0  0  0  0  0  0  0  0  0
   13.2927  -16.0394   22.4469 C   0  0  2  0  0  0  0  0  0  0  0  0
   13.0399  -16.8323   21.2744 N   0  0  0  0  0  0  0  0  0  0  0  0
   14.0561  -16.7852   23.4786 C   0  0  0  0  0  0  0  0  0  0  0  0
   14.0584  -18.0403   23.4010 O   0  0  0  0  0  0  0  0  0  0  0  0
   14.7546  -16.1949   24.5046 O   0  0  0  0  0  0  0  0  0  0  0  0
  2  1  1  6
  3  2  1  0
  4  3  1  0
  5  4  2  0
  6  7  2  0
  6  2  1  0
  8  4  1  0
  9 10  1  0
 10 12  1  0
 11 10  2  0
 12 13  1  0
 14 13  1  1
 14 16  1  0
 14 15  1  0
 15  6  1  0
 16 17  2  0
 19 18  1  1
 20 19  1  0
 20 16  1  0
 21 19  1  0
 22 21  2  0
 23 21  1  0
M  END
$$$$
