PEI.pdb
     RDKit          3D

 25 25  0  0  1  0  0  0  0  0999 V2000
   21.8275  -13.1865  -17.3592 N   0  0  0  0  0  0  0  0  0  0  0  0
   22.4697  -14.3540  -17.9515 C   0  0  0  0  0  0  0  0  0  0  0  0
   22.4865  -14.1301  -19.4495 C   0  0  0  0  0  0  0  0  0  0  0  0
   21.7805  -12.7753  -19.6112 C   0  0  0  0  0  0  0  0  0  0  0  0
   22.1489  -12.1293  -18.2959 C   0  0  1  0  0  0  0  0  0  0  0  0
   21.3485  -10.9338  -17.9699 C   0  0  0  0  0  0  0  0  0  0  0  0
   21.5224   -9.9241  -18.6910 O   0  0  0  0  0  0  0  0  0  0  0  0
   20.4168  -10.9045  -16.8923 N   0  0  0  0  0  0  0  0  0  0  0  0
   19.4729   -9.8922  -16.6108 C   0  0  1  0  0  0  0  0  0  0  0  0
   18.0577  -10.2366  -16.4343 C   0  0  0  0  0  0  0  0  0  0  0  0
   17.6947  -11.0750  -15.2502 C   0  0  0  0  0  0  0  0  0  0  0  0
   16.3001  -11.3132  -14.9791 C   0  0  0  0  0  0  0  0  0  0  0  0
   15.6678  -12.2880  -15.4061 O   0  0  0  0  0  0  0  0  0  0  0  0
   19.9962   -8.9271  -15.5616 C   0  0  0  0  0  0  0  0  0  0  0  0
   20.5347   -9.3346  -14.5024 O   0  0  0  0  0  0  0  0  0  0  0  0
   15.5883  -10.4056  -14.1879 O   0  0  0  0  0  0  0  0  0  0  0  0
   23.0704   -3.7287  -15.1063 C   0  0  0  0  0  0  0  0  0  0  0  0
   22.1217   -4.6983  -14.4353 C   0  0  0  0  0  0  0  0  0  0  0  0
   21.4894   -5.6624  -15.4034 C   0  0  2  0  0  0  0  0  0  0  0  0
   20.7271   -4.8420  -16.4224 C   0  0  0  0  0  0  0  0  0  0  0  0
   20.5435   -6.6122  -14.7638 C   0  0  2  0  0  0  0  0  0  0  0  0
   19.9161   -7.5236  -15.7021 N   0  0  0  0  0  0  0  0  0  0  0  0
   19.5438   -5.8544  -13.9761 C   0  0  0  0  0  0  0  0  0  0  0  0
   18.4026   -5.6855  -14.4545 O   0  0  0  0  0  0  0  0  0  0  0  0
   19.8448   -5.3382  -12.7407 O   0  0  0  0  0  0  0  0  0  0  0  0
  1  2  1  0
  2  3  1  0
  4  3  1  0
  5  1  1  0
  5  4  1  0
  5  6  1  1
  7  6  2  0
  8  6  1  0
  9 14  1  0
  9  8  1  0
  9 10  1  1
 11 10  1  0
 12 16  1  0
 12 11  1  0
 13 12  2  0
 14 22  1  0
 15 14  2  0
 17 18  1  0
 19 21  1  0
 19 18  1  0
 19 20  1  6
 21 23  1  0
 21 22  1  6
 23 24  2  0
 23 25  1  0
M  END
$$$$
