PEI.pdb
     RDKit          3D

 25 25  0  0  1  0  0  0  0  0999 V2000
   16.2200  -11.7565  -15.6870 N   0  0  0  0  0  0  0  0  0  0  0  0
   15.6305  -13.0860  -15.7928 C   0  0  0  0  0  0  0  0  0  0  0  0
   16.4410  -13.8420  -16.8254 C   0  0  0  0  0  0  0  0  0  0  0  0
   17.4827  -12.8088  -17.2811 C   0  0  0  0  0  0  0  0  0  0  0  0
   17.6108  -11.9911  -16.0169 C   0  0  1  0  0  0  0  0  0  0  0  0
   18.2884  -10.6946  -16.2075 C   0  0  0  0  0  0  0  0  0  0  0  0
   19.5322  -10.7241  -16.3557 O   0  0  0  0  0  0  0  0  0  0  0  0
   17.5844   -9.4561  -16.2256 N   0  0  0  0  0  0  0  0  0  0  0  0
   18.1149   -8.1798  -16.5164 C   0  0  1  0  0  0  0  0  0  0  0  0
   17.2549   -7.1417  -17.0954 C   0  0  0  0  0  0  0  0  0  0  0  0
   15.7984   -7.1865  -16.7589 C   0  0  0  0  0  0  0  0  0  0  0  0
   15.1330   -5.9537  -16.4230 C   0  0  0  0  0  0  0  0  0  0  0  0
   14.3578   -5.3559  -17.1808 O   0  0  0  0  0  0  0  0  0  0  0  0
   18.9921   -7.6765  -15.3835 C   0  0  0  0  0  0  0  0  0  0  0  0
   18.5781   -7.6368  -14.1982 O   0  0  0  0  0  0  0  0  0  0  0  0
   15.3556   -5.3706  -15.1712 O   0  0  0  0  0  0  0  0  0  0  0  0
   23.3740   -9.9246  -14.2336 C   0  0  0  0  0  0  0  0  0  0  0  0
   22.1123   -9.0968  -14.3492 C   0  0  0  0  0  0  0  0  0  0  0  0
   22.3788   -7.6156  -14.3073 C   0  0  2  0  0  0  0  0  0  0  0  0
   22.9760   -7.3040  -12.9513 C   0  0  0  0  0  0  0  0  0  0  0  0
   21.1588   -6.7872  -14.4839 C   0  0  2  0  0  0  0  0  0  0  0  0
   20.3162   -7.2251  -15.5807 N   0  0  0  0  0  0  0  0  0  0  0  0
   21.5464   -5.3639  -14.6182 C   0  0  0  0  0  0  0  0  0  0  0  0
   21.5045   -4.8324  -15.7476 O   0  0  0  0  0  0  0  0  0  0  0  0
   21.9480   -4.6238  -13.5346 O   0  0  0  0  0  0  0  0  0  0  0  0
  1  2  1  0
  2  3  1  0
  4  3  1  0
  5  1  1  0
  5  4  1  0
  5  6  1  6
  7  6  2  0
  8  6  1  0
  9 14  1  0
  9  8  1  0
  9 10  1  1
 11 10  1  0
 12 16  1  0
 12 11  1  0
 13 12  2  0
 14 22  1  0
 15 14  2  0
 17 18  1  0
 19 21  1  0
 19 18  1  0
 19 20  1  1
 21 23  1  0
 21 22  1  6
 23 24  2  0
 23 25  1  0
M  END
$$$$
