PEI.pdb
     RDKit          3D

 25 25  0  0  1  0  0  0  0  0999 V2000
   16.8466  -11.1010  -17.4400 N   0  0  0  0  0  0  0  0  0  0  0  0
   16.3046  -12.3926  -17.8449 C   0  0  0  0  0  0  0  0  0  0  0  0
   17.4500  -13.1757  -18.4526 C   0  0  0  0  0  0  0  0  0  0  0  0
   18.6303  -12.1960  -18.3686 C   0  0  0  0  0  0  0  0  0  0  0  0
   18.2305  -11.4088  -17.1423 C   0  0  1  0  0  0  0  0  0  0  0  0
   18.9795  -10.1501  -16.9672 C   0  0  0  0  0  0  0  0  0  0  0  0
   20.2034  -10.2513  -16.7187 O   0  0  0  0  0  0  0  0  0  0  0  0
   18.3633   -8.8696  -17.0705 N   0  0  0  0  0  0  0  0  0  0  0  0
   18.9927   -7.6105  -16.9544 C   0  0  1  0  0  0  0  0  0  0  0  0
   18.4012   -6.4320  -17.5977 C   0  0  0  0  0  0  0  0  0  0  0  0
   18.0790   -6.5309  -19.0548 C   0  0  0  0  0  0  0  0  0  0  0  0
   17.5065   -5.3833  -19.7109 C   0  0  0  0  0  0  0  0  0  0  0  0
   16.3097   -5.2819  -20.0108 O   0  0  0  0  0  0  0  0  0  0  0  0
   19.4550   -7.3546  -15.5307 C   0  0  0  0  0  0  0  0  0  0  0  0
   18.6802   -7.4942  -14.5518 O   0  0  0  0  0  0  0  0  0  0  0  0
   18.3270   -4.3003  -20.0429 O   0  0  0  0  0  0  0  0  0  0  0  0
   23.6018   -9.7767  -13.4538 C   0  0  0  0  0  0  0  0  0  0  0  0
   22.9045   -8.6109  -14.1209 C   0  0  0  0  0  0  0  0  0  0  0  0
   21.8235   -8.0079  -13.2639 C   0  0  2  0  0  0  0  0  0  0  0  0
   20.7349   -9.0494  -13.1136 C   0  0  0  0  0  0  0  0  0  0  0  0
   21.2211   -6.7803  -13.8437 C   0  0  2  0  0  0  0  0  0  0  0  0
   20.7701   -6.9484  -15.2123 N   0  0  0  0  0  0  0  0  0  0  0  0
   22.1744   -5.6546  -13.7096 C   0  0  0  0  0  0  0  0  0  0  0  0
   22.5442   -5.3115  -12.5672 O   0  0  0  0  0  0  0  0  0  0  0  0
   22.6552   -4.9864  -14.8076 O   0  0  0  0  0  0  0  0  0  0  0  0
  1  2  1  0
  2  3  1  0
  4  3  1  0
  5  1  1  0
  5  4  1  0
  5  6  1  6
  7  6  2  0
  8  6  1  0
  9 14  1  0
  9  8  1  0
  9 10  1  1
 11 10  1  0
 12 16  1  0
 12 11  1  0
 13 12  2  0
 14 22  1  0
 15 14  2  0
 17 18  1  0
 19 21  1  0
 19 18  1  0
 19 20  1  6
 21 23  1  0
 21 22  1  6
 23 24  2  0
 23 25  1  0
M  END
$$$$
