PEI.pdb
     RDKit          3D

 25 25  0  0  1  0  0  0  0  0999 V2000
   27.4648  -19.9956  -16.0929 N   0  0  0  0  0  0  0  0  0  0  0  0
   27.9897  -19.4762  -17.3502 C   0  0  0  0  0  0  0  0  0  0  0  0
   28.3271  -18.0185  -17.1134 C   0  0  0  0  0  0  0  0  0  0  0  0
   27.9154  -17.7947  -15.6504 C   0  0  0  0  0  0  0  0  0  0  0  0
   28.1387  -19.1841  -15.1000 C   0  0  1  0  0  0  0  0  0  0  0  0
   27.5159  -19.4146  -13.7827 C   0  0  0  0  0  0  0  0  0  0  0  0
   27.9367  -18.7184  -12.8298 O   0  0  0  0  0  0  0  0  0  0  0  0
   26.4848  -20.3764  -13.5791 N   0  0  0  0  0  0  0  0  0  0  0  0
   25.4476  -20.3224  -12.6218 C   0  0  1  0  0  0  0  0  0  0  0  0
   24.0818  -20.7049  -12.9968 C   0  0  0  0  0  0  0  0  0  0  0  0
   23.0325  -20.6455  -11.9328 C   0  0  0  0  0  0  0  0  0  0  0  0
   21.6833  -21.0142  -12.2775 C   0  0  0  0  0  0  0  0  0  0  0  0
   21.1541  -22.0862  -11.9561 O   0  0  0  0  0  0  0  0  0  0  0  0
   25.8948  -20.9024  -11.2915 C   0  0  0  0  0  0  0  0  0  0  0  0
   26.1548  -22.1244  -11.1601 O   0  0  0  0  0  0  0  0  0  0  0  0
   20.8966  -20.1280  -13.0208 O   0  0  0  0  0  0  0  0  0  0  0  0
   28.7636  -19.7766   -5.9792 C   0  0  0  0  0  0  0  0  0  0  0  0
   27.7154  -20.5605   -6.7387 C   0  0  0  0  0  0  0  0  0  0  0  0
   27.3312  -19.9127   -8.0424 C   0  0  2  0  0  0  0  0  0  0  0  0
   26.7083  -18.5727   -7.7126 C   0  0  0  0  0  0  0  0  0  0  0  0
   26.3528  -20.7027   -8.8328 C   0  0  2  0  0  0  0  0  0  0  0  0
   26.0484  -20.1193  -10.1257 N   0  0  0  0  0  0  0  0  0  0  0  0
   25.1316  -20.9234   -8.0241 C   0  0  0  0  0  0  0  0  0  0  0  0
   24.1078  -20.2576   -8.2854 O   0  0  0  0  0  0  0  0  0  0  0  0
   25.1035  -21.8376   -7.0010 O   0  0  0  0  0  0  0  0  0  0  0  0
  1  2  1  0
  2  3  1  0
  4  3  1  0
  5  1  1  0
  5  4  1  0
  5  6  1  1
  7  6  2  0
  8  6  1  0
  9 14  1  0
  9  8  1  0
  9 10  1  6
 11 10  1  0
 12 16  1  0
 12 11  1  0
 13 12  2  0
 14 22  1  0
 15 14  2  0
 17 18  1  0
 19 21  1  0
 19 18  1  0
 19 20  1  1
 21 23  1  0
 21 22  1  6
 23 24  2  0
 23 25  1  0
M  END
$$$$
