PEI.pdb
     RDKit          3D

 25 25  0  0  1  0  0  0  0  0999 V2000
   17.8589  -12.7105  -15.9876 N   0  0  0  0  0  0  0  0  0  0  0  0
   17.5724  -14.1013  -16.3189 C   0  0  0  0  0  0  0  0  0  0  0  0
   18.0647  -14.3235  -17.7341 C   0  0  0  0  0  0  0  0  0  0  0  0
   18.6048  -12.9437  -18.1399 C   0  0  0  0  0  0  0  0  0  0  0  0
   19.0314  -12.4214  -16.7877 C   0  0  1  0  0  0  0  0  0  0  0  0
   19.2902  -10.9693  -16.7601 C   0  0  0  0  0  0  0  0  0  0  0  0
   20.3513  -10.5747  -17.2968 O   0  0  0  0  0  0  0  0  0  0  0  0
   18.3924  -10.0411  -16.1582 N   0  0  0  0  0  0  0  0  0  0  0  0
   18.4657   -8.6315  -16.2084 C   0  0  1  0  0  0  0  0  0  0  0  0
   17.2390   -7.8367  -16.3351 C   0  0  0  0  0  0  0  0  0  0  0  0
   17.3886   -6.3547  -16.4692 C   0  0  0  0  0  0  0  0  0  0  0  0
   16.2571   -5.5193  -16.1576 C   0  0  0  0  0  0  0  0  0  0  0  0
   15.1146   -5.7088  -16.5948 O   0  0  0  0  0  0  0  0  0  0  0  0
   19.4312   -8.0924  -15.1676 C   0  0  0  0  0  0  0  0  0  0  0  0
   19.3155   -8.3805  -13.9504 O   0  0  0  0  0  0  0  0  0  0  0  0
   16.4270   -4.4184  -15.3117 O   0  0  0  0  0  0  0  0  0  0  0  0
   24.1473   -5.5302  -16.1814 C   0  0  0  0  0  0  0  0  0  0  0  0
   23.3270   -6.8010  -16.2314 C   0  0  0  0  0  0  0  0  0  0  0  0
   22.8872   -7.2672  -14.8691 C   0  0  2  0  0  0  0  0  0  0  0  0
   22.9386   -8.7804  -14.8730 C   0  0  0  0  0  0  0  0  0  0  0  0
   21.5080   -6.8459  -14.5135 C   0  0  2  0  0  0  0  0  0  0  0  0
   20.5122   -7.2422  -15.4912 N   0  0  0  0  0  0  0  0  0  0  0  0
   21.4889   -5.3857  -14.2651 C   0  0  0  0  0  0  0  0  0  0  0  0
   22.2032   -4.9208  -13.3522 O   0  0  0  0  0  0  0  0  0  0  0  0
   20.7076   -4.5405  -15.0123 O   0  0  0  0  0  0  0  0  0  0  0  0
  1  2  1  0
  2  3  1  0
  4  3  1  0
  5  1  1  0
  5  4  1  0
  5  6  1  6
  7  6  2  0
  8  6  1  0
  9 14  1  0
  9  8  1  0
  9 10  1  1
 11 10  1  0
 12 16  1  0
 12 11  1  0
 13 12  2  0
 14 22  1  0
 15 14  2  0
 17 18  1  0
 19 21  1  0
 19 18  1  0
 19 20  1  6
 21 23  1  0
 21 22  1  6
 23 24  2  0
 23 25  1  0
M  END
$$$$
