PEI.pdb
     RDKit          3D

 25 25  0  0  1  0  0  0  0  0999 V2000
   35.3990  -31.3122  -17.1672 N   0  0  0  0  0  0  0  0  0  0  0  0
   36.6317  -32.0877  -17.0941 C   0  0  0  0  0  0  0  0  0  0  0  0
   36.2455  -33.4793  -16.6370 C   0  0  0  0  0  0  0  0  0  0  0  0
   34.7248  -33.3775  -16.4440 C   0  0  0  0  0  0  0  0  0  0  0  0
   34.4009  -32.3172  -17.4707 C   0  0  1  0  0  0  0  0  0  0  0  0
   33.0576  -31.7265  -17.3195 C   0  0  0  0  0  0  0  0  0  0  0  0
   32.9388  -30.8008  -16.4837 O   0  0  0  0  0  0  0  0  0  0  0  0
   31.9346  -32.1704  -18.0757 N   0  0  0  0  0  0  0  0  0  0  0  0
   30.6291  -31.6317  -18.0565 C   0  0  1  0  0  0  0  0  0  0  0  0
   30.1075  -30.9292  -19.2342 C   0  0  0  0  0  0  0  0  0  0  0  0
   28.7102  -30.4013  -19.1592 C   0  0  0  0  0  0  0  0  0  0  0  0
   28.1591  -29.7499  -20.3198 C   0  0  0  0  0  0  0  0  0  0  0  0
   27.0087  -29.2963  -20.3792 O   0  0  0  0  0  0  0  0  0  0  0  0
   29.6389  -32.6080  -17.4464 C   0  0  0  0  0  0  0  0  0  0  0  0
   29.5529  -33.7954  -17.8474 O   0  0  0  0  0  0  0  0  0  0  0  0
   28.9468  -29.6052  -21.4666 O   0  0  0  0  0  0  0  0  0  0  0  0
   26.5500  -34.1500  -12.6564 C   0  0  0  0  0  0  0  0  0  0  0  0
   26.1396  -33.6562  -14.0269 C   0  0  0  0  0  0  0  0  0  0  0  0
   27.1252  -32.6830  -14.6171 C   0  0  2  0  0  0  0  0  0  0  0  0
   26.3552  -31.4343  -14.9917 C   0  0  0  0  0  0  0  0  0  0  0  0
   27.8097  -33.1939  -15.8322 C   0  0  2  0  0  0  0  0  0  0  0  0
   28.7585  -32.2545  -16.3995 N   0  0  0  0  0  0  0  0  0  0  0  0
   26.7961  -33.6231  -16.8234 C   0  0  0  0  0  0  0  0  0  0  0  0
   26.3498  -34.7879  -16.7626 O   0  0  0  0  0  0  0  0  0  0  0  0
   26.3416  -32.7726  -17.7998 O   0  0  0  0  0  0  0  0  0  0  0  0
  1  2  1  0
  2  3  1  0
  4  3  1  0
  5  1  1  0
  5  4  1  0
  5  6  1  1
  7  6  2  0
  8  6  1  0
  9 14  1  0
  9  8  1  0
  9 10  1  6
 11 10  1  0
 12 16  1  0
 12 11  1  0
 13 12  2  0
 14 22  1  0
 15 14  2  0
 17 18  1  0
 19 21  1  0
 19 18  1  0
 19 20  1  6
 21 23  1  0
 21 22  1  6
 23 24  2  0
 23 25  1  0
M  END
$$$$
