PEI.pdb
     RDKit          3D

 25 25  0  0  1  0  0  0  0  0999 V2000
   40.7725   -3.4287   -6.1688 N   0  0  0  0  0  0  0  0  0  0  0  0
   41.6359   -4.3417   -6.9085 C   0  0  0  0  0  0  0  0  0  0  0  0
   42.5772   -4.9663   -5.8993 C   0  0  0  0  0  0  0  0  0  0  0  0
   42.1715   -4.2968   -4.5775 C   0  0  0  0  0  0  0  0  0  0  0  0
   40.7093   -4.0348   -4.8547 C   0  0  1  0  0  0  0  0  0  0  0  0
   40.0811   -3.0876   -3.9144 C   0  0  0  0  0  0  0  0  0  0  0  0
   39.9638   -3.4661   -2.7258 O   0  0  0  0  0  0  0  0  0  0  0  0
   39.6217   -1.7997   -4.3147 N   0  0  0  0  0  0  0  0  0  0  0  0
   39.1597   -0.7621   -3.4752 C   0  0  1  0  0  0  0  0  0  0  0  0
   39.6157    0.6155   -3.6917 C   0  0  0  0  0  0  0  0  0  0  0  0
   39.1431    1.6575   -2.7287 C   0  0  0  0  0  0  0  0  0  0  0  0
   39.5197    3.0284   -2.9609 C   0  0  0  0  0  0  0  0  0  0  0  0
   39.1271    3.9808   -2.2743 O   0  0  0  0  0  0  0  0  0  0  0  0
   37.6647   -0.8736   -3.2329 C   0  0  0  0  0  0  0  0  0  0  0  0
   36.8678   -1.1665   -4.1587 O   0  0  0  0  0  0  0  0  0  0  0  0
   40.3807    3.3355   -4.0197 O   0  0  0  0  0  0  0  0  0  0  0  0
   35.8057   -3.4346   -0.3977 C   0  0  0  0  0  0  0  0  0  0  0  0
   36.0048   -2.1230    0.3306 C   0  0  0  0  0  0  0  0  0  0  0  0
   35.2799   -0.9760   -0.3217 C   0  0  2  0  0  0  0  0  0  0  0  0
   33.7983   -1.2786   -0.2460 C   0  0  0  0  0  0  0  0  0  0  0  0
   35.6452   -0.7760   -1.7474 C   0  0  2  0  0  0  0  0  0  0  0  0
   37.0745   -0.6598   -1.9672 N   0  0  0  0  0  0  0  0  0  0  0  0
   34.9062    0.3897   -2.2851 C   0  0  0  0  0  0  0  0  0  0  0  0
   33.6909    0.2649   -2.5442 O   0  0  0  0  0  0  0  0  0  0  0  0
   35.5261    1.5945   -2.5029 O   0  0  0  0  0  0  0  0  0  0  0  0
  1  2  1  0
  2  3  1  0
  4  3  1  0
  5  1  1  0
  5  4  1  0
  5  6  1  1
  7  6  2  0
  8  6  1  0
  9 14  1  0
  9  8  1  0
  9 10  1  6
 11 10  1  0
 12 16  1  0
 12 11  1  0
 13 12  2  0
 14 22  1  0
 15 14  2  0
 17 18  1  0
 19 21  1  0
 19 18  1  0
 19 20  1  6
 21 23  1  0
 21 22  1  1
 23 24  2  0
 23 25  1  0
M  END
$$$$
