PEI.pdb
     RDKit          3D

 25 25  0  0  1  0  0  0  0  0999 V2000
   26.9410  -33.5120   -7.2546 N   0  0  0  0  0  0  0  0  0  0  0  0
   26.9199  -33.1306   -8.6617 C   0  0  0  0  0  0  0  0  0  0  0  0
   25.5154  -32.6497   -8.9628 C   0  0  0  0  0  0  0  0  0  0  0  0
   24.7859  -32.8320   -7.6231 C   0  0  0  0  0  0  0  0  0  0  0  0
   25.9414  -32.6432   -6.6679 C   0  0  1  0  0  0  0  0  0  0  0  0
   25.6599  -33.0900   -5.2905 C   0  0  0  0  0  0  0  0  0  0  0  0
   24.6867  -32.5545   -4.7110 O   0  0  0  0  0  0  0  0  0  0  0  0
   26.4426  -34.0806   -4.6300 N   0  0  0  0  0  0  0  0  0  0  0  0
   26.1615  -34.7019   -3.3931 C   0  0  1  0  0  0  0  0  0  0  0  0
   26.6599  -36.0547   -3.1211 C   0  0  0  0  0  0  0  0  0  0  0  0
   26.2088  -37.1517   -4.0321 C   0  0  0  0  0  0  0  0  0  0  0  0
   26.6548  -38.4947   -3.7630 C   0  0  0  0  0  0  0  0  0  0  0  0
   27.4431  -38.7947   -2.8568 O   0  0  0  0  0  0  0  0  0  0  0  0
   26.3604  -33.7396   -2.2352 C   0  0  0  0  0  0  0  0  0  0  0  0
   27.3502  -32.9679   -2.1832 O   0  0  0  0  0  0  0  0  0  0  0  0
   26.1867  -39.5471   -4.5566 O   0  0  0  0  0  0  0  0  0  0  0  0
   22.4222  -30.6112   -0.4029 C   0  0  0  0  0  0  0  0  0  0  0  0
   23.7015  -31.3040   -0.8199 C   0  0  0  0  0  0  0  0  0  0  0  0
   24.3888  -32.0009    0.3241 C   0  0  2  0  0  0  0  0  0  0  0  0
   24.7327  -30.9447    1.3531 C   0  0  0  0  0  0  0  0  0  0  0  0
   25.6405  -32.6967   -0.0699 C   0  0  2  0  0  0  0  0  0  0  0  0
   25.4584  -33.6458   -1.1519 N   0  0  0  0  0  0  0  0  0  0  0  0
   26.2480  -33.3287    1.1241 C   0  0  0  0  0  0  0  0  0  0  0  0
   25.8855  -34.4796    1.4464 O   0  0  0  0  0  0  0  0  0  0  0  0
   27.1936  -32.6794    1.8773 O   0  0  0  0  0  0  0  0  0  0  0  0
  1  2  1  0
  2  3  1  0
  4  3  1  0
  5  1  1  0
  5  4  1  0
  5  6  1  1
  7  6  2  0
  8  6  1  0
  9 14  1  0
  9  8  1  0
  9 10  1  1
 11 10  1  0
 12 16  1  0
 12 11  1  0
 13 12  2  0
 14 22  1  0
 15 14  2  0
 17 18  1  0
 19 21  1  0
 19 18  1  0
 19 20  1  1
 21 23  1  0
 21 22  1  6
 23 24  2  0
 23 25  1  0
M  END
$$$$
