PEI.pdb
     RDKit          3D

 25 25  0  0  1  0  0  0  0  0999 V2000
   18.0013  -12.2107  -15.0051 N   0  0  0  0  0  0  0  0  0  0  0  0
   17.7783  -13.6329  -15.2372 C   0  0  0  0  0  0  0  0  0  0  0  0
   17.6869  -13.8214  -16.7374 C   0  0  0  0  0  0  0  0  0  0  0  0
   17.8468  -12.3939  -17.2823 C   0  0  0  0  0  0  0  0  0  0  0  0
   18.7112  -11.7948  -16.1973 C   0  0  1  0  0  0  0  0  0  0  0  0
   18.7802  -10.3216  -16.2305 C   0  0  0  0  0  0  0  0  0  0  0  0
   19.6914   -9.8146  -16.9250 O   0  0  0  0  0  0  0  0  0  0  0  0
   17.8666   -9.4943  -15.5157 N   0  0  0  0  0  0  0  0  0  0  0  0
   17.6758   -8.1037  -15.6729 C   0  0  1  0  0  0  0  0  0  0  0  0
   16.3198   -7.5436  -15.6687 C   0  0  0  0  0  0  0  0  0  0  0  0
   15.3378   -8.1078  -16.6454 C   0  0  0  0  0  0  0  0  0  0  0  0
   13.9352   -7.8596  -16.4302 C   0  0  0  0  0  0  0  0  0  0  0  0
   13.1033   -7.7494  -17.3403 O   0  0  0  0  0  0  0  0  0  0  0  0
   18.6595   -7.3135  -14.8278 C   0  0  0  0  0  0  0  0  0  0  0  0
   18.7639   -7.5018  -13.5902 O   0  0  0  0  0  0  0  0  0  0  0  0
   13.4520   -7.7300  -15.1239 O   0  0  0  0  0  0  0  0  0  0  0  0
   23.6957   -7.4663  -14.6562 C   0  0  0  0  0  0  0  0  0  0  0  0
   22.2111   -7.2195  -14.4970 C   0  0  0  0  0  0  0  0  0  0  0  0
   21.8269   -5.7850  -14.7446 C   0  0  2  0  0  0  0  0  0  0  0  0
   22.6184   -4.9333  -13.7748 C   0  0  0  0  0  0  0  0  0  0  0  0
   20.3818   -5.5125  -14.5365 C   0  0  2  0  0  0  0  0  0  0  0  0
   19.5143   -6.3264  -15.3671 N   0  0  0  0  0  0  0  0  0  0  0  0
   20.1234   -4.0653  -14.7185 C   0  0  0  0  0  0  0  0  0  0  0  0
   20.0227   -3.6128  -15.8781 O   0  0  0  0  0  0  0  0  0  0  0  0
   19.9938   -3.2188  -13.6462 O   0  0  0  0  0  0  0  0  0  0  0  0
  1  2  1  0
  2  3  1  0
  4  3  1  0
  5  1  1  0
  5  4  1  0
  5  6  1  6
  7  6  2  0
  8  6  1  0
  9 14  1  0
  9  8  1  0
  9 10  1  1
 11 10  1  0
 12 16  1  0
 12 11  1  0
 13 12  2  0
 14 22  1  0
 15 14  2  0
 17 18  1  0
 19 21  1  0
 19 18  1  0
 19 20  1  1
 21 23  1  0
 21 22  1  6
 23 24  2  0
 23 25  1  0
M  END
$$$$
