PEI.pdb
     RDKit          3D

 25 25  0  0  1  0  0  0  0  0999 V2000
   21.4418  -12.8549  -16.9862 N   0  0  0  0  0  0  0  0  0  0  0  0
   21.7607  -14.0647  -17.7350 C   0  0  0  0  0  0  0  0  0  0  0  0
   21.5153  -13.7511  -19.1965 C   0  0  0  0  0  0  0  0  0  0  0  0
   21.0147  -12.2991  -19.1660 C   0  0  0  0  0  0  0  0  0  0  0  0
   21.7342  -11.7998  -17.9347 C   0  0  1  0  0  0  0  0  0  0  0  0
   21.2138  -10.5219  -17.4129 C   0  0  0  0  0  0  0  0  0  0  0  0
   21.4273   -9.5002  -18.1060 O   0  0  0  0  0  0  0  0  0  0  0  0
   20.5005  -10.4286  -16.1831 N   0  0  0  0  0  0  0  0  0  0  0  0
   19.8147   -9.3008  -15.6805 C   0  0  1  0  0  0  0  0  0  0  0  0
   18.5479   -9.4725  -14.9605 C   0  0  0  0  0  0  0  0  0  0  0  0
   17.4611  -10.2343  -15.6498 C   0  0  0  0  0  0  0  0  0  0  0  0
   16.2326  -10.4747  -14.9369 C   0  0  0  0  0  0  0  0  0  0  0  0
   16.0284  -10.1195  -13.7687 O   0  0  0  0  0  0  0  0  0  0  0  0
   20.7686   -8.3320  -15.0040 C   0  0  0  0  0  0  0  0  0  0  0  0
   21.6166   -8.7221  -14.1633 O   0  0  0  0  0  0  0  0  0  0  0  0
   15.1868  -11.1485  -15.5762 O   0  0  0  0  0  0  0  0  0  0  0  0
   24.1693   -3.4986  -16.3948 C   0  0  0  0  0  0  0  0  0  0  0  0
   23.5002   -4.2996  -15.2989 C   0  0  0  0  0  0  0  0  0  0  0  0
   22.4147   -5.2056  -15.8162 C   0  0  2  0  0  0  0  0  0  0  0  0
   21.3351   -4.3230  -16.4062 C   0  0  0  0  0  0  0  0  0  0  0  0
   21.8014   -6.0579  -14.7658 C   0  0  2  0  0  0  0  0  0  0  0  0
   20.7697   -6.9445  -15.2699 N   0  0  0  0  0  0  0  0  0  0  0  0
   21.3045   -5.2002  -13.6651 C   0  0  0  0  0  0  0  0  0  0  0  0
   20.0755   -5.0034  -13.5630 O   0  0  0  0  0  0  0  0  0  0  0  0
   22.1615   -4.6218  -12.7627 O   0  0  0  0  0  0  0  0  0  0  0  0
  1  2  1  0
  2  3  1  0
  4  3  1  0
  5  1  1  0
  5  4  1  0
  5  6  1  1
  7  6  2  0
  8  6  1  0
  9 14  1  0
  9  8  1  0
  9 10  1  1
 11 10  1  0
 12 16  1  0
 12 11  1  0
 13 12  2  0
 14 22  1  0
 15 14  2  0
 17 18  1  0
 19 21  1  0
 19 18  1  0
 19 20  1  1
 21 23  1  0
 21 22  1  6
 23 24  2  0
 23 25  1  0
M  END
$$$$
