PEI.pdb
     RDKit          3D

 25 25  0  0  1  0  0  0  0  0999 V2000
   24.6661  -15.5175  -21.0461 N   0  0  0  0  0  0  0  0  0  0  0  0
   24.8083  -16.9436  -21.3146 C   0  0  0  0  0  0  0  0  0  0  0  0
   26.2082  -17.1485  -21.8559 C   0  0  0  0  0  0  0  0  0  0  0  0
   26.7870  -15.7258  -21.8836 C   0  0  0  0  0  0  0  0  0  0  0  0
   26.0209  -15.1090  -20.7365 C   0  0  1  0  0  0  0  0  0  0  0  0
   26.0850  -13.6358  -20.6959 C   0  0  0  0  0  0  0  0  0  0  0  0
   27.1454  -13.1285  -20.2622 O   0  0  0  0  0  0  0  0  0  0  0  0
   25.0065  -12.8086  -21.1232 N   0  0  0  0  0  0  0  0  0  0  0  0
   24.9865  -11.3974  -21.1783 C   0  0  1  0  0  0  0  0  0  0  0  0
   24.3349  -10.7158  -22.3023 C   0  0  0  0  0  0  0  0  0  0  0  0
   24.3971   -9.2219  -22.3322 C   0  0  0  0  0  0  0  0  0  0  0  0
   23.7427   -8.5288  -23.4123 C   0  0  0  0  0  0  0  0  0  0  0  0
   23.4191   -7.3345  -23.3743 O   0  0  0  0  0  0  0  0  0  0  0  0
   24.6432  -10.7979  -19.8259 C   0  0  0  0  0  0  0  0  0  0  0  0
   23.5366  -11.0136  -19.2720 O   0  0  0  0  0  0  0  0  0  0  0  0
   23.4407   -9.2200  -24.5903 O   0  0  0  0  0  0  0  0  0  0  0  0
   26.4752  -10.4890  -14.2693 C   0  0  0  0  0  0  0  0  0  0  0  0
   25.8103   -9.6380  -15.3295 C   0  0  0  0  0  0  0  0  0  0  0  0
   26.1346  -10.0883  -16.7291 C   0  0  2  0  0  0  0  0  0  0  0  0
   27.5560   -9.6572  -17.0226 C   0  0  0  0  0  0  0  0  0  0  0  0
   25.2439   -9.5023  -17.7631 C   0  0  2  0  0  0  0  0  0  0  0  0
   25.5322   -9.9686  -19.1063 N   0  0  0  0  0  0  0  0  0  0  0  0
   25.2877   -8.0247  -17.6692 C   0  0  0  0  0  0  0  0  0  0  0  0
   25.9336   -7.3857  -18.5261 O   0  0  0  0  0  0  0  0  0  0  0  0
   24.6378   -7.3494  -16.6668 O   0  0  0  0  0  0  0  0  0  0  0  0
  1  2  1  0
  2  3  1  0
  4  3  1  0
  5  1  1  0
  5  4  1  0
  5  6  1  6
  7  6  2  0
  8  6  1  0
  9 14  1  0
  9  8  1  0
  9 10  1  6
 11 10  1  0
 12 16  1  0
 12 11  1  0
 13 12  2  0
 14 22  1  0
 15 14  2  0
 17 18  1  0
 19 21  1  0
 19 18  1  0
 19 20  1  6
 21 23  1  0
 21 22  1  6
 23 24  2  0
 23 25  1  0
M  END
$$$$
