HTA.pdb
     RDKit          3D

 23 23  0  0  1  0  0  0  0  0999 V2000
   13.5148  -14.5917   18.2120 N   0  0  0  0  0  0  0  0  0  0  0  0
   12.3325  -15.2910   18.5926 C   0  0  1  0  0  0  0  0  0  0  0  0
   12.7189  -16.7249   18.9179 C   0  0  0  0  0  0  0  0  0  0  0  0
   13.1627  -17.3806   17.6773 C   0  0  0  0  0  0  0  0  0  0  0  0
   12.8858  -16.9762   16.3954 C   0  0  0  0  0  0  0  0  0  0  0  0
   13.4876  -17.8633   15.5876 N   0  0  0  0  0  0  0  0  0  0  0  0
   14.1115  -18.7795   16.3335 C   0  0  0  0  0  0  0  0  0  0  0  0
   13.9256  -18.5030   17.6234 N   0  0  0  0  0  0  0  0  0  0  0  0
   11.6229  -14.7004   19.7458 C   0  0  0  0  0  0  0  0  0  0  0  0
   12.2742  -14.2863   20.7149 O   0  0  0  0  0  0  0  0  0  0  0  0
    8.1299  -12.6189   19.1059 C   0  0  0  0  0  0  0  0  0  0  0  0
    8.0774  -13.6935   20.1765 C   0  0  1  0  0  0  0  0  0  0  0  0
    7.7180  -14.8837   19.5304 O   0  0  0  0  0  0  0  0  0  0  0  0
    9.4805  -13.9387   20.7510 C   0  0  2  0  0  0  0  0  0  0  0  0
   10.2140  -14.6210   19.7175 N   0  0  0  0  0  0  0  0  0  0  0  0
    9.3006  -14.8641   21.8821 C   0  0  0  0  0  0  0  0  0  0  0  0
    9.4891  -16.0924   21.7050 O   0  0  0  0  0  0  0  0  0  0  0  0
    8.4522  -14.6967   25.5084 C   0  0  0  0  0  0  0  0  0  0  0  0
    8.7050  -15.4475   24.1982 C   0  0  2  0  0  0  0  0  0  0  0  0
    8.9193  -14.4374   23.1842 N   0  0  0  0  0  0  0  0  0  0  0  0
    7.4574  -16.2247   23.9325 C   0  0  0  0  0  0  0  0  0  0  0  0
    7.2433  -17.3627   24.6867 O   0  0  0  0  0  0  0  0  0  0  0  0
    6.6206  -15.9020   23.0825 O   0  0  0  0  0  0  0  0  0  0  0  0
  2  1  1  1
  3  2  1  0
  4  3  1  0
  5  4  2  0
  6  5  1  0
  7  6  1  0
  7  8  2  0
  8  4  1  0
  9  2  1  0
 10  9  2  0
 12 11  1  6
 12 13  1  0
 14 15  1  6
 14 12  1  0
 15  9  1  0
 16 14  1  0
 17 16  2  0
 19 18  1  1
 19 20  1  0
 20 16  1  0
 21 22  1  0
 21 19  1  0
 23 21  2  0
M  END
$$$$
