HTA.pdb
     RDKit          3D

 23 23  0  0  1  0  0  0  0  0999 V2000
   12.9230  -14.3926   17.6272 N   0  0  0  0  0  0  0  0  0  0  0  0
   12.4930  -15.1632   18.7467 C   0  0  1  0  0  0  0  0  0  0  0  0
   13.7273  -15.7345   19.4259 C   0  0  0  0  0  0  0  0  0  0  0  0
   14.4071  -16.6320   18.4780 C   0  0  0  0  0  0  0  0  0  0  0  0
   13.8286  -17.3024   17.4296 C   0  0  0  0  0  0  0  0  0  0  0  0
   14.8161  -17.9961   16.8418 N   0  0  0  0  0  0  0  0  0  0  0  0
   15.9587  -17.7677   17.4954 C   0  0  0  0  0  0  0  0  0  0  0  0
   15.7317  -16.9307   18.5068 N   0  0  0  0  0  0  0  0  0  0  0  0
   11.6956  -14.4068   19.7337 C   0  0  0  0  0  0  0  0  0  0  0  0
   12.1259  -13.3287   20.1669 O   0  0  0  0  0  0  0  0  0  0  0  0
    8.1661  -13.4244   19.1200 C   0  0  0  0  0  0  0  0  0  0  0  0
    8.1951  -14.2490   20.3939 C   0  0  1  0  0  0  0  0  0  0  0  0
    8.0145  -15.5843   20.0095 O   0  0  0  0  0  0  0  0  0  0  0  0
    9.5892  -14.1852   21.0353 C   0  0  2  0  0  0  0  0  0  0  0  0
   10.4574  -14.9309   20.1625 N   0  0  0  0  0  0  0  0  0  0  0  0
    9.4820  -14.9082   22.3135 C   0  0  0  0  0  0  0  0  0  0  0  0
    9.8982  -16.0902   22.3858 O   0  0  0  0  0  0  0  0  0  0  0  0
    8.0863  -14.3159   25.7215 C   0  0  0  0  0  0  0  0  0  0  0  0
    8.7452  -15.1838   24.6460 C   0  0  2  0  0  0  0  0  0  0  0  0
    8.9247  -14.3332   23.4890 N   0  0  0  0  0  0  0  0  0  0  0  0
    7.7733  -16.2825   24.3643 C   0  0  0  0  0  0  0  0  0  0  0  0
    7.6872  -17.3084   25.2862 O   0  0  0  0  0  0  0  0  0  0  0  0
    7.0537  -16.3160   23.3603 O   0  0  0  0  0  0  0  0  0  0  0  0
  2  1  1  6
  3  2  1  0
  4  3  1  0
  5  4  2  0
  6  5  1  0
  7  6  1  0
  7  8  2  0
  8  4  1  0
  9  2  1  0
 10  9  2  0
 12 11  1  6
 12 13  1  0
 14 15  1  6
 14 12  1  0
 15  9  1  0
 16 14  1  0
 17 16  2  0
 19 18  1  1
 19 20  1  0
 20 16  1  0
 21 22  1  0
 21 19  1  0
 23 21  2  0
M  END
$$$$
