HTA.pdb
     RDKit          3D

 23 23  0  0  1  0  0  0  0  0999 V2000
   10.6472  -16.7060   19.0905 N   0  0  0  0  0  0  0  0  0  0  0  0
    9.8521  -17.2509   20.1406 C   0  0  1  0  0  0  0  0  0  0  0  0
   10.0029  -18.7633   20.1079 C   0  0  0  0  0  0  0  0  0  0  0  0
    9.5459  -19.2486   18.7957 C   0  0  0  0  0  0  0  0  0  0  0  0
    8.4775  -18.7748   18.0764 C   0  0  0  0  0  0  0  0  0  0  0  0
    8.4336  -19.5057   16.9513 N   0  0  0  0  0  0  0  0  0  0  0  0
    9.4304  -20.3950   16.9695 C   0  0  0  0  0  0  0  0  0  0  0  0
   10.1289  -20.2556   18.0954 N   0  0  0  0  0  0  0  0  0  0  0  0
   10.2004  -16.7521   21.4868 C   0  0  0  0  0  0  0  0  0  0  0  0
   11.3910  -16.6885   21.8237 O   0  0  0  0  0  0  0  0  0  0  0  0
    8.0701  -13.7816   23.2323 C   0  0  0  0  0  0  0  0  0  0  0  0
    8.2000  -15.0340   24.0798 C   0  0  1  0  0  0  0  0  0  0  0  0
    7.1092  -15.8512   23.7547 O   0  0  0  0  0  0  0  0  0  0  0  0
    9.4504  -15.8253   23.6683 C   0  0  2  0  0  0  0  0  0  0  0  0
    9.1656  -16.3578   22.3618 N   0  0  0  0  0  0  0  0  0  0  0  0
    9.5514  -16.9476   24.6162 C   0  0  0  0  0  0  0  0  0  0  0  0
    9.1762  -18.0899   24.2557 O   0  0  0  0  0  0  0  0  0  0  0  0
   11.1893  -18.8906   26.1980 C   0  0  0  0  0  0  0  0  0  0  0  0
   10.1022  -17.9833   26.7803 C   0  0  2  0  0  0  0  0  0  0  0  0
   10.0580  -16.8074   25.9378 N   0  0  0  0  0  0  0  0  0  0  0  0
   10.5592  -17.6427   28.1610 C   0  0  0  0  0  0  0  0  0  0  0  0
   10.5727  -18.6599   29.0963 O   0  0  0  0  0  0  0  0  0  0  0  0
   10.9202  -16.5107   28.5004 O   0  0  0  0  0  0  0  0  0  0  0  0
  2  1  1  6
  3  2  1  0
  4  3  1  0
  5  4  2  0
  6  5  1  0
  7  6  1  0
  7  8  2  0
  8  4  1  0
  9  2  1  0
 10  9  2  0
 12 11  1  6
 12 13  1  0
 14 15  1  6
 14 12  1  0
 15  9  1  0
 16 14  1  0
 17 16  2  0
 19 18  1  6
 19 20  1  0
 20 16  1  0
 21 22  1  0
 21 19  1  0
 23 21  2  0
M  END
$$$$
