HTA.pdb
     RDKit          3D

 23 23  0  0  1  0  0  0  0  0999 V2000
    6.5739  -16.0620   20.5682 N   0  0  0  0  0  0  0  0  0  0  0  0
    7.4175  -15.3595   21.4773 C   0  0  1  0  0  0  0  0  0  0  0  0
    7.3407  -13.8788   21.1412 C   0  0  0  0  0  0  0  0  0  0  0  0
    7.9240  -13.6735   19.8057 C   0  0  0  0  0  0  0  0  0  0  0  0
    7.3121  -13.0817   18.7292 C   0  0  0  0  0  0  0  0  0  0  0  0
    8.2086  -13.1095   17.7306 N   0  0  0  0  0  0  0  0  0  0  0  0
    9.3290  -13.6928   18.1660 C   0  0  0  0  0  0  0  0  0  0  0  0
    9.1774  -14.0485   19.4410 N   0  0  0  0  0  0  0  0  0  0  0  0
    7.0746  -15.5580   22.9004 C   0  0  0  0  0  0  0  0  0  0  0  0
    5.9296  -15.2945   23.2936 O   0  0  0  0  0  0  0  0  0  0  0  0
    6.5629  -18.3386   24.7378 C   0  0  0  0  0  0  0  0  0  0  0  0
    7.7612  -17.7222   25.4364 C   0  0  1  0  0  0  0  0  0  0  0  0
    8.9006  -18.2381   24.8048 O   0  0  0  0  0  0  0  0  0  0  0  0
    7.7979  -16.2069   25.1887 C   0  0  2  0  0  0  0  0  0  0  0  0
    8.0622  -16.0452   23.7831 N   0  0  0  0  0  0  0  0  0  0  0  0
    8.9574  -15.6999   25.9414 C   0  0  0  0  0  0  0  0  0  0  0  0
    9.9043  -15.1607   25.3184 O   0  0  0  0  0  0  0  0  0  0  0  0
    9.7786  -13.7670   28.4026 C   0  0  0  0  0  0  0  0  0  0  0  0
   10.2130  -15.1769   27.9930 C   0  0  2  0  0  0  0  0  0  0  0  0
    9.0660  -15.7884   27.3568 N   0  0  0  0  0  0  0  0  0  0  0  0
   10.5623  -15.8760   29.2660 C   0  0  0  0  0  0  0  0  0  0  0  0
   11.7089  -15.4697   29.9218 O   0  0  0  0  0  0  0  0  0  0  0  0
    9.8837  -16.7871   29.7524 O   0  0  0  0  0  0  0  0  0  0  0  0
  2  1  1  6
  3  2  1  0
  4  3  1  0
  5  4  2  0
  6  5  1  0
  7  6  1  0
  7  8  2  0
  8  4  1  0
  9  2  1  0
 10  9  2  0
 12 11  1  6
 12 13  1  0
 14 15  1  6
 14 12  1  0
 15  9  1  0
 16 14  1  0
 17 16  2  0
 19 18  1  1
 19 20  1  0
 20 16  1  0
 21 22  1  0
 21 19  1  0
 23 21  2  0
M  END
$$$$
