HTA.pdb
     RDKit          3D

 23 23  0  0  1  0  0  0  0  0999 V2000
   11.7237  -16.5316   16.3493 N   0  0  0  0  0  0  0  0  0  0  0  0
   11.4805  -17.3645   17.4802 C   0  0  1  0  0  0  0  0  0  0  0  0
   12.0173  -18.7517   17.1663 C   0  0  0  0  0  0  0  0  0  0  0  0
   11.2203  -19.3220   16.0683 C   0  0  0  0  0  0  0  0  0  0  0  0
   11.5776  -19.3809   14.7445 C   0  0  0  0  0  0  0  0  0  0  0  0
   10.5563  -19.9778   14.1101 N   0  0  0  0  0  0  0  0  0  0  0  0
    9.6054  -20.2774   14.9995 C   0  0  0  0  0  0  0  0  0  0  0  0
    9.9918  -19.8831   16.2120 N   0  0  0  0  0  0  0  0  0  0  0  0
   12.0874  -16.8760   18.7353 C   0  0  0  0  0  0  0  0  0  0  0  0
   13.2362  -16.4123   18.7164 O   0  0  0  0  0  0  0  0  0  0  0  0
    9.9976  -17.5333   22.3734 C   0  0  0  0  0  0  0  0  0  0  0  0
   10.5480  -16.1621   22.0262 C   0  0  1  0  0  0  0  0  0  0  0  0
   11.0008  -15.5979   23.2263 O   0  0  0  0  0  0  0  0  0  0  0  0
   11.7917  -16.2999   21.1355 C   0  0  2  0  0  0  0  0  0  0  0  0
   11.3425  -16.9487   19.9319 N   0  0  0  0  0  0  0  0  0  0  0  0
   12.7009  -17.2148   21.8456 C   0  0  0  0  0  0  0  0  0  0  0  0
   12.4180  -18.4362   21.9050 O   0  0  0  0  0  0  0  0  0  0  0  0
   15.5649  -18.4234   21.9951 C   0  0  0  0  0  0  0  0  0  0  0  0
   14.7340  -17.7844   23.1111 C   0  0  2  0  0  0  0  0  0  0  0  0
   13.9004  -16.7852   22.4778 N   0  0  0  0  0  0  0  0  0  0  0  0
   15.7218  -17.1560   24.0388 C   0  0  0  0  0  0  0  0  0  0  0  0
   16.5212  -18.0008   24.7852 O   0  0  0  0  0  0  0  0  0  0  0  0
   15.8552  -15.9343   24.1678 O   0  0  0  0  0  0  0  0  0  0  0  0
  2  1  1  6
  3  2  1  0
  4  3  1  0
  5  4  2  0
  6  5  1  0
  7  6  1  0
  7  8  2  0
  8  4  1  0
  9  2  1  0
 10  9  2  0
 12 11  1  1
 12 13  1  0
 14 15  1  6
 14 12  1  0
 15  9  1  0
 16 14  1  0
 17 16  2  0
 19 18  1  6
 19 20  1  0
 20 16  1  0
 21 22  1  0
 21 19  1  0
 23 21  2  0
M  END
$$$$
