HTA.pdb
     RDKit          3D

 23 23  0  0  1  0  0  0  0  0999 V2000
    8.1735  -17.0445   20.2022 N   0  0  0  0  0  0  0  0  0  0  0  0
    8.6162  -16.0860   21.1598 C   0  0  1  0  0  0  0  0  0  0  0  0
    7.7042  -14.8732   21.0670 C   0  0  0  0  0  0  0  0  0  0  0  0
    7.8641  -14.2713   19.7335 C   0  0  0  0  0  0  0  0  0  0  0  0
    8.6412  -14.7503   18.7088 C   0  0  0  0  0  0  0  0  0  0  0  0
    8.4849  -13.8900   17.6903 N   0  0  0  0  0  0  0  0  0  0  0  0
    7.6476  -12.9185   18.0644 C   0  0  0  0  0  0  0  0  0  0  0  0
    7.2522  -13.1319   19.3186 N   0  0  0  0  0  0  0  0  0  0  0  0
    8.6333  -16.5817   22.5513 C   0  0  0  0  0  0  0  0  0  0  0  0
    7.6143  -17.1040   23.0245 O   0  0  0  0  0  0  0  0  0  0  0  0
   11.0528  -19.0426   23.6649 C   0  0  0  0  0  0  0  0  0  0  0  0
   11.2119  -17.8644   24.6084 C   0  0  1  0  0  0  0  0  0  0  0  0
   12.1982  -17.0385   24.0533 O   0  0  0  0  0  0  0  0  0  0  0  0
    9.9269  -17.0233   24.6278 C   0  0  2  0  0  0  0  0  0  0  0  0
    9.8140  -16.4488   23.3130 N   0  0  0  0  0  0  0  0  0  0  0  0
   10.1672  -15.9361   25.5914 C   0  0  0  0  0  0  0  0  0  0  0  0
   10.4088  -14.7809   25.1643 O   0  0  0  0  0  0  0  0  0  0  0  0
    9.1097  -14.0919   27.7022 C   0  0  0  0  0  0  0  0  0  0  0  0
   10.3543  -14.9716   27.8484 C   0  0  2  0  0  0  0  0  0  0  0  0
   10.1403  -16.1250   27.0009 N   0  0  0  0  0  0  0  0  0  0  0  0
   10.4048  -15.3610   29.2895 C   0  0  0  0  0  0  0  0  0  0  0  0
   10.7493  -14.3820   30.2020 O   0  0  0  0  0  0  0  0  0  0  0  0
   10.1566  -16.5007   29.6974 O   0  0  0  0  0  0  0  0  0  0  0  0
  2  1  1  6
  3  2  1  0
  4  3  1  0
  5  4  2  0
  6  5  1  0
  7  6  1  0
  7  8  2  0
  8  4  1  0
  9  2  1  0
 10  9  2  0
 12 11  1  6
 12 13  1  0
 14 15  1  6
 14 12  1  0
 15  9  1  0
 16 14  1  0
 17 16  2  0
 19 18  1  1
 19 20  1  0
 20 16  1  0
 21 22  1  0
 21 19  1  0
 23 21  2  0
M  END
$$$$
