HTA.pdb
     RDKit          3D

 23 23  0  0  1  0  0  0  0  0999 V2000
   10.2503  -17.7527   15.3320 N   0  0  0  0  0  0  0  0  0  0  0  0
   10.9164  -17.4600   16.5577 C   0  0  1  0  0  0  0  0  0  0  0  0
   11.7245  -16.1873   16.3611 C   0  0  0  0  0  0  0  0  0  0  0  0
   12.8775  -16.4961   15.5002 C   0  0  0  0  0  0  0  0  0  0  0  0
   14.1066  -16.9472   15.9116 C   0  0  0  0  0  0  0  0  0  0  0  0
   14.8413  -17.0921   14.7977 N   0  0  0  0  0  0  0  0  0  0  0  0
   14.1024  -16.7465   13.7395 C   0  0  0  0  0  0  0  0  0  0  0  0
   12.8894  -16.3761   14.1474 N   0  0  0  0  0  0  0  0  0  0  0  0
   10.0130  -17.2937   17.7146 C   0  0  0  0  0  0  0  0  0  0  0  0
    8.9293  -16.7128   17.5628 O   0  0  0  0  0  0  0  0  0  0  0  0
    8.6968  -20.0477   19.6268 C   0  0  0  0  0  0  0  0  0  0  0  0
    9.4206  -19.1766   20.6372 C   0  0  1  0  0  0  0  0  0  0  0  0
   10.7347  -19.6574   20.7103 O   0  0  0  0  0  0  0  0  0  0  0  0
    9.5323  -17.7373   20.1130 C   0  0  2  0  0  0  0  0  0  0  0  0
   10.4061  -17.8021   18.9712 N   0  0  0  0  0  0  0  0  0  0  0  0
   10.2078  -16.9700   21.1728 C   0  0  0  0  0  0  0  0  0  0  0  0
   11.4621  -16.9260   21.1929 O   0  0  0  0  0  0  0  0  0  0  0  0
    9.3038  -14.6975   23.9762 C   0  0  0  0  0  0  0  0  0  0  0  0
   10.2820  -15.5944   23.2128 C   0  0  2  0  0  0  0  0  0  0  0  0
    9.5077  -16.2651   22.1906 N   0  0  0  0  0  0  0  0  0  0  0  0
   10.8064  -16.5659   24.2190 C   0  0  0  0  0  0  0  0  0  0  0  0
   11.8070  -16.1280   25.0657 O   0  0  0  0  0  0  0  0  0  0  0  0
   10.3932  -17.7254   24.3276 O   0  0  0  0  0  0  0  0  0  0  0  0
  2  1  1  6
  3  2  1  0
  4  3  1  0
  5  4  2  0
  6  5  1  0
  7  6  1  0
  7  8  2  0
  8  4  1  0
  9  2  1  0
 10  9  2  0
 12 11  1  6
 12 13  1  0
 14 15  1  6
 14 12  1  0
 15  9  1  0
 16 14  1  0
 17 16  2  0
 19 18  1  1
 19 20  1  0
 20 16  1  0
 21 22  1  0
 21 19  1  0
 23 21  2  0
M  END
$$$$
