CKM.pdb
     RDKit          3D

 24 23  0  0  1  0  0  0  0  0999 V2000
    7.7880  -14.4829   17.7726 N   0  0  0  0  0  0  0  0  0  0  0  0
    8.7422  -14.1750   18.8312 C   0  0  1  0  0  0  0  0  0  0  0  0
    8.6850  -12.7148   19.1863 C   0  0  0  0  0  0  0  0  0  0  0  0
    9.7159  -11.8291   17.9801 S   0  0  0  0  0  0  0  0  0  0  0  0
    8.3647  -15.0453   19.9982 C   0  0  0  0  0  0  0  0  0  0  0  0
    7.1443  -14.9460   20.3704 O   0  0  0  0  0  0  0  0  0  0  0  0
    9.2713  -15.9005   20.6341 N   0  0  0  0  0  0  0  0  0  0  0  0
    8.8595  -16.6047   21.8409 C   0  0  1  0  0  0  0  0  0  0  0  0
    9.3596  -18.0074   21.8265 C   0  0  0  0  0  0  0  0  0  0  0  0
    8.7322  -18.8242   20.7422 C   0  0  0  0  0  0  0  0  0  0  0  0
    7.6584  -19.7422   21.3469 C   0  0  0  0  0  0  0  0  0  0  0  0
    7.0486  -20.5126   20.1962 C   0  0  0  0  0  0  0  0  0  0  0  0
    5.9377  -21.2787   20.7276 N   0  0  0  0  0  0  0  0  0  0  0  0
    9.2678  -15.8989   23.0464 C   0  0  0  0  0  0  0  0  0  0  0  0
   10.4582  -15.7404   23.3456 O   0  0  0  0  0  0  0  0  0  0  0  0
    5.2275  -12.1739   27.9689 C   0  0  0  0  0  0  0  0  0  0  0  0
    6.2829  -11.5756   26.6065 S   0  0  0  0  0  0  0  0  0  0  0  0
    7.6898  -12.7337   26.4717 C   0  0  0  0  0  0  0  0  0  0  0  0
    7.5312  -13.5000   25.1847 C   0  0  0  0  0  0  0  0  0  0  0  0
    8.5932  -14.5427   25.0837 C   0  0  2  0  0  0  0  0  0  0  0  0
    8.2544  -15.3702   23.9159 N   0  0  0  0  0  0  0  0  0  0  0  0
    8.7065  -15.4450   26.2414 C   0  0  0  0  0  0  0  0  0  0  0  0
    9.4556  -15.1859   27.3646 O   0  0  0  0  0  0  0  0  0  0  0  0
    8.0838  -16.5601   26.2482 O   0  0  0  0  0  0  0  0  0  0  0  0
  2  1  1  6
  3  2  1  0
  4  3  1  0
  5  6  2  0
  5  2  1  0
  7  5  1  0
  8  7  1  0
  8  9  1  1
  9 10  1  0
 11 10  1  0
 12 11  1  0
 12 13  1  0
 14  8  1  0
 15 14  2  0
 17 16  1  0
 18 17  1  0
 19 18  1  0
 20 19  1  1
 20 22  1  0
 20 21  1  0
 21 14  1  0
 22 23  1  0
 24 22  2  0
M  END
$$$$
