CKM.pdb
     RDKit          3D

 24 23  0  0  1  0  0  0  0  0999 V2000
    7.7667  -12.9468   18.8641 N   0  0  0  0  0  0  0  0  0  0  0  0
    8.4089  -14.2492   18.9956 C   0  0  1  0  0  0  0  0  0  0  0  0
    9.9055  -14.1066   18.9605 C   0  0  0  0  0  0  0  0  0  0  0  0
   10.3625  -12.9291   20.2670 S   0  0  0  0  0  0  0  0  0  0  0  0
    7.9358  -14.8164   20.3057 C   0  0  0  0  0  0  0  0  0  0  0  0
    7.3591  -13.9754   21.0788 O   0  0  0  0  0  0  0  0  0  0  0  0
    8.1088  -16.1587   20.6603 N   0  0  0  0  0  0  0  0  0  0  0  0
    7.6041  -16.6269   21.9440 C   0  0  1  0  0  0  0  0  0  0  0  0
    7.5757  -18.1153   21.9856 C   0  0  0  0  0  0  0  0  0  0  0  0
    7.0998  -18.6390   23.3031 C   0  0  0  0  0  0  0  0  0  0  0  0
    7.0052  -20.1715   23.2426 C   0  0  0  0  0  0  0  0  0  0  0  0
    6.5590  -20.6327   24.6129 C   0  0  0  0  0  0  0  0  0  0  0  0
    6.4367  -22.0771   24.5657 N   0  0  0  0  0  0  0  0  0  0  0  0
    8.3572  -16.0705   23.0582 C   0  0  0  0  0  0  0  0  0  0  0  0
    9.5925  -15.9961   23.0464 O   0  0  0  0  0  0  0  0  0  0  0  0
    5.8104  -11.4550   26.3243 C   0  0  0  0  0  0  0  0  0  0  0  0
    6.7273  -12.1039   27.7617 S   0  0  0  0  0  0  0  0  0  0  0  0
    7.9507  -13.2998   27.1201 C   0  0  0  0  0  0  0  0  0  0  0  0
    7.3519  -13.9621   25.9070 C   0  0  0  0  0  0  0  0  0  0  0  0
    8.3289  -14.9274   25.3247 C   0  0  2  0  0  0  0  0  0  0  0  0
    7.6412  -15.5931   24.2080 N   0  0  0  0  0  0  0  0  0  0  0  0
    8.7996  -15.9807   26.2391 C   0  0  0  0  0  0  0  0  0  0  0  0
    9.8483  -15.8429   27.1173 O   0  0  0  0  0  0  0  0  0  0  0  0
    8.2250  -17.1213   26.2528 O   0  0  0  0  0  0  0  0  0  0  0  0
  2  1  1  1
  3  2  1  0
  4  3  1  0
  5  6  2  0
  5  2  1  0
  7  5  1  0
  8  7  1  0
  8  9  1  6
  9 10  1  0
 11 10  1  0
 12 11  1  0
 12 13  1  0
 14  8  1  0
 15 14  2  0
 17 16  1  0
 18 17  1  0
 19 18  1  0
 20 19  1  1
 20 22  1  0
 20 21  1  0
 21 14  1  0
 22 23  1  0
 24 22  2  0
M  END
$$$$
