CKM.pdb
     RDKit          3D

 24 23  0  0  1  0  0  0  0  0999 V2000
    7.7432  -14.8839   17.5600 N   0  0  0  0  0  0  0  0  0  0  0  0
    8.4004  -14.2635   18.7042 C   0  0  1  0  0  0  0  0  0  0  0  0
    7.7613  -12.9414   19.0281 C   0  0  0  0  0  0  0  0  0  0  0  0
    8.7267  -12.1950   20.3747 S   0  0  0  0  0  0  0  0  0  0  0  0
    8.2653  -15.2388   19.8412 C   0  0  0  0  0  0  0  0  0  0  0  0
    7.0644  -15.5926   20.1063 O   0  0  0  0  0  0  0  0  0  0  0  0
    9.3625  -15.7267   20.5593 N   0  0  0  0  0  0  0  0  0  0  0  0
    9.1341  -16.6030   21.7003 C   0  0  1  0  0  0  0  0  0  0  0  0
    9.8873  -17.8779   21.5419 C   0  0  0  0  0  0  0  0  0  0  0  0
    9.6600  -18.8187   22.6820 C   0  0  0  0  0  0  0  0  0  0  0  0
   10.4413  -20.1192   22.4381 C   0  0  0  0  0  0  0  0  0  0  0  0
   10.0957  -21.0528   23.5777 C   0  0  0  0  0  0  0  0  0  0  0  0
   10.9477  -22.2202   23.4555 N   0  0  0  0  0  0  0  0  0  0  0  0
    9.4463  -15.9450   22.9603 C   0  0  0  0  0  0  0  0  0  0  0  0
   10.6037  -15.6406   23.2753 O   0  0  0  0  0  0  0  0  0  0  0  0
    6.2578  -10.5321   26.8380 C   0  0  0  0  0  0  0  0  0  0  0  0
    5.9494  -12.2726   26.3867 S   0  0  0  0  0  0  0  0  0  0  0  0
    7.5515  -12.9829   25.8697 C   0  0  0  0  0  0  0  0  0  0  0  0
    7.3492  -14.4594   25.6509 C   0  0  0  0  0  0  0  0  0  0  0  0
    8.6282  -15.0835   25.2038 C   0  0  2  0  0  0  0  0  0  0  0  0
    8.3744  -15.6403   23.8664 N   0  0  0  0  0  0  0  0  0  0  0  0
    9.1254  -16.1822   26.0482 C   0  0  0  0  0  0  0  0  0  0  0  0
    8.8699  -17.5149   25.8283 O   0  0  0  0  0  0  0  0  0  0  0  0
    9.8487  -15.9284   27.0699 O   0  0  0  0  0  0  0  0  0  0  0  0
  2  1  1  6
  3  2  1  0
  4  3  1  0
  5  6  2  0
  5  2  1  0
  7  5  1  0
  8  7  1  0
  8  9  1  6
  9 10  1  0
 11 10  1  0
 12 11  1  0
 12 13  1  0
 14  8  1  0
 15 14  2  0
 17 16  1  0
 18 17  1  0
 19 18  1  0
 20 19  1  1
 20 22  1  0
 20 21  1  0
 21 14  1  0
 22 23  1  0
 24 22  2  0
M  END
$$$$
