CKM.pdb
     RDKit          3D

 24 23  0  0  1  0  0  0  0  0999 V2000
    7.7245  -14.5016   17.8262 N   0  0  0  0  0  0  0  0  0  0  0  0
    8.5997  -14.0977   18.9202 C   0  0  1  0  0  0  0  0  0  0  0  0
    8.2939  -12.6894   19.3497 C   0  0  0  0  0  0  0  0  0  0  0  0
    9.1649  -11.5788   18.2051 S   0  0  0  0  0  0  0  0  0  0  0  0
    8.3584  -15.0819   20.0316 C   0  0  0  0  0  0  0  0  0  0  0  0
    7.1751  -15.0633   20.5187 O   0  0  0  0  0  0  0  0  0  0  0  0
    9.3455  -15.9541   20.5031 N   0  0  0  0  0  0  0  0  0  0  0  0
    9.0892  -16.7370   21.7045 C   0  0  1  0  0  0  0  0  0  0  0  0
    9.8137  -18.0369   21.6483 C   0  0  0  0  0  0  0  0  0  0  0  0
    9.1753  -19.0039   20.7029 C   0  0  0  0  0  0  0  0  0  0  0  0
    9.9105  -20.3515   20.7726 C   0  0  0  0  0  0  0  0  0  0  0  0
    9.1481  -21.3078   19.8816 C   0  0  0  0  0  0  0  0  0  0  0  0
    9.8383  -22.5828   19.9231 N   0  0  0  0  0  0  0  0  0  0  0  0
    9.4083  -15.9936   22.9143 C   0  0  0  0  0  0  0  0  0  0  0  0
   10.5095  -15.4553   23.0854 O   0  0  0  0  0  0  0  0  0  0  0  0
    6.4232  -10.8723   27.7405 C   0  0  0  0  0  0  0  0  0  0  0  0
    6.1438  -12.0851   26.4066 S   0  0  0  0  0  0  0  0  0  0  0  0
    7.5900  -13.2016   26.3875 C   0  0  0  0  0  0  0  0  0  0  0  0
    7.4440  -14.1207   25.2031 C   0  0  0  0  0  0  0  0  0  0  0  0
    8.6164  -15.0401   25.1299 C   0  0  2  0  0  0  0  0  0  0  0  0
    8.4111  -15.8826   23.9419 N   0  0  0  0  0  0  0  0  0  0  0  0
    8.7870  -15.9412   26.2814 C   0  0  0  0  0  0  0  0  0  0  0  0
    9.3252  -15.5713   27.4911 O   0  0  0  0  0  0  0  0  0  0  0  0
    8.4251  -17.1633   26.1980 O   0  0  0  0  0  0  0  0  0  0  0  0
  2  1  1  6
  3  2  1  0
  4  3  1  0
  5  6  2  0
  5  2  1  0
  7  5  1  0
  8  7  1  0
  8  9  1  6
  9 10  1  0
 11 10  1  0
 12 11  1  0
 12 13  1  0
 14  8  1  0
 15 14  2  0
 17 16  1  0
 18 17  1  0
 19 18  1  0
 20 19  1  1
 20 22  1  0
 20 21  1  0
 21 14  1  0
 22 23  1  0
 24 22  2  0
M  END
$$$$
