CKM.pdb
     RDKit          3D

 24 23  0  0  1  0  0  0  0  0999 V2000
    5.6801  -14.1503   26.0085 N   0  0  0  0  0  0  0  0  0  0  0  0
    6.3120  -13.7965   24.7430 C   0  0  1  0  0  0  0  0  0  0  0  0
    6.8779  -12.4047   24.8056 C   0  0  0  0  0  0  0  0  0  0  0  0
    7.8209  -12.2786   26.3539 S   0  0  0  0  0  0  0  0  0  0  0  0
    7.3868  -14.8230   24.5129 C   0  0  0  0  0  0  0  0  0  0  0  0
    7.7971  -15.4179   25.5691 O   0  0  0  0  0  0  0  0  0  0  0  0
    7.9042  -15.1117   23.2455 N   0  0  0  0  0  0  0  0  0  0  0  0
    8.9109  -16.1556   23.1082 C   0  0  1  0  0  0  0  0  0  0  0  0
    9.1715  -16.4477   21.6713 C   0  0  0  0  0  0  0  0  0  0  0  0
    8.0173  -17.1322   21.0112 C   0  0  0  0  0  0  0  0  0  0  0  0
    8.3808  -17.4627   19.5552 C   0  0  0  0  0  0  0  0  0  0  0  0
    7.1313  -18.0253   18.9134 C   0  0  0  0  0  0  0  0  0  0  0  0
    7.4855  -18.4480   17.5720 N   0  0  0  0  0  0  0  0  0  0  0  0
   10.1353  -15.8252   23.8221 C   0  0  0  0  0  0  0  0  0  0  0  0
   10.7212  -14.7471   23.6609 O   0  0  0  0  0  0  0  0  0  0  0  0
    9.4904  -13.7180   29.4882 C   0  0  0  0  0  0  0  0  0  0  0  0
   10.3665  -15.2706   29.1010 S   0  0  0  0  0  0  0  0  0  0  0  0
   10.8472  -15.1885   27.3401 C   0  0  0  0  0  0  0  0  0  0  0  0
   11.4567  -16.5150   26.9690 C   0  0  0  0  0  0  0  0  0  0  0  0
   11.8818  -16.4930   25.5393 C   0  0  2  0  0  0  0  0  0  0  0  0
   10.6798  -16.7834   24.7431 N   0  0  0  0  0  0  0  0  0  0  0  0
   12.9034  -17.4855   25.1674 C   0  0  0  0  0  0  0  0  0  0  0  0
   14.2489  -17.3545   25.4173 O   0  0  0  0  0  0  0  0  0  0  0  0
   12.5639  -18.5605   24.5669 O   0  0  0  0  0  0  0  0  0  0  0  0
  2  1  1  1
  3  2  1  0
  4  3  1  0
  5  6  2  0
  5  2  1  0
  7  5  1  0
  8  7  1  0
  8  9  1  6
  9 10  1  0
 11 10  1  0
 12 11  1  0
 12 13  1  0
 14  8  1  0
 15 14  2  0
 17 16  1  0
 18 17  1  0
 19 18  1  0
 20 19  1  1
 20 22  1  0
 20 21  1  0
 21 14  1  0
 22 23  1  0
 24 22  2  0
M  END
$$$$
