CKM.pdb
     RDKit          3D

 24 23  0  0  1  0  0  0  0  0999 V2000
    7.6059  -14.7633   17.9151 N   0  0  0  0  0  0  0  0  0  0  0  0
    8.3894  -14.3812   19.0838 C   0  0  1  0  0  0  0  0  0  0  0  0
    8.3355  -12.8931   19.2930 C   0  0  0  0  0  0  0  0  0  0  0  0
    9.9382  -12.2191   18.7644 S   0  0  0  0  0  0  0  0  0  0  0  0
    7.7941  -15.1272   20.2462 C   0  0  0  0  0  0  0  0  0  0  0  0
    6.6248  -14.7389   20.5922 O   0  0  0  0  0  0  0  0  0  0  0  0
    8.4602  -16.1665   20.9046 N   0  0  0  0  0  0  0  0  0  0  0  0
    7.8847  -16.7230   22.1217 C   0  0  1  0  0  0  0  0  0  0  0  0
    8.0183  -18.2061   22.1349 C   0  0  0  0  0  0  0  0  0  0  0  0
    7.5192  -18.8112   23.4082 C   0  0  0  0  0  0  0  0  0  0  0  0
    7.7781  -20.3258   23.3929 C   0  0  0  0  0  0  0  0  0  0  0  0
    7.1411  -20.8872   24.6455 C   0  0  0  0  0  0  0  0  0  0  0  0
    7.3539  -22.3218   24.6346 N   0  0  0  0  0  0  0  0  0  0  0  0
    8.4557  -16.1193   23.3165 C   0  0  0  0  0  0  0  0  0  0  0  0
    9.6757  -16.0938   23.5229 O   0  0  0  0  0  0  0  0  0  0  0  0
    6.4492  -10.5544   25.6998 C   0  0  0  0  0  0  0  0  0  0  0  0
    6.3726  -11.5779   27.2080 S   0  0  0  0  0  0  0  0  0  0  0  0
    7.5416  -12.9626   26.9745 C   0  0  0  0  0  0  0  0  0  0  0  0
    7.1005  -13.7351   25.7590 C   0  0  0  0  0  0  0  0  0  0  0  0
    8.0842  -14.8169   25.4638 C   0  0  2  0  0  0  0  0  0  0  0  0
    7.5724  -15.5350   24.2867 N   0  0  0  0  0  0  0  0  0  0  0  0
    8.2734  -15.8098   26.5341 C   0  0  0  0  0  0  0  0  0  0  0  0
    9.2145  -15.7149   27.5317 O   0  0  0  0  0  0  0  0  0  0  0  0
    7.5351  -16.8510   26.5801 O   0  0  0  0  0  0  0  0  0  0  0  0
  2  1  1  6
  3  2  1  0
  4  3  1  0
  5  6  2  0
  5  2  1  0
  7  5  1  0
  8  7  1  0
  8  9  1  1
  9 10  1  0
 11 10  1  0
 12 11  1  0
 12 13  1  0
 14  8  1  0
 15 14  2  0
 17 16  1  0
 18 17  1  0
 19 18  1  0
 20 19  1  1
 20 22  1  0
 20 21  1  0
 21 14  1  0
 22 23  1  0
 24 22  2  0
M  END
$$$$
