NEN.pdb
     RDKit          3D

 26 25  0  0  1  0  0  0  0  0999 V2000
    8.2918  -15.8581   12.2284 N   0  0  0  0  0  0  0  0  0  0  0  0
    7.3658  -15.1627   13.0532 C   0  0  0  0  0  0  0  0  0  0  0  0
    6.4707  -14.4863   12.4610 O   0  0  0  0  0  0  0  0  0  0  0  0
    7.4362  -15.2200   14.5407 C   0  0  0  0  0  0  0  0  0  0  0  0
    8.6138  -16.0182   14.9621 C   0  0  2  0  0  0  0  0  0  0  0  0
    8.5079  -17.3282   14.3031 N   0  0  0  0  0  0  0  0  0  0  0  0
    8.7885  -16.1864   16.4230 C   0  0  0  0  0  0  0  0  0  0  0  0
    8.7591  -15.1536   17.1284 O   0  0  0  0  0  0  0  0  0  0  0  0
    8.9814  -17.4458   17.0398 N   0  0  0  0  0  0  0  0  0  0  0  0
    9.3272  -17.7087   18.4003 C   0  0  1  0  0  0  0  0  0  0  0  0
    9.3324  -19.1718   18.8007 C   0  0  0  0  0  0  0  0  0  0  0  0
    9.7143  -19.4238   20.2235 C   0  0  0  0  0  0  0  0  0  0  0  0
    9.5515  -20.8849   20.4579 C   0  0  0  0  0  0  0  0  0  0  0  0
   10.5481  -21.6202   20.2135 O   0  0  0  0  0  0  0  0  0  0  0  0
   10.5863  -17.0917   18.7900 C   0  0  0  0  0  0  0  0  0  0  0  0
   11.5901  -17.2929   18.0223 O   0  0  0  0  0  0  0  0  0  0  0  0
    8.3806  -21.4302   20.9185 O   0  0  0  0  0  0  0  0  0  0  0  0
   10.4816  -12.7894   18.8875 N   0  0  0  0  0  0  0  0  0  0  0  0
   11.6736  -13.5002   19.1260 C   0  0  0  0  0  0  0  0  0  0  0  0
   12.6245  -13.5381   18.2868 O   0  0  0  0  0  0  0  0  0  0  0  0
   11.8636  -14.2332   20.3740 C   0  0  0  0  0  0  0  0  0  0  0  0
   12.1219  -15.6973   20.2491 C   0  0  2  0  0  0  0  0  0  0  0  0
   10.8141  -16.2984   19.9215 N   0  0  0  0  0  0  0  0  0  0  0  0
   12.5883  -16.3592   21.4761 C   0  0  0  0  0  0  0  0  0  0  0  0
   13.7060  -16.1324   21.9709 O   0  0  0  0  0  0  0  0  0  0  0  0
   11.7733  -17.2700   22.1207 O   0  0  0  0  0  0  0  0  0  0  0  0
  2  1  1  0
  2  3  2  0
  4  2  1  0
  5  4  1  0
  5  7  1  0
  5  6  1  6
  7  8  2  0
  9  7  1  0
  9 10  1  0
 10 11  1  6
 11 12  1  0
 12 13  1  0
 13 17  1  0
 14 13  2  0
 15 10  1  0
 15 16  2  0
 18 19  1  0
 19 21  1  0
 20 19  2  0
 22 21  1  1
 22 23  1  0
 23 15  1  0
 24 26  1  0
 24 22  1  0
 25 24  2  0
M  END
$$$$
