NEN.pdb
     RDKit          3D

 26 25  0  0  1  0  0  0  0  0999 V2000
   15.6493  -18.0059   14.6697 N   0  0  0  0  0  0  0  0  0  0  0  0
   15.1350  -16.6808   14.6408 C   0  0  0  0  0  0  0  0  0  0  0  0
   15.6809  -15.8747   13.8274 O   0  0  0  0  0  0  0  0  0  0  0  0
   14.0105  -16.2515   15.5196 C   0  0  0  0  0  0  0  0  0  0  0  0
   13.5697  -17.3854   16.3691 C   0  0  2  0  0  0  0  0  0  0  0  0
   12.7589  -18.2722   15.5219 N   0  0  0  0  0  0  0  0  0  0  0  0
   12.8257  -17.0195   17.5961 C   0  0  0  0  0  0  0  0  0  0  0  0
   13.1609  -15.9645   18.1790 O   0  0  0  0  0  0  0  0  0  0  0  0
   11.7696  -17.8009   18.1232 N   0  0  0  0  0  0  0  0  0  0  0  0
   11.0442  -17.5865   19.3347 C   0  0  1  0  0  0  0  0  0  0  0  0
    9.7579  -18.3784   19.4733 C   0  0  0  0  0  0  0  0  0  0  0  0
    8.7173  -18.0545   18.4505 C   0  0  0  0  0  0  0  0  0  0  0  0
    7.5525  -18.9383   18.7304 C   0  0  0  0  0  0  0  0  0  0  0  0
    7.6920  -20.1680   18.4815 O   0  0  0  0  0  0  0  0  0  0  0  0
   11.8640  -17.7756   20.5221 C   0  0  0  0  0  0  0  0  0  0  0  0
   12.3896  -18.9312   20.6831 O   0  0  0  0  0  0  0  0  0  0  0  0
    6.3709  -18.4602   19.2362 O   0  0  0  0  0  0  0  0  0  0  0  0
   15.5627  -15.2949   24.1811 N   0  0  0  0  0  0  0  0  0  0  0  0
   15.3349  -16.4271   23.3756 C   0  0  0  0  0  0  0  0  0  0  0  0
   15.9946  -17.5027   23.5087 O   0  0  0  0  0  0  0  0  0  0  0  0
   14.3090  -16.4050   22.3373 C   0  0  0  0  0  0  0  0  0  0  0  0
   13.0170  -17.0732   22.6689 C   0  0  2  0  0  0  0  0  0  0  0  0
   12.1379  -16.8214   21.5100 N   0  0  0  0  0  0  0  0  0  0  0  0
   12.3174  -16.5376   23.8457 C   0  0  0  0  0  0  0  0  0  0  0  0
   11.3069  -15.8198   23.7498 O   0  0  0  0  0  0  0  0  0  0  0  0
   12.7805  -16.8284   25.1147 O   0  0  0  0  0  0  0  0  0  0  0  0
  2  1  1  0
  2  3  2  0
  4  2  1  0
  5  4  1  0
  5  7  1  0
  5  6  1  6
  7  8  2  0
  9  7  1  0
  9 10  1  0
 10 11  1  1
 11 12  1  0
 12 13  1  0
 13 17  1  0
 14 13  2  0
 15 10  1  0
 15 16  2  0
 18 19  1  0
 19 21  1  0
 20 19  2  0
 22 21  1  6
 22 23  1  0
 23 15  1  0
 24 26  1  0
 24 22  1  0
 25 24  2  0
M  END
$$$$
