NEN.pdb
     RDKit          3D

 26 25  0  0  1  0  0  0  0  0999 V2000
    6.5940  -12.3661   17.8408 N   0  0  0  0  0  0  0  0  0  0  0  0
    6.8269  -13.5262   17.0525 C   0  0  0  0  0  0  0  0  0  0  0  0
    6.0242  -13.7338   16.0923 O   0  0  0  0  0  0  0  0  0  0  0  0
    7.9558  -14.4576   17.3336 C   0  0  0  0  0  0  0  0  0  0  0  0
    8.6323  -14.0680   18.5954 C   0  0  2  0  0  0  0  0  0  0  0  0
    8.9820  -12.6448   18.4783 N   0  0  0  0  0  0  0  0  0  0  0  0
    9.8256  -14.8659   18.9592 C   0  0  0  0  0  0  0  0  0  0  0  0
    9.6384  -16.0495   19.3188 O   0  0  0  0  0  0  0  0  0  0  0  0
   11.1437  -14.3518   18.9146 N   0  0  0  0  0  0  0  0  0  0  0  0
   12.3576  -15.0293   19.2424 C   0  0  1  0  0  0  0  0  0  0  0  0
   13.6079  -14.4852   18.5778 C   0  0  0  0  0  0  0  0  0  0  0  0
   14.8592  -15.2346   18.9037 C   0  0  0  0  0  0  0  0  0  0  0  0
   15.9631  -14.5684   18.1594 C   0  0  0  0  0  0  0  0  0  0  0  0
   16.7074  -13.7870   18.8143 O   0  0  0  0  0  0  0  0  0  0  0  0
   12.5738  -15.1334   20.6777 C   0  0  0  0  0  0  0  0  0  0  0  0
   12.6135  -14.0372   21.3369 O   0  0  0  0  0  0  0  0  0  0  0  0
   16.1808  -14.7792   16.8219 O   0  0  0  0  0  0  0  0  0  0  0  0
   11.1745  -17.5614   25.6919 N   0  0  0  0  0  0  0  0  0  0  0  0
   12.2022  -17.8262   24.7665 C   0  0  0  0  0  0  0  0  0  0  0  0
   13.2874  -18.3948   25.0967 O   0  0  0  0  0  0  0  0  0  0  0  0
   12.0531  -17.4501   23.3639 C   0  0  0  0  0  0  0  0  0  0  0  0
   12.9264  -16.3419   22.8792 C   0  0  2  0  0  0  0  0  0  0  0  0
   12.7436  -16.3121   21.4147 N   0  0  0  0  0  0  0  0  0  0  0  0
   14.3655  -16.5279   23.1151 C   0  0  0  0  0  0  0  0  0  0  0  0
   15.0959  -17.1446   22.3203 O   0  0  0  0  0  0  0  0  0  0  0  0
   14.9504  -16.0078   24.2538 O   0  0  0  0  0  0  0  0  0  0  0  0
  2  1  1  0
  2  3  2  0
  4  2  1  0
  5  4  1  0
  5  7  1  0
  5  6  1  6
  7  8  2  0
  9  7  1  0
  9 10  1  0
 10 11  1  6
 11 12  1  0
 12 13  1  0
 13 17  1  0
 14 13  2  0
 15 10  1  0
 15 16  2  0
 18 19  1  0
 19 21  1  0
 20 19  2  0
 22 21  1  6
 22 23  1  0
 23 15  1  0
 24 26  1  0
 24 22  1  0
 25 24  2  0
M  END
$$$$
