NEN.pdb
     RDKit          3D

 26 25  0  0  1  0  0  0  0  0999 V2000
    7.1191  -12.4892   17.1298 N   0  0  0  0  0  0  0  0  0  0  0  0
    7.0151  -13.0476   18.4331 C   0  0  0  0  0  0  0  0  0  0  0  0
    5.9912  -12.7279   19.1105 O   0  0  0  0  0  0  0  0  0  0  0  0
    8.0533  -13.9639   18.9841 C   0  0  0  0  0  0  0  0  0  0  0  0
    9.1321  -14.1664   17.9858 C   0  0  2  0  0  0  0  0  0  0  0  0
    8.5192  -14.7959   16.8070 N   0  0  0  0  0  0  0  0  0  0  0  0
   10.2967  -14.9562   18.4474 C   0  0  0  0  0  0  0  0  0  0  0  0
   10.1293  -16.1850   18.6125 O   0  0  0  0  0  0  0  0  0  0  0  0
   11.5670  -14.3859   18.7020 N   0  0  0  0  0  0  0  0  0  0  0  0
   12.7201  -15.0286   19.2471 C   0  0  1  0  0  0  0  0  0  0  0  0
   14.0428  -14.3403   18.9689 C   0  0  0  0  0  0  0  0  0  0  0  0
   15.2385  -15.0509   19.5158 C   0  0  0  0  0  0  0  0  0  0  0  0
   16.4309  -14.2583   19.1082 C   0  0  0  0  0  0  0  0  0  0  0  0
   16.4848  -13.8797   17.9051 O   0  0  0  0  0  0  0  0  0  0  0  0
   12.5967  -15.2904   20.6733 C   0  0  0  0  0  0  0  0  0  0  0  0
   12.2275  -14.3117   21.4104 O   0  0  0  0  0  0  0  0  0  0  0  0
   17.4382  -13.9416   19.9833 O   0  0  0  0  0  0  0  0  0  0  0  0
    9.2412  -17.6177   23.8801 N   0  0  0  0  0  0  0  0  0  0  0  0
   10.6268  -17.4200   24.0347 C   0  0  0  0  0  0  0  0  0  0  0  0
   11.1428  -17.0334   25.1275 O   0  0  0  0  0  0  0  0  0  0  0  0
   11.5395  -17.6591   22.9207 C   0  0  0  0  0  0  0  0  0  0  0  0
   12.6753  -16.7024   22.7784 C   0  0  2  0  0  0  0  0  0  0  0  0
   12.8410  -16.5058   21.3248 N   0  0  0  0  0  0  0  0  0  0  0  0
   13.9691  -17.1847   23.2831 C   0  0  0  0  0  0  0  0  0  0  0  0
   14.8474  -17.6430   22.5321 O   0  0  0  0  0  0  0  0  0  0  0  0
   14.2422  -17.1372   24.6368 O   0  0  0  0  0  0  0  0  0  0  0  0
  2  1  1  0
  2  3  2  0
  4  2  1  0
  5  4  1  0
  5  7  1  0
  5  6  1  6
  7  8  2  0
  9  7  1  0
  9 10  1  0
 10 11  1  1
 11 12  1  0
 12 13  1  0
 13 17  1  0
 14 13  2  0
 15 10  1  0
 15 16  2  0
 18 19  1  0
 19 21  1  0
 20 19  2  0
 22 21  1  6
 22 23  1  0
 23 15  1  0
 24 26  1  0
 24 22  1  0
 25 24  2  0
M  END
$$$$
