NEN.pdb
     RDKit          3D

 26 25  0  0  1  0  0  0  0  0999 V2000
    6.4507  -13.0580   20.2208 N   0  0  0  0  0  0  0  0  0  0  0  0
    7.2614  -13.5320   19.1534 C   0  0  0  0  0  0  0  0  0  0  0  0
    7.0006  -14.6921   18.7110 O   0  0  0  0  0  0  0  0  0  0  0  0
    8.3652  -12.7132   18.5771 C   0  0  0  0  0  0  0  0  0  0  0  0
    9.5596  -13.5628   18.3467 C   0  0  2  0  0  0  0  0  0  0  0  0
    9.1772  -14.5924   17.3694 N   0  0  0  0  0  0  0  0  0  0  0  0
   10.1478  -14.1878   19.5536 C   0  0  0  0  0  0  0  0  0  0  0  0
   10.8355  -13.4582   20.3020 O   0  0  0  0  0  0  0  0  0  0  0  0
    9.9638  -15.5510   19.8873 N   0  0  0  0  0  0  0  0  0  0  0  0
   10.5773  -16.2809   20.9506 C   0  0  1  0  0  0  0  0  0  0  0  0
   10.0112  -17.6654   21.2027 C   0  0  0  0  0  0  0  0  0  0  0  0
    9.8115  -18.4872   19.9704 C   0  0  0  0  0  0  0  0  0  0  0  0
    9.2036  -19.7738   20.4079 C   0  0  0  0  0  0  0  0  0  0  0  0
    8.1752  -19.7044   21.1369 O   0  0  0  0  0  0  0  0  0  0  0  0
   12.0240  -16.3624   20.8155 C   0  0  0  0  0  0  0  0  0  0  0  0
   12.4744  -16.9700   19.7832 O   0  0  0  0  0  0  0  0  0  0  0  0
    9.7202  -20.9919   20.0474 O   0  0  0  0  0  0  0  0  0  0  0  0
   14.7811  -13.5815   18.6442 N   0  0  0  0  0  0  0  0  0  0  0  0
   15.3969  -14.2870   19.6957 C   0  0  0  0  0  0  0  0  0  0  0  0
   16.5419  -14.8213   19.5799 O   0  0  0  0  0  0  0  0  0  0  0  0
   14.7275  -14.4310   20.9849 C   0  0  0  0  0  0  0  0  0  0  0  0
   14.4269  -15.8252   21.4227 C   0  0  2  0  0  0  0  0  0  0  0  0
   12.9773  -15.8437   21.7007 N   0  0  0  0  0  0  0  0  0  0  0  0
   15.0936  -16.2515   22.6617 C   0  0  0  0  0  0  0  0  0  0  0  0
   16.3286  -16.3637   22.7482 O   0  0  0  0  0  0  0  0  0  0  0  0
   14.3419  -16.5435   23.7838 O   0  0  0  0  0  0  0  0  0  0  0  0
  2  1  1  0
  2  3  2  0
  4  2  1  0
  5  4  1  0
  5  7  1  0
  5  6  1  6
  7  8  2  0
  9  7  1  0
  9 10  1  0
 10 11  1  6
 11 12  1  0
 12 13  1  0
 13 17  1  0
 14 13  2  0
 15 10  1  0
 15 16  2  0
 18 19  1  0
 19 21  1  0
 20 19  2  0
 22 21  1  1
 22 23  1  0
 23 15  1  0
 24 26  1  0
 24 22  1  0
 25 24  2  0
M  END
$$$$
