NEN.pdb
     RDKit          3D

 26 25  0  0  1  0  0  0  0  0999 V2000
    7.9833  -17.5769   19.8163 N   0  0  0  0  0  0  0  0  0  0  0  0
    9.3504  -17.7253   19.4551 C   0  0  0  0  0  0  0  0  0  0  0  0
    9.6017  -17.8671   18.2198 O   0  0  0  0  0  0  0  0  0  0  0  0
   10.4404  -17.7161   20.4713 C   0  0  0  0  0  0  0  0  0  0  0  0
    9.8671  -17.5367   21.8281 C   0  0  2  0  0  0  0  0  0  0  0  0
    9.3396  -16.1662   21.8980 N   0  0  0  0  0  0  0  0  0  0  0  0
   10.7909  -17.7939   22.9566 C   0  0  0  0  0  0  0  0  0  0  0  0
   10.4289  -18.6260   23.8180 O   0  0  0  0  0  0  0  0  0  0  0  0
   12.0434  -17.1490   23.0944 N   0  0  0  0  0  0  0  0  0  0  0  0
   13.0119  -17.3326   24.1278 C   0  0  1  0  0  0  0  0  0  0  0  0
   14.3938  -16.7818   23.8316 C   0  0  0  0  0  0  0  0  0  0  0  0
   14.3981  -15.4788   23.0996 C   0  0  0  0  0  0  0  0  0  0  0  0
   15.7787  -15.2859   22.5773 C   0  0  0  0  0  0  0  0  0  0  0  0
   16.6237  -14.7743   23.3634 O   0  0  0  0  0  0  0  0  0  0  0  0
   12.5568  -16.8400   25.4193 C   0  0  0  0  0  0  0  0  0  0  0  0
   13.3653  -16.9660   26.4032 O   0  0  0  0  0  0  0  0  0  0  0  0
   16.1395  -15.6406   21.3027 O   0  0  0  0  0  0  0  0  0  0  0  0
    9.8055  -14.2162   29.1619 N   0  0  0  0  0  0  0  0  0  0  0  0
    9.2989  -13.9905   27.8676 C   0  0  0  0  0  0  0  0  0  0  0  0
    8.3510  -13.1789   27.6383 O   0  0  0  0  0  0  0  0  0  0  0  0
    9.8583  -14.6954   26.7183 C   0  0  0  0  0  0  0  0  0  0  0  0
   10.9827  -15.6344   27.0005 C   0  0  2  0  0  0  0  0  0  0  0  0
   11.3221  -16.2407   25.6981 N   0  0  0  0  0  0  0  0  0  0  0  0
   10.6592  -16.7468   27.9056 C   0  0  0  0  0  0  0  0  0  0  0  0
   10.1072  -17.7879   27.5097 O   0  0  0  0  0  0  0  0  0  0  0  0
   10.9701  -16.6555   29.2489 O   0  0  0  0  0  0  0  0  0  0  0  0
  2  1  1  0
  2  3  2  0
  4  2  1  0
  5  4  1  0
  5  7  1  0
  5  6  1  6
  7  8  2  0
  9  7  1  0
  9 10  1  0
 10 11  1  6
 11 12  1  0
 12 13  1  0
 13 17  1  0
 14 13  2  0
 15 10  1  0
 15 16  2  0
 18 19  1  0
 19 21  1  0
 20 19  2  0
 22 21  1  6
 22 23  1  0
 23 15  1  0
 24 26  1  0
 24 22  1  0
 25 24  2  0
M  END
$$$$
