NEN.pdb
     RDKit          3D

 26 25  0  0  1  0  0  0  0  0999 V2000
   16.1162  -14.5184   17.2982 N   0  0  0  0  0  0  0  0  0  0  0  0
   16.0518  -13.8067   18.5273 C   0  0  0  0  0  0  0  0  0  0  0  0
   16.9470  -12.9301   18.7264 O   0  0  0  0  0  0  0  0  0  0  0  0
   14.9885  -14.0712   19.5375 C   0  0  0  0  0  0  0  0  0  0  0  0
   13.8103  -14.6915   18.8828 C   0  0  2  0  0  0  0  0  0  0  0  0
   13.1791  -13.6544   18.0537 N   0  0  0  0  0  0  0  0  0  0  0  0
   12.8152  -15.3028   19.7933 C   0  0  0  0  0  0  0  0  0  0  0  0
   12.0012  -14.5359   20.3541 O   0  0  0  0  0  0  0  0  0  0  0  0
   12.7496  -16.6939   20.0470 N   0  0  0  0  0  0  0  0  0  0  0  0
   11.7924  -17.3928   20.8439 C   0  0  1  0  0  0  0  0  0  0  0  0
   11.2109  -18.6450   20.2157 C   0  0  0  0  0  0  0  0  0  0  0  0
   10.1788  -19.3343   21.0484 C   0  0  0  0  0  0  0  0  0  0  0  0
    9.7877  -20.5671   20.3112 C   0  0  0  0  0  0  0  0  0  0  0  0
   10.4360  -21.6196   20.5677 O   0  0  0  0  0  0  0  0  0  0  0  0
   12.2877  -17.7005   22.1772 C   0  0  0  0  0  0  0  0  0  0  0  0
   13.5528  -17.8463   22.3040 O   0  0  0  0  0  0  0  0  0  0  0  0
    8.7718  -20.5826   19.3901 O   0  0  0  0  0  0  0  0  0  0  0  0
   11.6782  -17.2572   27.9858 N   0  0  0  0  0  0  0  0  0  0  0  0
   11.2416  -18.1920   27.0276 C   0  0  0  0  0  0  0  0  0  0  0  0
   11.0251  -19.4095   27.3118 O   0  0  0  0  0  0  0  0  0  0  0  0
   11.0155  -17.7859   25.6438 C   0  0  0  0  0  0  0  0  0  0  0  0
   12.1003  -18.1113   24.6727 C   0  0  2  0  0  0  0  0  0  0  0  0
   11.5214  -17.8545   23.3393 N   0  0  0  0  0  0  0  0  0  0  0  0
   12.5417  -19.5136   24.6715 C   0  0  0  0  0  0  0  0  0  0  0  0
   13.4908  -19.9132   25.3678 O   0  0  0  0  0  0  0  0  0  0  0  0
   11.8940  -20.4396   23.8761 O   0  0  0  0  0  0  0  0  0  0  0  0
  2  1  1  0
  2  3  2  0
  4  2  1  0
  5  4  1  0
  5  7  1  0
  5  6  1  1
  7  8  2  0
  9  7  1  0
  9 10  1  0
 10 11  1  6
 11 12  1  0
 12 13  1  0
 13 17  1  0
 14 13  2  0
 15 10  1  0
 15 16  2  0
 18 19  1  0
 19 21  1  0
 20 19  2  0
 22 21  1  1
 22 23  1  0
 23 15  1  0
 24 26  1  0
 24 22  1  0
 25 24  2  0
M  END
$$$$
