NEN.pdb
     RDKit          3D

 26 25  0  0  1  0  0  0  0  0999 V2000
    8.5103  -14.4733   16.5189 N   0  0  0  0  0  0  0  0  0  0  0  0
    7.3147  -13.8037   16.8977 C   0  0  0  0  0  0  0  0  0  0  0  0
    6.2892  -14.0196   16.1828 O   0  0  0  0  0  0  0  0  0  0  0  0
    7.2603  -12.8914   18.0749 C   0  0  0  0  0  0  0  0  0  0  0  0
    8.5898  -12.8307   18.7310 C   0  0  2  0  0  0  0  0  0  0  0  0
    9.5602  -12.4175   17.7068 N   0  0  0  0  0  0  0  0  0  0  0  0
    9.0374  -14.0761   19.3956 C   0  0  0  0  0  0  0  0  0  0  0  0
    8.3614  -14.4854   20.3655 O   0  0  0  0  0  0  0  0  0  0  0  0
   10.1767  -14.8076   18.9826 N   0  0  0  0  0  0  0  0  0  0  0  0
   10.7606  -15.9468   19.6159 C   0  0  1  0  0  0  0  0  0  0  0  0
   10.4968  -17.2771   18.9366 C   0  0  0  0  0  0  0  0  0  0  0  0
    9.0766  -17.4913   18.5233 C   0  0  0  0  0  0  0  0  0  0  0  0
    9.0236  -18.8150   17.8442 C   0  0  0  0  0  0  0  0  0  0  0  0
    9.9254  -19.0618   16.9960 O   0  0  0  0  0  0  0  0  0  0  0  0
   12.1890  -15.7915   19.8467 C   0  0  0  0  0  0  0  0  0  0  0  0
   12.8518  -15.1533   18.9573 O   0  0  0  0  0  0  0  0  0  0  0  0
    8.0480  -19.7409   18.1120 O   0  0  0  0  0  0  0  0  0  0  0  0
   16.5038  -13.4877   22.0664 N   0  0  0  0  0  0  0  0  0  0  0  0
   16.0953  -14.3340   21.0178 C   0  0  0  0  0  0  0  0  0  0  0  0
   16.9070  -14.7972   20.1597 O   0  0  0  0  0  0  0  0  0  0  0  0
   14.6941  -14.7190   20.8777 C   0  0  0  0  0  0  0  0  0  0  0  0
   14.3838  -16.1667   21.0607 C   0  0  2  0  0  0  0  0  0  0  0  0
   12.9158  -16.2696   20.9442 N   0  0  0  0  0  0  0  0  0  0  0  0
   14.7369  -16.7230   22.3749 C   0  0  0  0  0  0  0  0  0  0  0  0
   13.8921  -16.9078   23.2680 O   0  0  0  0  0  0  0  0  0  0  0  0
   16.0481  -17.0602   22.6512 O   0  0  0  0  0  0  0  0  0  0  0  0
  2  1  1  0
  2  3  2  0
  4  2  1  0
  5  4  1  0
  5  7  1  0
  5  6  1  6
  7  8  2  0
  9  7  1  0
  9 10  1  0
 10 11  1  6
 11 12  1  0
 12 13  1  0
 13 17  1  0
 14 13  2  0
 15 10  1  0
 15 16  2  0
 18 19  1  0
 19 21  1  0
 20 19  2  0
 22 21  1  1
 22 23  1  0
 23 15  1  0
 24 26  1  0
 24 22  1  0
 25 24  2  0
M  END
$$$$
