SMF.pdb
     RDKit          3D

 26 26  0  0  1  0  0  0  0  0999 V2000
   25.4980  -12.7903  -17.8988 O   0  0  0  0  0  0  0  0  0  0  0  0
   25.1606  -11.5497  -18.3793 C   0  0  0  0  0  0  0  0  0  0  0  0
   23.8667  -11.5018  -19.1263 C   0  0  2  0  0  0  0  0  0  0  0  0
   24.0692  -11.1227  -20.4858 N   0  0  0  0  0  0  0  0  0  0  0  0
   22.8922  -10.6571  -18.4020 C   0  0  0  0  0  0  0  0  0  0  0  0
   22.9271   -9.4185  -18.6386 O   0  0  0  0  0  0  0  0  0  0  0  0
   16.3787   -8.9302  -15.6949 C   0  0  0  0  0  0  0  0  0  0  0  0
   17.7186   -9.7752  -16.5888 S   0  0  0  0  0  0  0  0  0  0  0  0
   18.9325  -10.4115  -15.3607 C   0  0  0  0  0  0  0  0  0  0  0  0
   19.9915  -11.1043  -16.1431 C   0  0  0  0  0  0  0  0  0  0  0  0
   20.9781  -10.1996  -16.8416 C   0  0  2  0  0  0  0  0  0  0  0  0
   21.9443  -11.1291  -17.4826 N   0  0  0  0  0  0  0  0  0  0  0  0
   21.6901   -9.3887  -15.8349 C   0  0  0  0  0  0  0  0  0  0  0  0
   22.6697   -9.9152  -15.2278 O   0  0  0  0  0  0  0  0  0  0  0  0
   21.3560   -8.0636  -15.5063 N   0  0  0  0  0  0  0  0  0  0  0  0
   22.0960   -7.3845  -14.4650 C   0  0  1  0  0  0  0  0  0  0  0  0
   23.4874   -7.1229  -15.0428 C   0  0  0  0  0  0  0  0  0  0  0  0
   23.4467   -6.0697  -16.0727 C   0  0  0  0  0  0  0  0  0  0  0  0
   23.2510   -6.3688  -17.4163 C   0  0  0  0  0  0  0  0  0  0  0  0
   23.1958   -5.3914  -18.3907 C   0  0  0  0  0  0  0  0  0  0  0  0
   23.3418   -4.0674  -18.0068 C   0  0  0  0  0  0  0  0  0  0  0  0
   23.5358   -3.7358  -16.6940 C   0  0  0  0  0  0  0  0  0  0  0  0
   23.5848   -4.7426  -15.7500 C   0  0  0  0  0  0  0  0  0  0  0  0
   21.4244   -6.1260  -14.1037 C   0  0  0  0  0  0  0  0  0  0  0  0
   21.8985   -5.3171  -13.2701 O   0  0  0  0  0  0  0  0  0  0  0  0
   20.1963   -5.7697  -14.6931 O   0  0  0  0  0  0  0  0  0  0  0  0
  1  2  1  0
  2  3  1  0
  3  5  1  0
  3  4  1  6
  5  6  2  0
  7  8  1  0
  8  9  1  0
  9 10  1  0
 11 10  1  1
 11 13  1  0
 12 11  1  0
 12  5  1  0
 13 14  2  0
 15 13  1  0
 15 16  1  0
 16 24  1  0
 16 17  1  6
 18 17  1  0
 18 19  2  0
 20 19  1  0
 21 20  2  0
 22 23  2  0
 22 21  1  0
 23 18  1  0
 24 25  2  0
 24 26  1  0
M  END
$$$$
