SMF.pdb
     RDKit          3D

 26 26  0  0  1  0  0  0  0  0999 V2000
   25.4051  -21.5258  -10.6358 O   0  0  0  0  0  0  0  0  0  0  0  0
   26.1397  -22.1759  -11.5958 C   0  0  0  0  0  0  0  0  0  0  0  0
   27.0007  -21.2842  -12.4313 C   0  0  2  0  0  0  0  0  0  0  0  0
   28.0147  -20.6617  -11.6455 N   0  0  0  0  0  0  0  0  0  0  0  0
   26.1607  -20.3361  -13.1951 C   0  0  0  0  0  0  0  0  0  0  0  0
   26.1985  -19.1271  -12.8369 O   0  0  0  0  0  0  0  0  0  0  0  0
   21.8551  -18.9659  -19.5079 C   0  0  0  0  0  0  0  0  0  0  0  0
   22.7475  -20.0763  -18.3770 S   0  0  0  0  0  0  0  0  0  0  0  0
   23.8722  -19.0651  -17.3287 C   0  0  0  0  0  0  0  0  0  0  0  0
   24.5514  -20.0171  -16.4088 C   0  0  0  0  0  0  0  0  0  0  0  0
   24.4900  -19.6580  -14.9435 C   0  0  2  0  0  0  0  0  0  0  0  0
   25.3356  -20.6812  -14.2752 N   0  0  0  0  0  0  0  0  0  0  0  0
   23.1006  -19.7999  -14.4667 C   0  0  0  0  0  0  0  0  0  0  0  0
   22.6625  -20.9674  -14.2416 O   0  0  0  0  0  0  0  0  0  0  0  0
   22.2280  -18.7217  -14.2399 N   0  0  0  0  0  0  0  0  0  0  0  0
   20.9115  -18.9784  -13.6981 C   0  0  1  0  0  0  0  0  0  0  0  0
   20.8006  -18.1151  -12.4407 C   0  0  0  0  0  0  0  0  0  0  0  0
   19.4515  -18.2002  -11.8540 C   0  0  0  0  0  0  0  0  0  0  0  0
   19.1050  -19.2083  -10.9616 C   0  0  0  0  0  0  0  0  0  0  0  0
   17.8493  -19.2924  -10.3924 C   0  0  0  0  0  0  0  0  0  0  0  0
   16.9067  -18.3331  -10.7284 C   0  0  0  0  0  0  0  0  0  0  0  0
   17.2121  -17.3267  -11.6029 C   0  0  0  0  0  0  0  0  0  0  0  0
   18.4790  -17.2777  -12.1503 C   0  0  0  0  0  0  0  0  0  0  0  0
   19.8786  -18.6195  -14.6829 C   0  0  0  0  0  0  0  0  0  0  0  0
   20.0334  -17.7060  -15.5287 O   0  0  0  0  0  0  0  0  0  0  0  0
   18.6481  -19.3032  -14.7179 O   0  0  0  0  0  0  0  0  0  0  0  0
  1  2  1  0
  2  3  1  0
  3  5  1  0
  3  4  1  1
  5  6  2  0
  7  8  1  0
  8  9  1  0
  9 10  1  0
 11 10  1  6
 11 13  1  0
 12 11  1  0
 12  5  1  0
 13 14  2  0
 15 13  1  0
 15 16  1  0
 16 24  1  0
 16 17  1  1
 18 17  1  0
 18 19  2  0
 20 19  1  0
 21 20  2  0
 22 23  2  0
 22 21  1  0
 23 18  1  0
 24 25  2  0
 24 26  1  0
M  END
$$$$
