SMF.pdb
     RDKit          3D

 26 26  0  0  1  0  0  0  0  0999 V2000
   28.5596  -19.3115  -15.4510 O   0  0  0  0  0  0  0  0  0  0  0  0
   27.9119  -20.4980  -15.6889 C   0  0  0  0  0  0  0  0  0  0  0  0
   26.4223  -20.3924  -15.7537 C   0  0  2  0  0  0  0  0  0  0  0  0
   26.0117  -19.5227  -16.8064 N   0  0  0  0  0  0  0  0  0  0  0  0
   25.8797  -20.0319  -14.4257 C   0  0  0  0  0  0  0  0  0  0  0  0
   25.6590  -18.8079  -14.2148 O   0  0  0  0  0  0  0  0  0  0  0  0
   20.4662  -20.9631  -10.9176 C   0  0  0  0  0  0  0  0  0  0  0  0
   21.4060  -19.8203  -11.9756 S   0  0  0  0  0  0  0  0  0  0  0  0
   22.5418  -20.8043  -13.0377 C   0  0  0  0  0  0  0  0  0  0  0  0
   23.6208  -21.3028  -12.1427 C   0  0  0  0  0  0  0  0  0  0  0  0
   24.9002  -20.5011  -12.1611 C   0  0  2  0  0  0  0  0  0  0  0  0
   25.5967  -20.9425  -13.3974 N   0  0  0  0  0  0  0  0  0  0  0  0
   25.7211  -20.8701  -10.9916 C   0  0  0  0  0  0  0  0  0  0  0  0
   26.2007  -22.0419  -10.9441 O   0  0  0  0  0  0  0  0  0  0  0  0
   26.0122  -20.0033   -9.9241 N   0  0  0  0  0  0  0  0  0  0  0  0
   26.7333  -20.5103   -8.7771 C   0  0  1  0  0  0  0  0  0  0  0  0
   27.5182  -19.3231   -8.2177 C   0  0  0  0  0  0  0  0  0  0  0  0
   28.1198  -19.6501   -6.9129 C   0  0  0  0  0  0  0  0  0  0  0  0
   29.2345  -20.4742   -6.8081 C   0  0  0  0  0  0  0  0  0  0  0  0
   29.8181  -20.7776   -5.5935 C   0  0  0  0  0  0  0  0  0  0  0  0
   29.2662  -20.2368   -4.4426 C   0  0  0  0  0  0  0  0  0  0  0  0
   28.1696  -19.4218   -4.5074 C   0  0  0  0  0  0  0  0  0  0  0  0
   27.6157  -19.1426   -5.7412 C   0  0  0  0  0  0  0  0  0  0  0  0
   25.7909  -21.0426   -7.7800 C   0  0  0  0  0  0  0  0  0  0  0  0
   26.1234  -21.8842   -6.9112 O   0  0  0  0  0  0  0  0  0  0  0  0
   24.4484  -20.6181   -7.7590 O   0  0  0  0  0  0  0  0  0  0  0  0
  1  2  1  0
  2  3  1  0
  3  5  1  0
  3  4  1  6
  5  6  2  0
  7  8  1  0
  8  9  1  0
  9 10  1  0
 11 10  1  1
 11 13  1  0
 12 11  1  0
 12  5  1  0
 13 14  2  0
 15 13  1  0
 15 16  1  0
 16 24  1  0
 16 17  1  1
 18 17  1  0
 18 19  2  0
 20 19  1  0
 21 20  2  0
 22 23  2  0
 22 21  1  0
 23 18  1  0
 24 25  2  0
 24 26  1  0
M  END
$$$$
