SMF.pdb
     RDKit          3D

 26 26  0  0  1  0  0  0  0  0999 V2000
   21.2771  -17.6644  -12.4865 O   0  0  0  0  0  0  0  0  0  0  0  0
   21.9434  -17.9444  -13.6533 C   0  0  0  0  0  0  0  0  0  0  0  0
   21.9824  -19.3941  -14.0158 C   0  0  2  0  0  0  0  0  0  0  0  0
   20.6794  -19.8845  -14.3236 N   0  0  0  0  0  0  0  0  0  0  0  0
   22.6846  -20.1624  -12.9649 C   0  0  0  0  0  0  0  0  0  0  0  0
   21.9643  -20.7364  -12.1030 O   0  0  0  0  0  0  0  0  0  0  0  0
   25.1538  -25.2944  -15.6299 C   0  0  0  0  0  0  0  0  0  0  0  0
   26.0244  -24.1649  -14.5009 S   0  0  0  0  0  0  0  0  0  0  0  0
   24.7739  -23.2419  -13.5155 C   0  0  0  0  0  0  0  0  0  0  0  0
   25.5180  -22.1743  -12.7943 C   0  0  0  0  0  0  0  0  0  0  0  0
   24.6773  -21.2767  -11.9183 C   0  0  2  0  0  0  0  0  0  0  0  0
   24.0766  -20.2965  -12.8599 N   0  0  0  0  0  0  0  0  0  0  0  0
   25.5557  -20.5579  -10.9751 C   0  0  0  0  0  0  0  0  0  0  0  0
   26.1000  -19.4827  -11.3666 O   0  0  0  0  0  0  0  0  0  0  0  0
   25.8266  -20.9853   -9.6638 N   0  0  0  0  0  0  0  0  0  0  0  0
   26.7982  -20.2642   -8.8708 C   0  0  1  0  0  0  0  0  0  0  0  0
   26.3606  -20.4351   -7.4155 C   0  0  0  0  0  0  0  0  0  0  0  0
   27.3785  -19.9097   -6.4885 C   0  0  0  0  0  0  0  0  0  0  0  0
   28.2439  -20.7521   -5.7998 C   0  0  0  0  0  0  0  0  0  0  0  0
   29.2124  -20.2735   -4.9391 C   0  0  0  0  0  0  0  0  0  0  0  0
   29.3185  -18.9028   -4.7613 C   0  0  0  0  0  0  0  0  0  0  0  0
   28.4842  -18.0438   -5.4223 C   0  0  0  0  0  0  0  0  0  0  0  0
   27.5290  -18.5622   -6.2743 C   0  0  0  0  0  0  0  0  0  0  0  0
   28.1438  -20.8177   -9.0905 C   0  0  0  0  0  0  0  0  0  0  0  0
   28.3467  -22.0264   -9.3587 O   0  0  0  0  0  0  0  0  0  0  0  0
   29.2835  -19.9948   -9.0087 O   0  0  0  0  0  0  0  0  0  0  0  0
  1  2  1  0
  2  3  1  0
  3  5  1  0
  3  4  1  1
  5  6  2  0
  7  8  1  0
  8  9  1  0
  9 10  1  0
 11 10  1  6
 11 13  1  0
 12 11  1  0
 12  5  1  0
 13 14  2  0
 15 13  1  0
 15 16  1  0
 16 24  1  0
 16 17  1  1
 18 17  1  0
 18 19  2  0
 20 19  1  0
 21 20  2  0
 22 23  2  0
 22 21  1  0
 23 18  1  0
 24 25  2  0
 24 26  1  0
M  END
$$$$
