SMF.pdb
     RDKit          3D

 26 26  0  0  1  0  0  0  0  0999 V2000
   28.2743  -19.0628  -16.7643 O   0  0  0  0  0  0  0  0  0  0  0  0
   27.2961  -19.8297  -16.1823 C   0  0  0  0  0  0  0  0  0  0  0  0
   27.8053  -20.9571  -15.3432 C   0  0  2  0  0  0  0  0  0  0  0  0
   28.2419  -22.0468  -16.1525 N   0  0  0  0  0  0  0  0  0  0  0  0
   26.7997  -21.3267  -14.3234 C   0  0  0  0  0  0  0  0  0  0  0  0
   26.0948  -22.3451  -14.5628 O   0  0  0  0  0  0  0  0  0  0  0  0
   24.9756  -20.5324   -7.8941 C   0  0  0  0  0  0  0  0  0  0  0  0
   26.7265  -20.4426   -8.3788 S   0  0  0  0  0  0  0  0  0  0  0  0
   26.8897  -21.0616  -10.1042 C   0  0  0  0  0  0  0  0  0  0  0  0
   25.8269  -20.3813  -10.8924 C   0  0  0  0  0  0  0  0  0  0  0  0
   25.4774  -21.0344  -12.2081 C   0  0  2  0  0  0  0  0  0  0  0  0
   26.5768  -20.6342  -13.1245 N   0  0  0  0  0  0  0  0  0  0  0  0
   24.2086  -20.4704  -12.7081 C   0  0  0  0  0  0  0  0  0  0  0  0
   24.2458  -19.3548  -13.3077 O   0  0  0  0  0  0  0  0  0  0  0  0
   22.9563  -21.0929  -12.5673 N   0  0  0  0  0  0  0  0  0  0  0  0
   21.8716  -20.7068  -13.4431 C   0  0  1  0  0  0  0  0  0  0  0  0
   22.3370  -21.0448  -14.8601 C   0  0  0  0  0  0  0  0  0  0  0  0
   21.2902  -20.7392  -15.8512 C   0  0  0  0  0  0  0  0  0  0  0  0
   20.3990  -21.7093  -16.2955 C   0  0  0  0  0  0  0  0  0  0  0  0
   19.4036  -21.4342  -17.2128 C   0  0  0  0  0  0  0  0  0  0  0  0
   19.2965  -20.1420  -17.7030 C   0  0  0  0  0  0  0  0  0  0  0  0
   20.1557  -19.1618  -17.2885 C   0  0  0  0  0  0  0  0  0  0  0  0
   21.1374  -19.4774  -16.3700 C   0  0  0  0  0  0  0  0  0  0  0  0
   20.6490  -21.4476  -13.0936 C   0  0  0  0  0  0  0  0  0  0  0  0
   20.6593  -22.6547  -12.7521 O   0  0  0  0  0  0  0  0  0  0  0  0
   19.3903  -20.8172  -13.1273 O   0  0  0  0  0  0  0  0  0  0  0  0
  1  2  1  0
  2  3  1  0
  3  5  1  0
  3  4  1  6
  5  6  2  0
  7  8  1  0
  8  9  1  0
  9 10  1  0
 11 10  1  1
 11 13  1  0
 12 11  1  0
 12  5  1  0
 13 14  2  0
 15 13  1  0
 15 16  1  0
 16 24  1  0
 16 17  1  6
 18 17  1  0
 18 19  2  0
 20 19  1  0
 21 20  2  0
 22 23  2  0
 22 21  1  0
 23 18  1  0
 24 25  2  0
 24 26  1  0
M  END
$$$$
