SMF.pdb
     RDKit          3D

 26 26  0  0  1  0  0  0  0  0999 V2000
   26.1951  -24.7808  -16.5868 O   0  0  0  0  0  0  0  0  0  0  0  0
   26.7491  -24.2772  -17.7371 C   0  0  0  0  0  0  0  0  0  0  0  0
   28.0556  -23.5769  -17.5445 C   0  0  2  0  0  0  0  0  0  0  0  0
   29.0809  -24.4923  -17.1652 N   0  0  0  0  0  0  0  0  0  0  0  0
   27.8898  -22.4369  -16.6168 C   0  0  0  0  0  0  0  0  0  0  0  0
   28.7639  -22.3042  -15.7171 O   0  0  0  0  0  0  0  0  0  0  0  0
   24.0755  -17.9871  -18.2384 C   0  0  0  0  0  0  0  0  0  0  0  0
   24.2308  -17.2469  -16.5841 S   0  0  0  0  0  0  0  0  0  0  0  0
   25.5791  -18.1123  -15.6788 C   0  0  0  0  0  0  0  0  0  0  0  0
   25.8326  -19.3773  -16.4199 C   0  0  0  0  0  0  0  0  0  0  0  0
   26.8620  -20.2942  -15.8040 C   0  0  2  0  0  0  0  0  0  0  0  0
   26.8430  -21.5049  -16.6657 N   0  0  0  0  0  0  0  0  0  0  0  0
   26.4276  -20.6678  -14.4440 C   0  0  0  0  0  0  0  0  0  0  0  0
   25.5258  -21.5501  -14.3262 O   0  0  0  0  0  0  0  0  0  0  0  0
   26.9529  -20.1116  -13.2650 N   0  0  0  0  0  0  0  0  0  0  0  0
   26.4960  -20.6059  -11.9845 C   0  0  1  0  0  0  0  0  0  0  0  0
   27.5342  -20.1422  -10.9620 C   0  0  0  0  0  0  0  0  0  0  0  0
   26.9970  -20.2064   -9.5913 C   0  0  0  0  0  0  0  0  0  0  0  0
   26.3904  -19.1084   -8.9921 C   0  0  0  0  0  0  0  0  0  0  0  0
   25.8692  -19.1580   -7.7138 C   0  0  0  0  0  0  0  0  0  0  0  0
   25.9585  -20.3491   -7.0103 C   0  0  0  0  0  0  0  0  0  0  0  0
   26.5485  -21.4499   -7.5681 C   0  0  0  0  0  0  0  0  0  0  0  0
   27.0573  -21.3594   -8.8486 C   0  0  0  0  0  0  0  0  0  0  0  0
   25.1645  -20.0605  -11.6759 C   0  0  0  0  0  0  0  0  0  0  0  0
   24.7723  -18.9452  -12.0957 O   0  0  0  0  0  0  0  0  0  0  0  0
   24.2558  -20.7850  -10.8807 O   0  0  0  0  0  0  0  0  0  0  0  0
  1  2  1  0
  2  3  1  0
  3  5  1  0
  3  4  1  1
  5  6  2  0
  7  8  1  0
  8  9  1  0
  9 10  1  0
 11 10  1  6
 11 13  1  0
 12 11  1  0
 12  5  1  0
 13 14  2  0
 15 13  1  0
 15 16  1  0
 16 24  1  0
 16 17  1  1
 18 17  1  0
 18 19  2  0
 20 19  1  0
 21 20  2  0
 22 23  2  0
 22 21  1  0
 23 18  1  0
 24 25  2  0
 24 26  1  0
M  END
$$$$
