SMF.pdb
     RDKit          3D

 26 26  0  0  1  0  0  0  0  0999 V2000
   23.4358  -14.5180  -14.7604 O   0  0  0  0  0  0  0  0  0  0  0  0
   23.2511  -13.2195  -15.1649 C   0  0  0  0  0  0  0  0  0  0  0  0
   22.6448  -13.0704  -16.5231 C   0  0  2  0  0  0  0  0  0  0  0  0
   23.5204  -13.5608  -17.5359 N   0  0  0  0  0  0  0  0  0  0  0  0
   22.2010  -11.6750  -16.7316 C   0  0  0  0  0  0  0  0  0  0  0  0
   22.9886  -10.9157  -17.3596 O   0  0  0  0  0  0  0  0  0  0  0  0
   16.2869  -10.1880  -18.1343 C   0  0  0  0  0  0  0  0  0  0  0  0
   16.6022   -8.8318  -16.9639 S   0  0  0  0  0  0  0  0  0  0  0  0
   18.4101   -8.4894  -16.9366 C   0  0  0  0  0  0  0  0  0  0  0  0
   19.0779   -9.7983  -16.7034 C   0  0  0  0  0  0  0  0  0  0  0  0
   20.5857   -9.7540  -16.6371 C   0  0  2  0  0  0  0  0  0  0  0  0
   20.9824  -11.1426  -16.2863 N   0  0  0  0  0  0  0  0  0  0  0  0
   20.9973   -8.8488  -15.5466 C   0  0  0  0  0  0  0  0  0  0  0  0
   20.8330   -9.2388  -14.3523 O   0  0  0  0  0  0  0  0  0  0  0  0
   21.5664   -7.5791  -15.7449 N   0  0  0  0  0  0  0  0  0  0  0  0
   21.9743   -6.7992  -14.5967 C   0  0  1  0  0  0  0  0  0  0  0  0
   23.4993   -6.8989  -14.5432 C   0  0  0  0  0  0  0  0  0  0  0  0
   24.1059   -6.4670  -15.8149 C   0  0  0  0  0  0  0  0  0  0  0  0
   24.5337   -5.1592  -16.0134 C   0  0  0  0  0  0  0  0  0  0  0  0
   25.1173   -4.7435  -17.1943 C   0  0  0  0  0  0  0  0  0  0  0  0
   25.2784   -5.6699  -18.2129 C   0  0  0  0  0  0  0  0  0  0  0  0
   24.8695   -6.9653  -18.0531 C   0  0  0  0  0  0  0  0  0  0  0  0
   24.2905   -7.3413  -16.8571 C   0  0  0  0  0  0  0  0  0  0  0  0
   21.5374   -5.4025  -14.7509 C   0  0  0  0  0  0  0  0  0  0  0  0
   21.6948   -4.5377  -13.8558 O   0  0  0  0  0  0  0  0  0  0  0  0
   20.9125   -4.9698  -15.9364 O   0  0  0  0  0  0  0  0  0  0  0  0
  1  2  1  0
  2  3  1  0
  3  5  1  0
  3  4  1  6
  5  6  2  0
  7  8  1  0
  8  9  1  0
  9 10  1  0
 11 10  1  1
 11 13  1  0
 12 11  1  0
 12  5  1  0
 13 14  2  0
 15 13  1  0
 15 16  1  0
 16 24  1  0
 16 17  1  6
 18 17  1  0
 18 19  2  0
 20 19  1  0
 21 20  2  0
 22 23  2  0
 22 21  1  0
 23 18  1  0
 24 25  2  0
 24 26  1  0
M  END
$$$$
