SMF.pdb
     RDKit          3D

 26 26  0  0  1  0  0  0  0  0999 V2000
   19.0818   -5.2586  -14.7433 O   0  0  0  0  0  0  0  0  0  0  0  0
   19.8021   -5.6632  -15.8393 C   0  0  0  0  0  0  0  0  0  0  0  0
   21.2745   -5.4252  -15.7395 C   0  0  2  0  0  0  0  0  0  0  0  0
   21.6078   -4.0894  -16.1102 N   0  0  0  0  0  0  0  0  0  0  0  0
   22.0098   -6.4632  -16.4942 C   0  0  0  0  0  0  0  0  0  0  0  0
   22.0831   -6.3124  -17.7445 O   0  0  0  0  0  0  0  0  0  0  0  0
   27.2934  -12.2468  -15.6658 C   0  0  0  0  0  0  0  0  0  0  0  0
   26.2890  -10.8636  -15.0441 S   0  0  0  0  0  0  0  0  0  0  0  0
   25.2010  -10.2710  -16.4049 C   0  0  0  0  0  0  0  0  0  0  0  0
   24.4027   -9.1494  -15.8407 C   0  0  0  0  0  0  0  0  0  0  0  0
   23.3734   -8.5541  -16.7713 C   0  0  2  0  0  0  0  0  0  0  0  0
   22.6234   -7.5889  -15.9260 N   0  0  0  0  0  0  0  0  0  0  0  0
   22.4513   -9.6161  -17.2182 C   0  0  0  0  0  0  0  0  0  0  0  0
   21.6103  -10.0669  -16.3845 O   0  0  0  0  0  0  0  0  0  0  0  0
   22.4399  -10.1602  -18.5141 N   0  0  0  0  0  0  0  0  0  0  0  0
   21.5724  -11.2811  -18.8035 C   0  0  1  0  0  0  0  0  0  0  0  0
   20.5604  -10.7728  -19.8311 C   0  0  0  0  0  0  0  0  0  0  0  0
   19.6961  -11.8650  -20.3123 C   0  0  0  0  0  0  0  0  0  0  0  0
   18.6186  -12.3273  -19.5651 C   0  0  0  0  0  0  0  0  0  0  0  0
   17.7911  -13.3400  -20.0096 C   0  0  0  0  0  0  0  0  0  0  0  0
   18.0513  -13.9104  -21.2459 C   0  0  0  0  0  0  0  0  0  0  0  0
   19.1025  -13.4810  -22.0085 C   0  0  0  0  0  0  0  0  0  0  0  0
   19.9064  -12.4660  -21.5285 C   0  0  0  0  0  0  0  0  0  0  0  0
   22.3569  -12.4047  -19.3398 C   0  0  0  0  0  0  0  0  0  0  0  0
   23.4229  -12.2449  -19.9815 O   0  0  0  0  0  0  0  0  0  0  0  0
   21.9345  -13.7343  -19.1486 O   0  0  0  0  0  0  0  0  0  0  0  0
  1  2  1  0
  2  3  1  0
  3  5  1  0
  3  4  1  6
  5  6  2  0
  7  8  1  0
  8  9  1  0
  9 10  1  0
 11 10  1  1
 11 13  1  0
 12 11  1  0
 12  5  1  0
 13 14  2  0
 15 13  1  0
 15 16  1  0
 16 24  1  0
 16 17  1  6
 18 17  1  0
 18 19  2  0
 20 19  1  0
 21 20  2  0
 22 23  2  0
 22 21  1  0
 23 18  1  0
 24 25  2  0
 24 26  1  0
M  END
$$$$
