TLQ.pdb
     RDKit          3D

 25 24  0  0  1  0  0  0  0  0999 V2000
    6.5811  -16.7563   19.6647 C   0  0  0  0  0  0  0  0  0  0  0  0
    7.1931  -16.4407   20.9902 C   0  0  1  0  0  0  0  0  0  0  0  0
    8.2984  -17.2513   21.1789 O   0  0  0  0  0  0  0  0  0  0  0  0
    7.6488  -14.9782   21.0811 C   0  0  2  0  0  0  0  0  0  0  0  0
    8.7221  -14.8228   20.1438 N   0  0  0  0  0  0  0  0  0  0  0  0
    8.1575  -14.8155   22.4858 C   0  0  0  0  0  0  0  0  0  0  0  0
    9.3780  -14.9847   22.7418 O   0  0  0  0  0  0  0  0  0  0  0  0
    5.9130  -11.7751   27.1711 C   0  0  0  0  0  0  0  0  0  0  0  0
    7.0768  -12.4661   26.4861 C   0  0  2  0  0  0  0  0  0  0  0  0
    7.8009  -11.4584   25.6756 C   0  0  0  0  0  0  0  0  0  0  0  0
    6.7371  -13.7321   25.8421 C   0  0  0  0  0  0  0  0  0  0  0  0
    7.6733  -14.4253   24.9494 C   0  0  2  0  0  0  0  0  0  0  0  0
    7.2709  -14.4658   23.5619 N   0  0  0  0  0  0  0  0  0  0  0  0
    8.1683  -15.7402   25.4222 C   0  0  0  0  0  0  0  0  0  0  0  0
    7.4689  -16.7863   25.4560 O   0  0  0  0  0  0  0  0  0  0  0  0
   13.4392  -18.0488   24.1181 N   0  0  0  0  0  0  0  0  0  0  0  0
   12.2678  -18.7418   23.7255 C   0  0  0  0  0  0  0  0  0  0  0  0
   12.3146  -19.5009   22.7382 O   0  0  0  0  0  0  0  0  0  0  0  0
   10.9975  -18.5571   24.4931 C   0  0  0  0  0  0  0  0  0  0  0  0
   11.2284  -17.5684   25.5797 C   0  0  0  0  0  0  0  0  0  0  0  0
    9.9939  -17.2153   26.3655 C   0  0  2  0  0  0  0  0  0  0  0  0
    9.5071  -15.9021   25.8803 N   0  0  0  0  0  0  0  0  0  0  0  0
   10.3333  -17.0746   27.7943 C   0  0  0  0  0  0  0  0  0  0  0  0
   10.3059  -15.9318   28.3362 O   0  0  0  0  0  0  0  0  0  0  0  0
   10.6794  -18.1735   28.5524 O   0  0  0  0  0  0  0  0  0  0  0  0
  2  1  1  6
  3  2  1  0
  4  6  1  0
  4  2  1  0
  4  5  1  6
  6 13  1  0
  7  6  2  0
  9  8  1  6
 10  9  1  0
 12 11  1  1
 11  9  1  0
 13 12  1  0
 14 12  1  0
 14 15  2  0
 17 16  1  0
 18 17  2  0
 19 17  1  0
 19 20  1  0
 21 20  1  6
 21 22  1  0
 21 23  1  0
 22 14  1  0
 23 24  2  0
 23 25  1  0
M  END
$$$$
