TLQ.pdb
     RDKit          3D

 25 24  0  0  1  0  0  0  0  0999 V2000
    6.5469  -17.3058   21.5668 C   0  0  0  0  0  0  0  0  0  0  0  0
    7.8125  -17.1381   20.7913 C   0  0  1  0  0  0  0  0  0  0  0  0
    7.6182  -17.6139   19.5066 O   0  0  0  0  0  0  0  0  0  0  0  0
    8.2415  -15.6677   20.6992 C   0  0  2  0  0  0  0  0  0  0  0  0
    9.4042  -15.6301   19.8616 N   0  0  0  0  0  0  0  0  0  0  0  0
    8.6009  -15.2782   22.1054 C   0  0  0  0  0  0  0  0  0  0  0  0
    9.7072  -15.6237   22.5961 O   0  0  0  0  0  0  0  0  0  0  0  0
    7.7825  -13.5892   27.2100 C   0  0  0  0  0  0  0  0  0  0  0  0
    7.3030  -12.5750   26.1889 C   0  0  2  0  0  0  0  0  0  0  0  0
    6.1898  -11.8036   26.7909 C   0  0  0  0  0  0  0  0  0  0  0  0
    7.1017  -13.1138   24.8466 C   0  0  0  0  0  0  0  0  0  0  0  0
    7.9488  -14.1818   24.3029 C   0  0  2  0  0  0  0  0  0  0  0  0
    7.6984  -14.5086   22.9176 N   0  0  0  0  0  0  0  0  0  0  0  0
    8.0836  -15.3952   25.1437 C   0  0  0  0  0  0  0  0  0  0  0  0
    7.1159  -16.1168   25.5006 O   0  0  0  0  0  0  0  0  0  0  0  0
   12.1442  -19.2561   23.5995 N   0  0  0  0  0  0  0  0  0  0  0  0
   11.9225  -19.8612   24.8610 C   0  0  0  0  0  0  0  0  0  0  0  0
   12.4919  -20.9377   25.1254 O   0  0  0  0  0  0  0  0  0  0  0  0
   11.0152  -19.2077   25.8542 C   0  0  0  0  0  0  0  0  0  0  0  0
   10.5784  -17.8914   25.3174 C   0  0  0  0  0  0  0  0  0  0  0  0
    9.5431  -17.1943   26.1592 C   0  0  2  0  0  0  0  0  0  0  0  0
    9.3567  -15.8297   25.6117 N   0  0  0  0  0  0  0  0  0  0  0  0
   10.0299  -17.0651   27.5459 C   0  0  0  0  0  0  0  0  0  0  0  0
    9.7605  -17.9661   28.3921 O   0  0  0  0  0  0  0  0  0  0  0  0
   10.7787  -15.9746   27.9358 O   0  0  0  0  0  0  0  0  0  0  0  0
  2  1  1  1
  3  2  1  0
  4  6  1  0
  4  2  1  0
  4  5  1  6
  6 13  1  0
  7  6  2  0
  9  8  1  1
 10  9  1  0
 12 11  1  1
 11  9  1  0
 13 12  1  0
 14 12  1  0
 14 15  2  0
 17 16  1  0
 18 17  2  0
 19 17  1  0
 19 20  1  0
 21 20  1  6
 21 22  1  0
 21 23  1  0
 22 14  1  0
 23 24  2  0
 23 25  1  0
M  END
$$$$
