TLQ.pdb
     RDKit          3D

 25 24  0  0  1  0  0  0  0  0999 V2000
    6.6027  -15.0014   18.9316 C   0  0  0  0  0  0  0  0  0  0  0  0
    7.2453  -15.0294   20.2797 C   0  0  1  0  0  0  0  0  0  0  0  0
    8.4505  -15.7031   20.1888 O   0  0  0  0  0  0  0  0  0  0  0  0
    7.5229  -13.6184   20.8153 C   0  0  2  0  0  0  0  0  0  0  0  0
    8.5353  -13.0509   19.9739 N   0  0  0  0  0  0  0  0  0  0  0  0
    8.0580  -13.8273   22.2040 C   0  0  0  0  0  0  0  0  0  0  0  0
    9.2846  -14.0424   22.3852 O   0  0  0  0  0  0  0  0  0  0  0  0
    7.7001  -11.2243   26.1865 C   0  0  0  0  0  0  0  0  0  0  0  0
    6.4863  -12.0761   25.8664 C   0  0  2  0  0  0  0  0  0  0  0  0
    5.3818  -11.6632   26.7644 C   0  0  0  0  0  0  0  0  0  0  0  0
    6.7617  -13.5054   25.7491 C   0  0  0  0  0  0  0  0  0  0  0  0
    7.6345  -14.0450   24.6998 C   0  0  2  0  0  0  0  0  0  0  0  0
    7.1900  -13.7870   23.3491 N   0  0  0  0  0  0  0  0  0  0  0  0
    8.0755  -15.4487   24.8804 C   0  0  0  0  0  0  0  0  0  0  0  0
    7.3918  -16.4512   24.5457 O   0  0  0  0  0  0  0  0  0  0  0  0
   13.4537  -19.9632   23.6261 N   0  0  0  0  0  0  0  0  0  0  0  0
   12.8305  -18.7257   23.9212 C   0  0  0  0  0  0  0  0  0  0  0  0
   13.3007  -17.6790   23.4352 O   0  0  0  0  0  0  0  0  0  0  0  0
   11.6247  -18.6883   24.8053 C   0  0  0  0  0  0  0  0  0  0  0  0
   11.0570  -17.3138   24.7909 C   0  0  0  0  0  0  0  0  0  0  0  0
    9.7960  -17.1584   25.5984 C   0  0  2  0  0  0  0  0  0  0  0  0
    9.3393  -15.7551   25.4615 N   0  0  0  0  0  0  0  0  0  0  0  0
   10.0811  -17.4066   27.0245 C   0  0  0  0  0  0  0  0  0  0  0  0
   10.4184  -18.5651   27.4046 O   0  0  0  0  0  0  0  0  0  0  0  0
    9.9876  -16.3915   27.9534 O   0  0  0  0  0  0  0  0  0  0  0  0
  2  1  1  6
  3  2  1  0
  4  6  1  0
  4  2  1  0
  4  5  1  6
  6 13  1  0
  7  6  2  0
  9  8  1  1
 10  9  1  0
 12 11  1  1
 11  9  1  0
 13 12  1  0
 14 12  1  0
 14 15  2  0
 17 16  1  0
 18 17  2  0
 19 17  1  0
 19 20  1  0
 21 20  1  6
 21 22  1  0
 21 23  1  0
 22 14  1  0
 23 24  2  0
 23 25  1  0
M  END
$$$$
