TLQ.pdb
     RDKit          3D

 25 24  0  0  1  0  0  0  0  0999 V2000
    7.1216  -18.1240   23.0311 C   0  0  0  0  0  0  0  0  0  0  0  0
    7.8634  -17.6081   21.8417 C   0  0  1  0  0  0  0  0  0  0  0  0
    7.7110  -18.5007   20.7955 O   0  0  0  0  0  0  0  0  0  0  0  0
    7.3405  -16.2394   21.3855 C   0  0  2  0  0  0  0  0  0  0  0  0
    7.9320  -15.9787   20.1060 N   0  0  0  0  0  0  0  0  0  0  0  0
    7.8579  -15.2651   22.4058 C   0  0  0  0  0  0  0  0  0  0  0  0
    9.0623  -14.9008   22.3811 O   0  0  0  0  0  0  0  0  0  0  0  0
    8.1537  -11.5748   26.1384 C   0  0  0  0  0  0  0  0  0  0  0  0
    6.6816  -11.9058   25.9820 C   0  0  2  0  0  0  0  0  0  0  0  0
    6.0997  -12.0766   27.3345 C   0  0  0  0  0  0  0  0  0  0  0  0
    6.3935  -12.9370   24.9889 C   0  0  0  0  0  0  0  0  0  0  0  0
    7.4433  -13.8061   24.4443 C   0  0  2  0  0  0  0  0  0  0  0  0
    6.9981  -14.7298   23.4259 N   0  0  0  0  0  0  0  0  0  0  0  0
    8.3254  -14.4606   25.4398 C   0  0  0  0  0  0  0  0  0  0  0  0
    8.9123  -13.8501   26.3711 O   0  0  0  0  0  0  0  0  0  0  0  0
    7.3038  -19.9663   27.6441 N   0  0  0  0  0  0  0  0  0  0  0  0
    8.4922  -19.6859   28.3624 C   0  0  0  0  0  0  0  0  0  0  0  0
    8.8262  -20.4373   29.2987 O   0  0  0  0  0  0  0  0  0  0  0  0
    9.3268  -18.5010   27.9930 C   0  0  0  0  0  0  0  0  0  0  0  0
    8.6374  -17.7404   26.9169 C   0  0  0  0  0  0  0  0  0  0  0  0
    9.3888  -16.5258   26.4410 C   0  0  2  0  0  0  0  0  0  0  0  0
    8.5681  -15.8635   25.3997 N   0  0  0  0  0  0  0  0  0  0  0  0
   10.6635  -16.9366   25.8221 C   0  0  0  0  0  0  0  0  0  0  0  0
   10.7943  -16.8900   24.5647 O   0  0  0  0  0  0  0  0  0  0  0  0
   11.7198  -17.3704   26.5954 O   0  0  0  0  0  0  0  0  0  0  0  0
  2  1  1  1
  3  2  1  0
  4  6  1  0
  4  2  1  0
  4  5  1  6
  6 13  1  0
  7  6  2  0
  9  8  1  1
 10  9  1  0
 12 11  1  1
 11  9  1  0
 13 12  1  0
 14 12  1  0
 14 15  2  0
 17 16  1  0
 18 17  2  0
 19 17  1  0
 19 20  1  0
 21 20  1  6
 21 22  1  0
 21 23  1  0
 22 14  1  0
 23 24  2  0
 23 25  1  0
M  END
$$$$
