GST.pdb
     RDKit          3D

 18 17  0  0  1  0  0  0  0  0999 V2000
   19.2085  -11.9376  -18.0571 N   0  0  0  0  0  0  0  0  0  0  0  0
   19.1974  -10.5105  -18.2358 C   0  0  0  0  0  0  0  0  0  0  0  0
   19.8778   -9.8337  -17.0806 C   0  0  0  0  0  0  0  0  0  0  0  0
   19.2309   -9.4618  -16.0835 O   0  0  0  0  0  0  0  0  0  0  0  0
   24.0806   -8.8594  -17.1632 O   0  0  0  0  0  0  0  0  0  0  0  0
   23.4607   -9.2552  -15.9950 C   0  0  0  0  0  0  0  0  0  0  0  0
   21.9827   -9.0097  -15.9913 C   0  0  2  0  0  0  0  0  0  0  0  0
   21.2765   -9.5914  -17.0768 N   0  0  0  0  0  0  0  0  0  0  0  0
   21.7839   -7.5240  -15.9919 C   0  0  0  0  0  0  0  0  0  0  0  0
   21.8364   -6.8599  -17.0607 O   0  0  0  0  0  0  0  0  0  0  0  0
   19.2085   -5.7437  -13.5001 C   0  0  0  0  0  0  0  0  0  0  0  0
   19.8084   -5.0902  -14.7246 C   0  0  1  0  0  0  0  0  0  0  0  0
   19.5800   -3.7195  -14.6197 O   0  0  0  0  0  0  0  0  0  0  0  0
   21.3100   -5.3481  -14.7999 C   0  0  2  0  0  0  0  0  0  0  0  0
   21.5289   -6.8019  -14.7962 N   0  0  0  0  0  0  0  0  0  0  0  0
   22.0265   -4.7325  -13.6762 C   0  0  0  0  0  0  0  0  0  0  0  0
   22.2248   -3.4802  -13.5966 O   0  0  0  0  0  0  0  0  0  0  0  0
   22.5030   -5.5485  -12.6668 O   0  0  0  0  0  0  0  0  0  0  0  0
  2  1  1  0
  3  2  1  0
  4  3  2  0
  5  6  1  0
  7  6  1  6
  7  9  1  0
  7  8  1  0
  8  3  1  0
  9 15  1  0
 10  9  2  0
 12 11  1  1
 12 13  1  0
 14 12  1  0
 14 16  1  0
 14 15  1  1
 16 17  2  0
 16 18  1  0
M  END
$$$$
