GST.pdb
     RDKit          3D

 18 17  0  0  1  0  0  0  0  0999 V2000
   17.5625  -10.7610  -18.4088 N   0  0  0  0  0  0  0  0  0  0  0  0
   17.4613   -9.3350  -18.2516 C   0  0  0  0  0  0  0  0  0  0  0  0
   18.0505   -8.9110  -16.9368 C   0  0  0  0  0  0  0  0  0  0  0  0
   17.3235   -8.5191  -16.0047 O   0  0  0  0  0  0  0  0  0  0  0  0
   21.9811  -10.0015  -15.8565 O   0  0  0  0  0  0  0  0  0  0  0  0
   21.0216   -9.6246  -14.9383 C   0  0  0  0  0  0  0  0  0  0  0  0
   20.0597   -8.6040  -15.4655 C   0  0  2  0  0  0  0  0  0  0  0  0
   19.4504   -8.9390  -16.7033 N   0  0  0  0  0  0  0  0  0  0  0  0
   20.8154   -7.3167  -15.6016 C   0  0  0  0  0  0  0  0  0  0  0  0
   21.5889   -7.1148  -16.5748 O   0  0  0  0  0  0  0  0  0  0  0  0
   19.6373   -4.0061  -16.1698 C   0  0  0  0  0  0  0  0  0  0  0  0
   20.4516   -3.8708  -14.9029 C   0  0  1  0  0  0  0  0  0  0  0  0
   19.5627   -3.9067  -13.8303 O   0  0  0  0  0  0  0  0  0  0  0  0
   21.4494   -5.0171  -14.7710 C   0  0  2  0  0  0  0  0  0  0  0  0
   20.6951   -6.2729  -14.6465 N   0  0  0  0  0  0  0  0  0  0  0  0
   22.3278   -4.8450  -13.6074 C   0  0  0  0  0  0  0  0  0  0  0  0
   23.2238   -3.9459  -13.5554 O   0  0  0  0  0  0  0  0  0  0  0  0
   22.1723   -5.6947  -12.5279 O   0  0  0  0  0  0  0  0  0  0  0  0
  2  1  1  0
  3  2  1  0
  4  3  2  0
  5  6  1  0
  7  6  1  6
  7  9  1  0
  7  8  1  0
  8  3  1  0
  9 15  1  0
 10  9  2  0
 12 11  1  6
 12 13  1  0
 14 12  1  0
 14 16  1  0
 14 15  1  1
 16 17  2  0
 16 18  1  0
M  END
$$$$
