GST.pdb
     RDKit          3D

 18 17  0  0  1  0  0  0  0  0999 V2000
   20.1545  -11.6093  -19.1576 N   0  0  0  0  0  0  0  0  0  0  0  0
   21.3233  -10.8225  -18.8691 C   0  0  0  0  0  0  0  0  0  0  0  0
   21.1039   -9.9933  -17.6362 C   0  0  0  0  0  0  0  0  0  0  0  0
   20.0883   -9.2830  -17.5133 O   0  0  0  0  0  0  0  0  0  0  0  0
   22.5016   -9.0023  -13.0539 O   0  0  0  0  0  0  0  0  0  0  0  0
   22.6719   -9.7503  -14.2016 C   0  0  0  0  0  0  0  0  0  0  0  0
   21.8648   -9.2543  -15.3622 C   0  0  2  0  0  0  0  0  0  0  0  0
   22.0380   -9.9844  -16.5674 N   0  0  0  0  0  0  0  0  0  0  0  0
   22.2402   -7.8193  -15.5775 C   0  0  0  0  0  0  0  0  0  0  0  0
   23.2979   -7.5065  -16.1856 O   0  0  0  0  0  0  0  0  0  0  0  0
   19.4326   -4.6576  -14.8164 C   0  0  0  0  0  0  0  0  0  0  0  0
   20.5350   -4.6206  -15.8507 C   0  0  1  0  0  0  0  0  0  0  0  0
   20.8439   -3.2817  -16.0829 O   0  0  0  0  0  0  0  0  0  0  0  0
   21.7789   -5.3465  -15.3480 C   0  0  2  0  0  0  0  0  0  0  0  0
   21.4267   -6.7538  -15.1094 N   0  0  0  0  0  0  0  0  0  0  0  0
   22.2999   -4.7461  -14.1138 C   0  0  0  0  0  0  0  0  0  0  0  0
   22.8786   -3.6153  -14.0960 O   0  0  0  0  0  0  0  0  0  0  0  0
   22.1541   -5.4394  -12.9264 O   0  0  0  0  0  0  0  0  0  0  0  0
  2  1  1  0
  3  2  1  0
  4  3  2  0
  5  6  1  0
  7  6  1  1
  7  9  1  0
  7  8  1  0
  8  3  1  0
  9 15  1  0
 10  9  2  0
 12 11  1  1
 12 13  1  0
 14 12  1  0
 14 16  1  0
 14 15  1  1
 16 17  2  0
 16 18  1  0
M  END
$$$$
