GST.pdb
     RDKit          3D

 18 17  0  0  1  0  0  0  0  0999 V2000
   20.5647  -13.5737  -16.1802 N   0  0  0  0  0  0  0  0  0  0  0  0
   19.6223  -12.6505  -15.6073 C   0  0  0  0  0  0  0  0  0  0  0  0
   19.8475  -11.2688  -16.1512 C   0  0  0  0  0  0  0  0  0  0  0  0
   20.7583  -11.0422  -16.9698 O   0  0  0  0  0  0  0  0  0  0  0  0
   17.3895   -7.9931  -14.9024 O   0  0  0  0  0  0  0  0  0  0  0  0
   17.9707   -7.9901  -16.1546 C   0  0  0  0  0  0  0  0  0  0  0  0
   19.1959   -8.8476  -16.2457 C   0  0  2  0  0  0  0  0  0  0  0  0
   19.0375  -10.1714  -15.7580 N   0  0  0  0  0  0  0  0  0  0  0  0
   20.2792   -8.1491  -15.4808 C   0  0  0  0  0  0  0  0  0  0  0  0
   20.5221   -8.4420  -14.2802 O   0  0  0  0  0  0  0  0  0  0  0  0
   24.0930   -4.9048  -15.6204 C   0  0  0  0  0  0  0  0  0  0  0  0
   22.9035   -5.5496  -16.2954 C   0  0  1  0  0  0  0  0  0  0  0  0
   23.3860   -6.2862  -17.3755 O   0  0  0  0  0  0  0  0  0  0  0  0
   22.1706   -6.4813  -15.3353 C   0  0  2  0  0  0  0  0  0  0  0  0
   21.0760   -7.1322  -16.0700 N   0  0  0  0  0  0  0  0  0  0  0  0
   21.6331   -5.7579  -14.1764 C   0  0  0  0  0  0  0  0  0  0  0  0
   22.2327   -5.7201  -13.0571 O   0  0  0  0  0  0  0  0  0  0  0  0
   20.4283   -5.0930  -14.3104 O   0  0  0  0  0  0  0  0  0  0  0  0
  2  1  1  0
  3  2  1  0
  4  3  2  0
  5  6  1  0
  7  6  1  1
  7  9  1  0
  7  8  1  0
  8  3  1  0
  9 15  1  0
 10  9  2  0
 12 11  1  1
 12 13  1  0
 14 12  1  0
 14 16  1  0
 14 15  1  6
 16 17  2  0
 16 18  1  0
M  END
$$$$
