GST.pdb
     RDKit          3D

 18 17  0  0  1  0  0  0  0  0999 V2000
   16.7842  -10.5113  -15.8872 N   0  0  0  0  0  0  0  0  0  0  0  0
   18.1806  -10.1729  -15.8240 C   0  0  0  0  0  0  0  0  0  0  0  0
   18.3790   -8.9207  -15.0187 C   0  0  0  0  0  0  0  0  0  0  0  0
   17.6146   -7.9463  -15.1492 O   0  0  0  0  0  0  0  0  0  0  0  0
   19.5541   -8.6958  -11.0723 O   0  0  0  0  0  0  0  0  0  0  0  0
   20.3224   -7.9532  -11.9463 C   0  0  0  0  0  0  0  0  0  0  0  0
   19.6366   -7.6656  -13.2470 C   0  0  2  0  0  0  0  0  0  0  0  0
   19.4383   -8.7965  -14.0819 N   0  0  0  0  0  0  0  0  0  0  0  0
   20.4646   -6.6421  -13.9636 C   0  0  0  0  0  0  0  0  0  0  0  0
   21.4764   -6.9764  -14.6351 O   0  0  0  0  0  0  0  0  0  0  0  0
   20.9635   -1.8556  -15.3401 C   0  0  0  0  0  0  0  0  0  0  0  0
   20.2361   -2.9130  -14.5406 C   0  0  1  0  0  0  0  0  0  0  0  0
   18.9562   -3.0349  -15.0782 O   0  0  0  0  0  0  0  0  0  0  0  0
   20.9532   -4.2562  -14.6333 C   0  0  2  0  0  0  0  0  0  0  0  0
   20.1489   -5.2585  -13.9191 N   0  0  0  0  0  0  0  0  0  0  0  0
   22.3021   -4.1957  -14.0571 C   0  0  0  0  0  0  0  0  0  0  0  0
   23.3435   -4.0529  -14.7704 O   0  0  0  0  0  0  0  0  0  0  0  0
   22.4422   -4.2981  -12.6854 O   0  0  0  0  0  0  0  0  0  0  0  0
  2  1  1  0
  3  2  1  0
  4  3  2  0
  5  6  1  0
  7  6  1  1
  7  9  1  0
  7  8  1  0
  8  3  1  0
  9 15  1  0
 10  9  2  0
 12 11  1  6
 12 13  1  0
 14 12  1  0
 14 16  1  0
 14 15  1  1
 16 17  2  0
 16 18  1  0
M  END
$$$$
