GST.pdb
     RDKit          3D

 18 17  0  0  1  0  0  0  0  0999 V2000
   16.1372  -10.8340  -15.6854 N   0  0  0  0  0  0  0  0  0  0  0  0
   16.4901  -10.6393  -14.3048 C   0  0  0  0  0  0  0  0  0  0  0  0
   16.9864   -9.2389  -14.0847 C   0  0  0  0  0  0  0  0  0  0  0  0
   17.3520   -8.5302  -15.0412 O   0  0  0  0  0  0  0  0  0  0  0  0
   17.6417   -5.5615  -10.9086 O   0  0  0  0  0  0  0  0  0  0  0  0
   17.1615   -6.8327  -11.1522 C   0  0  0  0  0  0  0  0  0  0  0  0
   17.4956   -7.3446  -12.5200 C   0  0  2  0  0  0  0  0  0  0  0  0
   17.0589   -8.6689  -12.7867 N   0  0  0  0  0  0  0  0  0  0  0  0
   18.9845   -7.2592  -12.6699 C   0  0  0  0  0  0  0  0  0  0  0  0
   19.7470   -8.0625  -12.0702 O   0  0  0  0  0  0  0  0  0  0  0  0
   20.6262   -5.5954  -16.1169 C   0  0  0  0  0  0  0  0  0  0  0  0
   21.2727   -6.6220  -15.2143 C   0  0  1  0  0  0  0  0  0  0  0  0
   22.6394   -6.6142  -15.4861 O   0  0  0  0  0  0  0  0  0  0  0  0
   21.0474   -6.2759  -13.7458 C   0  0  2  0  0  0  0  0  0  0  0  0
   19.5998   -6.2760  -13.4890 N   0  0  0  0  0  0  0  0  0  0  0  0
   21.6157   -4.9672  -13.4001 C   0  0  0  0  0  0  0  0  0  0  0  0
   22.8676   -4.7646  -13.3258 O   0  0  0  0  0  0  0  0  0  0  0  0
   20.7538   -3.9164  -13.1459 O   0  0  0  0  0  0  0  0  0  0  0  0
  2  1  1  0
  3  2  1  0
  4  3  2  0
  5  6  1  0
  7  6  1  1
  7  9  1  0
  7  8  1  0
  8  3  1  0
  9 15  1  0
 10  9  2  0
 12 11  1  6
 12 13  1  0
 14 12  1  0
 14 16  1  0
 14 15  1  6
 16 17  2  0
 16 18  1  0
M  END
$$$$
