GST.pdb
     RDKit          3D

 18 17  0  0  1  0  0  0  0  0999 V2000
   17.8652  -11.0151  -18.0451 N   0  0  0  0  0  0  0  0  0  0  0  0
   18.0907   -9.5961  -18.1107 C   0  0  0  0  0  0  0  0  0  0  0  0
   18.8034   -9.1225  -16.8764 C   0  0  0  0  0  0  0  0  0  0  0  0
   18.1714   -8.6558  -15.9101 O   0  0  0  0  0  0  0  0  0  0  0  0
   21.9481  -10.8288  -14.6940 O   0  0  0  0  0  0  0  0  0  0  0  0
   22.1810   -9.6360  -15.3487 C   0  0  0  0  0  0  0  0  0  0  0  0
   20.9380   -8.8349  -15.5894 C   0  0  2  0  0  0  0  0  0  0  0  0
   20.2167   -9.1865  -16.7605 N   0  0  0  0  0  0  0  0  0  0  0  0
   21.3492   -7.3951  -15.6573 C   0  0  0  0  0  0  0  0  0  0  0  0
   21.9942   -6.9473  -16.6420 O   0  0  0  0  0  0  0  0  0  0  0  0
   19.2506   -4.5489  -15.8894 C   0  0  0  0  0  0  0  0  0  0  0  0
   20.1156   -4.2291  -14.6912 C   0  0  1  0  0  0  0  0  0  0  0  0
   19.3798   -4.5432  -13.5502 O   0  0  0  0  0  0  0  0  0  0  0  0
   21.3982   -5.0547  -14.7087 C   0  0  2  0  0  0  0  0  0  0  0  0
   21.0327   -6.4761  -14.6222 N   0  0  0  0  0  0  0  0  0  0  0  0
   22.2906   -4.7002  -13.5982 C   0  0  0  0  0  0  0  0  0  0  0  0
   22.8993   -3.5867  -13.5401 O   0  0  0  0  0  0  0  0  0  0  0  0
   22.4744   -5.6146  -12.5775 O   0  0  0  0  0  0  0  0  0  0  0  0
  2  1  1  0
  3  2  1  0
  4  3  2  0
  5  6  1  0
  7  6  1  6
  7  9  1  0
  7  8  1  0
  8  3  1  0
  9 15  1  0
 10  9  2  0
 12 11  1  6
 12 13  1  0
 14 12  1  0
 14 16  1  0
 14 15  1  1
 16 17  2  0
 16 18  1  0
M  END
$$$$
