GIA.pdb
     RDKit          3D

 18 17  0  0  1  0  0  0  0  0999 V2000
    6.9858  -14.6962   20.0144 N   0  0  0  0  0  0  0  0  0  0  0  0
    6.3262  -14.8110   21.2809 C   0  0  0  0  0  0  0  0  0  0  0  0
    7.2599  -14.6308   22.4271 C   0  0  0  0  0  0  0  0  0  0  0  0
    8.4672  -14.5993   22.1941 O   0  0  0  0  0  0  0  0  0  0  0  0
    5.8852  -11.4088   26.6327 C   0  0  0  0  0  0  0  0  0  0  0  0
    6.5097  -12.1565   25.4690 C   0  0  0  0  0  0  0  0  0  0  0  0
    7.1286  -13.4214   25.9491 C   0  0  2  0  0  0  0  0  0  0  0  0
    8.1793  -13.1988   27.0172 C   0  0  0  0  0  0  0  0  0  0  0  0
    7.6107  -14.3546   24.9136 C   0  0  2  0  0  0  0  0  0  0  0  0
    6.7614  -14.4995   23.7527 N   0  0  0  0  0  0  0  0  0  0  0  0
    8.2768  -15.5970   25.3492 C   0  0  0  0  0  0  0  0  0  0  0  0
    7.6956  -16.5362   25.9458 O   0  0  0  0  0  0  0  0  0  0  0  0
   11.6215  -17.2116   24.6882 C   0  0  0  0  0  0  0  0  0  0  0  0
   10.3349  -17.0444   25.4889 C   0  0  2  0  0  0  0  0  0  0  0  0
    9.6626  -15.8033   25.1126 N   0  0  0  0  0  0  0  0  0  0  0  0
   10.5757  -17.1291   26.9292 C   0  0  0  0  0  0  0  0  0  0  0  0
   10.6079  -16.1028   27.6449 O   0  0  0  0  0  0  0  0  0  0  0  0
   10.7732  -18.3610   27.5237 O   0  0  0  0  0  0  0  0  0  0  0  0
  1  2  1  0
  2  3  1  0
  3 10  1  0
  3  4  2  0
  6  7  1  0
  6  5  1  0
  7  8  1  1
  9  7  1  0
  9 10  1  1
 11  9  1  0
 11 15  1  0
 12 11  2  0
 14 13  1  6
 14 15  1  0
 14 16  1  0
 16 18  1  0
 17 16  2  0
M  END
$$$$
