GIA.pdb
     RDKit          3D

 18 17  0  0  1  0  0  0  0  0999 V2000
    8.3437  -18.4768   16.4883 N   0  0  0  0  0  0  0  0  0  0  0  0
    7.5384  -17.9923   17.5695 C   0  0  0  0  0  0  0  0  0  0  0  0
    8.3308  -17.2232   18.5689 C   0  0  0  0  0  0  0  0  0  0  0  0
    9.5575  -17.2992   18.5213 O   0  0  0  0  0  0  0  0  0  0  0  0
    6.9590  -12.1720   20.3162 C   0  0  0  0  0  0  0  0  0  0  0  0
    7.6771  -13.4158   19.8257 C   0  0  0  0  0  0  0  0  0  0  0  0
    7.8368  -14.3860   20.9423 C   0  0  2  0  0  0  0  0  0  0  0  0
    8.5544  -13.7982   22.1397 C   0  0  0  0  0  0  0  0  0  0  0  0
    8.3817  -15.7111   20.5921 C   0  0  2  0  0  0  0  0  0  0  0  0
    7.6793  -16.4244   19.5491 N   0  0  0  0  0  0  0  0  0  0  0  0
    8.8997  -16.5625   21.6801 C   0  0  0  0  0  0  0  0  0  0  0  0
    8.1778  -17.1235   22.5404 O   0  0  0  0  0  0  0  0  0  0  0  0
   11.7824  -18.6819   22.3077 C   0  0  0  0  0  0  0  0  0  0  0  0
   10.8317  -17.6401   22.8869 C   0  0  2  0  0  0  0  0  0  0  0  0
   10.2938  -16.7984   21.8210 N   0  0  0  0  0  0  0  0  0  0  0  0
   11.4650  -16.8551   23.9462 C   0  0  0  0  0  0  0  0  0  0  0  0
   11.7724  -15.6545   23.7711 O   0  0  0  0  0  0  0  0  0  0  0  0
   11.7346  -17.4391   25.1694 O   0  0  0  0  0  0  0  0  0  0  0  0
  1  2  1  0
  2  3  1  0
  3 10  1  0
  3  4  2  0
  6  7  1  0
  6  5  1  0
  7  8  1  1
  9  7  1  0
  9 10  1  1
 11  9  1  0
 11 15  1  0
 12 11  2  0
 14 13  1  6
 14 15  1  0
 14 16  1  0
 16 18  1  0
 17 16  2  0
M  END
$$$$
