GIA.pdb
     RDKit          3D

 18 17  0  0  1  0  0  0  0  0999 V2000
    6.9909  -14.6058   19.9966 N   0  0  0  0  0  0  0  0  0  0  0  0
    6.3281  -14.6642   21.2653 C   0  0  0  0  0  0  0  0  0  0  0  0
    7.2613  -14.4466   22.4054 C   0  0  0  0  0  0  0  0  0  0  0  0
    8.4662  -14.3839   22.1667 O   0  0  0  0  0  0  0  0  0  0  0  0
    5.8100  -11.4268   26.7117 C   0  0  0  0  0  0  0  0  0  0  0  0
    6.6007  -12.0394   25.5703 C   0  0  0  0  0  0  0  0  0  0  0  0
    7.1492  -13.3599   25.9813 C   0  0  2  0  0  0  0  0  0  0  0  0
    8.1807  -13.2552   27.0855 C   0  0  0  0  0  0  0  0  0  0  0  0
    7.6157  -14.2465   24.8987 C   0  0  2  0  0  0  0  0  0  0  0  0
    6.7649  -14.3158   23.7319 N   0  0  0  0  0  0  0  0  0  0  0  0
    8.2593  -15.5214   25.2692 C   0  0  0  0  0  0  0  0  0  0  0  0
    7.6563  -16.4880   25.7966 O   0  0  0  0  0  0  0  0  0  0  0  0
   11.5747  -17.1617   24.5609 C   0  0  0  0  0  0  0  0  0  0  0  0
   10.3039  -16.9897   25.3856 C   0  0  2  0  0  0  0  0  0  0  0  0
    9.6468  -15.7303   25.0452 N   0  0  0  0  0  0  0  0  0  0  0  0
   10.5661  -17.1077   26.8197 C   0  0  0  0  0  0  0  0  0  0  0  0
   10.8016  -16.0996   27.5231 O   0  0  0  0  0  0  0  0  0  0  0  0
   10.5564  -18.3515   27.4221 O   0  0  0  0  0  0  0  0  0  0  0  0
  1  2  1  0
  2  3  1  0
  3 10  1  0
  3  4  2  0
  6  7  1  0
  6  5  1  0
  7  8  1  1
  9  7  1  0
  9 10  1  6
 11  9  1  0
 11 15  1  0
 12 11  2  0
 14 13  1  6
 14 15  1  0
 14 16  1  0
 16 18  1  0
 17 16  2  0
M  END
$$$$
