GIA.pdb
     RDKit          3D

 18 17  0  0  1  0  0  0  0  0999 V2000
    7.4812  -14.9044   19.7912 N   0  0  0  0  0  0  0  0  0  0  0  0
    6.6951  -14.8975   20.9888 C   0  0  0  0  0  0  0  0  0  0  0  0
    7.5256  -14.7293   22.2135 C   0  0  0  0  0  0  0  0  0  0  0  0
    8.7306  -14.9628   22.1355 O   0  0  0  0  0  0  0  0  0  0  0  0
    7.5678  -11.4930   27.4316 C   0  0  0  0  0  0  0  0  0  0  0  0
    8.1446  -12.6633   26.6563 C   0  0  0  0  0  0  0  0  0  0  0  0
    7.2499  -13.0126   25.5201 C   0  0  2  0  0  0  0  0  0  0  0  0
    5.7997  -13.1601   25.9317 C   0  0  0  0  0  0  0  0  0  0  0  0
    7.6777  -14.1351   24.6643 C   0  0  2  0  0  0  0  0  0  0  0  0
    6.9339  -14.3094   23.4369 N   0  0  0  0  0  0  0  0  0  0  0  0
    8.0935  -15.3914   25.3170 C   0  0  0  0  0  0  0  0  0  0  0  0
    7.2955  -16.2393   25.7862 O   0  0  0  0  0  0  0  0  0  0  0  0
   11.1384  -17.4953   25.2166 C   0  0  0  0  0  0  0  0  0  0  0  0
    9.9056  -17.0145   25.9741 C   0  0  2  0  0  0  0  0  0  0  0  0
    9.4687  -15.7192   25.4589 N   0  0  0  0  0  0  0  0  0  0  0  0
   10.1310  -16.9884   27.4191 C   0  0  0  0  0  0  0  0  0  0  0  0
   10.1271  -15.9125   28.0588 O   0  0  0  0  0  0  0  0  0  0  0  0
   10.3539  -18.1682   28.1034 O   0  0  0  0  0  0  0  0  0  0  0  0
  1  2  1  0
  2  3  1  0
  3 10  1  0
  3  4  2  0
  6  7  1  0
  6  5  1  0
  7  8  1  1
  9  7  1  0
  9 10  1  6
 11  9  1  0
 11 15  1  0
 12 11  2  0
 14 13  1  6
 14 15  1  0
 14 16  1  0
 16 18  1  0
 17 16  2  0
M  END
$$$$
