GIA.pdb
     RDKit          3D

 18 17  0  0  1  0  0  0  0  0999 V2000
    7.3389  -15.3027   19.9014 N   0  0  0  0  0  0  0  0  0  0  0  0
    6.6530  -15.1821   21.1533 C   0  0  0  0  0  0  0  0  0  0  0  0
    7.5753  -14.8662   22.2793 C   0  0  0  0  0  0  0  0  0  0  0  0
    8.7856  -14.8829   22.0615 O   0  0  0  0  0  0  0  0  0  0  0  0
    6.4747  -12.2121   27.5237 C   0  0  0  0  0  0  0  0  0  0  0  0
    6.3622  -13.1963   26.3739 C   0  0  0  0  0  0  0  0  0  0  0  0
    7.5791  -13.1249   25.5209 C   0  0  2  0  0  0  0  0  0  0  0  0
    7.6325  -11.8738   24.6687 C   0  0  0  0  0  0  0  0  0  0  0  0
    7.8988  -14.3253   24.7257 C   0  0  2  0  0  0  0  0  0  0  0  0
    7.0625  -14.5547   23.5689 N   0  0  0  0  0  0  0  0  0  0  0  0
    8.3091  -15.5482   25.4421 C   0  0  0  0  0  0  0  0  0  0  0  0
    7.5083  -16.3556   25.9738 O   0  0  0  0  0  0  0  0  0  0  0  0
   11.3072  -17.7182   25.4741 C   0  0  0  0  0  0  0  0  0  0  0  0
   10.1116  -17.1303   26.2154 C   0  0  2  0  0  0  0  0  0  0  0  0
    9.6821  -15.8882   25.5776 N   0  0  0  0  0  0  0  0  0  0  0  0
   10.3886  -16.9539   27.6408 C   0  0  0  0  0  0  0  0  0  0  0  0
   10.4431  -15.8149   28.1569 O   0  0  0  0  0  0  0  0  0  0  0  0
   10.5959  -18.0589   28.4445 O   0  0  0  0  0  0  0  0  0  0  0  0
  1  2  1  0
  2  3  1  0
  3 10  1  0
  3  4  2  0
  6  7  1  0
  6  5  1  0
  7  8  1  6
  9  7  1  0
  9 10  1  1
 11  9  1  0
 11 15  1  0
 12 11  2  0
 14 13  1  6
 14 15  1  0
 14 16  1  0
 16 18  1  0
 17 16  2  0
M  END
$$$$
