GIA.pdb
     RDKit          3D

 18 17  0  0  1  0  0  0  0  0999 V2000
    7.5814  -18.1279   16.9670 N   0  0  0  0  0  0  0  0  0  0  0  0
    7.1200  -18.2291   18.3195 C   0  0  0  0  0  0  0  0  0  0  0  0
    7.9485  -17.4300   19.2646 C   0  0  0  0  0  0  0  0  0  0  0  0
    9.1278  -17.7455   19.4137 O   0  0  0  0  0  0  0  0  0  0  0  0
    6.9442  -12.0253   20.0807 C   0  0  0  0  0  0  0  0  0  0  0  0
    7.5984  -13.3682   19.8124 C   0  0  0  0  0  0  0  0  0  0  0  0
    7.7086  -14.1434   21.0775 C   0  0  2  0  0  0  0  0  0  0  0  0
    8.5257  -13.4342   22.1375 C   0  0  0  0  0  0  0  0  0  0  0  0
    8.1102  -15.5570   20.9522 C   0  0  2  0  0  0  0  0  0  0  0  0
    7.3839  -16.3329   19.9721 N   0  0  0  0  0  0  0  0  0  0  0  0
    8.4662  -16.2930   22.1805 C   0  0  0  0  0  0  0  0  0  0  0  0
    7.6502  -16.5838   23.0891 O   0  0  0  0  0  0  0  0  0  0  0  0
   10.6462  -18.8895   23.1836 C   0  0  0  0  0  0  0  0  0  0  0  0
   10.1677  -17.5010   23.5931 C   0  0  2  0  0  0  0  0  0  0  0  0
    9.8002  -16.7240   22.4119 N   0  0  0  0  0  0  0  0  0  0  0  0
   11.1519  -16.8103   24.4261 C   0  0  0  0  0  0  0  0  0  0  0  0
   11.7306  -15.7750   24.0264 O   0  0  0  0  0  0  0  0  0  0  0  0
   11.4578  -17.3006   25.6815 O   0  0  0  0  0  0  0  0  0  0  0  0
  1  2  1  0
  2  3  1  0
  3 10  1  0
  3  4  2  0
  6  7  1  0
  6  5  1  0
  7  8  1  1
  9  7  1  0
  9 10  1  1
 11  9  1  0
 11 15  1  0
 12 11  2  0
 14 13  1  6
 14 15  1  0
 14 16  1  0
 16 18  1  0
 17 16  2  0
M  END
$$$$
