GIA.pdb
     RDKit          3D

 18 17  0  0  1  0  0  0  0  0999 V2000
    5.0452  -18.9268   18.6226 N   0  0  0  0  0  0  0  0  0  0  0  0
    5.1659  -18.1649   19.8298 C   0  0  0  0  0  0  0  0  0  0  0  0
    6.5108  -17.5425   19.9777 C   0  0  0  0  0  0  0  0  0  0  0  0
    7.4629  -18.0731   19.4079 O   0  0  0  0  0  0  0  0  0  0  0  0
    7.7915  -11.9293   21.5284 C   0  0  0  0  0  0  0  0  0  0  0  0
    7.5731  -13.3926   21.8663 C   0  0  0  0  0  0  0  0  0  0  0  0
    7.9556  -14.2456   20.7088 C   0  0  2  0  0  0  0  0  0  0  0  0
    7.2125  -13.8880   19.4383 C   0  0  0  0  0  0  0  0  0  0  0  0
    7.9545  -15.7032   20.9344 C   0  0  2  0  0  0  0  0  0  0  0  0
    6.6817  -16.3660   20.7586 N   0  0  0  0  0  0  0  0  0  0  0  0
    8.7831  -16.2404   22.0306 C   0  0  0  0  0  0  0  0  0  0  0  0
    8.4227  -16.2792   23.2325 O   0  0  0  0  0  0  0  0  0  0  0  0
   11.5223  -18.6560   22.3449 C   0  0  0  0  0  0  0  0  0  0  0  0
   10.8964  -17.3542   22.8330 C   0  0  2  0  0  0  0  0  0  0  0  0
   10.0821  -16.7576   21.7771 N   0  0  0  0  0  0  0  0  0  0  0  0
   11.9031  -16.4260   23.3473 C   0  0  0  0  0  0  0  0  0  0  0  0
   12.2211  -15.3945   22.7136 O   0  0  0  0  0  0  0  0  0  0  0  0
   12.5229  -16.6816   24.5558 O   0  0  0  0  0  0  0  0  0  0  0  0
  1  2  1  0
  2  3  1  0
  3 10  1  0
  3  4  2  0
  6  7  1  0
  6  5  1  0
  7  8  1  6
  9  7  1  0
  9 10  1  1
 11  9  1  0
 11 15  1  0
 12 11  2  0
 14 13  1  6
 14 15  1  0
 14 16  1  0
 16 18  1  0
 17 16  2  0
M  END
$$$$
