GIA.pdb
     RDKit          3D

 18 17  0  0  1  0  0  0  0  0999 V2000
    8.4345  -17.5419   21.5569 N   0  0  0  0  0  0  0  0  0  0  0  0
    7.7099  -17.3258   22.7737 C   0  0  0  0  0  0  0  0  0  0  0  0
    8.2609  -16.1948   23.5708 C   0  0  0  0  0  0  0  0  0  0  0  0
    9.3839  -15.7787   23.2905 O   0  0  0  0  0  0  0  0  0  0  0  0
    6.7190  -11.0618   26.3365 C   0  0  0  0  0  0  0  0  0  0  0  0
    7.7517  -12.1677   26.2196 C   0  0  0  0  0  0  0  0  0  0  0  0
    7.1339  -13.3807   25.6193 C   0  0  2  0  0  0  0  0  0  0  0  0
    5.8067  -13.7445   26.2522 C   0  0  0  0  0  0  0  0  0  0  0  0
    8.0021  -14.5653   25.4840 C   0  0  2  0  0  0  0  0  0  0  0  0
    7.5028  -15.6166   24.6263 N   0  0  0  0  0  0  0  0  0  0  0  0
    8.7304  -15.0370   26.6774 C   0  0  0  0  0  0  0  0  0  0  0  0
    8.2181  -15.7380   27.5840 O   0  0  0  0  0  0  0  0  0  0  0  0
   10.3755  -14.1140   29.2347 C   0  0  0  0  0  0  0  0  0  0  0  0
   10.8053  -15.0462   28.1073 C   0  0  2  0  0  0  0  0  0  0  0  0
   10.0985  -14.7080   26.8744 N   0  0  0  0  0  0  0  0  0  0  0  0
   10.6403  -16.4530   28.4722 C   0  0  0  0  0  0  0  0  0  0  0  0
    9.9462  -17.2284   27.7767 O   0  0  0  0  0  0  0  0  0  0  0  0
   11.2579  -16.9483   29.6049 O   0  0  0  0  0  0  0  0  0  0  0  0
  1  2  1  0
  2  3  1  0
  3 10  1  0
  3  4  2  0
  6  7  1  0
  6  5  1  0
  7  8  1  1
  9  7  1  0
  9 10  1  1
 11  9  1  0
 11 15  1  0
 12 11  2  0
 14 13  1  1
 14 15  1  0
 14 16  1  0
 16 18  1  0
 17 16  2  0
M  END
$$$$
