GIA.pdb
     RDKit          3D

 18 17  0  0  1  0  0  0  0  0999 V2000
    7.5745  -18.6079   17.0108 N   0  0  0  0  0  0  0  0  0  0  0  0
    7.0984  -18.3802   18.3426 C   0  0  0  0  0  0  0  0  0  0  0  0
    8.0008  -17.4905   19.1251 C   0  0  0  0  0  0  0  0  0  0  0  0
    9.2138  -17.6770   19.0449 O   0  0  0  0  0  0  0  0  0  0  0  0
    6.9086  -12.1346   20.2596 C   0  0  0  0  0  0  0  0  0  0  0  0
    7.5108  -13.4694   19.8610 C   0  0  0  0  0  0  0  0  0  0  0  0
    7.7994  -14.2810   21.0740 C   0  0  2  0  0  0  0  0  0  0  0  0
    8.6833  -13.5616   22.0717 C   0  0  0  0  0  0  0  0  0  0  0  0
    8.2653  -15.6622   20.8483 C   0  0  2  0  0  0  0  0  0  0  0  0
    7.4665  -16.4551   19.9410 N   0  0  0  0  0  0  0  0  0  0  0  0
    8.8196  -16.4079   21.9944 C   0  0  0  0  0  0  0  0  0  0  0  0
    8.1553  -16.7407   23.0062 O   0  0  0  0  0  0  0  0  0  0  0  0
   11.3898  -18.8482   22.6131 C   0  0  0  0  0  0  0  0  0  0  0  0
   10.7515  -17.5627   23.1277 C   0  0  2  0  0  0  0  0  0  0  0  0
   10.1851  -16.7999   22.0180 N   0  0  0  0  0  0  0  0  0  0  0  0
   11.6892  -16.7703   23.9228 C   0  0  0  0  0  0  0  0  0  0  0  0
   12.1363  -17.1924   25.0131 O   0  0  0  0  0  0  0  0  0  0  0  0
   12.0975  -15.5292   23.4724 O   0  0  0  0  0  0  0  0  0  0  0  0
  1  2  1  0
  2  3  1  0
  3 10  1  0
  3  4  2  0
  6  7  1  0
  6  5  1  0
  7  8  1  6
  9  7  1  0
  9 10  1  1
 11  9  1  0
 11 15  1  0
 12 11  2  0
 14 13  1  6
 14 15  1  0
 14 16  1  0
 16 18  1  0
 17 16  2  0
M  END
$$$$
