NKD.pdb
     RDKit          3D

 26 25  0  0  1  0  0  0  0  0999 V2000
   10.3410  -15.8495   13.3164 N   0  0  0  0  0  0  0  0  0  0  0  0
   11.4665  -15.5474   14.1187 C   0  0  0  0  0  0  0  0  0  0  0  0
   12.6399  -15.7341   13.6467 O   0  0  0  0  0  0  0  0  0  0  0  0
   11.2748  -15.0224   15.4821 C   0  0  0  0  0  0  0  0  0  0  0  0
   12.0600  -15.8959   16.4431 C   0  0  2  0  0  0  0  0  0  0  0  0
   11.4891  -17.2319   16.4300 N   0  0  0  0  0  0  0  0  0  0  0  0
   11.9711  -15.3083   17.7925 C   0  0  0  0  0  0  0  0  0  0  0  0
   12.6957  -14.3341   18.0853 O   0  0  0  0  0  0  0  0  0  0  0  0
   11.0677  -15.8569   18.7279 N   0  0  0  0  0  0  0  0  0  0  0  0
   10.9985  -15.4107   20.0941 C   0  0  1  0  0  0  0  0  0  0  0  0
    9.6190  -15.5933   20.6343 C   0  0  0  0  0  0  0  0  0  0  0  0
    8.5634  -14.9061   19.8396 C   0  0  0  0  0  0  0  0  0  0  0  0
    8.5012  -13.4482   20.1667 C   0  0  0  0  0  0  0  0  0  0  0  0
    7.4456  -12.7131   19.3686 C   0  0  0  0  0  0  0  0  0  0  0  0
    7.3697  -11.3479   19.8706 N   0  0  0  0  0  0  0  0  0  0  0  0
   11.9758  -16.1450   20.9608 C   0  0  0  0  0  0  0  0  0  0  0  0
   12.0405  -17.3901   20.8233 O   0  0  0  0  0  0  0  0  0  0  0  0
   12.7903  -15.4814   21.8901 N   0  0  0  0  0  0  0  0  0  0  0  0
   13.7582  -16.1753   22.7107 C   0  0  1  0  0  0  0  0  0  0  0  0
   14.9695  -15.3019   22.9819 C   0  0  0  0  0  0  0  0  0  0  0  0
   16.0367  -16.0601   23.6541 C   0  0  0  0  0  0  0  0  0  0  0  0
   16.0938  -17.3000   23.7533 O   0  0  0  0  0  0  0  0  0  0  0  0
   13.1497  -16.5096   24.0479 C   0  0  0  0  0  0  0  0  0  0  0  0
   13.2716  -15.6691   25.1440 O   0  0  0  0  0  0  0  0  0  0  0  0
   17.0851  -15.3130   24.2355 O   0  0  0  0  0  0  0  0  0  0  0  0
   12.5109  -17.5816   24.1888 O   0  0  0  0  0  0  0  0  0  0  0  0
  2  3  2  0
  2  1  1  0
  4  2  1  0
  5  4  1  0
  5  7  1  0
  5  6  1  1
  7  8  2  0
  9  7  1  0
  9 10  1  0
 10 11  1  1
 11 12  1  0
 13 12  1  0
 14 15  1  0
 14 13  1  0
 16 10  1  0
 16 17  2  0
 18 16  1  0
 19 18  1  0
 20 21  1  0
 19 20  1  1
 21 22  2  0
 23 19  1  0
 24 23  1  0
 25 21  1  0
 26 23  2  0
M  END
$$$$
