NKD.pdb
     RDKit          3D

 26 25  0  0  1  0  0  0  0  0999 V2000
   12.4231  -20.1243   17.9344 N   0  0  0  0  0  0  0  0  0  0  0  0
   13.2445  -19.7675   19.0297 C   0  0  0  0  0  0  0  0  0  0  0  0
   14.4981  -19.5996   18.8434 O   0  0  0  0  0  0  0  0  0  0  0  0
   12.6488  -19.5929   20.3661 C   0  0  0  0  0  0  0  0  0  0  0  0
   11.1796  -19.9644   20.2844 C   0  0  2  0  0  0  0  0  0  0  0  0
   10.4947  -18.9771   19.4676 N   0  0  0  0  0  0  0  0  0  0  0  0
   10.6226  -19.9831   21.6494 C   0  0  0  0  0  0  0  0  0  0  0  0
   10.9571  -19.0935   22.4597 O   0  0  0  0  0  0  0  0  0  0  0  0
    9.7207  -21.0054   22.0146 N   0  0  0  0  0  0  0  0  0  0  0  0
    9.0865  -21.0566   23.3053 C   0  0  1  0  0  0  0  0  0  0  0  0
    8.0136  -22.0944   23.3196 C   0  0  0  0  0  0  0  0  0  0  0  0
    7.3223  -22.2301   24.6318 C   0  0  0  0  0  0  0  0  0  0  0  0
    6.3117  -23.3320   24.6008 C   0  0  0  0  0  0  0  0  0  0  0  0
    5.4801  -23.4002   25.8639 C   0  0  0  0  0  0  0  0  0  0  0  0
    4.5386  -24.5028   25.7254 N   0  0  0  0  0  0  0  0  0  0  0  0
   10.0769  -21.3468   24.3917 C   0  0  0  0  0  0  0  0  0  0  0  0
   10.8884  -22.2822   24.1920 O   0  0  0  0  0  0  0  0  0  0  0  0
   10.1074  -20.6117   25.5859 N   0  0  0  0  0  0  0  0  0  0  0  0
   11.1099  -20.8267   26.6058 C   0  0  1  0  0  0  0  0  0  0  0  0
   12.3958  -20.0939   26.2698 C   0  0  0  0  0  0  0  0  0  0  0  0
   13.4935  -20.5023   27.1608 C   0  0  0  0  0  0  0  0  0  0  0  0
   13.3868  -21.2596   28.1435 O   0  0  0  0  0  0  0  0  0  0  0  0
   10.6247  -20.2806   27.9236 C   0  0  0  0  0  0  0  0  0  0  0  0
   11.2758  -20.5505   29.1178 O   0  0  0  0  0  0  0  0  0  0  0  0
   14.7776  -19.9889   26.8728 O   0  0  0  0  0  0  0  0  0  0  0  0
    9.5980  -19.5584   27.9562 O   0  0  0  0  0  0  0  0  0  0  0  0
  2  3  2  0
  2  1  1  0
  4  2  1  0
  5  4  1  0
  5  7  1  0
  5  6  1  6
  7  8  2  0
  9  7  1  0
  9 10  1  0
 10 11  1  6
 11 12  1  0
 13 12  1  0
 14 15  1  0
 14 13  1  0
 16 10  1  0
 16 17  2  0
 18 16  1  0
 19 18  1  0
 20 21  1  0
 19 20  1  6
 21 22  2  0
 23 19  1  0
 24 23  1  0
 25 21  1  0
 26 23  2  0
M  END
$$$$
