NKD.pdb
     RDKit          3D

 26 25  0  0  1  0  0  0  0  0999 V2000
   16.9579  -15.1352   16.1654 N   0  0  0  0  0  0  0  0  0  0  0  0
   15.9338  -15.9038   16.7672 C   0  0  0  0  0  0  0  0  0  0  0  0
   15.4256  -16.8838   16.1224 O   0  0  0  0  0  0  0  0  0  0  0  0
   15.4675  -15.5689   18.1243 C   0  0  0  0  0  0  0  0  0  0  0  0
   14.1142  -14.8918   18.0089 C   0  0  2  0  0  0  0  0  0  0  0  0
   14.3025  -13.5700   17.4361 N   0  0  0  0  0  0  0  0  0  0  0  0
   13.5215  -14.7928   19.3553 C   0  0  0  0  0  0  0  0  0  0  0  0
   14.1369  -14.1783   20.2517 O   0  0  0  0  0  0  0  0  0  0  0  0
   12.2689  -15.3931   19.6057 N   0  0  0  0  0  0  0  0  0  0  0  0
   11.5334  -15.1757   20.8232 C   0  0  1  0  0  0  0  0  0  0  0  0
   10.0806  -14.9959   20.5311 C   0  0  0  0  0  0  0  0  0  0  0  0
    9.7772  -13.8089   19.6843 C   0  0  0  0  0  0  0  0  0  0  0  0
    8.3182  -13.7279   19.3669 C   0  0  0  0  0  0  0  0  0  0  0  0
    7.9767  -12.5534   18.4750 C   0  0  0  0  0  0  0  0  0  0  0  0
    6.5486  -12.6010   18.1931 N   0  0  0  0  0  0  0  0  0  0  0  0
   11.7132  -16.3126   21.7827 C   0  0  0  0  0  0  0  0  0  0  0  0
   11.4533  -17.4648   21.3607 O   0  0  0  0  0  0  0  0  0  0  0  0
   12.1533  -16.1118   23.0993 N   0  0  0  0  0  0  0  0  0  0  0  0
   12.2950  -17.1963   24.0455 C   0  0  1  0  0  0  0  0  0  0  0  0
   13.5548  -17.0343   24.8762 C   0  0  0  0  0  0  0  0  0  0  0  0
   14.7518  -16.9543   24.0238 C   0  0  0  0  0  0  0  0  0  0  0  0
   15.1199  -17.8190   23.2069 O   0  0  0  0  0  0  0  0  0  0  0  0
   11.1331  -17.1937   25.0049 C   0  0  0  0  0  0  0  0  0  0  0  0
   10.9789  -18.1690   25.9784 O   0  0  0  0  0  0  0  0  0  0  0  0
   15.5491  -15.7947   24.1456 O   0  0  0  0  0  0  0  0  0  0  0  0
   10.2682  -16.2863   24.9301 O   0  0  0  0  0  0  0  0  0  0  0  0
  2  3  2  0
  2  1  1  0
  4  2  1  0
  5  4  1  0
  5  7  1  0
  5  6  1  1
  7  8  2  0
  9  7  1  0
  9 10  1  0
 10 11  1  6
 11 12  1  0
 13 12  1  0
 14 15  1  0
 14 13  1  0
 16 10  1  0
 16 17  2  0
 18 16  1  0
 19 18  1  0
 20 21  1  0
 19 20  1  1
 21 22  2  0
 23 19  1  0
 24 23  1  0
 25 21  1  0
 26 23  2  0
M  END
$$$$
