NKD.pdb
     RDKit          3D

 26 25  0  0  1  0  0  0  0  0999 V2000
   11.5072  -17.8112   16.3562 N   0  0  0  0  0  0  0  0  0  0  0  0
   10.1413  -17.5042   16.5608 C   0  0  0  0  0  0  0  0  0  0  0  0
    9.2675  -17.9676   15.7508 O   0  0  0  0  0  0  0  0  0  0  0  0
    9.7428  -16.6591   17.7002 C   0  0  0  0  0  0  0  0  0  0  0  0
    9.7851  -17.5062   18.9587 C   0  0  2  0  0  0  0  0  0  0  0  0
    8.4900  -18.1402   19.1367 N   0  0  0  0  0  0  0  0  0  0  0  0
   10.0950  -16.6314   20.1043 C   0  0  0  0  0  0  0  0  0  0  0  0
   11.2367  -16.1353   20.2050 O   0  0  0  0  0  0  0  0  0  0  0  0
    9.0949  -16.3696   21.0653 N   0  0  0  0  0  0  0  0  0  0  0  0
    9.3540  -15.6348   22.2750 C   0  0  1  0  0  0  0  0  0  0  0  0
    8.0760  -15.1552   22.8792 C   0  0  0  0  0  0  0  0  0  0  0  0
    8.2572  -14.3725   24.1333 C   0  0  0  0  0  0  0  0  0  0  0  0
    6.9464  -13.8839   24.6617 C   0  0  0  0  0  0  0  0  0  0  0  0
    7.0993  -12.9942   25.8768 C   0  0  0  0  0  0  0  0  0  0  0  0
    5.7684  -12.5979   26.3164 N   0  0  0  0  0  0  0  0  0  0  0  0
   10.0971  -16.4684   23.2742 C   0  0  0  0  0  0  0  0  0  0  0  0
    9.6165  -17.5931   23.5523 O   0  0  0  0  0  0  0  0  0  0  0  0
   11.2812  -16.0232   23.8802 N   0  0  0  0  0  0  0  0  0  0  0  0
   12.0794  -16.8680   24.7409 C   0  0  1  0  0  0  0  0  0  0  0  0
   13.4720  -16.2946   24.9288 C   0  0  0  0  0  0  0  0  0  0  0  0
   14.2246  -16.2905   23.6642 C   0  0  0  0  0  0  0  0  0  0  0  0
   14.2161  -17.1982   22.8118 O   0  0  0  0  0  0  0  0  0  0  0  0
   11.4492  -16.9477   26.1072 C   0  0  0  0  0  0  0  0  0  0  0  0
   10.3083  -16.2312   26.4356 O   0  0  0  0  0  0  0  0  0  0  0  0
   15.0244  -15.1570   23.3980 O   0  0  0  0  0  0  0  0  0  0  0  0
   11.9646  -17.6809   26.9868 O   0  0  0  0  0  0  0  0  0  0  0  0
  2  3  2  0
  2  1  1  0
  4  2  1  0
  5  4  1  0
  5  7  1  0
  5  6  1  1
  7  8  2  0
  9  7  1  0
  9 10  1  0
 10 11  1  1
 11 12  1  0
 13 12  1  0
 14 15  1  0
 14 13  1  0
 16 10  1  0
 16 17  2  0
 18 16  1  0
 19 18  1  0
 20 21  1  0
 19 20  1  1
 21 22  2  0
 23 19  1  0
 24 23  1  0
 25 21  1  0
 26 23  2  0
M  END
$$$$
