NKD.pdb
     RDKit          3D

 26 25  0  0  1  0  0  0  0  0999 V2000
    6.1280  -12.7950   18.0374 N   0  0  0  0  0  0  0  0  0  0  0  0
    7.3593  -13.4820   17.9211 C   0  0  0  0  0  0  0  0  0  0  0  0
    7.6481  -14.0675   16.8218 O   0  0  0  0  0  0  0  0  0  0  0  0
    8.2912  -13.5140   19.0621 C   0  0  0  0  0  0  0  0  0  0  0  0
    8.4138  -14.9504   19.5362 C   0  0  2  0  0  0  0  0  0  0  0  0
    7.0800  -15.4843   19.7529 N   0  0  0  0  0  0  0  0  0  0  0  0
    9.1880  -14.9671   20.7909 C   0  0  0  0  0  0  0  0  0  0  0  0
   10.3364  -14.4764   20.8086 O   0  0  0  0  0  0  0  0  0  0  0  0
    8.6164  -15.5360   21.9491 N   0  0  0  0  0  0  0  0  0  0  0  0
    9.3552  -15.7179   23.1705 C   0  0  1  0  0  0  0  0  0  0  0  0
    8.4930  -16.3469   24.2142 C   0  0  0  0  0  0  0  0  0  0  0  0
    9.2248  -16.7231   25.4556 C   0  0  0  0  0  0  0  0  0  0  0  0
    8.3153  -17.3834   26.4421 C   0  0  0  0  0  0  0  0  0  0  0  0
    9.0301  -17.8021   27.7092 C   0  0  0  0  0  0  0  0  0  0  0  0
    8.0757  -18.5076   28.5535 N   0  0  0  0  0  0  0  0  0  0  0  0
   10.5738  -16.5624   22.9535 C   0  0  0  0  0  0  0  0  0  0  0  0
   10.4153  -17.6537   22.3556 O   0  0  0  0  0  0  0  0  0  0  0  0
   11.8439  -16.1623   23.3940 N   0  0  0  0  0  0  0  0  0  0  0  0
   13.0314  -16.9557   23.1663 C   0  0  1  0  0  0  0  0  0  0  0  0
   14.1440  -16.1136   22.5693 C   0  0  0  0  0  0  0  0  0  0  0  0
   15.3559  -16.9151   22.3358 C   0  0  0  0  0  0  0  0  0  0  0  0
   15.8138  -17.7795   23.1063 O   0  0  0  0  0  0  0  0  0  0  0  0
   13.5444  -17.4967   24.4757 C   0  0  0  0  0  0  0  0  0  0  0  0
   14.3853  -18.5974   24.5397 O   0  0  0  0  0  0  0  0  0  0  0  0
   16.0573  -16.6808   21.1323 O   0  0  0  0  0  0  0  0  0  0  0  0
   13.2057  -16.9439   25.5512 O   0  0  0  0  0  0  0  0  0  0  0  0
  2  3  2  0
  2  1  1  0
  4  2  1  0
  5  4  1  0
  5  7  1  0
  5  6  1  1
  7  8  2  0
  9  7  1  0
  9 10  1  0
 10 11  1  1
 11 12  1  0
 13 12  1  0
 14 15  1  0
 14 13  1  0
 16 10  1  0
 16 17  2  0
 18 16  1  0
 19 18  1  0
 20 21  1  0
 19 20  1  1
 21 22  2  0
 23 19  1  0
 24 23  1  0
 25 21  1  0
 26 23  2  0
M  END
$$$$
