NKD.pdb
     RDKit          3D

 26 25  0  0  1  0  0  0  0  0999 V2000
   14.3206  -14.5001   14.3085 N   0  0  0  0  0  0  0  0  0  0  0  0
   14.9259  -14.8344   15.5429 C   0  0  0  0  0  0  0  0  0  0  0  0
   15.9918  -15.5403   15.5464 O   0  0  0  0  0  0  0  0  0  0  0  0
   14.3249  -14.3665   16.8043 C   0  0  0  0  0  0  0  0  0  0  0  0
   13.9556  -15.5817   17.6349 C   0  0  2  0  0  0  0  0  0  0  0  0
   12.9575  -16.3527   16.9134 N   0  0  0  0  0  0  0  0  0  0  0  0
   13.4184  -15.1216   18.9285 C   0  0  0  0  0  0  0  0  0  0  0  0
   14.1372  -14.4283   19.6785 O   0  0  0  0  0  0  0  0  0  0  0  0
   12.1011  -15.4720   19.2947 N   0  0  0  0  0  0  0  0  0  0  0  0
   11.5029  -15.0542   20.5349 C   0  0  1  0  0  0  0  0  0  0  0  0
   10.0497  -14.7707   20.3449 C   0  0  0  0  0  0  0  0  0  0  0  0
    9.7729  -13.5825   19.4906 C   0  0  0  0  0  0  0  0  0  0  0  0
    8.3051  -13.4072   19.2648 C   0  0  0  0  0  0  0  0  0  0  0  0
    7.9893  -12.2650   18.3228 C   0  0  0  0  0  0  0  0  0  0  0  0
    6.5618  -12.2983   18.0356 N   0  0  0  0  0  0  0  0  0  0  0  0
   11.6742  -16.0911   21.6030 C   0  0  0  0  0  0  0  0  0  0  0  0
   11.3482  -17.2679   21.3164 O   0  0  0  0  0  0  0  0  0  0  0  0
   12.1770  -15.7740   22.8734 N   0  0  0  0  0  0  0  0  0  0  0  0
   12.4491  -16.7807   23.8754 C   0  0  1  0  0  0  0  0  0  0  0  0
   13.7717  -16.5149   24.5708 C   0  0  0  0  0  0  0  0  0  0  0  0
   14.8754  -16.4160   23.6025 C   0  0  0  0  0  0  0  0  0  0  0  0
   15.0151  -17.1227   22.5868 O   0  0  0  0  0  0  0  0  0  0  0  0
   11.3804  -16.7481   24.9372 C   0  0  0  0  0  0  0  0  0  0  0  0
   11.3578  -17.6523   25.9882 O   0  0  0  0  0  0  0  0  0  0  0  0
   15.8591  -15.4329   23.8501 O   0  0  0  0  0  0  0  0  0  0  0  0
   10.4740  -15.8809   24.8793 O   0  0  0  0  0  0  0  0  0  0  0  0
  2  3  2  0
  2  1  1  0
  4  2  1  0
  5  4  1  0
  5  7  1  0
  5  6  1  6
  7  8  2  0
  9  7  1  0
  9 10  1  0
 10 11  1  6
 11 12  1  0
 13 12  1  0
 14 15  1  0
 14 13  1  0
 16 10  1  0
 16 17  2  0
 18 16  1  0
 19 18  1  0
 20 21  1  0
 19 20  1  1
 21 22  2  0
 23 19  1  0
 24 23  1  0
 25 21  1  0
 26 23  2  0
M  END
$$$$
