NKD.pdb
     RDKit          3D

 26 25  0  0  1  0  0  0  0  0999 V2000
   13.1596  -19.3096   16.6515 N   0  0  0  0  0  0  0  0  0  0  0  0
   12.1013  -18.4087   16.3865 C   0  0  0  0  0  0  0  0  0  0  0  0
   11.6682  -18.2864   15.1899 O   0  0  0  0  0  0  0  0  0  0  0  0
   11.5120  -17.6264   17.4874 C   0  0  0  0  0  0  0  0  0  0  0  0
   10.3337  -18.4030   18.0455 C   0  0  2  0  0  0  0  0  0  0  0  0
    9.2081  -18.2562   17.1388 N   0  0  0  0  0  0  0  0  0  0  0  0
   10.0009  -17.8612   19.3758 C   0  0  0  0  0  0  0  0  0  0  0  0
   10.0072  -16.6249   19.5527 O   0  0  0  0  0  0  0  0  0  0  0  0
    9.6800  -18.7498   20.4243 N   0  0  0  0  0  0  0  0  0  0  0  0
    9.3002  -18.2975   21.7364 C   0  0  1  0  0  0  0  0  0  0  0  0
    8.1687  -19.1157   22.2642 C   0  0  0  0  0  0  0  0  0  0  0  0
    6.9018  -18.9604   21.4968 C   0  0  0  0  0  0  0  0  0  0  0  0
    5.8296  -19.8538   22.0339 C   0  0  0  0  0  0  0  0  0  0  0  0
    4.5556  -19.7962   21.2182 C   0  0  0  0  0  0  0  0  0  0  0  0
    3.6089  -20.7425   21.7924 N   0  0  0  0  0  0  0  0  0  0  0  0
   10.4518  -18.3614   22.6930 C   0  0  0  0  0  0  0  0  0  0  0  0
   10.8235  -19.4997   23.0667 O   0  0  0  0  0  0  0  0  0  0  0  0
   11.0967  -17.2062   23.1587 N   0  0  0  0  0  0  0  0  0  0  0  0
   12.1589  -17.2504   24.1392 C   0  0  1  0  0  0  0  0  0  0  0  0
   13.0060  -15.9923   24.0829 C   0  0  0  0  0  0  0  0  0  0  0  0
   13.8546  -15.9714   22.8807 C   0  0  0  0  0  0  0  0  0  0  0  0
   14.5360  -15.0052   22.4903 O   0  0  0  0  0  0  0  0  0  0  0  0
   11.5731  -17.3236   25.5255 C   0  0  0  0  0  0  0  0  0  0  0  0
   10.2162  -17.1629   25.7617 O   0  0  0  0  0  0  0  0  0  0  0  0
   13.8974  -17.1517   22.1059 O   0  0  0  0  0  0  0  0  0  0  0  0
   12.3267  -17.5343   26.5076 O   0  0  0  0  0  0  0  0  0  0  0  0
  2  3  2  0
  2  1  1  0
  4  2  1  0
  5  4  1  0
  5  7  1  0
  5  6  1  6
  7  8  2  0
  9  7  1  0
  9 10  1  0
 10 11  1  1
 11 12  1  0
 13 12  1  0
 14 15  1  0
 14 13  1  0
 16 10  1  0
 16 17  2  0
 18 16  1  0
 19 18  1  0
 20 21  1  0
 19 20  1  1
 21 22  2  0
 23 19  1  0
 24 23  1  0
 25 21  1  0
 26 23  2  0
M  END
$$$$
