SCM.pdb
     RDKit          3D

 21 20  0  0  1  0  0  0  0  0999 V2000
   15.6855  -10.5770  -11.1569 O   0  0  0  0  0  0  0  0  0  0  0  0
   15.9081  -10.2953   -9.8000 C   0  0  0  0  0  0  0  0  0  0  0  0
   15.1158   -9.0752   -9.3735 C   0  0  2  0  0  0  0  0  0  0  0  0
   13.7323   -9.3486   -9.7180 N   0  0  0  0  0  0  0  0  0  0  0  0
   15.5732   -7.8554  -10.0644 C   0  0  0  0  0  0  0  0  0  0  0  0
   15.0678   -7.4679  -11.1734 O   0  0  0  0  0  0  0  0  0  0  0  0
   16.6053   -7.0303   -9.5437 N   0  0  0  0  0  0  0  0  0  0  0  0
   17.1133   -5.8704  -10.2319 C   0  0  1  0  0  0  0  0  0  0  0  0
   17.1247   -4.7361   -9.2259 C   0  0  0  0  0  0  0  0  0  0  0  0
   15.4487   -4.1831   -8.8392 S   0  0  0  0  0  0  0  0  0  0  0  0
   18.4938   -6.0688  -10.7326 C   0  0  0  0  0  0  0  0  0  0  0  0
   19.1896   -6.9835  -10.1714 O   0  0  0  0  0  0  0  0  0  0  0  0
   22.5905   -9.8899  -12.7544 C   0  0  0  0  0  0  0  0  0  0  0  0
   21.5543   -9.1695  -14.0407 S   0  0  0  0  0  0  0  0  0  0  0  0
   21.4406   -7.3739  -13.7283 C   0  0  0  0  0  0  0  0  0  0  0  0
   20.1673   -7.0267  -13.0185 C   0  0  0  0  0  0  0  0  0  0  0  0
   20.2802   -5.6901  -12.3765 C   0  0  2  0  0  0  0  0  0  0  0  0
   19.0093   -5.2783  -11.7826 N   0  0  0  0  0  0  0  0  0  0  0  0
   20.6309   -4.6215  -13.3302 C   0  0  0  0  0  0  0  0  0  0  0  0
   19.6892   -3.9989  -14.1208 O   0  0  0  0  0  0  0  0  0  0  0  0
   21.8490   -4.2527  -13.4394 O   0  0  0  0  0  0  0  0  0  0  0  0
  2  1  1  0
  3  2  1  0
  3  4  1  6
  5  6  2  0
  5  3  1  0
  7  5  1  0
  8 11  1  0
  8  7  1  0
  8  9  1  1
 10  9  1  0
 11 12  2  0
 13 14  1  0
 15 14  1  0
 16 15  1  0
 17 16  1  6
 18 17  1  0
 18 11  1  0
 19 17  1  0
 20 19  1  0
 21 19  2  0
M  END
$$$$
