SCM.pdb
     RDKit          3D

 21 20  0  0  1  0  0  0  0  0999 V2000
   17.1027  -14.6511  -17.1429 O   0  0  0  0  0  0  0  0  0  0  0  0
   17.1289  -13.2480  -17.1184 C   0  0  0  0  0  0  0  0  0  0  0  0
   18.3950  -12.7516  -16.4482 C   0  0  2  0  0  0  0  0  0  0  0  0
   18.5025  -13.4773  -15.1955 N   0  0  0  0  0  0  0  0  0  0  0  0
   18.3437  -11.3015  -16.1852 C   0  0  0  0  0  0  0  0  0  0  0  0
   18.4497  -10.4336  -17.1184 O   0  0  0  0  0  0  0  0  0  0  0  0
   18.1730  -10.7732  -14.8780 N   0  0  0  0  0  0  0  0  0  0  0  0
   18.2344   -9.3643  -14.5804 C   0  0  1  0  0  0  0  0  0  0  0  0
   17.3950   -9.1438  -13.3372 C   0  0  0  0  0  0  0  0  0  0  0  0
   17.4757   -7.4251  -12.7856 S   0  0  0  0  0  0  0  0  0  0  0  0
   19.6154   -8.9041  -14.3031 C   0  0  0  0  0  0  0  0  0  0  0  0
   20.4831   -9.8026  -14.0283 O   0  0  0  0  0  0  0  0  0  0  0  0
   25.8366   -7.0268  -17.4012 C   0  0  0  0  0  0  0  0  0  0  0  0
   24.1537   -7.6699  -17.3636 S   0  0  0  0  0  0  0  0  0  0  0  0
   23.3973   -7.1676  -15.7792 C   0  0  0  0  0  0  0  0  0  0  0  0
   21.9783   -7.6399  -15.6821 C   0  0  0  0  0  0  0  0  0  0  0  0
   21.3672   -7.1844  -14.4053 C   0  0  2  0  0  0  0  0  0  0  0  0
   19.9487   -7.5328  -14.3425 N   0  0  0  0  0  0  0  0  0  0  0  0
   21.4186   -5.7207  -14.2327 C   0  0  0  0  0  0  0  0  0  0  0  0
   22.4804   -5.0856  -13.6254 O   0  0  0  0  0  0  0  0  0  0  0  0
   20.4484   -5.0046  -14.6540 O   0  0  0  0  0  0  0  0  0  0  0  0
  2  1  1  0
  3  2  1  0
  3  4  1  1
  5  6  2  0
  5  3  1  0
  7  5  1  0
  8 11  1  0
  8  7  1  0
  8  9  1  1
 10  9  1  0
 11 12  2  0
 13 14  1  0
 15 14  1  0
 16 15  1  0
 17 16  1  6
 18 17  1  0
 18 11  1  0
 19 17  1  0
 20 19  1  0
 21 19  2  0
M  END
$$$$
