SCM.pdb
     RDKit          3D

 21 20  0  0  1  0  0  0  0  0999 V2000
   17.1475  -13.2176  -13.5678 O   0  0  0  0  0  0  0  0  0  0  0  0
   17.8668  -12.4446  -14.4926 C   0  0  0  0  0  0  0  0  0  0  0  0
   16.9389  -11.8844  -15.5527 C   0  0  2  0  0  0  0  0  0  0  0  0
   16.6171  -12.9904  -16.4363 N   0  0  0  0  0  0  0  0  0  0  0  0
   17.5758  -10.7981  -16.3201 C   0  0  0  0  0  0  0  0  0  0  0  0
   18.1836  -11.0077  -17.4255 O   0  0  0  0  0  0  0  0  0  0  0  0
   17.5560   -9.4472  -15.8820 N   0  0  0  0  0  0  0  0  0  0  0  0
   18.1501   -8.3657  -16.6267 C   0  0  1  0  0  0  0  0  0  0  0  0
   17.0089   -7.5051  -17.1323 C   0  0  0  0  0  0  0  0  0  0  0  0
   15.8618   -7.0856  -15.8009 S   0  0  0  0  0  0  0  0  0  0  0  0
   19.0390   -7.5245  -15.7912 C   0  0  0  0  0  0  0  0  0  0  0  0
   18.7919   -7.4856  -14.5369 O   0  0  0  0  0  0  0  0  0  0  0  0
   25.1606   -6.1803  -16.9246 C   0  0  0  0  0  0  0  0  0  0  0  0
   24.8584   -4.8236  -15.7779 S   0  0  0  0  0  0  0  0  0  0  0  0
   23.1640   -5.0108  -15.1228 C   0  0  0  0  0  0  0  0  0  0  0  0
   22.3472   -5.9243  -15.9854 C   0  0  0  0  0  0  0  0  0  0  0  0
   20.9596   -6.0282  -15.4609 C   0  0  2  0  0  0  0  0  0  0  0  0
   20.1083   -6.8016  -16.3633 N   0  0  0  0  0  0  0  0  0  0  0  0
   20.2965   -4.7181  -15.3243 C   0  0  0  0  0  0  0  0  0  0  0  0
   20.3853   -3.9617  -14.1757 O   0  0  0  0  0  0  0  0  0  0  0  0
   19.6090   -4.2581  -16.2976 O   0  0  0  0  0  0  0  0  0  0  0  0
  2  1  1  0
  3  2  1  0
  3  4  1  6
  5  6  2  0
  5  3  1  0
  7  5  1  0
  8 11  1  0
  8  7  1  0
  8  9  1  1
 10  9  1  0
 11 12  2  0
 13 14  1  0
 15 14  1  0
 16 15  1  0
 17 16  1  6
 18 17  1  0
 18 11  1  0
 19 17  1  0
 20 19  1  0
 21 19  2  0
M  END
$$$$
