SCM.pdb
     RDKit          3D

 21 20  0  0  1  0  0  0  0  0999 V2000
   19.8728  -21.2223  -15.8945 O   0  0  0  0  0  0  0  0  0  0  0  0
   20.0733  -19.8335  -15.9247 C   0  0  0  0  0  0  0  0  0  0  0  0
   21.3635  -19.4672  -15.2178 C   0  0  2  0  0  0  0  0  0  0  0  0
   22.4405  -19.8700  -16.1041 N   0  0  0  0  0  0  0  0  0  0  0  0
   21.4944  -20.1594  -13.9223 C   0  0  0  0  0  0  0  0  0  0  0  0
   22.3067  -21.1312  -13.7457 O   0  0  0  0  0  0  0  0  0  0  0  0
   20.7268  -19.7924  -12.7852 N   0  0  0  0  0  0  0  0  0  0  0  0
   20.7932  -20.4922  -11.5270 C   0  0  1  0  0  0  0  0  0  0  0  0
   20.7263  -19.4395  -10.4379 C   0  0  0  0  0  0  0  0  0  0  0  0
   20.8249  -20.1856   -8.7953 S   0  0  0  0  0  0  0  0  0  0  0  0
   19.6630  -21.4326  -11.3421 C   0  0  0  0  0  0  0  0  0  0  0  0
   18.5387  -21.0971  -11.8513 O   0  0  0  0  0  0  0  0  0  0  0  0
   17.0191  -28.6318  -10.0357 C   0  0  0  0  0  0  0  0  0  0  0  0
   18.4299  -27.5491   -9.7452 S   0  0  0  0  0  0  0  0  0  0  0  0
   17.9280  -25.8470  -10.1762 C   0  0  0  0  0  0  0  0  0  0  0  0
   19.0986  -24.9119  -10.1432 C   0  0  0  0  0  0  0  0  0  0  0  0
   18.6835  -23.5477  -10.5651 C   0  0  2  0  0  0  0  0  0  0  0  0
   19.8294  -22.6424  -10.6338 N   0  0  0  0  0  0  0  0  0  0  0  0
   17.7415  -22.9156   -9.6228 C   0  0  0  0  0  0  0  0  0  0  0  0
   16.3858  -23.1614   -9.6576 O   0  0  0  0  0  0  0  0  0  0  0  0
   18.1853  -22.1064   -8.7397 O   0  0  0  0  0  0  0  0  0  0  0  0
  2  1  1  0
  3  2  1  0
  3  4  1  6
  5  6  2  0
  5  3  1  0
  7  5  1  0
  8 11  1  0
  8  7  1  0
  8  9  1  1
 10  9  1  0
 11 12  2  0
 13 14  1  0
 15 14  1  0
 16 15  1  0
 17 16  1  1
 18 17  1  0
 18 11  1  0
 19 17  1  0
 20 19  1  0
 21 19  2  0
M  END
$$$$
