SCM.pdb
     RDKit          3D

 21 20  0  0  1  0  0  0  0  0999 V2000
   22.6043  -22.9354  -14.9315 O   0  0  0  0  0  0  0  0  0  0  0  0
   21.7789  -23.0967  -13.8078 C   0  0  0  0  0  0  0  0  0  0  0  0
   21.4076  -21.7480  -13.2231 C   0  0  2  0  0  0  0  0  0  0  0  0
   20.6545  -21.0530  -14.2514 N   0  0  0  0  0  0  0  0  0  0  0  0
   22.6004  -20.9620  -12.8572 C   0  0  0  0  0  0  0  0  0  0  0  0
   22.9451  -19.9071  -13.4927 O   0  0  0  0  0  0  0  0  0  0  0  0
   23.4452  -21.3247  -11.7747 N   0  0  0  0  0  0  0  0  0  0  0  0
   24.6808  -20.6464  -11.4743 C   0  0  1  0  0  0  0  0  0  0  0  0
   24.9669  -20.8902  -10.0055 C   0  0  0  0  0  0  0  0  0  0  0  0
   26.4753  -20.0456   -9.4802 S   0  0  0  0  0  0  0  0  0  0  0  0
   25.8193  -21.1664  -12.2678 C   0  0  0  0  0  0  0  0  0  0  0  0
   26.0617  -22.4193  -12.1840 O   0  0  0  0  0  0  0  0  0  0  0  0
   25.3266  -24.6601  -15.3686 C   0  0  0  0  0  0  0  0  0  0  0  0
   26.6633  -24.2072  -16.4890 S   0  0  0  0  0  0  0  0  0  0  0  0
   27.4883  -22.7274  -15.8075 C   0  0  0  0  0  0  0  0  0  0  0  0
   26.7103  -22.1517  -14.6634 C   0  0  0  0  0  0  0  0  0  0  0  0
   27.3692  -20.9181  -14.1579 C   0  0  2  0  0  0  0  0  0  0  0  0
   26.5960  -20.3090  -13.0770 N   0  0  0  0  0  0  0  0  0  0  0  0
   27.4953  -19.8699  -15.1876 C   0  0  0  0  0  0  0  0  0  0  0  0
   28.5953  -19.7734  -16.0122 O   0  0  0  0  0  0  0  0  0  0  0  0
   26.5593  -19.0122  -15.3279 O   0  0  0  0  0  0  0  0  0  0  0  0
  2  1  1  0
  3  2  1  0
  3  4  1  6
  5  6  2  0
  5  3  1  0
  7  5  1  0
  8 11  1  0
  8  7  1  0
  8  9  1  1
 10  9  1  0
 11 12  2  0
 13 14  1  0
 15 14  1  0
 16 15  1  0
 17 16  1  6
 18 17  1  0
 18 11  1  0
 19 17  1  0
 20 19  1  0
 21 19  2  0
M  END
$$$$
