SCM.pdb
     RDKit          3D

 21 20  0  0  1  0  0  0  0  0999 V2000
   22.0227  -16.7659  -17.3759 O   0  0  0  0  0  0  0  0  0  0  0  0
   22.2059  -15.3868  -17.5616 C   0  0  0  0  0  0  0  0  0  0  0  0
   21.2335  -14.8560  -18.5967 C   0  0  2  0  0  0  0  0  0  0  0  0
   21.5906  -15.4909  -19.8525 N   0  0  0  0  0  0  0  0  0  0  0  0
   21.3231  -13.3904  -18.7322 C   0  0  0  0  0  0  0  0  0  0  0  0
   22.1111  -12.8282  -19.5679 O   0  0  0  0  0  0  0  0  0  0  0  0
   20.5398  -12.5063  -17.9435 N   0  0  0  0  0  0  0  0  0  0  0  0
   20.6208  -11.0711  -18.0480 C   0  0  1  0  0  0  0  0  0  0  0  0
   19.1993  -10.5625  -18.1867 C   0  0  0  0  0  0  0  0  0  0  0  0
   18.5792  -10.7936  -19.8679 S   0  0  0  0  0  0  0  0  0  0  0  0
   21.2276  -10.4497  -16.8473 C   0  0  0  0  0  0  0  0  0  0  0  0
   20.7863  -10.8319  -15.7094 O   0  0  0  0  0  0  0  0  0  0  0  0
   27.2599  -11.1608  -14.5365 C   0  0  0  0  0  0  0  0  0  0  0  0
   26.6431  -10.4752  -16.0846 S   0  0  0  0  0  0  0  0  0  0  0  0
   24.8207  -10.4150  -15.9840 C   0  0  0  0  0  0  0  0  0  0  0  0
   24.3340   -9.0091  -15.8039 C   0  0  0  0  0  0  0  0  0  0  0  0
   22.8490   -8.9809  -15.7293 C   0  0  2  0  0  0  0  0  0  0  0  0
   22.2467   -9.4796  -16.9644 N   0  0  0  0  0  0  0  0  0  0  0  0
   22.3076   -7.6207  -15.5513 C   0  0  0  0  0  0  0  0  0  0  0  0
   22.3137   -6.9771  -14.3327 O   0  0  0  0  0  0  0  0  0  0  0  0
   21.8089   -7.0075  -16.5547 O   0  0  0  0  0  0  0  0  0  0  0  0
  2  1  1  0
  3  2  1  0
  3  4  1  6
  5  6  2  0
  5  3  1  0
  7  5  1  0
  8 11  1  0
  8  7  1  0
  8  9  1  1
 10  9  1  0
 11 12  2  0
 13 14  1  0
 15 14  1  0
 16 15  1  0
 17 16  1  6
 18 17  1  0
 18 11  1  0
 19 17  1  0
 20 19  1  0
 21 19  2  0
M  END
$$$$
