AFH.pdb
     RDKit          3D

 27 28  0  0  1  0  0  0  0  0999 V2000
   30.6875  -21.0665  -11.5829 C   0  0  0  0  0  0  0  0  0  0  0  0
   30.6157  -21.2455  -10.0944 C   0  0  2  0  0  0  0  0  0  0  0  0
   31.4758  -22.3212   -9.7129 N   0  0  0  0  0  0  0  0  0  0  0  0
   29.2293  -21.3903   -9.6000 C   0  0  0  0  0  0  0  0  0  0  0  0
   28.6985  -22.5308   -9.5964 O   0  0  0  0  0  0  0  0  0  0  0  0
   28.4365  -20.3167   -9.1193 N   0  0  0  0  0  0  0  0  0  0  0  0
   27.0498  -20.4635   -8.7312 C   0  0  1  0  0  0  0  0  0  0  0  0
   26.6428  -19.4580   -7.6797 C   0  0  0  0  0  0  0  0  0  0  0  0
   27.3235  -19.6991   -6.3876 C   0  0  0  0  0  0  0  0  0  0  0  0
   28.1940  -18.7455   -5.9151 C   0  0  0  0  0  0  0  0  0  0  0  0
   28.8490  -18.9291   -4.7171 C   0  0  0  0  0  0  0  0  0  0  0  0
   28.6375  -20.0669   -3.9847 C   0  0  0  0  0  0  0  0  0  0  0  0
   27.7713  -21.0341   -4.4378 C   0  0  0  0  0  0  0  0  0  0  0  0
   27.1230  -20.8443   -5.6312 C   0  0  0  0  0  0  0  0  0  0  0  0
   26.2190  -20.2123   -9.9272 C   0  0  0  0  0  0  0  0  0  0  0  0
   26.2472  -19.0719  -10.4499 O   0  0  0  0  0  0  0  0  0  0  0  0
   25.4144  -21.2420  -10.4611 N   0  0  0  0  0  0  0  0  0  0  0  0
   24.7597  -21.0820  -11.7759 C   0  0  1  0  0  0  0  0  0  0  0  0
   24.6500  -22.3867  -12.4809 C   0  0  0  0  0  0  0  0  0  0  0  0
   23.9723  -22.2286  -13.7813 C   0  0  0  0  0  0  0  0  0  0  0  0
   24.2422  -21.4876  -14.8949 C   0  0  0  0  0  0  0  0  0  0  0  0
   23.3364  -21.7485  -15.8847 N   0  0  0  0  0  0  0  0  0  0  0  0
   22.5148  -22.6535  -15.3682 C   0  0  0  0  0  0  0  0  0  0  0  0
   22.8677  -22.9597  -14.1176 N   0  0  0  0  0  0  0  0  0  0  0  0
   23.3289  -20.6637  -11.4735 C   0  0  0  0  0  0  0  0  0  0  0  0
   22.5706  -20.1080  -12.2469 O   0  0  0  0  0  0  0  0  0  0  0  0
   22.8198  -20.9370  -10.1855 O   0  0  0  0  0  0  0  0  0  0  0  0
  2  1  1  6
  2  3  1  0
  4  2  1  0
  5  4  2  0
  6  4  1  0
  7  6  1  0
  7  8  1  1
  9  8  1  0
 10  9  2  0
 11 10  1  0
 12 11  2  0
 12 13  1  0
 13 14  2  0
 14  9  1  0
 15 17  1  0
 15  7  1  0
 16 15  2  0
 18 25  1  0
 18 17  1  0
 18 19  1  1
 20 21  2  0
 20 19  1  0
 22 21  1  0
 23 24  2  0
 23 22  1  0
 24 20  1  0
 25 27  1  0
 26 25  2  0
M  END
$$$$
