AFH.pdb
     RDKit          3D

 27 28  0  0  1  0  0  0  0  0999 V2000
   34.7806  -27.7840    6.2892 C   0  0  0  0  0  0  0  0  0  0  0  0
   34.8824  -26.6602    5.2995 C   0  0  2  0  0  0  0  0  0  0  0  0
   35.8349  -27.0108    4.2934 N   0  0  0  0  0  0  0  0  0  0  0  0
   35.1491  -25.3539    5.9398 C   0  0  0  0  0  0  0  0  0  0  0  0
   36.3374  -25.0323    6.1988 O   0  0  0  0  0  0  0  0  0  0  0  0
   34.1441  -24.4166    6.2911 N   0  0  0  0  0  0  0  0  0  0  0  0
   34.4300  -23.1329    6.8959 C   0  0  1  0  0  0  0  0  0  0  0  0
   33.2819  -22.1628    6.7436 C   0  0  0  0  0  0  0  0  0  0  0  0
   33.1839  -21.6301    5.3661 C   0  0  0  0  0  0  0  0  0  0  0  0
   31.9477  -21.2611    4.8903 C   0  0  0  0  0  0  0  0  0  0  0  0
   31.8108  -20.7605    3.6142 C   0  0  0  0  0  0  0  0  0  0  0  0
   32.9086  -20.6259    2.8064 C   0  0  0  0  0  0  0  0  0  0  0  0
   34.1547  -20.9886    3.2612 C   0  0  0  0  0  0  0  0  0  0  0  0
   34.2831  -21.4861    4.5326 C   0  0  0  0  0  0  0  0  0  0  0  0
   34.6331  -23.3528    8.3431 C   0  0  0  0  0  0  0  0  0  0  0  0
   34.0423  -24.3130    8.8938 O   0  0  0  0  0  0  0  0  0  0  0  0
   35.4768  -22.4934    9.0796 N   0  0  0  0  0  0  0  0  0  0  0  0
   35.7411  -22.7422   10.5117 C   0  0  1  0  0  0  0  0  0  0  0  0
   37.1728  -23.0709   10.7419 C   0  0  0  0  0  0  0  0  0  0  0  0
   37.4396  -23.2929   12.1755 C   0  0  0  0  0  0  0  0  0  0  0  0
   36.6350  -23.4111   13.2712 C   0  0  0  0  0  0  0  0  0  0  0  0
   37.3714  -23.6901   14.3884 N   0  0  0  0  0  0  0  0  0  0  0  0
   38.6284  -23.7427   13.9664 C   0  0  0  0  0  0  0  0  0  0  0  0
   38.7012  -23.5108   12.6537 N   0  0  0  0  0  0  0  0  0  0  0  0
   35.5146  -21.4092   11.2084 C   0  0  0  0  0  0  0  0  0  0  0  0
   35.5557  -21.2172   12.4097 O   0  0  0  0  0  0  0  0  0  0  0  0
   35.2302  -20.2843   10.4041 O   0  0  0  0  0  0  0  0  0  0  0  0
  2  1  1  1
  2  3  1  0
  4  2  1  0
  5  4  2  0
  6  4  1  0
  7  6  1  0
  7  8  1  1
  9  8  1  0
 10  9  2  0
 11 10  1  0
 12 11  2  0
 12 13  1  0
 13 14  2  0
 14  9  1  0
 15 17  1  0
 15  7  1  0
 16 15  2  0
 18 25  1  0
 18 17  1  0
 18 19  1  6
 20 21  2  0
 20 19  1  0
 22 21  1  0
 23 24  2  0
 23 22  1  0
 24 20  1  0
 25 27  1  0
 26 25  2  0
M  END
$$$$
