AFH.pdb
     RDKit          3D

 27 28  0  0  1  0  0  0  0  0999 V2000
   21.3309  -21.7322   -8.6665 C   0  0  0  0  0  0  0  0  0  0  0  0
   22.5010  -22.0243   -7.7731 C   0  0  2  0  0  0  0  0  0  0  0  0
   22.0300  -22.2192   -6.4379 N   0  0  0  0  0  0  0  0  0  0  0  0
   23.5734  -21.0116   -7.8822 C   0  0  0  0  0  0  0  0  0  0  0  0
   23.2689  -19.7921   -7.8306 O   0  0  0  0  0  0  0  0  0  0  0  0
   24.9487  -21.3189   -8.0441 N   0  0  0  0  0  0  0  0  0  0  0  0
   25.9862  -20.3118   -8.1116 C   0  0  1  0  0  0  0  0  0  0  0  0
   27.3076  -20.8186   -7.5830 C   0  0  0  0  0  0  0  0  0  0  0  0
   27.6994  -20.1419   -6.3262 C   0  0  0  0  0  0  0  0  0  0  0  0
   27.7751  -18.7691   -6.3146 C   0  0  0  0  0  0  0  0  0  0  0  0
   28.1358  -18.0985   -5.1666 C   0  0  0  0  0  0  0  0  0  0  0  0
   28.4229  -18.7963   -4.0236 C   0  0  0  0  0  0  0  0  0  0  0  0
   28.3538  -20.1697   -4.0120 C   0  0  0  0  0  0  0  0  0  0  0  0
   27.9940  -20.8302   -5.1586 C   0  0  0  0  0  0  0  0  0  0  0  0
   26.1839  -19.9644   -9.5343 C   0  0  0  0  0  0  0  0  0  0  0  0
   26.8914  -18.9673   -9.8167 O   0  0  0  0  0  0  0  0  0  0  0  0
   25.5839  -20.7457  -10.5453 N   0  0  0  0  0  0  0  0  0  0  0  0
   25.8803  -20.4914  -11.9702 C   0  0  1  0  0  0  0  0  0  0  0  0
   26.2736  -21.7450  -12.6665 C   0  0  0  0  0  0  0  0  0  0  0  0
   26.5156  -21.4987  -14.1004 C   0  0  0  0  0  0  0  0  0  0  0  0
   26.4848  -20.3772  -14.8770 C   0  0  0  0  0  0  0  0  0  0  0  0
   26.8646  -20.6618  -16.1588 N   0  0  0  0  0  0  0  0  0  0  0  0
   27.1283  -21.9623  -16.1579 C   0  0  0  0  0  0  0  0  0  0  0  0
   26.9302  -22.4884  -14.9469 N   0  0  0  0  0  0  0  0  0  0  0  0
   24.5576  -20.0779  -12.5971 C   0  0  0  0  0  0  0  0  0  0  0  0
   23.4573  -20.2153  -12.0947 O   0  0  0  0  0  0  0  0  0  0  0  0
   24.5917  -19.4802  -13.8756 O   0  0  0  0  0  0  0  0  0  0  0  0
  2  1  1  6
  2  3  1  0
  4  2  1  0
  5  4  2  0
  6  4  1  0
  7  6  1  0
  7  8  1  6
  9  8  1  0
 10  9  2  0
 11 10  1  0
 12 11  2  0
 12 13  1  0
 13 14  2  0
 14  9  1  0
 15 17  1  0
 15  7  1  0
 16 15  2  0
 18 25  1  0
 18 17  1  0
 18 19  1  6
 20 21  2  0
 20 19  1  0
 22 21  1  0
 23 24  2  0
 23 22  1  0
 24 20  1  0
 25 27  1  0
 26 25  2  0
M  END
$$$$
