AFH.pdb
     RDKit          3D

 27 28  0  0  1  0  0  0  0  0999 V2000
   31.6229  -29.4515  -20.8303 C   0  0  0  0  0  0  0  0  0  0  0  0
   32.1318  -28.7059  -19.6311 C   0  0  2  0  0  0  0  0  0  0  0  0
   33.4598  -29.1456  -19.3386 N   0  0  0  0  0  0  0  0  0  0  0  0
   31.2129  -28.7830  -18.4748 C   0  0  0  0  0  0  0  0  0  0  0  0
   31.5377  -29.4851  -17.4828 O   0  0  0  0  0  0  0  0  0  0  0  0
   29.9664  -28.1103  -18.3989 N   0  0  0  0  0  0  0  0  0  0  0  0
   29.1252  -28.1245  -17.2209 C   0  0  1  0  0  0  0  0  0  0  0  0
   28.6798  -26.7372  -16.8219 C   0  0  0  0  0  0  0  0  0  0  0  0
   29.8257  -25.8560  -16.5037 C   0  0  0  0  0  0  0  0  0  0  0  0
   30.6715  -26.2202  -15.4826 C   0  0  0  0  0  0  0  0  0  0  0  0
   31.7503  -25.4295  -15.1528 C   0  0  0  0  0  0  0  0  0  0  0  0
   31.9899  -24.2703  -15.8418 C   0  0  0  0  0  0  0  0  0  0  0  0
   31.1572  -23.8863  -16.8667 C   0  0  0  0  0  0  0  0  0  0  0  0
   30.0854  -24.6785  -17.1892 C   0  0  0  0  0  0  0  0  0  0  0  0
   27.9109  -28.9020  -17.5448 C   0  0  0  0  0  0  0  0  0  0  0  0
   27.4580  -28.8499  -18.7138 O   0  0  0  0  0  0  0  0  0  0  0  0
   27.2826  -29.6830  -16.5509 N   0  0  0  0  0  0  0  0  0  0  0  0
   26.0481  -30.4364  -16.8529 C   0  0  1  0  0  0  0  0  0  0  0  0
   25.6187  -31.2497  -15.6845 C   0  0  0  0  0  0  0  0  0  0  0  0
   24.4089  -32.0315  -16.0014 C   0  0  0  0  0  0  0  0  0  0  0  0
   23.9994  -32.7176  -17.1076 C   0  0  0  0  0  0  0  0  0  0  0  0
   22.8107  -33.3511  -16.8755 N   0  0  0  0  0  0  0  0  0  0  0  0
   22.4996  -33.0482  -15.6215 C   0  0  0  0  0  0  0  0  0  0  0  0
   23.4317  -32.2644  -15.0747 N   0  0  0  0  0  0  0  0  0  0  0  0
   24.9620  -29.3876  -17.0373 C   0  0  0  0  0  0  0  0  0  0  0  0
   24.7944  -28.4052  -16.3383 O   0  0  0  0  0  0  0  0  0  0  0  0
   24.0596  -29.5539  -18.1102 O   0  0  0  0  0  0  0  0  0  0  0  0
  2  1  1  6
  2  3  1  0
  4  2  1  0
  5  4  2  0
  6  4  1  0
  7  6  1  0
  7  8  1  6
  9  8  1  0
 10  9  2  0
 11 10  1  0
 12 11  2  0
 12 13  1  0
 13 14  2  0
 14  9  1  0
 15 17  1  0
 15  7  1  0
 16 15  2  0
 18 25  1  0
 18 17  1  0
 18 19  1  1
 20 21  2  0
 20 19  1  0
 22 21  1  0
 23 24  2  0
 23 22  1  0
 24 20  1  0
 25 27  1  0
 26 25  2  0
M  END
$$$$
