CDN.pdb
     RDKit          3D

 23 22  0  0  1  0  0  0  0  0999 V2000
    7.4577  -15.3103   18.4573 N   0  0  0  0  0  0  0  0  0  0  0  0
    8.5126  -14.7971   19.2910 C   0  0  1  0  0  0  0  0  0  0  0  0
    8.1149  -13.5723   20.0574 C   0  0  0  0  0  0  0  0  0  0  0  0
    7.6174  -12.2151   18.9613 S   0  0  0  0  0  0  0  0  0  0  0  0
    8.9793  -15.8487   20.2380 C   0  0  0  0  0  0  0  0  0  0  0  0
    8.1574  -16.7569   20.5982 O   0  0  0  0  0  0  0  0  0  0  0  0
   10.3058  -15.8269   20.7167 N   0  0  0  0  0  0  0  0  0  0  0  0
   10.7523  -16.9252   21.5885 C   0  0  1  0  0  0  0  0  0  0  0  0
   11.6869  -17.8216   20.7952 C   0  0  0  0  0  0  0  0  0  0  0  0
   11.1911  -19.1919   20.6110 C   0  0  0  0  0  0  0  0  0  0  0  0
   11.1936  -19.6956   19.4520 O   0  0  0  0  0  0  0  0  0  0  0  0
   11.3726  -16.2936   22.7557 C   0  0  0  0  0  0  0  0  0  0  0  0
   12.3836  -15.5089   22.6653 O   0  0  0  0  0  0  0  0  0  0  0  0
   10.7235  -19.9346   21.6831 O   0  0  0  0  0  0  0  0  0  0  0  0
   12.4438  -14.6891   27.6180 N   0  0  0  0  0  0  0  0  0  0  0  0
   11.1945  -15.3816   27.6425 C   0  0  0  0  0  0  0  0  0  0  0  0
   10.5778  -15.3900   28.7320 O   0  0  0  0  0  0  0  0  0  0  0  0
   10.6637  -16.0530   26.4472 C   0  0  0  0  0  0  0  0  0  0  0  0
   11.5833  -15.8805   25.2407 C   0  0  2  0  0  0  0  0  0  0  0  0
   10.9430  -16.4617   24.1148 N   0  0  0  0  0  0  0  0  0  0  0  0
   12.9444  -16.2811   25.4988 C   0  0  0  0  0  0  0  0  0  0  0  0
   13.8408  -15.4539   25.7272 O   0  0  0  0  0  0  0  0  0  0  0  0
   13.2932  -17.6106   25.4990 O   0  0  0  0  0  0  0  0  0  0  0  0
  2  1  1  1
  2  5  1  0
  3  2  1  0
  4  3  1  0
  5  6  2  0
  7  8  1  0
  7  5  1  0
  8 12  1  0
  8  9  1  6
 10  9  1  0
 11 10  2  0
 12 20  1  0
 12 13  2  0
 14 10  1  0
 15 16  1  0
 16 17  2  0
 16 18  1  0
 19 18  1  1
 19 21  1  0
 20 19  1  0
 21 22  2  0
 21 23  1  0
M  END
$$$$
