CDN.pdb
     RDKit          3D

 23 22  0  0  1  0  0  0  0  0999 V2000
    7.1604  -14.5034   18.7985 N   0  0  0  0  0  0  0  0  0  0  0  0
    8.3979  -14.2732   19.4964 C   0  0  1  0  0  0  0  0  0  0  0  0
    8.2233  -13.4919   20.7634 C   0  0  0  0  0  0  0  0  0  0  0  0
    7.8759  -11.7408   20.4408 S   0  0  0  0  0  0  0  0  0  0  0  0
    9.0688  -15.5691   19.7977 C   0  0  0  0  0  0  0  0  0  0  0  0
    8.3553  -16.6251   19.8741 O   0  0  0  0  0  0  0  0  0  0  0  0
   10.4653  -15.6109   19.9913 N   0  0  0  0  0  0  0  0  0  0  0  0
   11.1051  -16.9219   20.1851 C   0  0  1  0  0  0  0  0  0  0  0  0
   12.1895  -17.0897   19.1353 C   0  0  0  0  0  0  0  0  0  0  0  0
   12.9595  -18.3342   19.2617 C   0  0  0  0  0  0  0  0  0  0  0  0
   12.3412  -19.4319   19.3593 O   0  0  0  0  0  0  0  0  0  0  0  0
   11.5972  -16.9360   21.5649 C   0  0  0  0  0  0  0  0  0  0  0  0
   12.1760  -15.9268   22.1060 O   0  0  0  0  0  0  0  0  0  0  0  0
   14.3449  -18.3209   19.2759 O   0  0  0  0  0  0  0  0  0  0  0  0
   12.0572  -17.3331   26.4882 N   0  0  0  0  0  0  0  0  0  0  0  0
   11.0936  -18.3066   26.0822 C   0  0  0  0  0  0  0  0  0  0  0  0
   10.3346  -18.7515   26.9728 O   0  0  0  0  0  0  0  0  0  0  0  0
   11.0027  -18.7636   24.6879 C   0  0  0  0  0  0  0  0  0  0  0  0
   12.0173  -18.0600   23.7898 C   0  0  2  0  0  0  0  0  0  0  0  0
   11.4983  -18.0466   22.4685 N   0  0  0  0  0  0  0  0  0  0  0  0
   13.3640  -18.5474   23.9592 C   0  0  0  0  0  0  0  0  0  0  0  0
   13.8726  -19.3601   23.1714 O   0  0  0  0  0  0  0  0  0  0  0  0
   14.1342  -18.1194   25.0141 O   0  0  0  0  0  0  0  0  0  0  0  0
  2  1  1  1
  2  5  1  0
  3  2  1  0
  4  3  1  0
  5  6  2  0
  7  8  1  0
  7  5  1  0
  8 12  1  0
  8  9  1  6
 10  9  1  0
 11 10  2  0
 12 20  1  0
 12 13  2  0
 14 10  1  0
 15 16  1  0
 16 17  2  0
 16 18  1  0
 19 18  1  1
 19 21  1  0
 20 19  1  0
 21 22  2  0
 21 23  1  0
M  END
$$$$
