CDN.pdb
     RDKit          3D

 23 22  0  0  1  0  0  0  0  0999 V2000
    7.1495  -16.9797   18.9209 N   0  0  0  0  0  0  0  0  0  0  0  0
    8.1018  -16.0241   19.4221 C   0  0  1  0  0  0  0  0  0  0  0  0
    7.4588  -14.8387   20.0758 C   0  0  0  0  0  0  0  0  0  0  0  0
    6.4204  -15.3181   21.4840 S   0  0  0  0  0  0  0  0  0  0  0  0
    9.0332  -16.6795   20.3828 C   0  0  0  0  0  0  0  0  0  0  0  0
    8.6529  -17.7450   20.9746 O   0  0  0  0  0  0  0  0  0  0  0  0
   10.3062  -16.1214   20.6218 N   0  0  0  0  0  0  0  0  0  0  0  0
   11.1717  -16.7592   21.6267 C   0  0  1  0  0  0  0  0  0  0  0  0
   12.6174  -16.4338   21.2950 C   0  0  0  0  0  0  0  0  0  0  0  0
   13.5890  -16.9696   22.2576 C   0  0  0  0  0  0  0  0  0  0  0  0
   13.2990  -18.0146   22.9061 O   0  0  0  0  0  0  0  0  0  0  0  0
   10.7257  -16.2556   22.9282 C   0  0  0  0  0  0  0  0  0  0  0  0
   10.5443  -15.0077   23.1647 O   0  0  0  0  0  0  0  0  0  0  0  0
   14.8104  -16.3488   22.4633 O   0  0  0  0  0  0  0  0  0  0  0  0
    6.3879  -15.5944   26.1688 N   0  0  0  0  0  0  0  0  0  0  0  0
    7.7640  -15.3012   25.9211 C   0  0  0  0  0  0  0  0  0  0  0  0
    8.3212  -14.5086   26.7140 O   0  0  0  0  0  0  0  0  0  0  0  0
    8.4861  -15.8992   24.7888 C   0  0  0  0  0  0  0  0  0  0  0  0
    9.7600  -16.6114   25.2370 C   0  0  2  0  0  0  0  0  0  0  0  0
   10.4389  -17.0672   24.0765 N   0  0  0  0  0  0  0  0  0  0  0  0
    9.5359  -17.5759   26.2855 C   0  0  0  0  0  0  0  0  0  0  0  0
    9.6799  -18.7943   26.0993 O   0  0  0  0  0  0  0  0  0  0  0  0
    9.1503  -17.1670   27.5399 O   0  0  0  0  0  0  0  0  0  0  0  0
  2  1  1  1
  2  5  1  0
  3  2  1  0
  4  3  1  0
  5  6  2  0
  7  8  1  0
  7  5  1  0
  8 12  1  0
  8  9  1  6
 10  9  1  0
 11 10  2  0
 12 20  1  0
 12 13  2  0
 14 10  1  0
 15 16  1  0
 16 17  2  0
 16 18  1  0
 19 18  1  6
 19 21  1  0
 20 19  1  0
 21 22  2  0
 21 23  1  0
M  END
$$$$
