CDN.pdb
     RDKit          3D

 23 22  0  0  1  0  0  0  0  0999 V2000
    5.2410  -14.2930   25.7317 N   0  0  0  0  0  0  0  0  0  0  0  0
    6.4507  -13.7497   25.1724 C   0  0  1  0  0  0  0  0  0  0  0  0
    7.2116  -12.8907   26.1363 C   0  0  0  0  0  0  0  0  0  0  0  0
    6.2507  -11.4459   26.6655 S   0  0  0  0  0  0  0  0  0  0  0  0
    7.3300  -14.8476   24.6807 C   0  0  0  0  0  0  0  0  0  0  0  0
    7.0330  -16.0520   24.9828 O   0  0  0  0  0  0  0  0  0  0  0  0
    8.4635  -14.5451   23.8978 N   0  0  0  0  0  0  0  0  0  0  0  0
    9.2366  -15.6598   23.3274 C   0  0  1  0  0  0  0  0  0  0  0  0
    9.9535  -15.1635   22.0840 C   0  0  0  0  0  0  0  0  0  0  0  0
   10.7092  -16.2026   21.3722 C   0  0  0  0  0  0  0  0  0  0  0  0
   11.9681  -16.2280   21.4780 O   0  0  0  0  0  0  0  0  0  0  0  0
   10.1305  -16.1233   24.3916 C   0  0  0  0  0  0  0  0  0  0  0  0
   11.1106  -16.9227   24.1760 O   0  0  0  0  0  0  0  0  0  0  0  0
   10.0650  -17.1486   20.5912 O   0  0  0  0  0  0  0  0  0  0  0  0
   11.2959  -13.7777   27.6476 N   0  0  0  0  0  0  0  0  0  0  0  0
   10.4531  -14.5649   28.4908 C   0  0  0  0  0  0  0  0  0  0  0  0
   10.0305  -14.0157   29.5334 O   0  0  0  0  0  0  0  0  0  0  0  0
   10.1041  -15.9517   28.1501 C   0  0  0  0  0  0  0  0  0  0  0  0
   10.7355  -16.3912   26.8313 C   0  0  2  0  0  0  0  0  0  0  0  0
   10.0328  -15.7540   25.7750 N   0  0  0  0  0  0  0  0  0  0  0  0
   10.9135  -17.8188   26.7315 C   0  0  0  0  0  0  0  0  0  0  0  0
   10.0044  -18.5688   26.3428 O   0  0  0  0  0  0  0  0  0  0  0  0
   12.1132  -18.3984   27.0693 O   0  0  0  0  0  0  0  0  0  0  0  0
  2  1  1  1
  2  5  1  0
  3  2  1  0
  4  3  1  0
  5  6  2  0
  7  8  1  0
  7  5  1  0
  8 12  1  0
  8  9  1  6
 10  9  1  0
 11 10  2  0
 12 20  1  0
 12 13  2  0
 14 10  1  0
 15 16  1  0
 16 17  2  0
 16 18  1  0
 19 18  1  1
 19 21  1  0
 20 19  1  0
 21 22  2  0
 21 23  1  0
M  END
$$$$
