CDN.pdb
     RDKit          3D

 23 22  0  0  1  0  0  0  0  0999 V2000
   12.7093  -18.0449   16.0479 N   0  0  0  0  0  0  0  0  0  0  0  0
   11.2713  -17.9884   16.0597 C   0  0  1  0  0  0  0  0  0  0  0  0
   10.6312  -19.1108   15.3004 C   0  0  0  0  0  0  0  0  0  0  0  0
    8.8200  -19.0205   15.3505 S   0  0  0  0  0  0  0  0  0  0  0  0
   10.7669  -17.9831   17.4619 C   0  0  0  0  0  0  0  0  0  0  0  0
    9.5863  -17.5522   17.6865 O   0  0  0  0  0  0  0  0  0  0  0  0
   11.5901  -18.4488   18.5082 N   0  0  0  0  0  0  0  0  0  0  0  0
   11.0445  -18.4593   19.8749 C   0  0  1  0  0  0  0  0  0  0  0  0
   11.2741  -19.8349   20.4757 C   0  0  0  0  0  0  0  0  0  0  0  0
   10.1660  -20.7753   20.2626 C   0  0  0  0  0  0  0  0  0  0  0  0
    8.9970  -20.4338   20.5999 O   0  0  0  0  0  0  0  0  0  0  0  0
   11.7155  -17.3713   20.5907 C   0  0  0  0  0  0  0  0  0  0  0  0
   11.4385  -16.1345   20.3916 O   0  0  0  0  0  0  0  0  0  0  0  0
   10.3835  -22.0231   19.7012 O   0  0  0  0  0  0  0  0  0  0  0  0
   10.6187  -17.3379   24.0720 N   0  0  0  0  0  0  0  0  0  0  0  0
   11.6693  -16.3750   24.1721 C   0  0  0  0  0  0  0  0  0  0  0  0
   12.1123  -16.1438   25.3201 O   0  0  0  0  0  0  0  0  0  0  0  0
   12.1995  -15.6889   22.9850 C   0  0  0  0  0  0  0  0  0  0  0  0
   13.3254  -16.4806   22.3242 C   0  0  2  0  0  0  0  0  0  0  0  0
   12.7398  -17.5396   21.5819 N   0  0  0  0  0  0  0  0  0  0  0  0
   14.3885  -16.8289   23.2343 C   0  0  0  0  0  0  0  0  0  0  0  0
   15.1294  -15.9707   23.7386 O   0  0  0  0  0  0  0  0  0  0  0  0
   14.6150  -18.1414   23.5741 O   0  0  0  0  0  0  0  0  0  0  0  0
  2  1  1  1
  2  5  1  0
  3  2  1  0
  4  3  1  0
  5  6  2  0
  7  8  1  0
  7  5  1  0
  8 12  1  0
  8  9  1  1
 10  9  1  0
 11 10  2  0
 12 20  1  0
 12 13  2  0
 14 10  1  0
 15 16  1  0
 16 17  2  0
 16 18  1  0
 19 18  1  1
 19 21  1  0
 20 19  1  0
 21 22  2  0
 21 23  1  0
M  END
$$$$
