CDN.pdb
     RDKit          3D

 23 22  0  0  1  0  0  0  0  0999 V2000
    8.1709  -14.1452   17.0884 N   0  0  0  0  0  0  0  0  0  0  0  0
    9.1228  -13.4290   17.8960 C   0  0  1  0  0  0  0  0  0  0  0  0
    8.4885  -12.6753   19.0254 C   0  0  0  0  0  0  0  0  0  0  0  0
    7.4372  -13.7415   20.0496 S   0  0  0  0  0  0  0  0  0  0  0  0
   10.1494  -14.3649   18.4350 C   0  0  0  0  0  0  0  0  0  0  0  0
    9.9493  -15.6213   18.3277 O   0  0  0  0  0  0  0  0  0  0  0  0
   11.3134  -13.8564   19.0480 N   0  0  0  0  0  0  0  0  0  0  0  0
   12.3890  -14.7988   19.3954 C   0  0  1  0  0  0  0  0  0  0  0  0
   13.7205  -14.1691   19.0258 C   0  0  0  0  0  0  0  0  0  0  0  0
   14.8872  -15.0036   19.3423 C   0  0  0  0  0  0  0  0  0  0  0  0
   14.8066  -16.2555   19.1902 O   0  0  0  0  0  0  0  0  0  0  0  0
   12.2354  -15.0848   20.8240 C   0  0  0  0  0  0  0  0  0  0  0  0
   13.1740  -15.5947   21.5348 O   0  0  0  0  0  0  0  0  0  0  0  0
   16.0666  -14.4408   19.8027 O   0  0  0  0  0  0  0  0  0  0  0  0
    8.2353  -15.8075   21.9638 N   0  0  0  0  0  0  0  0  0  0  0  0
    8.3964  -14.8138   22.9776 C   0  0  0  0  0  0  0  0  0  0  0  0
    7.3589  -14.2249   23.3572 O   0  0  0  0  0  0  0  0  0  0  0  0
    9.7165  -14.4984   23.5424 C   0  0  0  0  0  0  0  0  0  0  0  0
   10.8237  -15.3351   22.9059 C   0  0  2  0  0  0  0  0  0  0  0  0
   11.0509  -14.8379   21.5957 N   0  0  0  0  0  0  0  0  0  0  0  0
   10.6142  -16.7556   23.0398 C   0  0  0  0  0  0  0  0  0  0  0  0
   10.3442  -17.4748   22.0651 O   0  0  0  0  0  0  0  0  0  0  0  0
   10.7089  -17.3628   24.2693 O   0  0  0  0  0  0  0  0  0  0  0  0
  2  1  1  1
  2  5  1  0
  3  2  1  0
  4  3  1  0
  5  6  2  0
  7  8  1  0
  7  5  1  0
  8 12  1  0
  8  9  1  1
 10  9  1  0
 11 10  2  0
 12 20  1  0
 12 13  2  0
 14 10  1  0
 15 16  1  0
 16 17  2  0
 16 18  1  0
 19 18  1  6
 19 21  1  0
 20 19  1  0
 21 22  2  0
 21 23  1  0
M  END
$$$$
