CDN.pdb
     RDKit          3D

 23 22  0  0  1  0  0  0  0  0999 V2000
    7.8325  -14.3831   18.4705 N   0  0  0  0  0  0  0  0  0  0  0  0
    8.9661  -13.7783   19.1191 C   0  0  1  0  0  0  0  0  0  0  0  0
    8.7452  -13.5291   20.5803 C   0  0  0  0  0  0  0  0  0  0  0  0
    7.5021  -12.2401   20.8706 S   0  0  0  0  0  0  0  0  0  0  0  0
   10.1781  -14.6253   18.9350 C   0  0  0  0  0  0  0  0  0  0  0  0
   10.0335  -15.8126   18.4883 O   0  0  0  0  0  0  0  0  0  0  0  0
   11.4522  -14.1102   19.2522 N   0  0  0  0  0  0  0  0  0  0  0  0
   12.6364  -14.9127   18.9067 C   0  0  1  0  0  0  0  0  0  0  0  0
   13.6861  -13.9918   18.3099 C   0  0  0  0  0  0  0  0  0  0  0  0
   14.9106  -14.6784   17.8776 C   0  0  0  0  0  0  0  0  0  0  0  0
   15.3552  -15.6365   18.5712 O   0  0  0  0  0  0  0  0  0  0  0  0
   13.0537  -15.5779   20.1434 C   0  0  0  0  0  0  0  0  0  0  0  0
   13.9111  -16.5322   20.1632 O   0  0  0  0  0  0  0  0  0  0  0  0
   15.5805  -14.2921   16.7279 O   0  0  0  0  0  0  0  0  0  0  0  0
   15.3848  -15.9904   21.7828 N   0  0  0  0  0  0  0  0  0  0  0  0
   15.0498  -15.3902   23.0352 C   0  0  0  0  0  0  0  0  0  0  0  0
   15.9816  -14.8328   23.6584 O   0  0  0  0  0  0  0  0  0  0  0  0
   13.6789  -15.4297   23.5647 C   0  0  0  0  0  0  0  0  0  0  0  0
   12.7114  -16.1008   22.5928 C   0  0  2  0  0  0  0  0  0  0  0  0
   12.5750  -15.2585   21.4582 N   0  0  0  0  0  0  0  0  0  0  0  0
   11.4952  -16.5551   23.2207 C   0  0  0  0  0  0  0  0  0  0  0  0
   10.3784  -16.1555   22.8560 O   0  0  0  0  0  0  0  0  0  0  0  0
   11.5389  -17.4572   24.2568 O   0  0  0  0  0  0  0  0  0  0  0  0
  2  1  1  1
  2  5  1  0
  3  2  1  0
  4  3  1  0
  5  6  2  0
  7  8  1  0
  7  5  1  0
  8 12  1  0
  8  9  1  1
 10  9  1  0
 11 10  2  0
 12 20  1  0
 12 13  2  0
 14 10  1  0
 15 16  1  0
 16 17  2  0
 16 18  1  0
 19 18  1  1
 19 21  1  0
 20 19  1  0
 21 22  2  0
 21 23  1  0
M  END
$$$$
