CDN.pdb
     RDKit          3D

 23 22  0  0  1  0  0  0  0  0999 V2000
    7.9112  -15.7839   20.3998 N   0  0  0  0  0  0  0  0  0  0  0  0
    9.0505  -16.0546   21.2364 C   0  0  1  0  0  0  0  0  0  0  0  0
    8.9395  -15.4419   22.5996 C   0  0  0  0  0  0  0  0  0  0  0  0
    8.5358  -13.6750   22.5208 S   0  0  0  0  0  0  0  0  0  0  0  0
    9.2579  -17.5245   21.3654 C   0  0  0  0  0  0  0  0  0  0  0  0
    8.4578  -18.3117   20.7568 O   0  0  0  0  0  0  0  0  0  0  0  0
   10.3219  -18.0198   22.1476 N   0  0  0  0  0  0  0  0  0  0  0  0
   10.9145  -19.3160   21.7811 C   0  0  1  0  0  0  0  0  0  0  0  0
   11.5066  -19.1993   20.3875 C   0  0  0  0  0  0  0  0  0  0  0  0
   11.9547  -20.4766   19.8172 C   0  0  0  0  0  0  0  0  0  0  0  0
   13.1799  -20.6345   19.5514 O   0  0  0  0  0  0  0  0  0  0  0  0
   11.8934  -19.6273   22.8257 C   0  0  0  0  0  0  0  0  0  0  0  0
   13.1565  -19.4737   22.6616 O   0  0  0  0  0  0  0  0  0  0  0  0
   11.0585  -21.5033   19.5678 O   0  0  0  0  0  0  0  0  0  0  0  0
   14.9267  -17.6617   24.0572 N   0  0  0  0  0  0  0  0  0  0  0  0
   14.1153  -18.2408   25.0806 C   0  0  0  0  0  0  0  0  0  0  0  0
   14.7168  -18.7950   26.0285 O   0  0  0  0  0  0  0  0  0  0  0  0
   12.6474  -18.1898   25.0192 C   0  0  0  0  0  0  0  0  0  0  0  0
   12.0156  -19.5400   25.3491 C   0  0  2  0  0  0  0  0  0  0  0  0
   11.5786  -20.1284   24.1332 N   0  0  0  0  0  0  0  0  0  0  0  0
   11.0583  -19.4744   26.4257 C   0  0  0  0  0  0  0  0  0  0  0  0
   11.3857  -19.1473   27.5771 O   0  0  0  0  0  0  0  0  0  0  0  0
    9.7360  -19.7771   26.2039 O   0  0  0  0  0  0  0  0  0  0  0  0
  2  1  1  6
  2  5  1  0
  3  2  1  0
  4  3  1  0
  5  6  2  0
  7  8  1  0
  7  5  1  0
  8 12  1  0
  8  9  1  6
 10  9  1  0
 11 10  2  0
 12 20  1  0
 12 13  2  0
 14 10  1  0
 15 16  1  0
 16 17  2  0
 16 18  1  0
 19 18  1  6
 19 21  1  0
 20 19  1  0
 21 22  2  0
 21 23  1  0
M  END
$$$$
