CDN.pdb
     RDKit          3D

 23 22  0  0  1  0  0  0  0  0999 V2000
    8.2977  -15.5413   18.2894 N   0  0  0  0  0  0  0  0  0  0  0  0
    8.4409  -14.6825   19.4354 C   0  0  1  0  0  0  0  0  0  0  0  0
    7.9855  -13.2779   19.1798 C   0  0  0  0  0  0  0  0  0  0  0  0
    8.0259  -12.2648   20.6841 S   0  0  0  0  0  0  0  0  0  0  0  0
    7.6966  -15.2448   20.5974 C   0  0  0  0  0  0  0  0  0  0  0  0
    6.6929  -16.0016   20.3737 O   0  0  0  0  0  0  0  0  0  0  0  0
    8.1063  -14.9377   21.9116 N   0  0  0  0  0  0  0  0  0  0  0  0
    7.4132  -15.5946   23.0313 C   0  0  1  0  0  0  0  0  0  0  0  0
    7.6014  -17.0959   22.9014 C   0  0  0  0  0  0  0  0  0  0  0  0
    7.0412  -17.8695   24.0173 C   0  0  0  0  0  0  0  0  0  0  0  0
    5.9178  -17.5383   24.4917 O   0  0  0  0  0  0  0  0  0  0  0  0
    7.9798  -15.0216   24.2547 C   0  0  0  0  0  0  0  0  0  0  0  0
    8.3021  -13.7840   24.3572 O   0  0  0  0  0  0  0  0  0  0  0  0
    7.7233  -18.9497   24.5536 O   0  0  0  0  0  0  0  0  0  0  0  0
    6.1263  -12.2059   26.3811 N   0  0  0  0  0  0  0  0  0  0  0  0
    7.2901  -12.9571   26.7307 C   0  0  0  0  0  0  0  0  0  0  0  0
    8.3844  -12.3502   26.6886 O   0  0  0  0  0  0  0  0  0  0  0  0
    7.2042  -14.3729   27.1170 C   0  0  0  0  0  0  0  0  0  0  0  0
    8.4634  -15.1462   26.7328 C   0  0  2  0  0  0  0  0  0  0  0  0
    8.2397  -15.7464   25.4659 N   0  0  0  0  0  0  0  0  0  0  0  0
    8.9509  -16.0024   27.7859 C   0  0  0  0  0  0  0  0  0  0  0  0
    8.9600  -17.2385   27.6766 O   0  0  0  0  0  0  0  0  0  0  0  0
    9.4266  -15.4657   28.9585 O   0  0  0  0  0  0  0  0  0  0  0  0
  2  1  1  6
  2  5  1  0
  3  2  1  0
  4  3  1  0
  5  6  2  0
  7  8  1  0
  7  5  1  0
  8 12  1  0
  8  9  1  1
 10  9  1  0
 11 10  2  0
 12 20  1  0
 12 13  2  0
 14 10  1  0
 15 16  1  0
 16 17  2  0
 16 18  1  0
 19 18  1  1
 19 21  1  0
 20 19  1  0
 21 22  2  0
 21 23  1  0
M  END
$$$$
