CKD.pdb
     RDKit          3D

 24 23  0  0  1  0  0  0  0  0999 V2000
   10.2919  -17.9189   16.7374 N   0  0  0  0  0  0  0  0  0  0  0  0
    9.2058  -17.8954   17.6883 C   0  0  1  0  0  0  0  0  0  0  0  0
    8.7521  -19.2996   17.9836 C   0  0  0  0  0  0  0  0  0  0  0  0
   10.0201  -20.3360   18.7038 S   0  0  0  0  0  0  0  0  0  0  0  0
    9.5977  -17.1321   18.8709 C   0  0  0  0  0  0  0  0  0  0  0  0
   10.8071  -16.8167   19.0148 O   0  0  0  0  0  0  0  0  0  0  0  0
    8.7275  -16.7030   19.8945 N   0  0  0  0  0  0  0  0  0  0  0  0
    9.1293  -16.0239   21.1105 C   0  0  1  0  0  0  0  0  0  0  0  0
    7.9425  -15.4464   21.8449 C   0  0  0  0  0  0  0  0  0  0  0  0
    8.3693  -14.6356   23.0504 C   0  0  0  0  0  0  0  0  0  0  0  0
    7.2120  -14.0380   23.7815 C   0  0  0  0  0  0  0  0  0  0  0  0
    7.6242  -13.1817   24.9506 C   0  0  0  0  0  0  0  0  0  0  0  0
    6.4174  -12.6270   25.5352 N   0  0  0  0  0  0  0  0  0  0  0  0
    9.8908  -16.8679   22.0194 C   0  0  0  0  0  0  0  0  0  0  0  0
    9.5808  -18.0545   22.2636 O   0  0  0  0  0  0  0  0  0  0  0  0
   11.0351  -16.3455   22.6658 N   0  0  0  0  0  0  0  0  0  0  0  0
   11.8093  -17.1836   23.5482 C   0  0  1  0  0  0  0  0  0  0  0  0
   13.1654  -16.5810   23.7367 C   0  0  0  0  0  0  0  0  0  0  0  0
   13.9537  -16.6258   22.5079 C   0  0  0  0  0  0  0  0  0  0  0  0
   14.0079  -17.5894   21.7179 O   0  0  0  0  0  0  0  0  0  0  0  0
   11.1119  -17.4165   24.8355 C   0  0  0  0  0  0  0  0  0  0  0  0
   11.0776  -18.6739   25.3955 O   0  0  0  0  0  0  0  0  0  0  0  0
   14.7093  -15.4673   22.2124 O   0  0  0  0  0  0  0  0  0  0  0  0
   10.5552  -16.4471   25.4028 O   0  0  0  0  0  0  0  0  0  0  0  0
  2  1  1  6
  2  5  1  0
  3  2  1  0
  3  4  1  0
  5  6  2  0
  7  5  1  0
  7  8  1  0
  8  9  1  1
 10  9  1  0
 11 10  1  0
 12 11  1  0
 13 12  1  0
 14  8  1  0
 14 15  2  0
 16 14  1  0
 17 16  1  0
 17 18  1  1
 19 18  1  0
 19 20  2  0
 21 22  1  0
 21 17  1  0
 23 19  1  0
 24 21  2  0
M  END
$$$$
