CKD.pdb
     RDKit          3D

 24 23  0  0  1  0  0  0  0  0999 V2000
    7.1555  -12.8811   18.3628 N   0  0  0  0  0  0  0  0  0  0  0  0
    7.6409  -14.2356   18.2436 C   0  0  1  0  0  0  0  0  0  0  0  0
    8.8725  -14.2648   17.3790 C   0  0  0  0  0  0  0  0  0  0  0  0
    8.5626  -13.8756   15.6606 S   0  0  0  0  0  0  0  0  0  0  0  0
    7.8283  -14.8146   19.5717 C   0  0  0  0  0  0  0  0  0  0  0  0
    8.3030  -14.0921   20.4859 O   0  0  0  0  0  0  0  0  0  0  0  0
    7.5202  -16.1412   19.9381 N   0  0  0  0  0  0  0  0  0  0  0  0
    7.6598  -16.7007   21.2680 C   0  0  1  0  0  0  0  0  0  0  0  0
    6.7423  -17.8826   21.4750 C   0  0  0  0  0  0  0  0  0  0  0  0
    5.2856  -17.4918   21.3413 C   0  0  0  0  0  0  0  0  0  0  0  0
    4.3607  -18.6536   21.5018 C   0  0  0  0  0  0  0  0  0  0  0  0
    2.9174  -18.3057   21.2449 C   0  0  0  0  0  0  0  0  0  0  0  0
    2.1369  -19.5170   21.4161 N   0  0  0  0  0  0  0  0  0  0  0  0
    9.0242  -17.0912   21.5907 C   0  0  0  0  0  0  0  0  0  0  0  0
    9.7174  -17.8153   20.8432 O   0  0  0  0  0  0  0  0  0  0  0  0
    9.6131  -16.6440   22.7963 N   0  0  0  0  0  0  0  0  0  0  0  0
   10.9482  -17.0644   23.1448 C   0  0  1  0  0  0  0  0  0  0  0  0
   11.9161  -15.9834   22.7815 C   0  0  0  0  0  0  0  0  0  0  0  0
   13.2981  -16.3905   23.0219 C   0  0  0  0  0  0  0  0  0  0  0  0
   13.6592  -17.4997   23.4635 O   0  0  0  0  0  0  0  0  0  0  0  0
   11.0460  -17.4523   24.5723 C   0  0  0  0  0  0  0  0  0  0  0  0
   12.1145  -18.1938   25.0245 O   0  0  0  0  0  0  0  0  0  0  0  0
   14.2902  -15.4284   22.7208 O   0  0  0  0  0  0  0  0  0  0  0  0
   10.1379  -17.0922   25.3578 O   0  0  0  0  0  0  0  0  0  0  0  0
  2  1  1  1
  2  5  1  0
  3  2  1  0
  3  4  1  0
  5  6  2  0
  7  5  1  0
  7  8  1  0
  8  9  1  6
 10  9  1  0
 11 10  1  0
 12 11  1  0
 13 12  1  0
 14  8  1  0
 14 15  2  0
 16 14  1  0
 17 16  1  0
 17 18  1  1
 19 18  1  0
 19 20  2  0
 21 22  1  0
 21 17  1  0
 23 19  1  0
 24 21  2  0
M  END
$$$$
