CKD.pdb
     RDKit          3D

 24 23  0  0  1  0  0  0  0  0999 V2000
    6.0167  -18.4983   25.1478 N   0  0  0  0  0  0  0  0  0  0  0  0
    6.0418  -17.0669   24.9615 C   0  0  1  0  0  0  0  0  0  0  0  0
    6.2907  -16.3825   26.2786 C   0  0  0  0  0  0  0  0  0  0  0  0
    7.3900  -17.2807   27.3672 S   0  0  0  0  0  0  0  0  0  0  0  0
    7.0011  -16.7190   23.9159 C   0  0  0  0  0  0  0  0  0  0  0  0
    7.6257  -17.6439   23.3350 O   0  0  0  0  0  0  0  0  0  0  0  0
    7.3027  -15.4111   23.4829 N   0  0  0  0  0  0  0  0  0  0  0  0
    8.2997  -15.0625   22.4901 C   0  0  1  0  0  0  0  0  0  0  0  0
    8.1843  -13.6170   22.0675 C   0  0  0  0  0  0  0  0  0  0  0  0
    7.4170  -13.4715   20.7703 C   0  0  0  0  0  0  0  0  0  0  0  0
    8.1818  -13.9731   19.5894 C   0  0  0  0  0  0  0  0  0  0  0  0
    7.5057  -13.6821   18.2748 C   0  0  0  0  0  0  0  0  0  0  0  0
    8.3149  -14.2730   17.2251 N   0  0  0  0  0  0  0  0  0  0  0  0
    9.6638  -15.3277   22.9226 C   0  0  0  0  0  0  0  0  0  0  0  0
   10.1773  -14.7792   23.9222 O   0  0  0  0  0  0  0  0  0  0  0  0
   10.4623  -16.2422   22.1971 N   0  0  0  0  0  0  0  0  0  0  0  0
   11.7736  -16.5961   22.6827 C   0  0  1  0  0  0  0  0  0  0  0  0
   11.8283  -18.0714   22.9244 C   0  0  0  0  0  0  0  0  0  0  0  0
   13.1467  -18.4958   23.3882 C   0  0  0  0  0  0  0  0  0  0  0  0
   14.1270  -17.7456   23.5665 O   0  0  0  0  0  0  0  0  0  0  0  0
   12.8417  -16.1355   21.7636 C   0  0  0  0  0  0  0  0  0  0  0  0
   14.1618  -16.1650   22.1539 O   0  0  0  0  0  0  0  0  0  0  0  0
   13.2977  -19.8775   23.6498 O   0  0  0  0  0  0  0  0  0  0  0  0
   12.5191  -15.7194   20.6260 O   0  0  0  0  0  0  0  0  0  0  0  0
  2  1  1  1
  2  5  1  0
  3  2  1  0
  3  4  1  0
  5  6  2  0
  7  5  1  0
  7  8  1  0
  8  9  1  1
 10  9  1  0
 11 10  1  0
 12 11  1  0
 13 12  1  0
 14  8  1  0
 14 15  2  0
 16 14  1  0
 17 16  1  0
 17 18  1  6
 19 18  1  0
 19 20  2  0
 21 22  1  0
 21 17  1  0
 23 19  1  0
 24 21  2  0
M  END
$$$$
