CKD.pdb
     RDKit          3D

 24 23  0  0  1  0  0  0  0  0999 V2000
   10.7499  -17.5154   16.8812 N   0  0  0  0  0  0  0  0  0  0  0  0
   10.0743  -17.9383   18.0850 C   0  0  1  0  0  0  0  0  0  0  0  0
   10.3610  -19.3917   18.3504 C   0  0  0  0  0  0  0  0  0  0  0  0
    9.5626  -20.0330   19.8174 S   0  0  0  0  0  0  0  0  0  0  0  0
   10.4239  -17.0481   19.1894 C   0  0  0  0  0  0  0  0  0  0  0  0
   11.6169  -16.6655   19.3046 O   0  0  0  0  0  0  0  0  0  0  0  0
    9.5289  -16.5629   20.1654 N   0  0  0  0  0  0  0  0  0  0  0  0
    9.9010  -15.8183   21.3522 C   0  0  1  0  0  0  0  0  0  0  0  0
    8.7470  -15.0006   21.8822 C   0  0  0  0  0  0  0  0  0  0  0  0
    8.5243  -13.7474   21.0621 C   0  0  0  0  0  0  0  0  0  0  0  0
    7.5424  -13.9506   19.9549 C   0  0  0  0  0  0  0  0  0  0  0  0
    7.2444  -12.6905   19.1846 C   0  0  0  0  0  0  0  0  0  0  0  0
    6.2700  -13.0218   18.1617 N   0  0  0  0  0  0  0  0  0  0  0  0
   10.4244  -16.6569   22.4204 C   0  0  0  0  0  0  0  0  0  0  0  0
    9.9453  -17.7777   22.6996 O   0  0  0  0  0  0  0  0  0  0  0  0
   11.5223  -16.2059   23.1894 N   0  0  0  0  0  0  0  0  0  0  0  0
   12.1208  -17.0776   24.1705 C   0  0  1  0  0  0  0  0  0  0  0  0
   13.5268  -16.6371   24.4290 C   0  0  0  0  0  0  0  0  0  0  0  0
   14.3284  -16.6399   23.2080 C   0  0  0  0  0  0  0  0  0  0  0  0
   14.6401  -17.6522   22.5495 O   0  0  0  0  0  0  0  0  0  0  0  0
   11.3131  -17.1424   25.4119 C   0  0  0  0  0  0  0  0  0  0  0  0
   11.6575  -18.0072   26.4266 O   0  0  0  0  0  0  0  0  0  0  0  0
   14.7759  -15.3765   22.7562 O   0  0  0  0  0  0  0  0  0  0  0  0
   10.3122  -16.3954   25.5189 O   0  0  0  0  0  0  0  0  0  0  0  0
  2  1  1  6
  2  5  1  0
  3  2  1  0
  3  4  1  0
  5  6  2  0
  7  5  1  0
  7  8  1  0
  8  9  1  1
 10  9  1  0
 11 10  1  0
 12 11  1  0
 13 12  1  0
 14  8  1  0
 14 15  2  0
 16 14  1  0
 17 16  1  0
 17 18  1  1
 19 18  1  0
 19 20  2  0
 21 22  1  0
 21 17  1  0
 23 19  1  0
 24 21  2  0
M  END
$$$$
