CKD.pdb
     RDKit          3D

 24 23  0  0  1  0  0  0  0  0999 V2000
   15.2678  -16.2136   14.8490 N   0  0  0  0  0  0  0  0  0  0  0  0
   13.9688  -16.7066   15.2414 C   0  0  1  0  0  0  0  0  0  0  0  0
   13.9871  -18.2104   15.2997 C   0  0  0  0  0  0  0  0  0  0  0  0
   14.9299  -18.9765   13.9865 S   0  0  0  0  0  0  0  0  0  0  0  0
   13.5489  -16.0647   16.4847 C   0  0  0  0  0  0  0  0  0  0  0  0
   14.4285  -15.7213   17.3162 O   0  0  0  0  0  0  0  0  0  0  0  0
   12.2165  -15.7851   16.8531 N   0  0  0  0  0  0  0  0  0  0  0  0
   11.7877  -15.2873   18.1452 C   0  0  1  0  0  0  0  0  0  0  0  0
   10.3486  -14.8292   18.1168 C   0  0  0  0  0  0  0  0  0  0  0  0
    9.9043  -14.2923   19.4610 C   0  0  0  0  0  0  0  0  0  0  0  0
    8.4939  -13.8008   19.4472 C   0  0  0  0  0  0  0  0  0  0  0  0
    8.0681  -13.1765   20.7506 C   0  0  0  0  0  0  0  0  0  0  0  0
    6.6803  -12.7757   20.6123 N   0  0  0  0  0  0  0  0  0  0  0  0
   11.9627  -16.2499   19.2227 C   0  0  0  0  0  0  0  0  0  0  0  0
   12.0248  -17.4834   19.0271 O   0  0  0  0  0  0  0  0  0  0  0  0
   12.0704  -15.7940   20.5572 N   0  0  0  0  0  0  0  0  0  0  0  0
   12.3098  -16.7361   21.6229 C   0  0  1  0  0  0  0  0  0  0  0  0
   13.7542  -17.1250   21.6219 C   0  0  0  0  0  0  0  0  0  0  0  0
   14.0740  -18.0231   22.7285 C   0  0  0  0  0  0  0  0  0  0  0  0
   13.3848  -18.9968   23.0924 O   0  0  0  0  0  0  0  0  0  0  0  0
   11.8703  -16.2035   22.9347 C   0  0  0  0  0  0  0  0  0  0  0  0
   11.8070  -17.0250   24.0380 O   0  0  0  0  0  0  0  0  0  0  0  0
   15.2704  -17.7434   23.4292 O   0  0  0  0  0  0  0  0  0  0  0  0
   11.5581  -14.9924   23.0191 O   0  0  0  0  0  0  0  0  0  0  0  0
  2  1  1  1
  2  5  1  0
  3  2  1  0
  3  4  1  0
  5  6  2  0
  7  5  1  0
  7  8  1  0
  8  9  1  6
 10  9  1  0
 11 10  1  0
 12 11  1  0
 13 12  1  0
 14  8  1  0
 14 15  2  0
 16 14  1  0
 17 16  1  0
 17 18  1  1
 19 18  1  0
 19 20  2  0
 21 22  1  0
 21 17  1  0
 23 19  1  0
 24 21  2  0
M  END
$$$$
