CKD.pdb
     RDKit          3D

 24 23  0  0  1  0  0  0  0  0999 V2000
    7.7124  -12.8476   19.2798 N   0  0  0  0  0  0  0  0  0  0  0  0
    7.2377  -13.8472   20.2071 C   0  0  1  0  0  0  0  0  0  0  0  0
    7.0462  -15.1586   19.4940 C   0  0  0  0  0  0  0  0  0  0  0  0
    7.1549  -15.0388   17.7123 S   0  0  0  0  0  0  0  0  0  0  0  0
    8.1312  -13.9184   21.3608 C   0  0  0  0  0  0  0  0  0  0  0  0
    9.3641  -13.7402   21.1839 O   0  0  0  0  0  0  0  0  0  0  0  0
    7.7345  -14.1746   22.6897 N   0  0  0  0  0  0  0  0  0  0  0  0
    8.6298  -14.3441   23.8171 C   0  0  1  0  0  0  0  0  0  0  0  0
    7.9195  -14.1225   25.1316 C   0  0  0  0  0  0  0  0  0  0  0  0
    8.8835  -14.1348   26.2991 C   0  0  0  0  0  0  0  0  0  0  0  0
    8.1938  -13.9992   27.6169 C   0  0  0  0  0  0  0  0  0  0  0  0
    9.1459  -13.8413   28.7739 C   0  0  0  0  0  0  0  0  0  0  0  0
    9.5192  -15.1709   29.2195 N   0  0  0  0  0  0  0  0  0  0  0  0
    9.2894  -15.6412   23.8418 C   0  0  0  0  0  0  0  0  0  0  0  0
    8.7042  -16.7056   23.5447 O   0  0  0  0  0  0  0  0  0  0  0  0
   10.6512  -15.7264   24.2140 N   0  0  0  0  0  0  0  0  0  0  0  0
   11.3500  -16.9836   24.1057 C   0  0  1  0  0  0  0  0  0  0  0  0
   12.5453  -16.8089   23.2235 C   0  0  0  0  0  0  0  0  0  0  0  0
   13.3350  -18.0343   23.1323 C   0  0  0  0  0  0  0  0  0  0  0  0
   12.9569  -19.1013   22.6088 O   0  0  0  0  0  0  0  0  0  0  0  0
   11.7069  -17.5292   25.4371 C   0  0  0  0  0  0  0  0  0  0  0  0
   12.0868  -18.8455   25.5753 O   0  0  0  0  0  0  0  0  0  0  0  0
   14.6328  -17.9798   23.6920 O   0  0  0  0  0  0  0  0  0  0  0  0
   11.6558  -16.7693   26.4328 O   0  0  0  0  0  0  0  0  0  0  0  0
  2  1  1  6
  2  5  1  0
  3  2  1  0
  3  4  1  0
  5  6  2  0
  7  5  1  0
  7  8  1  0
  8  9  1  1
 10  9  1  0
 11 10  1  0
 12 11  1  0
 13 12  1  0
 14  8  1  0
 14 15  2  0
 16 14  1  0
 17 16  1  0
 17 18  1  6
 19 18  1  0
 19 20  2  0
 21 22  1  0
 21 17  1  0
 23 19  1  0
 24 21  2  0
M  END
$$$$
