CKD.pdb
     RDKit          3D

 24 23  0  0  1  0  0  0  0  0999 V2000
    6.2331  -13.4992   20.3342 N   0  0  0  0  0  0  0  0  0  0  0  0
    7.1674  -14.5860   20.1605 C   0  0  1  0  0  0  0  0  0  0  0  0
    8.5022  -14.0492   19.7186 C   0  0  0  0  0  0  0  0  0  0  0  0
    9.7936  -15.2851   19.6455 S   0  0  0  0  0  0  0  0  0  0  0  0
    7.2204  -15.3944   21.3762 C   0  0  0  0  0  0  0  0  0  0  0  0
    7.3015  -14.8113   22.4882 O   0  0  0  0  0  0  0  0  0  0  0  0
    7.1885  -16.8035   21.4252 N   0  0  0  0  0  0  0  0  0  0  0  0
    7.3438  -17.6075   22.6214 C   0  0  1  0  0  0  0  0  0  0  0  0
    6.7360  -18.9800   22.4536 C   0  0  0  0  0  0  0  0  0  0  0  0
    6.8651  -19.8085   23.7144 C   0  0  0  0  0  0  0  0  0  0  0  0
    5.7898  -20.8376   23.8398 C   0  0  0  0  0  0  0  0  0  0  0  0
    5.9759  -21.7521   25.0227 C   0  0  0  0  0  0  0  0  0  0  0  0
    4.8063  -22.6071   25.1044 N   0  0  0  0  0  0  0  0  0  0  0  0
    8.7278  -17.7455   23.0497 C   0  0  0  0  0  0  0  0  0  0  0  0
    9.6465  -18.0914   22.2749 O   0  0  0  0  0  0  0  0  0  0  0  0
    9.0731  -17.4819   24.3956 N   0  0  0  0  0  0  0  0  0  0  0  0
   10.4236  -17.7063   24.8498 C   0  0  1  0  0  0  0  0  0  0  0  0
   11.2682  -16.5260   24.4875 C   0  0  0  0  0  0  0  0  0  0  0  0
   12.1808  -16.8299   23.3883 C   0  0  0  0  0  0  0  0  0  0  0  0
   12.2604  -17.9245   22.7957 O   0  0  0  0  0  0  0  0  0  0  0  0
   10.4713  -18.0098   26.3001 C   0  0  0  0  0  0  0  0  0  0  0  0
    9.3270  -17.9571   27.0642 O   0  0  0  0  0  0  0  0  0  0  0  0
   13.0346  -15.7783   22.9814 O   0  0  0  0  0  0  0  0  0  0  0  0
   11.5725  -18.3147   26.8157 O   0  0  0  0  0  0  0  0  0  0  0  0
  2  1  1  1
  2  5  1  0
  3  2  1  0
  3  4  1  0
  5  6  2  0
  7  5  1  0
  7  8  1  0
  8  9  1  6
 10  9  1  0
 11 10  1  0
 12 11  1  0
 13 12  1  0
 14  8  1  0
 14 15  2  0
 16 14  1  0
 17 16  1  0
 17 18  1  1
 19 18  1  0
 19 20  2  0
 21 22  1  0
 21 17  1  0
 23 19  1  0
 24 21  2  0
M  END
$$$$
