DWR.pdb
     RDKit          3D

 34 35  0  0  1  0  0  0  0  0999 V2000
    9.9471  -16.5473   18.1719 N   0  0  0  0  0  0  0  0  0  0  0  0
    9.5870  -17.4849   19.1920 C   0  0  1  0  0  0  0  0  0  0  0  0
   10.4730  -18.6809   19.1846 C   0  0  0  0  0  0  0  0  0  0  0  0
   10.4778  -19.4256   17.9203 C   0  0  0  0  0  0  0  0  0  0  0  0
    9.5421  -20.1853   17.5292 O   0  0  0  0  0  0  0  0  0  0  0  0
    9.6235  -16.8349   20.5513 C   0  0  0  0  0  0  0  0  0  0  0  0
   10.7052  -16.5056   21.0943 O   0  0  0  0  0  0  0  0  0  0  0  0
   11.5758  -19.3028   17.0813 O   0  0  0  0  0  0  0  0  0  0  0  0
    8.4218  -16.5732   21.2643 N   0  0  0  0  0  0  0  0  0  0  0  0
    8.3183  -15.9980   22.5654 C   0  0  1  0  0  0  0  0  0  0  0  0
    6.9716  -15.4996   22.9475 C   0  0  0  0  0  0  0  0  0  0  0  0
    6.8509  -14.9979   24.3299 C   0  0  0  0  0  0  0  0  0  0  0  0
    6.4194  -15.7073   25.4303 C   0  0  0  0  0  0  0  0  0  0  0  0
    6.4606  -14.9197   26.5143 N   0  0  0  0  0  0  0  0  0  0  0  0
    6.9081  -13.7021   26.1695 C   0  0  0  0  0  0  0  0  0  0  0  0
    7.1118  -12.5711   26.9380 C   0  0  0  0  0  0  0  0  0  0  0  0
    7.5800  -11.4268   26.3316 C   0  0  0  0  0  0  0  0  0  0  0  0
    7.8291  -11.4540   24.9751 C   0  0  0  0  0  0  0  0  0  0  0  0
    7.6261  -12.5787   24.2121 C   0  0  0  0  0  0  0  0  0  0  0  0
    7.1537  -13.7377   24.8116 C   0  0  0  0  0  0  0  0  0  0  0  0
    8.8371  -16.9549   23.6142 C   0  0  0  0  0  0  0  0  0  0  0  0
    8.4932  -18.1565   23.5091 O   0  0  0  0  0  0  0  0  0  0  0  0
   16.2469  -18.2593   22.9074 N   0  0  0  0  0  0  0  0  0  0  0  0
   16.0695  -16.9638   23.4456 C   0  0  0  0  0  0  0  0  0  0  0  0
   16.9823  -16.0465   23.3944 N   0  0  0  0  0  0  0  0  0  0  0  0
   14.8221  -16.6634   24.0705 N   0  0  0  0  0  0  0  0  0  0  0  0
   13.7625  -17.6593   24.1822 C   0  0  0  0  0  0  0  0  0  0  0  0
   12.5850  -17.0784   24.9221 C   0  0  0  0  0  0  0  0  0  0  0  0
   11.4805  -18.0987   24.9561 C   0  0  0  0  0  0  0  0  0  0  0  0
   10.1991  -17.6087   25.5619 C   0  0  2  0  0  0  0  0  0  0  0  0
    9.6673  -16.5637   24.6751 N   0  0  0  0  0  0  0  0  0  0  0  0
   10.3798  -17.0573   26.9362 C   0  0  0  0  0  0  0  0  0  0  0  0
   10.1034  -15.7524   27.2879 O   0  0  0  0  0  0  0  0  0  0  0  0
   10.8149  -17.8131   27.8694 O   0  0  0  0  0  0  0  0  0  0  0  0
  2  1  1  6
  2  3  1  0
  4  3  1  0
  4  8  1  0
  5  4  2  0
  6  7  2  0
  6  2  1  0
  9  6  1  0
 10  9  1  0
 11 12  1  0
 10 11  1  1
 12 13  2  0
 12 20  1  0
 13 14  1  0
 14 15  1  0
 15 16  2  0
 16 17  1  0
 18 17  2  0
 19 18  1  0
 20 19  2  0
 20 15  1  0
 21 10  1  0
 22 21  2  0
 23 24  1  0
 24 25  2  0
 26 24  1  0
 26 27  1  0
 27 28  1  0
 28 29  1  0
 30 29  1  6
 30 31  1  0
 31 21  1  0
 32 30  1  0
 33 32  1  0
 34 32  2  0
M  END
$$$$
