DWR.pdb
     RDKit          3D

 34 35  0  0  1  0  0  0  0  0999 V2000
    7.0355  -17.2763   20.9277 N   0  0  0  0  0  0  0  0  0  0  0  0
    8.3692  -16.9337   20.5361 C   0  0  1  0  0  0  0  0  0  0  0  0
    8.3848  -15.9922   19.3835 C   0  0  0  0  0  0  0  0  0  0  0  0
    7.8247  -16.5407   18.1432 C   0  0  0  0  0  0  0  0  0  0  0  0
    7.3264  -17.7002   18.0299 O   0  0  0  0  0  0  0  0  0  0  0  0
    9.1272  -16.3332   21.6921 C   0  0  0  0  0  0  0  0  0  0  0  0
    9.9423  -15.3941   21.5276 O   0  0  0  0  0  0  0  0  0  0  0  0
    7.8329  -15.7495   17.0037 O   0  0  0  0  0  0  0  0  0  0  0  0
    8.9385  -16.8178   23.0152 N   0  0  0  0  0  0  0  0  0  0  0  0
    9.6102  -16.3605   24.1874 C   0  0  1  0  0  0  0  0  0  0  0  0
    8.8266  -16.4229   25.4484 C   0  0  0  0  0  0  0  0  0  0  0  0
    7.6205  -15.5739   25.4871 C   0  0  0  0  0  0  0  0  0  0  0  0
    6.3160  -15.9853   25.3156 C   0  0  0  0  0  0  0  0  0  0  0  0
    5.4956  -14.9319   25.4342 N   0  0  0  0  0  0  0  0  0  0  0  0
    6.2155  -13.8260   25.6805 C   0  0  0  0  0  0  0  0  0  0  0  0
    5.8119  -12.5174   25.8703 C   0  0  0  0  0  0  0  0  0  0  0  0
    6.7652  -11.5517   26.1048 C   0  0  0  0  0  0  0  0  0  0  0  0
    8.0913  -11.9294   26.1418 C   0  0  0  0  0  0  0  0  0  0  0  0
    8.4914  -13.2304   25.9527 C   0  0  0  0  0  0  0  0  0  0  0  0
    7.5402  -14.2124   25.7148 C   0  0  0  0  0  0  0  0  0  0  0  0
   10.9309  -17.0755   24.3583 C   0  0  0  0  0  0  0  0  0  0  0  0
   10.9232  -18.3237   24.2353 O   0  0  0  0  0  0  0  0  0  0  0  0
   19.2716  -14.5855   23.3107 N   0  0  0  0  0  0  0  0  0  0  0  0
   19.3711  -15.9914   23.4246 C   0  0  0  0  0  0  0  0  0  0  0  0
   20.4965  -16.6281   23.3529 N   0  0  0  0  0  0  0  0  0  0  0  0
   18.1692  -16.7332   23.6297 N   0  0  0  0  0  0  0  0  0  0  0  0
   16.8712  -16.0756   23.7280 C   0  0  0  0  0  0  0  0  0  0  0  0
   15.8184  -17.0721   24.1406 C   0  0  0  0  0  0  0  0  0  0  0  0
   14.4844  -16.3790   24.1872 C   0  0  0  0  0  0  0  0  0  0  0  0
   13.3645  -17.2201   24.7230 C   0  0  2  0  0  0  0  0  0  0  0  0
   12.1362  -16.4163   24.6422 N   0  0  0  0  0  0  0  0  0  0  0  0
   13.5879  -17.6558   26.1321 C   0  0  0  0  0  0  0  0  0  0  0  0
   14.4189  -18.6944   26.4976 O   0  0  0  0  0  0  0  0  0  0  0  0
   12.9888  -17.0507   27.0843 O   0  0  0  0  0  0  0  0  0  0  0  0
  2  1  1  1
  2  3  1  0
  4  3  1  0
  4  8  1  0
  5  4  2  0
  6  7  2  0
  6  2  1  0
  9  6  1  0
 10  9  1  0
 11 12  1  0
 10 11  1  1
 12 13  2  0
 12 20  1  0
 13 14  1  0
 14 15  1  0
 15 16  2  0
 16 17  1  0
 18 17  2  0
 19 18  1  0
 20 19  2  0
 20 15  1  0
 21 10  1  0
 22 21  2  0
 23 24  1  0
 24 25  2  0
 26 24  1  0
 26 27  1  0
 27 28  1  0
 28 29  1  0
 30 29  1  1
 30 31  1  0
 31 21  1  0
 32 30  1  0
 33 32  1  0
 34 32  2  0
M  END
$$$$
