DWR.pdb
     RDKit          3D

 34 35  0  0  1  0  0  0  0  0999 V2000
    9.3401  -17.8245   19.0398 N   0  0  0  0  0  0  0  0  0  0  0  0
    9.8753  -18.4288   20.2222 C   0  0  1  0  0  0  0  0  0  0  0  0
   11.2436  -18.9702   19.9983 C   0  0  0  0  0  0  0  0  0  0  0  0
   11.3879  -19.7712   18.7775 C   0  0  0  0  0  0  0  0  0  0  0  0
   10.6490  -20.7537   18.4702 O   0  0  0  0  0  0  0  0  0  0  0  0
    9.9001  -17.4423   21.3613 C   0  0  0  0  0  0  0  0  0  0  0  0
   10.9101  -16.7376   21.5997 O   0  0  0  0  0  0  0  0  0  0  0  0
   12.3991  -19.4459   17.8852 O   0  0  0  0  0  0  0  0  0  0  0  0
    8.7688  -17.2796   22.2067 N   0  0  0  0  0  0  0  0  0  0  0  0
    8.6546  -16.3733   23.3021 C   0  0  1  0  0  0  0  0  0  0  0  0
    7.3468  -15.6808   23.4356 C   0  0  0  0  0  0  0  0  0  0  0  0
    7.4210  -14.2503   23.7897 C   0  0  0  0  0  0  0  0  0  0  0  0
    7.8585  -13.2221   22.9824 C   0  0  0  0  0  0  0  0  0  0  0  0
    7.7656  -12.0615   23.6466 N   0  0  0  0  0  0  0  0  0  0  0  0
    7.2776  -12.2847   24.8770 C   0  0  0  0  0  0  0  0  0  0  0  0
    7.0149  -11.4047   25.9105 C   0  0  0  0  0  0  0  0  0  0  0  0
    6.5140  -11.8963   27.0953 C   0  0  0  0  0  0  0  0  0  0  0  0
    6.2925  -13.2534   27.2052 C   0  0  0  0  0  0  0  0  0  0  0  0
    6.5542  -14.1272   26.1773 C   0  0  0  0  0  0  0  0  0  0  0  0
    7.0598  -13.6439   24.9787 C   0  0  0  0  0  0  0  0  0  0  0  0
    9.0172  -17.0575   24.6003 C   0  0  0  0  0  0  0  0  0  0  0  0
    8.5471  -18.2048   24.7903 O   0  0  0  0  0  0  0  0  0  0  0  0
   16.3529  -19.8860   24.3532 N   0  0  0  0  0  0  0  0  0  0  0  0
   15.8964  -20.4568   25.5637 C   0  0  0  0  0  0  0  0  0  0  0  0
   16.4575  -21.4851   26.1156 N   0  0  0  0  0  0  0  0  0  0  0  0
   14.7648  -19.8629   26.1990 N   0  0  0  0  0  0  0  0  0  0  0  0
   14.0512  -18.7414   25.5990 C   0  0  0  0  0  0  0  0  0  0  0  0
   13.0516  -18.1828   26.5791 C   0  0  0  0  0  0  0  0  0  0  0  0
   12.0529  -17.3439   25.8303 C   0  0  0  0  0  0  0  0  0  0  0  0
   10.6679  -17.3641   26.4051 C   0  0  2  0  0  0  0  0  0  0  0  0
    9.8380  -16.4760   25.5780 N   0  0  0  0  0  0  0  0  0  0  0  0
   10.6223  -16.9143   27.8267 C   0  0  0  0  0  0  0  0  0  0  0  0
   11.1204  -17.6454   28.8850 O   0  0  0  0  0  0  0  0  0  0  0  0
   10.0969  -15.7869   28.1174 O   0  0  0  0  0  0  0  0  0  0  0  0
  2  1  1  6
  2  3  1  0
  4  3  1  0
  4  8  1  0
  5  4  2  0
  6  7  2  0
  6  2  1  0
  9  6  1  0
 10  9  1  0
 11 12  1  0
 10 11  1  1
 12 13  2  0
 12 20  1  0
 13 14  1  0
 14 15  1  0
 15 16  2  0
 16 17  1  0
 18 17  2  0
 19 18  1  0
 20 19  2  0
 20 15  1  0
 21 10  1  0
 22 21  2  0
 23 24  1  0
 24 25  2  0
 26 24  1  0
 26 27  1  0
 27 28  1  0
 28 29  1  0
 30 29  1  6
 30 31  1  0
 31 21  1  0
 32 30  1  0
 33 32  1  0
 34 32  2  0
M  END
$$$$
