DWR.pdb
     RDKit          3D

 34 35  0  0  1  0  0  0  0  0999 V2000
    8.9547  -17.5936   20.7294 N   0  0  0  0  0  0  0  0  0  0  0  0
   10.2499  -17.0634   21.0311 C   0  0  1  0  0  0  0  0  0  0  0  0
   10.6127  -15.9371   20.1283 C   0  0  0  0  0  0  0  0  0  0  0  0
   10.6836  -16.2958   18.7073 C   0  0  0  0  0  0  0  0  0  0  0  0
    9.6838  -16.6042   17.9925 O   0  0  0  0  0  0  0  0  0  0  0  0
   10.3185  -16.6063   22.4656 C   0  0  0  0  0  0  0  0  0  0  0  0
   11.2756  -15.9162   22.8912 O   0  0  0  0  0  0  0  0  0  0  0  0
   11.9237  -16.3044   18.0854 O   0  0  0  0  0  0  0  0  0  0  0  0
    9.2908  -16.9469   23.3869 N   0  0  0  0  0  0  0  0  0  0  0  0
    9.3136  -16.7326   24.7969 C   0  0  1  0  0  0  0  0  0  0  0  0
    7.9911  -16.5244   25.4415 C   0  0  0  0  0  0  0  0  0  0  0  0
    7.2514  -15.3276   24.9969 C   0  0  0  0  0  0  0  0  0  0  0  0
    6.4075  -15.2353   23.9107 C   0  0  0  0  0  0  0  0  0  0  0  0
    5.9089  -13.9932   23.8361 N   0  0  0  0  0  0  0  0  0  0  0  0
    6.3961  -13.2512   24.8430 C   0  0  0  0  0  0  0  0  0  0  0  0
    6.1736  -11.9263   25.1693 C   0  0  0  0  0  0  0  0  0  0  0  0
    6.8105  -11.3928   26.2676 C   0  0  0  0  0  0  0  0  0  0  0  0
    7.6489  -12.2048   27.0027 C   0  0  0  0  0  0  0  0  0  0  0  0
    7.8695  -13.5216   26.6773 C   0  0  0  0  0  0  0  0  0  0  0  0
    7.2341  -14.0704   25.5724 C   0  0  0  0  0  0  0  0  0  0  0  0
   10.0637  -17.8450   25.4932 C   0  0  0  0  0  0  0  0  0  0  0  0
   10.0045  -18.9848   24.9729 O   0  0  0  0  0  0  0  0  0  0  0  0
   16.9047  -18.4808   23.2309 N   0  0  0  0  0  0  0  0  0  0  0  0
   16.8235  -17.3417   24.0648 C   0  0  0  0  0  0  0  0  0  0  0  0
   17.7293  -16.4165   24.0870 N   0  0  0  0  0  0  0  0  0  0  0  0
   15.6850  -17.2150   24.9161 N   0  0  0  0  0  0  0  0  0  0  0  0
   14.7036  -18.2859   25.0463 C   0  0  0  0  0  0  0  0  0  0  0  0
   13.6818  -17.9242   26.0936 C   0  0  0  0  0  0  0  0  0  0  0  0
   12.6974  -19.0538   26.2231 C   0  0  0  0  0  0  0  0  0  0  0  0
   11.5789  -18.7969   27.1885 C   0  0  2  0  0  0  0  0  0  0  0  0
   10.8054  -17.6596   26.6693 N   0  0  0  0  0  0  0  0  0  0  0  0
   12.0601  -18.4898   28.5667 C   0  0  0  0  0  0  0  0  0  0  0  0
   11.8110  -17.3041   29.2261 O   0  0  0  0  0  0  0  0  0  0  0  0
   12.7474  -19.3568   29.2051 O   0  0  0  0  0  0  0  0  0  0  0  0
  2  1  1  6
  2  3  1  0
  4  3  1  0
  4  8  1  0
  5  4  2  0
  6  7  2  0
  6  2  1  0
  9  6  1  0
 10  9  1  0
 11 12  1  0
 10 11  1  1
 12 13  2  0
 12 20  1  0
 13 14  1  0
 14 15  1  0
 15 16  2  0
 16 17  1  0
 18 17  2  0
 19 18  1  0
 20 19  2  0
 20 15  1  0
 21 10  1  0
 22 21  2  0
 23 24  1  0
 24 25  2  0
 26 24  1  0
 26 27  1  0
 27 28  1  0
 28 29  1  0
 30 29  1  6
 30 31  1  0
 31 21  1  0
 32 30  1  0
 33 32  1  0
 34 32  2  0
M  END
$$$$
