DWR.pdb
     RDKit          3D

 34 35  0  0  1  0  0  0  0  0999 V2000
   10.0424  -15.3353   17.8802 N   0  0  0  0  0  0  0  0  0  0  0  0
    9.7473  -16.4433   18.7375 C   0  0  1  0  0  0  0  0  0  0  0  0
   10.7090  -17.5633   18.5481 C   0  0  0  0  0  0  0  0  0  0  0  0
   10.8052  -18.0550   17.1690 C   0  0  0  0  0  0  0  0  0  0  0  0
   11.8879  -18.1745   16.5217 O   0  0  0  0  0  0  0  0  0  0  0  0
    9.7459  -16.0145   20.1824 C   0  0  0  0  0  0  0  0  0  0  0  0
   10.8089  -15.7348   20.7867 O   0  0  0  0  0  0  0  0  0  0  0  0
    9.6395  -18.4187   16.5106 O   0  0  0  0  0  0  0  0  0  0  0  0
    8.5285  -15.9132   20.9093 N   0  0  0  0  0  0  0  0  0  0  0  0
    8.3892  -15.5362   22.2778 C   0  0  1  0  0  0  0  0  0  0  0  0
    7.0113  -15.1975   22.7189 C   0  0  0  0  0  0  0  0  0  0  0  0
    6.8767  -14.8145   24.1375 C   0  0  0  0  0  0  0  0  0  0  0  0
    6.4835  -15.6287   25.1782 C   0  0  0  0  0  0  0  0  0  0  0  0
    6.4963  -14.9298   26.3221 N   0  0  0  0  0  0  0  0  0  0  0  0
    6.8875  -13.6696   26.0755 C   0  0  0  0  0  0  0  0  0  0  0  0
    7.0456  -12.5962   26.9323 C   0  0  0  0  0  0  0  0  0  0  0  0
    7.4592  -11.3871   26.4189 C   0  0  0  0  0  0  0  0  0  0  0  0
    7.7011  -11.2940   25.0641 C   0  0  0  0  0  0  0  0  0  0  0  0
    7.5434  -12.3615   24.2134 C   0  0  0  0  0  0  0  0  0  0  0  0
    7.1263  -13.5849   24.7186 C   0  0  0  0  0  0  0  0  0  0  0  0
    8.9825  -16.5903   23.1843 C   0  0  0  0  0  0  0  0  0  0  0  0
    8.7528  -17.7882   22.8918 O   0  0  0  0  0  0  0  0  0  0  0  0
   12.7621  -22.0986   23.9987 N   0  0  0  0  0  0  0  0  0  0  0  0
   13.9333  -21.7247   24.6972 C   0  0  0  0  0  0  0  0  0  0  0  0
   14.7054  -22.5788   25.2899 N   0  0  0  0  0  0  0  0  0  0  0  0
   14.2717  -20.3390   24.7431 N   0  0  0  0  0  0  0  0  0  0  0  0
   13.4372  -19.3258   24.1075 C   0  0  0  0  0  0  0  0  0  0  0  0
   12.6272  -18.5975   25.1493 C   0  0  0  0  0  0  0  0  0  0  0  0
   11.7884  -17.5508   24.4689 C   0  0  0  0  0  0  0  0  0  0  0  0
   10.4041  -17.4036   25.0265 C   0  0  2  0  0  0  0  0  0  0  0  0
    9.7607  -16.2911   24.3124 N   0  0  0  0  0  0  0  0  0  0  0  0
   10.3944  -17.1316   26.4932 C   0  0  0  0  0  0  0  0  0  0  0  0
    9.8581  -15.9967   27.0653 O   0  0  0  0  0  0  0  0  0  0  0  0
   10.9054  -17.9817   27.2981 O   0  0  0  0  0  0  0  0  0  0  0  0
  2  1  1  6
  2  3  1  0
  4  3  1  0
  4  8  1  0
  5  4  2  0
  6  7  2  0
  6  2  1  0
  9  6  1  0
 10  9  1  0
 11 12  1  0
 10 11  1  1
 12 13  2  0
 12 20  1  0
 13 14  1  0
 14 15  1  0
 15 16  2  0
 16 17  1  0
 18 17  2  0
 19 18  1  0
 20 19  2  0
 20 15  1  0
 21 10  1  0
 22 21  2  0
 23 24  1  0
 24 25  2  0
 26 24  1  0
 26 27  1  0
 27 28  1  0
 28 29  1  0
 30 29  1  6
 30 31  1  0
 31 21  1  0
 32 30  1  0
 33 32  1  0
 34 32  2  0
M  END
$$$$
