DWR.pdb
     RDKit          3D

 34 35  0  0  1  0  0  0  0  0999 V2000
    8.5740  -15.8523   20.1106 N   0  0  0  0  0  0  0  0  0  0  0  0
    8.7927  -16.9858   20.9573 C   0  0  1  0  0  0  0  0  0  0  0  0
    9.8114  -17.9123   20.3924 C   0  0  0  0  0  0  0  0  0  0  0  0
    9.5264  -18.3698   19.0277 C   0  0  0  0  0  0  0  0  0  0  0  0
    8.3772  -18.6921   18.6022 O   0  0  0  0  0  0  0  0  0  0  0  0
    9.2141  -16.5482   22.3366 C   0  0  0  0  0  0  0  0  0  0  0  0
   10.1077  -15.6849   22.5087 O   0  0  0  0  0  0  0  0  0  0  0  0
   10.5763  -18.4634   18.1257 O   0  0  0  0  0  0  0  0  0  0  0  0
    8.6052  -17.1061   23.4938 N   0  0  0  0  0  0  0  0  0  0  0  0
    8.9025  -16.7752   24.8489 C   0  0  1  0  0  0  0  0  0  0  0  0
    7.7312  -16.6297   25.7516 C   0  0  0  0  0  0  0  0  0  0  0  0
    6.9718  -15.3730   25.6059 C   0  0  0  0  0  0  0  0  0  0  0  0
    5.6626  -15.2431   25.1940 C   0  0  0  0  0  0  0  0  0  0  0  0
    5.3179  -13.9477   25.2016 N   0  0  0  0  0  0  0  0  0  0  0  0
    6.3609  -13.2066   25.6076 C   0  0  0  0  0  0  0  0  0  0  0  0
    6.4804  -11.8385   25.7672 C   0  0  0  0  0  0  0  0  0  0  0  0
    7.6806  -11.3186   26.1979 C   0  0  0  0  0  0  0  0  0  0  0  0
    8.7212  -12.1869   26.4549 C   0  0  0  0  0  0  0  0  0  0  0  0
    8.6014  -13.5465   26.2958 C   0  0  0  0  0  0  0  0  0  0  0  0
    7.3971  -14.0824   25.8615 C   0  0  0  0  0  0  0  0  0  0  0  0
    9.8920  -17.7574   25.4329 C   0  0  0  0  0  0  0  0  0  0  0  0
   10.0724  -18.8270   24.8029 O   0  0  0  0  0  0  0  0  0  0  0  0
   17.7418  -21.7999   25.3178 N   0  0  0  0  0  0  0  0  0  0  0  0
   17.1549  -20.5394   25.5750 C   0  0  0  0  0  0  0  0  0  0  0  0
   17.8424  -19.4966   25.9169 N   0  0  0  0  0  0  0  0  0  0  0  0
   15.7383  -20.4219   25.4472 N   0  0  0  0  0  0  0  0  0  0  0  0
   15.0510  -19.1570   25.6811 C   0  0  0  0  0  0  0  0  0  0  0  0
   13.8930  -19.3661   26.6229 C   0  0  0  0  0  0  0  0  0  0  0  0
   12.7616  -18.4654   26.2099 C   0  0  0  0  0  0  0  0  0  0  0  0
   11.5428  -18.5589   27.0787 C   0  0  2  0  0  0  0  0  0  0  0  0
   10.5997  -17.5276   26.6220 N   0  0  0  0  0  0  0  0  0  0  0  0
   11.8441  -18.3587   28.5259 C   0  0  0  0  0  0  0  0  0  0  0  0
   12.4490  -19.3043   29.3275 O   0  0  0  0  0  0  0  0  0  0  0  0
   11.5369  -17.2544   29.0895 O   0  0  0  0  0  0  0  0  0  0  0  0
  2  1  1  6
  2  3  1  0
  4  3  1  0
  4  8  1  0
  5  4  2  0
  6  7  2  0
  6  2  1  0
  9  6  1  0
 10  9  1  0
 11 12  1  0
 10 11  1  1
 12 13  2  0
 12 20  1  0
 13 14  1  0
 14 15  1  0
 15 16  2  0
 16 17  1  0
 18 17  2  0
 19 18  1  0
 20 19  2  0
 20 15  1  0
 21 10  1  0
 22 21  2  0
 23 24  1  0
 24 25  2  0
 26 24  1  0
 26 27  1  0
 27 28  1  0
 28 29  1  0
 30 29  1  6
 30 31  1  0
 31 21  1  0
 32 30  1  0
 33 32  1  0
 34 32  2  0
M  END
$$$$
