DWR.pdb
     RDKit          3D

 34 35  0  0  1  0  0  0  0  0999 V2000
    7.6284  -17.6550   20.7830 N   0  0  0  0  0  0  0  0  0  0  0  0
    8.6008  -16.7036   20.3373 C   0  0  1  0  0  0  0  0  0  0  0  0
    8.0021  -15.6749   19.4436 C   0  0  0  0  0  0  0  0  0  0  0  0
    7.6733  -16.1567   18.0973 C   0  0  0  0  0  0  0  0  0  0  0  0
    8.0983  -17.2407   17.5973 O   0  0  0  0  0  0  0  0  0  0  0  0
    9.2664  -16.0313   21.5105 C   0  0  0  0  0  0  0  0  0  0  0  0
   10.0554  -15.0684   21.3563 O   0  0  0  0  0  0  0  0  0  0  0  0
    6.8407  -15.3844   17.3004 O   0  0  0  0  0  0  0  0  0  0  0  0
    9.0169  -16.4725   22.8386 N   0  0  0  0  0  0  0  0  0  0  0  0
    9.7211  -16.0675   24.0110 C   0  0  1  0  0  0  0  0  0  0  0  0
    8.9869  -16.2233   25.2934 C   0  0  0  0  0  0  0  0  0  0  0  0
    7.7964  -15.3658   25.4496 C   0  0  0  0  0  0  0  0  0  0  0  0
    6.4784  -15.7670   25.4014 C   0  0  0  0  0  0  0  0  0  0  0  0
    5.6810  -14.7082   25.6013 N   0  0  0  0  0  0  0  0  0  0  0  0
    6.4294  -13.6086   25.7821 C   0  0  0  0  0  0  0  0  0  0  0  0
    6.0556  -12.2980   26.0142 C   0  0  0  0  0  0  0  0  0  0  0  0
    7.0342  -11.3402   26.1606 C   0  0  0  0  0  0  0  0  0  0  0  0
    8.3550  -11.7276   26.0700 C   0  0  0  0  0  0  0  0  0  0  0  0
    8.7254  -13.0307   25.8390 C   0  0  0  0  0  0  0  0  0  0  0  0
    7.7484  -14.0048   25.6890 C   0  0  0  0  0  0  0  0  0  0  0  0
   11.0636  -16.7574   24.0916 C   0  0  0  0  0  0  0  0  0  0  0  0
   11.0562  -17.9996   24.2656 O   0  0  0  0  0  0  0  0  0  0  0  0
   18.5803  -17.4543   24.5629 N   0  0  0  0  0  0  0  0  0  0  0  0
   19.0013  -16.5208   23.5878 C   0  0  0  0  0  0  0  0  0  0  0  0
   20.0724  -15.8037   23.7122 N   0  0  0  0  0  0  0  0  0  0  0  0
   18.2018  -16.3713   22.4150 N   0  0  0  0  0  0  0  0  0  0  0  0
   16.8689  -15.7816   22.4673 C   0  0  0  0  0  0  0  0  0  0  0  0
   15.9333  -16.6889   23.2243 C   0  0  0  0  0  0  0  0  0  0  0  0
   14.5648  -16.0656   23.2481 C   0  0  0  0  0  0  0  0  0  0  0  0
   13.5215  -16.8815   23.9514 C   0  0  2  0  0  0  0  0  0  0  0  0
   12.2881  -16.0819   23.9826 N   0  0  0  0  0  0  0  0  0  0  0  0
   13.9143  -17.2534   25.3416 C   0  0  0  0  0  0  0  0  0  0  0  0
   14.7066  -18.3376   25.6572 O   0  0  0  0  0  0  0  0  0  0  0  0
   13.5100  -16.5449   26.3246 O   0  0  0  0  0  0  0  0  0  0  0  0
  2  1  1  1
  2  3  1  0
  4  3  1  0
  4  8  1  0
  5  4  2  0
  6  7  2  0
  6  2  1  0
  9  6  1  0
 10  9  1  0
 11 12  1  0
 10 11  1  1
 12 13  2  0
 12 20  1  0
 13 14  1  0
 14 15  1  0
 15 16  2  0
 16 17  1  0
 18 17  2  0
 19 18  1  0
 20 19  2  0
 20 15  1  0
 21 10  1  0
 22 21  2  0
 23 24  1  0
 24 25  2  0
 26 24  1  0
 26 27  1  0
 27 28  1  0
 28 29  1  0
 30 29  1  1
 30 31  1  0
 31 21  1  0
 32 30  1  0
 33 32  1  0
 34 32  2  0
M  END
$$$$
