DWR.pdb
     RDKit          3D

 34 35  0  0  1  0  0  0  0  0999 V2000
    9.6475  -17.5749   20.7321 N   0  0  0  0  0  0  0  0  0  0  0  0
   10.9090  -17.0756   21.1891 C   0  0  1  0  0  0  0  0  0  0  0  0
   11.3272  -15.8575   20.4430 C   0  0  0  0  0  0  0  0  0  0  0  0
   11.7106  -16.1011   19.0478 C   0  0  0  0  0  0  0  0  0  0  0  0
   12.3931  -15.3025   18.3394 O   0  0  0  0  0  0  0  0  0  0  0  0
   10.8610  -16.7751   22.6652 C   0  0  0  0  0  0  0  0  0  0  0  0
   11.8036  -16.1874   23.2480 O   0  0  0  0  0  0  0  0  0  0  0  0
   11.3059  -17.2829   18.4444 O   0  0  0  0  0  0  0  0  0  0  0  0
    9.7355  -17.1522   23.4475 N   0  0  0  0  0  0  0  0  0  0  0  0
    9.5728  -16.9470   24.8496 C   0  0  1  0  0  0  0  0  0  0  0  0
    8.2049  -16.5749   25.2949 C   0  0  0  0  0  0  0  0  0  0  0  0
    7.7417  -15.2402   24.8693 C   0  0  0  0  0  0  0  0  0  0  0  0
    7.2940  -14.8832   23.6153 C   0  0  0  0  0  0  0  0  0  0  0  0
    6.9455  -13.5888   23.6166 N   0  0  0  0  0  0  0  0  0  0  0  0
    7.1477  -13.0693   24.8377 C   0  0  0  0  0  0  0  0  0  0  0  0
    6.9403  -11.7873   25.3121 C   0  0  0  0  0  0  0  0  0  0  0  0
    7.2385  -11.5052   26.6265 C   0  0  0  0  0  0  0  0  0  0  0  0
    7.7341  -12.5170   27.4222 C   0  0  0  0  0  0  0  0  0  0  0  0
    7.9401  -13.7909   26.9496 C   0  0  0  0  0  0  0  0  0  0  0  0
    7.6442  -14.0873   25.6266 C   0  0  0  0  0  0  0  0  0  0  0  0
   10.0649  -18.1477   25.6248 C   0  0  0  0  0  0  0  0  0  0  0  0
    9.7080  -19.2773   25.2126 O   0  0  0  0  0  0  0  0  0  0  0  0
   14.3811  -20.4279   33.0665 N   0  0  0  0  0  0  0  0  0  0  0  0
   15.1836  -20.7492   31.9475 C   0  0  0  0  0  0  0  0  0  0  0  0
   16.4661  -20.9124   32.0215 N   0  0  0  0  0  0  0  0  0  0  0  0
   14.5394  -20.9000   30.6829 N   0  0  0  0  0  0  0  0  0  0  0  0
   13.9790  -19.7587   29.9685 C   0  0  0  0  0  0  0  0  0  0  0  0
   13.2510  -20.2294   28.7355 C   0  0  0  0  0  0  0  0  0  0  0  0
   12.6448  -19.0389   28.0445 C   0  0  0  0  0  0  0  0  0  0  0  0
   11.3087  -19.2985   27.4150 C   0  0  2  0  0  0  0  0  0  0  0  0
   10.8846  -18.0529   26.7592 N   0  0  0  0  0  0  0  0  0  0  0  0
   10.2742  -19.7241   28.4019 C   0  0  0  0  0  0  0  0  0  0  0  0
   10.0678  -21.0316   28.7900 O   0  0  0  0  0  0  0  0  0  0  0  0
    9.5157  -18.8491   28.9409 O   0  0  0  0  0  0  0  0  0  0  0  0
  2  1  1  6
  2  3  1  0
  4  3  1  0
  4  8  1  0
  5  4  2  0
  6  7  2  0
  6  2  1  0
  9  6  1  0
 10  9  1  0
 11 12  1  0
 10 11  1  6
 12 13  2  0
 12 20  1  0
 13 14  1  0
 14 15  1  0
 15 16  2  0
 16 17  1  0
 18 17  2  0
 19 18  1  0
 20 19  2  0
 20 15  1  0
 21 10  1  0
 22 21  2  0
 23 24  1  0
 24 25  2  0
 26 24  1  0
 26 27  1  0
 27 28  1  0
 28 29  1  0
 30 29  1  1
 30 31  1  0
 31 21  1  0
 32 30  1  0
 33 32  1  0
 34 32  2  0
M  END
$$$$
