ARF.pdb
     RDKit          3D

 28 28  0  0  1  0  0  0  0  0999 V2000
    8.3216  -20.4359   22.9823 C   0  0  0  0  0  0  0  0  0  0  0  0
    8.7262  -19.6514   21.7344 C   0  0  2  0  0  0  0  0  0  0  0  0
    9.5313  -20.5268   20.9328 N   0  0  0  0  0  0  0  0  0  0  0  0
    9.4886  -18.4199   22.1302 C   0  0  0  0  0  0  0  0  0  0  0  0
   10.6905  -18.5654   22.4674 O   0  0  0  0  0  0  0  0  0  0  0  0
    8.3535  -11.9195   19.1008 N   0  0  0  0  0  0  0  0  0  0  0  0
    7.9549  -13.1885   18.5667 C   0  0  0  0  0  0  0  0  0  0  0  0
    8.3105  -13.5471   17.3840 N   0  0  0  0  0  0  0  0  0  0  0  0
    7.1639  -14.0223   19.3820 N   0  0  0  0  0  0  0  0  0  0  0  0
    6.9589  -13.6714   20.7623 C   0  0  0  0  0  0  0  0  0  0  0  0
    7.5029  -14.8260   21.6112 C   0  0  0  0  0  0  0  0  0  0  0  0
    8.9986  -14.7933   21.6512 C   0  0  0  0  0  0  0  0  0  0  0  0
    9.6358  -15.9215   22.4173 C   0  0  2  0  0  0  0  0  0  0  0  0
    8.8973  -17.1448   22.1295 N   0  0  0  0  0  0  0  0  0  0  0  0
    9.7248  -15.6905   23.8800 C   0  0  0  0  0  0  0  0  0  0  0  0
   10.5894  -14.8778   24.2831 O   0  0  0  0  0  0  0  0  0  0  0  0
    7.9560  -14.4083   16.9458 N   0  0  0  0  0  0  0  0  0  0  0  0
    8.8755  -16.3522   24.8029 C   0  0  1  0  0  0  0  0  0  0  0  0
    9.0944  -16.1534   26.2278 C   0  0  0  0  0  0  0  0  0  0  0  0
    7.8213  -15.8052   26.9330 C   0  0  0  0  0  0  0  0  0  0  0  0
    7.4739  -14.4017   26.7315 C   0  0  0  0  0  0  0  0  0  0  0  0
    6.2404  -13.9819   26.2561 C   0  0  0  0  0  0  0  0  0  0  0  0
    5.9174  -12.6568   26.0951 C   0  0  0  0  0  0  0  0  0  0  0  0
    6.8246  -11.6711   26.4059 C   0  0  0  0  0  0  0  0  0  0  0  0
    8.0589  -12.0517   26.8806 C   0  0  0  0  0  0  0  0  0  0  0  0
    8.3790  -13.3816   27.0409 C   0  0  0  0  0  0  0  0  0  0  0  0
    9.6665  -17.3900   26.7884 O   0  0  0  0  0  0  0  0  0  0  0  0
   10.0145  -17.4305   28.1509 O   0  0  0  0  0  0  0  0  0  0  0  0
  2  1  1  1
  3  2  1  0
  4  5  2  0
  4  2  1  0
  7  6  1  0
  8  7  2  0
  9  7  1  0
 10  9  1  0
 10 11  1  0
 11 12  1  0
 13 12  1  6
 13 14  1  0
 14  4  1  0
 15 13  1  0
 16 15  2  0
 17 15  1  0
 18 17  1  0
 18 26  1  0
 18 19  1  6
 20 25  2  0
 20 19  1  0
 21 20  1  0
 22 23  1  0
 22 21  2  0
 23 24  2  0
 24 25  1  0
 26 27  1  0
 28 26  2  0
M  END
$$$$
