ARF.pdb
     RDKit          3D

 28 28  0  0  1  0  0  0  0  0999 V2000
    9.8496  -12.6269   19.4628 C   0  0  0  0  0  0  0  0  0  0  0  0
    8.7952  -13.5970   18.9305 C   0  0  2  0  0  0  0  0  0  0  0  0
    7.7860  -12.8063   18.2876 N   0  0  0  0  0  0  0  0  0  0  0  0
    8.2203  -14.3983   20.0628 C   0  0  0  0  0  0  0  0  0  0  0  0
    7.3485  -13.8459   20.7800 O   0  0  0  0  0  0  0  0  0  0  0  0
    6.9911  -20.9768   24.0261 N   0  0  0  0  0  0  0  0  0  0  0  0
    6.9188  -21.7941   22.8509 C   0  0  0  0  0  0  0  0  0  0  0  0
    6.9024  -23.0769   22.9400 N   0  0  0  0  0  0  0  0  0  0  0  0
    6.8665  -21.1422   21.6027 N   0  0  0  0  0  0  0  0  0  0  0  0
    6.4853  -19.7559   21.5457 C   0  0  0  0  0  0  0  0  0  0  0  0
    7.6777  -18.9348   22.0492 C   0  0  0  0  0  0  0  0  0  0  0  0
    8.1332  -17.9677   21.0019 C   0  0  0  0  0  0  0  0  0  0  0  0
    8.0851  -16.5205   21.4133 C   0  0  2  0  0  0  0  0  0  0  0  0
    8.6293  -15.7170   20.3256 N   0  0  0  0  0  0  0  0  0  0  0  0
    8.7845  -16.2262   22.6880 C   0  0  0  0  0  0  0  0  0  0  0  0
   10.0322  -16.1159   22.6482 O   0  0  0  0  0  0  0  0  0  0  0  0
    6.8663  -23.6807   22.1073 N   0  0  0  0  0  0  0  0  0  0  0  0
    8.0887  -16.0720   23.9140 C   0  0  2  0  0  0  0  0  0  0  0  0
    8.8488  -15.8025   25.1252 C   0  0  0  0  0  0  0  0  0  0  0  0
    8.3507  -14.5752   25.8215 C   0  0  0  0  0  0  0  0  0  0  0  0
    8.9856  -14.4149   27.1262 C   0  0  0  0  0  0  0  0  0  0  0  0
   10.3540  -14.5204   27.3267 C   0  0  0  0  0  0  0  0  0  0  0  0
   10.9413  -14.3422   28.5553 C   0  0  0  0  0  0  0  0  0  0  0  0
   10.1789  -14.0453   29.6606 C   0  0  0  0  0  0  0  0  0  0  0  0
    8.8171  -13.9329   29.4981 C   0  0  0  0  0  0  0  0  0  0  0  0
    8.2317  -14.1121   28.2645 C   0  0  0  0  0  0  0  0  0  0  0  0
    8.7403  -16.9728   26.0138 O   0  0  0  0  0  0  0  0  0  0  0  0
    7.4886  -17.5915   26.1860 O   0  0  0  0  0  0  0  0  0  0  0  0
  2  1  1  1
  3  2  1  0
  4  5  2  0
  4  2  1  0
  7  6  1  0
  8  7  2  0
  9  7  1  0
 10  9  1  0
 10 11  1  0
 11 12  1  0
 13 12  1  6
 13 14  1  0
 14  4  1  0
 15 13  1  0
 16 15  2  0
 17 15  1  0
 18 17  1  0
 18 26  1  0
 18 19  1  6
 20 25  2  0
 20 19  1  0
 21 20  1  0
 22 23  1  0
 22 21  2  0
 23 24  2  0
 24 25  1  0
 26 27  1  0
 28 26  2  0
M  END
$$$$
