ARF.pdb
     RDKit          3D

 28 28  0  0  1  0  0  0  0  0999 V2000
    8.7528  -12.3365   19.9921 C   0  0  0  0  0  0  0  0  0  0  0  0
    8.2283  -13.6660   19.4504 C   0  0  2  0  0  0  0  0  0  0  0  0
    7.2071  -13.3539   18.4930 N   0  0  0  0  0  0  0  0  0  0  0  0
    7.6840  -14.4972   20.5762 C   0  0  0  0  0  0  0  0  0  0  0  0
    6.5401  -14.2088   21.0094 O   0  0  0  0  0  0  0  0  0  0  0  0
    5.0687  -21.4278   21.0555 N   0  0  0  0  0  0  0  0  0  0  0  0
    5.3081  -21.5550   22.4630 C   0  0  0  0  0  0  0  0  0  0  0  0
    5.0994  -22.6698   23.0691 N   0  0  0  0  0  0  0  0  0  0  0  0
    5.7778  -20.4191   23.1520 N   0  0  0  0  0  0  0  0  0  0  0  0
    6.0847  -19.2226   22.4142 C   0  0  0  0  0  0  0  0  0  0  0  0
    7.5710  -18.9199   22.6354 C   0  0  0  0  0  0  0  0  0  0  0  0
    8.0451  -17.8724   21.6775 C   0  0  0  0  0  0  0  0  0  0  0  0
    7.8670  -16.4547   22.1512 C   0  0  2  0  0  0  0  0  0  0  0  0
    8.4117  -15.5611   21.1366 N   0  0  0  0  0  0  0  0  0  0  0  0
    8.4687  -16.1759   23.4782 C   0  0  0  0  0  0  0  0  0  0  0  0
    9.7067  -15.9856   23.5207 O   0  0  0  0  0  0  0  0  0  0  0  0
    5.2411  -22.7737   24.0832 N   0  0  0  0  0  0  0  0  0  0  0  0
    7.6927  -16.1222   24.6639 C   0  0  2  0  0  0  0  0  0  0  0  0
    8.3499  -15.7957   25.9206 C   0  0  0  0  0  0  0  0  0  0  0  0
    7.3762  -15.2630   26.9243 C   0  0  0  0  0  0  0  0  0  0  0  0
    7.0486  -13.8669   26.6514 C   0  0  0  0  0  0  0  0  0  0  0  0
    7.8806  -12.8086   26.9858 C   0  0  0  0  0  0  0  0  0  0  0  0
    7.5719  -11.5012   26.7005 C   0  0  0  0  0  0  0  0  0  0  0  0
    6.3991  -11.1819   26.0572 C   0  0  0  0  0  0  0  0  0  0  0  0
    5.5495  -12.2073   25.7104 C   0  0  0  0  0  0  0  0  0  0  0  0
    5.8626  -13.5172   25.9980 C   0  0  0  0  0  0  0  0  0  0  0  0
    9.0001  -17.0130   26.4366 O   0  0  0  0  0  0  0  0  0  0  0  0
    9.9325  -16.9030   27.4843 O   0  0  0  0  0  0  0  0  0  0  0  0
  2  1  1  1
  3  2  1  0
  4  5  2  0
  4  2  1  0
  7  6  1  0
  8  7  2  0
  9  7  1  0
 10  9  1  0
 10 11  1  0
 11 12  1  0
 13 12  1  6
 13 14  1  0
 14  4  1  0
 15 13  1  0
 16 15  2  0
 17 15  1  0
 18 17  1  0
 18 26  1  0
 18 19  1  6
 20 25  2  0
 20 19  1  0
 21 20  1  0
 22 23  1  0
 22 21  2  0
 23 24  2  0
 24 25  1  0
 26 27  1  0
 28 26  2  0
M  END
$$$$
