ARF.pdb
     RDKit          3D

 28 28  0  0  1  0  0  0  0  0999 V2000
    7.0259  -19.5972   25.8602 C   0  0  0  0  0  0  0  0  0  0  0  0
    6.6950  -19.6515   24.3690 C   0  0  2  0  0  0  0  0  0  0  0  0
    6.8269  -21.0200   23.9609 N   0  0  0  0  0  0  0  0  0  0  0  0
    7.6330  -18.7622   23.6049 C   0  0  0  0  0  0  0  0  0  0  0  0
    8.7419  -19.2456   23.2642 O   0  0  0  0  0  0  0  0  0  0  0  0
    8.4617  -12.1154   19.1786 N   0  0  0  0  0  0  0  0  0  0  0  0
    8.2219  -13.1843   18.2543 C   0  0  0  0  0  0  0  0  0  0  0  0
    8.9182  -13.2944   17.1786 N   0  0  0  0  0  0  0  0  0  0  0  0
    7.2009  -14.1036   18.5675 N   0  0  0  0  0  0  0  0  0  0  0  0
    6.7891  -14.2617   19.9371 C   0  0  0  0  0  0  0  0  0  0  0  0
    7.8905  -15.0493   20.6557 C   0  0  0  0  0  0  0  0  0  0  0  0
    7.4790  -15.3741   22.0574 C   0  0  0  0  0  0  0  0  0  0  0  0
    8.2523  -16.4941   22.7003 C   0  0  2  0  0  0  0  0  0  0  0  0
    7.3005  -17.4372   23.2742 N   0  0  0  0  0  0  0  0  0  0  0  0
    9.2345  -16.0495   23.7193 C   0  0  0  0  0  0  0  0  0  0  0  0
   10.3350  -15.6141   23.3071 O   0  0  0  0  0  0  0  0  0  0  0  0
    8.8205  -14.1005   16.5463 N   0  0  0  0  0  0  0  0  0  0  0  0
    8.9599  -16.1064   25.1094 C   0  0  1  0  0  0  0  0  0  0  0  0
    9.9881  -15.6818   26.0476 C   0  0  0  0  0  0  0  0  0  0  0  0
   10.0785  -14.1900   26.1213 C   0  0  0  0  0  0  0  0  0  0  0  0
    8.7669  -13.5934   26.3558 C   0  0  0  0  0  0  0  0  0  0  0  0
    8.4373  -12.9073   27.5153 C   0  0  0  0  0  0  0  0  0  0  0  0
    7.2075  -12.3287   27.7128 C   0  0  0  0  0  0  0  0  0  0  0  0
    6.2319  -12.4082   26.7469 C   0  0  0  0  0  0  0  0  0  0  0  0
    6.5246  -13.0817   25.5831 C   0  0  0  0  0  0  0  0  0  0  0  0
    7.7591  -13.6604   25.3886 C   0  0  0  0  0  0  0  0  0  0  0  0
    9.6686  -16.2398   27.3733 O   0  0  0  0  0  0  0  0  0  0  0  0
   10.5341  -15.9860   28.4528 O   0  0  0  0  0  0  0  0  0  0  0  0
  2  1  1  1
  3  2  1  0
  4  5  2  0
  4  2  1  0
  7  6  1  0
  8  7  2  0
  9  7  1  0
 10  9  1  0
 10 11  1  0
 11 12  1  0
 13 12  1  1
 13 14  1  0
 14  4  1  0
 15 13  1  0
 16 15  2  0
 17 15  1  0
 18 17  1  0
 18 26  1  0
 18 19  1  1
 20 25  2  0
 20 19  1  0
 21 20  1  0
 22 23  1  0
 22 21  2  0
 23 24  2  0
 24 25  1  0
 26 27  1  0
 28 26  2  0
M  END
$$$$
