ARF.pdb
     RDKit          3D

 28 28  0  0  1  0  0  0  0  0999 V2000
   13.8127  -15.2788   20.9566 C   0  0  0  0  0  0  0  0  0  0  0  0
   12.5694  -15.0344   20.1019 C   0  0  2  0  0  0  0  0  0  0  0  0
   12.8330  -13.8734   19.3023 N   0  0  0  0  0  0  0  0  0  0  0  0
   11.3741  -14.8266   20.9867 C   0  0  0  0  0  0  0  0  0  0  0  0
   11.1276  -13.6528   21.3620 O   0  0  0  0  0  0  0  0  0  0  0  0
    8.7909  -12.7177   18.7805 N   0  0  0  0  0  0  0  0  0  0  0  0
    8.2697  -13.7218   17.9004 C   0  0  0  0  0  0  0  0  0  0  0  0
    8.5467  -13.7060   16.6446 N   0  0  0  0  0  0  0  0  0  0  0  0
    7.4479  -14.7201   18.4603 N   0  0  0  0  0  0  0  0  0  0  0  0
    7.4867  -14.9522   19.8798 C   0  0  0  0  0  0  0  0  0  0  0  0
    7.9405  -16.4009   20.0920 C   0  0  0  0  0  0  0  0  0  0  0  0
    8.2743  -16.6447   21.5304 C   0  0  0  0  0  0  0  0  0  0  0  0
    9.2976  -15.7052   22.1102 C   0  0  2  0  0  0  0  0  0  0  0  0
   10.5510  -15.8922   21.3898 N   0  0  0  0  0  0  0  0  0  0  0  0
    9.5018  -15.8541   23.5721 C   0  0  0  0  0  0  0  0  0  0  0  0
   10.6414  -16.2000   23.9621 O   0  0  0  0  0  0  0  0  0  0  0  0
    8.2580  -14.4657   16.0132 N   0  0  0  0  0  0  0  0  0  0  0  0
    8.4629  -15.6194   24.5083 C   0  0  1  0  0  0  0  0  0  0  0  0
    8.6960  -15.9304   25.9106 C   0  0  0  0  0  0  0  0  0  0  0  0
    7.5537  -15.4824   26.7671 C   0  0  0  0  0  0  0  0  0  0  0  0
    7.3290  -14.0459   26.6370 C   0  0  0  0  0  0  0  0  0  0  0  0
    8.1293  -13.0904   27.2457 C   0  0  0  0  0  0  0  0  0  0  0  0
    7.9221  -11.7412   27.0944 C   0  0  0  0  0  0  0  0  0  0  0  0
    6.8897  -11.2732   26.3158 C   0  0  0  0  0  0  0  0  0  0  0  0
    6.0754  -12.1936   25.6965 C   0  0  0  0  0  0  0  0  0  0  0  0
    6.2865  -13.5458   25.8504 C   0  0  0  0  0  0  0  0  0  0  0  0
    8.8904  -17.3852   26.0393 O   0  0  0  0  0  0  0  0  0  0  0  0
    9.3932  -17.9077   27.2448 O   0  0  0  0  0  0  0  0  0  0  0  0
  2  1  1  1
  3  2  1  0
  4  5  2  0
  4  2  1  0
  7  6  1  0
  8  7  2  0
  9  7  1  0
 10  9  1  0
 10 11  1  0
 11 12  1  0
 13 12  1  6
 13 14  1  0
 14  4  1  0
 15 13  1  0
 16 15  2  0
 17 15  1  0
 18 17  1  0
 18 26  1  0
 18 19  1  1
 20 25  2  0
 20 19  1  0
 21 20  1  0
 22 23  1  0
 22 21  2  0
 23 24  2  0
 24 25  1  0
 26 27  1  0
 28 26  2  0
M  END
$$$$
