ARF.pdb
     RDKit          3D

 28 28  0  0  1  0  0  0  0  0999 V2000
    7.2888  -20.1940   23.8132 C   0  0  0  0  0  0  0  0  0  0  0  0
    7.2685  -19.4208   22.4949 C   0  0  2  0  0  0  0  0  0  0  0  0
    7.5931  -20.3555   21.4567 N   0  0  0  0  0  0  0  0  0  0  0  0
    8.2628  -18.2968   22.5466 C   0  0  0  0  0  0  0  0  0  0  0  0
    9.4818  -18.5985   22.4982 O   0  0  0  0  0  0  0  0  0  0  0  0
    8.3059  -15.0102   17.7171 N   0  0  0  0  0  0  0  0  0  0  0  0
    8.0998  -13.6124   17.9585 C   0  0  0  0  0  0  0  0  0  0  0  0
    8.0447  -12.7760   16.9831 N   0  0  0  0  0  0  0  0  0  0  0  0
    7.9606  -13.1930   19.2966 N   0  0  0  0  0  0  0  0  0  0  0  0
    6.8545  -13.6797   20.0776 C   0  0  0  0  0  0  0  0  0  0  0  0
    7.3163  -14.9684   20.7673 C   0  0  0  0  0  0  0  0  0  0  0  0
    8.1137  -14.6543   21.9942 C   0  0  0  0  0  0  0  0  0  0  0  0
    8.8018  -15.8372   22.6213 C   0  0  2  0  0  0  0  0  0  0  0  0
    7.8639  -16.9527   22.6453 N   0  0  0  0  0  0  0  0  0  0  0  0
    9.3469  -15.5767   23.9763 C   0  0  0  0  0  0  0  0  0  0  0  0
   10.3647  -14.8500   24.0577 O   0  0  0  0  0  0  0  0  0  0  0  0
    7.9084  -11.7676   17.1370 N   0  0  0  0  0  0  0  0  0  0  0  0
    8.7557  -16.1183   25.1459 C   0  0  1  0  0  0  0  0  0  0  0  0
    9.3814  -15.8610   26.4342 C   0  0  0  0  0  0  0  0  0  0  0  0
    8.4051  -15.2840   27.4106 C   0  0  0  0  0  0  0  0  0  0  0  0
    7.9577  -13.9601   26.9888 C   0  0  0  0  0  0  0  0  0  0  0  0
    8.7775  -12.8412   26.9914 C   0  0  0  0  0  0  0  0  0  0  0  0
    8.3513  -11.6062   26.5678 C   0  0  0  0  0  0  0  0  0  0  0  0
    7.0657  -11.4257   26.1140 C   0  0  0  0  0  0  0  0  0  0  0  0
    6.2246  -12.5147   26.0976 C   0  0  0  0  0  0  0  0  0  0  0  0
    6.6557  -13.7516   26.5229 C   0  0  0  0  0  0  0  0  0  0  0  0
    9.9285  -17.1287   26.9483 O   0  0  0  0  0  0  0  0  0  0  0  0
   10.5766  -17.1419   28.1968 O   0  0  0  0  0  0  0  0  0  0  0  0
  2  1  1  1
  3  2  1  0
  4  5  2  0
  4  2  1  0
  7  6  1  0
  8  7  2  0
  9  7  1  0
 10  9  1  0
 10 11  1  0
 11 12  1  0
 13 12  1  1
 13 14  1  0
 14  4  1  0
 15 13  1  0
 16 15  2  0
 17 15  1  0
 18 17  1  0
 18 26  1  0
 18 19  1  1
 20 25  2  0
 20 19  1  0
 21 20  1  0
 22 23  1  0
 22 21  2  0
 23 24  2  0
 24 25  1  0
 26 27  1  0
 28 26  2  0
M  END
$$$$
