ARF.pdb
     RDKit          3D

 28 28  0  0  1  0  0  0  0  0999 V2000
    7.9226  -12.1604   19.9706 C   0  0  0  0  0  0  0  0  0  0  0  0
    7.9774  -13.5558   19.3492 C   0  0  2  0  0  0  0  0  0  0  0  0
    6.9095  -13.6309   18.3947 N   0  0  0  0  0  0  0  0  0  0  0  0
    7.8256  -14.5979   20.4195 C   0  0  0  0  0  0  0  0  0  0  0  0
    6.6583  -14.9468   20.7278 O   0  0  0  0  0  0  0  0  0  0  0  0
   11.3452  -18.3468   17.4575 N   0  0  0  0  0  0  0  0  0  0  0  0
   10.0436  -18.9267   17.6125 C   0  0  0  0  0  0  0  0  0  0  0  0
    9.1485  -18.7914   16.6990 N   0  0  0  0  0  0  0  0  0  0  0  0
    9.7844  -19.6458   18.7963 N   0  0  0  0  0  0  0  0  0  0  0  0
   10.2177  -19.1078   20.0584 C   0  0  0  0  0  0  0  0  0  0  0  0
    9.3058  -17.9194   20.3840 C   0  0  0  0  0  0  0  0  0  0  0  0
    9.6140  -17.3738   21.7430 C   0  0  0  0  0  0  0  0  0  0  0  0
    8.8177  -16.1569   22.1316 C   0  0  2  0  0  0  0  0  0  0  0  0
    8.9352  -15.1725   21.0630 N   0  0  0  0  0  0  0  0  0  0  0  0
    9.2042  -15.5675   23.4370 C   0  0  0  0  0  0  0  0  0  0  0  0
    9.3122  -14.3204   23.4965 O   0  0  0  0  0  0  0  0  0  0  0  0
    8.1928  -19.1554   16.8143 N   0  0  0  0  0  0  0  0  0  0  0  0
    9.4465  -16.3649   24.5844 C   0  0  2  0  0  0  0  0  0  0  0  0
    9.0787  -15.8450   25.8928 C   0  0  0  0  0  0  0  0  0  0  0  0
    7.6348  -15.4546   25.9397 C   0  0  0  0  0  0  0  0  0  0  0  0
    7.4832  -14.0051   26.0245 C   0  0  0  0  0  0  0  0  0  0  0  0
    6.8662  -13.2440   25.0427 C   0  0  0  0  0  0  0  0  0  0  0  0
    6.7074  -11.8838   25.1465 C   0  0  0  0  0  0  0  0  0  0  0  0
    7.1640  -11.2070   26.2532 C   0  0  0  0  0  0  0  0  0  0  0  0
    7.7813  -11.9309   27.2474 C   0  0  0  0  0  0  0  0  0  0  0  0
    7.9385  -13.2948   27.1398 C   0  0  0  0  0  0  0  0  0  0  0  0
    9.3602  -16.8809   26.9020 O   0  0  0  0  0  0  0  0  0  0  0  0
    9.7554  -18.1632   26.4794 O   0  0  0  0  0  0  0  0  0  0  0  0
  2  1  1  1
  3  2  1  0
  4  5  2  0
  4  2  1  0
  7  6  1  0
  8  7  2  0
  9  7  1  0
 10  9  1  0
 10 11  1  0
 11 12  1  0
 13 12  1  6
 13 14  1  0
 14  4  1  0
 15 13  1  0
 16 15  2  0
 17 15  1  0
 18 17  1  0
 18 26  1  0
 18 19  1  6
 20 25  2  0
 20 19  1  0
 21 20  1  0
 22 23  1  0
 22 21  2  0
 23 24  2  0
 24 25  1  0
 26 27  1  0
 28 26  2  0
M  END
$$$$
