FKY.pdb
     RDKit          3D

 33 34  0  0  1  0  0  0  0  0999 V2000
   28.3885  -21.2571   -9.2840 N   0  0  0  0  0  0  0  0  0  0  0  0
   26.9861  -20.9659   -9.2467 C   0  0  1  0  0  0  0  0  0  0  0  0
   26.6615  -19.7703   -8.3919 C   0  0  0  0  0  0  0  0  0  0  0  0
   27.3377  -19.9456   -7.0816 C   0  0  0  0  0  0  0  0  0  0  0  0
   26.8134  -20.8191   -6.1789 C   0  0  0  0  0  0  0  0  0  0  0  0
   27.4220  -20.9961   -4.9630 C   0  0  0  0  0  0  0  0  0  0  0  0
   28.5513  -20.3005   -4.6538 C   0  0  0  0  0  0  0  0  0  0  0  0
   29.0833  -19.4195   -5.5599 C   0  0  0  0  0  0  0  0  0  0  0  0
   28.4691  -19.2484   -6.7726 C   0  0  0  0  0  0  0  0  0  0  0  0
   26.3903  -20.8064  -10.5988 C   0  0  0  0  0  0  0  0  0  0  0  0
   26.6717  -19.8048  -11.2715 O   0  0  0  0  0  0  0  0  0  0  0  0
   25.4949  -21.7986  -11.1312 N   0  0  0  0  0  0  0  0  0  0  0  0
   24.8369  -21.6154  -12.4079 C   0  0  1  0  0  0  0  0  0  0  0  0
   24.9142  -22.9180  -13.2108 C   0  0  0  0  0  0  0  0  0  0  0  0
   26.1277  -22.9618  -14.0730 C   0  0  0  0  0  0  0  0  0  0  0  0
   26.1576  -24.2406  -14.8623 C   0  0  0  0  0  0  0  0  0  0  0  0
   27.3261  -24.3213  -15.7837 C   0  0  0  0  0  0  0  0  0  0  0  0
   27.5364  -23.0206  -16.4030 N   0  0  0  0  0  0  0  0  0  0  0  0
   23.4061  -21.3637  -12.1614 C   0  0  0  0  0  0  0  0  0  0  0  0
   22.9231  -21.6155  -11.0391 O   0  0  0  0  0  0  0  0  0  0  0  0
   15.7339  -17.2856  -11.6718 O   0  0  0  0  0  0  0  0  0  0  0  0
   17.0472  -17.7674  -11.8035 C   0  0  0  0  0  0  0  0  0  0  0  0
   17.8512  -17.4068  -12.8582 C   0  0  0  0  0  0  0  0  0  0  0  0
   19.1418  -17.8543  -13.0262 C   0  0  0  0  0  0  0  0  0  0  0  0
   19.6765  -18.7154  -12.0921 C   0  0  0  0  0  0  0  0  0  0  0  0
   21.0543  -19.2127  -12.2533 C   0  0  0  0  0  0  0  0  0  0  0  0
   21.1381  -20.5874  -12.8781 C   0  0  2  0  0  0  0  0  0  0  0  0
   22.5580  -20.8410  -13.1678 N   0  0  0  0  0  0  0  0  0  0  0  0
   20.4063  -20.6216  -14.1582 C   0  0  0  0  0  0  0  0  0  0  0  0
   19.0809  -21.0235  -14.2677 O   0  0  0  0  0  0  0  0  0  0  0  0
   18.8765  -19.0909  -11.0176 C   0  0  0  0  0  0  0  0  0  0  0  0
   17.5821  -18.6283  -10.8694 C   0  0  0  0  0  0  0  0  0  0  0  0
   20.9796  -20.2786  -15.2171 O   0  0  0  0  0  0  0  0  0  0  0  0
  2  1  1  6
  3  2  1  0
  3  4  1  0
  4  9  2  0
  5  6  2  0
  5  4  1  0
  6  7  1  0
  7  8  2  0
  9  8  1  0
 10 12  1  0
 10  2  1  0
 11 10  2  0
 13 12  1  0
 13 19  1  0
 13 14  1  6
 15 14  1  0
 16 15  1  0
 17 16  1  0
 18 17  1  0
 19 28  1  0
 20 19  2  0
 22 23  2  0
 22 21  1  0
 24 23  1  0
 25 24  2  0
 26 25  1  0
 27 26  1  6
 27 29  1  0
 28 27  1  0
 29 30  1  0
 31 25  1  0
 31 32  2  0
 32 22  1  0
 33 29  2  0
M  END
$$$$
