FKY.pdb
     RDKit          3D

 33 34  0  0  1  0  0  0  0  0999 V2000
   28.6425  -20.8716   -8.8567 N   0  0  0  0  0  0  0  0  0  0  0  0
   27.2873  -20.5005   -8.5759 C   0  0  1  0  0  0  0  0  0  0  0  0
   27.1866  -19.3189   -7.6490 C   0  0  0  0  0  0  0  0  0  0  0  0
   27.8510  -19.6799   -6.3712 C   0  0  0  0  0  0  0  0  0  0  0  0
   27.2540  -20.5855   -5.5487 C   0  0  0  0  0  0  0  0  0  0  0  0
   27.8504  -20.9331   -4.3640 C   0  0  0  0  0  0  0  0  0  0  0  0
   29.0399  -20.3751   -4.0056 C   0  0  0  0  0  0  0  0  0  0  0  0
   29.6452  -19.4624   -4.8307 C   0  0  0  0  0  0  0  0  0  0  0  0
   29.0427  -19.1205   -6.0128 C   0  0  0  0  0  0  0  0  0  0  0  0
   26.4856  -20.2588   -9.8038 C   0  0  0  0  0  0  0  0  0  0  0  0
   26.7577  -19.2889  -10.5249 O   0  0  0  0  0  0  0  0  0  0  0  0
   25.4024  -21.1357  -10.1609 N   0  0  0  0  0  0  0  0  0  0  0  0
   24.7239  -21.0185  -11.4347 C   0  0  1  0  0  0  0  0  0  0  0  0
   24.9234  -22.3084  -12.2370 C   0  0  0  0  0  0  0  0  0  0  0  0
   24.2829  -22.2262  -13.5791 C   0  0  0  0  0  0  0  0  0  0  0  0
   24.6365  -23.4362  -14.3977 C   0  0  0  0  0  0  0  0  0  0  0  0
   24.0089  -23.4205  -15.7493 C   0  0  0  0  0  0  0  0  0  0  0  0
   24.3487  -24.6518  -16.4477 N   0  0  0  0  0  0  0  0  0  0  0  0
   23.2767  -20.9063  -11.1816 C   0  0  0  0  0  0  0  0  0  0  0  0
   22.6374  -21.9137  -10.8174 O   0  0  0  0  0  0  0  0  0  0  0  0
   19.8877  -19.0716  -18.6834 O   0  0  0  0  0  0  0  0  0  0  0  0
   20.5784  -19.2160  -17.4684 C   0  0  0  0  0  0  0  0  0  0  0  0
   19.9200  -19.3410  -16.2686 C   0  0  0  0  0  0  0  0  0  0  0  0
   20.5560  -19.4844  -15.0564 C   0  0  0  0  0  0  0  0  0  0  0  0
   21.9338  -19.5060  -15.0241 C   0  0  0  0  0  0  0  0  0  0  0  0
   22.6376  -19.6527  -13.7377 C   0  0  0  0  0  0  0  0  0  0  0  0
   21.7498  -19.4531  -12.5298 C   0  0  2  0  0  0  0  0  0  0  0  0
   22.5860  -19.6803  -11.3408 N   0  0  0  0  0  0  0  0  0  0  0  0
   20.6645  -20.4516  -12.5120 C   0  0  0  0  0  0  0  0  0  0  0  0
   20.8599  -21.7948  -12.8085 O   0  0  0  0  0  0  0  0  0  0  0  0
   22.6167  -19.3808  -16.2298 C   0  0  0  0  0  0  0  0  0  0  0  0
   21.9563  -19.2378  -17.4360 C   0  0  0  0  0  0  0  0  0  0  0  0
   19.4977  -20.1037  -12.2202 O   0  0  0  0  0  0  0  0  0  0  0  0
  2  1  1  6
  3  2  1  0
  3  4  1  0
  4  9  2  0
  5  6  2  0
  5  4  1  0
  6  7  1  0
  7  8  2  0
  9  8  1  0
 10 12  1  0
 10  2  1  0
 11 10  2  0
 13 12  1  0
 13 19  1  0
 13 14  1  6
 15 14  1  0
 16 15  1  0
 17 16  1  0
 18 17  1  0
 19 28  1  0
 20 19  2  0
 22 23  2  0
 22 21  1  0
 24 23  1  0
 25 24  2  0
 26 25  1  0
 27 26  1  6
 27 29  1  0
 28 27  1  0
 29 30  1  0
 31 25  1  0
 31 32  2  0
 32 22  1  0
 33 29  2  0
M  END
$$$$
