FKY.pdb
     RDKit          3D

 33 34  0  0  1  0  0  0  0  0999 V2000
   19.8827  -22.4563  -13.5410 N   0  0  0  0  0  0  0  0  0  0  0  0
   20.7085  -21.8582  -14.5476 C   0  0  1  0  0  0  0  0  0  0  0  0
   20.5030  -20.3716  -14.6626 C   0  0  0  0  0  0  0  0  0  0  0  0
   19.2486  -20.1390  -15.4222 C   0  0  0  0  0  0  0  0  0  0  0  0
   19.2933  -20.1216  -16.7826 C   0  0  0  0  0  0  0  0  0  0  0  0
   18.1466  -19.9084  -17.5035 C   0  0  0  0  0  0  0  0  0  0  0  0
   16.9604  -19.7136  -16.8631 C   0  0  0  0  0  0  0  0  0  0  0  0
   16.9104  -19.7302  -15.4930 C   0  0  0  0  0  0  0  0  0  0  0  0
   18.0607  -19.9439  -14.7801 C   0  0  0  0  0  0  0  0  0  0  0  0
   22.1521  -22.1642  -14.3710 C   0  0  0  0  0  0  0  0  0  0  0  0
   22.6503  -22.1068  -13.2383 O   0  0  0  0  0  0  0  0  0  0  0  0
   22.9720  -22.5244  -15.4970 N   0  0  0  0  0  0  0  0  0  0  0  0
   24.3712  -22.8602  -15.3362 C   0  0  1  0  0  0  0  0  0  0  0  0
   24.8127  -23.7644  -16.4915 C   0  0  0  0  0  0  0  0  0  0  0  0
   26.2108  -24.2448  -16.3110 C   0  0  0  0  0  0  0  0  0  0  0  0
   26.6269  -25.0841  -17.4864 C   0  0  0  0  0  0  0  0  0  0  0  0
   28.0230  -25.5914  -17.3662 C   0  0  0  0  0  0  0  0  0  0  0  0
   28.3213  -26.4436  -18.5082 N   0  0  0  0  0  0  0  0  0  0  0  0
   25.1623  -21.6224  -15.4519 C   0  0  0  0  0  0  0  0  0  0  0  0
   24.7515  -20.6973  -16.1810 O   0  0  0  0  0  0  0  0  0  0  0  0
   24.7525  -20.9536   -8.6881 O   0  0  0  0  0  0  0  0  0  0  0  0
   25.5070  -20.7277   -9.8516 C   0  0  0  0  0  0  0  0  0  0  0  0
   26.0676  -21.7593  -10.5660 C   0  0  0  0  0  0  0  0  0  0  0  0
   26.8130  -21.5837  -11.7096 C   0  0  0  0  0  0  0  0  0  0  0  0
   27.0204  -20.3053  -12.1812 C   0  0  0  0  0  0  0  0  0  0  0  0
   27.8199  -20.0913  -13.4004 C   0  0  0  0  0  0  0  0  0  0  0  0
   27.0081  -20.1219  -14.6761 C   0  0  2  0  0  0  0  0  0  0  0  0
   26.3832  -21.4514  -14.7549 N   0  0  0  0  0  0  0  0  0  0  0  0
   27.8838  -19.9676  -15.8528 C   0  0  0  0  0  0  0  0  0  0  0  0
   28.2728  -21.0309  -16.6579 O   0  0  0  0  0  0  0  0  0  0  0  0
   26.4600  -19.2487  -11.4703 C   0  0  0  0  0  0  0  0  0  0  0  0
   25.7143  -19.4493  -10.3235 C   0  0  0  0  0  0  0  0  0  0  0  0
   28.3156  -18.8354  -16.1683 O   0  0  0  0  0  0  0  0  0  0  0  0
  2  1  1  1
  3  2  1  0
  3  4  1  0
  4  9  2  0
  5  6  2  0
  5  4  1  0
  6  7  1  0
  7  8  2  0
  9  8  1  0
 10 12  1  0
 10  2  1  0
 11 10  2  0
 13 12  1  0
 13 19  1  0
 13 14  1  6
 15 14  1  0
 16 15  1  0
 17 16  1  0
 18 17  1  0
 19 28  1  0
 20 19  2  0
 22 23  2  0
 22 21  1  0
 24 23  1  0
 25 24  2  0
 26 25  1  0
 27 26  1  1
 27 29  1  0
 28 27  1  0
 29 30  1  0
 31 25  1  0
 31 32  2  0
 32 22  1  0
 33 29  2  0
M  END
$$$$
