FKY.pdb
     RDKit          3D

 33 34  0  0  1  0  0  0  0  0999 V2000
   34.2341  -33.7621  -18.3178 N   0  0  0  0  0  0  0  0  0  0  0  0
   32.9418  -33.3420  -18.7720 C   0  0  1  0  0  0  0  0  0  0  0  0
   31.8762  -34.3789  -18.5377 C   0  0  0  0  0  0  0  0  0  0  0  0
   32.1260  -35.5115  -19.4647 C   0  0  0  0  0  0  0  0  0  0  0  0
   32.7697  -36.6170  -18.9992 C   0  0  0  0  0  0  0  0  0  0  0  0
   33.0106  -37.6742  -19.8384 C   0  0  0  0  0  0  0  0  0  0  0  0
   32.6079  -37.6232  -21.1385 C   0  0  0  0  0  0  0  0  0  0  0  0
   31.9592  -36.5119  -21.6120 C   0  0  0  0  0  0  0  0  0  0  0  0
   31.7223  -35.4597  -20.7669 C   0  0  0  0  0  0  0  0  0  0  0  0
   32.5216  -32.0365  -18.1995 C   0  0  0  0  0  0  0  0  0  0  0  0
   32.9286  -31.7071  -17.0768 O   0  0  0  0  0  0  0  0  0  0  0  0
   31.6512  -31.1564  -18.9328 N   0  0  0  0  0  0  0  0  0  0  0  0
   31.2132  -29.8925  -18.3784 C   0  0  1  0  0  0  0  0  0  0  0  0
   31.0395  -28.8744  -19.5100 C   0  0  0  0  0  0  0  0  0  0  0  0
   31.5569  -27.5316  -19.1263 C   0  0  0  0  0  0  0  0  0  0  0  0
   30.6509  -26.8980  -18.1081 C   0  0  0  0  0  0  0  0  0  0  0  0
   31.0976  -25.5330  -17.7101 C   0  0  0  0  0  0  0  0  0  0  0  0
   30.2152  -25.0267  -16.6688 N   0  0  0  0  0  0  0  0  0  0  0  0
   29.8789  -30.0837  -17.7833 C   0  0  0  0  0  0  0  0  0  0  0  0
   29.7394  -30.8778  -16.8315 O   0  0  0  0  0  0  0  0  0  0  0  0
   21.1399  -28.9407  -16.3801 O   0  0  0  0  0  0  0  0  0  0  0  0
   22.4802  -28.8086  -16.7805 C   0  0  0  0  0  0  0  0  0  0  0  0
   22.9039  -29.1788  -18.0344 C   0  0  0  0  0  0  0  0  0  0  0  0
   24.2054  -29.0669  -18.4679 C   0  0  0  0  0  0  0  0  0  0  0  0
   25.1536  -28.5559  -17.6079 C   0  0  0  0  0  0  0  0  0  0  0  0
   26.5548  -28.4317  -18.0471 C   0  0  0  0  0  0  0  0  0  0  0  0
   27.4299  -29.5933  -17.6326 C   0  0  2  0  0  0  0  0  0  0  0  0
   28.7429  -29.3877  -18.2636 N   0  0  0  0  0  0  0  0  0  0  0  0
   26.8818  -30.8643  -18.1418 C   0  0  0  0  0  0  0  0  0  0  0  0
   26.2600  -31.8054  -17.3307 O   0  0  0  0  0  0  0  0  0  0  0  0
   24.7421  -28.1759  -16.3343 C   0  0  0  0  0  0  0  0  0  0  0  0
   23.4286  -28.2974  -15.9207 C   0  0  0  0  0  0  0  0  0  0  0  0
   26.9657  -31.1393  -19.3605 O   0  0  0  0  0  0  0  0  0  0  0  0
  2  1  1  1
  3  2  1  0
  3  4  1  0
  4  9  2  0
  5  6  2  0
  5  4  1  0
  6  7  1  0
  7  8  2  0
  9  8  1  0
 10 12  1  0
 10  2  1  0
 11 10  2  0
 13 12  1  0
 13 19  1  0
 13 14  1  6
 15 14  1  0
 16 15  1  0
 17 16  1  0
 18 17  1  0
 19 28  1  0
 20 19  2  0
 22 23  2  0
 22 21  1  0
 24 23  1  0
 25 24  2  0
 26 25  1  0
 27 26  1  6
 27 29  1  0
 28 27  1  0
 29 30  1  0
 31 25  1  0
 31 32  2  0
 32 22  1  0
 33 29  2  0
M  END
$$$$
