FKY.pdb
     RDKit          3D

 33 34  0  0  1  0  0  0  0  0999 V2000
   25.3360  -27.6393  -17.1926 N   0  0  0  0  0  0  0  0  0  0  0  0
   24.6253  -26.4186  -16.9524 C   0  0  1  0  0  0  0  0  0  0  0  0
   23.3977  -26.6161  -16.1040 C   0  0  0  0  0  0  0  0  0  0  0  0
   22.3146  -27.1342  -16.9776 C   0  0  0  0  0  0  0  0  0  0  0  0
   22.0780  -28.4742  -17.0128 C   0  0  0  0  0  0  0  0  0  0  0  0
   21.0826  -28.9738  -17.8126 C   0  0  0  0  0  0  0  0  0  0  0  0
   20.3279  -28.1335  -18.5736 C   0  0  0  0  0  0  0  0  0  0  0  0
   20.5624  -26.7829  -18.5415 C   0  0  0  0  0  0  0  0  0  0  0  0
   21.5589  -26.2918  -17.7397 C   0  0  0  0  0  0  0  0  0  0  0  0
   25.4829  -25.3522  -16.3728 C   0  0  0  0  0  0  0  0  0  0  0  0
   26.4192  -25.6662  -15.6247 O   0  0  0  0  0  0  0  0  0  0  0  0
   25.2375  -23.9662  -16.6705 N   0  0  0  0  0  0  0  0  0  0  0  0
   26.0788  -22.9174  -16.1331 C   0  0  1  0  0  0  0  0  0  0  0  0
   25.9949  -21.6847  -17.0389 C   0  0  0  0  0  0  0  0  0  0  0  0
   26.8831  -21.8138  -18.2275 C   0  0  0  0  0  0  0  0  0  0  0  0
   26.7661  -20.5938  -19.0975 C   0  0  0  0  0  0  0  0  0  0  0  0
   27.6344  -20.6635  -20.3068 C   0  0  0  0  0  0  0  0  0  0  0  0
   27.5064  -19.4234  -21.0586 N   0  0  0  0  0  0  0  0  0  0  0  0
   25.5352  -22.5099  -14.8256 C   0  0  0  0  0  0  0  0  0  0  0  0
   24.2997  -22.4886  -14.6542 O   0  0  0  0  0  0  0  0  0  0  0  0
   25.3493  -19.3700   -6.4753 O   0  0  0  0  0  0  0  0  0  0  0  0
   25.7423  -19.8662   -7.7297 C   0  0  0  0  0  0  0  0  0  0  0  0
   26.3654  -19.0721   -8.6625 C   0  0  0  0  0  0  0  0  0  0  0  0
   26.7669  -19.5162   -9.9018 C   0  0  0  0  0  0  0  0  0  0  0  0
   26.5390  -20.8314  -10.2455 C   0  0  0  0  0  0  0  0  0  0  0  0
   26.9546  -21.3289  -11.5689 C   0  0  0  0  0  0  0  0  0  0  0  0
   25.7997  -21.6449  -12.4927 C   0  0  2  0  0  0  0  0  0  0  0  0
   26.3799  -22.1392  -13.7510 N   0  0  0  0  0  0  0  0  0  0  0  0
   25.0327  -20.4236  -12.8020 C   0  0  0  0  0  0  0  0  0  0  0  0
   25.4133  -19.5115  -13.7783 O   0  0  0  0  0  0  0  0  0  0  0  0
   25.9093  -21.6497   -9.3130 C   0  0  0  0  0  0  0  0  0  0  0  0
   25.5147  -21.1814   -8.0735 C   0  0  0  0  0  0  0  0  0  0  0  0
   23.9823  -20.1668  -12.1708 O   0  0  0  0  0  0  0  0  0  0  0  0
  2  1  1  1
  3  2  1  0
  3  4  1  0
  4  9  2  0
  5  6  2  0
  5  4  1  0
  6  7  1  0
  7  8  2  0
  9  8  1  0
 10 12  1  0
 10  2  1  0
 11 10  2  0
 13 12  1  0
 13 19  1  0
 13 14  1  6
 15 14  1  0
 16 15  1  0
 17 16  1  0
 18 17  1  0
 19 28  1  0
 20 19  2  0
 22 23  2  0
 22 21  1  0
 24 23  1  0
 25 24  2  0
 26 25  1  0
 27 26  1  1
 27 29  1  0
 28 27  1  0
 29 30  1  0
 31 25  1  0
 31 32  2  0
 32 22  1  0
 33 29  2  0
M  END
$$$$
