FKY.pdb
     RDKit          3D

 33 34  0  0  1  0  0  0  0  0999 V2000
   23.1857  -10.0722  -17.4087 N   0  0  0  0  0  0  0  0  0  0  0  0
   22.9087   -9.1701  -16.3305 C   0  0  1  0  0  0  0  0  0  0  0  0
   24.1210   -8.3903  -15.8970 C   0  0  0  0  0  0  0  0  0  0  0  0
   25.2578   -9.3379  -15.7774 C   0  0  0  0  0  0  0  0  0  0  0  0
   26.3132   -9.2148  -16.6282 C   0  0  0  0  0  0  0  0  0  0  0  0
   27.3733  -10.0794  -16.5351 C   0  0  0  0  0  0  0  0  0  0  0  0
   27.3750  -11.0631  -15.5931 C   0  0  0  0  0  0  0  0  0  0  0  0
   26.3142  -11.1911  -14.7338 C   0  0  0  0  0  0  0  0  0  0  0  0
   25.2588  -10.3231  -14.8335 C   0  0  0  0  0  0  0  0  0  0  0  0
   21.7819   -8.2460  -16.6221 C   0  0  0  0  0  0  0  0  0  0  0  0
   21.7160   -7.7010  -17.7327 O   0  0  0  0  0  0  0  0  0  0  0  0
   20.7724   -7.9797  -15.6322 N   0  0  0  0  0  0  0  0  0  0  0  0
   19.6229   -7.1508  -15.9292 C   0  0  1  0  0  0  0  0  0  0  0  0
   18.3796   -7.7492  -15.2634 C   0  0  0  0  0  0  0  0  0  0  0  0
   17.1683   -6.9195  -15.5135 C   0  0  0  0  0  0  0  0  0  0  0  0
   15.9614   -7.5618  -14.8890 C   0  0  0  0  0  0  0  0  0  0  0  0
   14.6978   -6.8344  -15.1971 C   0  0  0  0  0  0  0  0  0  0  0  0
   13.5889   -7.4993  -14.5281 N   0  0  0  0  0  0  0  0  0  0  0  0
   19.8304   -5.8298  -15.3103 C   0  0  0  0  0  0  0  0  0  0  0  0
   20.4110   -5.7524  -14.2089 O   0  0  0  0  0  0  0  0  0  0  0  0
   21.3388    2.7497  -14.1566 O   0  0  0  0  0  0  0  0  0  0  0  0
   21.1773    1.4242  -14.5940 C   0  0  0  0  0  0  0  0  0  0  0  0
   20.4220    1.1104  -15.6984 C   0  0  0  0  0  0  0  0  0  0  0  0
   20.2372   -0.1725  -16.1615 C   0  0  0  0  0  0  0  0  0  0  0  0
   20.8369   -1.2168  -15.4910 C   0  0  0  0  0  0  0  0  0  0  0  0
   20.6492   -2.5997  -15.9641 C   0  0  0  0  0  0  0  0  0  0  0  0
   19.5441   -3.3449  -15.2496 C   0  0  2  0  0  0  0  0  0  0  0  0
   19.3869   -4.6379  -15.9334 N   0  0  0  0  0  0  0  0  0  0  0  0
   18.2666   -2.6172  -15.3670 C   0  0  0  0  0  0  0  0  0  0  0  0
   17.8095   -1.7205  -14.4094 O   0  0  0  0  0  0  0  0  0  0  0  0
   21.6055   -0.9172  -14.3706 C   0  0  0  0  0  0  0  0  0  0  0  0
   21.7771    0.3798  -13.9238 C   0  0  0  0  0  0  0  0  0  0  0  0
   17.5340   -2.7947  -16.3668 O   0  0  0  0  0  0  0  0  0  0  0  0
  2  1  1  6
  3  2  1  0
  3  4  1  0
  4  9  2  0
  5  6  2  0
  5  4  1  0
  6  7  1  0
  7  8  2  0
  9  8  1  0
 10 12  1  0
 10  2  1  0
 11 10  2  0
 13 12  1  0
 13 19  1  0
 13 14  1  1
 15 14  1  0
 16 15  1  0
 17 16  1  0
 18 17  1  0
 19 28  1  0
 20 19  2  0
 22 23  2  0
 22 21  1  0
 24 23  1  0
 25 24  2  0
 26 25  1  0
 27 26  1  6
 27 29  1  0
 28 27  1  0
 29 30  1  0
 31 25  1  0
 31 32  2  0
 32 22  1  0
 33 29  2  0
M  END
$$$$
