FKY.pdb
     RDKit          3D

 33 34  0  0  1  0  0  0  0  0999 V2000
   28.0297  -18.8751   -8.1997 N   0  0  0  0  0  0  0  0  0  0  0  0
   27.3487  -20.1315   -8.3033 C   0  0  1  0  0  0  0  0  0  0  0  0
   26.7062  -20.5546   -7.0096 C   0  0  0  0  0  0  0  0  0  0  0  0
   27.6859  -20.3322   -5.9162 C   0  0  0  0  0  0  0  0  0  0  0  0
   27.2401  -20.2715   -4.6315 C   0  0  0  0  0  0  0  0  0  0  0  0
   28.1279  -20.0668   -3.6068 C   0  0  0  0  0  0  0  0  0  0  0  0
   29.4567  -19.9235   -3.8692 C   0  0  0  0  0  0  0  0  0  0  0  0
   29.9105  -19.9839   -5.1616 C   0  0  0  0  0  0  0  0  0  0  0  0
   29.0169  -20.1888   -6.1798 C   0  0  0  0  0  0  0  0  0  0  0  0
   26.3516  -20.1620   -9.4049 C   0  0  0  0  0  0  0  0  0  0  0  0
   25.3684  -19.4100   -9.3543 O   0  0  0  0  0  0  0  0  0  0  0  0
   26.5165  -21.0516  -10.5235 N   0  0  0  0  0  0  0  0  0  0  0  0
   25.9102  -20.7708  -11.8081 C   0  0  1  0  0  0  0  0  0  0  0  0
   26.7877  -21.3515  -12.9217 C   0  0  0  0  0  0  0  0  0  0  0  0
   26.1894  -21.1273  -14.2670 C   0  0  0  0  0  0  0  0  0  0  0  0
   27.0604  -21.7358  -15.3301 C   0  0  0  0  0  0  0  0  0  0  0  0
   27.9439  -20.7352  -15.9929 C   0  0  0  0  0  0  0  0  0  0  0  0
   27.1361  -19.8773  -16.8479 N   0  0  0  0  0  0  0  0  0  0  0  0
   24.6225  -21.4834  -11.8797 C   0  0  0  0  0  0  0  0  0  0  0  0
   24.5494  -22.6612  -11.4753 O   0  0  0  0  0  0  0  0  0  0  0  0
   16.0347  -23.1716  -11.2687 O   0  0  0  0  0  0  0  0  0  0  0  0
   17.3212  -22.6095  -11.3229 C   0  0  0  0  0  0  0  0  0  0  0  0
   18.3458  -23.0612  -10.5260 C   0  0  0  0  0  0  0  0  0  0  0  0
   19.6196  -22.5403  -10.5464 C   0  0  0  0  0  0  0  0  0  0  0  0
   19.9031  -21.5042  -11.4100 C   0  0  0  0  0  0  0  0  0  0  0  0
   21.2581  -20.9259  -11.4460 C   0  0  0  0  0  0  0  0  0  0  0  0
   22.1848  -21.6026  -12.4312 C   0  0  2  0  0  0  0  0  0  0  0  0
   23.4579  -20.8661  -12.3978 N   0  0  0  0  0  0  0  0  0  0  0  0
   21.6467  -21.5060  -13.8010 C   0  0  0  0  0  0  0  0  0  0  0  0
   20.8634  -22.4946  -14.3834 O   0  0  0  0  0  0  0  0  0  0  0  0
   18.8775  -21.0343  -12.2243 C   0  0  0  0  0  0  0  0  0  0  0  0
   17.6050  -21.5734  -12.1866 C   0  0  0  0  0  0  0  0  0  0  0  0
   21.8904  -20.4964  -14.5002 O   0  0  0  0  0  0  0  0  0  0  0  0
  2  1  1  1
  3  2  1  0
  3  4  1  0
  4  9  2  0
  5  6  2  0
  5  4  1  0
  6  7  1  0
  7  8  2  0
  9  8  1  0
 10 12  1  0
 10  2  1  0
 11 10  2  0
 13 12  1  0
 13 19  1  0
 13 14  1  6
 15 14  1  0
 16 15  1  0
 17 16  1  0
 18 17  1  0
 19 28  1  0
 20 19  2  0
 22 23  2  0
 22 21  1  0
 24 23  1  0
 25 24  2  0
 26 25  1  0
 27 26  1  1
 27 29  1  0
 28 27  1  0
 29 30  1  0
 31 25  1  0
 31 32  2  0
 32 22  1  0
 33 29  2  0
M  END
$$$$
