FKY.pdb
     RDKit          3D

 33 34  0  0  1  0  0  0  0  0999 V2000
   27.2615  -21.6110  -11.0370 N   0  0  0  0  0  0  0  0  0  0  0  0
   25.8872  -21.3131  -11.3122 C   0  0  1  0  0  0  0  0  0  0  0  0
   25.3998  -20.0878  -10.5865 C   0  0  0  0  0  0  0  0  0  0  0  0
   25.6111  -20.3011   -9.1323 C   0  0  0  0  0  0  0  0  0  0  0  0
   24.8760  -21.2497   -8.4898 C   0  0  0  0  0  0  0  0  0  0  0  0
   25.0552  -21.4629   -7.1473 C   0  0  0  0  0  0  0  0  0  0  0  0
   25.9674  -20.7283   -6.4522 C   0  0  0  0  0  0  0  0  0  0  0  0
   26.7102  -19.7717   -7.0949 C   0  0  0  0  0  0  0  0  0  0  0  0
   26.5251  -19.5648   -8.4367 C   0  0  0  0  0  0  0  0  0  0  0  0
   25.5984  -21.1972  -12.7654 C   0  0  0  0  0  0  0  0  0  0  0  0
   26.0812  -20.2536  -13.4066 O   0  0  0  0  0  0  0  0  0  0  0  0
   24.7678  -22.1652  -13.4309 N   0  0  0  0  0  0  0  0  0  0  0  0
   24.5909  -22.1484  -14.8680 C   0  0  1  0  0  0  0  0  0  0  0  0
   25.2393  -23.3971  -15.4742 C   0  0  0  0  0  0  0  0  0  0  0  0
   26.1968  -23.0479  -16.5601 C   0  0  0  0  0  0  0  0  0  0  0  0
   27.4439  -23.8781  -16.4391 C   0  0  0  0  0  0  0  0  0  0  0  0
   28.5056  -23.4657  -17.4002 C   0  0  0  0  0  0  0  0  0  0  0  0
   29.7206  -24.2174  -17.1207 N   0  0  0  0  0  0  0  0  0  0  0  0
   23.1499  -22.2453  -15.1599 C   0  0  0  0  0  0  0  0  0  0  0  0
   22.4847  -23.1774  -14.6649 O   0  0  0  0  0  0  0  0  0  0  0  0
   19.7838  -21.0412   -9.9305 O   0  0  0  0  0  0  0  0  0  0  0  0
   19.9410  -20.8371  -11.3117 C   0  0  0  0  0  0  0  0  0  0  0  0
   19.2089  -21.5403  -12.2382 C   0  0  0  0  0  0  0  0  0  0  0  0
   19.3306  -21.3725  -13.5988 C   0  0  0  0  0  0  0  0  0  0  0  0
   20.2348  -20.4497  -14.0792 C   0  0  0  0  0  0  0  0  0  0  0  0
   20.3873  -20.2562  -15.5321 C   0  0  0  0  0  0  0  0  0  0  0  0
   21.0479  -21.4196  -16.2371 C   0  0  2  0  0  0  0  0  0  0  0  0
   22.4939  -21.3051  -15.9912 N   0  0  0  0  0  0  0  0  0  0  0  0
   20.8326  -21.3344  -17.6937 C   0  0  0  0  0  0  0  0  0  0  0  0
   21.8531  -21.0791  -18.6011 O   0  0  0  0  0  0  0  0  0  0  0  0
   20.9845  -19.7287  -13.1552 C   0  0  0  0  0  0  0  0  0  0  0  0
   20.8450  -19.9142  -11.7923 C   0  0  0  0  0  0  0  0  0  0  0  0
   19.6849  -21.4946  -18.1679 O   0  0  0  0  0  0  0  0  0  0  0  0
  2  1  1  6
  3  2  1  0
  3  4  1  0
  4  9  2  0
  5  6  2  0
  5  4  1  0
  6  7  1  0
  7  8  2  0
  9  8  1  0
 10 12  1  0
 10  2  1  0
 11 10  2  0
 13 12  1  0
 13 19  1  0
 13 14  1  6
 15 14  1  0
 16 15  1  0
 17 16  1  0
 18 17  1  0
 19 28  1  0
 20 19  2  0
 22 23  2  0
 22 21  1  0
 24 23  1  0
 25 24  2  0
 26 25  1  0
 27 26  1  1
 27 29  1  0
 28 27  1  0
 29 30  1  0
 31 25  1  0
 31 32  2  0
 32 22  1  0
 33 29  2  0
M  END
$$$$
