FKY.pdb
     RDKit          3D

 33 34  0  0  1  0  0  0  0  0999 V2000
   28.0971  -20.4805  -11.2412 N   0  0  0  0  0  0  0  0  0  0  0  0
   26.8396  -21.1158  -10.9808 C   0  0  1  0  0  0  0  0  0  0  0  0
   26.1556  -20.5740   -9.7543 C   0  0  0  0  0  0  0  0  0  0  0  0
   27.1760  -20.4312   -8.6851 C   0  0  0  0  0  0  0  0  0  0  0  0
   28.2215  -21.3022   -8.6486 C   0  0  0  0  0  0  0  0  0  0  0  0
   29.1749  -21.1881   -7.6698 C   0  0  0  0  0  0  0  0  0  0  0  0
   29.0804  -20.2052   -6.7318 C   0  0  0  0  0  0  0  0  0  0  0  0
   28.0291  -19.3254   -6.7644 C   0  0  0  0  0  0  0  0  0  0  0  0
   27.0807  -19.4462   -7.7458 C   0  0  0  0  0  0  0  0  0  0  0  0
   25.9157  -21.0727  -12.1441 C   0  0  0  0  0  0  0  0  0  0  0  0
   25.7328  -19.9989  -12.7342 O   0  0  0  0  0  0  0  0  0  0  0  0
   25.2355  -22.2598  -12.5892 N   0  0  0  0  0  0  0  0  0  0  0  0
   24.3780  -22.2467  -13.7558 C   0  0  1  0  0  0  0  0  0  0  0  0
   24.4977  -23.5866  -14.4892 C   0  0  0  0  0  0  0  0  0  0  0  0
   25.7372  -23.6546  -15.3121 C   0  0  0  0  0  0  0  0  0  0  0  0
   25.8299  -24.9869  -16.0016 C   0  0  0  0  0  0  0  0  0  0  0  0
   27.0505  -25.1140  -16.8471 C   0  0  0  0  0  0  0  0  0  0  0  0
   27.1298  -26.4703  -17.3701 N   0  0  0  0  0  0  0  0  0  0  0  0
   22.9794  -22.1445  -13.3033 C   0  0  0  0  0  0  0  0  0  0  0  0
   22.7011  -22.3835  -12.1110 O   0  0  0  0  0  0  0  0  0  0  0  0
   16.0780  -17.5004  -11.2112 O   0  0  0  0  0  0  0  0  0  0  0  0
   17.2600  -18.1450  -11.6132 C   0  0  0  0  0  0  0  0  0  0  0  0
   18.0014  -17.7025  -12.6825 C   0  0  0  0  0  0  0  0  0  0  0  0
   19.1638  -18.3028  -13.1103 C   0  0  0  0  0  0  0  0  0  0  0  0
   19.6269  -19.4142  -12.4394 C   0  0  0  0  0  0  0  0  0  0  0  0
   20.8659  -20.0778  -12.8820 C   0  0  0  0  0  0  0  0  0  0  0  0
   20.6313  -21.3557  -13.6561 C   0  0  2  0  0  0  0  0  0  0  0  0
   21.9354  -21.7804  -14.1882 N   0  0  0  0  0  0  0  0  0  0  0  0
   19.7370  -21.1114  -14.8032 C   0  0  0  0  0  0  0  0  0  0  0  0
   18.3578  -21.2660  -14.7405 O   0  0  0  0  0  0  0  0  0  0  0  0
   18.8886  -19.8759  -11.3542 C   0  0  0  0  0  0  0  0  0  0  0  0
   17.7234  -19.2563  -10.9423 C   0  0  0  0  0  0  0  0  0  0  0  0
   20.2130  -20.7464  -15.9022 O   0  0  0  0  0  0  0  0  0  0  0  0
  2  1  1  6
  3  2  1  0
  3  4  1  0
  4  9  2  0
  5  6  2  0
  5  4  1  0
  6  7  1  0
  7  8  2  0
  9  8  1  0
 10 12  1  0
 10  2  1  0
 11 10  2  0
 13 12  1  0
 13 19  1  0
 13 14  1  1
 15 14  1  0
 16 15  1  0
 17 16  1  0
 18 17  1  0
 19 28  1  0
 20 19  2  0
 22 23  2  0
 22 21  1  0
 24 23  1  0
 25 24  2  0
 26 25  1  0
 27 26  1  6
 27 29  1  0
 28 27  1  0
 29 30  1  0
 31 25  1  0
 31 32  2  0
 32 22  1  0
 33 29  2  0
M  END
$$$$
