FKY.pdb
     RDKit          3D

 33 34  0  0  1  0  0  0  0  0999 V2000
   28.3008  -19.4642   -9.2972 N   0  0  0  0  0  0  0  0  0  0  0  0
   27.3178  -20.5059   -9.2576 C   0  0  1  0  0  0  0  0  0  0  0  0
   26.5965  -20.5768   -7.9384 C   0  0  0  0  0  0  0  0  0  0  0  0
   27.5757  -20.2773   -6.8632 C   0  0  0  0  0  0  0  0  0  0  0  0
   27.4553  -19.1153   -6.1645 C   0  0  0  0  0  0  0  0  0  0  0  0
   28.3488  -18.8190   -5.1675 C   0  0  0  0  0  0  0  0  0  0  0  0
   29.3585  -19.6841   -4.8725 C   0  0  0  0  0  0  0  0  0  0  0  0
   29.4840  -20.8559   -5.5735 C   0  0  0  0  0  0  0  0  0  0  0  0
   28.5870  -21.1444   -6.5681 C   0  0  0  0  0  0  0  0  0  0  0  0
   26.3394  -20.4231  -10.3731 C   0  0  0  0  0  0  0  0  0  0  0  0
   25.5673  -19.4561  -10.4325 O   0  0  0  0  0  0  0  0  0  0  0  0
   26.2806  -21.4498  -11.3792 N   0  0  0  0  0  0  0  0  0  0  0  0
   25.4911  -21.2850  -12.5818 C   0  0  1  0  0  0  0  0  0  0  0  0
   26.0736  -22.1606  -13.6959 C   0  0  0  0  0  0  0  0  0  0  0  0
   25.2871  -22.0443  -14.9553 C   0  0  0  0  0  0  0  0  0  0  0  0
   25.8081  -20.9076  -15.7892 C   0  0  0  0  0  0  0  0  0  0  0  0
   25.0315  -20.7125  -17.0461 C   0  0  0  0  0  0  0  0  0  0  0  0
   25.6456  -19.6478  -17.8263 N   0  0  0  0  0  0  0  0  0  0  0  0
   24.1336  -21.7946  -12.3199 C   0  0  0  0  0  0  0  0  0  0  0  0
   23.9901  -22.9155  -11.7917 O   0  0  0  0  0  0  0  0  0  0  0  0
   15.3259  -22.0743  -11.2458 O   0  0  0  0  0  0  0  0  0  0  0  0
   16.6708  -21.6970  -11.3974 C   0  0  0  0  0  0  0  0  0  0  0  0
   17.1036  -20.9688  -12.4796 C   0  0  0  0  0  0  0  0  0  0  0  0
   18.4099  -20.5782  -12.6678 C   0  0  0  0  0  0  0  0  0  0  0  0
   19.3536  -20.9289  -11.7264 C   0  0  0  0  0  0  0  0  0  0  0  0
   20.7597  -20.5272  -11.9086 C   0  0  0  0  0  0  0  0  0  0  0  0
   21.6413  -21.6244  -12.4618 C   0  0  2  0  0  0  0  0  0  0  0  0
   22.9796  -21.0440  -12.6525 N   0  0  0  0  0  0  0  0  0  0  0  0
   21.1528  -22.0678  -13.7809 C   0  0  0  0  0  0  0  0  0  0  0  0
   21.4539  -21.4084  -14.9661 O   0  0  0  0  0  0  0  0  0  0  0  0
   18.9328  -21.6661  -10.6240 C   0  0  0  0  0  0  0  0  0  0  0  0
   17.6146  -22.0474  -10.4559 C   0  0  0  0  0  0  0  0  0  0  0  0
   20.4281  -23.0849  -13.8713 O   0  0  0  0  0  0  0  0  0  0  0  0
  2  1  1  1
  3  2  1  0
  3  4  1  0
  4  9  2  0
  5  6  2  0
  5  4  1  0
  6  7  1  0
  7  8  2  0
  9  8  1  0
 10 12  1  0
 10  2  1  0
 11 10  2  0
 13 12  1  0
 13 19  1  0
 13 14  1  6
 15 14  1  0
 16 15  1  0
 17 16  1  0
 18 17  1  0
 19 28  1  0
 20 19  2  0
 22 23  2  0
 22 21  1  0
 24 23  1  0
 25 24  2  0
 26 25  1  0
 27 26  1  6
 27 29  1  0
 28 27  1  0
 29 30  1  0
 31 25  1  0
 31 32  2  0
 32 22  1  0
 33 29  2  0
M  END
$$$$
