QTM.pdb
     RDKit          3D

 25 24  0  0  1  0  0  0  0  0999 V2000
   30.0462  -16.6783  -17.2897 N   0  0  0  0  0  0  0  0  0  0  0  0
   28.7199  -16.1684  -17.2472 C   0  0  0  0  0  0  0  0  0  0  0  0
   28.5743  -14.9796  -16.8815 O   0  0  0  0  0  0  0  0  0  0  0  0
   27.5461  -17.0361  -17.6298 C   0  0  0  0  0  0  0  0  0  0  0  0
   26.7629  -17.2599  -16.3925 C   0  0  0  0  0  0  0  0  0  0  0  0
   27.3836  -18.1942  -15.3814 C   0  0  2  0  0  0  0  0  0  0  0  0
   27.8490  -19.3858  -16.1292 N   0  0  0  0  0  0  0  0  0  0  0  0
   26.4749  -18.6685  -14.3375 C   0  0  0  0  0  0  0  0  0  0  0  0
   25.6570  -17.8644  -13.8155 O   0  0  0  0  0  0  0  0  0  0  0  0
   23.7568  -22.2009  -12.4128 C   0  0  0  0  0  0  0  0  0  0  0  0
   24.7551  -21.6295  -13.3659 C   0  0  1  0  0  0  0  0  0  0  0  0
   24.0205  -21.1464  -14.4746 O   0  0  0  0  0  0  0  0  0  0  0  0
   25.4674  -20.4180  -12.8043 C   0  0  2  0  0  0  0  0  0  0  0  0
   26.4134  -19.9956  -13.8307 N   0  0  0  0  0  0  0  0  0  0  0  0
   26.1577  -20.7917  -11.5484 C   0  0  0  0  0  0  0  0  0  0  0  0
   26.9555  -21.7495  -11.4532 O   0  0  0  0  0  0  0  0  0  0  0  0
   29.6640  -19.3884   -5.7449 C   0  0  0  0  0  0  0  0  0  0  0  0
   27.9509  -18.7796   -5.8840 S   0  0  0  0  0  0  0  0  0  0  0  0
   26.9794  -20.0133   -6.8046 C   0  0  0  0  0  0  0  0  0  0  0  0
   26.8130  -19.6409   -8.2380 C   0  0  0  0  0  0  0  0  0  0  0  0
   26.0709  -20.6519   -9.0745 C   0  0  2  0  0  0  0  0  0  0  0  0
   25.9060  -20.0260  -10.3854 N   0  0  0  0  0  0  0  0  0  0  0  0
   24.7829  -20.9508   -8.4455 C   0  0  0  0  0  0  0  0  0  0  0  0
   24.7841  -21.7570   -7.3055 O   0  0  0  0  0  0  0  0  0  0  0  0
   23.7229  -20.4863   -8.9328 O   0  0  0  0  0  0  0  0  0  0  0  0
  1  2  1  0
  2  4  1  0
  3  2  2  0
  4  5  1  0
  6  8  1  0
  6  7  1  6
  6  5  1  0
  8  9  2  0
 11 10  1  1
 11 12  1  0
 11 13  1  0
 13 15  1  0
 13 14  1  6
 14  8  1  0
 15 22  1  0
 15 16  2  0
 17 18  1  0
 19 18  1  0
 20 19  1  0
 21 20  1  1
 21 23  1  0
 22 21  1  0
 23 25  2  0
 23 24  1  0
M  END
$$$$
