QTM.pdb
     RDKit          3D

 25 24  0  0  1  0  0  0  0  0999 V2000
   16.1375  -14.1744  -14.9803 N   0  0  0  0  0  0  0  0  0  0  0  0
   15.6937  -13.4727  -16.1341 C   0  0  0  0  0  0  0  0  0  0  0  0
   15.2179  -14.1534  -17.0714 O   0  0  0  0  0  0  0  0  0  0  0  0
   15.7982  -11.9693  -16.2118 C   0  0  0  0  0  0  0  0  0  0  0  0
   16.2793  -11.5085  -14.8887 C   0  0  0  0  0  0  0  0  0  0  0  0
   17.5087  -10.6317  -14.9050 C   0  0  2  0  0  0  0  0  0  0  0  0
   18.6717  -11.5292  -15.0987 N   0  0  0  0  0  0  0  0  0  0  0  0
   17.7470   -9.8772  -13.6743 C   0  0  0  0  0  0  0  0  0  0  0  0
   17.7331  -10.4778  -12.5667 O   0  0  0  0  0  0  0  0  0  0  0  0
   20.7486   -7.6566  -12.9123 C   0  0  0  0  0  0  0  0  0  0  0  0
   19.4930   -6.8925  -12.6459 C   0  0  1  0  0  0  0  0  0  0  0  0
   19.1576   -6.2377  -13.8546 O   0  0  0  0  0  0  0  0  0  0  0  0
   18.3162   -7.7953  -12.3446 C   0  0  2  0  0  0  0  0  0  0  0  0
   18.0051   -8.4812  -13.5934 N   0  0  0  0  0  0  0  0  0  0  0  0
   17.1754   -6.9760  -11.8748 C   0  0  0  0  0  0  0  0  0  0  0  0
   16.3073   -6.4941  -12.6345 O   0  0  0  0  0  0  0  0  0  0  0  0
   13.0936   -5.3557   -5.3354 C   0  0  0  0  0  0  0  0  0  0  0  0
   14.4653   -6.2665   -6.1187 S   0  0  0  0  0  0  0  0  0  0  0  0
   14.6508   -5.6622   -7.8258 C   0  0  0  0  0  0  0  0  0  0  0  0
   15.7242   -6.3860   -8.5639 C   0  0  0  0  0  0  0  0  0  0  0  0
   15.8921   -5.9749  -10.0045 C   0  0  2  0  0  0  0  0  0  0  0  0
   17.0533   -6.7196  -10.4887 N   0  0  0  0  0  0  0  0  0  0  0  0
   16.1026   -4.5275  -10.0749 C   0  0  0  0  0  0  0  0  0  0  0  0
   17.4149   -4.0545  -10.0138 O   0  0  0  0  0  0  0  0  0  0  0  0
   15.1194   -3.7545  -10.1867 O   0  0  0  0  0  0  0  0  0  0  0  0
  1  2  1  0
  2  4  1  0
  3  2  2  0
  4  5  1  0
  6  8  1  0
  6  7  1  1
  6  5  1  0
  8  9  2  0
 11 10  1  6
 11 12  1  0
 11 13  1  0
 13 15  1  0
 13 14  1  6
 14  8  1  0
 15 22  1  0
 15 16  2  0
 17 18  1  0
 19 18  1  0
 20 19  1  0
 21 20  1  1
 21 23  1  0
 22 21  1  0
 23 25  2  0
 23 24  1  0
M  END
$$$$
