QTM.pdb
     RDKit          3D

 25 24  0  0  1  0  0  0  0  0999 V2000
   14.7451   -9.2930  -16.7893 N   0  0  0  0  0  0  0  0  0  0  0  0
   14.9993  -10.6672  -16.5293 C   0  0  0  0  0  0  0  0  0  0  0  0
   14.5010  -11.5018  -17.3189 O   0  0  0  0  0  0  0  0  0  0  0  0
   15.8370  -11.0876  -15.3467 C   0  0  0  0  0  0  0  0  0  0  0  0
   16.1472   -9.8546  -14.5867 C   0  0  0  0  0  0  0  0  0  0  0  0
   17.5953   -9.6660  -14.2021 C   0  0  2  0  0  0  0  0  0  0  0  0
   18.1911  -11.0191  -14.1024 N   0  0  0  0  0  0  0  0  0  0  0  0
   17.8127   -9.0038  -12.9157 C   0  0  0  0  0  0  0  0  0  0  0  0
   17.8908   -9.6976  -11.8668 O   0  0  0  0  0  0  0  0  0  0  0  0
   20.6223   -6.9522  -11.8824 C   0  0  0  0  0  0  0  0  0  0  0  0
   19.4118   -6.1472  -11.5385 C   0  0  1  0  0  0  0  0  0  0  0  0
   19.1665   -5.2990  -12.6442 O   0  0  0  0  0  0  0  0  0  0  0  0
   18.1666   -6.9973  -11.4073 C   0  0  2  0  0  0  0  0  0  0  0  0
   17.9529   -7.6028  -12.7167 N   0  0  0  0  0  0  0  0  0  0  0  0
   17.0255   -6.1403  -11.0111 C   0  0  0  0  0  0  0  0  0  0  0  0
   16.2568   -5.5868  -11.8270 O   0  0  0  0  0  0  0  0  0  0  0  0
   12.6815   -4.2785   -4.6917 C   0  0  0  0  0  0  0  0  0  0  0  0
   13.8639   -5.4162   -5.4868 S   0  0  0  0  0  0  0  0  0  0  0  0
   14.2429   -4.7763   -7.1483 C   0  0  0  0  0  0  0  0  0  0  0  0
   15.2916   -5.5826   -7.8346 C   0  0  0  0  0  0  0  0  0  0  0  0
   15.6359   -5.1220   -9.2281 C   0  0  2  0  0  0  0  0  0  0  0  0
   16.7843   -5.9312   -9.6326 N   0  0  0  0  0  0  0  0  0  0  0  0
   15.9557   -3.6933   -9.2020 C   0  0  0  0  0  0  0  0  0  0  0  0
   14.9067   -2.7859   -9.3627 O   0  0  0  0  0  0  0  0  0  0  0  0
   17.1430   -3.3182   -9.0391 O   0  0  0  0  0  0  0  0  0  0  0  0
  1  2  1  0
  2  4  1  0
  3  2  2  0
  4  5  1  0
  6  8  1  0
  6  7  1  1
  6  5  1  0
  8  9  2  0
 11 10  1  6
 11 12  1  0
 11 13  1  0
 13 15  1  0
 13 14  1  6
 14  8  1  0
 15 22  1  0
 15 16  2  0
 17 18  1  0
 19 18  1  0
 20 19  1  0
 21 20  1  1
 21 23  1  0
 22 21  1  0
 23 25  2  0
 23 24  1  0
M  END
$$$$
