QTM.pdb
     RDKit          3D

 25 24  0  0  1  0  0  0  0  0999 V2000
   26.5114  -21.3690  -19.6308 N   0  0  0  0  0  0  0  0  0  0  0  0
   27.2725  -20.4586  -18.8482 C   0  0  0  0  0  0  0  0  0  0  0  0
   27.0397  -19.2376  -19.0007 O   0  0  0  0  0  0  0  0  0  0  0  0
   28.3148  -20.9579  -17.8779 C   0  0  0  0  0  0  0  0  0  0  0  0
   28.0454  -20.2887  -16.5842 C   0  0  0  0  0  0  0  0  0  0  0  0
   27.5076  -21.1740  -15.4853 C   0  0  2  0  0  0  0  0  0  0  0  0
   26.4570  -22.0225  -16.0951 N   0  0  0  0  0  0  0  0  0  0  0  0
   26.8912  -20.4640  -14.3644 C   0  0  0  0  0  0  0  0  0  0  0  0
   26.4637  -19.2908  -14.5338 O   0  0  0  0  0  0  0  0  0  0  0  0
   24.3703  -19.5941  -13.8252 C   0  0  0  0  0  0  0  0  0  0  0  0
   24.5175  -20.2696  -12.5009 C   0  0  1  0  0  0  0  0  0  0  0  0
   24.1729  -21.6271  -12.7024 O   0  0  0  0  0  0  0  0  0  0  0  0
   25.9511  -20.2923  -12.0164 C   0  0  2  0  0  0  0  0  0  0  0  0
   26.7148  -20.9799  -13.0512 N   0  0  0  0  0  0  0  0  0  0  0  0
   26.0214  -21.0081  -10.7217 C   0  0  0  0  0  0  0  0  0  0  0  0
   26.0552  -22.2535  -10.6179 O   0  0  0  0  0  0  0  0  0  0  0  0
   28.4290  -18.0225   -5.8450 C   0  0  0  0  0  0  0  0  0  0  0  0
   27.8991  -19.4527   -4.8457 S   0  0  0  0  0  0  0  0  0  0  0  0
   26.8865  -20.5402   -5.8972 C   0  0  0  0  0  0  0  0  0  0  0  0
   26.8683  -20.0895   -7.3176 C   0  0  0  0  0  0  0  0  0  0  0  0
   26.0379  -20.9415   -8.2434 C   0  0  2  0  0  0  0  0  0  0  0  0
   26.0529  -20.2467   -9.5296 N   0  0  0  0  0  0  0  0  0  0  0  0
   24.6821  -21.0648   -7.7043 C   0  0  0  0  0  0  0  0  0  0  0  0
   24.4933  -21.8890   -6.5931 O   0  0  0  0  0  0  0  0  0  0  0  0
   23.7338  -20.4400   -8.2401 O   0  0  0  0  0  0  0  0  0  0  0  0
  1  2  1  0
  2  4  1  0
  3  2  2  0
  4  5  1  0
  6  8  1  0
  6  7  1  6
  6  5  1  0
  8  9  2  0
 11 10  1  6
 11 12  1  0
 11 13  1  0
 13 15  1  0
 13 14  1  6
 14  8  1  0
 15 22  1  0
 15 16  2  0
 17 18  1  0
 19 18  1  0
 20 19  1  0
 21 20  1  1
 21 23  1  0
 22 21  1  0
 23 25  2  0
 23 24  1  0
M  END
$$$$
