QTM.pdb
     RDKit          3D

 25 24  0  0  1  0  0  0  0  0999 V2000
   23.2685  -22.7397  -18.4006 N   0  0  0  0  0  0  0  0  0  0  0  0
   23.0051  -22.9841  -17.0252 C   0  0  0  0  0  0  0  0  0  0  0  0
   21.8801  -22.6494  -16.5887 O   0  0  0  0  0  0  0  0  0  0  0  0
   24.0482  -23.6211  -16.1402 C   0  0  0  0  0  0  0  0  0  0  0  0
   25.2770  -23.7493  -16.9574 C   0  0  0  0  0  0  0  0  0  0  0  0
   26.1267  -22.5057  -17.0666 C   0  0  2  0  0  0  0  0  0  0  0  0
   27.2792  -22.8497  -17.9322 N   0  0  0  0  0  0  0  0  0  0  0  0
   26.6705  -22.0146  -15.8002 C   0  0  0  0  0  0  0  0  0  0  0  0
   27.7559  -22.4862  -15.3674 O   0  0  0  0  0  0  0  0  0  0  0  0
   27.5247  -18.4794  -14.9492 C   0  0  0  0  0  0  0  0  0  0  0  0
   26.6590  -19.0085  -13.8527 C   0  0  1  0  0  0  0  0  0  0  0  0
   25.3251  -18.6995  -14.2101 O   0  0  0  0  0  0  0  0  0  0  0  0
   26.7034  -20.5181  -13.7543 C   0  0  2  0  0  0  0  0  0  0  0  0
   26.0802  -21.0193  -14.9739 N   0  0  0  0  0  0  0  0  0  0  0  0
   25.9650  -20.9541  -12.5468 C   0  0  0  0  0  0  0  0  0  0  0  0
   24.8275  -21.4720  -12.5779 O   0  0  0  0  0  0  0  0  0  0  0  0
   27.9623  -18.6616   -6.6105 C   0  0  0  0  0  0  0  0  0  0  0  0
   27.2084  -20.2816   -6.2471 S   0  0  0  0  0  0  0  0  0  0  0  0
   26.0383  -20.6795   -7.5836 C   0  0  0  0  0  0  0  0  0  0  0  0
   26.6837  -20.6360   -8.9261 C   0  0  0  0  0  0  0  0  0  0  0  0
   25.7856  -21.0189  -10.0749 C   0  0  2  0  0  0  0  0  0  0  0  0
   26.5745  -20.7787  -11.2821 N   0  0  0  0  0  0  0  0  0  0  0  0
   24.5751  -20.1959  -10.0400 C   0  0  0  0  0  0  0  0  0  0  0  0
   23.5149  -20.6269   -9.2401 O   0  0  0  0  0  0  0  0  0  0  0  0
   24.5140  -19.1395  -10.7161 O   0  0  0  0  0  0  0  0  0  0  0  0
  1  2  1  0
  2  4  1  0
  3  2  2  0
  4  5  1  0
  6  8  1  0
  6  7  1  6
  6  5  1  0
  8  9  2  0
 11 10  1  6
 11 12  1  0
 11 13  1  0
 13 15  1  0
 13 14  1  6
 14  8  1  0
 15 22  1  0
 15 16  2  0
 17 18  1  0
 19 18  1  0
 20 19  1  0
 21 20  1  1
 21 23  1  0
 22 21  1  0
 23 25  2  0
 23 24  1  0
M  END
$$$$
