QTM.pdb
     RDKit          3D

 25 24  0  0  1  0  0  0  0  0999 V2000
   21.1332  -16.9315  -19.0410 N   0  0  0  0  0  0  0  0  0  0  0  0
   19.9876  -17.1279  -18.2226 C   0  0  0  0  0  0  0  0  0  0  0  0
   19.6425  -18.3096  -17.9934 O   0  0  0  0  0  0  0  0  0  0  0  0
   19.2288  -15.9508  -17.6606 C   0  0  0  0  0  0  0  0  0  0  0  0
   19.9526  -14.7332  -18.0942 C   0  0  0  0  0  0  0  0  0  0  0  0
   19.0945  -13.6195  -18.6453 C   0  0  2  0  0  0  0  0  0  0  0  0
   18.6351  -14.0561  -19.9846 N   0  0  0  0  0  0  0  0  0  0  0  0
   19.7804  -12.3391  -18.8213 C   0  0  0  0  0  0  0  0  0  0  0  0
   20.6887  -12.2368  -19.6886 O   0  0  0  0  0  0  0  0  0  0  0  0
   19.9032   -7.4583  -18.4613 C   0  0  0  0  0  0  0  0  0  0  0  0
   19.2722   -8.8117  -18.4210 C   0  0  1  0  0  0  0  0  0  0  0  0
   18.6986   -9.0252  -19.6968 O   0  0  0  0  0  0  0  0  0  0  0  0
   20.2874   -9.9214  -18.2522 C   0  0  2  0  0  0  0  0  0  0  0  0
   19.5179  -11.1493  -18.0883 N   0  0  0  0  0  0  0  0  0  0  0  0
   21.1276   -9.6429  -17.0648 C   0  0  0  0  0  0  0  0  0  0  0  0
   20.7000   -9.6684  -15.8903 O   0  0  0  0  0  0  0  0  0  0  0  0
   26.9841  -11.9164  -15.8651 C   0  0  0  0  0  0  0  0  0  0  0  0
   27.2766  -10.1256  -15.6863 S   0  0  0  0  0  0  0  0  0  0  0  0
   25.6866   -9.3217  -15.3135 C   0  0  0  0  0  0  0  0  0  0  0  0
   24.6694   -9.5709  -16.3738 C   0  0  0  0  0  0  0  0  0  0  0  0
   23.3128   -8.9705  -16.1058 C   0  0  2  0  0  0  0  0  0  0  0  0
   22.4933   -9.3296  -17.2619 N   0  0  0  0  0  0  0  0  0  0  0  0
   23.4446   -7.5197  -15.9585 C   0  0  0  0  0  0  0  0  0  0  0  0
   23.4122   -6.9884  -14.6676 O   0  0  0  0  0  0  0  0  0  0  0  0
   23.5815   -6.7949  -16.9748 O   0  0  0  0  0  0  0  0  0  0  0  0
  1  2  1  0
  2  4  1  0
  3  2  2  0
  4  5  1  0
  6  8  1  0
  6  7  1  6
  6  5  1  0
  8  9  2  0
 11 10  1  6
 11 12  1  0
 11 13  1  0
 13 15  1  0
 13 14  1  1
 14  8  1  0
 15 22  1  0
 15 16  2  0
 17 18  1  0
 19 18  1  0
 20 19  1  0
 21 20  1  6
 21 23  1  0
 22 21  1  0
 23 25  2  0
 23 24  1  0
M  END
$$$$
