QTM.pdb
     RDKit          3D

 25 24  0  0  1  0  0  0  0  0999 V2000
   14.2410  -11.3712  -19.6533 N   0  0  0  0  0  0  0  0  0  0  0  0
   14.5605  -11.3474  -18.2683 C   0  0  0  0  0  0  0  0  0  0  0  0
   14.2939  -10.2996  -17.6364 O   0  0  0  0  0  0  0  0  0  0  0  0
   15.1946  -12.5432  -17.6011 C   0  0  0  0  0  0  0  0  0  0  0  0
   16.5184  -12.1001  -17.1056 C   0  0  0  0  0  0  0  0  0  0  0  0
   17.6779  -12.3097  -18.0502 C   0  0  2  0  0  0  0  0  0  0  0  0
   17.9448  -13.7669  -18.0832 N   0  0  0  0  0  0  0  0  0  0  0  0
   18.9240  -11.6523  -17.6557 C   0  0  0  0  0  0  0  0  0  0  0  0
   19.7422  -12.2657  -16.9195 O   0  0  0  0  0  0  0  0  0  0  0  0
   21.1462   -9.4314  -20.0355 C   0  0  0  0  0  0  0  0  0  0  0  0
   20.9670   -8.7655  -18.7104 C   0  0  1  0  0  0  0  0  0  0  0  0
   19.8519   -7.9043  -18.8417 O   0  0  0  0  0  0  0  0  0  0  0  0
   20.5881   -9.7404  -17.6166 C   0  0  2  0  0  0  0  0  0  0  0  0
   19.3263  -10.3416  -18.0327 N   0  0  0  0  0  0  0  0  0  0  0  0
   20.4474   -9.0114  -16.3351 C   0  0  0  0  0  0  0  0  0  0  0  0
   19.3763   -8.5014  -15.9405 O   0  0  0  0  0  0  0  0  0  0  0  0
   23.1470   -9.1908   -9.0583 C   0  0  0  0  0  0  0  0  0  0  0  0
   23.3302   -9.7323  -10.7897 S   0  0  0  0  0  0  0  0  0  0  0  0
   22.2673   -8.6841  -11.8314 C   0  0  0  0  0  0  0  0  0  0  0  0
   22.2970   -9.1008  -13.2619 C   0  0  0  0  0  0  0  0  0  0  0  0
   21.4312   -8.2772  -14.1810 C   0  0  2  0  0  0  0  0  0  0  0  0
   21.5849   -8.8802  -15.5040 N   0  0  0  0  0  0  0  0  0  0  0  0
   21.8858   -6.8855  -14.1584 C   0  0  0  0  0  0  0  0  0  0  0  0
   21.4032   -6.0570  -13.1433 O   0  0  0  0  0  0  0  0  0  0  0  0
   22.6846   -6.4712  -15.0342 O   0  0  0  0  0  0  0  0  0  0  0  0
  1  2  1  0
  2  4  1  0
  3  2  2  0
  4  5  1  0
  6  8  1  0
  6  7  1  1
  6  5  1  0
  8  9  2  0
 11 10  1  6
 11 12  1  0
 11 13  1  0
 13 15  1  0
 13 14  1  6
 14  8  1  0
 15 22  1  0
 15 16  2  0
 17 18  1  0
 19 18  1  0
 20 19  1  0
 21 20  1  1
 21 23  1  0
 22 21  1  0
 23 25  2  0
 23 24  1  0
M  END
$$$$
