KVP.pdb
     RDKit          3D

 24 24  0  0  1  0  0  0  0  0999 V2000
    9.5739  -15.2807   20.7534 N   0  0  0  0  0  0  0  0  0  0  0  0
    8.7582  -15.8627   21.7562 C   0  0  1  0  0  0  0  0  0  0  0  0
    8.8722  -17.3347   21.9615 C   0  0  0  0  0  0  0  0  0  0  0  0
    8.6317  -18.1946   20.7865 C   0  0  0  0  0  0  0  0  0  0  0  0
    8.7365  -19.6550   20.9404 C   0  0  0  0  0  0  0  0  0  0  0  0
    8.4320  -20.4802   19.7439 C   0  0  0  0  0  0  0  0  0  0  0  0
    9.3837  -21.5318   19.5077 N   0  0  0  0  0  0  0  0  0  0  0  0
    8.9853  -15.1098   23.0401 C   0  0  0  0  0  0  0  0  0  0  0  0
   10.1036  -14.6210   23.2796 O   0  0  0  0  0  0  0  0  0  0  0  0
    6.3256  -12.6869   24.7090 C   0  0  0  0  0  0  0  0  0  0  0  0
    6.8037  -13.7482   25.6756 C   0  0  2  0  0  0  0  0  0  0  0  0
    6.8430  -13.0698   27.0380 C   0  0  0  0  0  0  0  0  0  0  0  0
    8.1946  -14.1795   25.2483 C   0  0  2  0  0  0  0  0  0  0  0  0
    7.9660  -14.9329   23.9979 N   0  0  0  0  0  0  0  0  0  0  0  0
    8.7039  -15.1565   26.2477 C   0  0  0  0  0  0  0  0  0  0  0  0
    8.1856  -16.3093   26.3325 O   0  0  0  0  0  0  0  0  0  0  0  0
    9.7733  -14.8703   27.1446 N   0  0  0  0  0  0  0  0  0  0  0  0
   10.5269  -13.5959   27.0430 C   0  0  0  0  0  0  0  0  0  0  0  0
   10.7722  -13.2571   28.4843 C   0  0  0  0  0  0  0  0  0  0  0  0
   10.7490  -14.5492   29.2346 C   0  0  0  0  0  0  0  0  0  0  0  0
   10.4412  -15.5908   28.1663 C   0  0  1  0  0  0  0  0  0  0  0  0
    9.6982  -16.7146   28.7848 C   0  0  0  0  0  0  0  0  0  0  0  0
   10.3792  -17.7140   29.4277 O   0  0  0  0  0  0  0  0  0  0  0  0
    8.4247  -16.7715   28.7250 O   0  0  0  0  0  0  0  0  0  0  0  0
  2  1  1  6
  2  3  1  0
  4  3  1  0
  4  5  1  0
  5  6  1  0
  7  6  1  0
  8  2  1  0
  8  9  2  0
 11 10  1  6
 11 13  1  0
 12 11  1  0
 13 14  1  6
 14  8  1  0
 15 13  1  0
 16 15  2  0
 17 15  1  0
 17 21  1  0
 18 19  1  0
 18 17  1  0
 19 20  1  0
 20 21  1  0
 21 22  1  1
 22 24  2  0
 22 23  1  0
M  END
$$$$
