KVP.pdb
     RDKit          3D

 24 24  0  0  1  0  0  0  0  0999 V2000
   12.4616  -17.1118   21.3224 N   0  0  0  0  0  0  0  0  0  0  0  0
   11.2705  -17.4163   22.0283 C   0  0  1  0  0  0  0  0  0  0  0  0
   11.3825  -18.3418   23.1915 C   0  0  0  0  0  0  0  0  0  0  0  0
   11.8312  -19.7192   22.9098 C   0  0  0  0  0  0  0  0  0  0  0  0
   13.1347  -20.1632   23.4306 C   0  0  0  0  0  0  0  0  0  0  0  0
   13.5472  -21.5537   23.1118 C   0  0  0  0  0  0  0  0  0  0  0  0
   14.8971  -21.8611   23.5000 N   0  0  0  0  0  0  0  0  0  0  0  0
   10.6131  -16.1195   22.4193 C   0  0  0  0  0  0  0  0  0  0  0  0
   11.3086  -15.1749   22.8326 O   0  0  0  0  0  0  0  0  0  0  0  0
    7.9977  -14.2144   20.3863 C   0  0  0  0  0  0  0  0  0  0  0  0
    7.4252  -14.5085   21.7557 C   0  0  2  0  0  0  0  0  0  0  0  0
    6.5722  -13.2978   22.1087 C   0  0  0  0  0  0  0  0  0  0  0  0
    8.5824  -14.6538   22.7267 C   0  0  2  0  0  0  0  0  0  0  0  0
    9.2188  -15.9284   22.3349 N   0  0  0  0  0  0  0  0  0  0  0  0
    8.0210  -14.8586   24.0889 C   0  0  0  0  0  0  0  0  0  0  0  0
    7.5259  -15.9791   24.4116 O   0  0  0  0  0  0  0  0  0  0  0  0
    8.0047  -13.8425   25.0875 N   0  0  0  0  0  0  0  0  0  0  0  0
    8.7418  -12.5703   24.8861 C   0  0  0  0  0  0  0  0  0  0  0  0
    7.8133  -11.5652   25.5026 C   0  0  0  0  0  0  0  0  0  0  0  0
    7.0023  -12.3025   26.5182 C   0  0  0  0  0  0  0  0  0  0  0  0
    7.4873  -13.7422   26.4033 C   0  0  1  0  0  0  0  0  0  0  0  0
    6.3756  -14.6577   26.7545 C   0  0  0  0  0  0  0  0  0  0  0  0
    6.2952  -15.1843   28.0162 O   0  0  0  0  0  0  0  0  0  0  0  0
    5.4866  -14.9711   25.8942 O   0  0  0  0  0  0  0  0  0  0  0  0
  2  1  1  1
  2  3  1  0
  4  3  1  0
  4  5  1  0
  5  6  1  0
  7  6  1  0
  8  2  1  0
  8  9  2  0
 11 10  1  6
 11 13  1  0
 12 11  1  0
 13 14  1  6
 14  8  1  0
 15 13  1  0
 16 15  2  0
 17 15  1  0
 17 21  1  0
 18 19  1  0
 18 17  1  0
 19 20  1  0
 20 21  1  0
 21 22  1  6
 22 24  2  0
 22 23  1  0
M  END
$$$$
