KVP.pdb
     RDKit          3D

 24 24  0  0  1  0  0  0  0  0999 V2000
    9.9557  -15.7331   20.6842 N   0  0  0  0  0  0  0  0  0  0  0  0
    9.5270  -16.4673   21.8186 C   0  0  1  0  0  0  0  0  0  0  0  0
   10.1770  -17.7859   22.0654 C   0  0  0  0  0  0  0  0  0  0  0  0
    9.6649  -18.9381   21.2985 C   0  0  0  0  0  0  0  0  0  0  0  0
    8.5944  -18.7172   20.3124 C   0  0  0  0  0  0  0  0  0  0  0  0
    8.0817  -19.9138   19.5978 C   0  0  0  0  0  0  0  0  0  0  0  0
    7.4925  -20.8982   20.4646 N   0  0  0  0  0  0  0  0  0  0  0  0
    9.6294  -15.5702   23.0233 C   0  0  0  0  0  0  0  0  0  0  0  0
   10.6226  -14.8348   23.1627 O   0  0  0  0  0  0  0  0  0  0  0  0
    6.4711  -15.5461   25.3908 C   0  0  0  0  0  0  0  0  0  0  0  0
    7.3175  -14.3017   25.5467 C   0  0  2  0  0  0  0  0  0  0  0  0
    6.7615  -13.3027   24.5413 C   0  0  0  0  0  0  0  0  0  0  0  0
    8.7518  -14.6645   25.2088 C   0  0  2  0  0  0  0  0  0  0  0  0
    8.6296  -15.5286   24.0165 N   0  0  0  0  0  0  0  0  0  0  0  0
    9.2831  -15.5205   26.3031 C   0  0  0  0  0  0  0  0  0  0  0  0
    9.1171  -16.7759   26.2671 O   0  0  0  0  0  0  0  0  0  0  0  0
    9.9911  -15.0026   27.4258 N   0  0  0  0  0  0  0  0  0  0  0  0
   10.3176  -13.5576   27.5148 C   0  0  0  0  0  0  0  0  0  0  0  0
   10.1284  -13.2795   28.9774 C   0  0  0  0  0  0  0  0  0  0  0  0
   10.3435  -14.5764   29.6880 C   0  0  0  0  0  0  0  0  0  0  0  0
   10.6112  -15.5719   28.5662 C   0  0  1  0  0  0  0  0  0  0  0  0
   10.1362  -16.9124   28.9842 C   0  0  0  0  0  0  0  0  0  0  0  0
    8.9030  -17.3563   28.5869 O   0  0  0  0  0  0  0  0  0  0  0  0
   10.8594  -17.6657   29.7178 O   0  0  0  0  0  0  0  0  0  0  0  0
  2  1  1  6
  2  3  1  0
  4  3  1  0
  4  5  1  0
  5  6  1  0
  7  6  1  0
  8  2  1  0
  8  9  2  0
 11 10  1  6
 11 13  1  0
 12 11  1  0
 13 14  1  6
 14  8  1  0
 15 13  1  0
 16 15  2  0
 17 15  1  0
 17 21  1  0
 18 19  1  0
 18 17  1  0
 19 20  1  0
 20 21  1  0
 21 22  1  1
 22 24  2  0
 22 23  1  0
M  END
$$$$
