KVP.pdb
     RDKit          3D

 24 24  0  0  1  0  0  0  0  0999 V2000
    7.1080  -17.4450   20.0296 N   0  0  0  0  0  0  0  0  0  0  0  0
    7.6672  -16.3005   20.6519 C   0  0  1  0  0  0  0  0  0  0  0  0
    7.6118  -15.0161   19.8974 C   0  0  0  0  0  0  0  0  0  0  0  0
    8.2864  -14.9813   18.5852 C   0  0  0  0  0  0  0  0  0  0  0  0
    8.1790  -13.7655   17.7622 C   0  0  0  0  0  0  0  0  0  0  0  0
    8.7752  -13.8192   16.4032 C   0  0  0  0  0  0  0  0  0  0  0  0
    8.6364  -12.5958   15.6606 N   0  0  0  0  0  0  0  0  0  0  0  0
    7.0507  -16.1620   22.0184 C   0  0  0  0  0  0  0  0  0  0  0  0
    5.8363  -16.3813   22.1729 O   0  0  0  0  0  0  0  0  0  0  0  0
    8.2193  -17.8995   24.8628 C   0  0  0  0  0  0  0  0  0  0  0  0
    6.9088  -17.1432   24.8599 C   0  0  2  0  0  0  0  0  0  0  0  0
    6.0565  -17.8099   23.7888 C   0  0  0  0  0  0  0  0  0  0  0  0
    7.2011  -15.6996   24.4944 C   0  0  2  0  0  0  0  0  0  0  0  0
    7.8054  -15.7877   23.1489 N   0  0  0  0  0  0  0  0  0  0  0  0
    8.2630  -15.1968   25.4066 C   0  0  0  0  0  0  0  0  0  0  0  0
    9.3172  -15.8746   25.5911 O   0  0  0  0  0  0  0  0  0  0  0  0
    8.1683  -13.9607   26.1086 N   0  0  0  0  0  0  0  0  0  0  0  0
    7.3467  -12.8466   25.5737 C   0  0  0  0  0  0  0  0  0  0  0  0
    6.7506  -12.2647   26.8221 C   0  0  0  0  0  0  0  0  0  0  0  0
    7.6870  -12.6010   27.9370 C   0  0  0  0  0  0  0  0  0  0  0  0
    8.7833  -13.4177   27.2645 C   0  0  1  0  0  0  0  0  0  0  0  0
    9.3364  -14.3847   28.2424 C   0  0  0  0  0  0  0  0  0  0  0  0
   10.3326  -13.9980   29.0990 O   0  0  0  0  0  0  0  0  0  0  0  0
    8.9012  -15.5831   28.2985 O   0  0  0  0  0  0  0  0  0  0  0  0
  2  1  1  6
  2  3  1  0
  4  3  1  0
  4  5  1  0
  5  6  1  0
  7  6  1  0
  8  2  1  0
  8  9  2  0
 11 10  1  6
 11 13  1  0
 12 11  1  0
 13 14  1  6
 14  8  1  0
 15 13  1  0
 16 15  2  0
 17 15  1  0
 17 21  1  0
 18 19  1  0
 18 17  1  0
 19 20  1  0
 20 21  1  0
 21 22  1  1
 22 24  2  0
 22 23  1  0
M  END
$$$$
