KVP.pdb
     RDKit          3D

 24 24  0  0  1  0  0  0  0  0999 V2000
    5.6241  -19.8907   24.6321 N   0  0  0  0  0  0  0  0  0  0  0  0
    6.1746  -19.4772   23.3929 C   0  0  1  0  0  0  0  0  0  0  0  0
    5.5341  -19.9986   22.1520 C   0  0  0  0  0  0  0  0  0  0  0  0
    6.3202  -19.9115   20.9060 C   0  0  0  0  0  0  0  0  0  0  0  0
    7.7105  -20.3956   20.9068 C   0  0  0  0  0  0  0  0  0  0  0  0
    8.4221  -20.3973   19.6033 C   0  0  0  0  0  0  0  0  0  0  0  0
    9.8320  -20.6570   19.7131 N   0  0  0  0  0  0  0  0  0  0  0  0
    6.2391  -17.9730   23.3876 C   0  0  0  0  0  0  0  0  0  0  0  0
    5.2025  -17.3114   23.2022 O   0  0  0  0  0  0  0  0  0  0  0  0
    7.1503  -15.5788   25.8266 C   0  0  0  0  0  0  0  0  0  0  0  0
    8.1453  -15.3212   24.7162 C   0  0  2  0  0  0  0  0  0  0  0  0
    8.3439  -13.8120   24.6897 C   0  0  0  0  0  0  0  0  0  0  0  0
    7.5329  -15.8069   23.4154 C   0  0  2  0  0  0  0  0  0  0  0  0
    7.4458  -17.2719   23.5873 N   0  0  0  0  0  0  0  0  0  0  0  0
    8.5126  -15.5633   22.3229 C   0  0  0  0  0  0  0  0  0  0  0  0
    9.6813  -16.0466   22.3963 O   0  0  0  0  0  0  0  0  0  0  0  0
    8.2110  -14.7970   21.1602 N   0  0  0  0  0  0  0  0  0  0  0  0
    6.8042  -14.5004   20.7922 C   0  0  0  0  0  0  0  0  0  0  0  0
    6.9024  -13.0963   20.2712 C   0  0  0  0  0  0  0  0  0  0  0  0
    8.3041  -12.9207   19.7839 C   0  0  0  0  0  0  0  0  0  0  0  0
    8.9729  -14.2537   20.0956 C   0  0  1  0  0  0  0  0  0  0  0  0
   10.4139  -14.0238   20.3561 C   0  0  0  0  0  0  0  0  0  0  0  0
   11.3259  -14.1826   19.3468 O   0  0  0  0  0  0  0  0  0  0  0  0
   10.8251  -13.6821   21.5150 O   0  0  0  0  0  0  0  0  0  0  0  0
  2  1  1  1
  2  3  1  0
  4  3  1  0
  4  5  1  0
  5  6  1  0
  7  6  1  0
  8  2  1  0
  8  9  2  0
 11 10  1  1
 11 13  1  0
 12 11  1  0
 13 14  1  1
 14  8  1  0
 15 13  1  0
 16 15  2  0
 17 15  1  0
 17 21  1  0
 18 19  1  0
 18 17  1  0
 19 20  1  0
 20 21  1  0
 21 22  1  1
 22 24  2  0
 22 23  1  0
M  END
$$$$
