KVP.pdb
     RDKit          3D

 24 24  0  0  1  0  0  0  0  0999 V2000
    9.8946  -15.5053   20.7036 N   0  0  0  0  0  0  0  0  0  0  0  0
    9.5775  -16.3149   21.8233 C   0  0  1  0  0  0  0  0  0  0  0  0
   10.4250  -17.5183   22.0591 C   0  0  0  0  0  0  0  0  0  0  0  0
    9.9444  -18.7956   21.4974 C   0  0  0  0  0  0  0  0  0  0  0  0
    9.4762  -19.8456   22.4169 C   0  0  0  0  0  0  0  0  0  0  0  0
    9.0544  -21.1327   21.8080 C   0  0  0  0  0  0  0  0  0  0  0  0
    9.9633  -21.6268   20.8094 N   0  0  0  0  0  0  0  0  0  0  0  0
    9.5271  -15.4312   23.0412 C   0  0  0  0  0  0  0  0  0  0  0  0
   10.4519  -14.6290   23.2604 O   0  0  0  0  0  0  0  0  0  0  0  0
    6.5264  -13.3312   24.2062 C   0  0  0  0  0  0  0  0  0  0  0  0
    6.9326  -14.2844   25.3089 C   0  0  2  0  0  0  0  0  0  0  0  0
    6.6810  -13.5333   26.6092 C   0  0  0  0  0  0  0  0  0  0  0  0
    8.4091  -14.5928   25.1421 C   0  0  2  0  0  0  0  0  0  0  0  0
    8.4575  -15.4760   23.9585 N   0  0  0  0  0  0  0  0  0  0  0  0
    8.8450  -15.4130   26.3041 C   0  0  0  0  0  0  0  0  0  0  0  0
    8.3432  -16.5599   26.4978 O   0  0  0  0  0  0  0  0  0  0  0  0
    9.8237  -14.9779   27.2436 N   0  0  0  0  0  0  0  0  0  0  0  0
   10.4428  -13.6343   27.1253 C   0  0  0  0  0  0  0  0  0  0  0  0
   10.5661  -13.2148   28.5611 C   0  0  0  0  0  0  0  0  0  0  0  0
   10.6360  -14.4715   29.3666 C   0  0  0  0  0  0  0  0  0  0  0  0
   10.5032  -15.5813   28.3313 C   0  0  1  0  0  0  0  0  0  0  0  0
    9.8485  -16.7539   28.9589 C   0  0  0  0  0  0  0  0  0  0  0  0
   10.5883  -17.6340   29.7031 O   0  0  0  0  0  0  0  0  0  0  0  0
    8.5981  -16.9633   28.8136 O   0  0  0  0  0  0  0  0  0  0  0  0
  2  1  1  6
  2  3  1  0
  4  3  1  0
  4  5  1  0
  5  6  1  0
  7  6  1  0
  8  2  1  0
  8  9  2  0
 11 10  1  6
 11 13  1  0
 12 11  1  0
 13 14  1  6
 14  8  1  0
 15 13  1  0
 16 15  2  0
 17 15  1  0
 17 21  1  0
 18 19  1  0
 18 17  1  0
 19 20  1  0
 20 21  1  0
 21 22  1  1
 22 24  2  0
 22 23  1  0
M  END
$$$$
