KVP.pdb
     RDKit          3D

 24 24  0  0  1  0  0  0  0  0999 V2000
    8.1179  -15.0010   20.9304 N   0  0  0  0  0  0  0  0  0  0  0  0
    7.5716  -15.6021   22.0923 C   0  0  1  0  0  0  0  0  0  0  0  0
    7.7028  -17.0812   22.2232 C   0  0  0  0  0  0  0  0  0  0  0  0
    6.5159  -17.8906   21.8854 C   0  0  0  0  0  0  0  0  0  0  0  0
    6.6036  -19.3569   21.9830 C   0  0  0  0  0  0  0  0  0  0  0  0
    5.4013  -20.1302   21.5805 C   0  0  0  0  0  0  0  0  0  0  0  0
    5.5877  -21.5552   21.6233 N   0  0  0  0  0  0  0  0  0  0  0  0
    8.1332  -14.8922   23.2953 C   0  0  0  0  0  0  0  0  0  0  0  0
    9.3355  -14.5747   23.3192 O   0  0  0  0  0  0  0  0  0  0  0  0
    6.2477  -12.0662   25.4024 C   0  0  0  0  0  0  0  0  0  0  0  0
    6.6891  -13.2376   26.2523 C   0  0  2  0  0  0  0  0  0  0  0  0
    7.0611  -12.6426   27.6035 C   0  0  0  0  0  0  0  0  0  0  0  0
    7.8999  -13.8683   25.5896 C   0  0  2  0  0  0  0  0  0  0  0  0
    7.3397  -14.5670   24.4143 N   0  0  0  0  0  0  0  0  0  0  0  0
    8.4299  -14.9200   26.4983 C   0  0  0  0  0  0  0  0  0  0  0  0
    7.7437  -15.9570   26.7404 O   0  0  0  0  0  0  0  0  0  0  0  0
    9.7020  -14.8340   27.1341 N   0  0  0  0  0  0  0  0  0  0  0  0
   10.6553  -13.7537   26.7783 C   0  0  0  0  0  0  0  0  0  0  0  0
   11.2670  -13.4204   28.1077 C   0  0  0  0  0  0  0  0  0  0  0  0
   11.1477  -14.6487   28.9504 C   0  0  0  0  0  0  0  0  0  0  0  0
   10.4159  -15.6408   28.0553 C   0  0  1  0  0  0  0  0  0  0  0  0
    9.6138  -16.5566   28.9010 C   0  0  0  0  0  0  0  0  0  0  0  0
   10.2343  -17.5417   29.6224 O   0  0  0  0  0  0  0  0  0  0  0  0
    8.3441  -16.4467   28.9665 O   0  0  0  0  0  0  0  0  0  0  0  0
  2  1  1  6
  2  3  1  0
  4  3  1  0
  4  5  1  0
  5  6  1  0
  7  6  1  0
  8  2  1  0
  8  9  2  0
 11 10  1  6
 11 13  1  0
 12 11  1  0
 13 14  1  6
 14  8  1  0
 15 13  1  0
 16 15  2  0
 17 15  1  0
 17 21  1  0
 18 19  1  0
 18 17  1  0
 19 20  1  0
 20 21  1  0
 21 22  1  1
 22 24  2  0
 22 23  1  0
M  END
$$$$
