KVP.pdb
     RDKit          3D

 24 24  0  0  1  0  0  0  0  0999 V2000
    9.6233  -15.2026   20.7513 N   0  0  0  0  0  0  0  0  0  0  0  0
    9.1459  -16.0002   21.8216 C   0  0  1  0  0  0  0  0  0  0  0  0
    9.7520  -17.3515   21.9908 C   0  0  0  0  0  0  0  0  0  0  0  0
   10.0610  -18.1050   20.7601 C   0  0  0  0  0  0  0  0  0  0  0  0
    9.2876  -19.3204   20.4570 C   0  0  0  0  0  0  0  0  0  0  0  0
    9.6626  -20.0668   19.2292 C   0  0  0  0  0  0  0  0  0  0  0  0
   10.5205  -21.1940   19.4754 N   0  0  0  0  0  0  0  0  0  0  0  0
    9.2433  -15.1919   23.0880 C   0  0  0  0  0  0  0  0  0  0  0  0
   10.2685  -14.5263   23.3181 O   0  0  0  0  0  0  0  0  0  0  0  0
    6.4366  -12.9450   24.6272 C   0  0  0  0  0  0  0  0  0  0  0  0
    6.8821  -14.0005   25.6156 C   0  0  2  0  0  0  0  0  0  0  0  0
    6.7958  -13.3389   26.9841 C   0  0  0  0  0  0  0  0  0  0  0  0
    8.3158  -14.3748   25.2878 C   0  0  2  0  0  0  0  0  0  0  0  0
    8.2036  -15.1576   24.0395 N   0  0  0  0  0  0  0  0  0  0  0  0
    8.8011  -15.3117   26.3363 C   0  0  0  0  0  0  0  0  0  0  0  0
    8.2840  -16.4625   26.4507 O   0  0  0  0  0  0  0  0  0  0  0  0
    9.8455  -14.9881   27.2498 N   0  0  0  0  0  0  0  0  0  0  0  0
   10.5199  -13.6673   27.1925 C   0  0  0  0  0  0  0  0  0  0  0  0
   10.7353  -13.3583   28.6453 C   0  0  0  0  0  0  0  0  0  0  0  0
   10.7871  -14.6717   29.3561 C   0  0  0  0  0  0  0  0  0  0  0  0
   10.5503  -15.6971   28.2545 C   0  0  1  0  0  0  0  0  0  0  0  0
    9.8743  -16.8827   28.8331 C   0  0  0  0  0  0  0  0  0  0  0  0
   10.6025  -17.8214   29.5144 O   0  0  0  0  0  0  0  0  0  0  0  0
    8.6157  -17.0492   28.7029 O   0  0  0  0  0  0  0  0  0  0  0  0
  2  1  1  6
  2  3  1  0
  4  3  1  0
  4  5  1  0
  5  6  1  0
  7  6  1  0
  8  2  1  0
  8  9  2  0
 11 10  1  6
 11 13  1  0
 12 11  1  0
 13 14  1  6
 14  8  1  0
 15 13  1  0
 16 15  2  0
 17 15  1  0
 17 21  1  0
 18 19  1  0
 18 17  1  0
 19 20  1  0
 20 21  1  0
 21 22  1  1
 22 24  2  0
 22 23  1  0
M  END
$$$$
