KVP.pdb
     RDKit          3D

 24 24  0  0  1  0  0  0  0  0999 V2000
    8.9330  -15.0746   20.7326 N   0  0  0  0  0  0  0  0  0  0  0  0
    8.2506  -15.6640   21.8265 C   0  0  1  0  0  0  0  0  0  0  0  0
    8.3963  -17.1360   22.0106 C   0  0  0  0  0  0  0  0  0  0  0  0
    7.9724  -17.9958   20.8885 C   0  0  0  0  0  0  0  0  0  0  0  0
    8.0098  -19.4576   21.0589 C   0  0  0  0  0  0  0  0  0  0  0  0
    7.5822  -20.2804   19.8990 C   0  0  0  0  0  0  0  0  0  0  0  0
    8.6742  -20.8684   19.1716 N   0  0  0  0  0  0  0  0  0  0  0  0
    8.6310  -14.9138   23.0752 C   0  0  0  0  0  0  0  0  0  0  0  0
    9.7885  -14.4775   23.2047 O   0  0  0  0  0  0  0  0  0  0  0  0
    6.3547  -12.3104   25.0882 C   0  0  0  0  0  0  0  0  0  0  0  0
    6.8043  -13.4799   25.9366 C   0  0  2  0  0  0  0  0  0  0  0  0
    7.0087  -12.9133   27.3349 C   0  0  0  0  0  0  0  0  0  0  0  0
    8.1131  -13.9963   25.3679 C   0  0  2  0  0  0  0  0  0  0  0  0
    7.7145  -14.6816   24.1210 N   0  0  0  0  0  0  0  0  0  0  0  0
    8.6336  -15.0464   26.2839 C   0  0  0  0  0  0  0  0  0  0  0  0
    8.0228  -16.1501   26.3996 O   0  0  0  0  0  0  0  0  0  0  0  0
    9.8147  -14.8861   27.0645 N   0  0  0  0  0  0  0  0  0  0  0  0
   10.6941  -13.7059   26.8744 C   0  0  0  0  0  0  0  0  0  0  0  0
   11.1225  -13.4003   28.2799 C   0  0  0  0  0  0  0  0  0  0  0  0
   11.0292  -14.6829   29.0410 C   0  0  0  0  0  0  0  0  0  0  0  0
   10.4972  -15.6803   28.0197 C   0  0  1  0  0  0  0  0  0  0  0  0
    9.6984  -16.7132   28.7214 C   0  0  0  0  0  0  0  0  0  0  0  0
   10.3285  -17.7342   29.3819 O   0  0  0  0  0  0  0  0  0  0  0  0
    8.4229  -16.6714   28.7176 O   0  0  0  0  0  0  0  0  0  0  0  0
  2  1  1  6
  2  3  1  0
  4  3  1  0
  4  5  1  0
  5  6  1  0
  7  6  1  0
  8  2  1  0
  8  9  2  0
 11 10  1  6
 11 13  1  0
 12 11  1  0
 13 14  1  6
 14  8  1  0
 15 13  1  0
 16 15  2  0
 17 15  1  0
 17 21  1  0
 18 19  1  0
 18 17  1  0
 19 20  1  0
 20 21  1  0
 21 22  1  1
 22 24  2  0
 22 23  1  0
M  END
$$$$
