KVP.pdb
     RDKit          3D

 24 24  0  0  1  0  0  0  0  0999 V2000
    8.7082  -17.0367   20.8043 N   0  0  0  0  0  0  0  0  0  0  0  0
    9.9622  -16.8758   21.4455 C   0  0  1  0  0  0  0  0  0  0  0  0
   11.1393  -16.5782   20.5807 C   0  0  0  0  0  0  0  0  0  0  0  0
   11.4052  -17.5109   19.4684 C   0  0  0  0  0  0  0  0  0  0  0  0
   12.7476  -18.1017   19.3410 C   0  0  0  0  0  0  0  0  0  0  0  0
   13.6409  -17.5230   18.3054 C   0  0  0  0  0  0  0  0  0  0  0  0
   14.9379  -18.1409   18.2478 N   0  0  0  0  0  0  0  0  0  0  0  0
    9.8041  -15.8456   22.5320 C   0  0  0  0  0  0  0  0  0  0  0  0
   10.3294  -14.7258   22.4019 O   0  0  0  0  0  0  0  0  0  0  0  0
    7.0796  -13.9635   23.4560 C   0  0  0  0  0  0  0  0  0  0  0  0
    7.3664  -14.7969   24.6858 C   0  0  2  0  0  0  0  0  0  0  0  0
    6.9281  -13.9427   25.8675 C   0  0  0  0  0  0  0  0  0  0  0  0
    8.8601  -15.0603   24.7362 C   0  0  2  0  0  0  0  0  0  0  0  0
    9.0734  -16.1019   23.7100 N   0  0  0  0  0  0  0  0  0  0  0  0
    9.1763  -15.6842   26.0490 C   0  0  0  0  0  0  0  0  0  0  0  0
    8.7747  -16.8570   26.3098 O   0  0  0  0  0  0  0  0  0  0  0  0
    9.9275  -15.0264   27.0653 N   0  0  0  0  0  0  0  0  0  0  0  0
   10.3640  -13.6184   26.8936 C   0  0  0  0  0  0  0  0  0  0  0  0
   10.2039  -13.0658   28.2798 C   0  0  0  0  0  0  0  0  0  0  0  0
   10.3229  -14.2246   29.2157 C   0  0  0  0  0  0  0  0  0  0  0  0
   10.5080  -15.4247   28.2956 C   0  0  1  0  0  0  0  0  0  0  0  0
    9.9342  -16.6270   28.9456 C   0  0  0  0  0  0  0  0  0  0  0  0
    8.6061  -16.9221   28.7883 O   0  0  0  0  0  0  0  0  0  0  0  0
   10.6599  -17.3968   29.6594 O   0  0  0  0  0  0  0  0  0  0  0  0
  2  1  1  6
  2  3  1  0
  4  3  1  0
  4  5  1  0
  5  6  1  0
  7  6  1  0
  8  2  1  0
  8  9  2  0
 11 10  1  6
 11 13  1  0
 12 11  1  0
 13 14  1  6
 14  8  1  0
 15 13  1  0
 16 15  2  0
 17 15  1  0
 17 21  1  0
 18 19  1  0
 18 17  1  0
 19 20  1  0
 20 21  1  0
 21 22  1  1
 22 24  2  0
 22 23  1  0
M  END
$$$$
