KVP.pdb
     RDKit          3D

 24 24  0  0  1  0  0  0  0  0999 V2000
    8.9152  -15.1306   20.8225 N   0  0  0  0  0  0  0  0  0  0  0  0
    8.1194  -15.6320   21.8832 C   0  0  1  0  0  0  0  0  0  0  0  0
    8.0938  -17.1094   22.0797 C   0  0  0  0  0  0  0  0  0  0  0  0
    9.0135  -17.9109   21.2491 C   0  0  0  0  0  0  0  0  0  0  0  0
    8.9668  -19.3788   21.3499 C   0  0  0  0  0  0  0  0  0  0  0  0
    9.8728  -20.1429   20.4552 C   0  0  0  0  0  0  0  0  0  0  0  0
    9.8179  -21.5660   20.6530 N   0  0  0  0  0  0  0  0  0  0  0  0
    8.5178  -14.9166   23.1465 C   0  0  0  0  0  0  0  0  0  0  0  0
    9.6895  -14.5253   23.2910 O   0  0  0  0  0  0  0  0  0  0  0  0
    6.1643  -12.3884   25.0447 C   0  0  0  0  0  0  0  0  0  0  0  0
    6.6953  -13.4427   25.9911 C   0  0  2  0  0  0  0  0  0  0  0  0
    6.9263  -12.7237   27.3131 C   0  0  0  0  0  0  0  0  0  0  0  0
    8.0035  -13.9645   25.4259 C   0  0  2  0  0  0  0  0  0  0  0  0
    7.6027  -14.6676   24.1897 N   0  0  0  0  0  0  0  0  0  0  0  0
    8.5286  -15.0009   26.3548 C   0  0  0  0  0  0  0  0  0  0  0  0
    7.9039  -16.0920   26.5101 O   0  0  0  0  0  0  0  0  0  0  0  0
    9.7292  -14.8410   27.1049 N   0  0  0  0  0  0  0  0  0  0  0  0
   10.6202  -13.6776   26.8698 C   0  0  0  0  0  0  0  0  0  0  0  0
   11.0847  -13.3485   28.2585 C   0  0  0  0  0  0  0  0  0  0  0  0
   10.9911  -14.6132   29.0489 C   0  0  0  0  0  0  0  0  0  0  0  0
   10.4224  -15.6244   28.0614 C   0  0  1  0  0  0  0  0  0  0  0  0
    9.6256  -16.6307   28.8030 C   0  0  0  0  0  0  0  0  0  0  0  0
   10.2576  -17.6299   29.4943 O   0  0  0  0  0  0  0  0  0  0  0  0
    8.3502  -16.5860   28.8055 O   0  0  0  0  0  0  0  0  0  0  0  0
  2  1  1  6
  2  3  1  0
  4  3  1  0
  4  5  1  0
  5  6  1  0
  7  6  1  0
  8  2  1  0
  8  9  2  0
 11 10  1  6
 11 13  1  0
 12 11  1  0
 13 14  1  6
 14  8  1  0
 15 13  1  0
 16 15  2  0
 17 15  1  0
 17 21  1  0
 18 19  1  0
 18 17  1  0
 19 20  1  0
 20 21  1  0
 21 22  1  1
 22 24  2  0
 22 23  1  0
M  END
$$$$
