HHD.pdb
     RDKit          3D

 29 30  0  0  1  0  0  0  0  0999 V2000
   13.5934  -16.7210   12.3316 N   0  0  0  0  0  0  0  0  0  0  0  0
   14.5591  -17.5434   13.0476 C   0  0  1  0  0  0  0  0  0  0  0  0
   15.9380  -17.0246   12.7112 C   0  0  0  0  0  0  0  0  0  0  0  0
   16.3177  -17.5946   11.3915 C   0  0  0  0  0  0  0  0  0  0  0  0
   16.4623  -16.8990   10.1855 C   0  0  0  0  0  0  0  0  0  0  0  0
   16.8133  -17.7532    9.2182 N   0  0  0  0  0  0  0  0  0  0  0  0
   16.8954  -18.9670    9.7741 C   0  0  0  0  0  0  0  0  0  0  0  0
   16.5979  -18.8728   11.0796 N   0  0  0  0  0  0  0  0  0  0  0  0
   14.2758  -17.4812   14.4973 C   0  0  0  0  0  0  0  0  0  0  0  0
   13.7504  -16.4081   14.9478 O   0  0  0  0  0  0  0  0  0  0  0  0
   14.5688  -18.5589   15.3668 N   0  0  0  0  0  0  0  0  0  0  0  0
   14.2947  -18.4620   16.7664 C   0  0  1  0  0  0  0  0  0  0  0  0
   13.4166  -19.5477   17.3227 C   0  0  0  0  0  0  0  0  0  0  0  0
   12.0665  -19.6206   16.7461 C   0  0  0  0  0  0  0  0  0  0  0  0
   11.7126  -20.4552   15.7184 C   0  0  0  0  0  0  0  0  0  0  0  0
   10.4126  -20.2432   15.4665 N   0  0  0  0  0  0  0  0  0  0  0  0
    9.9764  -19.3039   16.3150 C   0  0  0  0  0  0  0  0  0  0  0  0
   10.9909  -18.9225   17.0993 N   0  0  0  0  0  0  0  0  0  0  0  0
   15.5183  -18.3665   17.5934 C   0  0  0  0  0  0  0  0  0  0  0  0
   16.6213  -18.6476   17.0635 O   0  0  0  0  0  0  0  0  0  0  0  0
   15.5161  -17.9791   18.9539 N   0  0  0  0  0  0  0  0  0  0  0  0
   16.2188  -18.6584   20.0255 C   0  0  1  0  0  0  0  0  0  0  0  0
   15.7069  -20.0335   20.3007 C   0  0  0  0  0  0  0  0  0  0  0  0
   14.8682  -20.1755   21.4881 C   0  0  0  0  0  0  0  0  0  0  0  0
   14.7365  -19.3126   22.3857 O   0  0  0  0  0  0  0  0  0  0  0  0
   17.6356  -18.7924   19.5979 C   0  0  0  0  0  0  0  0  0  0  0  0
   18.4802  -18.0068   20.0618 O   0  0  0  0  0  0  0  0  0  0  0  0
   14.1499  -21.3554   21.6547 O   0  0  0  0  0  0  0  0  0  0  0  0
   18.0056  -19.7629   18.7093 O   0  0  0  0  0  0  0  0  0  0  0  0
  2  1  1  6
  2  9  1  0
  3  2  1  0
  4  8  1  0
  4  3  1  0
  5  4  2  0
  6  5  1  0
  6  7  1  0
  7  8  2  0
  9 10  2  0
 11  9  1  0
 11 12  1  0
 12 13  1  1
 13 14  1  0
 14 15  2  0
 16 15  1  0
 17 16  1  0
 18 17  2  0
 18 14  1  0
 19 12  1  0
 19 20  2  0
 21 19  1  0
 22 21  1  0
 22 26  1  0
 22 23  1  6
 24 23  1  0
 24 28  1  0
 25 24  2  0
 26 29  1  0
 27 26  2  0
M  END
$$$$
