HHD.pdb
     RDKit          3D

 29 30  0  0  1  0  0  0  0  0999 V2000
   10.8147  -16.6739   15.9178 N   0  0  0  0  0  0  0  0  0  0  0  0
   12.0421  -15.8998   16.0430 C   0  0  1  0  0  0  0  0  0  0  0  0
   12.0050  -14.8134   14.9932 C   0  0  0  0  0  0  0  0  0  0  0  0
   11.8669  -15.4780   13.6704 C   0  0  0  0  0  0  0  0  0  0  0  0
   12.8790  -16.1064   12.9354 C   0  0  0  0  0  0  0  0  0  0  0  0
   12.3695  -16.5860   11.7958 N   0  0  0  0  0  0  0  0  0  0  0  0
   11.0672  -16.2809   11.7865 C   0  0  0  0  0  0  0  0  0  0  0  0
   10.7643  -15.6154   12.9120 N   0  0  0  0  0  0  0  0  0  0  0  0
   12.1379  -15.3516   17.4127 C   0  0  0  0  0  0  0  0  0  0  0  0
   13.1635  -14.6441   17.6920 O   0  0  0  0  0  0  0  0  0  0  0  0
   11.1415  -15.5912   18.3890 N   0  0  0  0  0  0  0  0  0  0  0  0
   11.2820  -15.0777   19.7157 C   0  0  1  0  0  0  0  0  0  0  0  0
    9.9927  -14.8585   20.4564 C   0  0  0  0  0  0  0  0  0  0  0  0
    9.0364  -13.9562   19.7991 C   0  0  0  0  0  0  0  0  0  0  0  0
    9.3936  -12.8316   19.1021 C   0  0  0  0  0  0  0  0  0  0  0  0
    8.2625  -12.2701   18.6509 N   0  0  0  0  0  0  0  0  0  0  0  0
    7.2359  -13.0269   19.0580 C   0  0  0  0  0  0  0  0  0  0  0  0
    7.7110  -14.0606   19.7620 N   0  0  0  0  0  0  0  0  0  0  0  0
   12.1864  -15.8891   20.5606 C   0  0  0  0  0  0  0  0  0  0  0  0
   12.1231  -17.1401   20.4740 O   0  0  0  0  0  0  0  0  0  0  0  0
   13.1192  -15.3339   21.4676 N   0  0  0  0  0  0  0  0  0  0  0  0
   14.0944  -16.0816   22.2379 C   0  0  1  0  0  0  0  0  0  0  0  0
   15.3158  -15.2957   22.5831 C   0  0  0  0  0  0  0  0  0  0  0  0
   16.3067  -15.9859   23.4049 C   0  0  0  0  0  0  0  0  0  0  0  0
   16.4738  -17.2261   23.4439 O   0  0  0  0  0  0  0  0  0  0  0  0
   13.4381  -16.4611   23.5161 C   0  0  0  0  0  0  0  0  0  0  0  0
   12.4726  -15.7891   23.9185 O   0  0  0  0  0  0  0  0  0  0  0  0
   17.1414  -15.2238   24.2162 O   0  0  0  0  0  0  0  0  0  0  0  0
   13.8875  -17.5309   24.2383 O   0  0  0  0  0  0  0  0  0  0  0  0
  2  1  1  1
  2  9  1  0
  3  2  1  0
  4  8  1  0
  4  3  1  0
  5  4  2  0
  6  5  1  0
  6  7  1  0
  7  8  2  0
  9 10  2  0
 11  9  1  0
 11 12  1  0
 12 13  1  1
 13 14  1  0
 14 15  2  0
 16 15  1  0
 17 16  1  0
 18 17  2  0
 18 14  1  0
 19 12  1  0
 19 20  2  0
 21 19  1  0
 22 21  1  0
 22 26  1  0
 22 23  1  1
 24 23  1  0
 24 28  1  0
 25 24  2  0
 26 29  1  0
 27 26  2  0
M  END
$$$$
