HHD.pdb
     RDKit          3D

 29 30  0  0  1  0  0  0  0  0999 V2000
   10.9321  -15.3566   20.4828 N   0  0  0  0  0  0  0  0  0  0  0  0
    9.9717  -15.7950   21.4863 C   0  0  1  0  0  0  0  0  0  0  0  0
    8.6279  -15.9215   20.8067 C   0  0  0  0  0  0  0  0  0  0  0  0
    8.3149  -14.6044   20.1918 C   0  0  0  0  0  0  0  0  0  0  0  0
    9.1629  -13.4941   20.1054 C   0  0  0  0  0  0  0  0  0  0  0  0
    8.5266  -12.4953   19.4841 N   0  0  0  0  0  0  0  0  0  0  0  0
    7.3032  -12.9385   19.1748 C   0  0  0  0  0  0  0  0  0  0  0  0
    7.1749  -14.2053   19.5995 N   0  0  0  0  0  0  0  0  0  0  0  0
   10.4253  -17.0742   22.0724 C   0  0  0  0  0  0  0  0  0  0  0  0
    9.6265  -17.6710   22.8701 O   0  0  0  0  0  0  0  0  0  0  0  0
   11.6917  -17.6307   21.7725 N   0  0  0  0  0  0  0  0  0  0  0  0
   12.0827  -18.8915   22.3211 C   0  0  1  0  0  0  0  0  0  0  0  0
   13.1323  -19.6310   21.5397 C   0  0  0  0  0  0  0  0  0  0  0  0
   12.7370  -20.0343   20.1825 C   0  0  0  0  0  0  0  0  0  0  0  0
   11.7065  -20.8938   19.9044 C   0  0  0  0  0  0  0  0  0  0  0  0
   11.6467  -21.0212   18.5708 N   0  0  0  0  0  0  0  0  0  0  0  0
   12.6133  -20.2616   18.0407 C   0  0  0  0  0  0  0  0  0  0  0  0
   13.2815  -19.6567   19.0293 N   0  0  0  0  0  0  0  0  0  0  0  0
   12.5134  -18.8025   23.7342 C   0  0  0  0  0  0  0  0  0  0  0  0
   12.9266  -17.6977   24.1646 O   0  0  0  0  0  0  0  0  0  0  0  0
   12.4902  -19.8964   24.6307 N   0  0  0  0  0  0  0  0  0  0  0  0
   12.3973  -19.8016   26.0750 C   0  0  1  0  0  0  0  0  0  0  0  0
   11.1038  -19.2326   26.5563 C   0  0  0  0  0  0  0  0  0  0  0  0
   10.9078  -19.2306   28.0038 C   0  0  0  0  0  0  0  0  0  0  0  0
    9.9196  -19.7177   28.5986 O   0  0  0  0  0  0  0  0  0  0  0  0
   12.4958  -21.1856   26.6072 C   0  0  0  0  0  0  0  0  0  0  0  0
   11.7341  -22.0585   26.1560 O   0  0  0  0  0  0  0  0  0  0  0  0
   11.8846  -18.6463   28.8039 O   0  0  0  0  0  0  0  0  0  0  0  0
   13.4081  -21.4950   27.5767 O   0  0  0  0  0  0  0  0  0  0  0  0
  2  1  1  6
  2  9  1  0
  3  2  1  0
  4  8  1  0
  4  3  1  0
  5  4  2  0
  6  5  1  0
  6  7  1  0
  7  8  2  0
  9 10  2  0
 11  9  1  0
 11 12  1  0
 12 13  1  6
 13 14  1  0
 14 15  2  0
 16 15  1  0
 17 16  1  0
 18 17  2  0
 18 14  1  0
 19 12  1  0
 19 20  2  0
 21 19  1  0
 22 21  1  0
 22 26  1  0
 22 23  1  6
 24 23  1  0
 24 28  1  0
 25 24  2  0
 26 29  1  0
 27 26  2  0
M  END
$$$$
