HHD.pdb
     RDKit          3D

 29 30  0  0  1  0  0  0  0  0999 V2000
   12.8932  -15.4865   14.1324 N   0  0  0  0  0  0  0  0  0  0  0  0
   12.8920  -16.4124   15.2567 C   0  0  1  0  0  0  0  0  0  0  0  0
   14.1452  -17.2511   15.1580 C   0  0  0  0  0  0  0  0  0  0  0  0
   13.8999  -18.2978   14.1309 C   0  0  0  0  0  0  0  0  0  0  0  0
   14.5694  -18.4523   12.9114 C   0  0  0  0  0  0  0  0  0  0  0  0
   14.0690  -19.5072   12.2594 N   0  0  0  0  0  0  0  0  0  0  0  0
   13.1044  -20.0250   13.0277 C   0  0  0  0  0  0  0  0  0  0  0  0
   13.0020  -19.2993   14.1521 N   0  0  0  0  0  0  0  0  0  0  0  0
   12.8281  -15.6480   16.5206 C   0  0  0  0  0  0  0  0  0  0  0  0
   13.6376  -14.6700   16.6573 O   0  0  0  0  0  0  0  0  0  0  0  0
   11.9122  -15.9731   17.5495 N   0  0  0  0  0  0  0  0  0  0  0  0
   11.8944  -15.2312   18.7713 C   0  0  1  0  0  0  0  0  0  0  0  0
   10.5319  -15.0134   19.3674 C   0  0  0  0  0  0  0  0  0  0  0  0
    9.5194  -14.4832   18.4429 C   0  0  0  0  0  0  0  0  0  0  0  0
    9.1943  -13.1562   18.3362 C   0  0  0  0  0  0  0  0  0  0  0  0
    8.2401  -13.0570   17.3992 N   0  0  0  0  0  0  0  0  0  0  0  0
    7.9835  -14.2882   16.9404 C   0  0  0  0  0  0  0  0  0  0  0  0
    8.7682  -15.1624   17.5807 N   0  0  0  0  0  0  0  0  0  0  0  0
   12.7847  -15.7978   19.8088 C   0  0  0  0  0  0  0  0  0  0  0  0
   12.8103  -17.0441   19.9588 O   0  0  0  0  0  0  0  0  0  0  0  0
   13.6090  -15.0122   20.6481 N   0  0  0  0  0  0  0  0  0  0  0  0
   14.4637  -15.5189   21.7046 C   0  0  1  0  0  0  0  0  0  0  0  0
   15.6332  -14.6401   22.0027 C   0  0  0  0  0  0  0  0  0  0  0  0
   16.6813  -14.6074   20.9858 C   0  0  0  0  0  0  0  0  0  0  0  0
   16.9472  -15.5399   20.1937 O   0  0  0  0  0  0  0  0  0  0  0  0
   13.6361  -15.5851   22.9371 C   0  0  0  0  0  0  0  0  0  0  0  0
   14.1367  -16.0578   23.9723 O   0  0  0  0  0  0  0  0  0  0  0  0
   17.4575  -13.4584   20.8710 O   0  0  0  0  0  0  0  0  0  0  0  0
   12.3459  -15.1340   22.9340 O   0  0  0  0  0  0  0  0  0  0  0  0
  2  1  1  6
  2  9  1  0
  3  2  1  0
  4  8  1  0
  4  3  1  0
  5  4  2  0
  6  5  1  0
  6  7  1  0
  7  8  2  0
  9 10  2  0
 11  9  1  0
 11 12  1  0
 12 13  1  1
 13 14  1  0
 14 15  2  0
 16 15  1  0
 17 16  1  0
 18 17  2  0
 18 14  1  0
 19 12  1  0
 19 20  2  0
 21 19  1  0
 22 21  1  0
 22 26  1  0
 22 23  1  1
 24 23  1  0
 24 28  1  0
 25 24  2  0
 26 29  1  0
 27 26  2  0
M  END
$$$$
