HHD.pdb
     RDKit          3D

 29 30  0  0  1  0  0  0  0  0999 V2000
   10.7591  -18.0812   16.7578 N   0  0  0  0  0  0  0  0  0  0  0  0
    9.8289  -18.2932   17.8584 C   0  0  1  0  0  0  0  0  0  0  0  0
    9.8673  -19.7621   18.2113 C   0  0  0  0  0  0  0  0  0  0  0  0
    8.7973  -20.4354   17.4287 C   0  0  0  0  0  0  0  0  0  0  0  0
    8.6658  -20.4637   16.0354 C   0  0  0  0  0  0  0  0  0  0  0  0
    7.5779  -21.1678   15.7051 N   0  0  0  0  0  0  0  0  0  0  0  0
    7.0170  -21.5858   16.8452 C   0  0  0  0  0  0  0  0  0  0  0  0
    7.7486  -21.1464   17.8811 N   0  0  0  0  0  0  0  0  0  0  0  0
   10.2143  -17.4335   18.9978 C   0  0  0  0  0  0  0  0  0  0  0  0
   11.4570  -17.1829   19.1509 O   0  0  0  0  0  0  0  0  0  0  0  0
    9.2571  -16.9004   19.8939 N   0  0  0  0  0  0  0  0  0  0  0  0
    9.6556  -16.0215   20.9486 C   0  0  1  0  0  0  0  0  0  0  0  0
    8.6106  -15.0343   21.3875 C   0  0  0  0  0  0  0  0  0  0  0  0
    8.0401  -14.2056   20.3158 C   0  0  0  0  0  0  0  0  0  0  0  0
    8.4747  -12.9438   20.0045 C   0  0  0  0  0  0  0  0  0  0  0  0
    7.7232  -12.5074   18.9831 N   0  0  0  0  0  0  0  0  0  0  0  0
    6.8492  -13.4729   18.6728 C   0  0  0  0  0  0  0  0  0  0  0  0
    7.0440  -14.5139   19.4902 N   0  0  0  0  0  0  0  0  0  0  0  0
   10.1676  -16.7362   22.1391 C   0  0  0  0  0  0  0  0  0  0  0  0
    9.6485  -17.8382   22.4437 O   0  0  0  0  0  0  0  0  0  0  0  0
   11.2098  -16.2450   22.9597 N   0  0  0  0  0  0  0  0  0  0  0  0
   11.8068  -16.9502   24.0777 C   0  0  1  0  0  0  0  0  0  0  0  0
   13.1066  -16.3696   24.5274 C   0  0  0  0  0  0  0  0  0  0  0  0
   14.1544  -16.2912   23.5128 C   0  0  0  0  0  0  0  0  0  0  0  0
   14.3433  -17.1317   22.6043 O   0  0  0  0  0  0  0  0  0  0  0  0
   10.8574  -16.8407   25.2157 C   0  0  0  0  0  0  0  0  0  0  0  0
    9.8430  -16.1336   25.0862 O   0  0  0  0  0  0  0  0  0  0  0  0
   15.0227  -15.2043   23.5397 O   0  0  0  0  0  0  0  0  0  0  0  0
   11.0942  -17.5060   26.3860 O   0  0  0  0  0  0  0  0  0  0  0  0
  2  1  1  6
  2  9  1  0
  3  2  1  0
  4  8  1  0
  4  3  1  0
  5  4  2  0
  6  5  1  0
  6  7  1  0
  7  8  2  0
  9 10  2  0
 11  9  1  0
 11 12  1  0
 12 13  1  1
 13 14  1  0
 14 15  2  0
 16 15  1  0
 17 16  1  0
 18 17  2  0
 18 14  1  0
 19 12  1  0
 19 20  2  0
 21 19  1  0
 22 21  1  0
 22 26  1  0
 22 23  1  1
 24 23  1  0
 24 28  1  0
 25 24  2  0
 26 29  1  0
 27 26  2  0
M  END
$$$$
