HHD.pdb
     RDKit          3D

 29 30  0  0  1  0  0  0  0  0999 V2000
   10.3916  -16.9198   16.4511 N   0  0  0  0  0  0  0  0  0  0  0  0
   11.3462  -15.8240   16.3540 C   0  0  1  0  0  0  0  0  0  0  0  0
   10.9014  -14.9312   15.2188 C   0  0  0  0  0  0  0  0  0  0  0  0
   10.5850  -15.8085   14.0609 C   0  0  0  0  0  0  0  0  0  0  0  0
   10.7228  -17.2001   13.9980 C   0  0  0  0  0  0  0  0  0  0  0  0
   10.3376  -17.6315   12.7923 N   0  0  0  0  0  0  0  0  0  0  0  0
    9.9605  -16.5572   12.0905 C   0  0  0  0  0  0  0  0  0  0  0  0
   10.1087  -15.4616   12.8515 N   0  0  0  0  0  0  0  0  0  0  0  0
   11.3988  -15.1046   17.6445 C   0  0  0  0  0  0  0  0  0  0  0  0
   12.1489  -14.0734   17.7122 O   0  0  0  0  0  0  0  0  0  0  0  0
   10.6540  -15.5277   18.7712 N   0  0  0  0  0  0  0  0  0  0  0  0
   10.8424  -14.9069   20.0450 C   0  0  1  0  0  0  0  0  0  0  0  0
    9.5795  -14.5015   20.7520 C   0  0  0  0  0  0  0  0  0  0  0  0
    8.6649  -13.6578   19.9694 C   0  0  0  0  0  0  0  0  0  0  0  0
    8.9553  -12.3831   19.5585 C   0  0  0  0  0  0  0  0  0  0  0  0
    7.8911  -11.9355   18.8763 N   0  0  0  0  0  0  0  0  0  0  0  0
    6.9697  -12.9067   18.8663 C   0  0  0  0  0  0  0  0  0  0  0  0
    7.4447  -13.9626   19.5367 N   0  0  0  0  0  0  0  0  0  0  0  0
   11.6689  -15.7149   20.9692 C   0  0  0  0  0  0  0  0  0  0  0  0
   11.4257  -16.9426   21.0704 O   0  0  0  0  0  0  0  0  0  0  0  0
   12.7191  -15.1806   21.7519 N   0  0  0  0  0  0  0  0  0  0  0  0
   13.9304  -15.8827   22.1306 C   0  0  1  0  0  0  0  0  0  0  0  0
   15.1404  -15.0095   22.1746 C   0  0  0  0  0  0  0  0  0  0  0  0
   16.3715  -15.6490   22.6316 C   0  0  0  0  0  0  0  0  0  0  0  0
   16.4597  -16.8238   23.0554 O   0  0  0  0  0  0  0  0  0  0  0  0
   13.7152  -16.4080   23.5039 C   0  0  0  0  0  0  0  0  0  0  0  0
   14.6082  -17.0933   24.0319 O   0  0  0  0  0  0  0  0  0  0  0  0
   17.5514  -14.9123   22.6021 O   0  0  0  0  0  0  0  0  0  0  0  0
   12.5553  -16.1430   24.1767 O   0  0  0  0  0  0  0  0  0  0  0  0
  2  1  1  1
  2  9  1  0
  3  2  1  0
  4  8  1  0
  4  3  1  0
  5  4  2  0
  6  5  1  0
  6  7  1  0
  7  8  2  0
  9 10  2  0
 11  9  1  0
 11 12  1  0
 12 13  1  1
 13 14  1  0
 14 15  2  0
 16 15  1  0
 17 16  1  0
 18 17  2  0
 18 14  1  0
 19 12  1  0
 19 20  2  0
 21 19  1  0
 22 21  1  0
 22 26  1  0
 22 23  1  1
 24 23  1  0
 24 28  1  0
 25 24  2  0
 26 29  1  0
 27 26  2  0
M  END
$$$$
