HHD.pdb
     RDKit          3D

 29 30  0  0  1  0  0  0  0  0999 V2000
   11.4355  -16.3919   15.8095 N   0  0  0  0  0  0  0  0  0  0  0  0
   10.9369  -17.2381   16.8850 C   0  0  1  0  0  0  0  0  0  0  0  0
   11.7957  -18.4808   16.9228 C   0  0  0  0  0  0  0  0  0  0  0  0
   11.5266  -19.2454   15.6764 C   0  0  0  0  0  0  0  0  0  0  0  0
   10.5771  -18.9433   14.6932 C   0  0  0  0  0  0  0  0  0  0  0  0
   10.6323  -19.8627   13.7237 N   0  0  0  0  0  0  0  0  0  0  0  0
   11.5864  -20.7367   14.0622 C   0  0  0  0  0  0  0  0  0  0  0  0
   12.1243  -20.3669   15.2350 N   0  0  0  0  0  0  0  0  0  0  0  0
   10.9807  -16.4883   18.1585 C   0  0  0  0  0  0  0  0  0  0  0  0
   12.0328  -15.8076   18.4036 O   0  0  0  0  0  0  0  0  0  0  0  0
    9.9080  -16.5125   19.0816 N   0  0  0  0  0  0  0  0  0  0  0  0
   10.0236  -15.8652   20.3510 C   0  0  1  0  0  0  0  0  0  0  0  0
    8.7830  -15.1615   20.8252 C   0  0  0  0  0  0  0  0  0  0  0  0
    8.2041  -14.2006   19.8753 C   0  0  0  0  0  0  0  0  0  0  0  0
    8.4128  -12.8471   19.9264 C   0  0  0  0  0  0  0  0  0  0  0  0
    7.7306  -12.3032   18.9080 N   0  0  0  0  0  0  0  0  0  0  0  0
    7.1181  -13.2932   18.2470 C   0  0  0  0  0  0  0  0  0  0  0  0
    7.4088  -14.4564   18.8405 N   0  0  0  0  0  0  0  0  0  0  0  0
   10.5002  -16.7677   21.4227 C   0  0  0  0  0  0  0  0  0  0  0  0
    9.8750  -17.8376   21.6251 O   0  0  0  0  0  0  0  0  0  0  0  0
   11.6219  -16.4909   22.2387 N   0  0  0  0  0  0  0  0  0  0  0  0
   12.2004  -17.3965   23.2129 C   0  0  1  0  0  0  0  0  0  0  0  0
   13.6922  -17.3598   23.2535 C   0  0  0  0  0  0  0  0  0  0  0  0
   14.2966  -16.0303   23.2785 C   0  0  0  0  0  0  0  0  0  0  0  0
   14.2742  -15.2098   22.3330 O   0  0  0  0  0  0  0  0  0  0  0  0
   11.7119  -16.9655   24.5486 C   0  0  0  0  0  0  0  0  0  0  0  0
   11.0403  -15.9228   24.6351 O   0  0  0  0  0  0  0  0  0  0  0  0
   14.9545  -15.6231   24.4348 O   0  0  0  0  0  0  0  0  0  0  0  0
   11.9956  -17.7022   25.6643 O   0  0  0  0  0  0  0  0  0  0  0  0
  2  1  1  6
  2  9  1  0
  3  2  1  0
  4  8  1  0
  4  3  1  0
  5  4  2  0
  6  5  1  0
  6  7  1  0
  7  8  2  0
  9 10  2  0
 11  9  1  0
 11 12  1  0
 12 13  1  1
 13 14  1  0
 14 15  2  0
 16 15  1  0
 17 16  1  0
 18 17  2  0
 18 14  1  0
 19 12  1  0
 19 20  2  0
 21 19  1  0
 22 21  1  0
 22 26  1  0
 22 23  1  1
 24 23  1  0
 24 28  1  0
 25 24  2  0
 26 29  1  0
 27 26  2  0
M  END
$$$$
