HHD.pdb
     RDKit          3D

 29 30  0  0  1  0  0  0  0  0999 V2000
   14.5591  -14.1447   17.5461 N   0  0  0  0  0  0  0  0  0  0  0  0
   13.3522  -14.9595   17.5735 C   0  0  1  0  0  0  0  0  0  0  0  0
   13.7455  -16.3698   17.1994 C   0  0  0  0  0  0  0  0  0  0  0  0
   13.6025  -16.4949   15.7247 C   0  0  0  0  0  0  0  0  0  0  0  0
   12.4438  -16.2754   14.9707 C   0  0  0  0  0  0  0  0  0  0  0  0
   12.7079  -16.4868   13.6769 N   0  0  0  0  0  0  0  0  0  0  0  0
   13.9968  -16.8330   13.5885 C   0  0  0  0  0  0  0  0  0  0  0  0
   14.5351  -16.8382   14.8180 N   0  0  0  0  0  0  0  0  0  0  0  0
   12.7424  -14.8865   18.9183 C   0  0  0  0  0  0  0  0  0  0  0  0
   13.5198  -14.6529   19.9041 O   0  0  0  0  0  0  0  0  0  0  0  0
   11.3536  -15.0659   19.1241 N   0  0  0  0  0  0  0  0  0  0  0  0
   10.8098  -15.0940   20.4458 C   0  0  1  0  0  0  0  0  0  0  0  0
    9.3090  -15.0581   20.5208 C   0  0  0  0  0  0  0  0  0  0  0  0
    8.6598  -14.0739   19.6429 C   0  0  0  0  0  0  0  0  0  0  0  0
    8.3246  -12.8021   20.0278 C   0  0  0  0  0  0  0  0  0  0  0  0
    7.7566  -12.2054   18.9697 N   0  0  0  0  0  0  0  0  0  0  0  0
    7.7416  -13.0844   17.9600 C   0  0  0  0  0  0  0  0  0  0  0  0
    8.2955  -14.2299   18.3733 N   0  0  0  0  0  0  0  0  0  0  0  0
   11.3013  -16.2330   21.2529 C   0  0  0  0  0  0  0  0  0  0  0  0
   11.7621  -17.2354   20.6534 O   0  0  0  0  0  0  0  0  0  0  0  0
   11.2776  -16.2593   22.6669 N   0  0  0  0  0  0  0  0  0  0  0  0
   12.2297  -16.9521   23.5138 C   0  0  1  0  0  0  0  0  0  0  0  0
   13.6230  -16.4275   23.4031 C   0  0  0  0  0  0  0  0  0  0  0  0
   14.6182  -17.0781   24.2514 C   0  0  0  0  0  0  0  0  0  0  0  0
   14.6461  -18.2999   24.5237 O   0  0  0  0  0  0  0  0  0  0  0  0
   11.7907  -16.7453   24.9184 C   0  0  0  0  0  0  0  0  0  0  0  0
   10.8887  -15.9219   25.1510 O   0  0  0  0  0  0  0  0  0  0  0  0
   15.6240  -16.2969   24.8116 O   0  0  0  0  0  0  0  0  0  0  0  0
   12.3682  -17.4482   25.9386 O   0  0  0  0  0  0  0  0  0  0  0  0
  2  1  1  1
  2  9  1  0
  3  2  1  0
  4  8  1  0
  4  3  1  0
  5  4  2  0
  6  5  1  0
  6  7  1  0
  7  8  2  0
  9 10  2  0
 11  9  1  0
 11 12  1  0
 12 13  1  6
 13 14  1  0
 14 15  2  0
 16 15  1  0
 17 16  1  0
 18 17  2  0
 18 14  1  0
 19 12  1  0
 19 20  2  0
 21 19  1  0
 22 21  1  0
 22 26  1  0
 22 23  1  1
 24 23  1  0
 24 28  1  0
 25 24  2  0
 26 29  1  0
 27 26  2  0
M  END
$$$$
