CVG.pdb
     RDKit          3D

 18 17  0  0  1  0  0  0  0  0999 V2000
    7.0252  -18.0189   17.5114 N   0  0  0  0  0  0  0  0  0  0  0  0
    6.6441  -17.7960   18.8660 C   0  0  1  0  0  0  0  0  0  0  0  0
    6.5807  -19.0610   19.6929 C   0  0  0  0  0  0  0  0  0  0  0  0
    4.9704  -19.8883   19.4960 S   0  0  0  0  0  0  0  0  0  0  0  0
    7.4981  -16.8242   19.5748 C   0  0  0  0  0  0  0  0  0  0  0  0
    8.7456  -16.9201   19.4013 O   0  0  0  0  0  0  0  0  0  0  0  0
    8.3079  -12.5621   21.7748 C   0  0  0  0  0  0  0  0  0  0  0  0
    7.2894  -13.4904   21.1457 C   0  0  1  0  0  0  0  0  0  0  0  0
    7.0790  -12.9947   19.7135 C   0  0  0  0  0  0  0  0  0  0  0  0
    7.9195  -14.8574   21.0431 C   0  0  2  0  0  0  0  0  0  0  0  0
    6.9959  -15.8013   20.4297 N   0  0  0  0  0  0  0  0  0  0  0  0
    8.3778  -15.3744   22.3472 C   0  0  0  0  0  0  0  0  0  0  0  0
    7.5190  -15.5755   23.2527 O   0  0  0  0  0  0  0  0  0  0  0  0
    9.7463  -15.6327   22.5610 N   0  0  0  0  0  0  0  0  0  0  0  0
   10.2545  -16.0934   23.8234 C   0  0  0  0  0  0  0  0  0  0  0  0
   11.7320  -16.2450   23.8241 C   0  0  0  0  0  0  0  0  0  0  0  0
   12.6143  -15.2781   24.2276 O   0  0  0  0  0  0  0  0  0  0  0  0
   12.1904  -17.3460   23.4225 O   0  0  0  0  0  0  0  0  0  0  0  0
  2  1  1  6
  3  2  1  0
  4  3  1  0
  5  2  1  0
  6  5  2  0
  8  7  1  1
  8  9  1  0
  8 10  1  0
 10 12  1  0
 10 11  1  1
 11  5  1  0
 12 14  1  0
 13 12  2  0
 14 15  1  0
 16 15  1  0
 16 17  1  0
 18 16  2  0
M  END
$$$$
