CVG.pdb
     RDKit          3D

 18 17  0  0  1  0  0  0  0  0999 V2000
   -0.2947  -24.3910   23.9543 N   0  0  0  0  0  0  0  0  0  0  0  0
   -1.4422  -24.9581   24.5797 C   0  0  1  0  0  0  0  0  0  0  0  0
   -1.4203  -26.4698   24.6277 C   0  0  0  0  0  0  0  0  0  0  0  0
   -2.9000  -27.1167   25.4692 S   0  0  0  0  0  0  0  0  0  0  0  0
   -1.6875  -24.4571   25.9454 C   0  0  0  0  0  0  0  0  0  0  0  0
   -0.7394  -24.5571   26.7741 O   0  0  0  0  0  0  0  0  0  0  0  0
   -2.3308  -21.2184   26.9539 C   0  0  0  0  0  0  0  0  0  0  0  0
   -3.3856  -21.9377   27.7694 C   0  0  1  0  0  0  0  0  0  0  0  0
   -4.7062  -21.7658   27.0161 C   0  0  0  0  0  0  0  0  0  0  0  0
   -3.0589  -23.4103   27.7413 C   0  0  2  0  0  0  0  0  0  0  0  0
   -2.9175  -23.8764   26.3691 N   0  0  0  0  0  0  0  0  0  0  0  0
   -4.0583  -24.2308   28.4527 C   0  0  0  0  0  0  0  0  0  0  0  0
   -5.1028  -24.5819   27.8334 O   0  0  0  0  0  0  0  0  0  0  0  0
   -3.8368  -24.6055   29.7928 N   0  0  0  0  0  0  0  0  0  0  0  0
   -4.7024  -25.5154   30.4906 C   0  0  0  0  0  0  0  0  0  0  0  0
   -5.9081  -24.8471   31.0436 C   0  0  0  0  0  0  0  0  0  0  0  0
   -6.9011  -25.4834   31.7402 O   0  0  0  0  0  0  0  0  0  0  0  0
   -6.0100  -23.6079   30.8501 O   0  0  0  0  0  0  0  0  0  0  0  0
  2  1  1  1
  3  2  1  0
  4  3  1  0
  5  2  1  0
  6  5  2  0
  8  7  1  6
  8  9  1  0
  8 10  1  0
 10 12  1  0
 10 11  1  6
 11  5  1  0
 12 14  1  0
 13 12  2  0
 14 15  1  0
 16 15  1  0
 16 17  1  0
 18 16  2  0
M  END
$$$$
