CVG.pdb
     RDKit          3D

 18 17  0  0  1  0  0  0  0  0999 V2000
    7.3222  -18.9076   27.4095 N   0  0  0  0  0  0  0  0  0  0  0  0
    7.5355  -17.5428   27.0607 C   0  0  1  0  0  0  0  0  0  0  0  0
    8.5528  -16.8460   27.9369 C   0  0  0  0  0  0  0  0  0  0  0  0
    8.4754  -15.0402   27.7156 S   0  0  0  0  0  0  0  0  0  0  0  0
    7.9241  -17.3398   25.6522 C   0  0  0  0  0  0  0  0  0  0  0  0
    8.6735  -18.2124   25.1302 O   0  0  0  0  0  0  0  0  0  0  0  0
    7.6530  -13.6837   23.3508 C   0  0  0  0  0  0  0  0  0  0  0  0
    7.2159  -15.0139   22.7724 C   0  0  1  0  0  0  0  0  0  0  0  0
    7.6954  -15.0322   21.3196 C   0  0  0  0  0  0  0  0  0  0  0  0
    7.9774  -16.0980   23.4941 C   0  0  2  0  0  0  0  0  0  0  0  0
    7.5043  -16.2290   24.8650 N   0  0  0  0  0  0  0  0  0  0  0  0
    9.4364  -15.8758   23.4825 C   0  0  0  0  0  0  0  0  0  0  0  0
    9.9137  -14.9612   24.2129 O   0  0  0  0  0  0  0  0  0  0  0  0
   10.2641  -16.6750   22.6692 N   0  0  0  0  0  0  0  0  0  0  0  0
   11.6939  -16.5357   22.6544 C   0  0  0  0  0  0  0  0  0  0  0  0
   12.2387  -16.3762   21.2819 C   0  0  0  0  0  0  0  0  0  0  0  0
   13.3900  -15.7010   20.9742 O   0  0  0  0  0  0  0  0  0  0  0  0
   11.5845  -16.9049   20.3459 O   0  0  0  0  0  0  0  0  0  0  0  0
  2  1  1  1
  3  2  1  0
  4  3  1  0
  5  2  1  0
  6  5  2  0
  8  7  1  1
  8  9  1  0
  8 10  1  0
 10 12  1  0
 10 11  1  1
 11  5  1  0
 12 14  1  0
 13 12  2  0
 14 15  1  0
 16 15  1  0
 16 17  1  0
 18 16  2  0
M  END
$$$$
