CVG.pdb
     RDKit          3D

 18 17  0  0  1  0  0  0  0  0999 V2000
    5.7383  -16.9528   22.0757 N   0  0  0  0  0  0  0  0  0  0  0  0
    5.8604  -17.0143   23.4938 C   0  0  1  0  0  0  0  0  0  0  0  0
    6.2547  -18.3808   24.0087 C   0  0  0  0  0  0  0  0  0  0  0  0
    4.8739  -19.5582   23.8558 S   0  0  0  0  0  0  0  0  0  0  0  0
    6.7957  -16.0220   24.0567 C   0  0  0  0  0  0  0  0  0  0  0  0
    7.8832  -15.8415   23.4400 O   0  0  0  0  0  0  0  0  0  0  0  0
    8.0202  -12.3451   27.0428 C   0  0  0  0  0  0  0  0  0  0  0  0
    6.9356  -13.3312   26.6607 C   0  0  1  0  0  0  0  0  0  0  0  0
    5.9218  -12.5541   25.8184 C   0  0  0  0  0  0  0  0  0  0  0  0
    7.5557  -14.3623   25.7507 C   0  0  2  0  0  0  0  0  0  0  0  0
    6.5389  -15.2706   25.2395 N   0  0  0  0  0  0  0  0  0  0  0  0
    8.6336  -15.1283   26.4061 C   0  0  0  0  0  0  0  0  0  0  0  0
    8.3776  -15.7231   27.4917 O   0  0  0  0  0  0  0  0  0  0  0  0
    9.9139  -15.1848   25.8206 N   0  0  0  0  0  0  0  0  0  0  0  0
   11.0300  -15.8144   26.4701 C   0  0  0  0  0  0  0  0  0  0  0  0
   12.2877  -15.6957   25.6889 C   0  0  0  0  0  0  0  0  0  0  0  0
   13.5106  -16.1492   26.1073 O   0  0  0  0  0  0  0  0  0  0  0  0
   12.2075  -15.1362   24.5646 O   0  0  0  0  0  0  0  0  0  0  0  0
  2  1  1  6
  3  2  1  0
  4  3  1  0
  5  2  1  0
  6  5  2  0
  8  7  1  6
  8  9  1  0
  8 10  1  0
 10 12  1  0
 10 11  1  1
 11  5  1  0
 12 14  1  0
 13 12  2  0
 14 15  1  0
 16 15  1  0
 16 17  1  0
 18 16  2  0
M  END
$$$$
