CVG.pdb
     RDKit          3D

 18 17  0  0  1  0  0  0  0  0999 V2000
    9.2881  -17.7385   16.7280 N   0  0  0  0  0  0  0  0  0  0  0  0
    8.7761  -17.6757   18.0560 C   0  0  1  0  0  0  0  0  0  0  0  0
    9.1686  -18.8591   18.9125 C   0  0  0  0  0  0  0  0  0  0  0  0
    8.1860  -20.3303   18.4810 S   0  0  0  0  0  0  0  0  0  0  0  0
    9.1398  -16.4424   18.7790 C   0  0  0  0  0  0  0  0  0  0  0  0
   10.2057  -15.8625   18.4281 O   0  0  0  0  0  0  0  0  0  0  0  0
    7.8487  -12.5328   21.4089 C   0  0  0  0  0  0  0  0  0  0  0  0
    7.4401  -13.7826   20.6567 C   0  0  1  0  0  0  0  0  0  0  0  0
    6.8739  -13.3140   19.3147 C   0  0  0  0  0  0  0  0  0  0  0  0
    8.6951  -14.5616   20.3496 C   0  0  2  0  0  0  0  0  0  0  0  0
    8.3636  -15.8825   19.8342 N   0  0  0  0  0  0  0  0  0  0  0  0
    9.5908  -14.6848   21.5160 C   0  0  0  0  0  0  0  0  0  0  0  0
    9.9963  -13.6288   22.0802 O   0  0  0  0  0  0  0  0  0  0  0  0
    9.9754  -15.9594   21.9771 N   0  0  0  0  0  0  0  0  0  0  0  0
   10.7539  -16.1434   23.1705 C   0  0  0  0  0  0  0  0  0  0  0  0
   10.9531  -17.5761   23.5081 C   0  0  0  0  0  0  0  0  0  0  0  0
   12.0591  -18.0816   24.1385 O   0  0  0  0  0  0  0  0  0  0  0  0
   10.0311  -18.3693   23.1855 O   0  0  0  0  0  0  0  0  0  0  0  0
  2  1  1  6
  3  2  1  0
  4  3  1  0
  5  2  1  0
  6  5  2  0
  8  7  1  1
  8  9  1  0
  8 10  1  0
 10 12  1  0
 10 11  1  1
 11  5  1  0
 12 14  1  0
 13 12  2  0
 14 15  1  0
 16 15  1  0
 16 17  1  0
 18 16  2  0
M  END
$$$$
