CVG.pdb
     RDKit          3D

 18 17  0  0  1  0  0  0  0  0999 V2000
    7.7846  -17.9003   16.7187 N   0  0  0  0  0  0  0  0  0  0  0  0
    7.3291  -17.7768   18.0629 C   0  0  1  0  0  0  0  0  0  0  0  0
    7.3390  -19.0818   18.8277 C   0  0  0  0  0  0  0  0  0  0  0  0
    5.7311  -19.9264   18.6963 S   0  0  0  0  0  0  0  0  0  0  0  0
    8.0664  -16.7733   18.8539 C   0  0  0  0  0  0  0  0  0  0  0  0
    9.3268  -16.7884   18.7717 O   0  0  0  0  0  0  0  0  0  0  0  0
    8.4020  -12.6778   21.5115 C   0  0  0  0  0  0  0  0  0  0  0  0
    7.4940  -13.5981   20.7220 C   0  0  1  0  0  0  0  0  0  0  0  0
    7.2637  -12.9220   19.3689 C   0  0  0  0  0  0  0  0  0  0  0  0
    8.2591  -14.8689   20.4471 C   0  0  2  0  0  0  0  0  0  0  0  0
    7.4399  -15.8054   19.6907 N   0  0  0  0  0  0  0  0  0  0  0  0
    8.7571  -15.5135   21.6778 C   0  0  0  0  0  0  0  0  0  0  0  0
    7.9155  -15.9591   22.5091 O   0  0  0  0  0  0  0  0  0  0  0  0
   10.1435  -15.6213   21.9050 N   0  0  0  0  0  0  0  0  0  0  0  0
   10.6852  -16.0778   23.1549 C   0  0  0  0  0  0  0  0  0  0  0  0
   12.1699  -16.0432   23.1813 C   0  0  0  0  0  0  0  0  0  0  0  0
   12.9638  -15.8243   22.0868 O   0  0  0  0  0  0  0  0  0  0  0  0
   12.7228  -16.2301   24.2962 O   0  0  0  0  0  0  0  0  0  0  0  0
  2  1  1  6
  3  2  1  0
  4  3  1  0
  5  2  1  0
  6  5  2  0
  8  7  1  1
  8  9  1  0
  8 10  1  0
 10 12  1  0
 10 11  1  1
 11  5  1  0
 12 14  1  0
 13 12  2  0
 14 15  1  0
 16 15  1  0
 16 17  1  0
 18 16  2  0
M  END
$$$$
