LHS.pdb
     RDKit          3D

 25 25  0  0  1  0  0  0  0  0999 V2000
   13.7483  -20.1205    4.0170 C   0  0  0  0  0  0  0  0  0  0  0  0
   14.9980  -20.9638    3.7850 C   0  0  2  0  0  0  0  0  0  0  0  0
   14.7621  -22.3172    4.4088 C   0  0  0  0  0  0  0  0  0  0  0  0
   16.2256  -20.2757    4.3168 C   0  0  0  0  0  0  0  0  0  0  0  0
   16.4333  -18.9685    3.6066 C   0  0  2  0  0  0  0  0  0  0  0  0
   16.7515  -19.1968    2.2209 N   0  0  0  0  0  0  0  0  0  0  0  0
   17.5239  -18.1889    4.2245 C   0  0  0  0  0  0  0  0  0  0  0  0
   18.7001  -18.5295    4.1083 O   0  0  0  0  0  0  0  0  0  0  0  0
   17.1955  -17.0182    4.9694 N   0  0  0  0  0  0  0  0  0  0  0  0
   18.1712  -16.1973    5.6102 C   0  0  1  0  0  0  0  0  0  0  0  0
   17.6708  -14.8417    5.9182 C   0  0  0  0  0  0  0  0  0  0  0  0
   18.6651  -13.8105    6.2541 C   0  0  0  0  0  0  0  0  0  0  0  0
   20.0242  -13.8959    6.2664 C   0  0  0  0  0  0  0  0  0  0  0  0
   20.5625  -12.6884    6.5965 N   0  0  0  0  0  0  0  0  0  0  0  0
   19.5384  -11.8604    6.7864 C   0  0  0  0  0  0  0  0  0  0  0  0
   18.4053  -12.5153    6.5857 N   0  0  0  0  0  0  0  0  0  0  0  0
   18.7740  -16.8441    6.8058 C   0  0  0  0  0  0  0  0  0  0  0  0
   18.0766  -17.5329    7.5928 O   0  0  0  0  0  0  0  0  0  0  0  0
   22.9643  -18.3156    8.7577 O   0  0  0  0  0  0  0  0  0  0  0  0
   22.2563  -17.5907    7.8272 C   0  0  0  0  0  0  0  0  0  0  0  0
   20.7767  -17.4547    8.2070 C   0  0  2  0  0  0  0  0  0  0  0  0
   20.1540  -16.7218    7.1223 N   0  0  0  0  0  0  0  0  0  0  0  0
   20.6966  -16.7402    9.4873 C   0  0  0  0  0  0  0  0  0  0  0  0
   20.4831  -17.4578   10.6504 O   0  0  0  0  0  0  0  0  0  0  0  0
   20.8141  -15.4956    9.5770 O   0  0  0  0  0  0  0  0  0  0  0  0
  2  1  1  1
  3  2  1  0
  4  5  1  0
  4  2  1  0
  5  6  1  6
  7  5  1  0
  7  8  2  0
  9  7  1  0
 10  9  1  0
 10 11  1  1
 12 16  1  0
 12 11  1  0
 13 12  2  0
 14 13  1  0
 14 15  1  0
 15 16  2  0
 17 10  1  0
 18 17  2  0
 20 19  1  0
 21 22  1  0
 21 20  1  6
 22 17  1  0
 23 21  1  0
 24 23  1  0
 25 23  2  0
M  END
$$$$
