LHS.pdb
     RDKit          3D

 25 25  0  0  1  0  0  0  0  0999 V2000
   16.6457  -11.3411  -19.4810 C   0  0  0  0  0  0  0  0  0  0  0  0
   18.0802  -11.7544  -19.1675 C   0  0  2  0  0  0  0  0  0  0  0  0
   18.0890  -13.2452  -18.9350 C   0  0  0  0  0  0  0  0  0  0  0  0
   18.6302  -10.9735  -18.0052 C   0  0  0  0  0  0  0  0  0  0  0  0
   18.4236   -9.5023  -18.2277 C   0  0  2  0  0  0  0  0  0  0  0  0
   19.1942   -9.0542  -19.3586 N   0  0  0  0  0  0  0  0  0  0  0  0
   18.8185   -8.7190  -17.0406 C   0  0  0  0  0  0  0  0  0  0  0  0
   18.3335   -8.9457  -15.9331 O   0  0  0  0  0  0  0  0  0  0  0  0
   19.7834   -7.6801  -17.1923 N   0  0  0  0  0  0  0  0  0  0  0  0
   20.1572   -6.7968  -16.1357 C   0  0  1  0  0  0  0  0  0  0  0  0
   21.5420   -7.0120  -15.6678 C   0  0  0  0  0  0  0  0  0  0  0  0
   21.8679   -8.3259  -15.0914 C   0  0  0  0  0  0  0  0  0  0  0  0
   21.0444   -9.3763  -14.8213 C   0  0  0  0  0  0  0  0  0  0  0  0
   21.7690  -10.4201  -14.3292 N   0  0  0  0  0  0  0  0  0  0  0  0
   23.0359  -10.0149  -14.2965 C   0  0  0  0  0  0  0  0  0  0  0  0
   23.1079   -8.7720  -14.7471 N   0  0  0  0  0  0  0  0  0  0  0  0
   19.9043   -5.3681  -16.4613 C   0  0  0  0  0  0  0  0  0  0  0  0
   20.1070   -4.9197  -17.6180 O   0  0  0  0  0  0  0  0  0  0  0  0
   17.4387   -1.4273  -15.2058 O   0  0  0  0  0  0  0  0  0  0  0  0
   17.8651   -2.7164  -14.9846 C   0  0  0  0  0  0  0  0  0  0  0  0
   19.0993   -3.0673  -15.8245 C   0  0  2  0  0  0  0  0  0  0  0  0
   19.4255   -4.4411  -15.4964 N   0  0  0  0  0  0  0  0  0  0  0  0
   20.1753   -2.1335  -15.4692 C   0  0  0  0  0  0  0  0  0  0  0  0
   20.4233   -1.0448  -16.2856 O   0  0  0  0  0  0  0  0  0  0  0  0
   20.8883   -2.2782  -14.4487 O   0  0  0  0  0  0  0  0  0  0  0  0
  2  1  1  1
  3  2  1  0
  4  5  1  0
  4  2  1  0
  5  6  1  6
  7  5  1  0
  7  8  2  0
  9  7  1  0
 10  9  1  0
 10 11  1  6
 12 16  1  0
 12 11  1  0
 13 12  2  0
 14 13  1  0
 14 15  1  0
 15 16  2  0
 17 10  1  0
 18 17  2  0
 20 19  1  0
 21 22  1  0
 21 20  1  1
 22 17  1  0
 23 21  1  0
 24 23  1  0
 25 23  2  0
M  END
$$$$
