LHS.pdb
     RDKit          3D

 25 25  0  0  1  0  0  0  0  0999 V2000
   13.4660   -6.4671   -7.7718 C   0  0  0  0  0  0  0  0  0  0  0  0
   13.7325   -7.8381   -8.3851 C   0  0  2  0  0  0  0  0  0  0  0  0
   13.3035   -8.8816   -7.3832 C   0  0  0  0  0  0  0  0  0  0  0  0
   15.1712   -7.9778   -8.8020 C   0  0  0  0  0  0  0  0  0  0  0  0
   15.5152   -6.9352   -9.8272 C   0  0  2  0  0  0  0  0  0  0  0  0
   14.5462   -6.9419  -10.8923 N   0  0  0  0  0  0  0  0  0  0  0  0
   16.8557   -7.1671  -10.4001 C   0  0  0  0  0  0  0  0  0  0  0  0
   17.8702   -7.0871   -9.7092 O   0  0  0  0  0  0  0  0  0  0  0  0
   16.9650   -7.4901  -11.7847 N   0  0  0  0  0  0  0  0  0  0  0  0
   18.2134   -7.6822  -12.4488 C   0  0  1  0  0  0  0  0  0  0  0  0
   18.2028   -8.8346  -13.3732 C   0  0  0  0  0  0  0  0  0  0  0  0
   19.4382   -9.1177  -14.1205 C   0  0  0  0  0  0  0  0  0  0  0  0
   20.6437   -9.5517  -13.6591 C   0  0  0  0  0  0  0  0  0  0  0  0
   21.5045   -9.7260  -14.7009 N   0  0  0  0  0  0  0  0  0  0  0  0
   20.8315   -9.4012  -15.8018 C   0  0  0  0  0  0  0  0  0  0  0  0
   19.6022   -9.0382  -15.4702 N   0  0  0  0  0  0  0  0  0  0  0  0
   18.7078   -6.4487  -13.1160 C   0  0  0  0  0  0  0  0  0  0  0  0
   17.9121   -5.6370  -13.6528 O   0  0  0  0  0  0  0  0  0  0  0  0
   22.6188   -3.6827  -14.0590 O   0  0  0  0  0  0  0  0  0  0  0  0
   22.0234   -4.7560  -13.4376 C   0  0  0  0  0  0  0  0  0  0  0  0
   20.5891   -4.9841  -13.9301 C   0  0  2  0  0  0  0  0  0  0  0  0
   20.0891   -6.1218  -13.1837 N   0  0  0  0  0  0  0  0  0  0  0  0
   20.6363   -5.2368  -15.3758 C   0  0  0  0  0  0  0  0  0  0  0  0
   20.1740   -4.2674  -16.2475 O   0  0  0  0  0  0  0  0  0  0  0  0
   21.0812   -6.3024  -15.8631 O   0  0  0  0  0  0  0  0  0  0  0  0
  2  1  1  1
  3  2  1  0
  4  5  1  0
  4  2  1  0
  5  6  1  6
  7  5  1  0
  7  8  2  0
  9  7  1  0
 10  9  1  0
 10 11  1  6
 12 16  1  0
 12 11  1  0
 13 12  2  0
 14 13  1  0
 14 15  1  0
 15 16  2  0
 17 10  1  0
 18 17  2  0
 20 19  1  0
 21 22  1  0
 21 20  1  1
 22 17  1  0
 23 21  1  0
 24 23  1  0
 25 23  2  0
M  END
$$$$
