LHS.pdb
     RDKit          3D

 25 25  0  0  1  0  0  0  0  0999 V2000
   20.4558  -11.3851  -21.7395 C   0  0  0  0  0  0  0  0  0  0  0  0
   21.2771  -11.8505  -20.5412 C   0  0  2  0  0  0  0  0  0  0  0  0
   21.0378  -13.3299  -20.3661 C   0  0  0  0  0  0  0  0  0  0  0  0
   20.9466  -11.0504  -19.3108 C   0  0  0  0  0  0  0  0  0  0  0  0
   21.1062   -9.5832  -19.5907 C   0  0  2  0  0  0  0  0  0  0  0  0
   22.4860   -9.2728  -19.8619 N   0  0  0  0  0  0  0  0  0  0  0  0
   20.6486   -8.7659  -18.4499 C   0  0  0  0  0  0  0  0  0  0  0  0
   19.5221   -8.9026  -17.9751 O   0  0  0  0  0  0  0  0  0  0  0  0
   21.5393   -7.8008  -17.8945 N   0  0  0  0  0  0  0  0  0  0  0  0
   21.2390   -7.0370  -16.7271 C   0  0  1  0  0  0  0  0  0  0  0  0
   22.1901   -7.2758  -15.6221 C   0  0  0  0  0  0  0  0  0  0  0  0
   22.1895   -8.6098  -15.0014 C   0  0  0  0  0  0  0  0  0  0  0  0
   21.4846   -9.7216  -15.3499 C   0  0  0  0  0  0  0  0  0  0  0  0
   21.8172  -10.7583  -14.5305 N   0  0  0  0  0  0  0  0  0  0  0  0
   22.7253  -10.2874  -13.6796 C   0  0  0  0  0  0  0  0  0  0  0  0
   22.9552   -9.0117  -13.9493 N   0  0  0  0  0  0  0  0  0  0  0  0
   21.0822   -5.5859  -17.0116 C   0  0  0  0  0  0  0  0  0  0  0  0
   21.9675   -4.9465  -17.6342 O   0  0  0  0  0  0  0  0  0  0  0  0
   18.2991   -2.1365  -18.3532 O   0  0  0  0  0  0  0  0  0  0  0  0
   18.5857   -3.4169  -17.9394 C   0  0  0  0  0  0  0  0  0  0  0  0
   19.7446   -3.4522  -16.9357 C   0  0  2  0  0  0  0  0  0  0  0  0
   19.9380   -4.8495  -16.6015 N   0  0  0  0  0  0  0  0  0  0  0  0
   19.3661   -2.6425  -15.7708 C   0  0  0  0  0  0  0  0  0  0  0  0
   19.6062   -1.2803  -15.7868 O   0  0  0  0  0  0  0  0  0  0  0  0
   18.8292   -3.1333  -14.7502 O   0  0  0  0  0  0  0  0  0  0  0  0
  2  1  1  6
  3  2  1  0
  4  5  1  0
  4  2  1  0
  5  6  1  1
  7  5  1  0
  7  8  2  0
  9  7  1  0
 10  9  1  0
 10 11  1  1
 12 16  1  0
 12 11  1  0
 13 12  2  0
 14 13  1  0
 14 15  1  0
 15 16  2  0
 17 10  1  0
 18 17  2  0
 20 19  1  0
 21 22  1  0
 21 20  1  6
 22 17  1  0
 23 21  1  0
 24 23  1  0
 25 23  2  0
M  END
$$$$
