LHS.pdb
     RDKit          3D

 25 25  0  0  1  0  0  0  0  0999 V2000
   18.3524  -10.0243  -21.5661 C   0  0  0  0  0  0  0  0  0  0  0  0
   17.9337  -11.1394  -20.6130 C   0  0  2  0  0  0  0  0  0  0  0  0
   16.6788  -11.7694  -21.1651 C   0  0  0  0  0  0  0  0  0  0  0  0
   17.7655  -10.6222  -19.2104 C   0  0  0  0  0  0  0  0  0  0  0  0
   19.0083   -9.9002  -18.7738 C   0  0  2  0  0  0  0  0  0  0  0  0
   20.0608  -10.8416  -18.4915 N   0  0  0  0  0  0  0  0  0  0  0  0
   18.7606   -9.0856  -17.5680 C   0  0  0  0  0  0  0  0  0  0  0  0
   17.8360   -9.3442  -16.7991 O   0  0  0  0  0  0  0  0  0  0  0  0
   19.6174   -7.9780  -17.2987 N   0  0  0  0  0  0  0  0  0  0  0  0
   19.5426   -7.2011  -16.1040 C   0  0  1  0  0  0  0  0  0  0  0  0
   20.8106   -7.1866  -15.3460 C   0  0  0  0  0  0  0  0  0  0  0  0
   21.2409   -8.4454  -14.7173 C   0  0  0  0  0  0  0  0  0  0  0  0
   20.6405   -9.6675  -14.7375 C   0  0  0  0  0  0  0  0  0  0  0  0
   21.4024  -10.5706  -14.0588 N   0  0  0  0  0  0  0  0  0  0  0  0
   22.4700   -9.9076  -13.6219 C   0  0  0  0  0  0  0  0  0  0  0  0
   22.3859   -8.6436  -14.0070 N   0  0  0  0  0  0  0  0  0  0  0  0
   19.0299   -5.8257  -16.3414 C   0  0  0  0  0  0  0  0  0  0  0  0
   19.3277   -5.1925  -17.3857 O   0  0  0  0  0  0  0  0  0  0  0  0
   15.8991   -2.4280  -14.7542 O   0  0  0  0  0  0  0  0  0  0  0  0
   16.5223   -3.6475  -14.6238 C   0  0  0  0  0  0  0  0  0  0  0  0
   17.6303   -3.8427  -15.6659 C   0  0  2  0  0  0  0  0  0  0  0  0
   18.1855   -5.1578  -15.4136 N   0  0  0  0  0  0  0  0  0  0  0  0
   18.6189   -2.7715  -15.4890 C   0  0  0  0  0  0  0  0  0  0  0  0
   18.4571   -1.5814  -16.1751 O   0  0  0  0  0  0  0  0  0  0  0  0
   19.6146   -2.8861  -14.7364 O   0  0  0  0  0  0  0  0  0  0  0  0
  2  1  1  6
  3  2  1  0
  4  5  1  0
  4  2  1  0
  5  6  1  1
  7  5  1  0
  7  8  2  0
  9  7  1  0
 10  9  1  0
 10 11  1  6
 12 16  1  0
 12 11  1  0
 13 12  2  0
 14 13  1  0
 14 15  1  0
 15 16  2  0
 17 10  1  0
 18 17  2  0
 20 19  1  0
 21 22  1  0
 21 20  1  1
 22 17  1  0
 23 21  1  0
 24 23  1  0
 25 23  2  0
M  END
$$$$
