LHS.pdb
     RDKit          3D

 25 25  0  0  1  0  0  0  0  0999 V2000
   22.6091  -25.0010  -15.5948 C   0  0  0  0  0  0  0  0  0  0  0  0
   21.1425  -24.7038  -15.8910 C   0  0  2  0  0  0  0  0  0  0  0  0
   21.0793  -23.9645  -17.2048 C   0  0  0  0  0  0  0  0  0  0  0  0
   20.5003  -23.9495  -14.7588 C   0  0  0  0  0  0  0  0  0  0  0  0
   20.5982  -24.7441  -13.4879 C   0  0  2  0  0  0  0  0  0  0  0  0
   20.3001  -26.1301  -13.7402 N   0  0  0  0  0  0  0  0  0  0  0  0
   19.6662  -24.2345  -12.4628 C   0  0  0  0  0  0  0  0  0  0  0  0
   19.5476  -23.0293  -12.2474 O   0  0  0  0  0  0  0  0  0  0  0  0
   18.8923  -25.1679  -11.7125 N   0  0  0  0  0  0  0  0  0  0  0  0
   17.9298  -24.7801  -10.7328 C   0  0  1  0  0  0  0  0  0  0  0  0
   16.5564  -24.7066  -11.2722 C   0  0  0  0  0  0  0  0  0  0  0  0
   15.4997  -24.2128  -10.3753 C   0  0  0  0  0  0  0  0  0  0  0  0
   15.6050  -23.7160   -9.1117 C   0  0  0  0  0  0  0  0  0  0  0  0
   14.3780  -23.3328   -8.6595 N   0  0  0  0  0  0  0  0  0  0  0  0
   13.5186  -23.5918   -9.6417 C   0  0  0  0  0  0  0  0  0  0  0  0
   14.1730  -24.1148  -10.6670 N   0  0  0  0  0  0  0  0  0  0  0  0
   17.9918  -25.6124   -9.5021 C   0  0  0  0  0  0  0  0  0  0  0  0
   17.9271  -26.8663   -9.5618 O   0  0  0  0  0  0  0  0  0  0  0  0
   17.7023  -23.7639   -5.8519 O   0  0  0  0  0  0  0  0  0  0  0  0
   18.4989  -24.8855   -5.8594 C   0  0  0  0  0  0  0  0  0  0  0  0
   18.1317  -25.8455   -6.9974 C   0  0  2  0  0  0  0  0  0  0  0  0
   18.1258  -25.0451   -8.2060 N   0  0  0  0  0  0  0  0  0  0  0  0
   16.8158  -26.4254   -6.7005 C   0  0  0  0  0  0  0  0  0  0  0  0
   15.7100  -25.9923   -7.4097 O   0  0  0  0  0  0  0  0  0  0  0  0
   16.6453  -27.3050   -5.8241 O   0  0  0  0  0  0  0  0  0  0  0  0
  2  1  1  1
  3  2  1  0
  4  5  1  0
  4  2  1  0
  5  6  1  6
  7  5  1  0
  7  8  2  0
  9  7  1  0
 10  9  1  0
 10 11  1  6
 12 16  1  0
 12 11  1  0
 13 12  2  0
 14 13  1  0
 14 15  1  0
 15 16  2  0
 17 10  1  0
 18 17  2  0
 20 19  1  0
 21 22  1  0
 21 20  1  1
 22 17  1  0
 23 21  1  0
 24 23  1  0
 25 23  2  0
M  END
$$$$
