LHS.pdb
     RDKit          3D

 25 25  0  0  1  0  0  0  0  0999 V2000
   26.6378  -16.2306  -19.2665 C   0  0  0  0  0  0  0  0  0  0  0  0
   25.9381  -17.3944  -19.9613 C   0  0  2  0  0  0  0  0  0  0  0  0
   24.9666  -16.8165  -20.9607 C   0  0  0  0  0  0  0  0  0  0  0  0
   25.2825  -18.3097  -18.9636 C   0  0  0  0  0  0  0  0  0  0  0  0
   26.3115  -18.8718  -18.0246 C   0  0  2  0  0  0  0  0  0  0  0  0
   27.2223  -19.7306  -18.7364 N   0  0  0  0  0  0  0  0  0  0  0  0
   25.6806  -19.6433  -16.9358 C   0  0  0  0  0  0  0  0  0  0  0  0
   25.2451  -20.7782  -17.1239 O   0  0  0  0  0  0  0  0  0  0  0  0
   25.5791  -19.0507  -15.6428 N   0  0  0  0  0  0  0  0  0  0  0  0
   24.9771  -19.7041  -14.5260 C   0  0  1  0  0  0  0  0  0  0  0  0
   25.5393  -19.2672  -13.2314 C   0  0  0  0  0  0  0  0  0  0  0  0
   25.0584  -19.9463  -12.0180 C   0  0  0  0  0  0  0  0  0  0  0  0
   24.1205  -20.9258  -11.8934 C   0  0  0  0  0  0  0  0  0  0  0  0
   24.0115  -21.3012  -10.5881 N   0  0  0  0  0  0  0  0  0  0  0  0
   24.8802  -20.5560   -9.9096 C   0  0  0  0  0  0  0  0  0  0  0  0
   25.5087  -19.7468  -10.7482 N   0  0  0  0  0  0  0  0  0  0  0  0
   23.4928  -19.6155  -14.5370 C   0  0  0  0  0  0  0  0  0  0  0  0
   22.9089  -18.5124  -14.6865 O   0  0  0  0  0  0  0  0  0  0  0  0
   21.0719  -22.4304  -16.1874 O   0  0  0  0  0  0  0  0  0  0  0  0
   20.7727  -22.1191  -14.8813 C   0  0  0  0  0  0  0  0  0  0  0  0
   21.2187  -20.6994  -14.5106 C   0  0  2  0  0  0  0  0  0  0  0  0
   22.6614  -20.7575  -14.3813 N   0  0  0  0  0  0  0  0  0  0  0  0
   20.5561  -20.3246  -13.2550 C   0  0  0  0  0  0  0  0  0  0  0  0
   19.1884  -20.1180  -13.2472 O   0  0  0  0  0  0  0  0  0  0  0  0
   21.1790  -20.1814  -12.1769 O   0  0  0  0  0  0  0  0  0  0  0  0
  2  1  1  1
  3  2  1  0
  4  5  1  0
  4  2  1  0
  5  6  1  6
  7  5  1  0
  7  8  2  0
  9  7  1  0
 10  9  1  0
 10 11  1  1
 12 16  1  0
 12 11  1  0
 13 12  2  0
 14 13  1  0
 14 15  1  0
 15 16  2  0
 17 10  1  0
 18 17  2  0
 20 19  1  0
 21 22  1  0
 21 20  1  1
 22 17  1  0
 23 21  1  0
 24 23  1  0
 25 23  2  0
M  END
$$$$
