WCM.pdb
     RDKit          3D

 29 30  0  0  1  0  0  0  0  0999 V2000
   19.0558  -19.9576  -15.3232 N   0  0  0  0  0  0  0  0  0  0  0  0
   20.4052  -19.6122  -15.7137 C   0  0  1  0  0  0  0  0  0  0  0  0
   20.7229  -18.1886  -15.8396 C   0  0  0  0  0  0  0  0  0  0  0  0
   20.1483  -17.3701  -16.8553 C   0  0  0  0  0  0  0  0  0  0  0  0
   19.3258  -16.2771  -16.6277 C   0  0  0  0  0  0  0  0  0  0  0  0
   18.9562  -15.7523  -17.7829 N   0  0  0  0  0  0  0  0  0  0  0  0
   19.4919  -16.4405  -18.8126 C   0  0  0  0  0  0  0  0  0  0  0  0
   19.4388  -16.3292  -20.1854 C   0  0  0  0  0  0  0  0  0  0  0  0
   20.1297  -17.2270  -20.9731 C   0  0  0  0  0  0  0  0  0  0  0  0
   20.8721  -18.2334  -20.3835 C   0  0  0  0  0  0  0  0  0  0  0  0
   20.9341  -18.3565  -19.0078 C   0  0  0  0  0  0  0  0  0  0  0  0
   20.2442  -17.4612  -18.2187 C   0  0  0  0  0  0  0  0  0  0  0  0
   21.4321  -20.4313  -15.0269 C   0  0  0  0  0  0  0  0  0  0  0  0
   21.2312  -20.6761  -13.8022 O   0  0  0  0  0  0  0  0  0  0  0  0
   22.6010  -20.9602  -15.6010 N   0  0  0  0  0  0  0  0  0  0  0  0
   23.6278  -21.6582  -14.8735 C   0  0  1  0  0  0  0  0  0  0  0  0
   23.8188  -22.9994  -15.5755 C   0  0  0  0  0  0  0  0  0  0  0  0
   24.9739  -23.9466  -14.5115 S   0  0  0  0  0  0  0  0  0  0  0  0
   24.8864  -20.8940  -14.7718 C   0  0  0  0  0  0  0  0  0  0  0  0
   25.1528  -20.0938  -15.7050 O   0  0  0  0  0  0  0  0  0  0  0  0
   25.1937  -20.1311   -9.0673 C   0  0  0  0  0  0  0  0  0  0  0  0
   25.6474  -20.7949  -10.6743 S   0  0  0  0  0  0  0  0  0  0  0  0
   27.3104  -20.3930  -11.1536 C   0  0  0  0  0  0  0  0  0  0  0  0
   27.7820  -20.8179  -12.4767 C   0  0  0  0  0  0  0  0  0  0  0  0
   27.1300  -20.3197  -13.7106 C   0  0  2  0  0  0  0  0  0  0  0  0
   25.8007  -20.9981  -13.7129 N   0  0  0  0  0  0  0  0  0  0  0  0
   27.8648  -20.7179  -14.9229 C   0  0  0  0  0  0  0  0  0  0  0  0
   27.8070  -21.8220  -15.4976 O   0  0  0  0  0  0  0  0  0  0  0  0
   28.7403  -19.7937  -15.5425 O   0  0  0  0  0  0  0  0  0  0  0  0
  2  3  1  0
  2  1  1  1
  2 13  1  0
  4  3  1  0
  4 12  1  0
  5  6  1  0
  5  4  2  0
  6  7  1  0
  7 12  2  0
  7  8  1  0
  8  9  2  0
  9 10  1  0
 11 10  2  0
 12 11  1  0
 13 14  2  0
 15 13  1  0
 15 16  1  0
 16 17  1  6
 18 17  1  0
 19 16  1  0
 19 20  2  0
 22 21  1  0
 23 22  1  0
 23 24  1  0
 25 24  1  1
 25 26  1  0
 25 27  1  0
 26 19  1  0
 27 29  1  0
 28 27  2  0
M  END
$$$$
