WCM.pdb
     RDKit          3D

 29 30  0  0  1  0  0  0  0  0999 V2000
   23.6829  -17.3522  -19.2932 N   0  0  0  0  0  0  0  0  0  0  0  0
   23.4862  -18.3806  -18.2951 C   0  0  1  0  0  0  0  0  0  0  0  0
   23.3697  -17.9481  -16.9012 C   0  0  0  0  0  0  0  0  0  0  0  0
   24.2878  -17.0302  -16.3125 C   0  0  0  0  0  0  0  0  0  0  0  0
   23.9665  -16.0938  -15.3416 C   0  0  0  0  0  0  0  0  0  0  0  0
   25.0431  -15.3953  -15.0259 N   0  0  0  0  0  0  0  0  0  0  0  0
   26.1082  -15.8107  -15.7428 C   0  0  0  0  0  0  0  0  0  0  0  0
   27.4350  -15.4432  -15.8097 C   0  0  0  0  0  0  0  0  0  0  0  0
   28.2845  -16.0974  -16.6782 C   0  0  0  0  0  0  0  0  0  0  0  0
   27.8027  -17.1179  -17.4769 C   0  0  0  0  0  0  0  0  0  0  0  0
   26.4741  -17.4967  -17.4199 C   0  0  0  0  0  0  0  0  0  0  0  0
   25.6234  -16.8442  -16.5535 C   0  0  0  0  0  0  0  0  0  0  0  0
   22.5157  -19.4178  -18.7188 C   0  0  0  0  0  0  0  0  0  0  0  0
   21.4171  -19.0031  -19.1890 O   0  0  0  0  0  0  0  0  0  0  0  0
   22.6965  -20.8100  -18.6499 N   0  0  0  0  0  0  0  0  0  0  0  0
   21.7555  -21.7836  -19.1370 C   0  0  1  0  0  0  0  0  0  0  0  0
   22.5615  -23.0371  -19.4647 C   0  0  0  0  0  0  0  0  0  0  0  0
   23.3453  -22.7022  -21.0885 S   0  0  0  0  0  0  0  0  0  0  0  0
   20.6587  -22.0543  -18.1871 C   0  0  0  0  0  0  0  0  0  0  0  0
   20.9300  -21.9960  -16.9603 O   0  0  0  0  0  0  0  0  0  0  0  0
   14.9779  -19.3691  -18.7670 C   0  0  0  0  0  0  0  0  0  0  0  0
   14.4569  -20.9622  -18.1194 S   0  0  0  0  0  0  0  0  0  0  0  0
   15.7942  -21.9111  -17.4353 C   0  0  0  0  0  0  0  0  0  0  0  0
   17.0884  -21.9007  -18.1272 C   0  0  0  0  0  0  0  0  0  0  0  0
   18.2544  -22.6229  -17.5662 C   0  0  2  0  0  0  0  0  0  0  0  0
   19.3427  -22.3706  -18.5558 N   0  0  0  0  0  0  0  0  0  0  0  0
   18.0183  -24.0740  -17.4844 C   0  0  0  0  0  0  0  0  0  0  0  0
   18.1576  -24.9023  -18.4048 O   0  0  0  0  0  0  0  0  0  0  0  0
   17.5884  -24.6425  -16.2611 O   0  0  0  0  0  0  0  0  0  0  0  0
  2  3  1  0
  2  1  1  6
  2 13  1  0
  4  3  1  0
  4 12  1  0
  5  6  1  0
  5  4  2  0
  6  7  1  0
  7 12  2  0
  7  8  1  0
  8  9  2  0
  9 10  1  0
 11 10  2  0
 12 11  1  0
 13 14  2  0
 15 13  1  0
 15 16  1  0
 16 17  1  1
 18 17  1  0
 19 16  1  0
 19 20  2  0
 22 21  1  0
 23 22  1  0
 23 24  1  0
 25 24  1  6
 25 26  1  0
 25 27  1  0
 26 19  1  0
 27 29  1  0
 28 27  2  0
M  END
$$$$
