WCM.pdb
     RDKit          3D

 29 30  0  0  1  0  0  0  0  0999 V2000
   26.5986  -19.3583  -16.3687 N   0  0  0  0  0  0  0  0  0  0  0  0
   26.8008  -19.2221  -14.9428 C   0  0  1  0  0  0  0  0  0  0  0  0
   26.7378  -17.8708  -14.3830 C   0  0  0  0  0  0  0  0  0  0  0  0
   27.2564  -16.7379  -15.0755 C   0  0  0  0  0  0  0  0  0  0  0  0
   26.8071  -15.4351  -14.9213 C   0  0  0  0  0  0  0  0  0  0  0  0
   27.4903  -14.6332  -15.7193 N   0  0  0  0  0  0  0  0  0  0  0  0
   28.4034  -15.3300  -16.4275 C   0  0  0  0  0  0  0  0  0  0  0  0
   29.3520  -15.0039  -17.3730 C   0  0  0  0  0  0  0  0  0  0  0  0
   30.1504  -15.9918  -17.9120 C   0  0  0  0  0  0  0  0  0  0  0  0
   29.9966  -17.3033  -17.5022 C   0  0  0  0  0  0  0  0  0  0  0  0
   29.0492  -17.6443  -16.5547 C   0  0  0  0  0  0  0  0  0  0  0  0
   28.2499  -16.6593  -16.0152 C   0  0  0  0  0  0  0  0  0  0  0  0
   26.0983  -20.2653  -14.1582 C   0  0  0  0  0  0  0  0  0  0  0  0
   25.2257  -20.9422  -14.7749 O   0  0  0  0  0  0  0  0  0  0  0  0
   26.3066  -20.5742  -12.8030 N   0  0  0  0  0  0  0  0  0  0  0  0
   25.4045  -21.3470  -11.9907 C   0  0  1  0  0  0  0  0  0  0  0  0
   26.0636  -21.4813  -10.6211 C   0  0  0  0  0  0  0  0  0  0  0  0
   26.0484  -19.7931   -9.9051 S   0  0  0  0  0  0  0  0  0  0  0  0
   24.0529  -20.7597  -11.9075 C   0  0  0  0  0  0  0  0  0  0  0  0
   23.9154  -19.5708  -12.2945 O   0  0  0  0  0  0  0  0  0  0  0  0
   19.4652  -19.1580  -16.4793 C   0  0  0  0  0  0  0  0  0  0  0  0
   20.7002  -18.9003  -15.1996 S   0  0  0  0  0  0  0  0  0  0  0  0
   20.5942  -20.0814  -13.8765 C   0  0  0  0  0  0  0  0  0  0  0  0
   21.6362  -20.0736  -12.8431 C   0  0  0  0  0  0  0  0  0  0  0  0
   21.5254  -20.9417  -11.6473 C   0  0  2  0  0  0  0  0  0  0  0  0
   22.9181  -21.4317  -11.4294 N   0  0  0  0  0  0  0  0  0  0  0  0
   20.6494  -22.1009  -11.8856 C   0  0  0  0  0  0  0  0  0  0  0  0
   19.4037  -22.1094  -11.8552 O   0  0  0  0  0  0  0  0  0  0  0  0
   21.2246  -23.3597  -12.1844 O   0  0  0  0  0  0  0  0  0  0  0  0
  2  3  1  0
  2  1  1  6
  2 13  1  0
  4  3  1  0
  4 12  1  0
  5  6  1  0
  5  4  2  0
  6  7  1  0
  7 12  2  0
  7  8  1  0
  8  9  2  0
  9 10  1  0
 11 10  2  0
 12 11  1  0
 13 14  2  0
 15 13  1  0
 15 16  1  0
 16 17  1  1
 18 17  1  0
 19 16  1  0
 19 20  2  0
 22 21  1  0
 23 22  1  0
 23 24  1  0
 25 24  1  6
 25 26  1  0
 25 27  1  0
 26 19  1  0
 27 29  1  0
 28 27  2  0
M  END
$$$$
