WCM.pdb
     RDKit          3D

 29 30  0  0  1  0  0  0  0  0999 V2000
   27.5512  -19.2999  -10.6733 N   0  0  0  0  0  0  0  0  0  0  0  0
   26.4596  -20.1397  -10.2306 C   0  0  1  0  0  0  0  0  0  0  0  0
   25.9961  -19.9656   -8.8529 C   0  0  0  0  0  0  0  0  0  0  0  0
   26.8692  -19.5496   -7.8057 C   0  0  0  0  0  0  0  0  0  0  0  0
   27.4737  -18.3046   -7.7193 C   0  0  0  0  0  0  0  0  0  0  0  0
   28.2293  -18.2529   -6.6363 N   0  0  0  0  0  0  0  0  0  0  0  0
   28.1747  -19.4197   -5.9606 C   0  0  0  0  0  0  0  0  0  0  0  0
   28.7476  -19.8964   -4.8011 C   0  0  0  0  0  0  0  0  0  0  0  0
   28.4690  -21.1793   -4.3762 C   0  0  0  0  0  0  0  0  0  0  0  0
   27.6173  -21.9808   -5.1136 C   0  0  0  0  0  0  0  0  0  0  0  0
   27.0359  -21.5152   -6.2785 C   0  0  0  0  0  0  0  0  0  0  0  0
   27.3131  -20.2341   -6.7054 C   0  0  0  0  0  0  0  0  0  0  0  0
   25.3884  -20.2763  -11.2460 C   0  0  0  0  0  0  0  0  0  0  0  0
   24.9058  -19.2006  -11.7043 O   0  0  0  0  0  0  0  0  0  0  0  0
   24.8598  -21.4785  -11.7471 N   0  0  0  0  0  0  0  0  0  0  0  0
   23.8429  -21.5665  -12.7615 C   0  0  1  0  0  0  0  0  0  0  0  0
   24.5053  -22.1957  -13.9837 C   0  0  0  0  0  0  0  0  0  0  0  0
   25.9954  -23.0521  -13.3439 S   0  0  0  0  0  0  0  0  0  0  0  0
   22.6501  -22.3163  -12.3217 C   0  0  0  0  0  0  0  0  0  0  0  0
   22.8411  -23.3624  -11.6499 O   0  0  0  0  0  0  0  0  0  0  0  0
   14.9854  -21.3379  -10.6089 C   0  0  0  0  0  0  0  0  0  0  0  0
   16.5602  -20.7468  -11.2410 S   0  0  0  0  0  0  0  0  0  0  0  0
   17.7616  -22.0395  -11.4467 C   0  0  0  0  0  0  0  0  0  0  0  0
   19.1269  -21.6731  -11.8410 C   0  0  0  0  0  0  0  0  0  0  0  0
   20.1425  -22.7161  -12.1179 C   0  0  2  0  0  0  0  0  0  0  0  0
   21.3260  -21.9453  -12.5998 N   0  0  0  0  0  0  0  0  0  0  0  0
   19.7127  -23.6361  -13.1841 C   0  0  0  0  0  0  0  0  0  0  0  0
   19.0712  -24.6944  -13.0383 O   0  0  0  0  0  0  0  0  0  0  0  0
   20.0319  -23.3398  -14.5313 O   0  0  0  0  0  0  0  0  0  0  0  0
  2  3  1  0
  2  1  1  6
  2 13  1  0
  4  3  1  0
  4 12  1  0
  5  6  1  0
  5  4  2  0
  6  7  1  0
  7 12  2  0
  7  8  1  0
  8  9  2  0
  9 10  1  0
 11 10  2  0
 12 11  1  0
 13 14  2  0
 15 13  1  0
 15 16  1  0
 16 17  1  6
 18 17  1  0
 19 16  1  0
 19 20  2  0
 22 21  1  0
 23 22  1  0
 23 24  1  0
 25 24  1  6
 25 26  1  0
 25 27  1  0
 26 19  1  0
 27 29  1  0
 28 27  2  0
M  END
$$$$
