WCM.pdb
     RDKit          3D

 29 30  0  0  1  0  0  0  0  0999 V2000
   27.8044  -20.1718  -11.5860 N   0  0  0  0  0  0  0  0  0  0  0  0
   26.7725  -21.1847  -11.5453 C   0  0  1  0  0  0  0  0  0  0  0  0
   26.2253  -21.5317  -10.2324 C   0  0  0  0  0  0  0  0  0  0  0  0
   26.7178  -20.9503   -9.0277 C   0  0  0  0  0  0  0  0  0  0  0  0
   25.9912  -20.1187   -8.1889 C   0  0  0  0  0  0  0  0  0  0  0  0
   26.7475  -19.7448   -7.1716 N   0  0  0  0  0  0  0  0  0  0  0  0
   27.9796  -20.2864   -7.2690 C   0  0  0  0  0  0  0  0  0  0  0  0
   29.1256  -20.2324   -6.5051 C   0  0  0  0  0  0  0  0  0  0  0  0
   30.2475  -20.9309   -6.9021 C   0  0  0  0  0  0  0  0  0  0  0  0
   30.2181  -21.6815   -8.0627 C   0  0  0  0  0  0  0  0  0  0  0  0
   29.0752  -21.7445   -8.8383 C   0  0  0  0  0  0  0  0  0  0  0  0
   27.9533  -21.0471   -8.4442 C   0  0  0  0  0  0  0  0  0  0  0  0
   25.7713  -21.0322  -12.6277 C   0  0  0  0  0  0  0  0  0  0  0  0
   25.6072  -19.8635  -13.0829 O   0  0  0  0  0  0  0  0  0  0  0  0
   24.9910  -22.0544  -13.1949 N   0  0  0  0  0  0  0  0  0  0  0  0
   24.0811  -21.8759  -14.2954 C   0  0  1  0  0  0  0  0  0  0  0  0
   24.1873  -23.1340  -15.1521 C   0  0  0  0  0  0  0  0  0  0  0  0
   24.0788  -24.5361  -13.9750 S   0  0  0  0  0  0  0  0  0  0  0  0
   22.6957  -21.6069  -13.8632 C   0  0  0  0  0  0  0  0  0  0  0  0
   22.3325  -22.0857  -12.7582 O   0  0  0  0  0  0  0  0  0  0  0  0
   19.2250  -16.1744  -15.6771 C   0  0  0  0  0  0  0  0  0  0  0  0
   18.0786  -17.5498  -15.8290 S   0  0  0  0  0  0  0  0  0  0  0  0
   18.5420  -18.9588  -14.8508 C   0  0  0  0  0  0  0  0  0  0  0  0
   19.9235  -19.4468  -14.9328 C   0  0  0  0  0  0  0  0  0  0  0  0
   20.3668  -20.6088  -14.1271 C   0  0  2  0  0  0  0  0  0  0  0  0
   21.7617  -20.8588  -14.5953 N   0  0  0  0  0  0  0  0  0  0  0  0
   19.5568  -21.8086  -14.3961 C   0  0  0  0  0  0  0  0  0  0  0  0
   19.7587  -22.6570  -15.2861 O   0  0  0  0  0  0  0  0  0  0  0  0
   18.4214  -22.0775  -13.5942 O   0  0  0  0  0  0  0  0  0  0  0  0
  2  3  1  0
  2  1  1  1
  2 13  1  0
  4  3  1  0
  4 12  1  0
  5  6  1  0
  5  4  2  0
  6  7  1  0
  7 12  2  0
  7  8  1  0
  8  9  2  0
  9 10  1  0
 11 10  2  0
 12 11  1  0
 13 14  2  0
 15 13  1  0
 15 16  1  0
 16 17  1  6
 18 17  1  0
 19 16  1  0
 19 20  2  0
 22 21  1  0
 23 22  1  0
 23 24  1  0
 25 24  1  6
 25 26  1  0
 25 27  1  0
 26 19  1  0
 27 29  1  0
 28 27  2  0
M  END
$$$$
