WCM.pdb
     RDKit          3D

 29 30  0  0  1  0  0  0  0  0999 V2000
   26.8870  -19.6110  -11.8117 N   0  0  0  0  0  0  0  0  0  0  0  0
   26.3806  -20.9652  -11.7634 C   0  0  1  0  0  0  0  0  0  0  0  0
   26.0413  -21.5072  -10.4464 C   0  0  0  0  0  0  0  0  0  0  0  0
   26.6600  -21.0384   -9.2508 C   0  0  0  0  0  0  0  0  0  0  0  0
   25.9879  -20.5003   -8.1637 C   0  0  0  0  0  0  0  0  0  0  0  0
   26.8584  -20.1536   -7.2317 N   0  0  0  0  0  0  0  0  0  0  0  0
   28.1179  -20.4306   -7.6288 C   0  0  0  0  0  0  0  0  0  0  0  0
   29.3672  -20.2808   -7.0659 C   0  0  0  0  0  0  0  0  0  0  0  0
   30.4866  -20.6841   -7.7647 C   0  0  0  0  0  0  0  0  0  0  0  0
   30.3515  -21.2364   -9.0249 C   0  0  0  0  0  0  0  0  0  0  0  0
   29.1045  -21.3924   -9.6014 C   0  0  0  0  0  0  0  0  0  0  0  0
   27.9847  -20.9897   -8.9056 C   0  0  0  0  0  0  0  0  0  0  0  0
   25.4008  -21.2534  -12.8377 C   0  0  0  0  0  0  0  0  0  0  0  0
   24.4595  -20.4205  -12.9802 O   0  0  0  0  0  0  0  0  0  0  0  0
   25.4161  -22.3560  -13.7092 N   0  0  0  0  0  0  0  0  0  0  0  0
   24.4407  -22.6003  -14.7387 C   0  0  1  0  0  0  0  0  0  0  0  0
   24.9167  -23.8334  -15.5010 C   0  0  0  0  0  0  0  0  0  0  0  0
   25.0402  -25.1649  -14.2459 S   0  0  0  0  0  0  0  0  0  0  0  0
   23.0711  -22.7604  -14.2122 C   0  0  0  0  0  0  0  0  0  0  0  0
   22.9427  -23.3446  -13.1056 O   0  0  0  0  0  0  0  0  0  0  0  0
   19.0038  -19.7350  -10.5518 C   0  0  0  0  0  0  0  0  0  0  0  0
   19.9767  -18.9990  -11.8713 S   0  0  0  0  0  0  0  0  0  0  0  0
   20.1161  -20.0413  -13.3034 C   0  0  0  0  0  0  0  0  0  0  0  0
   20.6075  -21.4130  -13.1284 C   0  0  0  0  0  0  0  0  0  0  0  0
   20.5514  -22.3871  -14.2437 C   0  0  2  0  0  0  0  0  0  0  0  0
   21.9098  -22.3090  -14.8568 N   0  0  0  0  0  0  0  0  0  0  0  0
   19.5535  -22.0084  -15.2580 C   0  0  0  0  0  0  0  0  0  0  0  0
   19.7827  -21.4966  -16.3708 O   0  0  0  0  0  0  0  0  0  0  0  0
   18.1785  -22.2245  -14.9981 O   0  0  0  0  0  0  0  0  0  0  0  0
  2  3  1  0
  2  1  1  1
  2 13  1  0
  4  3  1  0
  4 12  1  0
  5  6  1  0
  5  4  2  0
  6  7  1  0
  7 12  2  0
  7  8  1  0
  8  9  2  0
  9 10  1  0
 11 10  2  0
 12 11  1  0
 13 14  2  0
 15 13  1  0
 15 16  1  0
 16 17  1  1
 18 17  1  0
 19 16  1  0
 19 20  2  0
 22 21  1  0
 23 22  1  0
 23 24  1  0
 25 24  1  1
 25 26  1  0
 25 27  1  0
 26 19  1  0
 27 29  1  0
 28 27  2  0
M  END
$$$$
