WCM.pdb
     RDKit          3D

 29 30  0  0  1  0  0  0  0  0999 V2000
   26.6662  -21.9304  -12.6984 N   0  0  0  0  0  0  0  0  0  0  0  0
   25.8179  -21.3887  -11.6594 C   0  0  1  0  0  0  0  0  0  0  0  0
   26.4212  -20.4265  -10.7354 C   0  0  0  0  0  0  0  0  0  0  0  0
   27.5768  -20.7398   -9.9617 C   0  0  0  0  0  0  0  0  0  0  0  0
   28.7285  -21.3345  -10.4543 C   0  0  0  0  0  0  0  0  0  0  0  0
   29.5980  -21.4975   -9.4724 N   0  0  0  0  0  0  0  0  0  0  0  0
   29.0945  -21.0370   -8.3083 C   0  0  0  0  0  0  0  0  0  0  0  0
   29.5605  -20.9597   -7.0134 C   0  0  0  0  0  0  0  0  0  0  0  0
   28.7640  -20.4097   -6.0300 C   0  0  0  0  0  0  0  0  0  0  0  0
   27.5033  -19.9385   -6.3465 C   0  0  0  0  0  0  0  0  0  0  0  0
   27.0234  -20.0099   -7.6412 C   0  0  0  0  0  0  0  0  0  0  0  0
   27.8170  -20.5595   -8.6253 C   0  0  0  0  0  0  0  0  0  0  0  0
   24.4637  -21.0342  -12.1466 C   0  0  0  0  0  0  0  0  0  0  0  0
   24.2148  -19.8003  -12.2717 O   0  0  0  0  0  0  0  0  0  0  0  0
   23.4346  -21.9310  -12.4821 N   0  0  0  0  0  0  0  0  0  0  0  0
   22.1341  -21.5436  -12.9611 C   0  0  1  0  0  0  0  0  0  0  0  0
   22.1439  -21.7713  -14.4698 C   0  0  0  0  0  0  0  0  0  0  0  0
   23.1603  -20.4106  -15.1616 S   0  0  0  0  0  0  0  0  0  0  0  0
   21.0329  -22.2638  -12.2923 C   0  0  0  0  0  0  0  0  0  0  0  0
   21.3171  -23.3436  -11.7132 O   0  0  0  0  0  0  0  0  0  0  0  0
   14.6210  -20.0924  -12.6639 C   0  0  0  0  0  0  0  0  0  0  0  0
   14.8419  -20.8406  -11.0452 S   0  0  0  0  0  0  0  0  0  0  0  0
   16.1752  -22.0137  -10.9922 C   0  0  0  0  0  0  0  0  0  0  0  0
   17.4716  -21.6296  -11.5628 C   0  0  0  0  0  0  0  0  0  0  0  0
   18.6163  -22.5705  -11.5470 C   0  0  2  0  0  0  0  0  0  0  0  0
   19.6992  -21.8300  -12.2584 N   0  0  0  0  0  0  0  0  0  0  0  0
   18.3244  -23.8079  -12.2899 C   0  0  0  0  0  0  0  0  0  0  0  0
   18.4323  -23.9792  -13.5194 O   0  0  0  0  0  0  0  0  0  0  0  0
   17.8721  -24.9518  -11.5888 O   0  0  0  0  0  0  0  0  0  0  0  0
  2  3  1  0
  2  1  1  6
  2 13  1  0
  4  3  1  0
  4 12  1  0
  5  6  1  0
  5  4  2  0
  6  7  1  0
  7 12  2  0
  7  8  1  0
  8  9  2  0
  9 10  1  0
 11 10  2  0
 12 11  1  0
 13 14  2  0
 15 13  1  0
 15 16  1  0
 16 17  1  6
 18 17  1  0
 19 16  1  0
 19 20  2  0
 22 21  1  0
 23 22  1  0
 23 24  1  0
 25 24  1  6
 25 26  1  0
 25 27  1  0
 26 19  1  0
 27 29  1  0
 28 27  2  0
M  END
$$$$
