PSY.pdb
     RDKit          3D

 26 27  0  0  1  0  0  0  0  0999 V2000
    9.4118  -14.1829   19.2396 N   0  0  0  0  0  0  0  0  0  0  0  0
    9.0702  -13.3649   18.0572 C   0  0  0  0  0  0  0  0  0  0  0  0
    7.5436  -13.5032   18.1394 C   0  0  0  0  0  0  0  0  0  0  0  0
    7.3048  -13.1595   19.5873 C   0  0  0  0  0  0  0  0  0  0  0  0
    8.5379  -13.7076   20.2686 C   0  0  1  0  0  0  0  0  0  0  0  0
    8.1204  -14.7251   21.2569 C   0  0  0  0  0  0  0  0  0  0  0  0
    7.2163  -14.4558   22.1255 O   0  0  0  0  0  0  0  0  0  0  0  0
    8.3110  -19.2354   22.9306 O   0  0  0  0  0  0  0  0  0  0  0  0
    8.7087  -18.3211   21.9639 C   0  0  0  0  0  0  0  0  0  0  0  0
    8.3195  -16.9152   22.3856 C   0  0  2  0  0  0  0  0  0  0  0  0
    8.6812  -16.0281   21.3037 N   0  0  0  0  0  0  0  0  0  0  0  0
    9.0030  -16.5393   23.6499 C   0  0  0  0  0  0  0  0  0  0  0  0
   10.1493  -16.0450   23.6021 O   0  0  0  0  0  0  0  0  0  0  0  0
    6.3882  -10.6465   25.9255 O   0  0  0  0  0  0  0  0  0  0  0  0
    6.7398  -11.9710   26.2034 C   0  0  0  0  0  0  0  0  0  0  0  0
    5.8341  -13.0039   26.0543 C   0  0  0  0  0  0  0  0  0  0  0  0
    6.1757  -14.3114   26.3269 C   0  0  0  0  0  0  0  0  0  0  0  0
    7.4360  -14.6059   26.7553 C   0  0  0  0  0  0  0  0  0  0  0  0
    7.8523  -15.9787   27.0659 C   0  0  0  0  0  0  0  0  0  0  0  0
    8.9675  -16.3938   26.1333 C   0  0  2  0  0  0  0  0  0  0  0  0
    8.3203  -16.7590   24.8666 N   0  0  0  0  0  0  0  0  0  0  0  0
    9.7170  -17.5720   26.5929 C   0  0  0  0  0  0  0  0  0  0  0  0
   10.6634  -17.5032   27.5993 O   0  0  0  0  0  0  0  0  0  0  0  0
    8.3627  -13.5971   26.9139 C   0  0  0  0  0  0  0  0  0  0  0  0
    8.0011  -12.3130   26.6380 C   0  0  0  0  0  0  0  0  0  0  0  0
    9.5113  -18.6910   26.0721 O   0  0  0  0  0  0  0  0  0  0  0  0
  1  2  1  0
  3  2  1  0
  4  3  1  0
  4  5  1  0
  5  6  1  1
  5  1  1  0
  6  7  2  0
 10  9  1  6
  9  8  1  0
 11  6  1  0
 11 10  1  0
 12 10  1  0
 12 21  1  0
 13 12  2  0
 15 14  1  0
 16 15  2  0
 17 16  1  0
 18 24  1  0
 18 17  2  0
 19 18  1  0
 20 21  1  0
 20 19  1  1
 22 20  1  0
 23 22  1  0
 24 25  2  0
 25 15  1  0
 26 22  2  0
M  END
$$$$
