PSY.pdb
     RDKit          3D

 26 27  0  0  1  0  0  0  0  0999 V2000
    8.8151  -15.0840   17.9388 N   0  0  0  0  0  0  0  0  0  0  0  0
    8.4833  -14.6678   16.5601 C   0  0  0  0  0  0  0  0  0  0  0  0
    7.3637  -13.6753   16.9036 C   0  0  0  0  0  0  0  0  0  0  0  0
    8.0343  -12.8485   17.9705 C   0  0  0  0  0  0  0  0  0  0  0  0
    8.9181  -13.8570   18.6684 C   0  0  1  0  0  0  0  0  0  0  0  0
    8.5162  -13.9362   20.0892 C   0  0  0  0  0  0  0  0  0  0  0  0
    8.5724  -12.8980   20.8400 O   0  0  0  0  0  0  0  0  0  0  0  0
    6.4408  -17.1190   21.9496 O   0  0  0  0  0  0  0  0  0  0  0  0
    6.4014  -15.7732   22.2898 C   0  0  0  0  0  0  0  0  0  0  0  0
    7.7747  -15.1504   22.1105 C   0  0  2  0  0  0  0  0  0  0  0  0
    8.0564  -15.1354   20.6933 N   0  0  0  0  0  0  0  0  0  0  0  0
    8.8005  -15.9187   22.8617 C   0  0  0  0  0  0  0  0  0  0  0  0
    8.9870  -17.1227   22.5855 O   0  0  0  0  0  0  0  0  0  0  0  0
    6.2506  -10.9225   27.5270 O   0  0  0  0  0  0  0  0  0  0  0  0
    6.6882  -12.1625   27.0516 C   0  0  0  0  0  0  0  0  0  0  0  0
    5.7946  -13.1366   26.6488 C   0  0  0  0  0  0  0  0  0  0  0  0
    6.2210  -14.3607   26.1794 C   0  0  0  0  0  0  0  0  0  0  0  0
    7.5555  -14.6294   26.1061 C   0  0  0  0  0  0  0  0  0  0  0  0
    8.0652  -15.9173   25.6204 C   0  0  0  0  0  0  0  0  0  0  0  0
    9.5212  -15.7751   25.2386 C   0  0  2  0  0  0  0  0  0  0  0  0
    9.5301  -15.2480   23.8679 N   0  0  0  0  0  0  0  0  0  0  0  0
   10.2559  -17.0483   25.2186 C   0  0  0  0  0  0  0  0  0  0  0  0
    9.8058  -18.1538   24.5196 O   0  0  0  0  0  0  0  0  0  0  0  0
    8.4723  -13.6778   26.5006 C   0  0  0  0  0  0  0  0  0  0  0  0
    8.0262  -12.4758   26.9607 C   0  0  0  0  0  0  0  0  0  0  0  0
   11.3309  -17.1643   25.8482 O   0  0  0  0  0  0  0  0  0  0  0  0
  1  2  1  0
  3  2  1  0
  4  3  1  0
  4  5  1  0
  5  6  1  1
  5  1  1  0
  6  7  2  0
 10  9  1  6
  9  8  1  0
 11  6  1  0
 11 10  1  0
 12 10  1  0
 12 21  1  0
 13 12  2  0
 15 14  1  0
 16 15  2  0
 17 16  1  0
 18 24  1  0
 18 17  2  0
 19 18  1  0
 20 21  1  0
 20 19  1  6
 22 20  1  0
 23 22  1  0
 24 25  2  0
 25 15  1  0
 26 22  2  0
M  END
$$$$
