PSY.pdb
     RDKit          3D

 26 27  0  0  1  0  0  0  0  0999 V2000
    9.1269  -14.3262   18.7649 N   0  0  0  0  0  0  0  0  0  0  0  0
    8.8114  -13.4818   17.5938 C   0  0  0  0  0  0  0  0  0  0  0  0
    7.3548  -13.1578   17.9541 C   0  0  0  0  0  0  0  0  0  0  0  0
    7.5084  -12.7127   19.3858 C   0  0  0  0  0  0  0  0  0  0  0  0
    8.6410  -13.5802   19.8856 C   0  0  1  0  0  0  0  0  0  0  0  0
    8.1494  -14.3959   21.0168 C   0  0  0  0  0  0  0  0  0  0  0  0
    7.6205  -13.8351   22.0417 O   0  0  0  0  0  0  0  0  0  0  0  0
    8.8983  -18.4945   21.5316 O   0  0  0  0  0  0  0  0  0  0  0  0
    7.6233  -17.9997   21.7727 C   0  0  0  0  0  0  0  0  0  0  0  0
    7.6993  -16.5359   22.1691 C   0  0  2  0  0  0  0  0  0  0  0  0
    8.2317  -15.8127   21.0370 N   0  0  0  0  0  0  0  0  0  0  0  0
    8.5498  -16.3630   23.3748 C   0  0  0  0  0  0  0  0  0  0  0  0
    9.7555  -16.0669   23.2356 O   0  0  0  0  0  0  0  0  0  0  0  0
    6.1587  -10.5908   26.0101 O   0  0  0  0  0  0  0  0  0  0  0  0
    6.5764  -11.9050   26.2417 C   0  0  0  0  0  0  0  0  0  0  0  0
    7.8972  -12.2040   26.5167 C   0  0  0  0  0  0  0  0  0  0  0  0
    8.3141  -13.4979   26.7458 C   0  0  0  0  0  0  0  0  0  0  0  0
    7.4100  -14.5174   26.7026 C   0  0  0  0  0  0  0  0  0  0  0  0
    7.7991  -15.9139   26.9324 C   0  0  0  0  0  0  0  0  0  0  0  0
    8.7616  -16.3563   25.8537 C   0  0  2  0  0  0  0  0  0  0  0  0
    7.9528  -16.5428   24.6420 N   0  0  0  0  0  0  0  0  0  0  0  0
    9.4207  -17.6395   26.1371 C   0  0  0  0  0  0  0  0  0  0  0  0
   10.4803  -17.7505   27.0191 O   0  0  0  0  0  0  0  0  0  0  0  0
    6.0845  -14.2513   26.4308 C   0  0  0  0  0  0  0  0  0  0  0  0
    5.6971  -12.9645   26.2080 C   0  0  0  0  0  0  0  0  0  0  0  0
    9.0290  -18.6858   25.5736 O   0  0  0  0  0  0  0  0  0  0  0  0
  1  2  1  0
  3  2  1  0
  4  3  1  0
  4  5  1  0
  5  6  1  1
  5  1  1  0
  6  7  2  0
 10  9  1  6
  9  8  1  0
 11  6  1  0
 11 10  1  0
 12 10  1  0
 12 21  1  0
 13 12  2  0
 15 14  1  0
 16 15  2  0
 17 16  1  0
 18 24  1  0
 18 17  2  0
 19 18  1  0
 20 21  1  0
 20 19  1  1
 22 20  1  0
 23 22  1  0
 24 25  2  0
 25 15  1  0
 26 22  2  0
M  END
$$$$
