PSY.pdb
     RDKit          3D

 26 27  0  0  1  0  0  0  0  0999 V2000
    9.3345  -14.4435   19.0520 N   0  0  0  0  0  0  0  0  0  0  0  0
    9.0578  -13.6057   17.8664 C   0  0  0  0  0  0  0  0  0  0  0  0
    7.5600  -13.3782   18.1144 C   0  0  0  0  0  0  0  0  0  0  0  0
    7.5739  -12.9425   19.5572 C   0  0  0  0  0  0  0  0  0  0  0  0
    8.7171  -13.7437   20.1371 C   0  0  1  0  0  0  0  0  0  0  0  0
    8.1922  -14.6028   21.2201 C   0  0  0  0  0  0  0  0  0  0  0  0
    7.5531  -14.0890   22.2061 O   0  0  0  0  0  0  0  0  0  0  0  0
    9.2472  -18.6002   21.6860 O   0  0  0  0  0  0  0  0  0  0  0  0
    7.9403  -18.2380   21.9850 C   0  0  0  0  0  0  0  0  0  0  0  0
    7.8815  -16.7698   22.3679 C   0  0  2  0  0  0  0  0  0  0  0  0
    8.3600  -16.0121   21.2344 N   0  0  0  0  0  0  0  0  0  0  0  0
    8.6998  -16.5114   23.5805 C   0  0  0  0  0  0  0  0  0  0  0  0
    9.8835  -16.1334   23.4507 O   0  0  0  0  0  0  0  0  0  0  0  0
    6.0825  -10.7501   25.9040 O   0  0  0  0  0  0  0  0  0  0  0  0
    6.5111  -12.0493   26.1932 C   0  0  0  0  0  0  0  0  0  0  0  0
    5.7206  -13.1481   25.9151 C   0  0  0  0  0  0  0  0  0  0  0  0
    6.1385  -14.4309   26.1983 C   0  0  0  0  0  0  0  0  0  0  0  0
    7.3605  -14.6340   26.7674 C   0  0  0  0  0  0  0  0  0  0  0  0
    7.8534  -15.9769   27.0959 C   0  0  0  0  0  0  0  0  0  0  0  0
    8.8657  -16.4129   26.0610 C   0  0  2  0  0  0  0  0  0  0  0  0
    8.0985  -16.7062   24.8435 N   0  0  0  0  0  0  0  0  0  0  0  0
    9.5921  -17.6390   26.4219 C   0  0  0  0  0  0  0  0  0  0  0  0
   10.6105  -17.6498   27.3578 O   0  0  0  0  0  0  0  0  0  0  0  0
    8.1727  -13.5578   27.0570 C   0  0  0  0  0  0  0  0  0  0  0  0
    7.7374  -12.2998   26.7676 C   0  0  0  0  0  0  0  0  0  0  0  0
    9.2991  -18.7270   25.8779 O   0  0  0  0  0  0  0  0  0  0  0  0
  1  2  1  0
  3  2  1  0
  4  3  1  0
  4  5  1  0
  5  6  1  1
  5  1  1  0
  6  7  2  0
 10  9  1  6
  9  8  1  0
 11  6  1  0
 11 10  1  0
 12 10  1  0
 12 21  1  0
 13 12  2  0
 15 14  1  0
 16 15  2  0
 17 16  1  0
 18 24  1  0
 18 17  2  0
 19 18  1  0
 20 21  1  0
 20 19  1  1
 22 20  1  0
 23 22  1  0
 24 25  2  0
 25 15  1  0
 26 22  2  0
M  END
$$$$
