PSY.pdb
     RDKit          3D

 26 27  0  0  1  0  0  0  0  0999 V2000
    8.8805  -14.8036   17.9048 N   0  0  0  0  0  0  0  0  0  0  0  0
    8.4609  -14.0090   16.7315 C   0  0  0  0  0  0  0  0  0  0  0  0
    7.1798  -13.4110   17.3294 C   0  0  0  0  0  0  0  0  0  0  0  0
    7.6965  -12.8915   18.6465 C   0  0  0  0  0  0  0  0  0  0  0  0
    8.7610  -13.9016   19.0095 C   0  0  1  0  0  0  0  0  0  0  0  0
    8.3974  -14.5311   20.2972 C   0  0  0  0  0  0  0  0  0  0  0  0
    8.1980  -13.8114   21.3397 O   0  0  0  0  0  0  0  0  0  0  0  0
    8.8395  -18.5773   21.4012 O   0  0  0  0  0  0  0  0  0  0  0  0
    7.6051  -17.9571   21.5421 C   0  0  0  0  0  0  0  0  0  0  0  0
    7.7915  -16.4605   21.7186 C   0  0  2  0  0  0  0  0  0  0  0  0
    8.2514  -15.9342   20.4538 N   0  0  0  0  0  0  0  0  0  0  0  0
    8.7586  -16.1780   22.8102 C   0  0  0  0  0  0  0  0  0  0  0  0
    9.9700  -16.0453   22.5352 O   0  0  0  0  0  0  0  0  0  0  0  0
   11.4740  -14.5295   30.9848 O   0  0  0  0  0  0  0  0  0  0  0  0
   10.6993  -14.6842   29.8311 C   0  0  0  0  0  0  0  0  0  0  0  0
   10.5155  -13.6432   28.9411 C   0  0  0  0  0  0  0  0  0  0  0  0
    9.7527  -13.7905   27.8022 C   0  0  0  0  0  0  0  0  0  0  0  0
    9.1592  -14.9887   27.5361 C   0  0  0  0  0  0  0  0  0  0  0  0
    8.3317  -15.1999   26.3423 C   0  0  0  0  0  0  0  0  0  0  0  0
    9.1867  -15.7501   25.2234 C   0  0  2  0  0  0  0  0  0  0  0  0
    8.2622  -16.0702   24.1280 N   0  0  0  0  0  0  0  0  0  0  0  0
    9.8924  -16.9918   25.5722 C   0  0  0  0  0  0  0  0  0  0  0  0
    9.2715  -18.2277   25.5561 O   0  0  0  0  0  0  0  0  0  0  0  0
    9.3238  -16.0468   28.4049 C   0  0  0  0  0  0  0  0  0  0  0  0
   10.0824  -15.8764   29.5235 C   0  0  0  0  0  0  0  0  0  0  0  0
   11.0996  -16.9586   25.8994 O   0  0  0  0  0  0  0  0  0  0  0  0
  1  2  1  0
  3  2  1  0
  4  3  1  0
  4  5  1  0
  5  6  1  1
  5  1  1  0
  6  7  2  0
 10  9  1  6
  9  8  1  0
 11  6  1  0
 11 10  1  0
 12 10  1  0
 12 21  1  0
 13 12  2  0
 15 14  1  0
 16 15  2  0
 17 16  1  0
 18 24  1  0
 18 17  2  0
 19 18  1  0
 20 21  1  0
 20 19  1  1
 22 20  1  0
 23 22  1  0
 24 25  2  0
 25 15  1  0
 26 22  2  0
M  END
$$$$
