PSY.pdb
     RDKit          3D

 26 27  0  0  1  0  0  0  0  0999 V2000
    7.3855  -14.3350   19.1638 N   0  0  0  0  0  0  0  0  0  0  0  0
    7.3006  -12.8839   18.8970 C   0  0  0  0  0  0  0  0  0  0  0  0
    7.8638  -12.3901   20.2370 C   0  0  0  0  0  0  0  0  0  0  0  0
    9.1126  -13.2270   20.3459 C   0  0  0  0  0  0  0  0  0  0  0  0
    8.7026  -14.5259   19.6904 C   0  0  1  0  0  0  0  0  0  0  0  0
    8.8307  -15.6171   20.6800 C   0  0  0  0  0  0  0  0  0  0  0  0
    8.5592  -16.8271   20.3529 O   0  0  0  0  0  0  0  0  0  0  0  0
   11.6654  -16.9121   22.2123 O   0  0  0  0  0  0  0  0  0  0  0  0
   10.3977  -17.4783   22.2376 C   0  0  0  0  0  0  0  0  0  0  0  0
    9.4164  -16.5286   22.9017 C   0  0  2  0  0  0  0  0  0  0  0  0
    9.2503  -15.3975   22.0179 N   0  0  0  0  0  0  0  0  0  0  0  0
    9.9155  -16.1085   24.2363 C   0  0  0  0  0  0  0  0  0  0  0  0
   10.8507  -15.2833   24.3078 O   0  0  0  0  0  0  0  0  0  0  0  0
    6.1328  -10.8167   26.3814 O   0  0  0  0  0  0  0  0  0  0  0  0
    6.6772  -12.0796   26.6343 C   0  0  0  0  0  0  0  0  0  0  0  0
    8.0403  -12.3006   26.5829 C   0  0  0  0  0  0  0  0  0  0  0  0
    8.5820  -13.5437   26.8314 C   0  0  0  0  0  0  0  0  0  0  0  0
    7.7627  -14.5898   27.1364 C   0  0  0  0  0  0  0  0  0  0  0  0
    8.2843  -15.9355   27.4038 C   0  0  0  0  0  0  0  0  0  0  0  0
    9.6138  -16.1121   26.7059 C   0  0  2  0  0  0  0  0  0  0  0  0
    9.3047  -16.6659   25.3813 N   0  0  0  0  0  0  0  0  0  0  0  0
   10.5127  -17.0636   27.3749 C   0  0  0  0  0  0  0  0  0  0  0  0
   10.9263  -18.2401   26.7765 O   0  0  0  0  0  0  0  0  0  0  0  0
    6.3980  -14.4012   27.1954 C   0  0  0  0  0  0  0  0  0  0  0  0
    5.8868  -13.1634   26.9460 C   0  0  0  0  0  0  0  0  0  0  0  0
   10.9347  -16.8258   28.5286 O   0  0  0  0  0  0  0  0  0  0  0  0
  1  2  1  0
  3  2  1  0
  4  3  1  0
  4  5  1  0
  5  6  1  1
  5  1  1  0
  6  7  2  0
 10  9  1  6
  9  8  1  0
 11  6  1  0
 11 10  1  0
 12 10  1  0
 12 21  1  0
 13 12  2  0
 15 14  1  0
 16 15  2  0
 17 16  1  0
 18 24  1  0
 18 17  2  0
 19 18  1  0
 20 21  1  0
 20 19  1  1
 22 20  1  0
 23 22  1  0
 24 25  2  0
 25 15  1  0
 26 22  2  0
M  END
$$$$
