PSY.pdb
     RDKit          3D

 26 27  0  0  1  0  0  0  0  0999 V2000
    9.1216  -14.3740   17.7938 N   0  0  0  0  0  0  0  0  0  0  0  0
    8.6661  -13.5587   16.6484 C   0  0  0  0  0  0  0  0  0  0  0  0
    7.2452  -13.2660   17.1502 C   0  0  0  0  0  0  0  0  0  0  0  0
    7.5309  -12.7920   18.5521 C   0  0  0  0  0  0  0  0  0  0  0  0
    8.7316  -13.6212   18.9469 C   0  0  1  0  0  0  0  0  0  0  0  0
    8.3796  -14.4291   20.1342 C   0  0  0  0  0  0  0  0  0  0  0  0
    8.0472  -13.8590   21.2338 O   0  0  0  0  0  0  0  0  0  0  0  0
    9.4369  -18.3786   20.7150 O   0  0  0  0  0  0  0  0  0  0  0  0
    8.1246  -18.0452   21.0234 C   0  0  0  0  0  0  0  0  0  0  0  0
    8.0230  -16.5619   21.3319 C   0  0  2  0  0  0  0  0  0  0  0  0
    8.3888  -15.8484   20.1297 N   0  0  0  0  0  0  0  0  0  0  0  0
    8.9075  -16.2015   22.4696 C   0  0  0  0  0  0  0  0  0  0  0  0
   10.0542  -15.7631   22.2381 O   0  0  0  0  0  0  0  0  0  0  0  0
   11.1831  -14.5410   30.7593 O   0  0  0  0  0  0  0  0  0  0  0  0
   10.4764  -14.7716   29.5750 C   0  0  0  0  0  0  0  0  0  0  0  0
   10.0266  -16.0340   29.2379 C   0  0  0  0  0  0  0  0  0  0  0  0
    9.3295  -16.2667   28.0715 C   0  0  0  0  0  0  0  0  0  0  0  0
    9.0712  -15.2335   27.2205 C   0  0  0  0  0  0  0  0  0  0  0  0
    8.3392  -15.4247   25.9627 C   0  0  0  0  0  0  0  0  0  0  0  0
    9.2605  -16.0269   24.9262 C   0  0  2  0  0  0  0  0  0  0  0  0
    8.4093  -16.3717   23.7802 N   0  0  0  0  0  0  0  0  0  0  0  0
    9.9186  -17.2657   25.3661 C   0  0  0  0  0  0  0  0  0  0  0  0
   11.1786  -17.2744   25.9365 O   0  0  0  0  0  0  0  0  0  0  0  0
    9.5068  -13.9619   27.5288 C   0  0  0  0  0  0  0  0  0  0  0  0
   10.1935  -13.7574   28.6873 C   0  0  0  0  0  0  0  0  0  0  0  0
    9.3403  -18.3672   25.2315 O   0  0  0  0  0  0  0  0  0  0  0  0
  1  2  1  0
  3  2  1  0
  4  3  1  0
  4  5  1  0
  5  6  1  1
  5  1  1  0
  6  7  2  0
 10  9  1  6
  9  8  1  0
 11  6  1  0
 11 10  1  0
 12 10  1  0
 12 21  1  0
 13 12  2  0
 15 14  1  0
 16 15  2  0
 17 16  1  0
 18 24  1  0
 18 17  2  0
 19 18  1  0
 20 21  1  0
 20 19  1  1
 22 20  1  0
 23 22  1  0
 24 25  2  0
 25 15  1  0
 26 22  2  0
M  END
$$$$
