SVY.pdb
     RDKit          3D

 26 26  0  0  1  0  0  0  0  0999 V2000
   12.8051   -8.4299  -13.9899 O   0  0  0  0  0  0  0  0  0  0  0  0
   14.1042   -8.5905  -13.5020 C   0  0  0  0  0  0  0  0  0  0  0  0
   14.6198   -9.8990  -14.0593 C   0  0  2  0  0  0  0  0  0  0  0  0
   14.0484  -10.9647  -13.2863 N   0  0  0  0  0  0  0  0  0  0  0  0
   16.1150   -9.9500  -14.0191 C   0  0  0  0  0  0  0  0  0  0  0  0
   16.6404  -10.3041  -12.9350 O   0  0  0  0  0  0  0  0  0  0  0  0
   18.3297  -10.4214  -17.4980 C   0  0  0  0  0  0  0  0  0  0  0  0
   18.9480  -10.5876  -16.1207 C   0  0  1  0  0  0  0  0  0  0  0  0
   20.4238  -10.4992  -16.2651 C   0  0  0  0  0  0  0  0  0  0  0  0
   18.3232   -9.6218  -15.1908 C   0  0  2  0  0  0  0  0  0  0  0  0
   16.8836   -9.6108  -15.1614 N   0  0  0  0  0  0  0  0  0  0  0  0
   18.8275   -8.2249  -15.2939 C   0  0  0  0  0  0  0  0  0  0  0  0
   18.3082   -7.4665  -16.1389 O   0  0  0  0  0  0  0  0  0  0  0  0
   22.2357   -0.3156  -14.0414 O   0  0  0  0  0  0  0  0  0  0  0  0
   21.9363   -1.6705  -13.9066 C   0  0  0  0  0  0  0  0  0  0  0  0
   20.7795   -2.0907  -13.2968 C   0  0  0  0  0  0  0  0  0  0  0  0
   20.4821   -3.4191  -13.1627 C   0  0  0  0  0  0  0  0  0  0  0  0
   21.3247   -4.3865  -13.6301 C   0  0  0  0  0  0  0  0  0  0  0  0
   21.0240   -5.8221  -13.4895 C   0  0  0  0  0  0  0  0  0  0  0  0
   20.3182   -6.3449  -14.6886 C   0  0  2  0  0  0  0  0  0  0  0  0
   19.8638   -7.7214  -14.4810 N   0  0  0  0  0  0  0  0  0  0  0  0
   21.1650   -6.2753  -15.8935 C   0  0  0  0  0  0  0  0  0  0  0  0
   22.1160   -7.0384  -16.1559 O   0  0  0  0  0  0  0  0  0  0  0  0
   22.4983   -3.9813  -14.2493 C   0  0  0  0  0  0  0  0  0  0  0  0
   22.7934   -2.6526  -14.3824 C   0  0  0  0  0  0  0  0  0  0  0  0
   20.8880   -5.2645  -16.8396 O   0  0  0  0  0  0  0  0  0  0  0  0
  1  2  1  0
  3  2  1  0
  3  5  1  0
  3  4  1  1
  5  6  2  0
  8  7  1  6
  8 10  1  0
  8  9  1  0
 10 11  1  6
 11  5  1  0
 12 21  1  0
 12 10  1  0
 13 12  2  0
 15 25  2  0
 15 14  1  0
 16 15  1  0
 17 18  1  0
 17 16  2  0
 18 24  2  0
 19 18  1  0
 20 21  1  0
 20 19  1  1
 22 20  1  0
 23 22  2  0
 24 25  1  0
 26 22  1  0
M  END
$$$$
