SVY.pdb
     RDKit          3D

 26 26  0  0  1  0  0  0  0  0999 V2000
   16.9985  -11.0650  -14.0696 O   0  0  0  0  0  0  0  0  0  0  0  0
   17.9321  -10.2548  -14.7204 C   0  0  0  0  0  0  0  0  0  0  0  0
   17.2590   -9.7327  -15.9705 C   0  0  2  0  0  0  0  0  0  0  0  0
   17.3002  -10.7704  -16.9612 N   0  0  0  0  0  0  0  0  0  0  0  0
   17.9319   -8.4914  -16.4665 C   0  0  0  0  0  0  0  0  0  0  0  0
   18.8058   -8.6381  -17.3561 O   0  0  0  0  0  0  0  0  0  0  0  0
   16.6720   -5.8310  -18.4251 C   0  0  0  0  0  0  0  0  0  0  0  0
   17.1393   -5.1140  -17.1704 C   0  0  1  0  0  0  0  0  0  0  0  0
   15.9372   -4.6943  -16.4053 C   0  0  0  0  0  0  0  0  0  0  0  0
   18.1032   -5.9760  -16.4520 C   0  0  2  0  0  0  0  0  0  0  0  0
   17.5850   -7.2197  -15.9440 N   0  0  0  0  0  0  0  0  0  0  0  0
   18.8917   -5.2960  -15.3879 C   0  0  0  0  0  0  0  0  0  0  0  0
   18.4288   -5.2726  -14.2286 O   0  0  0  0  0  0  0  0  0  0  0  0
   22.3608  -10.1809  -14.0272 O   0  0  0  0  0  0  0  0  0  0  0  0
   22.3292   -8.7900  -14.1155 C   0  0  0  0  0  0  0  0  0  0  0  0
   22.0369   -8.0099  -13.0234 C   0  0  0  0  0  0  0  0  0  0  0  0
   22.0049   -6.6448  -13.1060 C   0  0  0  0  0  0  0  0  0  0  0  0
   22.2626   -5.9979  -14.2806 C   0  0  0  0  0  0  0  0  0  0  0  0
   22.2271   -4.5289  -14.3900 C   0  0  0  0  0  0  0  0  0  0  0  0
   20.8322   -4.0315  -14.5171 C   0  0  2  0  0  0  0  0  0  0  0  0
   20.1357   -4.6784  -15.6310 N   0  0  0  0  0  0  0  0  0  0  0  0
   20.7883   -2.5673  -14.6839 C   0  0  0  0  0  0  0  0  0  0  0  0
   20.3526   -1.9648  -15.6852 O   0  0  0  0  0  0  0  0  0  0  0  0
   22.5600   -6.7692  -15.3948 C   0  0  0  0  0  0  0  0  0  0  0  0
   22.5914   -8.1338  -15.3098 C   0  0  0  0  0  0  0  0  0  0  0  0
   21.2774   -1.7661  -13.6292 O   0  0  0  0  0  0  0  0  0  0  0  0
  1  2  1  0
  3  2  1  0
  3  5  1  0
  3  4  1  6
  5  6  2  0
  8  7  1  6
  8 10  1  0
  8  9  1  0
 10 11  1  1
 11  5  1  0
 12 21  1  0
 12 10  1  0
 13 12  2  0
 15 25  2  0
 15 14  1  0
 16 15  1  0
 17 18  1  0
 17 16  2  0
 18 24  2  0
 19 18  1  0
 20 21  1  0
 20 19  1  6
 22 20  1  0
 23 22  2  0
 24 25  1  0
 26 22  1  0
M  END
$$$$
