SVY.pdb
     RDKit          3D

 26 26  0  0  1  0  0  0  0  0999 V2000
   29.1756  -28.8654  -19.5371 O   0  0  0  0  0  0  0  0  0  0  0  0
   30.4467  -28.8076  -20.1138 C   0  0  0  0  0  0  0  0  0  0  0  0
   31.4417  -28.7993  -18.9742 C   0  0  2  0  0  0  0  0  0  0  0  0
   31.3856  -30.0800  -18.3288 N   0  0  0  0  0  0  0  0  0  0  0  0
   31.1428  -27.6979  -18.0060 C   0  0  0  0  0  0  0  0  0  0  0  0
   30.8060  -28.0399  -16.8457 O   0  0  0  0  0  0  0  0  0  0  0  0
   33.2957  -25.4678  -16.4003 C   0  0  0  0  0  0  0  0  0  0  0  0
   32.3789  -24.5228  -17.1577 C   0  0  1  0  0  0  0  0  0  0  0  0
   33.1397  -23.9644  -18.3049 C   0  0  0  0  0  0  0  0  0  0  0  0
   31.1227  -25.2303  -17.4887 C   0  0  2  0  0  0  0  0  0  0  0  0
   31.2410  -26.3391  -18.3997 N   0  0  0  0  0  0  0  0  0  0  0  0
   29.9960  -24.3560  -17.9158 C   0  0  0  0  0  0  0  0  0  0  0  0
   29.7822  -24.2167  -19.1380 O   0  0  0  0  0  0  0  0  0  0  0  0
   24.0742  -27.7662  -17.3180 O   0  0  0  0  0  0  0  0  0  0  0  0
   24.7642  -26.5663  -17.1514 C   0  0  0  0  0  0  0  0  0  0  0  0
   24.4386  -25.4467  -17.8773 C   0  0  0  0  0  0  0  0  0  0  0  0
   25.1131  -24.2675  -17.7167 C   0  0  0  0  0  0  0  0  0  0  0  0
   26.1415  -24.1530  -16.8259 C   0  0  0  0  0  0  0  0  0  0  0  0
   26.8833  -22.8930  -16.6435 C   0  0  0  0  0  0  0  0  0  0  0  0
   28.0802  -22.8399  -17.5232 C   0  0  2  0  0  0  0  0  0  0  0  0
   29.1611  -23.6796  -17.0027 N   0  0  0  0  0  0  0  0  0  0  0  0
   28.5638  -21.4589  -17.7036 C   0  0  0  0  0  0  0  0  0  0  0  0
   27.9465  -20.5453  -18.2866 O   0  0  0  0  0  0  0  0  0  0  0  0
   26.4849  -25.2735  -16.0833 C   0  0  0  0  0  0  0  0  0  0  0  0
   25.8090  -26.4513  -16.2455 C   0  0  0  0  0  0  0  0  0  0  0  0
   29.8313  -21.1274  -17.1773 O   0  0  0  0  0  0  0  0  0  0  0  0
  1  2  1  0
  3  2  1  0
  3  5  1  0
  3  4  1  1
  5  6  2  0
  8  7  1  6
  8 10  1  0
  8  9  1  0
 10 11  1  6
 11  5  1  0
 12 21  1  0
 12 10  1  0
 13 12  2  0
 15 25  2  0
 15 14  1  0
 16 15  1  0
 17 18  1  0
 17 16  2  0
 18 24  2  0
 19 18  1  0
 20 21  1  0
 20 19  1  1
 22 20  1  0
 23 22  2  0
 24 25  1  0
 26 22  1  0
M  END
$$$$
