SVY.pdb
     RDKit          3D

 26 26  0  0  1  0  0  0  0  0999 V2000
   19.9498  -13.5464  -19.5105 O   0  0  0  0  0  0  0  0  0  0  0  0
   20.4727  -12.4971  -18.7509 C   0  0  0  0  0  0  0  0  0  0  0  0
   21.6660  -13.0523  -18.0049 C   0  0  2  0  0  0  0  0  0  0  0  0
   21.2909  -14.3236  -17.4544 N   0  0  0  0  0  0  0  0  0  0  0  0
   22.1132  -12.1134  -16.9287 C   0  0  0  0  0  0  0  0  0  0  0  0
   21.3327  -11.9511  -15.9586 O   0  0  0  0  0  0  0  0  0  0  0  0
   26.1210  -10.5472  -16.9363 C   0  0  0  0  0  0  0  0  0  0  0  0
   25.2868  -10.6612  -15.6722 C   0  0  1  0  0  0  0  0  0  0  0  0
   25.8111   -9.6828  -14.6851 C   0  0  0  0  0  0  0  0  0  0  0  0
   23.8559  -10.5317  -16.0241 C   0  0  2  0  0  0  0  0  0  0  0  0
   23.3625  -11.4486  -17.0188 N   0  0  0  0  0  0  0  0  0  0  0  0
   23.4067   -9.1517  -16.3558 C   0  0  0  0  0  0  0  0  0  0  0  0
   23.6719   -8.6964  -17.4877 O   0  0  0  0  0  0  0  0  0  0  0  0
   19.6021   -1.5087  -17.5950 O   0  0  0  0  0  0  0  0  0  0  0  0
   19.9230   -2.8088  -17.2072 C   0  0  0  0  0  0  0  0  0  0  0  0
   20.4639   -3.7073  -18.0940 C   0  0  0  0  0  0  0  0  0  0  0  0
   20.7802   -4.9838  -17.7174 C   0  0  0  0  0  0  0  0  0  0  0  0
   20.5709   -5.4202  -16.4406 C   0  0  0  0  0  0  0  0  0  0  0  0
   20.8998   -6.7930  -16.0182 C   0  0  0  0  0  0  0  0  0  0  0  0
   22.3656   -6.9663  -15.8429 C   0  0  2  0  0  0  0  0  0  0  0  0
   22.6964   -8.3376  -15.4498 N   0  0  0  0  0  0  0  0  0  0  0  0
   22.9127   -6.0183  -14.8552 C   0  0  0  0  0  0  0  0  0  0  0  0
   22.9094   -6.1781  -13.6183 O   0  0  0  0  0  0  0  0  0  0  0  0
   20.0253   -4.5266  -15.5303 C   0  0  0  0  0  0  0  0  0  0  0  0
   19.7100   -3.2509  -15.9092 C   0  0  0  0  0  0  0  0  0  0  0  0
   23.4927   -4.8238  -15.3351 O   0  0  0  0  0  0  0  0  0  0  0  0
  1  2  1  0
  3  2  1  0
  3  5  1  0
  3  4  1  1
  5  6  2  0
  8  7  1  6
  8 10  1  0
  8  9  1  0
 10 11  1  6
 11  5  1  0
 12 21  1  0
 12 10  1  0
 13 12  2  0
 15 25  2  0
 15 14  1  0
 16 15  1  0
 17 18  1  0
 17 16  2  0
 18 24  2  0
 19 18  1  0
 20 21  1  0
 20 19  1  1
 22 20  1  0
 23 22  2  0
 24 25  1  0
 26 22  1  0
M  END
$$$$
