SVY.pdb
     RDKit          3D

 26 26  0  0  1  0  0  0  0  0999 V2000
   18.3590  -13.9643  -17.7203 O   0  0  0  0  0  0  0  0  0  0  0  0
   19.1803  -13.0542  -17.0504 C   0  0  0  0  0  0  0  0  0  0  0  0
   20.4279  -12.8934  -17.8908 C   0  0  2  0  0  0  0  0  0  0  0  0
   21.1416  -14.1383  -17.8654 N   0  0  0  0  0  0  0  0  0  0  0  0
   21.2818  -11.7758  -17.3793 C   0  0  0  0  0  0  0  0  0  0  0  0
   22.2389  -12.0916  -16.6304 O   0  0  0  0  0  0  0  0  0  0  0  0
   23.3035   -9.5329  -19.3460 C   0  0  0  0  0  0  0  0  0  0  0  0
   22.4522   -8.5806  -18.5242 C   0  0  1  0  0  0  0  0  0  0  0  0
   21.4981   -7.9073  -19.4423 C   0  0  0  0  0  0  0  0  0  0  0  0
   21.8565   -9.3209  -17.3905 C   0  0  2  0  0  0  0  0  0  0  0  0
   21.0066  -10.4310  -17.7351 N   0  0  0  0  0  0  0  0  0  0  0  0
   21.1795   -8.4772  -16.3677 C   0  0  0  0  0  0  0  0  0  0  0  0
   19.9399   -8.3437  -16.4334 O   0  0  0  0  0  0  0  0  0  0  0  0
   18.1679   -4.4828   -9.3609 O   0  0  0  0  0  0  0  0  0  0  0  0
   19.0147   -5.1309  -10.2589 C   0  0  0  0  0  0  0  0  0  0  0  0
   19.8181   -4.4258  -11.1214 C   0  0  0  0  0  0  0  0  0  0  0  0
   20.6503   -5.0580  -12.0040 C   0  0  0  0  0  0  0  0  0  0  0  0
   20.7177   -6.4204  -12.0656 C   0  0  0  0  0  0  0  0  0  0  0  0
   21.6036   -7.1188  -13.0135 C   0  0  0  0  0  0  0  0  0  0  0  0
   21.1270   -6.9614  -14.4126 C   0  0  2  0  0  0  0  0  0  0  0  0
   21.8752   -7.8233  -15.3301 N   0  0  0  0  0  0  0  0  0  0  0  0
   21.2118   -5.5601  -14.8633 C   0  0  0  0  0  0  0  0  0  0  0  0
   22.2470   -4.9872  -15.2576 O   0  0  0  0  0  0  0  0  0  0  0  0
   19.9135   -7.1499  -11.2019 C   0  0  0  0  0  0  0  0  0  0  0  0
   19.0824   -6.5156  -10.3203 C   0  0  0  0  0  0  0  0  0  0  0  0
   20.0290   -4.7890  -14.8533 O   0  0  0  0  0  0  0  0  0  0  0  0
  1  2  1  0
  3  2  1  0
  3  5  1  0
  3  4  1  1
  5  6  2  0
  8  7  1  6
  8 10  1  0
  8  9  1  0
 10 11  1  6
 11  5  1  0
 12 21  1  0
 12 10  1  0
 13 12  2  0
 15 25  2  0
 15 14  1  0
 16 15  1  0
 17 18  1  0
 17 16  2  0
 18 24  2  0
 19 18  1  0
 20 21  1  0
 20 19  1  1
 22 20  1  0
 23 22  2  0
 24 25  1  0
 26 22  1  0
M  END
$$$$
