SVY.pdb
     RDKit          3D

 26 26  0  0  1  0  0  0  0  0999 V2000
   18.2884  -20.7936  -13.0699 O   0  0  0  0  0  0  0  0  0  0  0  0
   19.5298  -21.2183  -13.5494 C   0  0  0  0  0  0  0  0  0  0  0  0
   19.2568  -22.3251  -14.5440 C   0  0  2  0  0  0  0  0  0  0  0  0
   18.1741  -21.9047  -15.3871 N   0  0  0  0  0  0  0  0  0  0  0  0
   18.9259  -23.6070  -13.8462 C   0  0  0  0  0  0  0  0  0  0  0  0
   17.7173  -23.8053  -13.5694 O   0  0  0  0  0  0  0  0  0  0  0  0
   22.0365  -26.5169  -13.0542 C   0  0  0  0  0  0  0  0  0  0  0  0
   20.6222  -26.9209  -13.4333 C   0  0  1  0  0  0  0  0  0  0  0  0
   20.3694  -28.2790  -12.8872 C   0  0  0  0  0  0  0  0  0  0  0  0
   19.6853  -25.8593  -13.0051 C   0  0  2  0  0  0  0  0  0  0  0  0
   19.9431  -24.5402  -13.5219 N   0  0  0  0  0  0  0  0  0  0  0  0
   19.4459  -25.7787  -11.5379 C   0  0  0  0  0  0  0  0  0  0  0  0
   20.1474  -24.9965  -10.8634 O   0  0  0  0  0  0  0  0  0  0  0  0
   15.4955  -24.6901   -3.9842 O   0  0  0  0  0  0  0  0  0  0  0  0
   16.0922  -24.7586   -5.2423 C   0  0  0  0  0  0  0  0  0  0  0  0
   15.3422  -24.7310   -6.3927 C   0  0  0  0  0  0  0  0  0  0  0  0
   15.9240  -24.7980   -7.6289 C   0  0  0  0  0  0  0  0  0  0  0  0
   17.2783  -24.8956   -7.7724 C   0  0  0  0  0  0  0  0  0  0  0  0
   17.9222  -24.9747   -9.0954 C   0  0  0  0  0  0  0  0  0  0  0  0
   18.2882  -26.3750   -9.4339 C   0  0  2  0  0  0  0  0  0  0  0  0
   18.4637  -26.5453  -10.8777 N   0  0  0  0  0  0  0  0  0  0  0  0
   17.2869  -27.3359   -8.9361 C   0  0  0  0  0  0  0  0  0  0  0  0
   17.2955  -27.8737   -7.8109 O   0  0  0  0  0  0  0  0  0  0  0  0
   18.0526  -24.9248   -6.6216 C   0  0  0  0  0  0  0  0  0  0  0  0
   17.4688  -24.8576   -5.3867 C   0  0  0  0  0  0  0  0  0  0  0  0
   16.2222  -27.6867   -9.7946 O   0  0  0  0  0  0  0  0  0  0  0  0
  1  2  1  0
  3  2  1  0
  3  5  1  0
  3  4  1  6
  5  6  2  0
  8  7  1  1
  8 10  1  0
  8  9  1  0
 10 11  1  1
 11  5  1  0
 12 21  1  0
 12 10  1  0
 13 12  2  0
 15 25  2  0
 15 14  1  0
 16 15  1  0
 17 18  1  0
 17 16  2  0
 18 24  2  0
 19 18  1  0
 20 21  1  0
 20 19  1  6
 22 20  1  0
 23 22  2  0
 24 25  1  0
 26 22  1  0
M  END
$$$$
