SVY.pdb
     RDKit          3D

 26 26  0  0  1  0  0  0  0  0999 V2000
   29.4477  -22.8686  -16.3296 O   0  0  0  0  0  0  0  0  0  0  0  0
   28.9249  -21.8340  -15.5499 C   0  0  0  0  0  0  0  0  0  0  0  0
   27.4781  -21.6684  -15.9599 C   0  0  2  0  0  0  0  0  0  0  0  0
   27.4517  -20.9905  -17.2246 N   0  0  0  0  0  0  0  0  0  0  0  0
   26.7093  -20.9057  -14.9269 C   0  0  0  0  0  0  0  0  0  0  0  0
   26.7614  -19.6529  -14.9931 O   0  0  0  0  0  0  0  0  0  0  0  0
   23.1883  -20.5955  -14.3443 C   0  0  0  0  0  0  0  0  0  0  0  0
   23.6999  -21.1461  -13.0244 C   0  0  1  0  0  0  0  0  0  0  0  0
   23.2483  -22.5564  -12.9081 C   0  0  0  0  0  0  0  0  0  0  0  0
   25.1589  -20.9178  -12.9387 C   0  0  2  0  0  0  0  0  0  0  0  0
   25.9639  -21.5840  -13.9295 N   0  0  0  0  0  0  0  0  0  0  0  0
   25.7559  -21.1289  -11.5914 C   0  0  0  0  0  0  0  0  0  0  0  0
   26.0382  -22.2941  -11.2425 O   0  0  0  0  0  0  0  0  0  0  0  0
   28.8840  -20.3328   -3.4606 O   0  0  0  0  0  0  0  0  0  0  0  0
   28.5318  -20.0934   -4.7881 C   0  0  0  0  0  0  0  0  0  0  0  0
   27.4607  -19.2969   -5.1120 C   0  0  0  0  0  0  0  0  0  0  0  0
   27.1119  -19.0596   -6.4132 C   0  0  0  0  0  0  0  0  0  0  0  0
   27.8152  -19.6059   -7.4482 C   0  0  0  0  0  0  0  0  0  0  0  0
   27.4510  -19.3663   -8.8557 C   0  0  0  0  0  0  0  0  0  0  0  0
   26.4959  -20.3936   -9.3476 C   0  0  2  0  0  0  0  0  0  0  0  0
   26.0161  -20.0733  -10.6936 N   0  0  0  0  0  0  0  0  0  0  0  0
   25.3498  -20.5546   -8.4343 C   0  0  0  0  0  0  0  0  0  0  0  0
   24.2687  -19.9378   -8.5126 O   0  0  0  0  0  0  0  0  0  0  0  0
   28.9008  -20.4134   -7.1407 C   0  0  0  0  0  0  0  0  0  0  0  0
   29.2476  -20.6491   -5.8390 C   0  0  0  0  0  0  0  0  0  0  0  0
   25.4716  -21.4820   -7.3766 O   0  0  0  0  0  0  0  0  0  0  0  0
  1  2  1  0
  3  2  1  0
  3  5  1  0
  3  4  1  6
  5  6  2  0
  8  7  1  6
  8 10  1  0
  8  9  1  0
 10 11  1  6
 11  5  1  0
 12 21  1  0
 12 10  1  0
 13 12  2  0
 15 25  2  0
 15 14  1  0
 16 15  1  0
 17 18  1  0
 17 16  2  0
 18 24  2  0
 19 18  1  0
 20 21  1  0
 20 19  1  1
 22 20  1  0
 23 22  2  0
 24 25  1  0
 26 22  1  0
M  END
$$$$
