MKN.pdb
     RDKit          3D

 26 25  0  0  1  0  0  0  0  0999 V2000
   25.3051  -11.9609  -14.6325 C   0  0  0  0  0  0  0  0  0  0  0  0
   24.5610  -11.0872  -16.0447 S   0  0  0  0  0  0  0  0  0  0  0  0
   22.8264  -11.6496  -16.1936 C   0  0  0  0  0  0  0  0  0  0  0  0
   22.0033  -10.9353  -15.1700 C   0  0  0  0  0  0  0  0  0  0  0  0
   20.5332  -11.2642  -15.2294 C   0  0  2  0  0  0  0  0  0  0  0  0
   20.1379  -11.6850  -16.5445 N   0  0  0  0  0  0  0  0  0  0  0  0
   19.7666  -10.0864  -14.7544 C   0  0  0  0  0  0  0  0  0  0  0  0
   19.4217   -9.1894  -15.5501 O   0  0  0  0  0  0  0  0  0  0  0  0
   19.3908   -9.9265  -13.3655 N   0  0  0  0  0  0  0  0  0  0  0  0
   18.5928   -8.8262  -12.9356 C   0  0  1  0  0  0  0  0  0  0  0  0
   17.6588   -8.9990  -11.8158 C   0  0  0  0  0  0  0  0  0  0  0  0
   16.4646   -9.8415  -11.9078 C   0  0  0  0  0  0  0  0  0  0  0  0
   15.5282   -9.8353  -10.7503 C   0  0  0  0  0  0  0  0  0  0  0  0
   14.2995  -10.6870  -11.0825 C   0  0  0  0  0  0  0  0  0  0  0  0
   13.4544  -10.8073   -9.9007 N   0  0  0  0  0  0  0  0  0  0  0  0
   19.4323   -7.5801  -12.7947 C   0  0  0  0  0  0  0  0  0  0  0  0
   20.5698   -7.6146  -12.2424 O   0  0  0  0  0  0  0  0  0  0  0  0
   21.3129   -3.0099  -13.9004 N   0  0  0  0  0  0  0  0  0  0  0  0
   21.8401   -4.2231  -14.4132 C   0  0  0  0  0  0  0  0  0  0  0  0
   22.9553   -4.1798  -14.9865 O   0  0  0  0  0  0  0  0  0  0  0  0
   21.0486   -5.4564  -14.2421 C   0  0  0  0  0  0  0  0  0  0  0  0
   19.8356   -5.1610  -13.4268 C   0  0  2  0  0  0  0  0  0  0  0  0
   18.9828   -6.3324  -13.2723 N   0  0  0  0  0  0  0  0  0  0  0  0
   19.0165   -4.0616  -13.9523 C   0  0  0  0  0  0  0  0  0  0  0  0
   19.2563   -2.7581  -13.5770 O   0  0  0  0  0  0  0  0  0  0  0  0
   18.0859   -4.3000  -14.7505 O   0  0  0  0  0  0  0  0  0  0  0  0
  2  1  1  0
  3  2  1  0
  4  3  1  0
  4  5  1  0
  5  7  1  0
  5  6  1  6
  7  8  2  0
  9 10  1  0
  9  7  1  0
 10 11  1  1
 12 11  1  0
 13 14  1  0
 13 12  1  0
 15 14  1  0
 16 17  2  0
 16 10  1  0
 18 19  1  0
 19 21  1  0
 20 19  2  0
 22 21  1  6
 22 23  1  0
 22 24  1  0
 23 16  1  0
 24 25  1  0
 26 24  2  0
M  END
$$$$
