MKN.pdb
     RDKit          3D

 26 25  0  0  1  0  0  0  0  0999 V2000
   13.9866   -6.8141  -17.6765 C   0  0  0  0  0  0  0  0  0  0  0  0
   12.9369   -8.0301  -16.8217 S   0  0  0  0  0  0  0  0  0  0  0  0
   13.9149   -9.5632  -16.6205 C   0  0  0  0  0  0  0  0  0  0  0  0
   15.2104   -9.2196  -15.9578 C   0  0  0  0  0  0  0  0  0  0  0  0
   16.1556  -10.3862  -15.8211 C   0  0  2  0  0  0  0  0  0  0  0  0
   15.5996  -11.4241  -14.9987 N   0  0  0  0  0  0  0  0  0  0  0  0
   17.4526   -9.8846  -15.3047 C   0  0  0  0  0  0  0  0  0  0  0  0
   17.6130   -9.6749  -14.0852 O   0  0  0  0  0  0  0  0  0  0  0  0
   18.5742   -9.6181  -16.1804 N   0  0  0  0  0  0  0  0  0  0  0  0
   19.8321   -9.1900  -15.6643 C   0  0  1  0  0  0  0  0  0  0  0  0
   21.0205  -10.0314  -15.8542 C   0  0  0  0  0  0  0  0  0  0  0  0
   22.3500   -9.6355  -15.3850 C   0  0  0  0  0  0  0  0  0  0  0  0
   23.4804  -10.5652  -15.6586 C   0  0  0  0  0  0  0  0  0  0  0  0
   24.7564  -10.0236  -15.0074 C   0  0  0  0  0  0  0  0  0  0  0  0
   25.8710  -10.9168  -15.2995 N   0  0  0  0  0  0  0  0  0  0  0  0
   20.0904   -7.7454  -16.0163 C   0  0  0  0  0  0  0  0  0  0  0  0
   20.1137   -7.3578  -17.2201 O   0  0  0  0  0  0  0  0  0  0  0  0
   19.3201   -2.2753  -15.9308 N   0  0  0  0  0  0  0  0  0  0  0  0
   19.9831   -3.0617  -14.9536 C   0  0  0  0  0  0  0  0  0  0  0  0
   20.8995   -2.5194  -14.2902 O   0  0  0  0  0  0  0  0  0  0  0  0
   19.5564   -4.4631  -14.7777 C   0  0  0  0  0  0  0  0  0  0  0  0
   20.6165   -5.3754  -15.2948 C   0  0  2  0  0  0  0  0  0  0  0  0
   20.3151   -6.7743  -15.0197 N   0  0  0  0  0  0  0  0  0  0  0  0
   21.9593   -5.0837  -14.7776 C   0  0  0  0  0  0  0  0  0  0  0  0
   22.8209   -4.2610  -15.4691 O   0  0  0  0  0  0  0  0  0  0  0  0
   22.3367   -5.5839  -13.6972 O   0  0  0  0  0  0  0  0  0  0  0  0
  2  1  1  0
  3  2  1  0
  4  3  1  0
  4  5  1  0
  5  7  1  0
  5  6  1  1
  7  8  2  0
  9 10  1  0
  9  7  1  0
 10 11  1  6
 12 11  1  0
 13 14  1  0
 13 12  1  0
 15 14  1  0
 16 17  2  0
 16 10  1  0
 18 19  1  0
 19 21  1  0
 20 19  2  0
 22 21  1  1
 22 23  1  0
 22 24  1  0
 23 16  1  0
 24 25  1  0
 26 24  2  0
M  END
$$$$
