MKN.pdb
     RDKit          3D

 26 25  0  0  1  0  0  0  0  0999 V2000
   14.9860   -3.5937   -7.3187 C   0  0  0  0  0  0  0  0  0  0  0  0
   14.4627   -4.8160   -6.0763 S   0  0  0  0  0  0  0  0  0  0  0  0
   13.8699   -6.2977   -6.9711 C   0  0  0  0  0  0  0  0  0  0  0  0
   14.9579   -6.7742   -7.8792 C   0  0  0  0  0  0  0  0  0  0  0  0
   14.5323   -7.8737   -8.8190 C   0  0  2  0  0  0  0  0  0  0  0  0
   14.1796   -9.0706   -8.1078 N   0  0  0  0  0  0  0  0  0  0  0  0
   15.6170   -8.0970   -9.8059 C   0  0  0  0  0  0  0  0  0  0  0  0
   16.6052   -8.8012   -9.5158 O   0  0  0  0  0  0  0  0  0  0  0  0
   15.5787   -7.5147  -11.1308 N   0  0  0  0  0  0  0  0  0  0  0  0
   16.5208   -7.8900  -12.1327 C   0  0  1  0  0  0  0  0  0  0  0  0
   16.0481   -8.4860  -13.3887 C   0  0  0  0  0  0  0  0  0  0  0  0
   15.2470   -9.7112  -13.4276 C   0  0  0  0  0  0  0  0  0  0  0  0
   14.7754  -10.1820  -14.7590 C   0  0  0  0  0  0  0  0  0  0  0  0
   13.9334  -11.4493  -14.5840 C   0  0  0  0  0  0  0  0  0  0  0  0
   13.5568  -11.9703  -15.8925 N   0  0  0  0  0  0  0  0  0  0  0  0
   17.5232   -6.7858  -12.3639 C   0  0  0  0  0  0  0  0  0  0  0  0
   17.1877   -5.5686  -12.2865 O   0  0  0  0  0  0  0  0  0  0  0  0
   21.7498   -4.2247  -13.3746 N   0  0  0  0  0  0  0  0  0  0  0  0
   22.2319   -5.5514  -13.2335 C   0  0  0  0  0  0  0  0  0  0  0  0
   23.4686   -5.7378  -13.3333 O   0  0  0  0  0  0  0  0  0  0  0  0
   21.2541   -6.6267  -12.9790 C   0  0  0  0  0  0  0  0  0  0  0  0
   19.8809   -6.0484  -12.9220 C   0  0  2  0  0  0  0  0  0  0  0  0
   18.8691   -7.0672  -12.6741 N   0  0  0  0  0  0  0  0  0  0  0  0
   19.4971   -5.3022  -14.1268 C   0  0  0  0  0  0  0  0  0  0  0  0
   19.4929   -3.9248  -14.1351 O   0  0  0  0  0  0  0  0  0  0  0  0
   19.1670   -5.9145  -15.1642 O   0  0  0  0  0  0  0  0  0  0  0  0
  2  1  1  0
  3  2  1  0
  4  3  1  0
  4  5  1  0
  5  7  1  0
  5  6  1  1
  7  8  2  0
  9 10  1  0
  9  7  1  0
 10 11  1  6
 12 11  1  0
 13 14  1  0
 13 12  1  0
 15 14  1  0
 16 17  2  0
 16 10  1  0
 18 19  1  0
 19 21  1  0
 20 19  2  0
 22 21  1  6
 22 23  1  0
 22 24  1  0
 23 16  1  0
 24 25  1  0
 26 24  2  0
M  END
$$$$
