MKN.pdb
     RDKit          3D

 26 25  0  0  1  0  0  0  0  0999 V2000
   27.2490  -15.4075  -16.5764 C   0  0  0  0  0  0  0  0  0  0  0  0
   26.9361  -16.0570  -14.9056 S   0  0  0  0  0  0  0  0  0  0  0  0
   26.2202  -17.7310  -15.0861 C   0  0  0  0  0  0  0  0  0  0  0  0
   24.7889  -17.5965  -15.4969 C   0  0  0  0  0  0  0  0  0  0  0  0
   24.0914  -18.9137  -15.7237 C   0  0  2  0  0  0  0  0  0  0  0  0
   24.7925  -19.7262  -16.6782 N   0  0  0  0  0  0  0  0  0  0  0  0
   22.6902  -18.6422  -16.1279 C   0  0  0  0  0  0  0  0  0  0  0  0
   22.4316  -18.1934  -17.2630 O   0  0  0  0  0  0  0  0  0  0  0  0
   21.5756  -18.8810  -15.2354 N   0  0  0  0  0  0  0  0  0  0  0  0
   20.2385  -18.5708  -15.6200 C   0  0  1  0  0  0  0  0  0  0  0  0
   19.1176  -19.2814  -14.9917 C   0  0  0  0  0  0  0  0  0  0  0  0
   18.9062  -20.7213  -15.1546 C   0  0  0  0  0  0  0  0  0  0  0  0
   19.1938  -21.5950  -13.9838 C   0  0  0  0  0  0  0  0  0  0  0  0
   19.0005  -23.0615  -14.3809 C   0  0  0  0  0  0  0  0  0  0  0  0
   19.3882  -23.9234  -13.2708 N   0  0  0  0  0  0  0  0  0  0  0  0
   20.0245  -17.0773  -15.6520 C   0  0  0  0  0  0  0  0  0  0  0  0
   20.6548  -16.3075  -14.8708 O   0  0  0  0  0  0  0  0  0  0  0  0
   19.2446  -12.5867  -15.7916 N   0  0  0  0  0  0  0  0  0  0  0  0
   20.3484  -13.0560  -16.5492 C   0  0  0  0  0  0  0  0  0  0  0  0
   21.3346  -12.2917  -16.6806 O   0  0  0  0  0  0  0  0  0  0  0  0
   20.2699  -14.4083  -17.1340 C   0  0  0  0  0  0  0  0  0  0  0  0
   18.9793  -15.0456  -16.7446 C   0  0  2  0  0  0  0  0  0  0  0  0
   19.1164  -16.4834  -16.5518 N   0  0  0  0  0  0  0  0  0  0  0  0
   17.8867  -14.8112  -17.6970 C   0  0  0  0  0  0  0  0  0  0  0  0
   16.8583  -13.9457  -17.3956 O   0  0  0  0  0  0  0  0  0  0  0  0
   17.8787  -15.4002  -18.7984 O   0  0  0  0  0  0  0  0  0  0  0  0
  2  1  1  0
  3  2  1  0
  4  3  1  0
  4  5  1  0
  5  7  1  0
  5  6  1  6
  7  8  2  0
  9 10  1  0
  9  7  1  0
 10 11  1  1
 12 11  1  0
 13 14  1  0
 13 12  1  0
 15 14  1  0
 16 17  2  0
 16 10  1  0
 18 19  1  0
 19 21  1  0
 20 19  2  0
 22 21  1  6
 22 23  1  0
 22 24  1  0
 23 16  1  0
 24 25  1  0
 26 24  2  0
M  END
$$$$
