MKN.pdb
     RDKit          3D

 26 25  0  0  1  0  0  0  0  0999 V2000
   28.1531  -20.6902   -5.3480 C   0  0  0  0  0  0  0  0  0  0  0  0
   28.1678  -20.6902   -7.1677 S   0  0  0  0  0  0  0  0  0  0  0  0
   26.9591  -19.4383   -7.7323 C   0  0  0  0  0  0  0  0  0  0  0  0
   26.9381  -19.4349   -9.2273 C   0  0  0  0  0  0  0  0  0  0  0  0
   27.3845  -20.7343   -9.8481 C   0  0  2  0  0  0  0  0  0  0  0  0
   28.8166  -20.8367   -9.8889 N   0  0  0  0  0  0  0  0  0  0  0  0
   26.7672  -20.8520  -11.1917 C   0  0  0  0  0  0  0  0  0  0  0  0
   27.3747  -20.4564  -12.2072 O   0  0  0  0  0  0  0  0  0  0  0  0
   25.4500  -21.4217  -11.3822 N   0  0  0  0  0  0  0  0  0  0  0  0
   24.8181  -21.4168  -12.6600 C   0  0  1  0  0  0  0  0  0  0  0  0
   23.9866  -22.5574  -13.0645 C   0  0  0  0  0  0  0  0  0  0  0  0
   24.1955  -23.2789  -14.3216 C   0  0  0  0  0  0  0  0  0  0  0  0
   24.7538  -24.6567  -14.2389 C   0  0  0  0  0  0  0  0  0  0  0  0
   24.9120  -25.2295  -15.6504 C   0  0  0  0  0  0  0  0  0  0  0  0
   25.4379  -26.5869  -15.5707 N   0  0  0  0  0  0  0  0  0  0  0  0
   24.1389  -20.0935  -12.9151 C   0  0  0  0  0  0  0  0  0  0  0  0
   23.8820  -19.2948  -11.9684 O   0  0  0  0  0  0  0  0  0  0  0  0
   27.0532  -17.3668  -16.6427 N   0  0  0  0  0  0  0  0  0  0  0  0
   26.2998  -17.2530  -15.4460 C   0  0  0  0  0  0  0  0  0  0  0  0
   26.0942  -16.1017  -14.9918 O   0  0  0  0  0  0  0  0  0  0  0  0
   25.8060  -18.4899  -14.8110 C   0  0  0  0  0  0  0  0  0  0  0  0
   24.3188  -18.5401  -14.9072 C   0  0  2  0  0  0  0  0  0  0  0  0
   23.7655  -19.6969  -14.2151 N   0  0  0  0  0  0  0  0  0  0  0  0
   23.8095  -18.5408  -16.2843 C   0  0  0  0  0  0  0  0  0  0  0  0
   23.7919  -19.6975  -17.0321 O   0  0  0  0  0  0  0  0  0  0  0  0
   23.3849  -17.4833  -16.7956 O   0  0  0  0  0  0  0  0  0  0  0  0
  2  1  1  0
  3  2  1  0
  4  3  1  0
  4  5  1  0
  5  7  1  0
  5  6  1  6
  7  8  2  0
  9 10  1  0
  9  7  1  0
 10 11  1  1
 12 11  1  0
 13 14  1  0
 13 12  1  0
 15 14  1  0
 16 17  2  0
 16 10  1  0
 18 19  1  0
 19 21  1  0
 20 19  2  0
 22 21  1  6
 22 23  1  0
 22 24  1  0
 23 16  1  0
 24 25  1  0
 26 24  2  0
M  END
$$$$
