MKN.pdb
     RDKit          3D

 26 25  0  0  1  0  0  0  0  0999 V2000
   19.7770  -14.1003  -16.3421 C   0  0  0  0  0  0  0  0  0  0  0  0
   20.8048  -12.6040  -16.4688 S   0  0  0  0  0  0  0  0  0  0  0  0
   22.3914  -13.0846  -17.2426 C   0  0  0  0  0  0  0  0  0  0  0  0
   22.9487  -14.2571  -16.5008 C   0  0  0  0  0  0  0  0  0  0  0  0
   24.2925  -14.7177  -17.0058 C   0  0  2  0  0  0  0  0  0  0  0  0
   24.3837  -14.6160  -18.4355 N   0  0  0  0  0  0  0  0  0  0  0  0
   24.5325  -16.0976  -16.5171 C   0  0  0  0  0  0  0  0  0  0  0  0
   23.9424  -17.0671  -17.0353 O   0  0  0  0  0  0  0  0  0  0  0  0
   25.4483  -16.3771  -15.4312 N   0  0  0  0  0  0  0  0  0  0  0  0
   25.6936  -17.7114  -14.9935 C   0  0  1  0  0  0  0  0  0  0  0  0
   26.8852  -18.0048  -14.1872 C   0  0  0  0  0  0  0  0  0  0  0  0
   27.1762  -19.3428  -13.6681 C   0  0  0  0  0  0  0  0  0  0  0  0
   28.3503  -19.4890  -12.7642 C   0  0  0  0  0  0  0  0  0  0  0  0
   28.4365  -20.9355  -12.2685 C   0  0  0  0  0  0  0  0  0  0  0  0
   29.5145  -21.0547  -11.2943 N   0  0  0  0  0  0  0  0  0  0  0  0
   24.4424  -18.3209  -14.4100 C   0  0  0  0  0  0  0  0  0  0  0  0
   23.7845  -17.7290  -13.5062 O   0  0  0  0  0  0  0  0  0  0  0  0
   20.5579  -21.4812  -13.5729 N   0  0  0  0  0  0  0  0  0  0  0  0
   20.5305  -21.0358  -14.9196 C   0  0  0  0  0  0  0  0  0  0  0  0
   19.5011  -21.2782  -15.5947 O   0  0  0  0  0  0  0  0  0  0  0  0
   21.7089  -20.3180  -15.4421 C   0  0  0  0  0  0  0  0  0  0  0  0
   22.7312  -20.1874  -14.3645 C   0  0  2  0  0  0  0  0  0  0  0  0
   23.9593  -19.5703  -14.8486 N   0  0  0  0  0  0  0  0  0  0  0  0
   23.0793  -21.4573  -13.7150 C   0  0  0  0  0  0  0  0  0  0  0  0
   22.4025  -21.8887  -12.5955 O   0  0  0  0  0  0  0  0  0  0  0  0
   24.0009  -22.1640  -14.1747 O   0  0  0  0  0  0  0  0  0  0  0  0
  2  1  1  0
  3  2  1  0
  4  3  1  0
  4  5  1  0
  5  7  1  0
  5  6  1  6
  7  8  2  0
  9 10  1  0
  9  7  1  0
 10 11  1  1
 12 11  1  0
 13 14  1  0
 13 12  1  0
 15 14  1  0
 16 17  2  0
 16 10  1  0
 18 19  1  0
 19 21  1  0
 20 19  2  0
 22 21  1  6
 22 23  1  0
 22 24  1  0
 23 16  1  0
 24 25  1  0
 26 24  2  0
M  END
$$$$
