MKN.pdb
     RDKit          3D

 26 25  0  0  1  0  0  0  0  0999 V2000
   24.2808  -14.0007  -16.4506 C   0  0  0  0  0  0  0  0  0  0  0  0
   25.9012  -13.4242  -15.8560 S   0  0  0  0  0  0  0  0  0  0  0  0
   26.9834  -14.8895  -15.6863 C   0  0  0  0  0  0  0  0  0  0  0  0
   26.1276  -16.1153  -15.6654 C   0  0  0  0  0  0  0  0  0  0  0  0
   26.9045  -17.4015  -15.5414 C   0  0  2  0  0  0  0  0  0  0  0  0
   27.8501  -17.5537  -16.6117 N   0  0  0  0  0  0  0  0  0  0  0  0
   25.9427  -18.5285  -15.4674 C   0  0  0  0  0  0  0  0  0  0  0  0
   25.5215  -19.0740  -16.5075 O   0  0  0  0  0  0  0  0  0  0  0  0
   25.4554  -19.0377  -14.2029 N   0  0  0  0  0  0  0  0  0  0  0  0
   24.5632  -20.1479  -14.1454 C   0  0  1  0  0  0  0  0  0  0  0  0
   25.0040  -21.4038  -13.5252 C   0  0  0  0  0  0  0  0  0  0  0  0
   25.7043  -22.4496  -14.2737 C   0  0  0  0  0  0  0  0  0  0  0  0
   25.1914  -22.7841  -15.6309 C   0  0  0  0  0  0  0  0  0  0  0  0
   26.0695  -23.8728  -16.2549 C   0  0  0  0  0  0  0  0  0  0  0  0
   25.3517  -25.1418  -16.2499 N   0  0  0  0  0  0  0  0  0  0  0  0
   23.2021  -19.7149  -13.6580 C   0  0  0  0  0  0  0  0  0  0  0  0
   23.0622  -18.6931  -12.9256 O   0  0  0  0  0  0  0  0  0  0  0  0
   18.7661  -16.8887  -13.3530 N   0  0  0  0  0  0  0  0  0  0  0  0
   19.0365  -18.2293  -13.7301 C   0  0  0  0  0  0  0  0  0  0  0  0
   18.0751  -19.0350  -13.7547 O   0  0  0  0  0  0  0  0  0  0  0  0
   20.4257  -18.5931  -14.0688 C   0  0  0  0  0  0  0  0  0  0  0  0
   20.6859  -20.0029  -13.6586 C   0  0  2  0  0  0  0  0  0  0  0  0
   22.0366  -20.4304  -13.9994 N   0  0  0  0  0  0  0  0  0  0  0  0
   19.7398  -20.9731  -14.2236 C   0  0  0  0  0  0  0  0  0  0  0  0
   18.5042  -21.1741  -13.6490 O   0  0  0  0  0  0  0  0  0  0  0  0
   20.0494  -21.6319  -15.2386 O   0  0  0  0  0  0  0  0  0  0  0  0
  2  1  1  0
  3  2  1  0
  4  3  1  0
  4  5  1  0
  5  7  1  0
  5  6  1  6
  7  8  2  0
  9 10  1  0
  9  7  1  0
 10 11  1  1
 12 11  1  0
 13 14  1  0
 13 12  1  0
 15 14  1  0
 16 17  2  0
 16 10  1  0
 18 19  1  0
 19 21  1  0
 20 19  2  0
 22 21  1  6
 22 23  1  0
 22 24  1  0
 23 16  1  0
 24 25  1  0
 26 24  2  0
M  END
$$$$
