MKN.pdb
     RDKit          3D

 26 25  0  0  1  0  0  0  0  0999 V2000
   15.6826  -14.4350  -16.5010 C   0  0  0  0  0  0  0  0  0  0  0  0
   16.2321  -14.1774  -18.2166 S   0  0  0  0  0  0  0  0  0  0  0  0
   18.0299  -14.5109  -18.2793 C   0  0  0  0  0  0  0  0  0  0  0  0
   18.7316  -13.5094  -17.4191 C   0  0  0  0  0  0  0  0  0  0  0  0
   20.2230  -13.7138  -17.3348 C   0  0  2  0  0  0  0  0  0  0  0  0
   20.5505  -15.0096  -16.8088 N   0  0  0  0  0  0  0  0  0  0  0  0
   20.8060  -12.6103  -16.5330 C   0  0  0  0  0  0  0  0  0  0  0  0
   20.3086  -12.2917  -15.4340 O   0  0  0  0  0  0  0  0  0  0  0  0
   21.9609  -11.8631  -16.9841 N   0  0  0  0  0  0  0  0  0  0  0  0
   22.4998  -10.7934  -16.2111 C   0  0  1  0  0  0  0  0  0  0  0  0
   23.9524  -10.5819  -16.1753 C   0  0  0  0  0  0  0  0  0  0  0  0
   24.8674  -11.5061  -15.5022 C   0  0  0  0  0  0  0  0  0  0  0  0
   25.8016  -12.2914  -16.3550 C   0  0  0  0  0  0  0  0  0  0  0  0
   26.6818  -13.1766  -15.4678 C   0  0  0  0  0  0  0  0  0  0  0  0
   27.5487  -13.9980  -16.3040 N   0  0  0  0  0  0  0  0  0  0  0  0
   21.7405   -9.5144  -16.4665 C   0  0  0  0  0  0  0  0  0  0  0  0
   21.5042   -9.1157  -17.6435 O   0  0  0  0  0  0  0  0  0  0  0  0
   18.4838   -6.5711  -17.0000 N   0  0  0  0  0  0  0  0  0  0  0  0
   18.1688   -6.9787  -15.6781 C   0  0  0  0  0  0  0  0  0  0  0  0
   16.9678   -6.9232  -15.3197 O   0  0  0  0  0  0  0  0  0  0  0  0
   19.2679   -7.4410  -14.8090 C   0  0  0  0  0  0  0  0  0  0  0  0
   20.5407   -7.4654  -15.5854 C   0  0  2  0  0  0  0  0  0  0  0  0
   21.2661   -8.7164  -15.4058 N   0  0  0  0  0  0  0  0  0  0  0  0
   21.4512   -6.3566  -15.2737 C   0  0  0  0  0  0  0  0  0  0  0  0
   21.1228   -5.0586  -15.5970 O   0  0  0  0  0  0  0  0  0  0  0  0
   22.5421   -6.5819  -14.7086 O   0  0  0  0  0  0  0  0  0  0  0  0
  2  1  1  0
  3  2  1  0
  4  3  1  0
  4  5  1  0
  5  7  1  0
  5  6  1  1
  7  8  2  0
  9 10  1  0
  9  7  1  0
 10 11  1  6
 12 11  1  0
 13 14  1  0
 13 12  1  0
 15 14  1  0
 16 17  2  0
 16 10  1  0
 18 19  1  0
 19 21  1  0
 20 19  2  0
 22 21  1  1
 22 23  1  0
 22 24  1  0
 23 16  1  0
 24 25  1  0
 26 24  2  0
M  END
$$$$
