SCN.pdb
     RDKit          3D

 21 20  0  0  1  0  0  0  0  0999 V2000
    7.5314  -17.2734   20.3369 O   0  0  0  0  0  0  0  0  0  0  0  0
    6.9273  -16.4625   21.2935 C   0  0  0  0  0  0  0  0  0  0  0  0
    7.4105  -15.0418   21.1021 C   0  0  2  0  0  0  0  0  0  0  0  0
    8.3293  -14.9883   19.9859 N   0  0  0  0  0  0  0  0  0  0  0  0
    8.1058  -14.6259   22.3199 C   0  0  0  0  0  0  0  0  0  0  0  0
    9.3437  -14.7805   22.4388 O   0  0  0  0  0  0  0  0  0  0  0  0
    7.4020  -14.0260   23.4243 N   0  0  0  0  0  0  0  0  0  0  0  0
    7.9683  -13.9714   24.7431 C   0  0  1  0  0  0  0  0  0  0  0  0
    7.0829  -13.2418   25.7252 C   0  0  0  0  0  0  0  0  0  0  0  0
    7.9445  -13.0080   27.2927 S   0  0  0  0  0  0  0  0  0  0  0  0
    8.2826  -15.3204   25.2775 C   0  0  0  0  0  0  0  0  0  0  0  0
    7.4347  -16.2383   25.3159 O   0  0  0  0  0  0  0  0  0  0  0  0
    9.8869  -18.3609   23.9303 N   0  0  0  0  0  0  0  0  0  0  0  0
   11.1910  -18.0173   24.4025 C   0  0  0  0  0  0  0  0  0  0  0  0
   12.1416  -18.4197   23.7000 O   0  0  0  0  0  0  0  0  0  0  0  0
   11.2599  -17.2445   25.6369 C   0  0  0  0  0  0  0  0  0  0  0  0
    9.9761  -16.8975   26.2997 C   0  0  2  0  0  0  0  0  0  0  0  0
    9.5819  -15.5883   25.7624 N   0  0  0  0  0  0  0  0  0  0  0  0
   10.0087  -16.7707   27.7595 C   0  0  0  0  0  0  0  0  0  0  0  0
    9.8943  -17.7800   28.4814 O   0  0  0  0  0  0  0  0  0  0  0  0
   10.1656  -15.5445   28.3585 O   0  0  0  0  0  0  0  0  0  0  0  0
  1  2  1  0
  2  3  1  0
  3  4  1  6
  5  7  1  0
  5  3  1  0
  6  5  2  0
  8  9  1  1
  8 11  1  0
  8  7  1  0
 10  9  1  0
 11 12  2  0
 13 14  1  0
 14 16  1  0
 15 14  2  0
 17 16  1  6
 17 19  1  0
 18 17  1  0
 18 11  1  0
 19 20  2  0
 19 21  1  0
M  END
$$$$
