SCN.pdb
     RDKit          3D

 21 20  0  0  1  0  0  0  0  0999 V2000
   -2.3250  -24.9123   22.4242 O   0  0  0  0  0  0  0  0  0  0  0  0
   -2.5781  -25.9783   23.2828 C   0  0  0  0  0  0  0  0  0  0  0  0
   -3.9609  -25.8100   23.8727 C   0  0  2  0  0  0  0  0  0  0  0  0
   -4.9268  -25.6518   22.8071 N   0  0  0  0  0  0  0  0  0  0  0  0
   -3.9608  -24.6082   24.7062 C   0  0  0  0  0  0  0  0  0  0  0  0
   -3.2146  -24.5207   25.7092 O   0  0  0  0  0  0  0  0  0  0  0  0
   -4.8118  -23.4840   24.4111 N   0  0  0  0  0  0  0  0  0  0  0  0
   -4.7737  -22.2797   25.1928 C   0  0  1  0  0  0  0  0  0  0  0  0
   -5.4568  -21.1206   24.5069 C   0  0  0  0  0  0  0  0  0  0  0  0
   -5.3012  -19.6234   25.5009 S   0  0  0  0  0  0  0  0  0  0  0  0
   -5.3640  -22.4653   26.5424 C   0  0  0  0  0  0  0  0  0  0  0  0
   -4.9546  -21.8374   27.5430 O   0  0  0  0  0  0  0  0  0  0  0  0
   -7.9713  -23.4517   30.6372 N   0  0  0  0  0  0  0  0  0  0  0  0
   -8.2924  -22.3707   29.7597 C   0  0  0  0  0  0  0  0  0  0  0  0
   -8.9229  -21.4255   30.2775 O   0  0  0  0  0  0  0  0  0  0  0  0
   -7.8511  -22.4953   28.3756 C   0  0  0  0  0  0  0  0  0  0  0  0
   -7.0177  -23.6748   28.0265 C   0  0  2  0  0  0  0  0  0  0  0  0
   -6.4259  -23.3806   26.7145 N   0  0  0  0  0  0  0  0  0  0  0  0
   -7.7188  -24.9561   27.9040 C   0  0  0  0  0  0  0  0  0  0  0  0
   -7.4252  -25.9079   28.6528 O   0  0  0  0  0  0  0  0  0  0  0  0
   -8.7082  -25.1330   26.9677 O   0  0  0  0  0  0  0  0  0  0  0  0
  1  2  1  0
  2  3  1  0
  3  4  1  6
  5  7  1  0
  5  3  1  0
  6  5  2  0
  8  9  1  6
  8 11  1  0
  8  7  1  0
 10  9  1  0
 11 12  2  0
 13 14  1  0
 14 16  1  0
 15 14  2  0
 17 16  1  6
 17 19  1  0
 18 17  1  0
 18 11  1  0
 19 20  2  0
 19 21  1  0
M  END
$$$$
