SCN.pdb
     RDKit          3D

 21 20  0  0  1  0  0  0  0  0999 V2000
    7.6925  -15.5891   15.8247 O   0  0  0  0  0  0  0  0  0  0  0  0
    8.3585  -15.3253   17.0181 C   0  0  0  0  0  0  0  0  0  0  0  0
    7.7213  -14.1207   17.6748 C   0  0  2  0  0  0  0  0  0  0  0  0
    8.0854  -12.9233   16.9488 N   0  0  0  0  0  0  0  0  0  0  0  0
    8.2239  -14.0258   19.0450 C   0  0  0  0  0  0  0  0  0  0  0  0
    9.3578  -13.5482   19.2830 O   0  0  0  0  0  0  0  0  0  0  0  0
    7.4426  -14.4740   20.1691 N   0  0  0  0  0  0  0  0  0  0  0  0
    7.9730  -14.4848   21.5038 C   0  0  1  0  0  0  0  0  0  0  0  0
    6.8918  -14.5066   22.5579 C   0  0  0  0  0  0  0  0  0  0  0  0
    7.6235  -14.5332   24.2065 S   0  0  0  0  0  0  0  0  0  0  0  0
    8.9008  -15.6212   21.7321 C   0  0  0  0  0  0  0  0  0  0  0  0
    8.6517  -16.7785   21.3301 O   0  0  0  0  0  0  0  0  0  0  0  0
   13.3161  -18.0835   23.0927 N   0  0  0  0  0  0  0  0  0  0  0  0
   13.5664  -16.7929   22.5331 C   0  0  0  0  0  0  0  0  0  0  0  0
   14.7594  -16.5468   22.2588 O   0  0  0  0  0  0  0  0  0  0  0  0
   12.4117  -15.9219   22.3488 C   0  0  0  0  0  0  0  0  0  0  0  0
   11.0771  -16.4707   22.7029 C   0  0  2  0  0  0  0  0  0  0  0  0
   10.1105  -15.3994   22.4266 N   0  0  0  0  0  0  0  0  0  0  0  0
   10.8860  -16.8721   24.0995 C   0  0  0  0  0  0  0  0  0  0  0  0
   10.9261  -18.0759   24.4192 O   0  0  0  0  0  0  0  0  0  0  0  0
   10.6608  -15.9357   25.0789 O   0  0  0  0  0  0  0  0  0  0  0  0
  1  2  1  0
  2  3  1  0
  3  4  1  6
  5  7  1  0
  5  3  1  0
  6  5  2  0
  8  9  1  1
  8 11  1  0
  8  7  1  0
 10  9  1  0
 11 12  2  0
 13 14  1  0
 14 16  1  0
 15 14  2  0
 17 16  1  1
 17 19  1  0
 18 17  1  0
 18 11  1  0
 19 20  2  0
 19 21  1  0
M  END
$$$$
