SCN.pdb
     RDKit          3D

 21 20  0  0  1  0  0  0  0  0999 V2000
    7.2779  -13.2468   17.6665 O   0  0  0  0  0  0  0  0  0  0  0  0
    7.9271  -13.0882   18.8875 C   0  0  0  0  0  0  0  0  0  0  0  0
    7.9058  -14.4089   19.6249 C   0  0  2  0  0  0  0  0  0  0  0  0
    6.5364  -14.8009   19.8783 N   0  0  0  0  0  0  0  0  0  0  0  0
    8.6013  -14.2337   20.8996 C   0  0  0  0  0  0  0  0  0  0  0  0
    9.8075  -13.8955   20.9335 O   0  0  0  0  0  0  0  0  0  0  0  0
    7.9338  -14.4410   22.1592 N   0  0  0  0  0  0  0  0  0  0  0  0
    8.6393  -14.3812   23.4088 C   0  0  1  0  0  0  0  0  0  0  0  0
    7.7561  -13.9451   24.5536 C   0  0  0  0  0  0  0  0  0  0  0  0
    6.3949  -15.1081   24.7740 S   0  0  0  0  0  0  0  0  0  0  0  0
    9.2841  -15.6732   23.7540 C   0  0  0  0  0  0  0  0  0  0  0  0
    8.8056  -16.7737   23.4035 O   0  0  0  0  0  0  0  0  0  0  0  0
   14.6326  -17.6543   23.4226 N   0  0  0  0  0  0  0  0  0  0  0  0
   13.7462  -17.4684   24.5277 C   0  0  0  0  0  0  0  0  0  0  0  0
   13.9646  -18.1927   25.5211 O   0  0  0  0  0  0  0  0  0  0  0  0
   12.7003  -16.4651   24.3691 C   0  0  0  0  0  0  0  0  0  0  0  0
   11.3071  -16.8727   24.6863 C   0  0  2  0  0  0  0  0  0  0  0  0
   10.4807  -15.6718   24.5046 N   0  0  0  0  0  0  0  0  0  0  0  0
   11.0634  -17.3601   26.0468 C   0  0  0  0  0  0  0  0  0  0  0  0
   11.0756  -18.5825   26.2888 O   0  0  0  0  0  0  0  0  0  0  0  0
   10.8187  -16.4853   27.0772 O   0  0  0  0  0  0  0  0  0  0  0  0
  1  2  1  0
  2  3  1  0
  3  4  1  1
  5  7  1  0
  5  3  1  0
  6  5  2  0
  8  9  1  1
  8 11  1  0
  8  7  1  0
 10  9  1  0
 11 12  2  0
 13 14  1  0
 14 16  1  0
 15 14  2  0
 17 16  1  1
 17 19  1  0
 18 17  1  0
 18 11  1  0
 19 20  2  0
 19 21  1  0
M  END
$$$$
