SCN.pdb
     RDKit          3D

 21 20  0  0  1  0  0  0  0  0999 V2000
    5.3979  -19.3175   22.2534 O   0  0  0  0  0  0  0  0  0  0  0  0
    4.7404  -18.3051   21.5604 C   0  0  0  0  0  0  0  0  0  0  0  0
    5.3505  -18.1842   20.1814 C   0  0  2  0  0  0  0  0  0  0  0  0
    5.4062  -19.4893   19.5595 N   0  0  0  0  0  0  0  0  0  0  0  0
    6.7083  -17.6597   20.3250 C   0  0  0  0  0  0  0  0  0  0  0  0
    7.7032  -18.4164   20.2355 O   0  0  0  0  0  0  0  0  0  0  0  0
    6.9563  -16.2627   20.5734 N   0  0  0  0  0  0  0  0  0  0  0  0
    8.2883  -15.7415   20.7029 C   0  0  1  0  0  0  0  0  0  0  0  0
    8.3967  -14.3058   20.2472 C   0  0  0  0  0  0  0  0  0  0  0  0
    7.1628  -13.2880   21.0813 S   0  0  0  0  0  0  0  0  0  0  0  0
    8.8048  -15.8538   22.0903 C   0  0  0  0  0  0  0  0  0  0  0  0
    8.0491  -15.8610   23.0862 O   0  0  0  0  0  0  0  0  0  0  0  0
   12.5358  -18.2383   24.4070 N   0  0  0  0  0  0  0  0  0  0  0  0
   11.1443  -18.5453   24.5135 C   0  0  0  0  0  0  0  0  0  0  0  0
   10.8755  -19.6756   24.9709 O   0  0  0  0  0  0  0  0  0  0  0  0
   10.2093  -17.5139   24.0802 C   0  0  0  0  0  0  0  0  0  0  0  0
   10.7803  -16.2188   23.6279 C   0  0  2  0  0  0  0  0  0  0  0  0
   10.1970  -15.9570   22.3053 N   0  0  0  0  0  0  0  0  0  0  0  0
   12.2368  -16.1662   23.4732 C   0  0  0  0  0  0  0  0  0  0  0  0
   12.9790  -16.2560   24.4701 O   0  0  0  0  0  0  0  0  0  0  0  0
   12.8105  -16.0185   22.2338 O   0  0  0  0  0  0  0  0  0  0  0  0
  1  2  1  0
  2  3  1  0
  3  4  1  1
  5  7  1  0
  5  3  1  0
  6  5  2  0
  8  9  1  1
  8 11  1  0
  8  7  1  0
 10  9  1  0
 11 12  2  0
 13 14  1  0
 14 16  1  0
 15 14  2  0
 17 16  1  6
 17 19  1  0
 18 17  1  0
 18 11  1  0
 19 20  2  0
 19 21  1  0
M  END
$$$$
