SCN.pdb
     RDKit          3D

 21 20  0  0  1  0  0  0  0  0999 V2000
    7.3096  -16.5285   20.8580 O   0  0  0  0  0  0  0  0  0  0  0  0
    6.3152  -15.5623   20.9797 C   0  0  0  0  0  0  0  0  0  0  0  0
    6.9683  -14.2008   21.0702 C   0  0  2  0  0  0  0  0  0  0  0  0
    7.8631  -14.0166   19.9483 N   0  0  0  0  0  0  0  0  0  0  0  0
    7.7356  -14.1420   22.3140 C   0  0  0  0  0  0  0  0  0  0  0  0
    8.9736  -14.3367   22.3163 O   0  0  0  0  0  0  0  0  0  0  0  0
    7.1050  -13.8601   23.5781 N   0  0  0  0  0  0  0  0  0  0  0  0
    7.8432  -13.8645   24.8101 C   0  0  1  0  0  0  0  0  0  0  0  0
    7.1240  -13.1358   25.9202 C   0  0  0  0  0  0  0  0  0  0  0  0
    8.2090  -12.9400   27.3480 S   0  0  0  0  0  0  0  0  0  0  0  0
    8.1754  -15.2388   25.2630 C   0  0  0  0  0  0  0  0  0  0  0  0
    7.3167  -16.1446   25.3351 O   0  0  0  0  0  0  0  0  0  0  0  0
   12.2446  -16.5849   23.3014 N   0  0  0  0  0  0  0  0  0  0  0  0
   11.2639  -17.3313   24.0245 C   0  0  0  0  0  0  0  0  0  0  0  0
   10.5310  -18.0691   23.3335 O   0  0  0  0  0  0  0  0  0  0  0  0
   11.2331  -17.1469   25.4705 C   0  0  0  0  0  0  0  0  0  0  0  0
    9.9137  -16.8764   26.0980 C   0  0  2  0  0  0  0  0  0  0  0  0
    9.5049  -15.5459   25.6278 N   0  0  0  0  0  0  0  0  0  0  0  0
    9.8822  -16.8427   27.5629 C   0  0  0  0  0  0  0  0  0  0  0  0
    9.7051  -15.7655   28.1638 O   0  0  0  0  0  0  0  0  0  0  0  0
   10.0458  -17.9907   28.2993 O   0  0  0  0  0  0  0  0  0  0  0  0
  1  2  1  0
  2  3  1  0
  3  4  1  6
  5  7  1  0
  5  3  1  0
  6  5  2  0
  8  9  1  1
  8 11  1  0
  8  7  1  0
 10  9  1  0
 11 12  2  0
 13 14  1  0
 14 16  1  0
 15 14  2  0
 17 16  1  1
 17 19  1  0
 18 17  1  0
 18 11  1  0
 19 20  2  0
 19 21  1  0
M  END
$$$$
