SCN.pdb
     RDKit          3D

 21 20  0  0  1  0  0  0  0  0999 V2000
    8.1103  -15.4144   18.6217 O   0  0  0  0  0  0  0  0  0  0  0  0
    6.9950  -14.5970   18.7811 C   0  0  0  0  0  0  0  0  0  0  0  0
    7.4375  -13.2828   19.3857 C   0  0  2  0  0  0  0  0  0  0  0  0
    8.4259  -12.6635   18.5298 N   0  0  0  0  0  0  0  0  0  0  0  0
    8.0347  -13.5572   20.6924 C   0  0  0  0  0  0  0  0  0  0  0  0
    9.2605  -13.7929   20.8030 O   0  0  0  0  0  0  0  0  0  0  0  0
    7.2447  -13.5678   21.8969 N   0  0  0  0  0  0  0  0  0  0  0  0
    7.8014  -13.9515   23.1641 C   0  0  1  0  0  0  0  0  0  0  0  0
    6.8185  -13.7979   24.3003 C   0  0  0  0  0  0  0  0  0  0  0  0
    7.6100  -14.1933   25.8723 S   0  0  0  0  0  0  0  0  0  0  0  0
    8.3216  -15.3420   23.1530 C   0  0  0  0  0  0  0  0  0  0  0  0
    7.7842  -16.2514   22.4843 O   0  0  0  0  0  0  0  0  0  0  0  0
   11.8671  -18.7108   21.3563 N   0  0  0  0  0  0  0  0  0  0  0  0
   12.0645  -17.9484   22.5485 C   0  0  0  0  0  0  0  0  0  0  0  0
   12.9978  -18.3312   23.2844 O   0  0  0  0  0  0  0  0  0  0  0  0
   11.1627  -16.8234   22.7654 C   0  0  0  0  0  0  0  0  0  0  0  0
   10.1415  -16.9613   23.8358 C   0  0  2  0  0  0  0  0  0  0  0  0
    9.4634  -15.6609   23.9209 N   0  0  0  0  0  0  0  0  0  0  0  0
   10.6408  -17.2742   25.1778 C   0  0  0  0  0  0  0  0  0  0  0  0
   10.7701  -18.4593   25.5405 O   0  0  0  0  0  0  0  0  0  0  0  0
   10.9751  -16.2739   26.0579 O   0  0  0  0  0  0  0  0  0  0  0  0
  1  2  1  0
  2  3  1  0
  3  4  1  6
  5  7  1  0
  5  3  1  0
  6  5  2  0
  8  9  1  1
  8 11  1  0
  8  7  1  0
 10  9  1  0
 11 12  2  0
 13 14  1  0
 14 16  1  0
 15 14  2  0
 17 16  1  6
 17 19  1  0
 18 17  1  0
 18 11  1  0
 19 20  2  0
 19 21  1  0
M  END
$$$$
