SCN.pdb
     RDKit          3D

 21 20  0  0  1  0  0  0  0  0999 V2000
   10.0956  -18.2865   15.5022 O   0  0  0  0  0  0  0  0  0  0  0  0
    9.0304  -17.5541   16.0184 C   0  0  0  0  0  0  0  0  0  0  0  0
    9.2285  -16.0956   15.6693 C   0  0  2  0  0  0  0  0  0  0  0  0
   10.2584  -15.9738   14.6606 N   0  0  0  0  0  0  0  0  0  0  0  0
    9.6507  -15.3880   16.8778 C   0  0  0  0  0  0  0  0  0  0  0  0
   10.8660  -15.2333   17.1416 O   0  0  0  0  0  0  0  0  0  0  0  0
    8.6945  -14.8438   17.8077 N   0  0  0  0  0  0  0  0  0  0  0  0
    9.1011  -14.2445   19.0480 C   0  0  1  0  0  0  0  0  0  0  0  0
    7.9565  -13.5777   19.7731 C   0  0  0  0  0  0  0  0  0  0  0  0
    7.1298  -12.3967   18.6886 S   0  0  0  0  0  0  0  0  0  0  0  0
    9.7536  -15.2198   19.9576 C   0  0  0  0  0  0  0  0  0  0  0  0
    9.4026  -16.4183   20.0154 O   0  0  0  0  0  0  0  0  0  0  0  0
   14.2471  -16.3670   20.3175 N   0  0  0  0  0  0  0  0  0  0  0  0
   13.7782  -15.0957   20.7710 C   0  0  0  0  0  0  0  0  0  0  0  0
   14.2038  -14.1073   20.1378 O   0  0  0  0  0  0  0  0  0  0  0  0
   12.8663  -15.0999   21.9087 C   0  0  0  0  0  0  0  0  0  0  0  0
   11.5203  -15.6954   21.7048 C   0  0  2  0  0  0  0  0  0  0  0  0
   10.8093  -14.7902   20.7919 N   0  0  0  0  0  0  0  0  0  0  0  0
   10.6847  -15.8441   22.8997 C   0  0  0  0  0  0  0  0  0  0  0  0
    9.6844  -15.1190   23.0620 O   0  0  0  0  0  0  0  0  0  0  0  0
   10.9845  -16.7804   23.8591 O   0  0  0  0  0  0  0  0  0  0  0  0
  1  2  1  0
  2  3  1  0
  3  4  1  6
  5  7  1  0
  5  3  1  0
  6  5  2  0
  8  9  1  1
  8 11  1  0
  8  7  1  0
 10  9  1  0
 11 12  2  0
 13 14  1  0
 14 16  1  0
 15 14  2  0
 17 16  1  1
 17 19  1  0
 18 17  1  0
 18 11  1  0
 19 20  2  0
 19 21  1  0
M  END
$$$$
