NYV.pdb
     RDKit          3D

 28 28  0  0  1  0  0  0  0  0999 V2000
   18.6993  -11.2445  -21.0732 N   0  0  0  0  0  0  0  0  0  0  0  0
   17.9432  -10.3755  -20.2478 C   0  0  0  0  0  0  0  0  0  0  0  0
   16.8774   -9.8557  -20.6851 O   0  0  0  0  0  0  0  0  0  0  0  0
   18.3541  -10.0453  -18.8778 C   0  0  0  0  0  0  0  0  0  0  0  0
   19.6853  -10.6892  -18.5164 C   0  0  2  0  0  0  0  0  0  0  0  0
   19.5085  -12.1242  -18.3853 N   0  0  0  0  0  0  0  0  0  0  0  0
   20.1960  -10.1674  -17.2288 C   0  0  0  0  0  0  0  0  0  0  0  0
   19.5539  -10.3677  -16.1819 O   0  0  0  0  0  0  0  0  0  0  0  0
   23.2203  -15.3980  -15.6117 O   0  0  0  0  0  0  0  0  0  0  0  0
   23.2762  -14.0236  -15.6522 C   0  0  0  0  0  0  0  0  0  0  0  0
   23.3063  -13.2364  -14.5112 C   0  0  0  0  0  0  0  0  0  0  0  0
   23.3620  -11.8628  -14.5785 C   0  0  0  0  0  0  0  0  0  0  0  0
   23.3899  -11.2077  -15.7938 C   0  0  0  0  0  0  0  0  0  0  0  0
   23.4219   -9.7436  -15.9293 C   0  0  0  0  0  0  0  0  0  0  0  0
   22.0918   -9.0669  -15.9596 C   0  0  2  0  0  0  0  0  0  0  0  0
   21.4161   -9.4463  -17.2260 N   0  0  0  0  0  0  0  0  0  0  0  0
   22.1557   -7.5773  -15.8771 C   0  0  0  0  0  0  0  0  0  0  0  0
   22.5186   -6.9644  -16.9067 O   0  0  0  0  0  0  0  0  0  0  0  0
   23.3574  -12.0283  -16.9296 C   0  0  0  0  0  0  0  0  0  0  0  0
   23.3032  -13.3833  -16.8579 C   0  0  0  0  0  0  0  0  0  0  0  0
   20.7625   -3.1674  -14.7985 C   0  0  0  0  0  0  0  0  0  0  0  0
   20.6667   -4.6322  -14.8961 C   0  0  2  0  0  0  0  0  0  0  0  0
   19.4164   -5.1699  -14.2599 C   0  0  0  0  0  0  0  0  0  0  0  0
   21.8340   -5.4595  -14.4556 C   0  0  2  0  0  0  0  0  0  0  0  0
   21.8331   -6.8515  -14.7297 N   0  0  0  0  0  0  0  0  0  0  0  0
   22.3135   -5.1179  -13.1062 C   0  0  0  0  0  0  0  0  0  0  0  0
   22.2985   -5.9665  -12.1490 O   0  0  0  0  0  0  0  0  0  0  0  0
   22.8038   -3.8615  -12.7999 O   0  0  0  0  0  0  0  0  0  0  0  0
  2  1  1  0
  3  2  2  0
  4  5  1  0
  4  2  1  0
  5  7  1  0
  5  6  1  1
  7  8  2  0
  9 10  1  0
 10 11  2  0
 11 12  1  0
 13 12  2  0
 13 14  1  0
 15 14  1  6
 15 17  1  0
 16  7  1  0
 16 15  1  0
 17 25  1  0
 18 17  2  0
 19 13  1  0
 20 10  1  0
 20 19  2  0
 22 21  1  1
 22 23  1  0
 24 26  1  0
 24 22  1  0
 24 25  1  1
 26 28  1  0
 27 26  2  0
M  END
$$$$
