NYV.pdb
     RDKit          3D

 28 28  0  0  1  0  0  0  0  0999 V2000
   17.9580   -3.7391  -15.2881 N   0  0  0  0  0  0  0  0  0  0  0  0
   17.8274   -4.4217  -16.5230 C   0  0  0  0  0  0  0  0  0  0  0  0
   16.6805   -4.6417  -17.0061 O   0  0  0  0  0  0  0  0  0  0  0  0
   18.9919   -4.8951  -17.2810 C   0  0  0  0  0  0  0  0  0  0  0  0
   20.3003   -4.5243  -16.5967 C   0  0  2  0  0  0  0  0  0  0  0  0
   20.6251   -3.1405  -16.8922 N   0  0  0  0  0  0  0  0  0  0  0  0
   21.4124   -5.3730  -17.0806 C   0  0  0  0  0  0  0  0  0  0  0  0
   21.9709   -5.1048  -18.1596 O   0  0  0  0  0  0  0  0  0  0  0  0
   27.7532  -11.6314  -15.9928 O   0  0  0  0  0  0  0  0  0  0  0  0
   26.8196  -10.6233  -15.9189 C   0  0  0  0  0  0  0  0  0  0  0  0
   26.9278   -9.4416  -16.6360 C   0  0  0  0  0  0  0  0  0  0  0  0
   25.9800   -8.4478  -16.5446 C   0  0  0  0  0  0  0  0  0  0  0  0
   24.8748   -8.5877  -15.7286 C   0  0  0  0  0  0  0  0  0  0  0  0
   23.8439   -7.5510  -15.5688 C   0  0  0  0  0  0  0  0  0  0  0  0
   22.9091   -7.3844  -16.7205 C   0  0  2  0  0  0  0  0  0  0  0  0
   21.8132   -6.4795  -16.2910 N   0  0  0  0  0  0  0  0  0  0  0  0
   22.3118   -8.6589  -17.2193 C   0  0  0  0  0  0  0  0  0  0  0  0
   21.4444   -9.2024  -16.4983 O   0  0  0  0  0  0  0  0  0  0  0  0
   24.7920   -9.7913  -15.0152 C   0  0  0  0  0  0  0  0  0  0  0  0
   25.7296  -10.7692  -15.1095 C   0  0  0  0  0  0  0  0  0  0  0  0
   20.9093  -11.6230  -20.8798 C   0  0  0  0  0  0  0  0  0  0  0  0
   21.5811  -10.4142  -20.3779 C   0  0  2  0  0  0  0  0  0  0  0  0
   22.5283   -9.8238  -21.3836 C   0  0  0  0  0  0  0  0  0  0  0  0
   22.2573  -10.4696  -19.0434 C   0  0  2  0  0  0  0  0  0  0  0  0
   22.6663   -9.2582  -18.4287 N   0  0  0  0  0  0  0  0  0  0  0  0
   23.2451  -11.5559  -18.9360 C   0  0  0  0  0  0  0  0  0  0  0  0
   24.4908  -11.3599  -19.1514 O   0  0  0  0  0  0  0  0  0  0  0  0
   22.8801  -12.8465  -18.5987 O   0  0  0  0  0  0  0  0  0  0  0  0
  2  1  1  0
  3  2  2  0
  4  5  1  0
  4  2  1  0
  5  7  1  0
  5  6  1  6
  7  8  2  0
  9 10  1  0
 10 11  2  0
 11 12  1  0
 13 12  2  0
 13 14  1  0
 15 14  1  1
 15 17  1  0
 16  7  1  0
 16 15  1  0
 17 25  1  0
 18 17  2  0
 19 13  1  0
 20 10  1  0
 20 19  2  0
 22 21  1  6
 22 23  1  0
 24 26  1  0
 24 22  1  0
 24 25  1  6
 26 28  1  0
 27 26  2  0
M  END
$$$$
