NYV.pdb
     RDKit          3D

 28 28  0  0  1  0  0  0  0  0999 V2000
   26.7694  -12.6011  -15.7274 N   0  0  0  0  0  0  0  0  0  0  0  0
   26.9812  -11.3163  -16.2866 C   0  0  0  0  0  0  0  0  0  0  0  0
   28.1574  -10.8995  -16.4868 O   0  0  0  0  0  0  0  0  0  0  0  0
   25.8693  -10.4296  -16.6501 C   0  0  0  0  0  0  0  0  0  0  0  0
   24.5277  -10.9929  -16.2027 C   0  0  2  0  0  0  0  0  0  0  0  0
   24.2111  -12.1707  -16.9902 N   0  0  0  0  0  0  0  0  0  0  0  0
   23.4443  -10.0031  -16.3963 C   0  0  0  0  0  0  0  0  0  0  0  0
   22.9859   -9.8027  -17.5356 O   0  0  0  0  0  0  0  0  0  0  0  0
   17.5200  -12.9350  -17.1110 O   0  0  0  0  0  0  0  0  0  0  0  0
   18.3059  -12.0081  -16.4654 C   0  0  0  0  0  0  0  0  0  0  0  0
   19.1285  -12.3307  -15.3969 C   0  0  0  0  0  0  0  0  0  0  0  0
   19.9053  -11.3846  -14.7676 C   0  0  0  0  0  0  0  0  0  0  0  0
   19.8967  -10.0659  -15.1771 C   0  0  0  0  0  0  0  0  0  0  0  0
   20.6830   -9.0062  -14.5278 C   0  0  0  0  0  0  0  0  0  0  0  0
   21.7733   -8.4099  -15.3547 C   0  0  2  0  0  0  0  0  0  0  0  0
   22.9548   -9.3043  -15.2646 N   0  0  0  0  0  0  0  0  0  0  0  0
   22.1797   -7.0342  -14.9399 C   0  0  0  0  0  0  0  0  0  0  0  0
   22.8332   -6.9290  -13.8771 O   0  0  0  0  0  0  0  0  0  0  0  0
   19.0555   -9.7687  -16.2582 C   0  0  0  0  0  0  0  0  0  0  0  0
   18.2916  -10.7060  -16.8762 C   0  0  0  0  0  0  0  0  0  0  0  0
   22.1792   -3.3583  -17.7200 C   0  0  0  0  0  0  0  0  0  0  0  0
   22.8958   -3.7421  -16.4937 C   0  0  2  0  0  0  0  0  0  0  0  0
   24.2007   -4.4286  -16.7818 C   0  0  0  0  0  0  0  0  0  0  0  0
   22.1595   -4.5131  -15.4428 C   0  0  2  0  0  0  0  0  0  0  0  0
   21.8738   -5.8842  -15.6689 N   0  0  0  0  0  0  0  0  0  0  0  0
   21.0432   -3.7622  -14.8448 C   0  0  0  0  0  0  0  0  0  0  0  0
   19.8338   -4.1715  -14.9253 O   0  0  0  0  0  0  0  0  0  0  0  0
   21.2410   -2.5736  -14.1659 O   0  0  0  0  0  0  0  0  0  0  0  0
  2  1  1  0
  3  2  2  0
  4  5  1  0
  4  2  1  0
  5  7  1  0
  5  6  1  6
  7  8  2  0
  9 10  1  0
 10 11  2  0
 11 12  1  0
 13 12  2  0
 13 14  1  0
 15 14  1  1
 15 17  1  0
 16  7  1  0
 16 15  1  0
 17 25  1  0
 18 17  2  0
 19 13  1  0
 20 10  1  0
 20 19  2  0
 22 21  1  6
 22 23  1  0
 24 26  1  0
 24 22  1  0
 24 25  1  6
 26 28  1  0
 27 26  2  0
M  END
$$$$
