NYV.pdb
     RDKit          3D

 28 28  0  0  1  0  0  0  0  0999 V2000
   29.2180  -22.3791  -20.6116 N   0  0  0  0  0  0  0  0  0  0  0  0
   28.9448  -21.6383  -19.4349 C   0  0  0  0  0  0  0  0  0  0  0  0
   29.5074  -20.5227  -19.2447 O   0  0  0  0  0  0  0  0  0  0  0  0
   28.0173  -22.1218  -18.4050 C   0  0  0  0  0  0  0  0  0  0  0  0
   28.7033  -22.2776  -17.0550 C   0  0  2  0  0  0  0  0  0  0  0  0
   29.5159  -23.4807  -17.0616 N   0  0  0  0  0  0  0  0  0  0  0  0
   27.7096  -22.3978  -15.9644 C   0  0  0  0  0  0  0  0  0  0  0  0
   27.1264  -23.4805  -15.7756 O   0  0  0  0  0  0  0  0  0  0  0  0
   24.0426  -20.5183   -8.1092 O   0  0  0  0  0  0  0  0  0  0  0  0
   24.7473  -20.4809   -9.2906 C   0  0  0  0  0  0  0  0  0  0  0  0
   24.3123  -19.7818  -10.4060 C   0  0  0  0  0  0  0  0  0  0  0  0
   25.0359  -19.7601  -11.5767 C   0  0  0  0  0  0  0  0  0  0  0  0
   26.2330  -20.4391  -11.6891 C   0  0  0  0  0  0  0  0  0  0  0  0
   27.0363  -20.4754  -12.9206 C   0  0  0  0  0  0  0  0  0  0  0  0
   26.4896  -21.3171  -14.0256 C   0  0  2  0  0  0  0  0  0  0  0  0
   27.4486  -21.2622  -15.1576 N   0  0  0  0  0  0  0  0  0  0  0  0
   25.1440  -20.8937  -14.5153 C   0  0  0  0  0  0  0  0  0  0  0  0
   25.0919  -19.8547  -15.2120 O   0  0  0  0  0  0  0  0  0  0  0  0
   26.6475  -21.1375  -10.5468 C   0  0  0  0  0  0  0  0  0  0  0  0
   25.9303  -21.1552   -9.3938 C   0  0  0  0  0  0  0  0  0  0  0  0
   21.3692  -23.5138  -14.8823 C   0  0  0  0  0  0  0  0  0  0  0  0
   21.8493  -22.2356  -15.4302 C   0  0  2  0  0  0  0  0  0  0  0  0
   22.6140  -22.4107  -16.7116 C   0  0  0  0  0  0  0  0  0  0  0  0
   22.6068  -21.3081  -14.5319 C   0  0  2  0  0  0  0  0  0  0  0  0
   23.9663  -21.5902  -14.2406 N   0  0  0  0  0  0  0  0  0  0  0  0
   21.8273  -20.8616  -13.3654 C   0  0  0  0  0  0  0  0  0  0  0  0
   22.1920  -21.1258  -12.1680 O   0  0  0  0  0  0  0  0  0  0  0  0
   20.6585  -20.1348  -13.5008 O   0  0  0  0  0  0  0  0  0  0  0  0
  2  1  1  0
  3  2  2  0
  4  5  1  0
  4  2  1  0
  5  7  1  0
  5  6  1  6
  7  8  2  0
  9 10  1  0
 10 11  2  0
 11 12  1  0
 13 12  2  0
 13 14  1  0
 15 14  1  1
 15 17  1  0
 16  7  1  0
 16 15  1  0
 17 25  1  0
 18 17  2  0
 19 13  1  0
 20 10  1  0
 20 19  2  0
 22 21  1  1
 22 23  1  0
 24 26  1  0
 24 22  1  0
 24 25  1  1
 26 28  1  0
 27 26  2  0
M  END
$$$$
