NYV.pdb
     RDKit          3D

 28 28  0  0  1  0  0  0  0  0999 V2000
   17.5813   -9.2827  -17.0489 N   0  0  0  0  0  0  0  0  0  0  0  0
   16.4556   -9.5882  -16.2443 C   0  0  0  0  0  0  0  0  0  0  0  0
   15.3354   -9.8158  -16.7835 O   0  0  0  0  0  0  0  0  0  0  0  0
   16.5361   -9.6521  -14.7800 C   0  0  0  0  0  0  0  0  0  0  0  0
   17.9098   -9.2381  -14.2710 C   0  0  2  0  0  0  0  0  0  0  0  0
   18.8320  -10.3508  -14.4088 N   0  0  0  0  0  0  0  0  0  0  0  0
   17.8548   -8.8584  -12.8413 C   0  0  0  0  0  0  0  0  0  0  0  0
   17.6642   -9.7322  -11.9762 O   0  0  0  0  0  0  0  0  0  0  0  0
   22.6122   -4.8032  -15.0646 O   0  0  0  0  0  0  0  0  0  0  0  0
   21.8738   -5.3134  -14.0215 C   0  0  0  0  0  0  0  0  0  0  0  0
   21.7847   -6.6709  -13.7541 C   0  0  0  0  0  0  0  0  0  0  0  0
   21.0389   -7.1564  -12.7040 C   0  0  0  0  0  0  0  0  0  0  0  0
   20.3434   -6.3051  -11.8682 C   0  0  0  0  0  0  0  0  0  0  0  0
   19.5088   -6.7655  -10.7481 C   0  0  0  0  0  0  0  0  0  0  0  0
   18.0821   -7.0531  -11.0793 C   0  0  2  0  0  0  0  0  0  0  0  0
   18.0228   -7.4943  -12.4956 N   0  0  0  0  0  0  0  0  0  0  0  0
   17.1610   -5.8916  -10.8993 C   0  0  0  0  0  0  0  0  0  0  0  0
   17.0138   -5.1239  -11.8773 O   0  0  0  0  0  0  0  0  0  0  0  0
   20.4508   -4.9390  -12.1628 C   0  0  0  0  0  0  0  0  0  0  0  0
   21.1886   -4.4651  -13.1996 C   0  0  0  0  0  0  0  0  0  0  0  0
   14.6108   -5.0809   -7.0287 C   0  0  0  0  0  0  0  0  0  0  0  0
   14.3726   -5.0060   -8.4786 C   0  0  2  0  0  0  0  0  0  0  0  0
   13.7046   -6.2400   -9.0156 C   0  0  0  0  0  0  0  0  0  0  0  0
   15.5128   -4.6377   -9.3759 C   0  0  2  0  0  0  0  0  0  0  0  0
   16.4685   -5.6295   -9.7164 N   0  0  0  0  0  0  0  0  0  0  0  0
   16.1017   -3.3258   -9.0604 C   0  0  0  0  0  0  0  0  0  0  0  0
   17.3252   -3.2017   -8.7080 O   0  0  0  0  0  0  0  0  0  0  0  0
   15.3642   -2.1576   -9.1256 O   0  0  0  0  0  0  0  0  0  0  0  0
  2  1  1  0
  3  2  2  0
  4  5  1  0
  4  2  1  0
  5  7  1  0
  5  6  1  1
  7  8  2  0
  9 10  1  0
 10 11  2  0
 11 12  1  0
 13 12  2  0
 13 14  1  0
 15 14  1  6
 15 17  1  0
 16  7  1  0
 16 15  1  0
 17 25  1  0
 18 17  2  0
 19 13  1  0
 20 10  1  0
 20 19  2  0
 22 21  1  1
 22 23  1  0
 24 26  1  0
 24 22  1  0
 24 25  1  1
 26 28  1  0
 27 26  2  0
M  END
$$$$
