NYV.pdb
     RDKit          3D

 28 28  0  0  1  0  0  0  0  0999 V2000
   28.7955  -18.4715  -19.5514 N   0  0  0  0  0  0  0  0  0  0  0  0
   28.1224  -19.6961  -19.7863 C   0  0  0  0  0  0  0  0  0  0  0  0
   28.1591  -20.2287  -20.9318 O   0  0  0  0  0  0  0  0  0  0  0  0
   27.3674  -20.3869  -18.7339 C   0  0  0  0  0  0  0  0  0  0  0  0
   28.2690  -20.8320  -17.5909 C   0  0  2  0  0  0  0  0  0  0  0  0
   29.0475  -21.9836  -18.0097 N   0  0  0  0  0  0  0  0  0  0  0  0
   27.4722  -21.2197  -16.4053 C   0  0  0  0  0  0  0  0  0  0  0  0
   26.8567  -22.3011  -16.4003 O   0  0  0  0  0  0  0  0  0  0  0  0
   24.7943  -20.8316   -7.9122 O   0  0  0  0  0  0  0  0  0  0  0  0
   25.3965  -20.6020   -9.1280 C   0  0  0  0  0  0  0  0  0  0  0  0
   25.0817  -19.5174   -9.9323 C   0  0  0  0  0  0  0  0  0  0  0  0
   25.6987  -19.3099  -11.1451 C   0  0  0  0  0  0  0  0  0  0  0  0
   26.6629  -20.1801  -11.6141 C   0  0  0  0  0  0  0  0  0  0  0  0
   27.3367  -20.0262  -12.9123 C   0  0  0  0  0  0  0  0  0  0  0  0
   26.6479  -20.6549  -14.0778 C   0  0  2  0  0  0  0  0  0  0  0  0
   27.4333  -20.3372  -15.2970 N   0  0  0  0  0  0  0  0  0  0  0  0
   25.2403  -20.1997  -14.2812 C   0  0  0  0  0  0  0  0  0  0  0  0
   25.0751  -19.0624  -14.7779 O   0  0  0  0  0  0  0  0  0  0  0  0
   26.9600  -21.2675  -10.7811 C   0  0  0  0  0  0  0  0  0  0  0  0
   26.3489  -21.4673   -9.5849 C   0  0  0  0  0  0  0  0  0  0  0  0
   21.4787  -22.7421  -14.8164 C   0  0  0  0  0  0  0  0  0  0  0  0
   21.8753  -21.3389  -15.0124 C   0  0  2  0  0  0  0  0  0  0  0  0
   22.4718  -21.0947  -16.3696 C   0  0  0  0  0  0  0  0  0  0  0  0
   22.7339  -20.6834  -13.9760 C   0  0  2  0  0  0  0  0  0  0  0  0
   24.1234  -20.9691  -13.9528 N   0  0  0  0  0  0  0  0  0  0  0  0
   22.1106  -20.6455  -12.6428 C   0  0  0  0  0  0  0  0  0  0  0  0
   22.6673  -21.1779  -11.6215 O   0  0  0  0  0  0  0  0  0  0  0  0
   20.8895  -20.0345  -12.4228 O   0  0  0  0  0  0  0  0  0  0  0  0
  2  1  1  0
  3  2  2  0
  4  5  1  0
  4  2  1  0
  5  7  1  0
  5  6  1  6
  7  8  2  0
  9 10  1  0
 10 11  2  0
 11 12  1  0
 13 12  2  0
 13 14  1  0
 15 14  1  1
 15 17  1  0
 16  7  1  0
 16 15  1  0
 17 25  1  0
 18 17  2  0
 19 13  1  0
 20 10  1  0
 20 19  2  0
 22 21  1  1
 22 23  1  0
 24 26  1  0
 24 22  1  0
 24 25  1  1
 26 28  1  0
 27 26  2  0
M  END
$$$$
