NYV.pdb
     RDKit          3D

 28 28  0  0  1  0  0  0  0  0999 V2000
   29.2562  -18.3722  -16.5044 N   0  0  0  0  0  0  0  0  0  0  0  0
   27.9438  -18.9063  -16.5246 C   0  0  0  0  0  0  0  0  0  0  0  0
   27.2435  -18.8243  -17.5735 O   0  0  0  0  0  0  0  0  0  0  0  0
   27.3499  -19.5640  -15.3544 C   0  0  0  0  0  0  0  0  0  0  0  0
   28.3034  -20.5719  -14.7280 C   0  0  2  0  0  0  0  0  0  0  0  0
   28.4403  -21.7189  -15.6074 N   0  0  0  0  0  0  0  0  0  0  0  0
   27.7913  -21.0486  -13.4236 C   0  0  0  0  0  0  0  0  0  0  0  0
   26.9377  -21.9532  -13.3875 O   0  0  0  0  0  0  0  0  0  0  0  0
   26.7280  -20.0183   -4.5446 O   0  0  0  0  0  0  0  0  0  0  0  0
   27.1926  -20.1094   -5.8366 C   0  0  0  0  0  0  0  0  0  0  0  0
   27.5498  -21.3123   -6.4262 C   0  0  0  0  0  0  0  0  0  0  0  0
   28.0122  -21.3769   -7.7210 C   0  0  0  0  0  0  0  0  0  0  0  0
   28.1407  -20.2380   -8.4912 C   0  0  0  0  0  0  0  0  0  0  0  0
   28.6539  -20.2405   -9.8695 C   0  0  0  0  0  0  0  0  0  0  0  0
   27.7193  -20.7670  -10.9075 C   0  0  2  0  0  0  0  0  0  0  0  0
   28.2945  -20.4537  -12.2398 N   0  0  0  0  0  0  0  0  0  0  0  0
   26.3381  -20.2038  -10.8363 C   0  0  0  0  0  0  0  0  0  0  0  0
   26.1992  -18.9954  -11.1329 O   0  0  0  0  0  0  0  0  0  0  0  0
   27.7734  -19.0368   -7.8694 C   0  0  0  0  0  0  0  0  0  0  0  0
   27.3170  -18.9785   -6.5917 C   0  0  0  0  0  0  0  0  0  0  0  0
   23.6035  -21.0537  -13.0235 C   0  0  0  0  0  0  0  0  0  0  0  0
   23.0242  -21.1487  -11.6745 C   0  0  2  0  0  0  0  0  0  0  0  0
   21.6443  -20.5591  -11.5989 C   0  0  0  0  0  0  0  0  0  0  0  0
   23.8290  -20.6597  -10.5108 C   0  0  2  0  0  0  0  0  0  0  0  0
   25.2174  -20.9479  -10.4650 N   0  0  0  0  0  0  0  0  0  0  0  0
   23.1431  -20.8239   -9.2185 C   0  0  0  0  0  0  0  0  0  0  0  0
   23.7186  -21.3648   -8.2122 O   0  0  0  0  0  0  0  0  0  0  0  0
   21.8398  -20.4044   -9.0231 O   0  0  0  0  0  0  0  0  0  0  0  0
  2  1  1  0
  3  2  2  0
  4  5  1  0
  4  2  1  0
  5  7  1  0
  5  6  1  6
  7  8  2  0
  9 10  1  0
 10 11  2  0
 11 12  1  0
 13 12  2  0
 13 14  1  0
 15 14  1  1
 15 17  1  0
 16  7  1  0
 16 15  1  0
 17 25  1  0
 18 17  2  0
 19 13  1  0
 20 10  1  0
 20 19  2  0
 22 21  1  6
 22 23  1  0
 24 26  1  0
 24 22  1  0
 24 25  1  1
 26 28  1  0
 27 26  2  0
M  END
$$$$
