NYV.pdb
     RDKit          3D

 28 28  0  0  1  0  0  0  0  0999 V2000
   16.2581  -16.9830  -17.3661 N   0  0  0  0  0  0  0  0  0  0  0  0
   16.4204  -16.4199  -16.0759 C   0  0  0  0  0  0  0  0  0  0  0  0
   15.6106  -16.7135  -15.1510 O   0  0  0  0  0  0  0  0  0  0  0  0
   17.5114  -15.4897  -15.7610 C   0  0  0  0  0  0  0  0  0  0  0  0
   18.3982  -15.2286  -16.9705 C   0  0  2  0  0  0  0  0  0  0  0  0
   19.4564  -16.2214  -17.0173 N   0  0  0  0  0  0  0  0  0  0  0  0
   19.0244  -13.8897  -16.8914 C   0  0  0  0  0  0  0  0  0  0  0  0
   19.8909  -13.6621  -16.0278 O   0  0  0  0  0  0  0  0  0  0  0  0
   24.4367  -13.9481  -20.8519 O   0  0  0  0  0  0  0  0  0  0  0  0
   23.2706  -13.3320  -20.4592 C   0  0  0  0  0  0  0  0  0  0  0  0
   22.0271  -13.9366  -20.5618 C   0  0  0  0  0  0  0  0  0  0  0  0
   20.8749  -13.2989  -20.1618 C   0  0  0  0  0  0  0  0  0  0  0  0
   20.9103  -12.0214  -19.6386 C   0  0  0  0  0  0  0  0  0  0  0  0
   19.7116  -11.2792  -19.2199 C   0  0  0  0  0  0  0  0  0  0  0  0
   19.2370  -11.5468  -17.8302 C   0  0  2  0  0  0  0  0  0  0  0  0
   18.6138  -12.8942  -17.8128 N   0  0  0  0  0  0  0  0  0  0  0  0
   18.2483  -10.5537  -17.3143 C   0  0  0  0  0  0  0  0  0  0  0  0
   17.1109  -10.5572  -17.8376 O   0  0  0  0  0  0  0  0  0  0  0  0
   22.1800  -11.4348  -19.5476 C   0  0  0  0  0  0  0  0  0  0  0  0
   23.3140  -12.0686  -19.9430 C   0  0  0  0  0  0  0  0  0  0  0  0
   15.8321   -8.0701  -14.0585 C   0  0  0  0  0  0  0  0  0  0  0  0
   16.7804   -9.0653  -14.5827 C   0  0  2  0  0  0  0  0  0  0  0  0
   17.5476   -9.7580  -13.4924 C   0  0  0  0  0  0  0  0  0  0  0  0
   17.7311   -8.6525  -15.6629 C   0  0  2  0  0  0  0  0  0  0  0  0
   18.5269   -9.6428  -16.2945 N   0  0  0  0  0  0  0  0  0  0  0  0
   18.4588   -7.4104  -15.3546 C   0  0  0  0  0  0  0  0  0  0  0  0
   17.8490   -6.3097  -15.1238 O   0  0  0  0  0  0  0  0  0  0  0  0
   19.8401   -7.3656  -15.2998 O   0  0  0  0  0  0  0  0  0  0  0  0
  2  1  1  0
  3  2  2  0
  4  5  1  0
  4  2  1  0
  5  7  1  0
  5  6  1  1
  7  8  2  0
  9 10  1  0
 10 11  2  0
 11 12  1  0
 13 12  2  0
 13 14  1  0
 15 14  1  6
 15 17  1  0
 16  7  1  0
 16 15  1  0
 17 25  1  0
 18 17  2  0
 19 13  1  0
 20 10  1  0
 20 19  2  0
 22 21  1  1
 22 23  1  0
 24 26  1  0
 24 22  1  0
 24 25  1  1
 26 28  1  0
 27 26  2  0
M  END
$$$$
