NYV.pdb
     RDKit          3D

 28 28  0  0  1  0  0  0  0  0999 V2000
   19.3087  -23.1856   -7.2778 N   0  0  0  0  0  0  0  0  0  0  0  0
   20.7128  -23.3625   -7.3494 C   0  0  0  0  0  0  0  0  0  0  0  0
   21.2741  -24.2569   -6.6548 O   0  0  0  0  0  0  0  0  0  0  0  0
   21.5616  -22.5334   -8.2135 C   0  0  0  0  0  0  0  0  0  0  0  0
   22.5404  -21.6928   -7.4055 C   0  0  2  0  0  0  0  0  0  0  0  0
   21.8061  -20.7164   -6.6211 N   0  0  0  0  0  0  0  0  0  0  0  0
   23.4741  -20.9639   -8.2931 C   0  0  0  0  0  0  0  0  0  0  0  0
   23.0821  -19.9571   -8.9103 O   0  0  0  0  0  0  0  0  0  0  0  0
   28.5148  -18.5288   -3.8750 O   0  0  0  0  0  0  0  0  0  0  0  0
   28.1923  -19.1809   -5.0430 C   0  0  0  0  0  0  0  0  0  0  0  0
   28.4291  -20.5325   -5.2418 C   0  0  0  0  0  0  0  0  0  0  0  0
   28.0972  -21.1618   -6.4201 C   0  0  0  0  0  0  0  0  0  0  0  0
   27.5110  -20.4678   -7.4601 C   0  0  0  0  0  0  0  0  0  0  0  0
   27.1592  -21.0786   -8.7509 C   0  0  0  0  0  0  0  0  0  0  0  0
   25.8000  -20.7507   -9.2733 C   0  0  2  0  0  0  0  0  0  0  0  0
   24.8034  -21.4400   -8.4155 N   0  0  0  0  0  0  0  0  0  0  0  0
   25.5714  -21.1529  -10.6931 C   0  0  0  0  0  0  0  0  0  0  0  0
   25.5370  -22.3800  -10.9394 O   0  0  0  0  0  0  0  0  0  0  0  0
   27.2845  -19.1036   -7.2316 C   0  0  0  0  0  0  0  0  0  0  0  0
   27.6131  -18.4875   -6.0669 C   0  0  0  0  0  0  0  0  0  0  0  0
   23.3566  -21.0217  -14.8787 C   0  0  0  0  0  0  0  0  0  0  0  0
   23.6687  -20.4812  -13.5464 C   0  0  2  0  0  0  0  0  0  0  0  0
   23.0268  -19.1447  -13.3037 C   0  0  0  0  0  0  0  0  0  0  0  0
   25.1002  -20.4220  -13.1124 C   0  0  2  0  0  0  0  0  0  0  0  0
   25.3949  -20.2429  -11.7362 N   0  0  0  0  0  0  0  0  0  0  0  0
   25.9490  -19.6242  -14.0126 C   0  0  0  0  0  0  0  0  0  0  0  0
   26.4760  -18.5193  -13.6413 O   0  0  0  0  0  0  0  0  0  0  0  0
   26.2207  -20.0246  -15.3083 O   0  0  0  0  0  0  0  0  0  0  0  0
  2  1  1  0
  3  2  2  0
  4  5  1  0
  4  2  1  0
  5  7  1  0
  5  6  1  6
  7  8  2  0
  9 10  1  0
 10 11  2  0
 11 12  1  0
 13 12  2  0
 13 14  1  0
 15 14  1  1
 15 17  1  0
 16  7  1  0
 16 15  1  0
 17 25  1  0
 18 17  2  0
 19 13  1  0
 20 10  1  0
 20 19  2  0
 22 21  1  6
 22 23  1  0
 24 26  1  0
 24 22  1  0
 24 25  1  1
 26 28  1  0
 27 26  2  0
M  END
$$$$
