SHK.pdb
     RDKit          3D

 26 26  0  0  1  0  0  0  0  0999 V2000
   14.3440   -8.7019  -14.4260 O   0  0  0  0  0  0  0  0  0  0  0  0
   15.5170   -8.7945  -15.1702 C   0  0  0  0  0  0  0  0  0  0  0  0
   16.5211   -9.5741  -14.3478 C   0  0  2  0  0  0  0  0  0  0  0  0
   16.0311  -10.9121  -14.0858 N   0  0  0  0  0  0  0  0  0  0  0  0
   16.7856   -8.9125  -13.0427 C   0  0  0  0  0  0  0  0  0  0  0  0
   16.2289   -9.3752  -12.0096 O   0  0  0  0  0  0  0  0  0  0  0  0
   17.6304   -7.7978  -12.9347 N   0  0  0  0  0  0  0  0  0  0  0  0
   17.9718   -7.2534  -11.6589 C   0  0  1  0  0  0  0  0  0  0  0  0
   19.3177   -6.5897  -11.6634 C   0  0  0  0  0  0  0  0  0  0  0  0
   20.4258   -7.4895  -11.9726 C   0  0  0  0  0  0  0  0  0  0  0  0
   20.3132   -8.8464  -12.1878 C   0  0  0  0  0  0  0  0  0  0  0  0
   21.5547   -9.3282  -12.4445 N   0  0  0  0  0  0  0  0  0  0  0  0
   22.4257   -8.3234  -12.3960 C   0  0  0  0  0  0  0  0  0  0  0  0
   21.7283   -7.1860  -12.1042 N   0  0  0  0  0  0  0  0  0  0  0  0
   16.9566   -6.2160  -11.2880 C   0  0  0  0  0  0  0  0  0  0  0  0
   16.4495   -5.4701  -12.1944 O   0  0  0  0  0  0  0  0  0  0  0  0
   16.5529   -6.0539   -9.9383 N   0  0  0  0  0  0  0  0  0  0  0  0
   15.6321   -5.0136   -9.4858 C   0  0  1  0  0  0  0  0  0  0  0  0
   15.0073   -5.4279   -8.2106 C   0  0  0  0  0  0  0  0  0  0  0  0
   14.0944   -4.4037   -7.6287 C   0  0  0  0  0  0  0  0  0  0  0  0
   13.6087   -4.9484   -6.2934 C   0  0  0  0  0  0  0  0  0  0  0  0
   12.6884   -3.9028   -5.6978 C   0  0  0  0  0  0  0  0  0  0  0  0
   12.2158   -4.4002   -4.4308 N   0  0  0  0  0  0  0  0  0  0  0  0
   16.2718   -3.6853   -9.5013 C   0  0  0  0  0  0  0  0  0  0  0  0
   15.4993   -2.5587   -9.8447 O   0  0  0  0  0  0  0  0  0  0  0  0
   17.4596   -3.4453   -9.2330 O   0  0  0  0  0  0  0  0  0  0  0  0
  2  3  1  0
  2  1  1  0
  3  4  1  1
  5  3  1  0
  5  6  2  0
  7  8  1  0
  7  5  1  0
  9 10  1  0
  8  9  1  6
 10 11  2  0
 12 11  1  0
 13 12  1  0
 14 13  2  0
 14 10  1  0
 15 16  2  0
 15  8  1  0
 17 15  1  0
 18 17  1  0
 18 24  1  0
 18 19  1  1
 20 21  1  0
 20 19  1  0
 22 23  1  0
 22 21  1  0
 24 25  1  0
 26 24  2  0
M  END
$$$$
