SHK.pdb
     RDKit          3D

 26 26  0  0  1  0  0  0  0  0999 V2000
   24.9965  -23.6699  -14.8727 O   0  0  0  0  0  0  0  0  0  0  0  0
   24.2898  -23.0950  -15.9254 C   0  0  0  0  0  0  0  0  0  0  0  0
   24.1820  -21.6104  -15.6483 C   0  0  2  0  0  0  0  0  0  0  0  0
   25.4562  -21.0849  -15.2018 N   0  0  0  0  0  0  0  0  0  0  0  0
   23.1685  -21.3256  -14.5983 C   0  0  0  0  0  0  0  0  0  0  0  0
   23.5663  -20.9202  -13.4719 O   0  0  0  0  0  0  0  0  0  0  0  0
   21.7951  -21.4954  -14.8284 N   0  0  0  0  0  0  0  0  0  0  0  0
   20.8321  -21.1345  -13.8370 C   0  0  1  0  0  0  0  0  0  0  0  0
   19.7942  -20.1892  -14.3672 C   0  0  0  0  0  0  0  0  0  0  0  0
   20.2543  -18.8090  -14.4964 C   0  0  0  0  0  0  0  0  0  0  0  0
   21.1251  -18.3471  -15.4600 C   0  0  0  0  0  0  0  0  0  0  0  0
   21.3072  -17.0197  -15.2498 N   0  0  0  0  0  0  0  0  0  0  0  0
   20.5841  -16.6467  -14.1968 C   0  0  0  0  0  0  0  0  0  0  0  0
   19.9328  -17.7528  -13.7304 N   0  0  0  0  0  0  0  0  0  0  0  0
   20.1244  -22.3721  -13.3765 C   0  0  0  0  0  0  0  0  0  0  0  0
   20.0806  -23.3993  -14.1365 O   0  0  0  0  0  0  0  0  0  0  0  0
   19.5018  -22.4136  -12.1031 N   0  0  0  0  0  0  0  0  0  0  0  0
   18.7585  -23.5668  -11.6003 C   0  0  1  0  0  0  0  0  0  0  0  0
   18.8948  -23.6386  -10.1291 C   0  0  0  0  0  0  0  0  0  0  0  0
   18.2058  -24.8108   -9.5188 C   0  0  0  0  0  0  0  0  0  0  0  0
   18.3449  -24.6721   -8.0098 C   0  0  0  0  0  0  0  0  0  0  0  0
   17.6341  -25.8575   -7.3896 C   0  0  0  0  0  0  0  0  0  0  0  0
   17.6409  -25.6783   -5.9599 N   0  0  0  0  0  0  0  0  0  0  0  0
   17.3842  -23.5950  -12.1335 C   0  0  0  0  0  0  0  0  0  0  0  0
   16.8323  -24.8269  -12.5355 O   0  0  0  0  0  0  0  0  0  0  0  0
   16.6350  -22.6149  -12.2691 O   0  0  0  0  0  0  0  0  0  0  0  0
  2  3  1  0
  2  1  1  0
  3  4  1  1
  5  3  1  0
  5  6  2  0
  7  8  1  0
  7  5  1  0
  9 10  1  0
  8  9  1  6
 10 11  2  0
 12 11  1  0
 13 12  1  0
 14 13  2  0
 14 10  1  0
 15 16  2  0
 15  8  1  0
 17 15  1  0
 18 17  1  0
 18 24  1  0
 18 19  1  1
 20 21  1  0
 20 19  1  0
 22 23  1  0
 22 21  1  0
 24 25  1  0
 26 24  2  0
M  END
$$$$
