SHK.pdb
     RDKit          3D

 26 26  0  0  1  0  0  0  0  0999 V2000
   16.6642  -11.3253  -18.1227 O   0  0  0  0  0  0  0  0  0  0  0  0
   17.9420  -11.7961  -17.8330 C   0  0  0  0  0  0  0  0  0  0  0  0
   18.1067  -11.7781  -16.3280 C   0  0  2  0  0  0  0  0  0  0  0  0
   16.9197  -12.3010  -15.6825 N   0  0  0  0  0  0  0  0  0  0  0  0
   18.3406  -10.3993  -15.8232 C   0  0  0  0  0  0  0  0  0  0  0  0
   17.3871   -9.7943  -15.2610 O   0  0  0  0  0  0  0  0  0  0  0  0
   19.5834   -9.7623  -15.9561 N   0  0  0  0  0  0  0  0  0  0  0  0
   19.7855   -8.4337  -15.4718 C   0  0  1  0  0  0  0  0  0  0  0  0
   21.2381   -8.1142  -15.2716 C   0  0  0  0  0  0  0  0  0  0  0  0
   21.4851   -6.7941  -14.6974 C   0  0  0  0  0  0  0  0  0  0  0  0
   20.5141   -5.8654  -14.3898 C   0  0  0  0  0  0  0  0  0  0  0  0
   21.1346   -4.7728  -13.8794 N   0  0  0  0  0  0  0  0  0  0  0  0
   22.4470   -4.9917  -13.8606 C   0  0  0  0  0  0  0  0  0  0  0  0
   22.6644   -6.2416  -14.3663 N   0  0  0  0  0  0  0  0  0  0  0  0
   19.2430   -7.4643  -16.4770 C   0  0  0  0  0  0  0  0  0  0  0  0
   19.4277   -7.6726  -17.7250 O   0  0  0  0  0  0  0  0  0  0  0  0
   18.5257   -6.3160  -16.0554 N   0  0  0  0  0  0  0  0  0  0  0  0
   18.0563   -5.2730  -16.9647 C   0  0  1  0  0  0  0  0  0  0  0  0
   16.6099   -5.4526  -17.2173 C   0  0  0  0  0  0  0  0  0  0  0  0
   16.0257   -4.4216  -18.1212 C   0  0  0  0  0  0  0  0  0  0  0  0
   14.5747   -4.8119  -18.3616 C   0  0  0  0  0  0  0  0  0  0  0  0
   13.9974   -3.7956  -19.3254 C   0  0  0  0  0  0  0  0  0  0  0  0
   12.5989   -4.0958  -19.4988 N   0  0  0  0  0  0  0  0  0  0  0  0
   18.4821   -3.9352  -16.5143 C   0  0  0  0  0  0  0  0  0  0  0  0
   18.9141   -2.9971  -17.4720 O   0  0  0  0  0  0  0  0  0  0  0  0
   18.4994   -3.5330  -15.3404 O   0  0  0  0  0  0  0  0  0  0  0  0
  2  3  1  0
  2  1  1  0
  3  4  1  1
  5  3  1  0
  5  6  2  0
  7  8  1  0
  7  5  1  0
  9 10  1  0
  8  9  1  6
 10 11  2  0
 12 11  1  0
 13 12  1  0
 14 13  2  0
 14 10  1  0
 15 16  2  0
 15  8  1  0
 17 15  1  0
 18 17  1  0
 18 24  1  0
 18 19  1  1
 20 21  1  0
 20 19  1  0
 22 23  1  0
 22 21  1  0
 24 25  1  0
 26 24  2  0
M  END
$$$$
