SHK.pdb
     RDKit          3D

 26 26  0  0  1  0  0  0  0  0999 V2000
   26.5127  -11.4809  -16.9005 O   0  0  0  0  0  0  0  0  0  0  0  0
   26.2025  -12.0065  -15.6492 C   0  0  0  0  0  0  0  0  0  0  0  0
   24.8953  -12.7592  -15.7796 C   0  0  2  0  0  0  0  0  0  0  0  0
   24.9815  -13.7437  -16.8390 N   0  0  0  0  0  0  0  0  0  0  0  0
   23.7678  -11.8408  -16.0896 C   0  0  0  0  0  0  0  0  0  0  0  0
   23.4449  -11.6704  -17.2970 O   0  0  0  0  0  0  0  0  0  0  0  0
   23.0624  -11.1668  -15.0816 N   0  0  0  0  0  0  0  0  0  0  0  0
   21.9718  -10.3006  -15.3992 C   0  0  1  0  0  0  0  0  0  0  0  0
   20.7136  -10.6776  -14.6734 C   0  0  0  0  0  0  0  0  0  0  0  0
   19.5586   -9.8502  -15.0118 C   0  0  0  0  0  0  0  0  0  0  0  0
   19.1491   -9.5397  -16.2908 C   0  0  0  0  0  0  0  0  0  0  0  0
   18.0465   -8.7560  -16.1926 N   0  0  0  0  0  0  0  0  0  0  0  0
   17.7615   -8.5720  -14.9059 C   0  0  0  0  0  0  0  0  0  0  0  0
   18.6962   -9.2484  -14.1751 N   0  0  0  0  0  0  0  0  0  0  0  0
   22.3284   -8.9038  -14.9914 C   0  0  0  0  0  0  0  0  0  0  0  0
   23.0286   -8.7078  -13.9396 O   0  0  0  0  0  0  0  0  0  0  0  0
   21.8953   -7.7958  -15.7631 N   0  0  0  0  0  0  0  0  0  0  0  0
   22.2071   -6.4065  -15.4349 C   0  0  1  0  0  0  0  0  0  0  0  0
   22.4514   -5.6477  -16.6810 C   0  0  0  0  0  0  0  0  0  0  0  0
   23.7338   -5.9971  -17.3550 C   0  0  0  0  0  0  0  0  0  0  0  0
   23.8130   -5.1582  -18.6221 C   0  0  0  0  0  0  0  0  0  0  0  0
   25.1078   -5.5274  -19.3166 C   0  0  0  0  0  0  0  0  0  0  0  0
   25.2358   -4.6941  -20.4850 N   0  0  0  0  0  0  0  0  0  0  0  0
   21.2144   -5.8377  -14.5049 C   0  0  0  0  0  0  0  0  0  0  0  0
   21.6637   -5.0878  -13.4005 O   0  0  0  0  0  0  0  0  0  0  0  0
   19.9819   -5.9518  -14.5955 O   0  0  0  0  0  0  0  0  0  0  0  0
  2  3  1  0
  2  1  1  0
  3  4  1  6
  5  3  1  0
  5  6  2  0
  7  8  1  0
  7  5  1  0
  9 10  1  0
  8  9  1  1
 10 11  2  0
 12 11  1  0
 13 12  1  0
 14 13  2  0
 14 10  1  0
 15 16  2  0
 15  8  1  0
 17 15  1  0
 18 17  1  0
 18 24  1  0
 18 19  1  6
 20 21  1  0
 20 19  1  0
 22 23  1  0
 22 21  1  0
 24 25  1  0
 26 24  2  0
M  END
$$$$
