SHK.pdb
     RDKit          3D

 26 26  0  0  1  0  0  0  0  0999 V2000
   28.3593  -17.4421  -16.7756 O   0  0  0  0  0  0  0  0  0  0  0  0
   27.8156  -18.7045  -16.9970 C   0  0  0  0  0  0  0  0  0  0  0  0
   28.8849  -19.5563  -17.6479 C   0  0  2  0  0  0  0  0  0  0  0  0
   29.1515  -19.0927  -18.9944 N   0  0  0  0  0  0  0  0  0  0  0  0
   28.4734  -20.9832  -17.7210 C   0  0  0  0  0  0  0  0  0  0  0  0
   27.9719  -21.4107  -18.7966 O   0  0  0  0  0  0  0  0  0  0  0  0
   28.6282  -21.8558  -16.6335 N   0  0  0  0  0  0  0  0  0  0  0  0
   28.2358  -23.2261  -16.7272 C   0  0  1  0  0  0  0  0  0  0  0  0
   29.1613  -24.1373  -15.9754 C   0  0  0  0  0  0  0  0  0  0  0  0
   30.3870  -24.4703  -16.6965 C   0  0  0  0  0  0  0  0  0  0  0  0
   30.7998  -25.7454  -17.0185 C   0  0  0  0  0  0  0  0  0  0  0  0
   31.9777  -25.6428  -17.6828 N   0  0  0  0  0  0  0  0  0  0  0  0
   32.3060  -24.3571  -17.7823 C   0  0  0  0  0  0  0  0  0  0  0  0
   31.3227  -23.6314  -17.1726 N   0  0  0  0  0  0  0  0  0  0  0  0
   26.8686  -23.3798  -16.1341 C   0  0  0  0  0  0  0  0  0  0  0  0
   26.6186  -22.8930  -14.9785 O   0  0  0  0  0  0  0  0  0  0  0  0
   25.8483  -24.0616  -16.8446 N   0  0  0  0  0  0  0  0  0  0  0  0
   24.4560  -24.1238  -16.4055 C   0  0  1  0  0  0  0  0  0  0  0  0
   23.9659  -22.7570  -16.1232 C   0  0  0  0  0  0  0  0  0  0  0  0
   22.5398  -22.7074  -15.6931 C   0  0  0  0  0  0  0  0  0  0  0  0
   21.8976  -21.5332  -16.4172 C   0  0  0  0  0  0  0  0  0  0  0  0
   20.4280  -21.5373  -16.0495 C   0  0  0  0  0  0  0  0  0  0  0  0
   19.7807  -20.4947  -16.8045 N   0  0  0  0  0  0  0  0  0  0  0  0
   23.6381  -24.9369  -17.3241 C   0  0  0  0  0  0  0  0  0  0  0  0
   22.6451  -25.7809  -16.7898 O   0  0  0  0  0  0  0  0  0  0  0  0
   23.7336  -24.9565  -18.5614 O   0  0  0  0  0  0  0  0  0  0  0  0
  2  3  1  0
  2  1  1  0
  3  4  1  6
  5  3  1  0
  5  6  2  0
  7  8  1  0
  7  5  1  0
  9 10  1  0
  8  9  1  1
 10 11  2  0
 12 11  1  0
 13 12  1  0
 14 13  2  0
 14 10  1  0
 15 16  2  0
 15  8  1  0
 17 15  1  0
 18 17  1  0
 18 24  1  0
 18 19  1  6
 20 21  1  0
 20 19  1  0
 22 23  1  0
 22 21  1  0
 24 25  1  0
 26 24  2  0
M  END
$$$$
