EPS.pdb
     RDKit          3D

 23 23  0  0  1  0  0  0  0  0999 V2000
   19.8390  -10.2799  -16.0704 N   0  0  0  0  0  0  0  0  0  0  0  0
   20.3936   -8.9075  -15.9936 C   0  0  1  0  0  0  0  0  0  0  0  0
   19.8508   -8.1514  -17.1891 C   0  0  0  0  0  0  0  0  0  0  0  0
   19.2189   -9.0097  -18.2396 C   0  0  0  0  0  0  0  0  0  0  0  0
   18.0681   -8.2858  -18.8895 C   0  0  0  0  0  0  0  0  0  0  0  0
   16.9263   -8.3996  -18.3873 O   0  0  0  0  0  0  0  0  0  0  0  0
   19.9406   -8.3200  -14.7017 C   0  0  0  0  0  0  0  0  0  0  0  0
   18.7308   -8.6118  -14.4002 O   0  0  0  0  0  0  0  0  0  0  0  0
   18.2426   -7.5165  -20.0030 O   0  0  0  0  0  0  0  0  0  0  0  0
   20.7493   -7.5195  -13.8756 N   0  0  0  0  0  0  0  0  0  0  0  0
   22.2166   -7.7036  -13.8142 C   0  0  0  0  0  0  0  0  0  0  0  0
   22.6849   -6.2810  -13.9852 C   0  0  0  0  0  0  0  0  0  0  0  0
   21.5184   -5.4030  -13.6035 C   0  0  0  0  0  0  0  0  0  0  0  0
   20.5641   -6.4468  -12.9618 C   0  0  1  0  0  0  0  0  0  0  0  0
   19.2658   -5.8233  -12.8345 C   0  0  0  0  0  0  0  0  0  0  0  0
   18.5353   -5.4187  -13.7580 O   0  0  0  0  0  0  0  0  0  0  0  0
   15.9561   -4.4453   -9.4790 O   0  0  0  0  0  0  0  0  0  0  0  0
   17.1046   -5.1497   -9.7601 C   0  0  0  0  0  0  0  0  0  0  0  0
   17.5456   -4.9453  -11.2103 C   0  0  2  0  0  0  0  0  0  0  0  0
   18.7511   -5.6449  -11.5114 N   0  0  0  0  0  0  0  0  0  0  0  0
   17.7569   -3.4992  -11.3853 C   0  0  0  0  0  0  0  0  0  0  0  0
   16.6949   -2.6471  -11.5533 O   0  0  0  0  0  0  0  0  0  0  0  0
   18.9195   -3.0557  -11.3790 O   0  0  0  0  0  0  0  0  0  0  0  0
  2  1  1  6
  2  7  1  0
  3  2  1  0
  4  3  1  0
  5  4  1  0
  6  5  2  0
  7  8  2  0
  9  5  1  0
 10  7  1  0
 11 10  1  0
 12 11  1  0
 13 12  1  0
 13 14  1  0
 14 15  1  6
 14 10  1  0
 15 16  2  0
 19 18  1  1
 18 17  1  0
 20 19  1  0
 20 15  1  0
 21 22  1  0
 21 19  1  0
 23 21  2  0
M  END
$$$$
