EPS.pdb
     RDKit          3D

 23 23  0  0  1  0  0  0  0  0999 V2000
   19.5041  -12.7902  -16.9484 N   0  0  0  0  0  0  0  0  0  0  0  0
   18.6262  -11.5980  -16.8798 C   0  0  1  0  0  0  0  0  0  0  0  0
   17.7197  -11.7936  -15.6817 C   0  0  0  0  0  0  0  0  0  0  0  0
   16.7457  -12.9224  -15.8100 C   0  0  0  0  0  0  0  0  0  0  0  0
   15.9167  -13.0482  -14.5579 C   0  0  0  0  0  0  0  0  0  0  0  0
   14.9916  -12.2262  -14.3647 O   0  0  0  0  0  0  0  0  0  0  0  0
   19.5093  -10.4075  -16.7303 C   0  0  0  0  0  0  0  0  0  0  0  0
   20.4517  -10.5700  -15.8787 O   0  0  0  0  0  0  0  0  0  0  0  0
   16.1510  -14.0296  -13.6391 O   0  0  0  0  0  0  0  0  0  0  0  0
   19.3424   -9.2098  -17.4478 N   0  0  0  0  0  0  0  0  0  0  0  0
   18.8400   -9.2037  -18.8400 C   0  0  0  0  0  0  0  0  0  0  0  0
   17.7680   -8.1481  -18.7465 C   0  0  0  0  0  0  0  0  0  0  0  0
   18.1013   -7.3131  -17.5344 C   0  0  0  0  0  0  0  0  0  0  0  0
   19.5336   -7.8210  -17.2140 C   0  0  1  0  0  0  0  0  0  0  0  0
   19.8711   -7.3520  -15.8886 C   0  0  0  0  0  0  0  0  0  0  0  0
   19.3037   -7.6507  -14.8214 O   0  0  0  0  0  0  0  0  0  0  0  0
   23.2173   -4.6952  -13.4770 O   0  0  0  0  0  0  0  0  0  0  0  0
   22.8117   -5.2573  -14.6660 C   0  0  0  0  0  0  0  0  0  0  0  0
   21.4232   -5.8868  -14.5426 C   0  0  2  0  0  0  0  0  0  0  0  0
   20.9732   -6.4468  -15.7743 N   0  0  0  0  0  0  0  0  0  0  0  0
   20.5095   -4.8107  -14.1261 C   0  0  0  0  0  0  0  0  0  0  0  0
   20.2951   -4.5429  -12.7978 O   0  0  0  0  0  0  0  0  0  0  0  0
   19.9295   -4.1417  -15.0005 O   0  0  0  0  0  0  0  0  0  0  0  0
  2  1  1  1
  2  7  1  0
  3  2  1  0
  4  3  1  0
  5  4  1  0
  6  5  2  0
  7  8  2  0
  9  5  1  0
 10  7  1  0
 11 10  1  0
 12 11  1  0
 13 12  1  0
 13 14  1  0
 14 15  1  1
 14 10  1  0
 15 16  2  0
 19 18  1  6
 18 17  1  0
 20 19  1  0
 20 15  1  0
 21 22  1  0
 21 19  1  0
 23 21  2  0
M  END
$$$$
