EPS.pdb
     RDKit          3D

 23 23  0  0  1  0  0  0  0  0999 V2000
   17.4123  -24.7012  -14.5075 N   0  0  0  0  0  0  0  0  0  0  0  0
   18.2591  -24.1720  -13.4122 C   0  0  1  0  0  0  0  0  0  0  0  0
   18.1020  -22.6652  -13.4301 C   0  0  0  0  0  0  0  0  0  0  0  0
   18.4655  -22.0123  -14.7267 C   0  0  0  0  0  0  0  0  0  0  0  0
   18.2611  -20.5217  -14.6416 C   0  0  0  0  0  0  0  0  0  0  0  0
   18.5644  -19.8163  -15.6312 O   0  0  0  0  0  0  0  0  0  0  0  0
   17.7661  -24.7752  -12.1423 C   0  0  0  0  0  0  0  0  0  0  0  0
   16.7620  -24.1615  -11.6373 O   0  0  0  0  0  0  0  0  0  0  0  0
   17.7573  -19.9304  -13.5196 O   0  0  0  0  0  0  0  0  0  0  0  0
   18.3339  -25.9115  -11.5393 N   0  0  0  0  0  0  0  0  0  0  0  0
   18.7735  -27.0761  -12.3401 C   0  0  0  0  0  0  0  0  0  0  0  0
   20.1539  -27.2985  -11.7770 C   0  0  0  0  0  0  0  0  0  0  0  0
   20.1690  -26.6370  -10.4206 C   0  0  0  0  0  0  0  0  0  0  0  0
   18.6574  -26.3396  -10.2232 C   0  0  1  0  0  0  0  0  0  0  0  0
   18.5403  -25.4180   -9.1153 C   0  0  0  0  0  0  0  0  0  0  0  0
   18.8962  -24.2251   -9.0924 O   0  0  0  0  0  0  0  0  0  0  0  0
   15.6302  -24.4649   -7.2797 O   0  0  0  0  0  0  0  0  0  0  0  0
   16.4036  -24.9682   -6.2586 C   0  0  0  0  0  0  0  0  0  0  0  0
   17.8548  -25.1642   -6.7000 C   0  0  2  0  0  0  0  0  0  0  0  0
   17.9546  -25.9150   -7.9082 N   0  0  0  0  0  0  0  0  0  0  0  0
   18.5309  -25.8882   -5.6114 C   0  0  0  0  0  0  0  0  0  0  0  0
   18.8907  -25.2449   -4.4543 O   0  0  0  0  0  0  0  0  0  0  0  0
   18.7740  -27.1001   -5.7546 O   0  0  0  0  0  0  0  0  0  0  0  0
  2  1  1  6
  2  7  1  0
  3  2  1  0
  4  3  1  0
  5  4  1  0
  6  5  2  0
  7  8  2  0
  9  5  1  0
 10  7  1  0
 11 10  1  0
 12 11  1  0
 13 12  1  0
 13 14  1  0
 14 15  1  1
 14 10  1  0
 15 16  2  0
 19 18  1  1
 18 17  1  0
 20 19  1  0
 20 15  1  0
 21 22  1  0
 21 19  1  0
 23 21  2  0
M  END
$$$$
