EPS.pdb
     RDKit          3D

 23 23  0  0  1  0  0  0  0  0999 V2000
   21.2450  -16.2284  -15.8089 N   0  0  0  0  0  0  0  0  0  0  0  0
   21.6133  -15.0519  -16.6317 C   0  0  1  0  0  0  0  0  0  0  0  0
   20.6635  -15.0321  -17.8120 C   0  0  0  0  0  0  0  0  0  0  0  0
   20.8090  -13.8469  -18.7140 C   0  0  0  0  0  0  0  0  0  0  0  0
   19.7809  -13.8931  -19.8148 C   0  0  0  0  0  0  0  0  0  0  0  0
   19.5956  -12.8660  -20.5073 O   0  0  0  0  0  0  0  0  0  0  0  0
   21.4659  -13.8463  -15.7690 C   0  0  0  0  0  0  0  0  0  0  0  0
   20.2488  -13.5501  -15.5029 O   0  0  0  0  0  0  0  0  0  0  0  0
   19.0546  -15.0199  -20.0701 O   0  0  0  0  0  0  0  0  0  0  0  0
   22.5474  -13.0917  -15.2811 N   0  0  0  0  0  0  0  0  0  0  0  0
   23.7686  -13.7395  -14.7521 C   0  0  0  0  0  0  0  0  0  0  0  0
   24.8354  -12.9694  -15.4876 C   0  0  0  0  0  0  0  0  0  0  0  0
   24.1969  -11.6732  -15.9233 C   0  0  0  0  0  0  0  0  0  0  0  0
   22.8686  -11.7166  -15.1196 C   0  0  1  0  0  0  0  0  0  0  0  0
   21.9978  -10.7026  -15.6708 C   0  0  0  0  0  0  0  0  0  0  0  0
   21.5320  -10.6617  -16.8247 O   0  0  0  0  0  0  0  0  0  0  0  0
   18.9415   -9.1755  -13.7651 O   0  0  0  0  0  0  0  0  0  0  0  0
   19.7994   -8.1478  -14.0846 C   0  0  0  0  0  0  0  0  0  0  0  0
   20.7653   -8.5515  -15.1997 C   0  0  2  0  0  0  0  0  0  0  0  0
   21.6215   -9.6232  -14.8102 N   0  0  0  0  0  0  0  0  0  0  0  0
   21.5735   -7.3604  -15.5071 C   0  0  0  0  0  0  0  0  0  0  0  0
   20.9876   -6.2151  -15.9837 O   0  0  0  0  0  0  0  0  0  0  0  0
   22.8040   -7.4054  -15.3281 O   0  0  0  0  0  0  0  0  0  0  0  0
  2  1  1  1
  2  7  1  0
  3  2  1  0
  4  3  1  0
  5  4  1  0
  6  5  2  0
  7  8  2  0
  9  5  1  0
 10  7  1  0
 11 10  1  0
 12 11  1  0
 13 12  1  0
 13 14  1  0
 14 15  1  6
 14 10  1  0
 15 16  2  0
 19 18  1  1
 18 17  1  0
 20 19  1  0
 20 15  1  0
 21 22  1  0
 21 19  1  0
 23 21  2  0
M  END
$$$$
