EPS.pdb
     RDKit          3D

 23 23  0  0  1  0  0  0  0  0999 V2000
   24.4320  -21.5083  -11.4237 N   0  0  0  0  0  0  0  0  0  0  0  0
   25.1534  -21.3347  -12.7068 C   0  0  1  0  0  0  0  0  0  0  0  0
   24.3878  -22.1268  -13.7468 C   0  0  0  0  0  0  0  0  0  0  0  0
   24.5921  -23.6079  -13.6826 C   0  0  0  0  0  0  0  0  0  0  0  0
   25.2116  -24.1104  -14.9611 C   0  0  0  0  0  0  0  0  0  0  0  0
   26.4399  -24.3554  -14.9778 O   0  0  0  0  0  0  0  0  0  0  0  0
   25.1710  -19.8760  -13.0094 C   0  0  0  0  0  0  0  0  0  0  0  0
   24.0553  -19.2901  -12.7820 O   0  0  0  0  0  0  0  0  0  0  0  0
   24.4692  -24.3022  -16.0900 O   0  0  0  0  0  0  0  0  0  0  0  0
   26.2960  -19.1879  -13.4974 N   0  0  0  0  0  0  0  0  0  0  0  0
   27.6325  -19.3531  -12.8832 C   0  0  0  0  0  0  0  0  0  0  0  0
   28.4753  -19.6001  -14.1083 C   0  0  0  0  0  0  0  0  0  0  0  0
   27.6964  -19.0464  -15.2763 C   0  0  0  0  0  0  0  0  0  0  0  0
   26.5791  -18.2608  -14.5368 C   0  0  1  0  0  0  0  0  0  0  0  0
   25.5618  -17.9371  -15.5120 C   0  0  0  0  0  0  0  0  0  0  0  0
   24.9492  -18.7329  -16.2477 O   0  0  0  0  0  0  0  0  0  0  0  0
   23.9404  -14.1127  -15.1598 O   0  0  0  0  0  0  0  0  0  0  0  0
   23.2357  -15.1070  -15.7993 C   0  0  0  0  0  0  0  0  0  0  0  0
   24.1704  -16.0851  -16.5128 C   0  0  2  0  0  0  0  0  0  0  0  0
   25.2101  -16.5580  -15.6593 N   0  0  0  0  0  0  0  0  0  0  0  0
   24.7571  -15.3537  -17.6474 C   0  0  0  0  0  0  0  0  0  0  0  0
   23.9688  -14.8876  -18.6688 O   0  0  0  0  0  0  0  0  0  0  0  0
   25.9864  -15.1620  -17.6688 O   0  0  0  0  0  0  0  0  0  0  0  0
  2  1  1  1
  2  7  1  0
  3  2  1  0
  4  3  1  0
  5  4  1  0
  6  5  2  0
  7  8  2  0
  9  5  1  0
 10  7  1  0
 11 10  1  0
 12 11  1  0
 13 12  1  0
 13 14  1  0
 14 15  1  6
 14 10  1  0
 15 16  2  0
 19 18  1  1
 18 17  1  0
 20 19  1  0
 20 15  1  0
 21 22  1  0
 21 19  1  0
 23 21  2  0
M  END
$$$$
