WFS.pdb
     RDKit          3D

 32 34  0  0  1  0  0  0  0  0999 V2000
   24.3662  -19.8240   -9.1424 N   0  0  0  0  0  0  0  0  0  0  0  0
   25.7286  -20.0930   -9.5196 C   0  0  1  0  0  0  0  0  0  0  0  0
   26.2893  -21.2861   -8.7766 C   0  0  0  0  0  0  0  0  0  0  0  0
   26.4451  -20.9551   -7.3405 C   0  0  0  0  0  0  0  0  0  0  0  0
   25.4272  -21.0420   -6.3781 C   0  0  0  0  0  0  0  0  0  0  0  0
   25.9815  -20.6888   -5.2166 N   0  0  0  0  0  0  0  0  0  0  0  0
   27.2831  -20.3768   -5.3447 C   0  0  0  0  0  0  0  0  0  0  0  0
   28.2542  -19.9536   -4.4279 C   0  0  0  0  0  0  0  0  0  0  0  0
   29.5436  -19.6835   -4.8210 C   0  0  0  0  0  0  0  0  0  0  0  0
   29.8654  -19.8398   -6.1575 C   0  0  0  0  0  0  0  0  0  0  0  0
   28.8804  -20.2641   -7.0579 C   0  0  0  0  0  0  0  0  0  0  0  0
   27.5895  -20.5390   -6.6793 C   0  0  0  0  0  0  0  0  0  0  0  0
   25.8618  -20.2823  -10.9887 C   0  0  0  0  0  0  0  0  0  0  0  0
   24.8513  -20.7342  -11.6328 O   0  0  0  0  0  0  0  0  0  0  0  0
   27.0268  -19.9967  -11.7376 N   0  0  0  0  0  0  0  0  0  0  0  0
   26.9668  -19.6834  -13.1645 C   0  0  1  0  0  0  0  0  0  0  0  0
   27.8533  -18.4921  -13.4631 C   0  0  0  0  0  0  0  0  0  0  0  0
   27.9190  -18.0964  -14.8605 C   0  0  0  0  0  0  0  0  0  0  0  0
   28.9078  -18.5383  -15.7132 C   0  0  0  0  0  0  0  0  0  0  0  0
   28.9763  -18.1806  -17.0346 C   0  0  0  0  0  0  0  0  0  0  0  0
   28.0324  -17.3454  -17.5651 C   0  0  0  0  0  0  0  0  0  0  0  0
   27.0231  -16.8778  -16.7488 C   0  0  0  0  0  0  0  0  0  0  0  0
   26.9800  -17.2589  -15.4091 C   0  0  0  0  0  0  0  0  0  0  0  0
   27.2455  -20.8487  -13.9784 C   0  0  0  0  0  0  0  0  0  0  0  0
   28.2253  -21.6291  -13.8124 O   0  0  0  0  0  0  0  0  0  0  0  0
   24.6105  -23.1203  -15.5757 O   0  0  0  0  0  0  0  0  0  0  0  0
   25.9502  -23.5205  -15.7499 C   0  0  0  0  0  0  0  0  0  0  0  0
   26.7416  -22.2624  -15.9789 C   0  0  2  0  0  0  0  0  0  0  0  0
   26.3828  -21.1941  -15.0662 N   0  0  0  0  0  0  0  0  0  0  0  0
   26.5040  -21.8405  -17.3957 C   0  0  0  0  0  0  0  0  0  0  0  0
   25.9291  -20.7356  -17.5838 O   0  0  0  0  0  0  0  0  0  0  0  0
   26.9032  -22.6393  -18.4595 O   0  0  0  0  0  0  0  0  0  0  0  0
  2  1  1  6
  3  4  1  0
  3  2  1  0
  4  5  2  0
  5  6  1  0
  7  6  1  0
  8  7  2  0
  9  8  1  0
 10 11  1  0
 10  9  2  0
 11 12  2  0
 12  4  1  0
 12  7  1  0
 13  2  1  0
 13 14  2  0
 15 13  1  0
 16 15  1  0
 16 17  1  1
 18 23  1  0
 18 17  1  0
 19 18  2  0
 20 21  2  0
 20 19  1  0
 21 22  1  0
 22 23  2  0
 24 16  1  0
 25 24  2  0
 27 26  1  0
 28 27  1  1
 28 29  1  0
 29 24  1  0
 30 28  1  0
 31 30  2  0
 32 30  1  0
M  END
$$$$
