WFS.pdb
     RDKit          3D

 32 34  0  0  1  0  0  0  0  0999 V2000
   16.5025  -12.8110  -15.9049 N   0  0  0  0  0  0  0  0  0  0  0  0
   16.0651  -11.4448  -15.7915 C   0  0  1  0  0  0  0  0  0  0  0  0
   14.5876  -11.3551  -15.4769 C   0  0  0  0  0  0  0  0  0  0  0  0
   13.8025  -11.9643  -16.5763 C   0  0  0  0  0  0  0  0  0  0  0  0
   13.6240  -11.3993  -17.8486 C   0  0  0  0  0  0  0  0  0  0  0  0
   12.8869  -12.2690  -18.5425 N   0  0  0  0  0  0  0  0  0  0  0  0
   12.5687  -13.3590  -17.8223 C   0  0  0  0  0  0  0  0  0  0  0  0
   11.8239  -14.5086  -18.1159 C   0  0  0  0  0  0  0  0  0  0  0  0
   11.6315  -15.4979  -17.1809 C   0  0  0  0  0  0  0  0  0  0  0  0
   12.1955  -15.3317  -15.9286 C   0  0  0  0  0  0  0  0  0  0  0  0
   12.9367  -14.1756  -15.6551 C   0  0  0  0  0  0  0  0  0  0  0  0
   13.1384  -13.1803  -16.5793 C   0  0  0  0  0  0  0  0  0  0  0  0
   16.8608  -10.6983  -14.7809 C   0  0  0  0  0  0  0  0  0  0  0  0
   16.8219  -11.1001  -13.5655 O   0  0  0  0  0  0  0  0  0  0  0  0
   17.6675   -9.5709  -15.0601 N   0  0  0  0  0  0  0  0  0  0  0  0
   18.4292   -8.8913  -14.0132 C   0  0  1  0  0  0  0  0  0  0  0  0
   19.7304   -8.3692  -14.5863 C   0  0  0  0  0  0  0  0  0  0  0  0
   20.5504   -7.5934  -13.6700 C   0  0  0  0  0  0  0  0  0  0  0  0
   21.3384   -8.1766  -12.7010 C   0  0  0  0  0  0  0  0  0  0  0  0
   22.1231   -7.4579  -11.8370 C   0  0  0  0  0  0  0  0  0  0  0  0
   22.1485   -6.0928  -11.9134 C   0  0  0  0  0  0  0  0  0  0  0  0
   21.3755   -5.4651  -12.8684 C   0  0  0  0  0  0  0  0  0  0  0  0
   20.5876   -6.2227  -13.7327 C   0  0  0  0  0  0  0  0  0  0  0  0
   17.6319   -7.8862  -13.3409 C   0  0  0  0  0  0  0  0  0  0  0  0
   17.0285   -6.9372  -13.9171 O   0  0  0  0  0  0  0  0  0  0  0  0
   15.4520   -8.4420  -10.1493 O   0  0  0  0  0  0  0  0  0  0  0  0
   15.3647   -7.2273  -10.8580 C   0  0  0  0  0  0  0  0  0  0  0  0
   16.7726   -6.8530  -11.2318 C   0  0  2  0  0  0  0  0  0  0  0  0
   17.4778   -7.9177  -11.9189 N   0  0  0  0  0  0  0  0  0  0  0  0
   17.4848   -6.4865   -9.9668 C   0  0  0  0  0  0  0  0  0  0  0  0
   18.5332   -7.1253   -9.6848 O   0  0  0  0  0  0  0  0  0  0  0  0
   17.0052   -5.4803   -9.1382 O   0  0  0  0  0  0  0  0  0  0  0  0
  2  1  1  1
  3  4  1  0
  3  2  1  0
  4  5  2  0
  5  6  1  0
  7  6  1  0
  8  7  2  0
  9  8  1  0
 10 11  1  0
 10  9  2  0
 11 12  2  0
 12  4  1  0
 12  7  1  0
 13  2  1  0
 13 14  2  0
 15 13  1  0
 16 15  1  0
 16 17  1  6
 18 23  1  0
 18 17  1  0
 19 18  2  0
 20 21  2  0
 20 19  1  0
 21 22  1  0
 22 23  2  0
 24 16  1  0
 25 24  2  0
 27 26  1  0
 28 27  1  1
 28 29  1  0
 29 24  1  0
 30 28  1  0
 31 30  2  0
 32 30  1  0
M  END
$$$$
