WFS.pdb
     RDKit          3D

 32 34  0  0  1  0  0  0  0  0999 V2000
   28.1767  -20.4281  -18.7439 N   0  0  0  0  0  0  0  0  0  0  0  0
   27.1461  -19.8262  -17.9400 C   0  0  1  0  0  0  0  0  0  0  0  0
   25.7906  -19.9206  -18.6062 C   0  0  0  0  0  0  0  0  0  0  0  0
   25.6026  -18.7740  -19.5259 C   0  0  0  0  0  0  0  0  0  0  0  0
   25.9532  -18.7647  -20.8849 C   0  0  0  0  0  0  0  0  0  0  0  0
   25.5953  -17.5676  -21.3540 N   0  0  0  0  0  0  0  0  0  0  0  0
   25.0383  -16.7926  -20.4067 C   0  0  0  0  0  0  0  0  0  0  0  0
   24.5275  -15.4882  -20.4244 C   0  0  0  0  0  0  0  0  0  0  0  0
   24.0092  -14.9046  -19.2927 C   0  0  0  0  0  0  0  0  0  0  0  0
   24.0033  -15.6415  -18.1218 C   0  0  0  0  0  0  0  0  0  0  0  0
   24.5182  -16.9437  -18.1251 C   0  0  0  0  0  0  0  0  0  0  0  0
   25.0374  -17.5398  -19.2478 C   0  0  0  0  0  0  0  0  0  0  0  0
   27.1007  -20.4185  -16.5765 C   0  0  0  0  0  0  0  0  0  0  0  0
   27.0766  -21.6948  -16.4736 O   0  0  0  0  0  0  0  0  0  0  0  0
   27.0852  -19.6757  -15.3733 N   0  0  0  0  0  0  0  0  0  0  0  0
   26.8037  -20.3051  -14.0839 C   0  0  1  0  0  0  0  0  0  0  0  0
   27.5403  -19.5679  -12.9847 C   0  0  0  0  0  0  0  0  0  0  0  0
   27.2925  -20.0484  -11.6351 C   0  0  0  0  0  0  0  0  0  0  0  0
   28.0314  -21.0588  -11.0576 C   0  0  0  0  0  0  0  0  0  0  0  0
   27.8146  -21.5148   -9.7834 C   0  0  0  0  0  0  0  0  0  0  0  0
   26.8240  -20.9616   -9.0201 C   0  0  0  0  0  0  0  0  0  0  0  0
   26.0584  -19.9469   -9.5566 C   0  0  0  0  0  0  0  0  0  0  0  0
   26.3024  -19.5045  -10.8553 C   0  0  0  0  0  0  0  0  0  0  0  0
   25.3797  -20.4401  -13.8561 C   0  0  0  0  0  0  0  0  0  0  0  0
   24.5829  -19.4775  -13.6683 O   0  0  0  0  0  0  0  0  0  0  0  0
   23.2583  -24.0845  -12.8180 O   0  0  0  0  0  0  0  0  0  0  0  0
   22.8304  -23.2511  -13.8706 C   0  0  0  0  0  0  0  0  0  0  0  0
   23.3532  -21.8755  -13.5607 C   0  0  2  0  0  0  0  0  0  0  0  0
   24.7709  -21.7345  -13.8313 N   0  0  0  0  0  0  0  0  0  0  0  0
   23.0685  -21.6079  -12.1153 C   0  0  0  0  0  0  0  0  0  0  0  0
   24.0532  -21.5376  -11.3329 O   0  0  0  0  0  0  0  0  0  0  0  0
   21.7673  -21.4442  -11.6579 O   0  0  0  0  0  0  0  0  0  0  0  0
  2  1  1  6
  3  4  1  0
  3  2  1  0
  4  5  2  0
  5  6  1  0
  7  6  1  0
  8  7  2  0
  9  8  1  0
 10 11  1  0
 10  9  2  0
 11 12  2  0
 12  4  1  0
 12  7  1  0
 13  2  1  0
 13 14  2  0
 15 13  1  0
 16 15  1  0
 16 17  1  1
 18 23  1  0
 18 17  1  0
 19 18  2  0
 20 21  2  0
 20 19  1  0
 21 22  1  0
 22 23  2  0
 24 16  1  0
 25 24  2  0
 27 26  1  0
 28 27  1  1
 28 29  1  0
 29 24  1  0
 30 28  1  0
 31 30  2  0
 32 30  1  0
M  END
$$$$
