WFS.pdb
     RDKit          3D

 32 34  0  0  1  0  0  0  0  0999 V2000
   26.2379  -22.8855  -12.3684 N   0  0  0  0  0  0  0  0  0  0  0  0
   25.7517  -21.5568  -12.1062 C   0  0  1  0  0  0  0  0  0  0  0  0
   26.8544  -20.5262  -12.2155 C   0  0  0  0  0  0  0  0  0  0  0  0
   27.8660  -20.7595  -11.1580 C   0  0  0  0  0  0  0  0  0  0  0  0
   29.2270  -21.0149  -11.3865 C   0  0  0  0  0  0  0  0  0  0  0  0
   29.7908  -21.1355  -10.1828 N   0  0  0  0  0  0  0  0  0  0  0  0
   28.9037  -20.9794   -9.1845 C   0  0  0  0  0  0  0  0  0  0  0  0
   29.0244  -21.0253   -7.7895 C   0  0  0  0  0  0  0  0  0  0  0  0
   27.9378  -20.8386   -6.9682 C   0  0  0  0  0  0  0  0  0  0  0  0
   26.7078  -20.6022   -7.5558 C   0  0  0  0  0  0  0  0  0  0  0  0
   26.6083  -20.5598   -8.9519 C   0  0  0  0  0  0  0  0  0  0  0  0
   27.6849  -20.7429   -9.7843 C   0  0  0  0  0  0  0  0  0  0  0  0
   24.6162  -21.2040  -12.9995 C   0  0  0  0  0  0  0  0  0  0  0  0
   24.5236  -21.8085  -14.1248 O   0  0  0  0  0  0  0  0  0  0  0  0
   23.6196  -20.2468  -12.6994 N   0  0  0  0  0  0  0  0  0  0  0  0
   22.4076  -20.1186  -13.5074 C   0  0  1  0  0  0  0  0  0  0  0  0
   21.2941  -19.5287  -12.6669 C   0  0  0  0  0  0  0  0  0  0  0  0
   20.7434  -20.4108  -11.6508 C   0  0  0  0  0  0  0  0  0  0  0  0
   20.9066  -20.1840  -10.3009 C   0  0  0  0  0  0  0  0  0  0  0  0
   20.3850  -21.0021   -9.3327 C   0  0  0  0  0  0  0  0  0  0  0  0
   19.6618  -22.1064   -9.6896 C   0  0  0  0  0  0  0  0  0  0  0  0
   19.4725  -22.3735  -11.0299 C   0  0  0  0  0  0  0  0  0  0  0  0
   20.0152  -21.5234  -11.9914 C   0  0  0  0  0  0  0  0  0  0  0  0
   22.6623  -19.4030  -14.7406 C   0  0  0  0  0  0  0  0  0  0  0  0
   23.5614  -18.5289  -14.8972 O   0  0  0  0  0  0  0  0  0  0  0  0
   24.0358  -20.8358  -18.5938 O   0  0  0  0  0  0  0  0  0  0  0  0
   23.5153  -20.8673  -17.2848 C   0  0  0  0  0  0  0  0  0  0  0  0
   22.4929  -19.7669  -17.2091 C   0  0  2  0  0  0  0  0  0  0  0  0
   21.8703  -19.6618  -15.9036 N   0  0  0  0  0  0  0  0  0  0  0  0
   21.4619  -20.0463  -18.2583 C   0  0  0  0  0  0  0  0  0  0  0  0
   21.8498  -20.0919  -19.4558 O   0  0  0  0  0  0  0  0  0  0  0  0
   20.1297  -20.2469  -17.9207 O   0  0  0  0  0  0  0  0  0  0  0  0
  2  1  1  6
  3  4  1  0
  3  2  1  0
  4  5  2  0
  5  6  1  0
  7  6  1  0
  8  7  2  0
  9  8  1  0
 10 11  1  0
 10  9  2  0
 11 12  2  0
 12  4  1  0
 12  7  1  0
 13  2  1  0
 13 14  2  0
 15 13  1  0
 16 15  1  0
 16 17  1  1
 18 23  1  0
 18 17  1  0
 19 18  2  0
 20 21  2  0
 20 19  1  0
 21 22  1  0
 22 23  2  0
 24 16  1  0
 25 24  2  0
 27 26  1  0
 28 27  1  1
 28 29  1  0
 29 24  1  0
 30 28  1  0
 31 30  2  0
 32 30  1  0
M  END
$$$$
