WFS.pdb
     RDKit          3D

 32 34  0  0  1  0  0  0  0  0999 V2000
   26.8655  -20.8775  -12.9988 N   0  0  0  0  0  0  0  0  0  0  0  0
   25.8855  -20.5567  -11.9952 C   0  0  1  0  0  0  0  0  0  0  0  0
   24.6047  -21.3377  -12.1945 C   0  0  0  0  0  0  0  0  0  0  0  0
   23.7835  -20.6946  -13.2471 C   0  0  0  0  0  0  0  0  0  0  0  0
   24.1358  -20.6061  -14.6029 C   0  0  0  0  0  0  0  0  0  0  0  0
   23.1223  -19.9868  -15.2116 N   0  0  0  0  0  0  0  0  0  0  0  0
   22.1345  -19.6627  -14.3589 C   0  0  0  0  0  0  0  0  0  0  0  0
   20.9050  -19.0134  -14.5306 C   0  0  0  0  0  0  0  0  0  0  0  0
   20.0576  -18.7885  -13.4717 C   0  0  0  0  0  0  0  0  0  0  0  0
   20.4499  -19.2218  -12.2177 C   0  0  0  0  0  0  0  0  0  0  0  0
   21.6825  -19.8690  -12.0672 C   0  0  0  0  0  0  0  0  0  0  0  0
   22.5380  -20.1018  -13.1156 C   0  0  0  0  0  0  0  0  0  0  0  0
   26.4187  -20.7687  -10.6231 C   0  0  0  0  0  0  0  0  0  0  0  0
   26.7868  -21.9506  -10.2948 O   0  0  0  0  0  0  0  0  0  0  0  0
   26.5555  -19.7571   -9.6445 N   0  0  0  0  0  0  0  0  0  0  0  0
   26.8658  -20.0718   -8.2507 C   0  0  1  0  0  0  0  0  0  0  0  0
   27.3677  -18.8282   -7.5465 C   0  0  0  0  0  0  0  0  0  0  0  0
   28.1970  -19.0644   -6.3759 C   0  0  0  0  0  0  0  0  0  0  0  0
   28.0738  -18.3294   -5.2162 C   0  0  0  0  0  0  0  0  0  0  0  0
   28.8424  -18.5476   -4.1026 C   0  0  0  0  0  0  0  0  0  0  0  0
   29.7877  -19.5357   -4.1090 C   0  0  0  0  0  0  0  0  0  0  0  0
   29.9468  -20.2973   -5.2484 C   0  0  0  0  0  0  0  0  0  0  0  0
   29.1505  -20.0518   -6.3653 C   0  0  0  0  0  0  0  0  0  0  0  0
   25.7514  -20.7187   -7.5893 C   0  0  0  0  0  0  0  0  0  0  0  0
   24.5504  -20.3307   -7.6498 O   0  0  0  0  0  0  0  0  0  0  0  0
   26.4780  -23.5765   -4.7313 O   0  0  0  0  0  0  0  0  0  0  0  0
   25.2368  -23.7640   -5.3713 C   0  0  0  0  0  0  0  0  0  0  0  0
   24.8827  -22.4458   -6.0029 C   0  0  2  0  0  0  0  0  0  0  0  0
   25.9630  -21.8891   -6.7942 N   0  0  0  0  0  0  0  0  0  0  0  0
   24.5102  -21.5093   -4.8958 C   0  0  0  0  0  0  0  0  0  0  0  0
   23.5280  -21.8258   -4.1733 O   0  0  0  0  0  0  0  0  0  0  0  0
   25.2222  -20.3371   -4.6764 O   0  0  0  0  0  0  0  0  0  0  0  0
  2  1  1  6
  3  4  1  0
  3  2  1  0
  4  5  2  0
  5  6  1  0
  7  6  1  0
  8  7  2  0
  9  8  1  0
 10 11  1  0
 10  9  2  0
 11 12  2  0
 12  4  1  0
 12  7  1  0
 13  2  1  0
 13 14  2  0
 15 13  1  0
 16 15  1  0
 16 17  1  1
 18 23  1  0
 18 17  1  0
 19 18  2  0
 20 21  2  0
 20 19  1  0
 21 22  1  0
 22 23  2  0
 24 16  1  0
 25 24  2  0
 27 26  1  0
 28 27  1  1
 28 29  1  0
 29 24  1  0
 30 28  1  0
 31 30  2  0
 32 30  1  0
M  END
$$$$
