WFS.pdb
     RDKit          3D

 32 34  0  0  1  0  0  0  0  0999 V2000
   28.4312  -20.9615  -14.7255 N   0  0  0  0  0  0  0  0  0  0  0  0
   27.3254  -20.1025  -14.3937 C   0  0  1  0  0  0  0  0  0  0  0  0
   26.6625  -19.5408  -15.6326 C   0  0  0  0  0  0  0  0  0  0  0  0
   27.5074  -18.4702  -16.2123 C   0  0  0  0  0  0  0  0  0  0  0  0
   28.3223  -18.6116  -17.3463 C   0  0  0  0  0  0  0  0  0  0  0  0
   28.8859  -17.4192  -17.5512 N   0  0  0  0  0  0  0  0  0  0  0  0
   28.5032  -16.5089  -16.6385 C   0  0  0  0  0  0  0  0  0  0  0  0
   28.8279  -15.1597  -16.4472 C   0  0  0  0  0  0  0  0  0  0  0  0
   28.2972  -14.4337  -15.4074 C   0  0  0  0  0  0  0  0  0  0  0  0
   27.4256  -15.0719  -14.5431 C   0  0  0  0  0  0  0  0  0  0  0  0
   27.1135  -16.4210  -14.7517 C   0  0  0  0  0  0  0  0  0  0  0  0
   27.6346  -17.1578  -15.7865 C   0  0  0  0  0  0  0  0  0  0  0  0
   26.3288  -20.8003  -13.5383 C   0  0  0  0  0  0  0  0  0  0  0  0
   26.0244  -22.0095  -13.8304 O   0  0  0  0  0  0  0  0  0  0  0  0
   25.6873  -20.2287  -12.4152 N   0  0  0  0  0  0  0  0  0  0  0  0
   24.6378  -20.9380  -11.6848 C   0  0  1  0  0  0  0  0  0  0  0  0
   24.6869  -20.5545  -10.2203 C   0  0  0  0  0  0  0  0  0  0  0  0
   25.9619  -20.7771   -9.5582 C   0  0  0  0  0  0  0  0  0  0  0  0
   26.3245  -20.1203   -8.4018 C   0  0  0  0  0  0  0  0  0  0  0  0
   27.5190  -20.3275   -7.7623 C   0  0  0  0  0  0  0  0  0  0  0  0
   28.4183  -21.2236   -8.2705 C   0  0  0  0  0  0  0  0  0  0  0  0
   28.0983  -21.9048   -9.4269 C   0  0  0  0  0  0  0  0  0  0  0  0
   26.8761  -21.6728  -10.0546 C   0  0  0  0  0  0  0  0  0  0  0  0
   23.3407  -20.7542  -12.3026 C   0  0  0  0  0  0  0  0  0  0  0  0
   22.8683  -19.6432  -12.6756 O   0  0  0  0  0  0  0  0  0  0  0  0
   21.0531  -24.0291  -13.3442 O   0  0  0  0  0  0  0  0  0  0  0  0
   20.8710  -22.8625  -14.1132 C   0  0  0  0  0  0  0  0  0  0  0  0
   21.2160  -21.7058  -13.2161 C   0  0  2  0  0  0  0  0  0  0  0  0
   22.4847  -21.8768  -12.5348 N   0  0  0  0  0  0  0  0  0  0  0  0
   20.1044  -21.5680  -12.2226 C   0  0  0  0  0  0  0  0  0  0  0  0
   18.9425  -21.3844  -12.6732 O   0  0  0  0  0  0  0  0  0  0  0  0
   20.3483  -21.6403  -10.8572 O   0  0  0  0  0  0  0  0  0  0  0  0
  2  1  1  6
  3  4  1  0
  3  2  1  0
  4  5  2  0
  5  6  1  0
  7  6  1  0
  8  7  2  0
  9  8  1  0
 10 11  1  0
 10  9  2  0
 11 12  2  0
 12  4  1  0
 12  7  1  0
 13  2  1  0
 13 14  2  0
 15 13  1  0
 16 15  1  0
 16 17  1  1
 18 23  1  0
 18 17  1  0
 19 18  2  0
 20 21  2  0
 20 19  1  0
 21 22  1  0
 22 23  2  0
 24 16  1  0
 25 24  2  0
 27 26  1  0
 28 27  1  6
 28 29  1  0
 29 24  1  0
 30 28  1  0
 31 30  2  0
 32 30  1  0
M  END
$$$$
