WFS.pdb
     RDKit          3D

 32 34  0  0  1  0  0  0  0  0999 V2000
   26.2453  -21.5424  -13.7275 N   0  0  0  0  0  0  0  0  0  0  0  0
   26.7084  -20.4941  -12.8573 C   0  0  1  0  0  0  0  0  0  0  0  0
   25.9055  -19.2238  -13.0359 C   0  0  0  0  0  0  0  0  0  0  0  0
   26.0378  -18.7383  -14.4297 C   0  0  0  0  0  0  0  0  0  0  0  0
   24.9658  -18.4137  -15.2755 C   0  0  0  0  0  0  0  0  0  0  0  0
   25.5083  -17.9937  -16.4203 N   0  0  0  0  0  0  0  0  0  0  0  0
   26.8523  -18.0191  -16.3891 C   0  0  0  0  0  0  0  0  0  0  0  0
   27.8318  -17.6853  -17.3335 C   0  0  0  0  0  0  0  0  0  0  0  0
   29.1718  -17.8125  -17.0539 C   0  0  0  0  0  0  0  0  0  0  0  0
   29.5368  -18.2835  -15.8053 C   0  0  0  0  0  0  0  0  0  0  0  0
   28.5425  -18.6113  -14.8754 C   0  0  0  0  0  0  0  0  0  0  0  0
   27.2009  -18.4879  -15.1401 C   0  0  0  0  0  0  0  0  0  0  0  0
   26.6994  -20.9222  -11.4331 C   0  0  0  0  0  0  0  0  0  0  0  0
   25.8747  -21.8374  -11.0833 O   0  0  0  0  0  0  0  0  0  0  0  0
   27.5406  -20.3951  -10.4260 N   0  0  0  0  0  0  0  0  0  0  0  0
   27.3193  -20.6834   -9.0097 C   0  0  1  0  0  0  0  0  0  0  0  0
   28.4599  -20.1173   -8.1895 C   0  0  0  0  0  0  0  0  0  0  0  0
   28.2661  -20.1415   -6.7488 C   0  0  0  0  0  0  0  0  0  0  0  0
   28.6210  -21.2210   -5.9684 C   0  0  0  0  0  0  0  0  0  0  0  0
   28.4525  -21.2535   -4.6086 C   0  0  0  0  0  0  0  0  0  0  0  0
   27.9082  -20.1780   -3.9628 C   0  0  0  0  0  0  0  0  0  0  0  0
   27.5377  -19.0745   -4.7033 C   0  0  0  0  0  0  0  0  0  0  0  0
   27.7212  -19.0709   -6.0847 C   0  0  0  0  0  0  0  0  0  0  0  0
   26.0063  -20.2517   -8.5766 C   0  0  0  0  0  0  0  0  0  0  0  0
   25.5567  -19.0765   -8.6924 O   0  0  0  0  0  0  0  0  0  0  0  0
   22.7421  -22.0406   -8.8626 O   0  0  0  0  0  0  0  0  0  0  0  0
   22.6884  -20.7837   -8.2280 C   0  0  0  0  0  0  0  0  0  0  0  0
   23.8900  -20.7128   -7.3264 C   0  0  2  0  0  0  0  0  0  0  0  0
   25.1052  -21.1798   -7.9653 N   0  0  0  0  0  0  0  0  0  0  0  0
   23.5857  -21.5397   -6.1159 C   0  0  0  0  0  0  0  0  0  0  0  0
   24.4142  -22.4346   -5.8007 O   0  0  0  0  0  0  0  0  0  0  0  0
   22.4330  -21.3257   -5.3711 O   0  0  0  0  0  0  0  0  0  0  0  0
  2  1  1  6
  3  4  1  0
  3  2  1  0
  4  5  2  0
  5  6  1  0
  7  6  1  0
  8  7  2  0
  9  8  1  0
 10 11  1  0
 10  9  2  0
 11 12  2  0
 12  4  1  0
 12  7  1  0
 13  2  1  0
 13 14  2  0
 15 13  1  0
 16 15  1  0
 16 17  1  1
 18 23  1  0
 18 17  1  0
 19 18  2  0
 20 21  2  0
 20 19  1  0
 21 22  1  0
 22 23  2  0
 24 16  1  0
 25 24  2  0
 27 26  1  0
 28 27  1  6
 28 29  1  0
 29 24  1  0
 30 28  1  0
 31 30  2  0
 32 30  1  0
M  END
$$$$
