WFS.pdb
     RDKit          3D

 32 34  0  0  1  0  0  0  0  0999 V2000
   27.2882  -20.7284  -12.8089 N   0  0  0  0  0  0  0  0  0  0  0  0
   26.1353  -20.5398  -11.9688 C   0  0  1  0  0  0  0  0  0  0  0  0
   24.9688  -21.3911  -12.4209 C   0  0  0  0  0  0  0  0  0  0  0  0
   24.3137  -20.7633  -13.5925 C   0  0  0  0  0  0  0  0  0  0  0  0
   24.7689  -20.8569  -14.9169 C   0  0  0  0  0  0  0  0  0  0  0  0
   23.8895  -20.1839  -15.6617 N   0  0  0  0  0  0  0  0  0  0  0  0
   22.8945  -19.6565  -14.9270 C   0  0  0  0  0  0  0  0  0  0  0  0
   21.7745  -18.8829  -15.2587 C   0  0  0  0  0  0  0  0  0  0  0  0
   20.8911  -18.4497  -14.2987 C   0  0  0  0  0  0  0  0  0  0  0  0
   21.1349  -18.7976  -12.9820 C   0  0  0  0  0  0  0  0  0  0  0  0
   22.2596  -19.5716  -12.6712 C   0  0  0  0  0  0  0  0  0  0  0  0
   23.1493  -20.0126  -13.6195 C   0  0  0  0  0  0  0  0  0  0  0  0
   26.4515  -20.8031  -10.5396 C   0  0  0  0  0  0  0  0  0  0  0  0
   26.9594  -21.9382  -10.2332 O   0  0  0  0  0  0  0  0  0  0  0  0
   26.2364  -19.8883   -9.4829 N   0  0  0  0  0  0  0  0  0  0  0  0
   26.1739  -20.3241   -8.0886 C   0  0  1  0  0  0  0  0  0  0  0  0
   26.4366  -19.1459   -7.1736 C   0  0  0  0  0  0  0  0  0  0  0  0
   27.5897  -19.2791   -6.2982 C   0  0  0  0  0  0  0  0  0  0  0  0
   28.8612  -18.9094   -6.6812 C   0  0  0  0  0  0  0  0  0  0  0  0
   29.9552  -19.0209   -5.8630 C   0  0  0  0  0  0  0  0  0  0  0  0
   29.8127  -19.5197   -4.5977 C   0  0  0  0  0  0  0  0  0  0  0  0
   28.5579  -19.9029   -4.1706 C   0  0  0  0  0  0  0  0  0  0  0  0
   27.4646  -19.7778   -5.0254 C   0  0  0  0  0  0  0  0  0  0  0  0
   24.9420  -21.0313   -7.8057 C   0  0  0  0  0  0  0  0  0  0  0  0
   23.8092  -20.7273   -8.2760 O   0  0  0  0  0  0  0  0  0  0  0  0
   24.8514  -23.8716   -4.8548 O   0  0  0  0  0  0  0  0  0  0  0  0
   23.9177  -24.1396   -5.8755 C   0  0  0  0  0  0  0  0  0  0  0  0
   23.7034  -22.8419   -6.6048 C   0  0  2  0  0  0  0  0  0  0  0  0
   24.9438  -22.1677   -6.9365 N   0  0  0  0  0  0  0  0  0  0  0  0
   22.8563  -21.9741   -5.7266 C   0  0  0  0  0  0  0  0  0  0  0  0
   21.7299  -22.4206   -5.3821 O   0  0  0  0  0  0  0  0  0  0  0  0
   23.2984  -20.7252   -5.3097 O   0  0  0  0  0  0  0  0  0  0  0  0
  2  1  1  6
  3  4  1  0
  3  2  1  0
  4  5  2  0
  5  6  1  0
  7  6  1  0
  8  7  2  0
  9  8  1  0
 10 11  1  0
 10  9  2  0
 11 12  2  0
 12  4  1  0
 12  7  1  0
 13  2  1  0
 13 14  2  0
 15 13  1  0
 16 15  1  0
 16 17  1  1
 18 23  1  0
 18 17  1  0
 19 18  2  0
 20 21  2  0
 20 19  1  0
 21 22  1  0
 22 23  2  0
 24 16  1  0
 25 24  2  0
 27 26  1  0
 28 27  1  1
 28 29  1  0
 29 24  1  0
 30 28  1  0
 31 30  2  0
 32 30  1  0
M  END
$$$$
