FMM.pdb
     RDKit          3D

 28 28  0  0  1  0  0  0  0  0999 V2000
    4.9698  -19.7445   23.5271 N   0  0  0  0  0  0  0  0  0  0  0  0
    5.6531  -19.3716   24.7333 C   0  0  1  0  0  0  0  0  0  0  0  0
    6.5828  -20.4828   25.2186 C   0  0  0  0  0  0  0  0  0  0  0  0
    7.1907  -20.0659   26.4870 C   0  0  0  0  0  0  0  0  0  0  0  0
    8.3968  -19.3940   26.4749 C   0  0  0  0  0  0  0  0  0  0  0  0
    8.9587  -19.0066   27.6664 C   0  0  0  0  0  0  0  0  0  0  0  0
    8.2997  -19.3004   28.8572 C   0  0  0  0  0  0  0  0  0  0  0  0
    7.0921  -19.9742   28.8526 C   0  0  0  0  0  0  0  0  0  0  0  0
    6.5401  -20.3559   27.6609 C   0  0  0  0  0  0  0  0  0  0  0  0
    6.5633  -18.2183   24.4068 C   0  0  0  0  0  0  0  0  0  0  0  0
    7.4229  -18.2698   23.5028 O   0  0  0  0  0  0  0  0  0  0  0  0
    7.2803  -10.5884   26.1577 C   0  0  0  0  0  0  0  0  0  0  0  0
    6.4625  -12.1918   26.3696 S   0  0  0  0  0  0  0  0  0  0  0  0
    7.4202  -13.4225   25.3828 C   0  0  0  0  0  0  0  0  0  0  0  0
    6.7460  -14.7249   25.5826 C   0  0  0  0  0  0  0  0  0  0  0  0
    7.2480  -15.8760   24.7489 C   0  0  2  0  0  0  0  0  0  0  0  0
    6.4172  -17.0438   25.1694 N   0  0  0  0  0  0  0  0  0  0  0  0
    8.6577  -16.1524   25.0654 C   0  0  0  0  0  0  0  0  0  0  0  0
    8.9368  -17.1041   25.8602 O   0  0  0  0  0  0  0  0  0  0  0  0
   11.4476  -19.8416   21.5512 C   0  0  0  0  0  0  0  0  0  0  0  0
   12.5991  -18.5784   22.1216 S   0  0  0  0  0  0  0  0  0  0  0  0
   12.1749  -18.1230   23.8103 C   0  0  0  0  0  0  0  0  0  0  0  0
   11.0001  -17.2409   23.8573 C   0  0  0  0  0  0  0  0  0  0  0  0
   11.1104  -15.9221   24.5708 C   0  0  2  0  0  0  0  0  0  0  0  0
    9.6993  -15.4122   24.5193 N   0  0  0  0  0  0  0  0  0  0  0  0
   11.9417  -14.8995   23.9452 C   0  0  0  0  0  0  0  0  0  0  0  0
   11.3988  -13.7791   23.3361 O   0  0  0  0  0  0  0  0  0  0  0  0
   13.2203  -14.9447   23.8970 O   0  0  0  0  0  0  0  0  0  0  0  0
  2  1  1  6
  2  3  1  0
  4  3  1  0
  4  5  2  0
  6  5  1  0
  7  6  2  0
  8  9  2  0
  8  7  1  0
  9  4  1  0
 10  2  1  0
 11 10  2  0
 13 12  1  0
 14 15  1  0
 14 13  1  0
 16 15  1  1
 16 17  1  0
 17 10  1  0
 18 16  1  0
 18 19  2  0
 20 21  1  0
 22 21  1  0
 24 23  1  6
 23 22  1  0
 24 25  1  0
 25 18  1  0
 26 24  1  0
 27 26  1  0
 28 26  2  0
M  END
$$$$
