FMM.pdb
     RDKit          3D

 28 28  0  0  1  0  0  0  0  0999 V2000
    6.5435  -19.7227   24.6049 N   0  0  0  0  0  0  0  0  0  0  0  0
    6.1753  -18.4885   23.9709 C   0  0  1  0  0  0  0  0  0  0  0  0
    5.8556  -17.4032   24.9977 C   0  0  0  0  0  0  0  0  0  0  0  0
    6.9708  -17.3112   25.9465 C   0  0  0  0  0  0  0  0  0  0  0  0
    7.2266  -16.1122   26.5814 C   0  0  0  0  0  0  0  0  0  0  0  0
    8.2719  -16.0347   27.4685 C   0  0  0  0  0  0  0  0  0  0  0  0
    9.0482  -17.1657   27.7062 C   0  0  0  0  0  0  0  0  0  0  0  0
    8.7792  -18.3596   27.0622 C   0  0  0  0  0  0  0  0  0  0  0  0
    7.7359  -18.4272   26.1804 C   0  0  0  0  0  0  0  0  0  0  0  0
    7.3803  -17.9775   23.2278 C   0  0  0  0  0  0  0  0  0  0  0  0
    8.3755  -18.6900   22.9814 O   0  0  0  0  0  0  0  0  0  0  0  0
    6.5148  -12.7734   19.4893 C   0  0  0  0  0  0  0  0  0  0  0  0
    8.2004  -12.5155   20.1032 S   0  0  0  0  0  0  0  0  0  0  0  0
    8.9234  -14.1842   20.4165 C   0  0  0  0  0  0  0  0  0  0  0  0
    8.0033  -14.8616   21.3574 C   0  0  0  0  0  0  0  0  0  0  0  0
    8.4183  -16.2299   21.8347 C   0  0  2  0  0  0  0  0  0  0  0  0
    7.3570  -16.6349   22.8044 N   0  0  0  0  0  0  0  0  0  0  0  0
    9.7065  -16.1500   22.5403 C   0  0  0  0  0  0  0  0  0  0  0  0
   10.7581  -15.8855   21.8774 O   0  0  0  0  0  0  0  0  0  0  0  0
    9.7363  -12.6259   27.6485 C   0  0  0  0  0  0  0  0  0  0  0  0
   10.5843  -14.0740   28.3047 S   0  0  0  0  0  0  0  0  0  0  0  0
   11.4358  -14.9107   26.9579 C   0  0  0  0  0  0  0  0  0  0  0  0
   10.5072  -15.3078   25.8900 C   0  0  0  0  0  0  0  0  0  0  0  0
   11.0607  -15.9476   24.6471 C   0  0  2  0  0  0  0  0  0  0  0  0
    9.8144  -16.3473   23.9117 N   0  0  0  0  0  0  0  0  0  0  0  0
   11.8443  -17.1654   24.8233 C   0  0  0  0  0  0  0  0  0  0  0  0
   11.4398  -18.3843   24.3020 O   0  0  0  0  0  0  0  0  0  0  0  0
   12.9501  -17.2205   25.4663 O   0  0  0  0  0  0  0  0  0  0  0  0
  2  1  1  1
  2  3  1  0
  4  3  1  0
  4  5  2  0
  6  5  1  0
  7  6  2  0
  8  9  2  0
  8  7  1  0
  9  4  1  0
 10  2  1  0
 11 10  2  0
 13 12  1  0
 14 15  1  0
 14 13  1  0
 16 15  1  1
 16 17  1  0
 17 10  1  0
 18 16  1  0
 18 19  2  0
 20 21  1  0
 22 21  1  0
 24 23  1  1
 23 22  1  0
 24 25  1  0
 25 18  1  0
 26 24  1  0
 27 26  1  0
 28 26  2  0
M  END
$$$$
