FMM.pdb
     RDKit          3D

 28 28  0  0  1  0  0  0  0  0999 V2000
    5.7031  -18.0628   25.0256 N   0  0  0  0  0  0  0  0  0  0  0  0
    6.1252  -16.6936   24.9365 C   0  0  1  0  0  0  0  0  0  0  0  0
    6.5451  -16.1455   26.2995 C   0  0  0  0  0  0  0  0  0  0  0  0
    6.5910  -14.6812   26.2230 C   0  0  0  0  0  0  0  0  0  0  0  0
    5.4179  -13.9584   26.3104 C   0  0  0  0  0  0  0  0  0  0  0  0
    5.4697  -12.5881   26.2385 C   0  0  0  0  0  0  0  0  0  0  0  0
    6.7024  -11.9608   26.0792 C   0  0  0  0  0  0  0  0  0  0  0  0
    7.8686  -12.6990   25.9932 C   0  0  0  0  0  0  0  0  0  0  0  0
    7.8072  -14.0633   26.0659 C   0  0  0  0  0  0  0  0  0  0  0  0
    7.3753  -16.6528   24.0993 C   0  0  0  0  0  0  0  0  0  0  0  0
    8.2991  -17.4836   24.2220 O   0  0  0  0  0  0  0  0  0  0  0  0
    9.0570  -12.6404   19.1976 C   0  0  0  0  0  0  0  0  0  0  0  0
    7.3518  -13.2530   19.2369 S   0  0  0  0  0  0  0  0  0  0  0  0
    7.3247  -14.7056   20.3749 C   0  0  0  0  0  0  0  0  0  0  0  0
    8.4844  -14.5415   21.2798 C   0  0  0  0  0  0  0  0  0  0  0  0
    8.7066  -15.6360   22.2922 C   0  0  2  0  0  0  0  0  0  0  0  0
    7.4807  -15.6228   23.1452 N   0  0  0  0  0  0  0  0  0  0  0  0
    9.8753  -15.3216   23.1283 C   0  0  0  0  0  0  0  0  0  0  0  0
   10.0281  -14.1338   23.5539 O   0  0  0  0  0  0  0  0  0  0  0  0
    9.8957  -13.9815   28.3885 C   0  0  0  0  0  0  0  0  0  0  0  0
   10.4701  -15.6887   28.4370 S   0  0  0  0  0  0  0  0  0  0  0  0
   11.6463  -15.9460   27.0993 C   0  0  0  0  0  0  0  0  0  0  0  0
   10.9853  -15.9487   25.7864 C   0  0  0  0  0  0  0  0  0  0  0  0
   11.8338  -16.0043   24.5465 C   0  0  2  0  0  0  0  0  0  0  0  0
   10.8179  -16.2814   23.4766 N   0  0  0  0  0  0  0  0  0  0  0  0
   12.8193  -17.0770   24.4675 C   0  0  0  0  0  0  0  0  0  0  0  0
   12.5077  -18.3285   23.9596 O   0  0  0  0  0  0  0  0  0  0  0  0
   14.0340  -16.9657   24.8566 O   0  0  0  0  0  0  0  0  0  0  0  0
  2  1  1  1
  2  3  1  0
  4  3  1  0
  4  5  2  0
  6  5  1  0
  7  6  2  0
  8  9  2  0
  8  7  1  0
  9  4  1  0
 10  2  1  0
 11 10  2  0
 13 12  1  0
 14 15  1  0
 14 13  1  0
 16 15  1  6
 16 17  1  0
 17 10  1  0
 18 16  1  0
 18 19  2  0
 20 21  1  0
 22 21  1  0
 24 23  1  1
 23 22  1  0
 24 25  1  0
 25 18  1  0
 26 24  1  0
 27 26  1  0
 28 26  2  0
M  END
$$$$
