FMM.pdb
     RDKit          3D

 28 28  0  0  1  0  0  0  0  0999 V2000
    7.6540  -16.9771   25.6017 N   0  0  0  0  0  0  0  0  0  0  0  0
    6.4573  -17.1793   24.8350 C   0  0  1  0  0  0  0  0  0  0  0  0
    5.4171  -16.0975   25.1219 C   0  0  0  0  0  0  0  0  0  0  0  0
    6.1094  -14.8948   25.5978 C   0  0  0  0  0  0  0  0  0  0  0  0
    6.2214  -14.6665   26.9549 C   0  0  0  0  0  0  0  0  0  0  0  0
    6.8715  -13.5388   27.3921 C   0  0  0  0  0  0  0  0  0  0  0  0
    7.4016  -12.6532   26.4576 C   0  0  0  0  0  0  0  0  0  0  0  0
    7.2810  -12.8960   25.1015 C   0  0  0  0  0  0  0  0  0  0  0  0
    6.6319  -14.0219   24.6755 C   0  0  0  0  0  0  0  0  0  0  0  0
    6.8087  -17.0048   23.3820 C   0  0  0  0  0  0  0  0  0  0  0  0
    6.2968  -17.6931   22.4748 O   0  0  0  0  0  0  0  0  0  0  0  0
    8.2464  -11.5158   19.8885 C   0  0  0  0  0  0  0  0  0  0  0  0
    8.5943  -13.2705   19.5977 S   0  0  0  0  0  0  0  0  0  0  0  0
    8.5530  -14.1101   21.2405 C   0  0  0  0  0  0  0  0  0  0  0  0
    8.8008  -15.5451   20.9759 C   0  0  0  0  0  0  0  0  0  0  0  0
    8.8869  -16.4454   22.1819 C   0  0  2  0  0  0  0  0  0  0  0  0
    7.7584  -16.0161   23.0611 N   0  0  0  0  0  0  0  0  0  0  0  0
   10.1570  -16.2223   22.8897 C   0  0  0  0  0  0  0  0  0  0  0  0
   11.0300  -15.4613   22.3662 O   0  0  0  0  0  0  0  0  0  0  0  0
   10.1056  -12.7499   28.1219 C   0  0  0  0  0  0  0  0  0  0  0  0
   10.5170  -14.4558   28.5314 S   0  0  0  0  0  0  0  0  0  0  0  0
   11.5907  -15.1203   27.2489 C   0  0  0  0  0  0  0  0  0  0  0  0
   10.8212  -15.7624   26.1737 C   0  0  0  0  0  0  0  0  0  0  0  0
   11.5552  -16.2983   24.9760 C   0  0  2  0  0  0  0  0  0  0  0  0
   10.4348  -16.8103   24.1178 N   0  0  0  0  0  0  0  0  0  0  0  0
   12.4517  -17.4271   25.2007 C   0  0  0  0  0  0  0  0  0  0  0  0
   13.7623  -17.2559   25.6178 O   0  0  0  0  0  0  0  0  0  0  0  0
   12.1197  -18.6520   25.0314 O   0  0  0  0  0  0  0  0  0  0  0  0
  2  1  1  1
  2  3  1  0
  4  3  1  0
  4  5  2  0
  6  5  1  0
  7  6  2  0
  8  9  2  0
  8  7  1  0
  9  4  1  0
 10  2  1  0
 11 10  2  0
 13 12  1  0
 14 15  1  0
 14 13  1  0
 16 15  1  6
 16 17  1  0
 17 10  1  0
 18 16  1  0
 18 19  2  0
 20 21  1  0
 22 21  1  0
 24 23  1  1
 23 22  1  0
 24 25  1  0
 25 18  1  0
 26 24  1  0
 27 26  1  0
 28 26  2  0
M  END
$$$$
