FMM.pdb
     RDKit          3D

 28 28  0  0  1  0  0  0  0  0999 V2000
    6.8060  -19.9788   24.1445 N   0  0  0  0  0  0  0  0  0  0  0  0
    6.8911  -18.7841   24.9357 C   0  0  1  0  0  0  0  0  0  0  0  0
    8.1139  -18.8030   25.8517 C   0  0  0  0  0  0  0  0  0  0  0  0
    7.8381  -19.6931   26.9847 C   0  0  0  0  0  0  0  0  0  0  0  0
    6.6342  -20.3664   27.0436 C   0  0  0  0  0  0  0  0  0  0  0  0
    6.3842  -21.1982   28.1071 C   0  0  0  0  0  0  0  0  0  0  0  0
    7.3496  -21.3427   29.0999 C   0  0  0  0  0  0  0  0  0  0  0  0
    8.5507  -20.6613   29.0266 C   0  0  0  0  0  0  0  0  0  0  0  0
    8.7908  -19.8352   27.9634 C   0  0  0  0  0  0  0  0  0  0  0  0
    7.1250  -17.6294   23.9991 C   0  0  0  0  0  0  0  0  0  0  0  0
    7.5060  -17.7814   22.8199 O   0  0  0  0  0  0  0  0  0  0  0  0
    6.4358  -11.3374   25.2242 C   0  0  0  0  0  0  0  0  0  0  0  0
    5.7590  -12.6595   26.2626 S   0  0  0  0  0  0  0  0  0  0  0  0
    5.7182  -14.1899   25.2322 C   0  0  0  0  0  0  0  0  0  0  0  0
    6.7134  -13.9879   24.1554 C   0  0  0  0  0  0  0  0  0  0  0  0
    7.4791  -15.2079   23.7109 C   0  0  2  0  0  0  0  0  0  0  0  0
    6.8968  -16.3339   24.5008 N   0  0  0  0  0  0  0  0  0  0  0  0
    8.9017  -15.0657   24.0568 C   0  0  0  0  0  0  0  0  0  0  0  0
    9.5675  -14.1091   23.5500 O   0  0  0  0  0  0  0  0  0  0  0  0
    9.8791  -14.5199   29.6790 C   0  0  0  0  0  0  0  0  0  0  0  0
   11.4060  -15.4677   29.5483 S   0  0  0  0  0  0  0  0  0  0  0  0
   11.8811  -15.5712   27.8155 C   0  0  0  0  0  0  0  0  0  0  0  0
   10.7079  -15.6252   26.9318 C   0  0  0  0  0  0  0  0  0  0  0  0
   10.9197  -15.6302   25.4433 C   0  0  2  0  0  0  0  0  0  0  0  0
    9.5445  -15.9387   24.9261 N   0  0  0  0  0  0  0  0  0  0  0  0
   11.8032  -16.6586   24.9048 C   0  0  0  0  0  0  0  0  0  0  0  0
   11.3329  -17.6928   24.1107 O   0  0  0  0  0  0  0  0  0  0  0  0
   13.0652  -16.7030   25.1161 O   0  0  0  0  0  0  0  0  0  0  0  0
  2  1  1  6
  2  3  1  0
  4  3  1  0
  4  5  2  0
  6  5  1  0
  7  6  2  0
  8  9  2  0
  8  7  1  0
  9  4  1  0
 10  2  1  0
 11 10  2  0
 13 12  1  0
 14 15  1  0
 14 13  1  0
 16 15  1  1
 16 17  1  0
 17 10  1  0
 18 16  1  0
 18 19  2  0
 20 21  1  0
 22 21  1  0
 24 23  1  1
 23 22  1  0
 24 25  1  0
 25 18  1  0
 26 24  1  0
 27 26  1  0
 28 26  2  0
M  END
$$$$
