FMM.pdb
     RDKit          3D

 28 28  0  0  1  0  0  0  0  0999 V2000
   10.2544  -17.7154   19.0411 N   0  0  0  0  0  0  0  0  0  0  0  0
    9.2047  -17.8527   20.0107 C   0  0  1  0  0  0  0  0  0  0  0  0
    9.2595  -19.2106   20.7092 C   0  0  0  0  0  0  0  0  0  0  0  0
    8.7486  -20.2328   19.7893 C   0  0  0  0  0  0  0  0  0  0  0  0
    7.4231  -20.1999   19.4041 C   0  0  0  0  0  0  0  0  0  0  0  0
    6.9530  -21.1599   18.5423 C   0  0  0  0  0  0  0  0  0  0  0  0
    7.8230  -22.1428   18.0780 C   0  0  0  0  0  0  0  0  0  0  0  0
    9.1480  -22.1622   18.4733 C   0  0  0  0  0  0  0  0  0  0  0  0
    9.6073  -21.2018   19.3318 C   0  0  0  0  0  0  0  0  0  0  0  0
    9.4525  -16.8448   21.1006 C   0  0  0  0  0  0  0  0  0  0  0  0
   10.5364  -16.2383   21.2275 O   0  0  0  0  0  0  0  0  0  0  0  0
    6.2194  -12.2303   26.3151 C   0  0  0  0  0  0  0  0  0  0  0  0
    5.9777  -13.6977   25.2793 S   0  0  0  0  0  0  0  0  0  0  0  0
    7.2352  -13.6215   23.9309 C   0  0  0  0  0  0  0  0  0  0  0  0
    7.2754  -14.9729   23.3285 C   0  0  0  0  0  0  0  0  0  0  0  0
    8.6416  -15.5309   23.0211 C   0  0  2  0  0  0  0  0  0  0  0  0
    8.3995  -16.5950   22.0013 N   0  0  0  0  0  0  0  0  0  0  0  0
    9.2196  -16.1452   24.2262 C   0  0  0  0  0  0  0  0  0  0  0  0
    9.0441  -17.3872   24.4308 O   0  0  0  0  0  0  0  0  0  0  0  0
    9.3378  -13.0417   29.5943 C   0  0  0  0  0  0  0  0  0  0  0  0
   10.9547  -13.8184   29.7652 S   0  0  0  0  0  0  0  0  0  0  0  0
   11.0100  -15.2846   28.7229 C   0  0  0  0  0  0  0  0  0  0  0  0
   10.7066  -14.9671   27.3202 C   0  0  0  0  0  0  0  0  0  0  0  0
   10.5937  -16.0920   26.3291 C   0  0  2  0  0  0  0  0  0  0  0  0
    9.9591  -15.4152   25.1489 N   0  0  0  0  0  0  0  0  0  0  0  0
    9.7189  -17.2031   26.6872 C   0  0  0  0  0  0  0  0  0  0  0  0
    8.3404  -17.1250   26.5652 O   0  0  0  0  0  0  0  0  0  0  0  0
   10.1340  -18.3255   27.1423 O   0  0  0  0  0  0  0  0  0  0  0  0
  2  1  1  6
  2  3  1  0
  4  3  1  0
  4  5  2  0
  6  5  1  0
  7  6  2  0
  8  9  2  0
  8  7  1  0
  9  4  1  0
 10  2  1  0
 11 10  2  0
 13 12  1  0
 14 15  1  0
 14 13  1  0
 16 15  1  1
 16 17  1  0
 17 10  1  0
 18 16  1  0
 18 19  2  0
 20 21  1  0
 22 21  1  0
 24 23  1  1
 23 22  1  0
 24 25  1  0
 25 18  1  0
 26 24  1  0
 27 26  1  0
 28 26  2  0
M  END
$$$$
