ENS.pdb
     RDKit          3D

 24 23  0  0  1  0  0  0  0  0999 V2000
   16.1441  -12.2727  -11.7819 N   0  0  0  0  0  0  0  0  0  0  0  0
   15.4325  -11.0361  -12.0404 C   0  0  1  0  0  0  0  0  0  0  0  0
   14.0694  -11.1282  -11.3989 C   0  0  0  0  0  0  0  0  0  0  0  0
   13.3030  -12.1969  -12.1498 C   0  0  0  0  0  0  0  0  0  0  0  0
   11.9417  -12.3528  -11.6147 C   0  0  0  0  0  0  0  0  0  0  0  0
   11.1715  -13.1723  -12.1724 O   0  0  0  0  0  0  0  0  0  0  0  0
   16.2488   -9.9303  -11.4996 C   0  0  0  0  0  0  0  0  0  0  0  0
   16.5892   -9.9070  -10.2914 O   0  0  0  0  0  0  0  0  0  0  0  0
   11.4667  -11.6422  -10.5280 O   0  0  0  0  0  0  0  0  0  0  0  0
   20.0211   -7.4242  -11.0877 N   0  0  0  0  0  0  0  0  0  0  0  0
   19.6654   -6.9992  -12.3977 C   0  0  0  0  0  0  0  0  0  0  0  0
   20.6268   -6.4901  -13.0638 O   0  0  0  0  0  0  0  0  0  0  0  0
   18.2885   -7.1435  -12.9277 C   0  0  0  0  0  0  0  0  0  0  0  0
   17.4166   -7.6929  -11.8313 C   0  0  2  0  0  0  0  0  0  0  0  0
   16.6907   -8.8338  -12.3237 N   0  0  0  0  0  0  0  0  0  0  0  0
   16.4948   -6.6435  -11.2925 C   0  0  0  0  0  0  0  0  0  0  0  0
   15.6096   -6.2447  -12.0749 O   0  0  0  0  0  0  0  0  0  0  0  0
   15.6212   -6.0374   -7.2322 O   0  0  0  0  0  0  0  0  0  0  0  0
   14.8610   -5.5700   -8.3253 C   0  0  0  0  0  0  0  0  0  0  0  0
   15.7362   -5.1250   -9.4430 C   0  0  2  0  0  0  0  0  0  0  0  0
   16.5945   -6.1225   -9.9969 N   0  0  0  0  0  0  0  0  0  0  0  0
   16.4324   -3.8421   -9.1090 C   0  0  0  0  0  0  0  0  0  0  0  0
   15.8326   -2.7170   -8.6076 O   0  0  0  0  0  0  0  0  0  0  0  0
   17.6962   -3.7607   -9.2940 O   0  0  0  0  0  0  0  0  0  0  0  0
  2  1  1  1
  3  2  1  0
  4  3  1  0
  5  6  2  0
  5  4  1  0
  7  8  2  0
  7  2  1  0
  9  5  1  0
 11 10  1  0
 11 13  1  0
 12 11  2  0
 14 13  1  6
 14 15  1  0
 15  7  1  0
 16 14  1  0
 17 16  2  0
 20 19  1  1
 19 18  1  0
 20 21  1  0
 21 16  1  0
 22 20  1  0
 22 23  1  0
 24 22  2  0
M  END
$$$$
