ENS.pdb
     RDKit          3D

 24 23  0  0  1  0  0  0  0  0999 V2000
   12.3788  -10.6197  -10.2509 N   0  0  0  0  0  0  0  0  0  0  0  0
   13.8262  -10.5392  -10.2259 C   0  0  1  0  0  0  0  0  0  0  0  0
   14.3657  -11.2914  -11.4180 C   0  0  0  0  0  0  0  0  0  0  0  0
   14.1117  -12.7618  -11.1600 C   0  0  0  0  0  0  0  0  0  0  0  0
   14.5021  -13.5819  -12.3171 C   0  0  0  0  0  0  0  0  0  0  0  0
   13.9189  -14.6792  -12.4948 O   0  0  0  0  0  0  0  0  0  0  0  0
   14.1936   -9.1086  -10.2345 C   0  0  0  0  0  0  0  0  0  0  0  0
   13.4090   -8.2409  -10.6901 O   0  0  0  0  0  0  0  0  0  0  0  0
   15.4794  -13.2056  -13.2196 O   0  0  0  0  0  0  0  0  0  0  0  0
   14.3486   -7.4799   -6.7987 N   0  0  0  0  0  0  0  0  0  0  0  0
   15.0292   -6.5193   -7.5970 C   0  0  0  0  0  0  0  0  0  0  0  0
   14.4845   -5.3659   -7.6092 O   0  0  0  0  0  0  0  0  0  0  0  0
   16.2660   -6.8485   -8.3451 C   0  0  0  0  0  0  0  0  0  0  0  0
   15.8776   -7.2654   -9.7377 C   0  0  2  0  0  0  0  0  0  0  0  0
   15.4586   -8.6422   -9.7255 N   0  0  0  0  0  0  0  0  0  0  0  0
   16.9974   -7.0384  -10.7051 C   0  0  0  0  0  0  0  0  0  0  0  0
   17.7940   -7.9872  -10.8461 O   0  0  0  0  0  0  0  0  0  0  0  0
   18.7017   -7.7867  -13.5439 O   0  0  0  0  0  0  0  0  0  0  0  0
   17.6734   -6.8244  -13.6334 C   0  0  0  0  0  0  0  0  0  0  0  0
   17.8756   -5.7227  -12.6543 C   0  0  2  0  0  0  0  0  0  0  0  0
   17.1666   -5.8475  -11.4214 N   0  0  0  0  0  0  0  0  0  0  0  0
   17.7279   -4.3832  -13.3071 C   0  0  0  0  0  0  0  0  0  0  0  0
   18.7276   -3.6883  -13.9354 O   0  0  0  0  0  0  0  0  0  0  0  0
   16.5809   -3.8156  -13.2959 O   0  0  0  0  0  0  0  0  0  0  0  0
  2  1  1  6
  3  2  1  0
  4  3  1  0
  5  6  2  0
  5  4  1  0
  7  8  2  0
  7  2  1  0
  9  5  1  0
 11 10  1  0
 11 13  1  0
 12 11  2  0
 14 13  1  1
 14 15  1  0
 15  7  1  0
 16 14  1  0
 17 16  2  0
 20 19  1  6
 19 18  1  0
 20 21  1  0
 21 16  1  0
 22 20  1  0
 22 23  1  0
 24 22  2  0
M  END
$$$$
