ENS.pdb
     RDKit          3D

 24 23  0  0  1  0  0  0  0  0999 V2000
   27.9316  -20.6428  -15.6212 N   0  0  0  0  0  0  0  0  0  0  0  0
   27.2342  -19.8016  -14.6682 C   0  0  1  0  0  0  0  0  0  0  0  0
   26.6986  -18.5954  -15.4004 C   0  0  0  0  0  0  0  0  0  0  0  0
   27.8975  -17.8292  -15.9186 C   0  0  0  0  0  0  0  0  0  0  0  0
   27.9226  -17.8082  -17.3892 C   0  0  0  0  0  0  0  0  0  0  0  0
   28.6719  -16.9794  -17.9615 O   0  0  0  0  0  0  0  0  0  0  0  0
   26.1700  -20.6172  -14.0484 C   0  0  0  0  0  0  0  0  0  0  0  0
   25.7697  -21.6779  -14.5875 O   0  0  0  0  0  0  0  0  0  0  0  0
   27.1624  -18.6552  -18.1740 O   0  0  0  0  0  0  0  0  0  0  0  0
   26.2517  -20.6196   -9.0770 N   0  0  0  0  0  0  0  0  0  0  0  0
   25.5796  -21.2348  -10.1693 C   0  0  0  0  0  0  0  0  0  0  0  0
   26.1256  -22.3108  -10.5830 O   0  0  0  0  0  0  0  0  0  0  0  0
   24.3495  -20.6598  -10.7641 C   0  0  0  0  0  0  0  0  0  0  0  0
   24.3901  -20.8946  -12.2498 C   0  0  2  0  0  0  0  0  0  0  0  0
   25.5445  -20.2396  -12.8062 N   0  0  0  0  0  0  0  0  0  0  0  0
   23.1257  -20.4361  -12.9072 C   0  0  0  0  0  0  0  0  0  0  0  0
   23.2052  -19.3746  -13.5566 O   0  0  0  0  0  0  0  0  0  0  0  0
   19.3766  -19.1179  -14.5892 O   0  0  0  0  0  0  0  0  0  0  0  0
   20.6143  -19.3698  -13.9599 C   0  0  0  0  0  0  0  0  0  0  0  0
   20.7108  -20.7812  -13.4997 C   0  0  2  0  0  0  0  0  0  0  0  0
   21.9146  -21.1327  -12.8173 N   0  0  0  0  0  0  0  0  0  0  0  0
   20.3302  -21.7344  -14.5901 C   0  0  0  0  0  0  0  0  0  0  0  0
   19.1398  -21.7350  -15.2683 O   0  0  0  0  0  0  0  0  0  0  0  0
   21.1693  -22.6342  -14.9424 O   0  0  0  0  0  0  0  0  0  0  0  0
  2  1  1  6
  3  2  1  0
  4  3  1  0
  5  6  2  0
  5  4  1  0
  7  8  2  0
  7  2  1  0
  9  5  1  0
 11 10  1  0
 11 13  1  0
 12 11  2  0
 14 13  1  1
 14 15  1  0
 15  7  1  0
 16 14  1  0
 17 16  2  0
 20 19  1  6
 19 18  1  0
 20 21  1  0
 21 16  1  0
 22 20  1  0
 22 23  1  0
 24 22  2  0
M  END
$$$$
