ENS.pdb
     RDKit          3D

 24 23  0  0  1  0  0  0  0  0999 V2000
   20.5590  -12.2095  -16.6859 N   0  0  0  0  0  0  0  0  0  0  0  0
   20.3585  -10.9107  -17.2983 C   0  0  1  0  0  0  0  0  0  0  0  0
   19.1302  -10.9812  -18.1727 C   0  0  0  0  0  0  0  0  0  0  0  0
   19.5341  -11.7086  -19.4379 C   0  0  0  0  0  0  0  0  0  0  0  0
   20.2156  -10.8057  -20.3782 C   0  0  0  0  0  0  0  0  0  0  0  0
   19.5406   -9.9078  -20.9386 O   0  0  0  0  0  0  0  0  0  0  0  0
   20.2337   -9.9191  -16.2108 C   0  0  0  0  0  0  0  0  0  0  0  0
   19.4813  -10.1270  -15.2275 O   0  0  0  0  0  0  0  0  0  0  0  0
   21.5625  -10.8956  -20.6766 O   0  0  0  0  0  0  0  0  0  0  0  0
   20.6564   -5.7140  -13.3232 N   0  0  0  0  0  0  0  0  0  0  0  0
   21.9302   -5.9782  -13.8986 C   0  0  0  0  0  0  0  0  0  0  0  0
   22.8837   -5.2928  -13.4004 O   0  0  0  0  0  0  0  0  0  0  0  0
   22.1152   -6.9699  -14.9848 C   0  0  0  0  0  0  0  0  0  0  0  0
   20.7883   -7.6257  -15.2553 C   0  0  2  0  0  0  0  0  0  0  0  0
   20.9623   -8.6758  -16.2240 N   0  0  0  0  0  0  0  0  0  0  0  0
   19.7690   -6.6251  -15.7040 C   0  0  0  0  0  0  0  0  0  0  0  0
   19.9068   -6.1930  -16.8655 O   0  0  0  0  0  0  0  0  0  0  0  0
   16.0798   -7.0582  -14.5947 O   0  0  0  0  0  0  0  0  0  0  0  0
   16.3074   -5.6693  -14.6974 C   0  0  0  0  0  0  0  0  0  0  0  0
   17.6200   -5.3811  -15.3355 C   0  0  2  0  0  0  0  0  0  0  0  0
   18.7161   -6.1824  -14.8943 N   0  0  0  0  0  0  0  0  0  0  0  0
   17.9071   -3.9115  -15.3454 C   0  0  0  0  0  0  0  0  0  0  0  0
   17.0731   -2.9399  -15.8325 O   0  0  0  0  0  0  0  0  0  0  0  0
   19.0171   -3.4975  -14.8612 O   0  0  0  0  0  0  0  0  0  0  0  0
  2  1  1  1
  3  2  1  0
  4  3  1  0
  5  6  2  0
  5  4  1  0
  7  8  2  0
  7  2  1  0
  9  5  1  0
 11 10  1  0
 11 13  1  0
 12 11  2  0
 14 13  1  6
 14 15  1  0
 15  7  1  0
 16 14  1  0
 17 16  2  0
 20 19  1  1
 19 18  1  0
 20 21  1  0
 21 16  1  0
 22 20  1  0
 22 23  1  0
 24 22  2  0
M  END
$$$$
