ENS.pdb
     RDKit          3D

 24 23  0  0  1  0  0  0  0  0999 V2000
   14.4320  -11.0340  -11.1833 N   0  0  0  0  0  0  0  0  0  0  0  0
   15.5204  -10.1637  -10.7834 C   0  0  1  0  0  0  0  0  0  0  0  0
   16.4312   -9.9642  -11.9703 C   0  0  0  0  0  0  0  0  0  0  0  0
   17.1458  -11.2794  -12.2003 C   0  0  0  0  0  0  0  0  0  0  0  0
   18.0500  -11.2002  -13.3578 C   0  0  0  0  0  0  0  0  0  0  0  0
   18.1165  -12.1864  -14.1317 O   0  0  0  0  0  0  0  0  0  0  0  0
   14.9268   -8.9021  -10.2959 C   0  0  0  0  0  0  0  0  0  0  0  0
   13.8966   -8.4222  -10.8293 O   0  0  0  0  0  0  0  0  0  0  0  0
   18.8309  -10.0941  -13.6374 O   0  0  0  0  0  0  0  0  0  0  0  0
   12.7164   -8.0684   -8.0230 N   0  0  0  0  0  0  0  0  0  0  0  0
   13.5586   -7.5718   -6.9899 C   0  0  0  0  0  0  0  0  0  0  0  0
   13.1200   -7.7786   -5.8100 O   0  0  0  0  0  0  0  0  0  0  0  0
   14.8349   -6.8752   -7.2785 C   0  0  0  0  0  0  0  0  0  0  0  0
   15.0417   -6.8686   -8.7689 C   0  0  2  0  0  0  0  0  0  0  0  0
   15.4951   -8.1665   -9.1946 N   0  0  0  0  0  0  0  0  0  0  0  0
   15.9941   -5.7895   -9.1807 C   0  0  0  0  0  0  0  0  0  0  0  0
   17.2055   -6.0706   -9.0901 O   0  0  0  0  0  0  0  0  0  0  0  0
   17.5624   -3.3357  -12.5193 O   0  0  0  0  0  0  0  0  0  0  0  0
   16.8967   -4.2892  -11.7199 C   0  0  0  0  0  0  0  0  0  0  0  0
   16.3522   -3.6720  -10.4807 C   0  0  2  0  0  0  0  0  0  0  0  0
   15.5820   -4.5337   -9.6424 N   0  0  0  0  0  0  0  0  0  0  0  0
   15.6922   -2.3600  -10.7730 C   0  0  0  0  0  0  0  0  0  0  0  0
   16.3190   -1.1422  -10.8044 O   0  0  0  0  0  0  0  0  0  0  0  0
   14.4369   -2.3439  -11.0218 O   0  0  0  0  0  0  0  0  0  0  0  0
  2  1  1  6
  3  2  1  0
  4  3  1  0
  5  6  2  0
  5  4  1  0
  7  8  2  0
  7  2  1  0
  9  5  1  0
 11 10  1  0
 11 13  1  0
 12 11  2  0
 14 13  1  1
 14 15  1  0
 15  7  1  0
 16 14  1  0
 17 16  2  0
 20 19  1  6
 19 18  1  0
 20 21  1  0
 21 16  1  0
 22 20  1  0
 22 23  1  0
 24 22  2  0
M  END
$$$$
