ENS.pdb
     RDKit          3D

 24 23  0  0  1  0  0  0  0  0999 V2000
   19.3576  -12.5865  -16.1278 N   0  0  0  0  0  0  0  0  0  0  0  0
   18.9472  -11.3007  -16.6575 C   0  0  1  0  0  0  0  0  0  0  0  0
   17.6225  -10.9306  -16.0360 C   0  0  0  0  0  0  0  0  0  0  0  0
   16.6495  -12.0367  -16.3867 C   0  0  0  0  0  0  0  0  0  0  0  0
   15.8303  -12.4150  -15.2250 C   0  0  0  0  0  0  0  0  0  0  0  0
   14.6391  -12.0215  -15.1813 O   0  0  0  0  0  0  0  0  0  0  0  0
   20.0172  -10.3299  -16.3510 C   0  0  0  0  0  0  0  0  0  0  0  0
   20.5400  -10.2803  -15.2107 O   0  0  0  0  0  0  0  0  0  0  0  0
   16.3057  -13.1826  -14.1780 O   0  0  0  0  0  0  0  0  0  0  0  0
   23.3589  -10.2901  -19.8017 N   0  0  0  0  0  0  0  0  0  0  0  0
   23.2050   -9.6478  -18.5419 C   0  0  0  0  0  0  0  0  0  0  0  0
   23.7913  -10.2393  -17.5757 O   0  0  0  0  0  0  0  0  0  0  0  0
   22.4254   -8.3968  -18.3838 C   0  0  0  0  0  0  0  0  0  0  0  0
   21.6144   -8.5033  -17.1209 C   0  0  2  0  0  0  0  0  0  0  0  0
   20.5096   -9.4002  -17.3360 N   0  0  0  0  0  0  0  0  0  0  0  0
   21.1499   -7.1574  -16.6582 C   0  0  0  0  0  0  0  0  0  0  0  0
   20.2988   -6.5994  -17.3787 O   0  0  0  0  0  0  0  0  0  0  0  0
   20.5184   -5.9181  -12.7820 O   0  0  0  0  0  0  0  0  0  0  0  0
   20.0796   -5.3317  -13.9882 C   0  0  0  0  0  0  0  0  0  0  0  0
   21.1742   -5.2780  -14.9941 C   0  0  2  0  0  0  0  0  0  0  0  0
   21.6221   -6.5378  -15.4949 N   0  0  0  0  0  0  0  0  0  0  0  0
   22.2808   -4.3753  -14.5438 C   0  0  0  0  0  0  0  0  0  0  0  0
   22.1264   -3.0949  -14.0814 O   0  0  0  0  0  0  0  0  0  0  0  0
   23.4839   -4.8104  -14.5794 O   0  0  0  0  0  0  0  0  0  0  0  0
  2  1  1  1
  3  2  1  0
  4  3  1  0
  5  6  2  0
  5  4  1  0
  7  8  2  0
  7  2  1  0
  9  5  1  0
 11 10  1  0
 11 13  1  0
 12 11  2  0
 14 13  1  6
 14 15  1  0
 15  7  1  0
 16 14  1  0
 17 16  2  0
 20 19  1  1
 19 18  1  0
 20 21  1  0
 21 16  1  0
 22 20  1  0
 22 23  1  0
 24 22  2  0
M  END
$$$$
