ENS.pdb
     RDKit          3D

 24 23  0  0  1  0  0  0  0  0999 V2000
   18.8567  -11.0012  -14.5300 N   0  0  0  0  0  0  0  0  0  0  0  0
   18.3614   -9.9583  -15.4071 C   0  0  1  0  0  0  0  0  0  0  0  0
   17.0201  -10.3891  -15.9488 C   0  0  0  0  0  0  0  0  0  0  0  0
   17.1477  -11.8506  -16.3239 C   0  0  0  0  0  0  0  0  0  0  0  0
   15.8795  -12.3795  -16.8490 C   0  0  0  0  0  0  0  0  0  0  0  0
   15.0454  -12.8467  -16.0355 O   0  0  0  0  0  0  0  0  0  0  0  0
   18.2897   -8.7104  -14.6203 C   0  0  0  0  0  0  0  0  0  0  0  0
   17.8887   -7.6396  -15.1387 O   0  0  0  0  0  0  0  0  0  0  0  0
   15.5591  -12.3885  -18.1938 O   0  0  0  0  0  0  0  0  0  0  0  0
   18.5574   -5.2580  -10.8448 N   0  0  0  0  0  0  0  0  0  0  0  0
   18.4259   -6.5315  -10.2249 C   0  0  0  0  0  0  0  0  0  0  0  0
   18.3066   -6.4879   -8.9557 O   0  0  0  0  0  0  0  0  0  0  0  0
   18.4292   -7.7926  -11.0041 C   0  0  0  0  0  0  0  0  0  0  0  0
   18.7050   -7.4560  -12.4445 C   0  0  2  0  0  0  0  0  0  0  0  0
   18.6726   -8.6603  -13.2318 N   0  0  0  0  0  0  0  0  0  0  0  0
   20.0081   -6.7344  -12.5940 C   0  0  0  0  0  0  0  0  0  0  0  0
   21.0294   -7.3950  -12.3194 O   0  0  0  0  0  0  0  0  0  0  0  0
   23.0129   -4.9924  -15.2562 O   0  0  0  0  0  0  0  0  0  0  0  0
   21.8899   -5.6467  -14.7063 C   0  0  0  0  0  0  0  0  0  0  0  0
   21.2468   -4.8223  -13.6482 C   0  0  2  0  0  0  0  0  0  0  0  0
   20.1070   -5.4023  -13.0135 N   0  0  0  0  0  0  0  0  0  0  0  0
   21.0327   -3.4148  -14.1126 C   0  0  0  0  0  0  0  0  0  0  0  0
   19.8232   -2.7758  -14.1877 O   0  0  0  0  0  0  0  0  0  0  0  0
   22.0479   -2.7240  -14.4735 O   0  0  0  0  0  0  0  0  0  0  0  0
  2  1  1  1
  3  2  1  0
  4  3  1  0
  5  6  2  0
  5  4  1  0
  7  8  2  0
  7  2  1  0
  9  5  1  0
 11 10  1  0
 11 13  1  0
 12 11  2  0
 14 13  1  1
 14 15  1  0
 15  7  1  0
 16 14  1  0
 17 16  2  0
 20 19  1  6
 19 18  1  0
 20 21  1  0
 21 16  1  0
 22 20  1  0
 22 23  1  0
 24 22  2  0
M  END
$$$$
