ENS.pdb
     RDKit          3D

 24 23  0  0  1  0  0  0  0  0999 V2000
   13.6267  -11.8753  -10.8930 N   0  0  0  0  0  0  0  0  0  0  0  0
   14.7319  -11.0359  -11.3125 C   0  0  1  0  0  0  0  0  0  0  0  0
   14.7669  -11.0137  -12.8213 C   0  0  0  0  0  0  0  0  0  0  0  0
   15.1457  -12.4091  -13.2714 C   0  0  0  0  0  0  0  0  0  0  0  0
   16.5709  -12.4867  -13.6272 C   0  0  0  0  0  0  0  0  0  0  0  0
   17.1876  -11.4177  -13.8569 O   0  0  0  0  0  0  0  0  0  0  0  0
   14.5246   -9.6977  -10.7227 C   0  0  0  0  0  0  0  0  0  0  0  0
   13.3959   -9.3420  -10.3038 O   0  0  0  0  0  0  0  0  0  0  0  0
   17.2665  -13.6777  -13.7216 O   0  0  0  0  0  0  0  0  0  0  0  0
   13.8582   -5.9270   -6.9899 N   0  0  0  0  0  0  0  0  0  0  0  0
   14.7752   -6.2128   -8.0391 C   0  0  0  0  0  0  0  0  0  0  0  0
   15.4538   -5.2067   -8.4320 O   0  0  0  0  0  0  0  0  0  0  0  0
   14.9169   -7.5713   -8.6152 C   0  0  0  0  0  0  0  0  0  0  0  0
   15.4542   -7.4363  -10.0142 C   0  0  2  0  0  0  0  0  0  0  0  0
   15.5972   -8.7431  -10.5998 N   0  0  0  0  0  0  0  0  0  0  0  0
   16.7465   -6.6808  -10.0294 C   0  0  0  0  0  0  0  0  0  0  0  0
   17.7243   -7.2671   -9.5245 O   0  0  0  0  0  0  0  0  0  0  0  0
   19.3593   -5.3396  -13.3061 O   0  0  0  0  0  0  0  0  0  0  0  0
   18.3426   -5.8921  -12.4982 C   0  0  0  0  0  0  0  0  0  0  0  0
   17.9556   -4.9624  -11.4032 C   0  0  2  0  0  0  0  0  0  0  0  0
   16.8811   -5.3959  -10.5690 N   0  0  0  0  0  0  0  0  0  0  0  0
   17.8042   -3.5613  -11.9095 C   0  0  0  0  0  0  0  0  0  0  0  0
   18.8079   -2.6329  -11.9970 O   0  0  0  0  0  0  0  0  0  0  0  0
   16.6513   -3.1700  -12.3041 O   0  0  0  0  0  0  0  0  0  0  0  0
  2  1  1  6
  3  2  1  0
  4  3  1  0
  5  6  2  0
  5  4  1  0
  7  8  2  0
  7  2  1  0
  9  5  1  0
 11 10  1  0
 11 13  1  0
 12 11  2  0
 14 13  1  1
 14 15  1  0
 15  7  1  0
 16 14  1  0
 17 16  2  0
 20 19  1  6
 19 18  1  0
 20 21  1  0
 21 16  1  0
 22 20  1  0
 22 23  1  0
 24 22  2  0
M  END
$$$$
