DVR.pdb
     RDKit          3D

 27 26  0  0  1  0  0  0  0  0999 V2000
    9.3874  -16.9673   15.5590 N   0  0  0  0  0  0  0  0  0  0  0  0
    8.4273  -16.8308   16.6369 C   0  0  1  0  0  0  0  0  0  0  0  0
    8.0239  -18.1929   17.1639 C   0  0  0  0  0  0  0  0  0  0  0  0
    7.1573  -18.9205   16.2267 C   0  0  0  0  0  0  0  0  0  0  0  0
    6.8231  -18.3772   15.1490 O   0  0  0  0  0  0  0  0  0  0  0  0
    9.0572  -16.1112   17.8037 C   0  0  0  0  0  0  0  0  0  0  0  0
   10.2469  -16.3319   18.1359 O   0  0  0  0  0  0  0  0  0  0  0  0
    6.6949  -20.1922   16.4946 O   0  0  0  0  0  0  0  0  0  0  0  0
    6.6024  -13.4693   20.1096 C   0  0  0  0  0  0  0  0  0  0  0  0
    8.0481  -13.1750   19.8943 C   0  0  1  0  0  0  0  0  0  0  0  0
    8.6716  -12.2439   20.8750 C   0  0  0  0  0  0  0  0  0  0  0  0
    8.9016  -14.4010   19.6727 C   0  0  2  0  0  0  0  0  0  0  0  0
    8.3055  -15.1586   18.5563 N   0  0  0  0  0  0  0  0  0  0  0  0
    9.0125  -15.3007   20.8108 C   0  0  0  0  0  0  0  0  0  0  0  0
    8.0164  -16.0482   21.1019 O   0  0  0  0  0  0  0  0  0  0  0  0
   15.4568  -20.0722   21.8389 N   0  0  0  0  0  0  0  0  0  0  0  0
   14.6859  -20.1127   20.6474 C   0  0  0  0  0  0  0  0  0  0  0  0
   15.0670  -20.8500   19.6585 N   0  0  0  0  0  0  0  0  0  0  0  0
   13.5093  -19.3397   20.5703 N   0  0  0  0  0  0  0  0  0  0  0  0
   13.1120  -18.6199   21.7555 C   0  0  0  0  0  0  0  0  0  0  0  0
   11.9106  -17.7433   21.5511 C   0  0  0  0  0  0  0  0  0  0  0  0
   11.5399  -17.0670   22.8525 C   0  0  0  0  0  0  0  0  0  0  0  0
   10.1637  -16.4284   22.7274 C   0  0  2  0  0  0  0  0  0  0  0  0
   10.1364  -15.4517   21.6672 N   0  0  0  0  0  0  0  0  0  0  0  0
    9.7536  -15.7781   23.9892 C   0  0  0  0  0  0  0  0  0  0  0  0
    9.8312  -14.5379   24.0984 O   0  0  0  0  0  0  0  0  0  0  0  0
    9.2830  -16.5162   25.0574 O   0  0  0  0  0  0  0  0  0  0  0  0
  2  1  1  6
  3  2  1  0
  4  3  1  0
  5  4  2  0
  6  7  2  0
  6  2  1  0
  8  4  1  0
 10  9  1  1
 10 11  1  0
 12 13  1  6
 12 10  1  0
 13  6  1  0
 14 12  1  0
 15 14  2  0
 17 19  1  0
 17 16  1  0
 18 17  2  0
 20 19  1  0
 21 20  1  0
 22 21  1  0
 23 22  1  1
 23 24  1  0
 24 14  1  0
 25 27  1  0
 25 23  1  0
 26 25  2  0
M  END
$$$$
