DVR.pdb
     RDKit          3D

 27 26  0  0  1  0  0  0  0  0999 V2000
    8.8730  -17.3817   16.3038 N   0  0  0  0  0  0  0  0  0  0  0  0
    8.1007  -17.3395   17.5302 C   0  0  1  0  0  0  0  0  0  0  0  0
    7.9594  -18.7296   18.1162 C   0  0  0  0  0  0  0  0  0  0  0  0
    7.0945  -19.5941   17.3019 C   0  0  0  0  0  0  0  0  0  0  0  0
    6.5943  -19.1446   16.2454 O   0  0  0  0  0  0  0  0  0  0  0  0
    8.8287  -16.5283   18.5732 C   0  0  0  0  0  0  0  0  0  0  0  0
   10.0824  -16.4914   18.6073 O   0  0  0  0  0  0  0  0  0  0  0  0
    6.8116  -20.8950   17.6633 O   0  0  0  0  0  0  0  0  0  0  0  0
    7.3072  -12.9296   19.8188 C   0  0  0  0  0  0  0  0  0  0  0  0
    7.7532  -13.8338   20.9173 C   0  0  1  0  0  0  0  0  0  0  0  0
    6.6678  -14.4372   21.7390 C   0  0  0  0  0  0  0  0  0  0  0  0
    8.7680  -14.8681   20.4922 C   0  0  2  0  0  0  0  0  0  0  0  0
    8.0987  -15.7819   19.5473 N   0  0  0  0  0  0  0  0  0  0  0  0
    9.3291  -15.6732   21.5665 C   0  0  0  0  0  0  0  0  0  0  0  0
    8.7205  -16.7429   21.9143 O   0  0  0  0  0  0  0  0  0  0  0  0
   17.4885  -17.8040   23.2868 N   0  0  0  0  0  0  0  0  0  0  0  0
   16.6922  -16.6363   23.4198 C   0  0  0  0  0  0  0  0  0  0  0  0
   17.2418  -15.4703   23.3481 N   0  0  0  0  0  0  0  0  0  0  0  0
   15.3050  -16.7775   23.6285 N   0  0  0  0  0  0  0  0  0  0  0  0
   14.5714  -17.5784   22.6792 C   0  0  0  0  0  0  0  0  0  0  0  0
   13.1029  -17.6683   22.9774 C   0  0  0  0  0  0  0  0  0  0  0  0
   12.5593  -16.2949   23.3037 C   0  0  0  0  0  0  0  0  0  0  0  0
   11.0375  -16.3238   23.2777 C   0  0  2  0  0  0  0  0  0  0  0  0
   10.5150  -15.4012   22.3008 N   0  0  0  0  0  0  0  0  0  0  0  0
   10.4687  -15.9940   24.6010 C   0  0  0  0  0  0  0  0  0  0  0  0
    9.8786  -14.9074   24.7662 O   0  0  0  0  0  0  0  0  0  0  0  0
   10.5755  -16.8667   25.6661 O   0  0  0  0  0  0  0  0  0  0  0  0
  2  1  1  6
  3  2  1  0
  4  3  1  0
  5  4  2  0
  6  7  2  0
  6  2  1  0
  8  4  1  0
 10  9  1  6
 10 11  1  0
 12 13  1  6
 12 10  1  0
 13  6  1  0
 14 12  1  0
 15 14  2  0
 17 19  1  0
 17 16  1  0
 18 17  2  0
 20 19  1  0
 21 20  1  0
 22 21  1  0
 23 22  1  1
 23 24  1  0
 24 14  1  0
 25 27  1  0
 25 23  1  0
 26 25  2  0
M  END
$$$$
