DVR.pdb
     RDKit          3D

 27 26  0  0  1  0  0  0  0  0999 V2000
    8.0016  -15.1606   20.7292 N   0  0  0  0  0  0  0  0  0  0  0  0
    7.3040  -15.5157   21.9496 C   0  0  1  0  0  0  0  0  0  0  0  0
    7.3456  -17.0145   22.1677 C   0  0  0  0  0  0  0  0  0  0  0  0
    6.6583  -17.7539   21.1002 C   0  0  0  0  0  0  0  0  0  0  0  0
    7.3218  -18.2066   20.1394 O   0  0  0  0  0  0  0  0  0  0  0  0
    8.0031  -14.9097   23.1412 C   0  0  0  0  0  0  0  0  0  0  0  0
    9.2554  -14.8909   23.2178 O   0  0  0  0  0  0  0  0  0  0  0  0
    5.2959  -17.9690   21.1194 O   0  0  0  0  0  0  0  0  0  0  0  0
    7.3081  -12.2977   27.3694 C   0  0  0  0  0  0  0  0  0  0  0  0
    6.9062  -12.7943   26.0223 C   0  0  1  0  0  0  0  0  0  0  0  0
    6.4616  -11.7529   25.0552 C   0  0  0  0  0  0  0  0  0  0  0  0
    7.8952  -13.7480   25.3954 C   0  0  2  0  0  0  0  0  0  0  0  0
    7.2468  -14.3418   24.2109 N   0  0  0  0  0  0  0  0  0  0  0  0
    8.3421  -14.8376   26.2499 C   0  0  0  0  0  0  0  0  0  0  0  0
    7.4764  -15.6742   26.6814 O   0  0  0  0  0  0  0  0  0  0  0  0
   13.4914  -19.5414   24.4977 N   0  0  0  0  0  0  0  0  0  0  0  0
   14.2799  -19.4444   25.6742 C   0  0  0  0  0  0  0  0  0  0  0  0
   15.5622  -19.5755   25.6027 N   0  0  0  0  0  0  0  0  0  0  0  0
   13.6386  -19.2038   26.9066 N   0  0  0  0  0  0  0  0  0  0  0  0
   12.1974  -19.2608   26.9244 C   0  0  0  0  0  0  0  0  0  0  0  0
   11.5634  -18.1701   27.7380 C   0  0  0  0  0  0  0  0  0  0  0  0
   11.1676  -17.0207   26.8378 C   0  0  0  0  0  0  0  0  0  0  0  0
   10.0170  -16.2469   27.4660 C   0  0  2  0  0  0  0  0  0  0  0  0
    9.6738  -15.0903   26.6768 N   0  0  0  0  0  0  0  0  0  0  0  0
   10.3459  -15.8102   28.8388 C   0  0  0  0  0  0  0  0  0  0  0  0
   10.5474  -16.6631   29.7266 O   0  0  0  0  0  0  0  0  0  0  0  0
   10.4364  -14.4710   29.1638 O   0  0  0  0  0  0  0  0  0  0  0  0
  2  1  1  6
  3  2  1  0
  4  3  1  0
  5  4  2  0
  6  7  2  0
  6  2  1  0
  8  4  1  0
 10  9  1  1
 10 11  1  0
 12 13  1  6
 12 10  1  0
 13  6  1  0
 14 12  1  0
 15 14  2  0
 17 19  1  0
 17 16  1  0
 18 17  2  0
 20 19  1  0
 21 20  1  0
 22 21  1  0
 23 22  1  6
 23 24  1  0
 24 14  1  0
 25 27  1  0
 25 23  1  0
 26 25  2  0
M  END
$$$$
