DVR.pdb
     RDKit          3D

 27 26  0  0  1  0  0  0  0  0999 V2000
    9.7966  -15.4819   14.5057 N   0  0  0  0  0  0  0  0  0  0  0  0
    9.1343  -16.0850   15.6457 C   0  0  1  0  0  0  0  0  0  0  0  0
    9.5857  -17.5204   15.8234 C   0  0  0  0  0  0  0  0  0  0  0  0
    9.0833  -18.4000   14.7591 C   0  0  0  0  0  0  0  0  0  0  0  0
    8.4801  -17.9010   13.7816 O   0  0  0  0  0  0  0  0  0  0  0  0
    9.5328  -15.3713   16.9138 C   0  0  0  0  0  0  0  0  0  0  0  0
   10.7273  -15.0552   17.1318 O   0  0  0  0  0  0  0  0  0  0  0  0
    9.2543  -19.7682   14.7992 O   0  0  0  0  0  0  0  0  0  0  0  0
    7.7331  -13.1709   21.0464 C   0  0  0  0  0  0  0  0  0  0  0  0
    7.6605  -13.6273   19.6288 C   0  0  1  0  0  0  0  0  0  0  0  0
    7.1926  -12.6116   18.6455 C   0  0  0  0  0  0  0  0  0  0  0  0
    8.9018  -14.3381   19.1446 C   0  0  2  0  0  0  0  0  0  0  0  0
    8.5505  -15.0398   17.8955 N   0  0  0  0  0  0  0  0  0  0  0  0
    9.4601  -15.3189   20.0630 C   0  0  0  0  0  0  0  0  0  0  0  0
    8.7913  -16.3813   20.3076 O   0  0  0  0  0  0  0  0  0  0  0  0
   15.0312  -16.6206   17.6436 N   0  0  0  0  0  0  0  0  0  0  0  0
   15.2903  -15.6363   18.6333 C   0  0  0  0  0  0  0  0  0  0  0  0
   15.5960  -14.4327   18.2801 N   0  0  0  0  0  0  0  0  0  0  0  0
   15.2063  -15.9985   19.9933 N   0  0  0  0  0  0  0  0  0  0  0  0
   14.5178  -17.2260   20.3095 C   0  0  0  0  0  0  0  0  0  0  0  0
   13.0251  -17.0786   20.3707 C   0  0  0  0  0  0  0  0  0  0  0  0
   12.6259  -16.4254   21.6754 C   0  0  0  0  0  0  0  0  0  0  0  0
   11.1178  -16.2209   21.7088 C   0  0  2  0  0  0  0  0  0  0  0  0
   10.7041  -15.2323   20.7443 N   0  0  0  0  0  0  0  0  0  0  0  0
   10.6591  -15.8036   23.0499 C   0  0  0  0  0  0  0  0  0  0  0  0
   10.2632  -14.6346   23.2312 O   0  0  0  0  0  0  0  0  0  0  0  0
   10.6582  -16.6835   24.1144 O   0  0  0  0  0  0  0  0  0  0  0  0
  2  1  1  6
  3  2  1  0
  4  3  1  0
  5  4  2  0
  6  7  2  0
  6  2  1  0
  8  4  1  0
 10  9  1  1
 10 11  1  0
 12 13  1  6
 12 10  1  0
 13  6  1  0
 14 12  1  0
 15 14  2  0
 17 19  1  0
 17 16  1  0
 18 17  2  0
 20 19  1  0
 21 20  1  0
 22 21  1  0
 23 22  1  1
 23 24  1  0
 24 14  1  0
 25 27  1  0
 25 23  1  0
 26 25  2  0
M  END
$$$$
