DVR.pdb
     RDKit          3D

 27 26  0  0  1  0  0  0  0  0999 V2000
    8.3133  -16.6418   15.7287 N   0  0  0  0  0  0  0  0  0  0  0  0
    9.6464  -16.0937   15.5719 C   0  0  1  0  0  0  0  0  0  0  0  0
    9.7097  -15.1915   14.3562 C   0  0  0  0  0  0  0  0  0  0  0  0
   10.0423  -15.9289   13.1297 C   0  0  0  0  0  0  0  0  0  0  0  0
    9.2799  -15.8516   12.1392 O   0  0  0  0  0  0  0  0  0  0  0  0
    9.9878  -15.2160   16.7505 C   0  0  0  0  0  0  0  0  0  0  0  0
   11.1359  -14.7279   16.8843 O   0  0  0  0  0  0  0  0  0  0  0  0
   11.1748  -16.7101   13.0302 O   0  0  0  0  0  0  0  0  0  0  0  0
    8.1659  -13.0099   20.8739 C   0  0  0  0  0  0  0  0  0  0  0  0
    8.0475  -13.5965   19.5084 C   0  0  1  0  0  0  0  0  0  0  0  0
    7.3709  -12.7419   18.4938 C   0  0  0  0  0  0  0  0  0  0  0  0
    9.3332  -14.1808   18.9736 C   0  0  2  0  0  0  0  0  0  0  0  0
    9.0031  -14.9223   17.7418 N   0  0  0  0  0  0  0  0  0  0  0  0
   10.0261  -15.0941   19.8695 C   0  0  0  0  0  0  0  0  0  0  0  0
    9.5097  -16.2421   20.0957 O   0  0  0  0  0  0  0  0  0  0  0  0
   17.0875  -14.8965   19.4763 N   0  0  0  0  0  0  0  0  0  0  0  0
   16.4328  -14.1625   18.4525 C   0  0  0  0  0  0  0  0  0  0  0  0
   17.1269  -13.5845   17.5300 N   0  0  0  0  0  0  0  0  0  0  0  0
   15.0254  -14.0811   18.4657 N   0  0  0  0  0  0  0  0  0  0  0  0
   14.3694  -14.1758   19.7469 C   0  0  0  0  0  0  0  0  0  0  0  0
   14.0339  -15.5833   20.1471 C   0  0  0  0  0  0  0  0  0  0  0  0
   13.3768  -15.5878   21.5096 C   0  0  0  0  0  0  0  0  0  0  0  0
   11.8861  -15.8585   21.3617 C   0  0  2  0  0  0  0  0  0  0  0  0
   11.2518  -14.8524   20.5468 N   0  0  0  0  0  0  0  0  0  0  0  0
   11.2129  -15.9054   22.6761 C   0  0  0  0  0  0  0  0  0  0  0  0
   11.5394  -16.7771   23.5065 O   0  0  0  0  0  0  0  0  0  0  0  0
   10.2242  -15.0004   23.0091 O   0  0  0  0  0  0  0  0  0  0  0  0
  2  1  1  1
  3  2  1  0
  4  3  1  0
  5  4  2  0
  6  7  2  0
  6  2  1  0
  8  4  1  0
 10  9  1  1
 10 11  1  0
 12 13  1  6
 12 10  1  0
 13  6  1  0
 14 12  1  0
 15 14  2  0
 17 19  1  0
 17 16  1  0
 18 17  2  0
 20 19  1  0
 21 20  1  0
 22 21  1  0
 23 22  1  1
 23 24  1  0
 24 14  1  0
 25 27  1  0
 25 23  1  0
 26 25  2  0
M  END
$$$$
