DVR.pdb
     RDKit          3D

 27 26  0  0  1  0  0  0  0  0999 V2000
   11.8423  -17.0260   17.9335 N   0  0  0  0  0  0  0  0  0  0  0  0
   10.5331  -17.3201   18.4826 C   0  0  1  0  0  0  0  0  0  0  0  0
   10.5027  -18.7202   19.0611 C   0  0  0  0  0  0  0  0  0  0  0  0
   10.6285  -19.7554   18.0260 C   0  0  0  0  0  0  0  0  0  0  0  0
   10.0480  -19.6010   16.9272 O   0  0  0  0  0  0  0  0  0  0  0  0
   10.2353  -16.3947   19.6362 C   0  0  0  0  0  0  0  0  0  0  0  0
   11.0987  -16.1548   20.5146 O   0  0  0  0  0  0  0  0  0  0  0  0
   11.3704  -20.9014   18.2239 O   0  0  0  0  0  0  0  0  0  0  0  0
    6.7712  -13.2504   21.4403 C   0  0  0  0  0  0  0  0  0  0  0  0
    7.5290  -13.9275   20.3493 C   0  0  1  0  0  0  0  0  0  0  0  0
    7.9761  -13.0508   19.2318 C   0  0  0  0  0  0  0  0  0  0  0  0
    8.6457  -14.8205   20.8351 C   0  0  2  0  0  0  0  0  0  0  0  0
    8.9564  -15.7700   19.7499 N   0  0  0  0  0  0  0  0  0  0  0  0
    8.3527  -15.5944   22.0320 C   0  0  0  0  0  0  0  0  0  0  0  0
    7.5614  -16.5947   21.9379 O   0  0  0  0  0  0  0  0  0  0  0  0
   13.1395  -18.4007   28.7306 N   0  0  0  0  0  0  0  0  0  0  0  0
   11.9447  -17.6739   28.9746 C   0  0  0  0  0  0  0  0  0  0  0  0
   11.8622  -16.8964   30.0020 N   0  0  0  0  0  0  0  0  0  0  0  0
   10.8643  -17.8182   28.0802 N   0  0  0  0  0  0  0  0  0  0  0  0
    9.9741  -16.6930   27.9314 C   0  0  0  0  0  0  0  0  0  0  0  0
    9.0015  -16.8427   26.7978 C   0  0  0  0  0  0  0  0  0  0  0  0
    9.4893  -16.0653   25.5954 C   0  0  0  0  0  0  0  0  0  0  0  0
    8.4772  -16.1778   24.4639 C   0  0  2  0  0  0  0  0  0  0  0  0
    8.8597  -15.3614   23.3389 N   0  0  0  0  0  0  0  0  0  0  0  0
    7.1252  -15.7797   24.9075 C   0  0  0  0  0  0  0  0  0  0  0  0
    6.7605  -14.5928   24.7881 O   0  0  0  0  0  0  0  0  0  0  0  0
    6.2498  -16.6974   25.4545 O   0  0  0  0  0  0  0  0  0  0  0  0
  2  1  1  1
  3  2  1  0
  4  3  1  0
  5  4  2  0
  6  7  2  0
  6  2  1  0
  8  4  1  0
 10  9  1  1
 10 11  1  0
 12 13  1  6
 12 10  1  0
 13  6  1  0
 14 12  1  0
 15 14  2  0
 17 19  1  0
 17 16  1  0
 18 17  2  0
 20 19  1  0
 21 20  1  0
 22 21  1  0
 23 22  1  1
 23 24  1  0
 24 14  1  0
 25 27  1  0
 25 23  1  0
 26 25  2  0
M  END
$$$$
