DVR.pdb
     RDKit          3D

 27 26  0  0  1  0  0  0  0  0999 V2000
    9.9608  -15.9233   15.1030 N   0  0  0  0  0  0  0  0  0  0  0  0
    9.2907  -16.4901   16.2570 C   0  0  1  0  0  0  0  0  0  0  0  0
    9.7361  -17.9211   16.4794 C   0  0  0  0  0  0  0  0  0  0  0  0
    9.2883  -18.8190   15.4061 C   0  0  0  0  0  0  0  0  0  0  0  0
    8.1816  -18.6167   14.8560 O   0  0  0  0  0  0  0  0  0  0  0  0
    9.6854  -15.7404   17.5054 C   0  0  0  0  0  0  0  0  0  0  0  0
   10.8851  -15.4566   17.7391 O   0  0  0  0  0  0  0  0  0  0  0  0
   10.0508  -19.8863   14.9793 O   0  0  0  0  0  0  0  0  0  0  0  0
    7.7939  -13.3446   21.4866 C   0  0  0  0  0  0  0  0  0  0  0  0
    7.7599  -13.8297   20.0771 C   0  0  1  0  0  0  0  0  0  0  0  0
    7.2850  -12.8454   19.0657 C   0  0  0  0  0  0  0  0  0  0  0  0
    9.0278  -14.5174   19.6300 C   0  0  2  0  0  0  0  0  0  0  0  0
    8.6936  -15.3370   18.4500 N   0  0  0  0  0  0  0  0  0  0  0  0
    9.6479  -15.3899   20.6155 C   0  0  0  0  0  0  0  0  0  0  0  0
    9.0757  -16.4975   20.9014 O   0  0  0  0  0  0  0  0  0  0  0  0
   17.6360  -16.1833   23.8421 N   0  0  0  0  0  0  0  0  0  0  0  0
   16.7723  -15.7722   22.7931 C   0  0  0  0  0  0  0  0  0  0  0  0
   17.2363  -15.6246   21.5974 N   0  0  0  0  0  0  0  0  0  0  0  0
   15.4136  -15.5326   23.0833 N   0  0  0  0  0  0  0  0  0  0  0  0
   14.7656  -16.4324   24.0060 C   0  0  0  0  0  0  0  0  0  0  0  0
   13.3587  -16.7817   23.6160 C   0  0  0  0  0  0  0  0  0  0  0  0
   12.8257  -15.7560   22.6403 C   0  0  0  0  0  0  0  0  0  0  0  0
   11.3861  -16.0911   22.2760 C   0  0  2  0  0  0  0  0  0  0  0  0
   10.8563  -15.1479   21.3229 N   0  0  0  0  0  0  0  0  0  0  0  0
   10.5164  -16.1056   23.4703 C   0  0  0  0  0  0  0  0  0  0  0  0
    9.8198  -15.1064   23.7394 O   0  0  0  0  0  0  0  0  0  0  0  0
   10.4560  -17.2073   24.3011 O   0  0  0  0  0  0  0  0  0  0  0  0
  2  1  1  6
  3  2  1  0
  4  3  1  0
  5  4  2  0
  6  7  2  0
  6  2  1  0
  8  4  1  0
 10  9  1  1
 10 11  1  0
 12 13  1  6
 12 10  1  0
 13  6  1  0
 14 12  1  0
 15 14  2  0
 17 19  1  0
 17 16  1  0
 18 17  2  0
 20 19  1  0
 21 20  1  0
 22 21  1  0
 23 22  1  1
 23 24  1  0
 24 14  1  0
 25 27  1  0
 25 23  1  0
 26 25  2  0
M  END
$$$$
