DVR.pdb
     RDKit          3D

 27 26  0  0  1  0  0  0  0  0999 V2000
    9.4697  -17.7807   18.1207 N   0  0  0  0  0  0  0  0  0  0  0  0
    8.5119  -17.4820   19.1673 C   0  0  1  0  0  0  0  0  0  0  0  0
    8.4784  -18.5989   20.1906 C   0  0  0  0  0  0  0  0  0  0  0  0
    8.5249  -19.9289   19.5679 C   0  0  0  0  0  0  0  0  0  0  0  0
    7.9576  -20.1132   18.4668 O   0  0  0  0  0  0  0  0  0  0  0  0
    8.9382  -16.2479   19.9231 C   0  0  0  0  0  0  0  0  0  0  0  0
   10.1293  -15.8538   19.9018 O   0  0  0  0  0  0  0  0  0  0  0  0
    9.1774  -20.9909   20.1588 O   0  0  0  0  0  0  0  0  0  0  0  0
    7.6939  -12.8534   19.3533 C   0  0  0  0  0  0  0  0  0  0  0  0
    7.4527  -13.1564   20.7931 C   0  0  1  0  0  0  0  0  0  0  0  0
    6.0301  -13.3646   21.1807 C   0  0  0  0  0  0  0  0  0  0  0  0
    8.3450  -14.2376   21.3545 C   0  0  2  0  0  0  0  0  0  0  0  0
    7.9869  -15.5002   20.6812 N   0  0  0  0  0  0  0  0  0  0  0  0
    8.2394  -14.4541   22.7895 C   0  0  0  0  0  0  0  0  0  0  0  0
    7.1724  -14.0835   23.3894 O   0  0  0  0  0  0  0  0  0  0  0  0
    6.7377  -21.7095   24.1851 N   0  0  0  0  0  0  0  0  0  0  0  0
    6.2388  -21.3430   25.4626 C   0  0  0  0  0  0  0  0  0  0  0  0
    5.8404  -22.2555   26.2845 N   0  0  0  0  0  0  0  0  0  0  0  0
    6.1897  -19.9773   25.8091 N   0  0  0  0  0  0  0  0  0  0  0  0
    6.5769  -19.0241   24.7979 C   0  0  0  0  0  0  0  0  0  0  0  0
    7.4852  -17.9433   25.3080 C   0  0  0  0  0  0  0  0  0  0  0  0
    7.9214  -17.0554   24.1636 C   0  0  0  0  0  0  0  0  0  0  0  0
    8.8611  -15.9746   24.6794 C   0  0  2  0  0  0  0  0  0  0  0  0
    9.2164  -15.0492   23.6325 N   0  0  0  0  0  0  0  0  0  0  0  0
   10.0961  -16.5573   25.2438 C   0  0  0  0  0  0  0  0  0  0  0  0
   10.0340  -17.2557   26.2755 O   0  0  0  0  0  0  0  0  0  0  0  0
   11.3256  -16.3456   24.6514 O   0  0  0  0  0  0  0  0  0  0  0  0
  2  1  1  6
  3  2  1  0
  4  3  1  0
  5  4  2  0
  6  7  2  0
  6  2  1  0
  8  4  1  0
 10  9  1  6
 10 11  1  0
 12 13  1  6
 12 10  1  0
 13  6  1  0
 14 12  1  0
 15 14  2  0
 17 19  1  0
 17 16  1  0
 18 17  2  0
 20 19  1  0
 21 20  1  0
 22 21  1  0
 23 22  1  6
 23 24  1  0
 24 14  1  0
 25 27  1  0
 25 23  1  0
 26 25  2  0
M  END
$$$$
