VWC.pdb
     RDKit          3D

 28 29  0  0  1  0  0  0  0  0999 V2000
   28.7033  -19.0445  -16.3289 C   0  0  0  0  0  0  0  0  0  0  0  0
   27.8505  -19.4689  -15.1780 C   0  0  1  0  0  0  0  0  0  0  0  0
   26.4304  -19.6359  -15.7033 C   0  0  0  0  0  0  0  0  0  0  0  0
   28.2502  -20.7895  -14.5768 C   0  0  2  0  0  0  0  0  0  0  0  0
   27.9511  -21.8128  -15.5760 N   0  0  0  0  0  0  0  0  0  0  0  0
   27.5364  -21.1042  -13.3244 C   0  0  0  0  0  0  0  0  0  0  0  0
   26.4665  -21.7862  -13.3744 O   0  0  0  0  0  0  0  0  0  0  0  0
   27.9556  -20.6982  -12.0340 N   0  0  0  0  0  0  0  0  0  0  0  0
   27.1459  -20.8441  -10.8302 C   0  0  1  0  0  0  0  0  0  0  0  0
   27.9309  -20.5592   -9.5992 C   0  0  0  0  0  0  0  0  0  0  0  0
   27.1733  -20.4838   -8.3477 C   0  0  0  0  0  0  0  0  0  0  0  0
   25.8357  -20.8068   -8.2240 C   0  0  0  0  0  0  0  0  0  0  0  0
   25.4479  -20.6681   -6.9579 N   0  0  0  0  0  0  0  0  0  0  0  0
   26.5086  -20.2547   -6.2271 C   0  0  0  0  0  0  0  0  0  0  0  0
   26.5789  -19.9746   -4.8792 C   0  0  0  0  0  0  0  0  0  0  0  0
   27.7782  -19.5561   -4.3576 C   0  0  0  0  0  0  0  0  0  0  0  0
   28.8605  -19.4337   -5.2050 C   0  0  0  0  0  0  0  0  0  0  0  0
   28.7772  -19.7164   -6.5483 C   0  0  0  0  0  0  0  0  0  0  0  0
   27.5876  -20.1392   -7.0985 C   0  0  0  0  0  0  0  0  0  0  0  0
   25.8354  -20.1941  -10.9122 C   0  0  0  0  0  0  0  0  0  0  0  0
   25.7229  -18.9460  -10.9780 O   0  0  0  0  0  0  0  0  0  0  0  0
   24.6233  -20.9385  -10.9220 N   0  0  0  0  0  0  0  0  0  0  0  0
   23.3405  -20.2831  -11.0447 C   0  0  1  0  0  0  0  0  0  0  0  0
   22.8138  -20.3315  -12.4617 C   0  0  0  0  0  0  0  0  0  0  0  0
   23.7411  -21.6198  -13.3415 S   0  0  0  0  0  0  0  0  0  0  0  0
   22.3381  -20.8275  -10.1252 C   0  0  0  0  0  0  0  0  0  0  0  0
   22.6421  -21.8342   -9.4412 O   0  0  0  0  0  0  0  0  0  0  0  0
   21.0664  -20.2984   -9.9609 O   0  0  0  0  0  0  0  0  0  0  0  0
  2  1  1  6
  2  3  1  0
  4  2  1  0
  4  5  1  6
  6  4  1  0
  6  7  2  0
  8  6  1  0
  9  8  1  0
 10 11  1  0
  9 10  1  1
 11 19  1  0
 12 11  2  0
 12 13  1  0
 13 14  1  0
 14 15  1  0
 15 16  2  0
 17 16  1  0
 18 17  2  0
 19 14  2  0
 19 18  1  0
 20  9  1  0
 20 22  1  0
 21 20  2  0
 23 22  1  0
 23 26  1  0
 23 24  1  6
 25 24  1  0
 26 27  2  0
 26 28  1  0
M  END
$$$$
