VWC.pdb
     RDKit          3D

 28 29  0  0  1  0  0  0  0  0999 V2000
   25.2777   -8.3479  -21.4856 C   0  0  0  0  0  0  0  0  0  0  0  0
   24.1664   -8.1666  -20.5037 C   0  0  1  0  0  0  0  0  0  0  0  0
   22.8592   -8.3984  -21.2507 C   0  0  0  0  0  0  0  0  0  0  0  0
   24.1949   -9.1468  -19.3620 C   0  0  2  0  0  0  0  0  0  0  0  0
   24.1558  -10.4819  -19.9545 N   0  0  0  0  0  0  0  0  0  0  0  0
   23.0637   -8.9922  -18.4275 C   0  0  0  0  0  0  0  0  0  0  0  0
   21.9357   -9.4902  -18.7307 O   0  0  0  0  0  0  0  0  0  0  0  0
   23.1314   -8.3159  -17.1849 N   0  0  0  0  0  0  0  0  0  0  0  0
   22.0109   -8.1963  -16.2596 C   0  0  1  0  0  0  0  0  0  0  0  0
   22.3001   -8.8506  -14.9554 C   0  0  0  0  0  0  0  0  0  0  0  0
   22.5470  -10.2940  -14.9926 C   0  0  0  0  0  0  0  0  0  0  0  0
   23.6568  -10.9106  -14.4478 C   0  0  0  0  0  0  0  0  0  0  0  0
   23.5741  -12.2290  -14.6138 N   0  0  0  0  0  0  0  0  0  0  0  0
   22.4216  -12.5080  -15.2649 C   0  0  0  0  0  0  0  0  0  0  0  0
   21.9193  -13.7302  -15.6575 C   0  0  0  0  0  0  0  0  0  0  0  0
   20.7181  -13.7633  -16.3218 C   0  0  0  0  0  0  0  0  0  0  0  0
   20.0662  -12.5721  -16.5680 C   0  0  0  0  0  0  0  0  0  0  0  0
   20.5781  -11.3590  -16.1709 C   0  0  0  0  0  0  0  0  0  0  0  0
   21.7801  -11.2958  -15.5018 C   0  0  0  0  0  0  0  0  0  0  0  0
   21.4451   -6.8472  -16.1815 C   0  0  0  0  0  0  0  0  0  0  0  0
   22.1601   -5.8475  -15.9277 O   0  0  0  0  0  0  0  0  0  0  0  0
   20.0602   -6.5966  -16.3884 N   0  0  0  0  0  0  0  0  0  0  0  0
   19.5406   -5.2486  -16.4406 C   0  0  1  0  0  0  0  0  0  0  0  0
   18.6200   -5.0425  -17.6228 C   0  0  0  0  0  0  0  0  0  0  0  0
   19.6237   -5.2026  -19.1264 S   0  0  0  0  0  0  0  0  0  0  0  0
   18.8548   -4.8596  -15.2057 C   0  0  0  0  0  0  0  0  0  0  0  0
   18.6223   -5.7462  -14.3492 O   0  0  0  0  0  0  0  0  0  0  0  0
   18.4434   -3.5660  -14.9202 O   0  0  0  0  0  0  0  0  0  0  0  0
  2  1  1  6
  2  3  1  0
  4  2  1  0
  4  5  1  6
  6  4  1  0
  6  7  2  0
  8  6  1  0
  9  8  1  0
 10 11  1  0
  9 10  1  1
 11 19  1  0
 12 11  2  0
 12 13  1  0
 13 14  1  0
 14 15  1  0
 15 16  2  0
 17 16  1  0
 18 17  2  0
 19 14  2  0
 19 18  1  0
 20  9  1  0
 20 22  1  0
 21 20  2  0
 23 22  1  0
 23 26  1  0
 23 24  1  6
 25 24  1  0
 26 27  2  0
 26 28  1  0
M  END
$$$$
