VWC.pdb
     RDKit          3D

 28 29  0  0  1  0  0  0  0  0999 V2000
   17.0357  -30.1060   -7.9792 C   0  0  0  0  0  0  0  0  0  0  0  0
   17.8483  -29.5808   -9.1175 C   0  0  1  0  0  0  0  0  0  0  0  0
   17.3120  -30.2219  -10.3910 C   0  0  0  0  0  0  0  0  0  0  0  0
   17.7461  -28.0909   -9.3039 C   0  0  2  0  0  0  0  0  0  0  0  0
   18.6195  -27.7476  -10.4240 N   0  0  0  0  0  0  0  0  0  0  0  0
   18.1519  -27.3212   -8.1124 C   0  0  0  0  0  0  0  0  0  0  0  0
   19.3867  -27.2010   -7.8421 O   0  0  0  0  0  0  0  0  0  0  0  0
   17.2548  -26.6868   -7.2188 N   0  0  0  0  0  0  0  0  0  0  0  0
   17.6736  -25.9008   -6.0643 C   0  0  1  0  0  0  0  0  0  0  0  0
   17.1735  -24.5018   -6.1384 C   0  0  0  0  0  0  0  0  0  0  0  0
   17.6675  -23.6931   -7.2555 C   0  0  0  0  0  0  0  0  0  0  0  0
   18.8980  -23.8648   -7.8597 C   0  0  0  0  0  0  0  0  0  0  0  0
   19.0385  -23.0007   -8.8628 N   0  0  0  0  0  0  0  0  0  0  0  0
   17.9171  -22.2482   -8.9412 C   0  0  0  0  0  0  0  0  0  0  0  0
   17.6153  -21.2273   -9.8168 C   0  0  0  0  0  0  0  0  0  0  0  0
   16.4020  -20.5958   -9.6954 C   0  0  0  0  0  0  0  0  0  0  0  0
   15.5380  -21.0102   -8.7023 C   0  0  0  0  0  0  0  0  0  0  0  0
   15.8511  -22.0304   -7.8350 C   0  0  0  0  0  0  0  0  0  0  0  0
   17.0601  -22.6824   -7.9341 C   0  0  0  0  0  0  0  0  0  0  0  0
   17.4767  -26.5782   -4.7802 C   0  0  0  0  0  0  0  0  0  0  0  0
   16.4461  -27.2544   -4.5442 O   0  0  0  0  0  0  0  0  0  0  0  0
   18.4385  -26.5076   -3.7346 N   0  0  0  0  0  0  0  0  0  0  0  0
   18.2198  -27.1679   -2.4672 C   0  0  1  0  0  0  0  0  0  0  0  0
   19.4250  -27.0632   -1.5594 C   0  0  0  0  0  0  0  0  0  0  0  0
   19.0190  -27.9288   -0.0168 S   0  0  0  0  0  0  0  0  0  0  0  0
   17.0305  -26.6720   -1.7700 C   0  0  0  0  0  0  0  0  0  0  0  0
   16.7494  -25.4531   -1.8655 O   0  0  0  0  0  0  0  0  0  0  0  0
   16.1895  -27.4680   -1.0063 O   0  0  0  0  0  0  0  0  0  0  0  0
  2  1  1  1
  2  3  1  0
  4  2  1  0
  4  5  1  6
  6  4  1  0
  6  7  2  0
  8  6  1  0
  9  8  1  0
 10 11  1  0
  9 10  1  1
 11 19  1  0
 12 11  2  0
 12 13  1  0
 13 14  1  0
 14 15  1  0
 15 16  2  0
 17 16  1  0
 18 17  2  0
 19 14  2  0
 19 18  1  0
 20  9  1  0
 20 22  1  0
 21 20  2  0
 23 22  1  0
 23 26  1  0
 23 24  1  1
 25 24  1  0
 26 27  2  0
 26 28  1  0
M  END
$$$$
