VWC.pdb
     RDKit          3D

 28 29  0  0  1  0  0  0  0  0999 V2000
   38.2429  -33.9301  -21.8035 C   0  0  0  0  0  0  0  0  0  0  0  0
   38.6063  -32.4980  -21.5824 C   0  0  1  0  0  0  0  0  0  0  0  0
   38.4264  -31.7743  -22.9106 C   0  0  0  0  0  0  0  0  0  0  0  0
   37.7307  -31.7939  -20.5810 C   0  0  2  0  0  0  0  0  0  0  0  0
   38.3079  -30.4667  -20.3794 N   0  0  0  0  0  0  0  0  0  0  0  0
   37.6432  -32.4923  -19.2843 C   0  0  0  0  0  0  0  0  0  0  0  0
   38.5978  -32.3820  -18.4544 O   0  0  0  0  0  0  0  0  0  0  0  0
   36.5531  -33.2987  -18.8752 N   0  0  0  0  0  0  0  0  0  0  0  0
   36.5138  -34.0411  -17.6209 C   0  0  1  0  0  0  0  0  0  0  0  0
   35.4469  -33.5376  -16.7149 C   0  0  0  0  0  0  0  0  0  0  0  0
   35.2767  -32.0839  -16.6555 C   0  0  0  0  0  0  0  0  0  0  0  0
   34.1536  -31.4106  -17.0960 C   0  0  0  0  0  0  0  0  0  0  0  0
   34.2886  -30.1045  -16.8755 N   0  0  0  0  0  0  0  0  0  0  0  0
   35.4900  -29.8898  -16.2920 C   0  0  0  0  0  0  0  0  0  0  0  0
   36.0610  -28.7011  -15.8907 C   0  0  0  0  0  0  0  0  0  0  0  0
   37.3112  -28.7321  -15.3235 C   0  0  0  0  0  0  0  0  0  0  0  0
   37.9416  -29.9514  -15.1802 C   0  0  0  0  0  0  0  0  0  0  0  0
   37.3608  -31.1305  -15.5847 C   0  0  0  0  0  0  0  0  0  0  0  0
   36.1076  -31.1297  -16.1555 C   0  0  0  0  0  0  0  0  0  0  0  0
   36.5706  -35.4955  -17.7882 C   0  0  0  0  0  0  0  0  0  0  0  0
   36.1213  -36.0576  -18.8164 O   0  0  0  0  0  0  0  0  0  0  0  0
   37.1359  -36.3473  -16.7991 N   0  0  0  0  0  0  0  0  0  0  0  0
   37.2128  -37.7776  -16.9949 C   0  0  1  0  0  0  0  0  0  0  0  0
   37.9875  -38.4591  -15.8890 C   0  0  0  0  0  0  0  0  0  0  0  0
   39.7197  -38.5580  -16.4214 S   0  0  0  0  0  0  0  0  0  0  0  0
   35.8937  -38.4006  -17.1316 C   0  0  0  0  0  0  0  0  0  0  0  0
   34.9181  -37.8611  -16.5564 O   0  0  0  0  0  0  0  0  0  0  0  0
   35.6522  -39.5557  -17.8606 O   0  0  0  0  0  0  0  0  0  0  0  0
  2  1  1  6
  2  3  1  0
  4  2  1  0
  4  5  1  1
  6  4  1  0
  6  7  2  0
  8  6  1  0
  9  8  1  0
 10 11  1  0
  9 10  1  6
 11 19  1  0
 12 11  2  0
 12 13  1  0
 13 14  1  0
 14 15  1  0
 15 16  2  0
 17 16  1  0
 18 17  2  0
 19 14  2  0
 19 18  1  0
 20  9  1  0
 20 22  1  0
 21 20  2  0
 23 22  1  0
 23 26  1  0
 23 24  1  1
 25 24  1  0
 26 27  2  0
 26 28  1  0
M  END
$$$$
