NKC.pdb
     RDKit          3D

 24 23  0  0  1  0  0  0  0  0999 V2000
   26.9405  -20.1282   -9.0280 N   0  0  0  0  0  0  0  0  0  0  0  0
   27.7136  -20.7606  -10.0277 C   0  0  0  0  0  0  0  0  0  0  0  0
   28.8701  -21.1290   -9.7516 O   0  0  0  0  0  0  0  0  0  0  0  0
   27.1720  -20.9858  -11.3769 C   0  0  0  0  0  0  0  0  0  0  0  0
   25.7952  -20.4076  -11.4504 C   0  0  2  0  0  0  0  0  0  0  0  0
   24.9523  -21.1527  -10.5342 N   0  0  0  0  0  0  0  0  0  0  0  0
   25.2118  -20.4670  -12.8123 C   0  0  0  0  0  0  0  0  0  0  0  0
   25.8603  -20.0216  -13.7944 O   0  0  0  0  0  0  0  0  0  0  0  0
   23.9282  -21.0128  -13.0776 N   0  0  0  0  0  0  0  0  0  0  0  0
   23.3124  -21.0794  -14.3883 C   0  0  1  0  0  0  0  0  0  0  0  0
   22.5748  -22.3937  -14.4879 C   0  0  0  0  0  0  0  0  0  0  0  0
   23.4731  -23.5383  -14.8857 C   0  0  0  0  0  0  0  0  0  0  0  0
   22.7329  -24.8574  -14.9235 C   0  0  0  0  0  0  0  0  0  0  0  0
   23.7238  -25.9260  -15.3494 C   0  0  0  0  0  0  0  0  0  0  0  0
   23.0613  -27.2150  -15.3621 N   0  0  0  0  0  0  0  0  0  0  0  0
   22.3516  -19.9340  -14.4873 C   0  0  0  0  0  0  0  0  0  0  0  0
   21.7805  -19.5869  -13.4362 O   0  0  0  0  0  0  0  0  0  0  0  0
   22.0921  -19.2675  -15.7011 N   0  0  0  0  0  0  0  0  0  0  0  0
   21.1749  -18.1561  -15.7934 C   0  0  1  0  0  0  0  0  0  0  0  0
   22.0193  -16.8934  -16.0007 C   0  0  0  0  0  0  0  0  0  0  0  0
   20.9454  -15.4266  -15.9132 S   0  0  0  0  0  0  0  0  0  0  0  0
   20.3462  -18.3192  -17.0244 C   0  0  0  0  0  0  0  0  0  0  0  0
   19.0662  -17.8112  -17.1264 O   0  0  0  0  0  0  0  0  0  0  0  0
   20.7974  -18.9401  -18.0346 O   0  0  0  0  0  0  0  0  0  0  0  0
  2  3  2  0
  2  1  1  0
  4  2  1  0
  5  4  1  0
  5  6  1  1
  7  8  2  0
  7  5  1  0
  9  7  1  0
 10 11  1  1
 10  9  1  0
 11 12  1  0
 13 12  1  0
 13 14  1  0
 14 15  1  0
 16 10  1  0
 17 16  2  0
 18 16  1  0
 19 20  1  6
 19 18  1  0
 20 21  1  0
 22 23  1  0
 22 19  1  0
 24 22  2  0
M  END
$$$$
