NKC.pdb
     RDKit          3D

 24 23  0  0  1  0  0  0  0  0999 V2000
   25.2303  -21.5339   -8.9842 N   0  0  0  0  0  0  0  0  0  0  0  0
   24.5013  -21.0828  -10.1077 C   0  0  0  0  0  0  0  0  0  0  0  0
   23.2998  -20.7895   -9.9678 O   0  0  0  0  0  0  0  0  0  0  0  0
   25.1406  -20.9574  -11.4268 C   0  0  0  0  0  0  0  0  0  0  0  0
   24.0792  -20.9133  -12.4788 C   0  0  2  0  0  0  0  0  0  0  0  0
   23.3700  -22.1786  -12.4458 N   0  0  0  0  0  0  0  0  0  0  0  0
   24.6200  -20.6894  -13.8411 C   0  0  0  0  0  0  0  0  0  0  0  0
   25.5177  -21.4462  -14.2938 O   0  0  0  0  0  0  0  0  0  0  0  0
   24.1699  -19.6409  -14.6861 N   0  0  0  0  0  0  0  0  0  0  0  0
   24.4580  -19.5391  -16.1032 C   0  0  1  0  0  0  0  0  0  0  0  0
   23.1480  -19.3472  -16.8303 C   0  0  0  0  0  0  0  0  0  0  0  0
   23.3258  -19.1794  -18.3187 C   0  0  0  0  0  0  0  0  0  0  0  0
   22.0015  -19.1232  -19.0483 C   0  0  0  0  0  0  0  0  0  0  0  0
   22.3011  -18.9797  -20.5298 C   0  0  0  0  0  0  0  0  0  0  0  0
   21.0545  -18.8822  -21.2627 N   0  0  0  0  0  0  0  0  0  0  0  0
   25.3395  -18.3425  -16.2933 C   0  0  0  0  0  0  0  0  0  0  0  0
   24.9372  -17.2660  -15.8130 O   0  0  0  0  0  0  0  0  0  0  0  0
   26.5683  -18.4099  -16.9792 N   0  0  0  0  0  0  0  0  0  0  0  0
   27.4005  -17.2493  -17.1923 C   0  0  1  0  0  0  0  0  0  0  0  0
   28.7923  -17.5886  -16.6458 C   0  0  0  0  0  0  0  0  0  0  0  0
   29.9704  -16.2946  -17.1457 S   0  0  0  0  0  0  0  0  0  0  0  0
   27.5615  -17.0379  -18.6613 C   0  0  0  0  0  0  0  0  0  0  0  0
   27.6617  -15.7792  -19.2204 O   0  0  0  0  0  0  0  0  0  0  0  0
   27.6126  -18.0236  -19.4586 O   0  0  0  0  0  0  0  0  0  0  0  0
  2  3  2  0
  2  1  1  0
  4  2  1  0
  5  4  1  0
  5  6  1  6
  7  8  2  0
  7  5  1  0
  9  7  1  0
 10 11  1  6
 10  9  1  0
 11 12  1  0
 13 12  1  0
 13 14  1  0
 14 15  1  0
 16 10  1  0
 17 16  2  0
 18 16  1  0
 19 20  1  1
 19 18  1  0
 20 21  1  0
 22 23  1  0
 22 19  1  0
 24 22  2  0
M  END
$$$$
