NKC.pdb
     RDKit          3D

 24 23  0  0  1  0  0  0  0  0999 V2000
   25.5311  -21.9419   -9.4712 N   0  0  0  0  0  0  0  0  0  0  0  0
   25.6202  -20.5369   -9.5944 C   0  0  0  0  0  0  0  0  0  0  0  0
   25.6330  -19.8414   -8.5622 O   0  0  0  0  0  0  0  0  0  0  0  0
   25.6970  -19.8943  -10.9156 C   0  0  0  0  0  0  0  0  0  0  0  0
   25.5728  -20.9431  -11.9739 C   0  0  2  0  0  0  0  0  0  0  0  0
   26.7953  -21.7245  -11.9688 N   0  0  0  0  0  0  0  0  0  0  0  0
   25.3563  -20.3796  -13.3281 C   0  0  0  0  0  0  0  0  0  0  0  0
   26.3386  -19.9926  -14.0129 O   0  0  0  0  0  0  0  0  0  0  0  0
   24.0685  -20.2485  -13.9114 N   0  0  0  0  0  0  0  0  0  0  0  0
   23.8064  -19.6789  -15.2185 C   0  0  1  0  0  0  0  0  0  0  0  0
   22.4132  -20.0897  -15.6327 C   0  0  0  0  0  0  0  0  0  0  0  0
   21.9840  -19.4650  -16.9368 C   0  0  0  0  0  0  0  0  0  0  0  0
   22.4862  -20.2424  -18.1338 C   0  0  0  0  0  0  0  0  0  0  0  0
   21.9715  -19.5454  -19.3806 C   0  0  0  0  0  0  0  0  0  0  0  0
   20.5248  -19.6272  -19.4115 N   0  0  0  0  0  0  0  0  0  0  0  0
   23.8909  -18.1894  -15.0799 C   0  0  0  0  0  0  0  0  0  0  0  0
   23.1108  -17.6552  -14.2690 O   0  0  0  0  0  0  0  0  0  0  0  0
   24.8016  -17.4114  -15.8216 N   0  0  0  0  0  0  0  0  0  0  0  0
   24.8789  -15.9754  -15.6909 C   0  0  1  0  0  0  0  0  0  0  0  0
   26.3364  -15.6328  -15.3606 C   0  0  0  0  0  0  0  0  0  0  0  0
   26.5555  -13.8263  -15.3943 S   0  0  0  0  0  0  0  0  0  0  0  0
   24.5879  -15.3568  -17.0180 C   0  0  0  0  0  0  0  0  0  0  0  0
   23.8836  -14.1757  -17.1444 O   0  0  0  0  0  0  0  0  0  0  0  0
   24.9842  -15.9041  -18.0918 O   0  0  0  0  0  0  0  0  0  0  0  0
  2  3  2  0
  2  1  1  0
  4  2  1  0
  5  4  1  0
  5  6  1  6
  7  8  2  0
  7  5  1  0
  9  7  1  0
 10 11  1  1
 10  9  1  0
 11 12  1  0
 13 12  1  0
 13 14  1  0
 14 15  1  0
 16 10  1  0
 17 16  2  0
 18 16  1  0
 19 20  1  6
 19 18  1  0
 20 21  1  0
 22 23  1  0
 22 19  1  0
 24 22  2  0
M  END
$$$$
