NKC.pdb
     RDKit          3D

 24 23  0  0  1  0  0  0  0  0999 V2000
   20.9418  -29.3524  -11.2979 N   0  0  0  0  0  0  0  0  0  0  0  0
   19.9209  -28.4203  -11.5909 C   0  0  0  0  0  0  0  0  0  0  0  0
   19.9413  -27.8291  -12.6861 O   0  0  0  0  0  0  0  0  0  0  0  0
   18.8455  -28.1441  -10.6257 C   0  0  0  0  0  0  0  0  0  0  0  0
   18.9423  -26.7186  -10.1853 C   0  0  2  0  0  0  0  0  0  0  0  0
   20.1749  -26.5697   -9.4345 N   0  0  0  0  0  0  0  0  0  0  0  0
   17.7997  -26.2918   -9.3423 C   0  0  0  0  0  0  0  0  0  0  0  0
   16.6221  -26.4216   -9.7663 O   0  0  0  0  0  0  0  0  0  0  0  0
   17.9640  -25.7298   -8.0489 N   0  0  0  0  0  0  0  0  0  0  0  0
   16.8786  -25.3988   -7.1467 C   0  0  1  0  0  0  0  0  0  0  0  0
   17.4553  -25.2631   -5.7573 C   0  0  0  0  0  0  0  0  0  0  0  0
   17.5393  -26.5814   -5.0290 C   0  0  0  0  0  0  0  0  0  0  0  0
   18.1334  -26.4315   -3.6455 C   0  0  0  0  0  0  0  0  0  0  0  0
   18.1938  -27.8143   -3.0214 C   0  0  0  0  0  0  0  0  0  0  0  0
   18.9212  -27.7428   -1.7698 N   0  0  0  0  0  0  0  0  0  0  0  0
   16.3040  -24.0922   -7.6022 C   0  0  0  0  0  0  0  0  0  0  0  0
   17.1145  -23.1883   -7.8809 O   0  0  0  0  0  0  0  0  0  0  0  0
   14.9167  -23.8751   -7.7168 N   0  0  0  0  0  0  0  0  0  0  0  0
   14.3640  -22.6167   -8.1592 C   0  0  1  0  0  0  0  0  0  0  0  0
   13.7152  -22.8671   -9.5256 C   0  0  0  0  0  0  0  0  0  0  0  0
   14.9976  -23.3439  -10.7258 S   0  0  0  0  0  0  0  0  0  0  0  0
   13.2618  -22.2245   -7.2317 C   0  0  0  0  0  0  0  0  0  0  0  0
   12.6655  -20.9798   -7.2769 O   0  0  0  0  0  0  0  0  0  0  0  0
   12.8289  -23.0347   -6.3566 O   0  0  0  0  0  0  0  0  0  0  0  0
  2  3  2  0
  2  1  1  0
  4  2  1  0
  5  4  1  0
  5  6  1  1
  7  8  2  0
  7  5  1  0
  9  7  1  0
 10 11  1  1
 10  9  1  0
 11 12  1  0
 13 12  1  0
 13 14  1  0
 14 15  1  0
 16 10  1  0
 17 16  2  0
 18 16  1  0
 19 20  1  6
 19 18  1  0
 20 21  1  0
 22 23  1  0
 22 19  1  0
 24 22  2  0
M  END
$$$$
