NKC.pdb
     RDKit          3D

 24 23  0  0  1  0  0  0  0  0999 V2000
   11.9083  -11.8339   -9.7605 N   0  0  0  0  0  0  0  0  0  0  0  0
   12.8310  -11.3547  -10.7175 C   0  0  0  0  0  0  0  0  0  0  0  0
   13.3614  -12.1639  -11.5006 O   0  0  0  0  0  0  0  0  0  0  0  0
   13.1680   -9.9248  -10.7974 C   0  0  0  0  0  0  0  0  0  0  0  0
   14.6245   -9.7521  -10.5079 C   0  0  2  0  0  0  0  0  0  0  0  0
   14.8629  -10.2044   -9.1500 N   0  0  0  0  0  0  0  0  0  0  0  0
   15.0819   -8.3483  -10.6447 C   0  0  0  0  0  0  0  0  0  0  0  0
   15.0183   -7.7721  -11.7616 O   0  0  0  0  0  0  0  0  0  0  0  0
   15.6015   -7.5977   -9.5573 N   0  0  0  0  0  0  0  0  0  0  0  0
   16.0366   -6.2172   -9.6381 C   0  0  1  0  0  0  0  0  0  0  0  0
   15.6622   -5.5364   -8.3428 C   0  0  0  0  0  0  0  0  0  0  0  0
   14.2364   -5.0441   -8.3331 C   0  0  0  0  0  0  0  0  0  0  0  0
   13.8382   -4.4769   -6.9881 C   0  0  0  0  0  0  0  0  0  0  0  0
   12.4029   -3.9951   -7.1017 C   0  0  0  0  0  0  0  0  0  0  0  0
   11.9956   -3.4043   -5.8425 N   0  0  0  0  0  0  0  0  0  0  0  0
   17.5251   -6.2290   -9.8092 C   0  0  0  0  0  0  0  0  0  0  0  0
   18.2102   -6.2640   -8.7695 O   0  0  0  0  0  0  0  0  0  0  0  0
   18.1408   -6.2023  -11.0761 N   0  0  0  0  0  0  0  0  0  0  0  0
   19.5707   -6.3119  -11.2443 C   0  0  1  0  0  0  0  0  0  0  0  0
   19.8688   -7.7704  -11.6113 C   0  0  0  0  0  0  0  0  0  0  0  0
   21.6183   -7.9288  -12.0873 S   0  0  0  0  0  0  0  0  0  0  0  0
   19.9800   -5.4867  -12.4191 C   0  0  0  0  0  0  0  0  0  0  0  0
   21.2253   -4.8970  -12.5104 O   0  0  0  0  0  0  0  0  0  0  0  0
   19.1845   -5.2962  -13.3890 O   0  0  0  0  0  0  0  0  0  0  0  0
  2  3  2  0
  2  1  1  0
  4  2  1  0
  5  4  1  0
  5  6  1  1
  7  8  2  0
  7  5  1  0
  9  7  1  0
 10 11  1  1
 10  9  1  0
 11 12  1  0
 13 12  1  0
 13 14  1  0
 14 15  1  0
 16 10  1  0
 17 16  2  0
 18 16  1  0
 19 20  1  6
 19 18  1  0
 20 21  1  0
 22 23  1  0
 22 19  1  0
 24 22  2  0
M  END
$$$$
