NKC.pdb
     RDKit          3D

 24 23  0  0  1  0  0  0  0  0999 V2000
   13.1569  -12.8658  -12.3665 N   0  0  0  0  0  0  0  0  0  0  0  0
   12.7101  -12.2548  -11.1731 C   0  0  0  0  0  0  0  0  0  0  0  0
   11.5617  -12.5035  -10.7626 O   0  0  0  0  0  0  0  0  0  0  0  0
   13.5787  -11.3377  -10.4188 C   0  0  0  0  0  0  0  0  0  0  0  0
   14.9075  -11.2572  -11.0992 C   0  0  2  0  0  0  0  0  0  0  0  0
   15.6074  -12.5041  -10.8533 N   0  0  0  0  0  0  0  0  0  0  0  0
   15.7380  -10.1259  -10.6207 C   0  0  0  0  0  0  0  0  0  0  0  0
   16.2078  -10.1401   -9.4535 O   0  0  0  0  0  0  0  0  0  0  0  0
   16.0410   -8.9973  -11.4272 N   0  0  0  0  0  0  0  0  0  0  0  0
   16.8193   -7.8544  -10.9917 C   0  0  1  0  0  0  0  0  0  0  0  0
   17.5886   -7.3359  -12.1837 C   0  0  0  0  0  0  0  0  0  0  0  0
   18.9420   -7.9852  -12.3322 C   0  0  0  0  0  0  0  0  0  0  0  0
   19.5802   -7.6739  -13.6682 C   0  0  0  0  0  0  0  0  0  0  0  0
   20.8130   -8.5500  -13.8015 C   0  0  0  0  0  0  0  0  0  0  0  0
   21.4193   -8.3285  -15.0992 N   0  0  0  0  0  0  0  0  0  0  0  0
   15.8534   -6.8180  -10.5040 C   0  0  0  0  0  0  0  0  0  0  0  0
   14.8486   -6.6096  -11.2100 O   0  0  0  0  0  0  0  0  0  0  0  0
   16.0530   -6.1020   -9.3073 N   0  0  0  0  0  0  0  0  0  0  0  0
   15.1526   -5.0623   -8.8678 C   0  0  1  0  0  0  0  0  0  0  0  0
   14.7855   -5.3725   -7.4118 C   0  0  0  0  0  0  0  0  0  0  0  0
   13.7846   -4.0103   -6.7371 S   0  0  0  0  0  0  0  0  0  0  0  0
   15.8900   -3.7643   -8.8521 C   0  0  0  0  0  0  0  0  0  0  0  0
   15.2780   -2.5629   -9.1505 O   0  0  0  0  0  0  0  0  0  0  0  0
   17.1237   -3.7206   -8.5593 O   0  0  0  0  0  0  0  0  0  0  0  0
  2  3  2  0
  2  1  1  0
  4  2  1  0
  5  4  1  0
  5  6  1  1
  7  8  2  0
  7  5  1  0
  9  7  1  0
 10 11  1  6
 10  9  1  0
 11 12  1  0
 13 12  1  0
 13 14  1  0
 14 15  1  0
 16 10  1  0
 17 16  2  0
 18 16  1  0
 19 20  1  1
 19 18  1  0
 20 21  1  0
 22 23  1  0
 22 19  1  0
 24 22  2  0
M  END
$$$$
