NKC.pdb
     RDKit          3D

 24 23  0  0  1  0  0  0  0  0999 V2000
   15.2852  -14.2804  -16.4523 N   0  0  0  0  0  0  0  0  0  0  0  0
   16.4998  -13.6526  -16.0948 C   0  0  0  0  0  0  0  0  0  0  0  0
   17.3561  -14.3079  -15.4729 O   0  0  0  0  0  0  0  0  0  0  0  0
   16.7601  -12.2479  -16.4460 C   0  0  0  0  0  0  0  0  0  0  0  0
   17.7599  -11.6848  -15.4875 C   0  0  2  0  0  0  0  0  0  0  0  0
   17.1840  -11.7502  -14.1574 N   0  0  0  0  0  0  0  0  0  0  0  0
   18.1319  -10.2824  -15.7927 C   0  0  0  0  0  0  0  0  0  0  0  0
   18.7537  -10.0130  -16.8530 O   0  0  0  0  0  0  0  0  0  0  0  0
   17.8176   -9.1972  -14.9327 N   0  0  0  0  0  0  0  0  0  0  0  0
   18.1171   -7.8066  -15.2122 C   0  0  1  0  0  0  0  0  0  0  0  0
   16.8888   -6.9920  -14.8815 C   0  0  0  0  0  0  0  0  0  0  0  0
   17.0857   -5.5158  -15.1211 C   0  0  0  0  0  0  0  0  0  0  0  0
   15.8313   -4.7196  -14.8349 C   0  0  0  0  0  0  0  0  0  0  0  0
   16.1301   -3.2654  -15.1527 C   0  0  0  0  0  0  0  0  0  0  0  0
   14.9143   -2.4874  -15.0215 N   0  0  0  0  0  0  0  0  0  0  0  0
   19.2589   -7.4106  -14.3265 C   0  0  0  0  0  0  0  0  0  0  0  0
   19.0540   -7.4401  -13.0983 O   0  0  0  0  0  0  0  0  0  0  0  0
   20.5123   -7.0202  -14.8377 N   0  0  0  0  0  0  0  0  0  0  0  0
   21.6335   -6.7072  -13.9833 C   0  0  1  0  0  0  0  0  0  0  0  0
   22.8751   -7.3401  -14.6225 C   0  0  0  0  0  0  0  0  0  0  0  0
   22.7932   -9.1492  -14.4410 S   0  0  0  0  0  0  0  0  0  0  0  0
   21.8528   -5.2307  -14.0016 C   0  0  0  0  0  0  0  0  0  0  0  0
   22.5487   -4.5744  -13.0056 O   0  0  0  0  0  0  0  0  0  0  0  0
   21.3998   -4.5175  -14.9481 O   0  0  0  0  0  0  0  0  0  0  0  0
  2  3  2  0
  2  1  1  0
  4  2  1  0
  5  4  1  0
  5  6  1  1
  7  8  2  0
  7  5  1  0
  9  7  1  0
 10 11  1  1
 10  9  1  0
 11 12  1  0
 13 12  1  0
 13 14  1  0
 14 15  1  0
 16 10  1  0
 17 16  2  0
 18 16  1  0
 19 20  1  6
 19 18  1  0
 20 21  1  0
 22 23  1  0
 22 19  1  0
 24 22  2  0
M  END
$$$$
