ITM.pdb
     RDKit          3D

 24 23  0  0  1  0  0  0  0  0999 V2000
    6.0664  -11.8804   26.7208 C   0  0  0  0  0  0  0  0  0  0  0  0
    5.6394  -13.1084   25.9708 C   0  0  0  0  0  0  0  0  0  0  0  0
    6.8223  -13.9692   25.5639 C   0  0  2  0  0  0  0  0  0  0  0  0
    7.7263  -13.0895   24.7311 C   0  0  0  0  0  0  0  0  0  0  0  0
    6.3987  -15.2095   24.8526 C   0  0  2  0  0  0  0  0  0  0  0  0
    5.5163  -15.9540   25.7225 N   0  0  0  0  0  0  0  0  0  0  0  0
    7.6065  -16.0091   24.4921 C   0  0  0  0  0  0  0  0  0  0  0  0
    8.1013  -16.8596   25.2731 O   0  0  0  0  0  0  0  0  0  0  0  0
   10.6846  -17.5176   20.8773 C   0  0  0  0  0  0  0  0  0  0  0  0
    9.6030  -16.5747   21.3571 C   0  0  1  0  0  0  0  0  0  0  0  0
    8.4009  -17.0866   20.7924 O   0  0  0  0  0  0  0  0  0  0  0  0
    9.4111  -16.6263   22.8615 C   0  0  2  0  0  0  0  0  0  0  0  0
    8.2470  -15.8376   23.2433 N   0  0  0  0  0  0  0  0  0  0  0  0
   10.5715  -16.1059   23.6174 C   0  0  0  0  0  0  0  0  0  0  0  0
   11.1261  -15.0412   23.1819 O   0  0  0  0  0  0  0  0  0  0  0  0
   11.0151  -13.0207   28.5564 C   0  0  0  0  0  0  0  0  0  0  0  0
   10.8699  -14.8071   28.8223 S   0  0  0  0  0  0  0  0  0  0  0  0
   10.8570  -15.6635   27.2217 C   0  0  0  0  0  0  0  0  0  0  0  0
   12.2768  -15.9716   26.8321 C   0  0  0  0  0  0  0  0  0  0  0  0
   12.3789  -16.1565   25.3272 C   0  0  2  0  0  0  0  0  0  0  0  0
   11.1345  -16.6598   24.7744 N   0  0  0  0  0  0  0  0  0  0  0  0
   13.5177  -17.0451   25.0084 C   0  0  0  0  0  0  0  0  0  0  0  0
   14.8146  -16.6365   25.2178 O   0  0  0  0  0  0  0  0  0  0  0  0
   13.3038  -18.1821   24.5427 O   0  0  0  0  0  0  0  0  0  0  0  0
  2  1  1  0
  3  5  1  0
  3  2  1  0
  3  4  1  6
  5  6  1  1
  7  5  1  0
  7  8  2  0
 10  9  1  1
 10 12  1  0
 11 10  1  0
 12 13  1  6
 13  7  1  0
 14 12  1  0
 15 14  2  0
 16 17  1  0
 18 19  1  0
 18 17  1  0
 20 19  1  1
 20 21  1  0
 20 22  1  0
 21 14  1  0
 22 23  1  0
 24 22  2  0
M  END
$$$$
