ITM.pdb
     RDKit          3D

 24 23  0  0  1  0  0  0  0  0999 V2000
    6.3235  -11.2649   26.5200 C   0  0  0  0  0  0  0  0  0  0  0  0
    5.7687  -12.5226   25.9173 C   0  0  0  0  0  0  0  0  0  0  0  0
    6.8621  -13.5090   25.5471 C   0  0  2  0  0  0  0  0  0  0  0  0
    7.7956  -12.7815   24.6071 C   0  0  0  0  0  0  0  0  0  0  0  0
    6.3126  -14.7674   24.9654 C   0  0  2  0  0  0  0  0  0  0  0  0
    5.3672  -15.3278   25.9044 N   0  0  0  0  0  0  0  0  0  0  0  0
    7.4327  -15.7156   24.6924 C   0  0  0  0  0  0  0  0  0  0  0  0
    7.9134  -16.4558   25.5864 O   0  0  0  0  0  0  0  0  0  0  0  0
    7.7270  -17.3229   21.0005 C   0  0  0  0  0  0  0  0  0  0  0  0
    9.0891  -17.0387   21.5946 C   0  0  1  0  0  0  0  0  0  0  0  0
    9.4840  -15.7994   21.0163 O   0  0  0  0  0  0  0  0  0  0  0  0
    9.0327  -16.7998   23.0921 C   0  0  2  0  0  0  0  0  0  0  0  0
    8.0019  -15.8178   23.4022 N   0  0  0  0  0  0  0  0  0  0  0  0
   10.3079  -16.3024   23.6535 C   0  0  0  0  0  0  0  0  0  0  0  0
   10.5033  -15.0405   23.6385 O   0  0  0  0  0  0  0  0  0  0  0  0
   10.1354  -13.8076   28.8583 C   0  0  0  0  0  0  0  0  0  0  0  0
   10.5951  -15.5473   29.0708 S   0  0  0  0  0  0  0  0  0  0  0  0
   11.8004  -16.0201   27.7984 C   0  0  0  0  0  0  0  0  0  0  0  0
   11.0542  -16.3911   26.5462 C   0  0  0  0  0  0  0  0  0  0  0  0
   12.0312  -16.6578   25.4133 C   0  0  2  0  0  0  0  0  0  0  0  0
   11.3369  -17.0743   24.2083 N   0  0  0  0  0  0  0  0  0  0  0  0
   13.0324  -17.6591   25.8411 C   0  0  0  0  0  0  0  0  0  0  0  0
   14.1515  -17.2838   26.5479 O   0  0  0  0  0  0  0  0  0  0  0  0
   12.8637  -18.8622   25.5592 O   0  0  0  0  0  0  0  0  0  0  0  0
  2  1  1  0
  3  5  1  0
  3  2  1  0
  3  4  1  6
  5  6  1  1
  7  5  1  0
  7  8  2  0
 10  9  1  6
 10 12  1  0
 11 10  1  0
 12 13  1  6
 13  7  1  0
 14 12  1  0
 15 14  2  0
 16 17  1  0
 18 19  1  0
 18 17  1  0
 20 19  1  1
 20 21  1  0
 20 22  1  0
 21 14  1  0
 22 23  1  0
 24 22  2  0
M  END
$$$$
