ITM.pdb
     RDKit          3D

 24 23  0  0  1  0  0  0  0  0999 V2000
    6.3865  -11.4302   26.7066 C   0  0  0  0  0  0  0  0  0  0  0  0
    5.8804  -12.7146   26.1175 C   0  0  0  0  0  0  0  0  0  0  0  0
    7.0121  -13.6213   25.6671 C   0  0  2  0  0  0  0  0  0  0  0  0
    7.8559  -12.8107   24.7103 C   0  0  0  0  0  0  0  0  0  0  0  0
    6.5119  -14.8930   25.0701 C   0  0  2  0  0  0  0  0  0  0  0  0
    5.6602  -15.5461   26.0384 N   0  0  0  0  0  0  0  0  0  0  0  0
    7.6729  -15.7551   24.7001 C   0  0  0  0  0  0  0  0  0  0  0  0
    8.2209  -16.5270   25.5260 O   0  0  0  0  0  0  0  0  0  0  0  0
    7.8541  -17.0642   20.9273 C   0  0  0  0  0  0  0  0  0  0  0  0
    9.2449  -16.8149   21.4683 C   0  0  1  0  0  0  0  0  0  0  0  0
    9.6191  -15.5500   20.9337 O   0  0  0  0  0  0  0  0  0  0  0  0
    9.2618  -16.6506   22.9768 C   0  0  2  0  0  0  0  0  0  0  0  0
    8.2062  -15.7355   23.3909 N   0  0  0  0  0  0  0  0  0  0  0  0
   10.5424  -16.1192   23.4929 C   0  0  0  0  0  0  0  0  0  0  0  0
   10.7365  -14.8605   23.3983 O   0  0  0  0  0  0  0  0  0  0  0  0
    9.7183  -14.3891   28.3675 C   0  0  0  0  0  0  0  0  0  0  0  0
   11.1243  -15.3506   28.9852 S   0  0  0  0  0  0  0  0  0  0  0  0
   12.2484  -15.7386   27.6136 C   0  0  0  0  0  0  0  0  0  0  0  0
   11.4257  -16.0434   26.3918 C   0  0  0  0  0  0  0  0  0  0  0  0
   12.3330  -16.3332   25.2078 C   0  0  2  0  0  0  0  0  0  0  0  0
   11.5780  -16.8552   24.0832 N   0  0  0  0  0  0  0  0  0  0  0  0
   13.4118  -17.2581   25.6185 C   0  0  0  0  0  0  0  0  0  0  0  0
   14.6927  -16.8025   25.8293 O   0  0  0  0  0  0  0  0  0  0  0  0
   13.1611  -18.4694   25.7773 O   0  0  0  0  0  0  0  0  0  0  0  0
  2  1  1  0
  3  5  1  0
  3  2  1  0
  3  4  1  6
  5  6  1  1
  7  5  1  0
  7  8  2  0
 10  9  1  6
 10 12  1  0
 11 10  1  0
 12 13  1  6
 13  7  1  0
 14 12  1  0
 15 14  2  0
 16 17  1  0
 18 19  1  0
 18 17  1  0
 20 19  1  1
 20 21  1  0
 20 22  1  0
 21 14  1  0
 22 23  1  0
 24 22  2  0
M  END
$$$$
