ITM.pdb
     RDKit          3D

 24 23  0  0  1  0  0  0  0  0999 V2000
    7.7248  -11.3671   25.3790 C   0  0  0  0  0  0  0  0  0  0  0  0
    7.5717  -12.8283   25.6856 C   0  0  0  0  0  0  0  0  0  0  0  0
    6.3009  -13.4070   25.0890 C   0  0  2  0  0  0  0  0  0  0  0  0
    5.1523  -12.6318   25.6926 C   0  0  0  0  0  0  0  0  0  0  0  0
    6.1927  -14.8776   25.3111 C   0  0  2  0  0  0  0  0  0  0  0  0
    6.6201  -15.1665   26.6614 N   0  0  0  0  0  0  0  0  0  0  0  0
    7.0387  -15.5919   24.3099 C   0  0  0  0  0  0  0  0  0  0  0  0
    6.5419  -16.2027   23.3309 O   0  0  0  0  0  0  0  0  0  0  0  0
    7.6351  -15.9078   21.7020 C   0  0  0  0  0  0  0  0  0  0  0  0
    9.0927  -15.9649   22.1036 C   0  0  1  0  0  0  0  0  0  0  0  0
    9.5351  -14.6129   22.0512 O   0  0  0  0  0  0  0  0  0  0  0  0
    9.2832  -16.4096   23.5419 C   0  0  2  0  0  0  0  0  0  0  0  0
    8.4476  -15.6083   24.4267 N   0  0  0  0  0  0  0  0  0  0  0  0
   10.6804  -16.2854   24.0123 C   0  0  0  0  0  0  0  0  0  0  0  0
   11.2178  -15.1283   23.9571 O   0  0  0  0  0  0  0  0  0  0  0  0
   10.6387  -13.8977   27.9420 C   0  0  0  0  0  0  0  0  0  0  0  0
   11.3712  -15.1732   29.0001 S   0  0  0  0  0  0  0  0  0  0  0  0
   11.1418  -16.8046   28.2376 C   0  0  0  0  0  0  0  0  0  0  0  0
   10.8360  -16.6121   26.7776 C   0  0  0  0  0  0  0  0  0  0  0  0
   11.8384  -17.3743   25.9271 C   0  0  2  0  0  0  0  0  0  0  0  0
   11.4880  -17.3115   24.5197 N   0  0  0  0  0  0  0  0  0  0  0  0
   11.9395  -18.7710   26.4035 C   0  0  0  0  0  0  0  0  0  0  0  0
   13.0208  -19.1898   27.1438 O   0  0  0  0  0  0  0  0  0  0  0  0
   11.0335  -19.5841   26.1326 O   0  0  0  0  0  0  0  0  0  0  0  0
  2  1  1  0
  3  5  1  0
  3  2  1  0
  3  4  1  1
  5  6  1  1
  7  5  1  0
  7  8  2  0
 10  9  1  1
 10 12  1  0
 11 10  1  0
 12 13  1  1
 13  7  1  0
 14 12  1  0
 15 14  2  0
 16 17  1  0
 18 19  1  0
 18 17  1  0
 20 19  1  1
 20 21  1  0
 20 22  1  0
 21 14  1  0
 22 23  1  0
 24 22  2  0
M  END
$$$$
