ITM.pdb
     RDKit          3D

 24 23  0  0  1  0  0  0  0  0999 V2000
    7.3112  -12.0234   20.6492 C   0  0  0  0  0  0  0  0  0  0  0  0
    7.3532  -13.5129   20.4688 C   0  0  0  0  0  0  0  0  0  0  0  0
    8.6433  -13.9725   19.8129 C   0  0  2  0  0  0  0  0  0  0  0  0
    8.7418  -13.2350   18.4973 C   0  0  0  0  0  0  0  0  0  0  0  0
    8.6992  -15.4545   19.6566 C   0  0  2  0  0  0  0  0  0  0  0  0
    7.7020  -15.8477   18.6868 N   0  0  0  0  0  0  0  0  0  0  0  0
    8.4534  -16.1004   20.9797 C   0  0  0  0  0  0  0  0  0  0  0  0
    7.2937  -16.3207   21.4095 O   0  0  0  0  0  0  0  0  0  0  0  0
    9.5738  -19.3543   22.0756 C   0  0  0  0  0  0  0  0  0  0  0  0
    9.9807  -18.4372   23.2080 C   0  0  1  0  0  0  0  0  0  0  0  0
   11.3690  -18.2013   23.0006 O   0  0  0  0  0  0  0  0  0  0  0  0
    9.3108  -17.0781   23.1257 C   0  0  2  0  0  0  0  0  0  0  0  0
    9.5289  -16.4932   21.8091 N   0  0  0  0  0  0  0  0  0  0  0  0
    9.8135  -16.1164   24.1312 C   0  0  0  0  0  0  0  0  0  0  0  0
   10.2153  -14.9806   23.7078 O   0  0  0  0  0  0  0  0  0  0  0  0
    7.3656  -11.0717   25.6015 C   0  0  0  0  0  0  0  0  0  0  0  0
    6.7834  -12.4047   26.6818 S   0  0  0  0  0  0  0  0  0  0  0  0
    8.1925  -13.4163   27.2171 C   0  0  0  0  0  0  0  0  0  0  0  0
    8.3544  -14.5600   26.2537 C   0  0  0  0  0  0  0  0  0  0  0  0
    9.7060  -15.2255   26.4524 C   0  0  2  0  0  0  0  0  0  0  0  0
    9.8963  -16.3176   25.5152 N   0  0  0  0  0  0  0  0  0  0  0  0
    9.8395  -15.6785   27.8542 C   0  0  0  0  0  0  0  0  0  0  0  0
    9.5071  -16.9631   28.2176 O   0  0  0  0  0  0  0  0  0  0  0  0
   10.2591  -14.8879   28.7226 O   0  0  0  0  0  0  0  0  0  0  0  0
  2  1  1  0
  3  5  1  0
  3  2  1  0
  3  4  1  6
  5  6  1  6
  7  5  1  0
  7  8  2  0
 10  9  1  6
 10 12  1  0
 11 10  1  0
 12 13  1  6
 13  7  1  0
 14 12  1  0
 15 14  2  0
 16 17  1  0
 18 19  1  0
 18 17  1  0
 20 19  1  1
 20 21  1  0
 20 22  1  0
 21 14  1  0
 22 23  1  0
 24 22  2  0
M  END
$$$$
