ITM.pdb
     RDKit          3D

 24 23  0  0  1  0  0  0  0  0999 V2000
    7.5038  -11.7557   18.8258 C   0  0  0  0  0  0  0  0  0  0  0  0
    8.1877  -13.0792   18.6434 C   0  0  0  0  0  0  0  0  0  0  0  0
    7.9026  -14.0323   19.7906 C   0  0  2  0  0  0  0  0  0  0  0  0
    8.3042  -13.3112   21.0568 C   0  0  0  0  0  0  0  0  0  0  0  0
    8.5948  -15.3421   19.6206 C   0  0  2  0  0  0  0  0  0  0  0  0
    8.0675  -15.9854   18.4384 N   0  0  0  0  0  0  0  0  0  0  0  0
    8.3747  -16.1786   20.8371 C   0  0  0  0  0  0  0  0  0  0  0  0
    7.2572  -16.6868   21.1043 O   0  0  0  0  0  0  0  0  0  0  0  0
    9.8453  -19.3307   21.8909 C   0  0  0  0  0  0  0  0  0  0  0  0
   10.0970  -18.3845   23.0443 C   0  0  1  0  0  0  0  0  0  0  0  0
   11.4258  -17.9153   22.8433 O   0  0  0  0  0  0  0  0  0  0  0  0
    9.2093  -17.1548   22.9928 C   0  0  2  0  0  0  0  0  0  0  0  0
    9.4276  -16.4338   21.7456 N   0  0  0  0  0  0  0  0  0  0  0  0
    9.4540  -16.2099   24.1045 C   0  0  0  0  0  0  0  0  0  0  0  0
   10.1818  -15.1897   23.8584 O   0  0  0  0  0  0  0  0  0  0  0  0
    6.8742  -11.4030   25.9923 C   0  0  0  0  0  0  0  0  0  0  0  0
    7.0942  -12.0764   27.6600 S   0  0  0  0  0  0  0  0  0  0  0  0
    8.4128  -13.3240   27.6456 C   0  0  0  0  0  0  0  0  0  0  0  0
    8.0909  -14.3489   26.5927 C   0  0  0  0  0  0  0  0  0  0  0  0
    9.2612  -15.3014   26.4133 C   0  0  2  0  0  0  0  0  0  0  0  0
    8.9668  -16.3124   25.4139 N   0  0  0  0  0  0  0  0  0  0  0  0
    9.6178  -15.9069   27.7149 C   0  0  0  0  0  0  0  0  0  0  0  0
   10.1967  -15.1545   28.7106 O   0  0  0  0  0  0  0  0  0  0  0  0
    9.3922  -17.1167   27.9170 O   0  0  0  0  0  0  0  0  0  0  0  0
  2  1  1  0
  3  5  1  0
  3  2  1  0
  3  4  1  1
  5  6  1  6
  7  5  1  0
  7  8  2  0
 10  9  1  6
 10 12  1  0
 11 10  1  0
 12 13  1  6
 13  7  1  0
 14 12  1  0
 15 14  2  0
 16 17  1  0
 18 19  1  0
 18 17  1  0
 20 19  1  1
 20 21  1  0
 20 22  1  0
 21 14  1  0
 22 23  1  0
 24 22  2  0
M  END
$$$$
