ITM.pdb
     RDKit          3D

 24 23  0  0  1  0  0  0  0  0999 V2000
    8.1106  -11.7363   18.9808 C   0  0  0  0  0  0  0  0  0  0  0  0
    8.3954  -13.1771   18.6714 C   0  0  0  0  0  0  0  0  0  0  0  0
    8.0967  -14.0845   19.8518 C   0  0  2  0  0  0  0  0  0  0  0  0
    8.1989  -13.2243   21.0904 C   0  0  0  0  0  0  0  0  0  0  0  0
    8.9966  -15.2729   19.8910 C   0  0  2  0  0  0  0  0  0  0  0  0
    8.8118  -16.0241   18.6699 N   0  0  0  0  0  0  0  0  0  0  0  0
    8.6713  -16.0994   21.0908 C   0  0  0  0  0  0  0  0  0  0  0  0
    7.5491  -16.6435   21.2419 O   0  0  0  0  0  0  0  0  0  0  0  0
    9.7142  -19.2320   22.0921 C   0  0  0  0  0  0  0  0  0  0  0  0
   10.0549  -18.3885   23.3011 C   0  0  1  0  0  0  0  0  0  0  0  0
   11.4305  -18.0614   23.1372 O   0  0  0  0  0  0  0  0  0  0  0  0
    9.3116  -17.0657   23.3162 C   0  0  2  0  0  0  0  0  0  0  0  0
    9.6248  -16.3036   22.1145 N   0  0  0  0  0  0  0  0  0  0  0  0
    9.6469  -16.2196   24.4826 C   0  0  0  0  0  0  0  0  0  0  0  0
   10.5449  -15.3262   24.3209 O   0  0  0  0  0  0  0  0  0  0  0  0
    6.3550  -12.1825   26.6019 C   0  0  0  0  0  0  0  0  0  0  0  0
    8.1494  -12.1427   26.3541 S   0  0  0  0  0  0  0  0  0  0  0  0
    8.9607  -13.1890   27.5960 C   0  0  0  0  0  0  0  0  0  0  0  0
    8.4684  -14.6004   27.4284 C   0  0  0  0  0  0  0  0  0  0  0  0
    9.5709  -15.4757   26.8561 C   0  0  2  0  0  0  0  0  0  0  0  0
    9.0784  -16.2914   25.7609 N   0  0  0  0  0  0  0  0  0  0  0  0
   10.1621  -16.3025   27.9307 C   0  0  0  0  0  0  0  0  0  0  0  0
   10.9417  -15.7355   28.9123 O   0  0  0  0  0  0  0  0  0  0  0  0
    9.9536  -17.5319   27.9512 O   0  0  0  0  0  0  0  0  0  0  0  0
  2  1  1  0
  3  5  1  0
  3  2  1  0
  3  4  1  1
  5  6  1  6
  7  5  1  0
  7  8  2  0
 10  9  1  6
 10 12  1  0
 11 10  1  0
 12 13  1  6
 13  7  1  0
 14 12  1  0
 15 14  2  0
 16 17  1  0
 18 19  1  0
 18 17  1  0
 20 19  1  1
 20 21  1  0
 20 22  1  0
 21 14  1  0
 22 23  1  0
 24 22  2  0
M  END
$$$$
