ITM.pdb
     RDKit          3D

 24 23  0  0  1  0  0  0  0  0999 V2000
    7.8187  -11.9101   18.3848 C   0  0  0  0  0  0  0  0  0  0  0  0
    8.5843  -13.2003   18.3399 C   0  0  0  0  0  0  0  0  0  0  0  0
    8.1109  -14.1824   19.3968 C   0  0  2  0  0  0  0  0  0  0  0  0
    8.2566  -13.4824   20.7285 C   0  0  0  0  0  0  0  0  0  0  0  0
    8.8486  -15.4768   19.3344 C   0  0  2  0  0  0  0  0  0  0  0  0
    8.5498  -16.1103   18.0699 N   0  0  0  0  0  0  0  0  0  0  0  0
    8.4358  -16.3365   20.4827 C   0  0  0  0  0  0  0  0  0  0  0  0
    7.7350  -17.3674   20.3264 O   0  0  0  0  0  0  0  0  0  0  0  0
    8.5519  -18.8169   21.3854 C   0  0  0  0  0  0  0  0  0  0  0  0
    8.9001  -18.2648   22.7503 C   0  0  1  0  0  0  0  0  0  0  0  0
   10.3221  -18.2021   22.7626 O   0  0  0  0  0  0  0  0  0  0  0  0
    8.4191  -16.8382   22.9412 C   0  0  2  0  0  0  0  0  0  0  0  0
    8.8222  -16.0196   21.8053 N   0  0  0  0  0  0  0  0  0  0  0  0
    8.9527  -16.1998   24.1645 C   0  0  0  0  0  0  0  0  0  0  0  0
   10.1530  -15.7655   24.1242 O   0  0  0  0  0  0  0  0  0  0  0  0
    7.1322  -10.9531   27.1768 C   0  0  0  0  0  0  0  0  0  0  0  0
    6.2266  -12.0880   26.0929 S   0  0  0  0  0  0  0  0  0  0  0  0
    7.3152  -13.4509   25.5899 C   0  0  0  0  0  0  0  0  0  0  0  0
    7.9069  -14.0720   26.8254 C   0  0  0  0  0  0  0  0  0  0  0  0
    8.8396  -15.2098   26.4449 C   0  0  2  0  0  0  0  0  0  0  0  0
    8.2759  -16.0159   25.3772 N   0  0  0  0  0  0  0  0  0  0  0  0
    9.1487  -16.0246   27.6401 C   0  0  0  0  0  0  0  0  0  0  0  0
    8.8306  -17.3622   27.6865 O   0  0  0  0  0  0  0  0  0  0  0  0
    9.7059  -15.4954   28.6224 O   0  0  0  0  0  0  0  0  0  0  0  0
  2  1  1  0
  3  5  1  0
  3  2  1  0
  3  4  1  1
  5  6  1  6
  7  5  1  0
  7  8  2  0
 10  9  1  6
 10 12  1  0
 11 10  1  0
 12 13  1  6
 13  7  1  0
 14 12  1  0
 15 14  2  0
 16 17  1  0
 18 19  1  0
 18 17  1  0
 20 19  1  1
 20 21  1  0
 20 22  1  0
 21 14  1  0
 22 23  1  0
 24 22  2  0
M  END
$$$$
