ITM.pdb
     RDKit          3D

 24 23  0  0  1  0  0  0  0  0999 V2000
    8.0350  -11.7058   18.4012 C   0  0  0  0  0  0  0  0  0  0  0  0
    8.7497  -13.0212   18.2939 C   0  0  0  0  0  0  0  0  0  0  0  0
    8.2001  -14.0507   19.2654 C   0  0  2  0  0  0  0  0  0  0  0  0
    8.2654  -13.4221   20.6384 C   0  0  0  0  0  0  0  0  0  0  0  0
    8.9289  -15.3491   19.1830 C   0  0  2  0  0  0  0  0  0  0  0  0
    8.6794  -15.9292   17.8827 N   0  0  0  0  0  0  0  0  0  0  0  0
    8.4599  -16.2491   20.2776 C   0  0  0  0  0  0  0  0  0  0  0  0
    7.7938  -17.2890   20.0470 O   0  0  0  0  0  0  0  0  0  0  0  0
   10.3749  -18.3310   22.2911 C   0  0  0  0  0  0  0  0  0  0  0  0
    8.8683  -18.2672   22.4142 C   0  0  1  0  0  0  0  0  0  0  0  0
    8.5673  -19.0399   23.5711 O   0  0  0  0  0  0  0  0  0  0  0  0
    8.3672  -16.8653   22.7082 C   0  0  2  0  0  0  0  0  0  0  0  0
    8.7508  -15.9622   21.6311 N   0  0  0  0  0  0  0  0  0  0  0  0
    8.8988  -16.3069   23.9708 C   0  0  0  0  0  0  0  0  0  0  0  0
   10.1233  -15.9445   23.9828 O   0  0  0  0  0  0  0  0  0  0  0  0
    6.9318  -10.9599   26.7732 C   0  0  0  0  0  0  0  0  0  0  0  0
    6.0560  -12.5457   26.7354 S   0  0  0  0  0  0  0  0  0  0  0  0
    7.0925  -13.7965   25.9250 C   0  0  0  0  0  0  0  0  0  0  0  0
    7.9088  -14.4964   26.9767 C   0  0  0  0  0  0  0  0  0  0  0  0
    8.8223  -15.5257   26.3324 C   0  0  2  0  0  0  0  0  0  0  0  0
    8.1962  -16.1285   25.1696 N   0  0  0  0  0  0  0  0  0  0  0  0
    9.2133  -16.5434   27.3320 C   0  0  0  0  0  0  0  0  0  0  0  0
    9.9916  -16.2085   28.4160 O   0  0  0  0  0  0  0  0  0  0  0  0
    8.8341  -17.7235   27.1944 O   0  0  0  0  0  0  0  0  0  0  0  0
  2  1  1  0
  3  5  1  0
  3  2  1  0
  3  4  1  1
  5  6  1  6
  7  5  1  0
  7  8  2  0
 10  9  1  1
 10 12  1  0
 11 10  1  0
 12 13  1  6
 13  7  1  0
 14 12  1  0
 15 14  2  0
 16 17  1  0
 18 19  1  0
 18 17  1  0
 20 19  1  1
 20 21  1  0
 20 22  1  0
 21 14  1  0
 22 23  1  0
 24 22  2  0
M  END
$$$$
