ITM.pdb
     RDKit          3D

 24 23  0  0  1  0  0  0  0  0999 V2000
    7.4542  -11.9510   19.1612 C   0  0  0  0  0  0  0  0  0  0  0  0
    7.9700  -13.3586   19.0870 C   0  0  0  0  0  0  0  0  0  0  0  0
    7.8540  -14.0802   20.4180 C   0  0  2  0  0  0  0  0  0  0  0  0
    8.6435  -13.2660   21.4172 C   0  0  0  0  0  0  0  0  0  0  0  0
    8.3082  -15.4980   20.3320 C   0  0  2  0  0  0  0  0  0  0  0  0
    7.5013  -16.1749   19.3419 N   0  0  0  0  0  0  0  0  0  0  0  0
    8.1750  -16.1414   21.6723 C   0  0  0  0  0  0  0  0  0  0  0  0
    7.0558  -16.4148   22.1731 O   0  0  0  0  0  0  0  0  0  0  0  0
    9.1776  -19.3513   22.7385 C   0  0  0  0  0  0  0  0  0  0  0  0
    9.8024  -18.4479   23.7789 C   0  0  1  0  0  0  0  0  0  0  0  0
   11.1552  -18.2986   23.3622 O   0  0  0  0  0  0  0  0  0  0  0  0
    9.2078  -17.0518   23.7701 C   0  0  2  0  0  0  0  0  0  0  0  0
    9.3168  -16.4714   22.4381 N   0  0  0  0  0  0  0  0  0  0  0  0
    9.8708  -16.1278   24.7163 C   0  0  0  0  0  0  0  0  0  0  0  0
   10.3342  -15.0358   24.2432 O   0  0  0  0  0  0  0  0  0  0  0  0
    6.9402  -12.1226   25.9355 C   0  0  0  0  0  0  0  0  0  0  0  0
    7.3880  -12.2086   27.6891 S   0  0  0  0  0  0  0  0  0  0  0  0
    8.8847  -13.2165   27.8883 C   0  0  0  0  0  0  0  0  0  0  0  0
    8.8378  -14.3449   26.8949 C   0  0  0  0  0  0  0  0  0  0  0  0
   10.0864  -15.2025   27.0164 C   0  0  2  0  0  0  0  0  0  0  0  0
   10.0467  -16.3216   26.0926 N   0  0  0  0  0  0  0  0  0  0  0  0
   10.2492  -15.6541   28.4155 C   0  0  0  0  0  0  0  0  0  0  0  0
   10.1253  -16.9830   28.7493 O   0  0  0  0  0  0  0  0  0  0  0  0
   10.5026  -14.8216   29.3089 O   0  0  0  0  0  0  0  0  0  0  0  0
  2  1  1  0
  3  5  1  0
  3  2  1  0
  3  4  1  1
  5  6  1  6
  7  5  1  0
  7  8  2  0
 10  9  1  6
 10 12  1  0
 11 10  1  0
 12 13  1  6
 13  7  1  0
 14 12  1  0
 15 14  2  0
 16 17  1  0
 18 19  1  0
 18 17  1  0
 20 19  1  1
 20 21  1  0
 20 22  1  0
 21 14  1  0
 22 23  1  0
 24 22  2  0
M  END
$$$$
