HHK.pdb
     RDKit          3D

 30 31  0  0  1  0  0  0  0  0999 V2000
   26.7986  -20.6690  -13.0490 N   0  0  0  0  0  0  0  0  0  0  0  0
   26.0875  -21.0876  -11.8807 C   0  0  1  0  0  0  0  0  0  0  0  0
   26.7467  -20.4666  -10.6687 C   0  0  0  0  0  0  0  0  0  0  0  0
   28.1825  -20.7612  -10.6123 C   0  0  0  0  0  0  0  0  0  0  0  0
   28.9274  -21.4931  -11.5169 C   0  0  0  0  0  0  0  0  0  0  0  0
   30.2101  -21.5383  -11.1148 N   0  0  0  0  0  0  0  0  0  0  0  0
   30.2933  -20.8477   -9.9700 C   0  0  0  0  0  0  0  0  0  0  0  0
   29.0612  -20.3694   -9.6548 N   0  0  0  0  0  0  0  0  0  0  0  0
   24.6519  -20.6253  -11.8912 C   0  0  0  0  0  0  0  0  0  0  0  0
   24.0853  -20.4908  -10.7922 O   0  0  0  0  0  0  0  0  0  0  0  0
   23.9695  -20.3545  -13.0699 N   0  0  0  0  0  0  0  0  0  0  0  0
   22.6356  -19.9711  -13.3351 C   0  0  1  0  0  0  0  0  0  0  0  0
   22.4011  -19.0842  -14.5324 C   0  0  0  0  0  0  0  0  0  0  0  0
   21.0418  -18.5244  -14.5968 C   0  0  0  0  0  0  0  0  0  0  0  0
   20.0349  -18.7202  -13.6803 C   0  0  0  0  0  0  0  0  0  0  0  0
   18.9175  -18.1097  -14.1162 N   0  0  0  0  0  0  0  0  0  0  0  0
   19.1967  -17.5299  -15.2927 C   0  0  0  0  0  0  0  0  0  0  0  0
   20.4978  -17.7919  -15.5730 N   0  0  0  0  0  0  0  0  0  0  0  0
   21.6087  -20.9975  -13.2240 C   0  0  0  0  0  0  0  0  0  0  0  0
   21.6196  -22.0548  -13.9426 O   0  0  0  0  0  0  0  0  0  0  0  0
   20.5287  -20.8970  -12.3120 N   0  0  0  0  0  0  0  0  0  0  0  0
   19.5895  -21.9920  -12.0988 C   0  0  1  0  0  0  0  0  0  0  0  0
   19.5448  -22.3482  -10.6284 C   0  0  0  0  0  0  0  0  0  0  0  0
   18.5657  -23.4446  -10.3455 C   0  0  0  0  0  0  0  0  0  0  0  0
   18.6161  -23.7605   -8.8644 C   0  0  0  0  0  0  0  0  0  0  0  0
   17.6240  -24.8740   -8.5995 C   0  0  0  0  0  0  0  0  0  0  0  0
   17.5528  -25.1077   -7.1669 N   0  0  0  0  0  0  0  0  0  0  0  0
   18.2427  -21.4969  -12.4799 C   0  0  0  0  0  0  0  0  0  0  0  0
   17.6826  -20.3966  -11.8824 O   0  0  0  0  0  0  0  0  0  0  0  0
   17.5540  -22.0656  -13.3696 O   0  0  0  0  0  0  0  0  0  0  0  0
  2  1  1  6
  2  3  1  0
  3  4  1  0
  4  5  2  0
  4  8  1  0
  5  6  1  0
  6  7  1  0
  8  7  2  0
  9  2  1  0
  9 10  2  0
 11  9  1  0
 12 11  1  0
 12 13  1  6
 14 13  1  0
 14 15  2  0
 16 15  1  0
 17 16  1  0
 18 17  2  0
 18 14  1  0
 19 12  1  0
 20 19  2  0
 21 19  1  0
 22 21  1  0
 22 28  1  0
 22 23  1  1
 24 25  1  0
 24 23  1  0
 25 26  1  0
 27 26  1  0
 28 29  1  0
 30 28  2  0
M  END
$$$$
