HHK.pdb
     RDKit          3D

 30 31  0  0  1  0  0  0  0  0999 V2000
   24.6942  -22.3463  -18.7444 N   0  0  0  0  0  0  0  0  0  0  0  0
   24.4634  -20.9771  -18.4013 C   0  0  1  0  0  0  0  0  0  0  0  0
   23.9463  -20.2554  -19.6264 C   0  0  0  0  0  0  0  0  0  0  0  0
   24.9765  -20.1227  -20.6622 C   0  0  0  0  0  0  0  0  0  0  0  0
   26.3150  -20.4508  -20.5644 C   0  0  0  0  0  0  0  0  0  0  0  0
   26.9326  -20.1829  -21.7288 N   0  0  0  0  0  0  0  0  0  0  0  0
   26.0094  -19.6901  -22.5652 C   0  0  0  0  0  0  0  0  0  0  0  0
   24.8124  -19.6494  -21.9237 N   0  0  0  0  0  0  0  0  0  0  0  0
   23.4186  -20.8279  -17.3240 C   0  0  0  0  0  0  0  0  0  0  0  0
   22.3909  -21.5217  -17.4225 O   0  0  0  0  0  0  0  0  0  0  0  0
   23.5764  -19.9561  -16.2547 N   0  0  0  0  0  0  0  0  0  0  0  0
   22.7532  -19.6391  -15.1509 C   0  0  1  0  0  0  0  0  0  0  0  0
   23.4369  -19.4232  -13.8237 C   0  0  0  0  0  0  0  0  0  0  0  0
   24.1248  -20.6188  -13.3113 C   0  0  0  0  0  0  0  0  0  0  0  0
   24.1014  -21.8755  -13.8701 C   0  0  0  0  0  0  0  0  0  0  0  0
   24.7872  -22.7220  -13.0797 N   0  0  0  0  0  0  0  0  0  0  0  0
   25.2455  -22.0255  -12.0295 C   0  0  0  0  0  0  0  0  0  0  0  0
   24.8329  -20.7426  -12.1850 N   0  0  0  0  0  0  0  0  0  0  0  0
   21.6893  -18.6682  -15.3654 C   0  0  0  0  0  0  0  0  0  0  0  0
   21.8316  -17.6588  -16.1367 O   0  0  0  0  0  0  0  0  0  0  0  0
   20.4239  -18.7756  -14.7367 N   0  0  0  0  0  0  0  0  0  0  0  0
   19.3090  -17.9018  -15.0838 C   0  0  1  0  0  0  0  0  0  0  0  0
   18.8942  -18.1479  -16.5184 C   0  0  0  0  0  0  0  0  0  0  0  0
   17.7290  -17.2981  -16.9199 C   0  0  0  0  0  0  0  0  0  0  0  0
   17.3941  -17.5984  -18.3669 C   0  0  0  0  0  0  0  0  0  0  0  0
   16.2818  -16.6586  -18.7841 C   0  0  0  0  0  0  0  0  0  0  0  0
   16.0824  -16.7757  -20.2188 N   0  0  0  0  0  0  0  0  0  0  0  0
   18.1657  -18.2819  -14.2164 C   0  0  0  0  0  0  0  0  0  0  0  0
   17.2123  -17.3709  -13.8386 O   0  0  0  0  0  0  0  0  0  0  0  0
   18.0202  -19.4588  -13.7884 O   0  0  0  0  0  0  0  0  0  0  0  0
  2  1  1  6
  2  3  1  0
  3  4  1  0
  4  5  2  0
  4  8  1  0
  5  6  1  0
  6  7  1  0
  8  7  2  0
  9  2  1  0
  9 10  2  0
 11  9  1  0
 12 11  1  0
 12 13  1  1
 14 13  1  0
 14 15  2  0
 16 15  1  0
 17 16  1  0
 18 17  2  0
 18 14  1  0
 19 12  1  0
 20 19  2  0
 21 19  1  0
 22 21  1  0
 22 28  1  0
 22 23  1  6
 24 25  1  0
 24 23  1  0
 25 26  1  0
 27 26  1  0
 28 29  1  0
 30 28  2  0
M  END
$$$$
