HHK.pdb
     RDKit          3D

 30 31  0  0  1  0  0  0  0  0999 V2000
   25.0692  -14.2045  -19.2800 N   0  0  0  0  0  0  0  0  0  0  0  0
   24.7710  -12.8594  -19.6643 C   0  0  1  0  0  0  0  0  0  0  0  0
   24.7651  -12.7816  -21.1753 C   0  0  0  0  0  0  0  0  0  0  0  0
   26.0900  -13.0498  -21.7449 C   0  0  0  0  0  0  0  0  0  0  0  0
   26.9045  -14.1395  -21.5039 C   0  0  0  0  0  0  0  0  0  0  0  0
   28.0402  -14.0213  -22.2148 N   0  0  0  0  0  0  0  0  0  0  0  0
   27.9615  -12.8750  -22.9035 C   0  0  0  0  0  0  0  0  0  0  0  0
   26.7752  -12.2748  -22.6236 N   0  0  0  0  0  0  0  0  0  0  0  0
   23.4077  -12.4205  -19.1917 C   0  0  0  0  0  0  0  0  0  0  0  0
   22.4226  -13.0418  -19.6283 O   0  0  0  0  0  0  0  0  0  0  0  0
   23.2352  -11.3667  -18.3041 N   0  0  0  0  0  0  0  0  0  0  0  0
   22.1189  -10.9112  -17.5671 C   0  0  1  0  0  0  0  0  0  0  0  0
   21.5215  -11.8670  -16.5646 C   0  0  0  0  0  0  0  0  0  0  0  0
   20.2766  -11.3786  -15.9508 C   0  0  0  0  0  0  0  0  0  0  0  0
   19.6750  -10.1635  -16.1826 C   0  0  0  0  0  0  0  0  0  0  0  0
   18.5963  -10.0468  -15.3862 N   0  0  0  0  0  0  0  0  0  0  0  0
   18.5022  -11.1657  -14.6531 C   0  0  0  0  0  0  0  0  0  0  0  0
   19.5353  -11.9695  -15.0091 N   0  0  0  0  0  0  0  0  0  0  0  0
   22.1709   -9.5538  -17.0426 C   0  0  0  0  0  0  0  0  0  0  0  0
   23.1342   -9.1412  -16.3106 O   0  0  0  0  0  0  0  0  0  0  0  0
   21.1598   -8.5970  -17.3081 N   0  0  0  0  0  0  0  0  0  0  0  0
   21.2654   -7.2131  -16.8604 C   0  0  1  0  0  0  0  0  0  0  0  0
   20.2316   -6.3658  -17.5706 C   0  0  0  0  0  0  0  0  0  0  0  0
   20.3501   -4.9173  -17.2122 C   0  0  0  0  0  0  0  0  0  0  0  0
   19.3128   -4.1431  -18.0002 C   0  0  0  0  0  0  0  0  0  0  0  0
   19.4056   -2.6916  -17.5772 C   0  0  0  0  0  0  0  0  0  0  0  0
   18.4949   -1.9063  -18.3932 N   0  0  0  0  0  0  0  0  0  0  0  0
   20.9408   -7.1934  -15.4118 C   0  0  0  0  0  0  0  0  0  0  0  0
   21.4559   -6.2412  -14.5696 O   0  0  0  0  0  0  0  0  0  0  0  0
   20.1772   -8.0510  -14.8913 O   0  0  0  0  0  0  0  0  0  0  0  0
  2  1  1  6
  2  3  1  0
  3  4  1  0
  4  5  2  0
  4  8  1  0
  5  6  1  0
  6  7  1  0
  8  7  2  0
  9  2  1  0
  9 10  2  0
 11  9  1  0
 12 11  1  0
 12 13  1  1
 14 13  1  0
 14 15  2  0
 16 15  1  0
 17 16  1  0
 18 17  2  0
 18 14  1  0
 19 12  1  0
 20 19  2  0
 21 19  1  0
 22 21  1  0
 22 28  1  0
 22 23  1  6
 24 25  1  0
 24 23  1  0
 25 26  1  0
 27 26  1  0
 28 29  1  0
 30 28  2  0
M  END
$$$$
