HHK.pdb
     RDKit          3D

 30 31  0  0  1  0  0  0  0  0999 V2000
   29.9748  -32.5864  -16.7064 N   0  0  0  0  0  0  0  0  0  0  0  0
   30.0760  -31.2702  -17.2572 C   0  0  1  0  0  0  0  0  0  0  0  0
   30.3134  -31.3897  -18.7466 C   0  0  0  0  0  0  0  0  0  0  0  0
   31.6205  -31.9826  -19.0494 C   0  0  0  0  0  0  0  0  0  0  0  0
   32.8527  -31.5999  -18.5553 C   0  0  0  0  0  0  0  0  0  0  0  0
   33.8118  -32.3894  -19.0709 N   0  0  0  0  0  0  0  0  0  0  0  0
   33.2102  -33.2675  -19.8843 C   0  0  0  0  0  0  0  0  0  0  0  0
   31.8729  -33.0275  -19.8781 N   0  0  0  0  0  0  0  0  0  0  0  0
   28.8075  -30.4758  -17.0719 C   0  0  0  0  0  0  0  0  0  0  0  0
   27.7377  -31.1083  -17.0210 O   0  0  0  0  0  0  0  0  0  0  0  0
   28.8099  -29.0917  -16.9604 N   0  0  0  0  0  0  0  0  0  0  0  0
   27.7736  -28.1440  -16.8040 C   0  0  1  0  0  0  0  0  0  0  0  0
   28.1824  -26.7048  -16.6117 C   0  0  0  0  0  0  0  0  0  0  0  0
   27.0558  -25.8034  -16.3230 C   0  0  0  0  0  0  0  0  0  0  0  0
   25.7283  -26.1556  -16.2467 C   0  0  0  0  0  0  0  0  0  0  0  0
   24.9903  -25.0497  -16.0372 N   0  0  0  0  0  0  0  0  0  0  0  0
   25.8252  -24.0019  -15.9791 C   0  0  0  0  0  0  0  0  0  0  0  0
   27.0831  -24.4780  -16.1553 N   0  0  0  0  0  0  0  0  0  0  0  0
   26.6234  -28.2565  -17.6898 C   0  0  0  0  0  0  0  0  0  0  0  0
   26.7447  -28.3301  -18.9603 O   0  0  0  0  0  0  0  0  0  0  0  0
   25.2919  -28.2942  -17.2060 N   0  0  0  0  0  0  0  0  0  0  0  0
   24.1554  -28.5514  -18.0829 C   0  0  1  0  0  0  0  0  0  0  0  0
   23.0368  -29.1971  -17.2938 C   0  0  0  0  0  0  0  0  0  0  0  0
   23.1496  -30.6897  -17.2777 C   0  0  0  0  0  0  0  0  0  0  0  0
   22.0905  -31.2394  -16.3437 C   0  0  0  0  0  0  0  0  0  0  0  0
   22.2657  -32.7429  -16.2868 C   0  0  0  0  0  0  0  0  0  0  0  0
   21.3101  -33.2908  -15.3388 N   0  0  0  0  0  0  0  0  0  0  0  0
   23.6627  -27.2354  -18.5618 C   0  0  0  0  0  0  0  0  0  0  0  0
   24.1997  -26.0563  -18.1115 O   0  0  0  0  0  0  0  0  0  0  0  0
   22.7288  -27.1430  -19.4037 O   0  0  0  0  0  0  0  0  0  0  0  0
  2  1  1  6
  2  3  1  0
  3  4  1  0
  4  5  2  0
  4  8  1  0
  5  6  1  0
  6  7  1  0
  8  7  2  0
  9  2  1  0
  9 10  2  0
 11  9  1  0
 12 11  1  0
 12 13  1  6
 14 13  1  0
 14 15  2  0
 16 15  1  0
 17 16  1  0
 18 17  2  0
 18 14  1  0
 19 12  1  0
 20 19  2  0
 21 19  1  0
 22 21  1  0
 22 28  1  0
 22 23  1  1
 24 25  1  0
 24 23  1  0
 25 26  1  0
 27 26  1  0
 28 29  1  0
 30 28  2  0
M  END
$$$$
