HHK.pdb
     RDKit          3D

 30 31  0  0  1  0  0  0  0  0999 V2000
   19.6828  -10.8522  -17.2785 N   0  0  0  0  0  0  0  0  0  0  0  0
   20.7567  -10.1337  -16.6651 C   0  0  1  0  0  0  0  0  0  0  0  0
   21.7135   -9.6834  -17.7472 C   0  0  0  0  0  0  0  0  0  0  0  0
   22.3466  -10.8179  -18.4283 C   0  0  0  0  0  0  0  0  0  0  0  0
   22.1832  -12.1620  -18.1534 C   0  0  0  0  0  0  0  0  0  0  0  0
   22.9340  -12.8910  -18.9984 N   0  0  0  0  0  0  0  0  0  0  0  0
   23.5718  -12.0331  -19.8058 C   0  0  0  0  0  0  0  0  0  0  0  0
   23.2200  -10.7655  -19.4660 N   0  0  0  0  0  0  0  0  0  0  0  0
   20.2787   -8.8942  -15.9511 C   0  0  0  0  0  0  0  0  0  0  0  0
   19.3980   -8.2155  -16.5088 O   0  0  0  0  0  0  0  0  0  0  0  0
   20.7876   -8.5065  -14.7187 N   0  0  0  0  0  0  0  0  0  0  0  0
   20.5905   -7.3557  -13.9228 C   0  0  1  0  0  0  0  0  0  0  0  0
   20.4848   -7.5613  -12.4322 C   0  0  0  0  0  0  0  0  0  0  0  0
   19.2643   -8.2711  -12.0180 C   0  0  0  0  0  0  0  0  0  0  0  0
   18.2031   -8.6083  -12.8257 C   0  0  0  0  0  0  0  0  0  0  0  0
   17.2441   -9.1828  -12.0761 N   0  0  0  0  0  0  0  0  0  0  0  0
   17.6772   -9.2165  -10.8075 C   0  0  0  0  0  0  0  0  0  0  0  0
   18.9125   -8.6562  -10.7878 N   0  0  0  0  0  0  0  0  0  0  0  0
   21.3826   -6.1763  -14.2423 C   0  0  0  0  0  0  0  0  0  0  0  0
   22.6320   -6.1021  -13.9824 O   0  0  0  0  0  0  0  0  0  0  0  0
   20.8249   -5.0316  -14.8643 N   0  0  0  0  0  0  0  0  0  0  0  0
   21.6424   -3.8942  -15.2702 C   0  0  1  0  0  0  0  0  0  0  0  0
   21.6145   -3.7566  -16.7773 C   0  0  0  0  0  0  0  0  0  0  0  0
   22.3653   -2.5490  -17.2452 C   0  0  0  0  0  0  0  0  0  0  0  0
   22.2256   -2.4526  -18.7509 C   0  0  0  0  0  0  0  0  0  0  0  0
   22.9781   -1.2181  -19.2027 C   0  0  0  0  0  0  0  0  0  0  0  0
   22.7572   -1.0291  -20.6265 N   0  0  0  0  0  0  0  0  0  0  0  0
   21.0158   -2.6757  -14.6985 C   0  0  0  0  0  0  0  0  0  0  0  0
   21.7367   -1.5304  -14.4751 O   0  0  0  0  0  0  0  0  0  0  0  0
   19.7932   -2.6396  -14.3929 O   0  0  0  0  0  0  0  0  0  0  0  0
  2  1  1  6
  2  3  1  0
  3  4  1  0
  4  5  2  0
  4  8  1  0
  5  6  1  0
  6  7  1  0
  8  7  2  0
  9  2  1  0
  9 10  2  0
 11  9  1  0
 12 11  1  0
 12 13  1  1
 14 13  1  0
 14 15  2  0
 16 15  1  0
 17 16  1  0
 18 17  2  0
 18 14  1  0
 19 12  1  0
 20 19  2  0
 21 19  1  0
 22 21  1  0
 22 28  1  0
 22 23  1  6
 24 25  1  0
 24 23  1  0
 25 26  1  0
 27 26  1  0
 28 29  1  0
 30 28  2  0
M  END
$$$$
