QFL.pdb
     RDKit          3D

 29 29  0  0  1  0  0  0  0  0999 V2000
   28.4037  -21.3214  -19.4788 N   0  0  0  0  0  0  0  0  0  0  0  0
   28.3667  -20.5052  -18.3024 C   0  0  0  0  0  0  0  0  0  0  0  0
   29.4313  -20.4013  -17.6130 O   0  0  0  0  0  0  0  0  0  0  0  0
   27.1131  -19.8101  -17.9176 C   0  0  0  0  0  0  0  0  0  0  0  0
   26.2253  -20.7680  -17.1818 C   0  0  0  0  0  0  0  0  0  0  0  0
   27.0327  -21.6180  -16.2359 C   0  0  2  0  0  0  0  0  0  0  0  0
   27.2866  -22.9446  -16.7450 N   0  0  0  0  0  0  0  0  0  0  0  0
   26.3567  -21.7251  -14.9196 C   0  0  0  0  0  0  0  0  0  0  0  0
   25.3117  -22.4102  -14.7884 O   0  0  0  0  0  0  0  0  0  0  0  0
   26.8442  -21.0713  -13.7564 N   0  0  0  0  0  0  0  0  0  0  0  0
   26.1584  -21.1294  -12.4657 C   0  0  1  0  0  0  0  0  0  0  0  0
   27.1138  -20.7688  -11.3777 C   0  0  0  0  0  0  0  0  0  0  0  0
   26.4795  -20.5959  -10.0484 C   0  0  0  0  0  0  0  0  0  0  0  0
   26.2678  -19.3233   -9.5050 C   0  0  0  0  0  0  0  0  0  0  0  0
   25.6776  -19.1481   -8.2740 C   0  0  0  0  0  0  0  0  0  0  0  0
   25.2690  -20.2280   -7.5229 C   0  0  0  0  0  0  0  0  0  0  0  0
   25.4663  -21.4852   -8.0351 C   0  0  0  0  0  0  0  0  0  0  0  0
   26.0530  -21.6387   -9.2573 C   0  0  0  0  0  0  0  0  0  0  0  0
   24.9011  -20.3888  -12.4971 C   0  0  0  0  0  0  0  0  0  0  0  0
   24.9170  -19.2067  -12.9269 O   0  0  0  0  0  0  0  0  0  0  0  0
   21.3776  -18.2898  -14.8846 C   0  0  0  0  0  0  0  0  0  0  0  0
   20.9858  -19.7182  -14.5246 C   0  0  1  0  0  0  0  0  0  0  0  0
   20.5828  -20.3973  -15.8219 C   0  0  0  0  0  0  0  0  0  0  0  0
   22.2487  -20.3988  -14.0425 C   0  0  0  0  0  0  0  0  0  0  0  0
   22.4234  -20.3193  -12.5530 C   0  0  2  0  0  0  0  0  0  0  0  0
   23.6451  -20.8953  -12.0784 N   0  0  0  0  0  0  0  0  0  0  0  0
   21.2230  -20.9497  -11.9339 C   0  0  0  0  0  0  0  0  0  0  0  0
   21.1734  -22.1584  -11.6212 O   0  0  0  0  0  0  0  0  0  0  0  0
   20.1265  -20.1501  -11.7025 O   0  0  0  0  0  0  0  0  0  0  0  0
  2  1  1  0
  2  3  2  0
  4  2  1  0
  5  4  1  0
  6  7  1  6
  6  5  1  0
  8  6  1  0
  8 10  1  0
  9  8  2  0
 11 10  1  0
 12 13  1  0
 11 12  1  1
 13 18  2  0
 14 13  1  0
 14 15  2  0
 15 16  1  0
 16 17  2  0
 18 17  1  0
 19 11  1  0
 20 19  2  0
 22 21  1  6
 22 24  1  0
 23 22  1  0
 25 24  1  6
 25 26  1  0
 25 27  1  0
 26 19  1  0
 27 29  1  0
 28 27  2  0
M  END
$$$$
