QFL.pdb
     RDKit          3D

 29 29  0  0  1  0  0  0  0  0999 V2000
   27.6787  -17.4064  -14.2467 N   0  0  0  0  0  0  0  0  0  0  0  0
   27.3150  -18.1849  -15.3927 C   0  0  0  0  0  0  0  0  0  0  0  0
   27.6184  -17.7334  -16.5431 O   0  0  0  0  0  0  0  0  0  0  0  0
   26.6057  -19.4771  -15.2202 C   0  0  0  0  0  0  0  0  0  0  0  0
   26.4740  -19.7747  -13.7569 C   0  0  0  0  0  0  0  0  0  0  0  0
   27.7546  -20.3568  -13.2179 C   0  0  2  0  0  0  0  0  0  0  0  0
   28.2588  -21.4487  -14.0159 N   0  0  0  0  0  0  0  0  0  0  0  0
   27.5724  -20.8212  -11.8206 C   0  0  0  0  0  0  0  0  0  0  0  0
   26.9803  -21.9019  -11.5753 O   0  0  0  0  0  0  0  0  0  0  0  0
   28.0484  -20.0838  -10.7035 N   0  0  0  0  0  0  0  0  0  0  0  0
   27.6805  -20.4042   -9.3246 C   0  0  1  0  0  0  0  0  0  0  0  0
   28.6683  -19.7895   -8.3903 C   0  0  0  0  0  0  0  0  0  0  0  0
   28.3003  -19.9061   -6.9584 C   0  0  0  0  0  0  0  0  0  0  0  0
   27.6599  -18.8588   -6.2857 C   0  0  0  0  0  0  0  0  0  0  0  0
   27.3100  -18.9545   -4.9581 C   0  0  0  0  0  0  0  0  0  0  0  0
   27.5790  -20.0949   -4.2339 C   0  0  0  0  0  0  0  0  0  0  0  0
   28.2061  -21.1347   -4.8722 C   0  0  0  0  0  0  0  0  0  0  0  0
   28.5452  -21.0210   -6.1888 C   0  0  0  0  0  0  0  0  0  0  0  0
   26.2741  -20.1111   -9.0669 C   0  0  0  0  0  0  0  0  0  0  0  0
   25.9153  -18.9062   -9.0236 O   0  0  0  0  0  0  0  0  0  0  0  0
   24.2226  -20.5005  -11.5438 C   0  0  0  0  0  0  0  0  0  0  0  0
   22.9034  -20.2518  -10.8218 C   0  0  1  0  0  0  0  0  0  0  0  0
   21.8056  -20.7728  -11.7329 C   0  0  0  0  0  0  0  0  0  0  0  0
   22.9156  -21.1356   -9.5933 C   0  0  0  0  0  0  0  0  0  0  0  0
   23.9169  -20.6933   -8.5651 C   0  0  2  0  0  0  0  0  0  0  0  0
   25.2631  -21.0825   -8.8581 N   0  0  0  0  0  0  0  0  0  0  0  0
   23.4530  -21.2106   -7.2466 C   0  0  0  0  0  0  0  0  0  0  0  0
   22.3663  -20.8768   -6.7281 O   0  0  0  0  0  0  0  0  0  0  0  0
   24.2709  -22.0963   -6.5817 O   0  0  0  0  0  0  0  0  0  0  0  0
  2  1  1  0
  2  3  2  0
  4  2  1  0
  5  4  1  0
  6  7  1  6
  6  5  1  0
  8  6  1  0
  8 10  1  0
  9  8  2  0
 11 10  1  0
 12 13  1  0
 11 12  1  1
 13 18  2  0
 14 13  1  0
 14 15  2  0
 15 16  1  0
 16 17  2  0
 18 17  1  0
 19 11  1  0
 20 19  2  0
 22 21  1  6
 22 24  1  0
 23 22  1  0
 25 24  1  6
 25 26  1  0
 25 27  1  0
 26 19  1  0
 27 29  1  0
 28 27  2  0
M  END
$$$$
