QFL.pdb
     RDKit          3D

 29 29  0  0  1  0  0  0  0  0999 V2000
   26.0732  -16.3609  -17.8142 N   0  0  0  0  0  0  0  0  0  0  0  0
   25.9934  -16.6231  -19.2200 C   0  0  0  0  0  0  0  0  0  0  0  0
   26.4122  -15.7267  -20.0202 O   0  0  0  0  0  0  0  0  0  0  0  0
   25.4352  -17.9093  -19.7069 C   0  0  0  0  0  0  0  0  0  0  0  0
   25.0578  -18.7586  -18.5308 C   0  0  0  0  0  0  0  0  0  0  0  0
   26.2886  -19.3058  -17.8565 C   0  0  2  0  0  0  0  0  0  0  0  0
   27.0554  -20.1844  -18.7070 N   0  0  0  0  0  0  0  0  0  0  0  0
   25.9275  -20.0290  -16.6124 C   0  0  0  0  0  0  0  0  0  0  0  0
   25.3631  -21.1504  -16.6623 O   0  0  0  0  0  0  0  0  0  0  0  0
   26.1949  -19.5036  -15.3198 N   0  0  0  0  0  0  0  0  0  0  0  0
   25.7714  -20.1693  -14.0881 C   0  0  1  0  0  0  0  0  0  0  0  0
   26.6505  -19.7386  -12.9619 C   0  0  0  0  0  0  0  0  0  0  0  0
   26.2307  -20.2532  -11.6360 C   0  0  0  0  0  0  0  0  0  0  0  0
   25.4225  -19.4913  -10.7840 C   0  0  0  0  0  0  0  0  0  0  0  0
   25.0231  -19.9576   -9.5523 C   0  0  0  0  0  0  0  0  0  0  0  0
   25.4067  -21.2032   -9.1067 C   0  0  0  0  0  0  0  0  0  0  0  0
   26.1990  -21.9681   -9.9245 C   0  0  0  0  0  0  0  0  0  0  0  0
   26.5848  -21.4885  -11.1422 C   0  0  0  0  0  0  0  0  0  0  0  0
   24.3335  -20.0341  -13.8772 C   0  0  0  0  0  0  0  0  0  0  0  0
   23.7967  -18.9245  -14.1283 O   0  0  0  0  0  0  0  0  0  0  0  0
   19.4618  -20.4212  -15.0873 C   0  0  0  0  0  0  0  0  0  0  0  0
   19.7776  -21.5570  -14.1210 C   0  0  1  0  0  0  0  0  0  0  0  0
   19.0986  -22.7980  -14.6738 C   0  0  0  0  0  0  0  0  0  0  0  0
   21.2700  -21.7918  -14.2111 C   0  0  0  0  0  0  0  0  0  0  0  0
   22.0615  -20.8647  -13.3339 C   0  0  2  0  0  0  0  0  0  0  0  0
   23.4776  -21.0615  -13.4067 N   0  0  0  0  0  0  0  0  0  0  0  0
   21.5399  -21.0180  -11.9461 C   0  0  0  0  0  0  0  0  0  0  0  0
   21.8751  -21.9564  -11.1923 O   0  0  0  0  0  0  0  0  0  0  0  0
   20.6485  -20.0739  -11.4885 O   0  0  0  0  0  0  0  0  0  0  0  0
  2  1  1  0
  2  3  2  0
  4  2  1  0
  5  4  1  0
  6  7  1  6
  6  5  1  0
  8  6  1  0
  8 10  1  0
  9  8  2  0
 11 10  1  0
 12 13  1  0
 11 12  1  1
 13 18  2  0
 14 13  1  0
 14 15  2  0
 15 16  1  0
 16 17  2  0
 18 17  1  0
 19 11  1  0
 20 19  2  0
 22 21  1  6
 22 24  1  0
 23 22  1  0
 25 24  1  6
 25 26  1  0
 25 27  1  0
 26 19  1  0
 27 29  1  0
 28 27  2  0
M  END
$$$$
