QFL.pdb
     RDKit          3D

 29 29  0  0  1  0  0  0  0  0999 V2000
   25.0952  -28.3777  -19.3906 N   0  0  0  0  0  0  0  0  0  0  0  0
   25.1519  -29.4185  -20.3729 C   0  0  0  0  0  0  0  0  0  0  0  0
   24.2388  -30.3048  -20.3583 O   0  0  0  0  0  0  0  0  0  0  0  0
   26.2520  -29.4432  -21.3688 C   0  0  0  0  0  0  0  0  0  0  0  0
   27.1934  -30.5609  -21.0346 C   0  0  0  0  0  0  0  0  0  0  0  0
   28.1722  -30.1292  -19.9741 C   0  0  2  0  0  0  0  0  0  0  0  0
   29.2905  -29.3874  -20.5057 N   0  0  0  0  0  0  0  0  0  0  0  0
   28.6821  -31.3021  -19.2221 C   0  0  0  0  0  0  0  0  0  0  0  0
   29.6645  -31.9598  -19.6472 O   0  0  0  0  0  0  0  0  0  0  0  0
   28.0986  -31.7384  -18.0024 N   0  0  0  0  0  0  0  0  0  0  0  0
   28.6397  -32.8452  -17.2138 C   0  0  1  0  0  0  0  0  0  0  0  0
   29.2700  -32.3099  -15.9718 C   0  0  0  0  0  0  0  0  0  0  0  0
   30.5805  -31.6520  -16.1937 C   0  0  0  0  0  0  0  0  0  0  0  0
   30.6726  -30.2723  -16.4117 C   0  0  0  0  0  0  0  0  0  0  0  0
   31.8821  -29.6483  -16.6160 C   0  0  0  0  0  0  0  0  0  0  0  0
   33.0590  -30.3641  -16.6138 C   0  0  0  0  0  0  0  0  0  0  0  0
   32.9935  -31.7178  -16.4021 C   0  0  0  0  0  0  0  0  0  0  0  0
   31.7850  -32.3184  -16.2014 C   0  0  0  0  0  0  0  0  0  0  0  0
   27.6518  -33.9046  -17.0355 C   0  0  0  0  0  0  0  0  0  0  0  0
   26.5371  -33.6017  -16.5374 O   0  0  0  0  0  0  0  0  0  0  0  0
   26.7512  -38.0241  -20.5381 C   0  0  0  0  0  0  0  0  0  0  0  0
   26.7295  -36.8020  -19.6274 C   0  0  1  0  0  0  0  0  0  0  0  0
   25.3700  -36.1497  -19.8094 C   0  0  0  0  0  0  0  0  0  0  0  0
   26.7826  -37.3258  -18.2085 C   0  0  0  0  0  0  0  0  0  0  0  0
   26.8045  -36.2302  -17.1815 C   0  0  2  0  0  0  0  0  0  0  0  0
   27.8440  -35.2661  -17.3806 N   0  0  0  0  0  0  0  0  0  0  0  0
   26.8863  -36.8815  -15.8434 C   0  0  0  0  0  0  0  0  0  0  0  0
   27.9236  -37.4313  -15.4157 O   0  0  0  0  0  0  0  0  0  0  0  0
   25.7583  -36.8684  -15.0542 O   0  0  0  0  0  0  0  0  0  0  0  0
  2  1  1  0
  2  3  2  0
  4  2  1  0
  5  4  1  0
  6  7  1  6
  6  5  1  0
  8  6  1  0
  8 10  1  0
  9  8  2  0
 11 10  1  0
 12 13  1  0
 11 12  1  1
 13 18  2  0
 14 13  1  0
 14 15  2  0
 15 16  1  0
 16 17  2  0
 18 17  1  0
 19 11  1  0
 20 19  2  0
 22 21  1  6
 22 24  1  0
 23 22  1  0
 25 24  1  6
 25 26  1  0
 25 27  1  0
 26 19  1  0
 27 29  1  0
 28 27  2  0
M  END
$$$$
