QFL.pdb
     RDKit          3D

 29 29  0  0  1  0  0  0  0  0999 V2000
   29.3222  -22.5085  -19.8987 N   0  0  0  0  0  0  0  0  0  0  0  0
   28.0838  -21.8464  -19.6172 C   0  0  0  0  0  0  0  0  0  0  0  0
   27.0269  -22.2971  -20.1640 O   0  0  0  0  0  0  0  0  0  0  0  0
   28.0573  -20.6709  -18.7114 C   0  0  0  0  0  0  0  0  0  0  0  0
   27.1355  -20.9547  -17.5639 C   0  0  0  0  0  0  0  0  0  0  0  0
   27.8877  -21.5949  -16.4266 C   0  0  2  0  0  0  0  0  0  0  0  0
   28.3476  -22.9283  -16.7331 N   0  0  0  0  0  0  0  0  0  0  0  0
   27.0498  -21.6405  -15.2031 C   0  0  0  0  0  0  0  0  0  0  0  0
   25.9372  -22.2241  -15.2082 O   0  0  0  0  0  0  0  0  0  0  0  0
   27.4514  -21.0380  -13.9808 N   0  0  0  0  0  0  0  0  0  0  0  0
   26.6111  -21.0327  -12.7835 C   0  0  1  0  0  0  0  0  0  0  0  0
   27.4404  -20.6779  -11.5949 C   0  0  0  0  0  0  0  0  0  0  0  0
   26.6724  -20.5752  -10.3304 C   0  0  0  0  0  0  0  0  0  0  0  0
   26.3153  -21.7167   -9.6031 C   0  0  0  0  0  0  0  0  0  0  0  0
   25.6054  -21.6359   -8.4268 C   0  0  0  0  0  0  0  0  0  0  0  0
   25.2156  -20.4177   -7.9156 C   0  0  0  0  0  0  0  0  0  0  0  0
   25.5543  -19.2850   -8.6111 C   0  0  0  0  0  0  0  0  0  0  0  0
   26.2584  -19.3853   -9.7755 C   0  0  0  0  0  0  0  0  0  0  0  0
   25.3989  -20.2458  -12.9874 C   0  0  0  0  0  0  0  0  0  0  0  0
   25.4751  -19.2068  -13.6924 O   0  0  0  0  0  0  0  0  0  0  0  0
   20.4283  -21.0592  -14.9447 C   0  0  0  0  0  0  0  0  0  0  0  0
   21.5558  -20.0677  -15.2078 C   0  0  1  0  0  0  0  0  0  0  0  0
   21.1788  -18.7825  -14.4915 C   0  0  0  0  0  0  0  0  0  0  0  0
   22.7809  -20.6195  -14.5113 C   0  0  0  0  0  0  0  0  0  0  0  0
   22.9252  -20.1225  -13.1015 C   0  0  2  0  0  0  0  0  0  0  0  0
   24.1242  -20.5568  -12.4508 N   0  0  0  0  0  0  0  0  0  0  0  0
   21.6990  -20.5343  -12.3610 C   0  0  0  0  0  0  0  0  0  0  0  0
   20.8148  -19.7264  -12.0051 O   0  0  0  0  0  0  0  0  0  0  0  0
   21.5484  -21.8699  -12.0629 O   0  0  0  0  0  0  0  0  0  0  0  0
  2  1  1  0
  2  3  2  0
  4  2  1  0
  5  4  1  0
  6  7  1  6
  6  5  1  0
  8  6  1  0
  8 10  1  0
  9  8  2  0
 11 10  1  0
 12 13  1  0
 11 12  1  1
 13 18  2  0
 14 13  1  0
 14 15  2  0
 15 16  1  0
 16 17  2  0
 18 17  1  0
 19 11  1  0
 20 19  2  0
 22 21  1  1
 22 24  1  0
 23 22  1  0
 25 24  1  6
 25 26  1  0
 25 27  1  0
 26 19  1  0
 27 29  1  0
 28 27  2  0
M  END
$$$$
