QFL.pdb
     RDKit          3D

 29 29  0  0  1  0  0  0  0  0999 V2000
   25.9018  -21.5847  -19.1135 N   0  0  0  0  0  0  0  0  0  0  0  0
   27.0311  -22.2252  -19.7184 C   0  0  0  0  0  0  0  0  0  0  0  0
   27.2373  -22.0277  -20.9585 O   0  0  0  0  0  0  0  0  0  0  0  0
   27.9214  -23.0894  -18.9040 C   0  0  0  0  0  0  0  0  0  0  0  0
   27.3759  -23.1838  -17.5110 C   0  0  0  0  0  0  0  0  0  0  0  0
   27.5634  -21.8802  -16.7797 C   0  0  2  0  0  0  0  0  0  0  0  0
   28.9495  -21.5720  -16.5208 N   0  0  0  0  0  0  0  0  0  0  0  0
   26.8203  -21.8874  -15.4956 C   0  0  0  0  0  0  0  0  0  0  0  0
   26.5314  -22.9699  -14.9270 O   0  0  0  0  0  0  0  0  0  0  0  0
   26.4021  -20.6931  -14.8497 N   0  0  0  0  0  0  0  0  0  0  0  0
   25.6965  -20.6878  -13.5685 C   0  0  1  0  0  0  0  0  0  0  0  0
   26.3360  -19.6989  -12.6521 C   0  0  0  0  0  0  0  0  0  0  0  0
   26.7010  -20.2518  -11.3253 C   0  0  0  0  0  0  0  0  0  0  0  0
   25.8808  -20.0582  -10.2075 C   0  0  0  0  0  0  0  0  0  0  0  0
   26.2056  -20.5681   -8.9711 C   0  0  0  0  0  0  0  0  0  0  0  0
   27.3607  -21.2949   -8.7846 C   0  0  0  0  0  0  0  0  0  0  0  0
   28.1804  -21.4975   -9.8657 C   0  0  0  0  0  0  0  0  0  0  0  0
   27.8413  -20.9841  -11.0835 C   0  0  0  0  0  0  0  0  0  0  0  0
   24.2545  -20.5612  -13.7554 C   0  0  0  0  0  0  0  0  0  0  0  0
   23.8297  -19.6475  -14.5084 O   0  0  0  0  0  0  0  0  0  0  0  0
   20.7318  -24.4624  -14.8436 C   0  0  0  0  0  0  0  0  0  0  0  0
   21.5666  -23.1879  -14.7983 C   0  0  1  0  0  0  0  0  0  0  0  0
   21.2028  -22.3870  -16.0365 C   0  0  0  0  0  0  0  0  0  0  0  0
   21.0783  -22.3997  -13.6021 C   0  0  0  0  0  0  0  0  0  0  0  0
   21.8805  -21.1543  -13.3558 C   0  0  2  0  0  0  0  0  0  0  0  0
   23.2774  -21.3922  -13.1518 N   0  0  0  0  0  0  0  0  0  0  0  0
   21.2533  -20.4463  -12.2039 C   0  0  0  0  0  0  0  0  0  0  0  0
   21.8544  -20.2256  -11.1310 O   0  0  0  0  0  0  0  0  0  0  0  0
   19.9511  -20.0222  -12.3442 O   0  0  0  0  0  0  0  0  0  0  0  0
  2  1  1  0
  2  3  2  0
  4  2  1  0
  5  4  1  0
  6  7  1  1
  6  5  1  0
  8  6  1  0
  8 10  1  0
  9  8  2  0
 11 10  1  0
 12 13  1  0
 11 12  1  1
 13 18  2  0
 14 13  1  0
 14 15  2  0
 15 16  1  0
 16 17  2  0
 18 17  1  0
 19 11  1  0
 20 19  2  0
 22 21  1  6
 22 24  1  0
 23 22  1  0
 25 24  1  1
 25 26  1  0
 25 27  1  0
 26 19  1  0
 27 29  1  0
 28 27  2  0
M  END
$$$$
