QFL.pdb
     RDKit          3D

 29 29  0  0  1  0  0  0  0  0999 V2000
   23.8669  -19.8050  -16.5328 N   0  0  0  0  0  0  0  0  0  0  0  0
   25.2704  -19.7464  -16.2530 C   0  0  0  0  0  0  0  0  0  0  0  0
   25.8477  -18.6146  -16.3247 O   0  0  0  0  0  0  0  0  0  0  0  0
   26.0098  -20.9816  -15.8922 C   0  0  0  0  0  0  0  0  0  0  0  0
   26.5882  -20.8253  -14.5181 C   0  0  0  0  0  0  0  0  0  0  0  0
   25.5560  -21.1485  -13.4695 C   0  0  2  0  0  0  0  0  0  0  0  0
   24.4951  -20.1723  -13.4014 N   0  0  0  0  0  0  0  0  0  0  0  0
   26.1873  -21.2725  -12.1327 C   0  0  0  0  0  0  0  0  0  0  0  0
   27.1502  -22.0582  -11.9477 O   0  0  0  0  0  0  0  0  0  0  0  0
   25.7464  -20.5239  -11.0086 N   0  0  0  0  0  0  0  0  0  0  0  0
   26.3433  -20.6591   -9.6800 C   0  0  1  0  0  0  0  0  0  0  0  0
   27.1334  -19.4337   -9.3624 C   0  0  0  0  0  0  0  0  0  0  0  0
   27.8727  -19.5066   -8.0789 C   0  0  0  0  0  0  0  0  0  0  0  0
   27.5551  -18.6617   -7.0090 C   0  0  0  0  0  0  0  0  0  0  0  0
   28.2308  -18.7205   -5.8115 C   0  0  0  0  0  0  0  0  0  0  0  0
   29.2548  -19.6213   -5.6181 C   0  0  0  0  0  0  0  0  0  0  0  0
   29.5840  -20.4597   -6.6527 C   0  0  0  0  0  0  0  0  0  0  0  0
   28.9025  -20.3864   -7.8324 C   0  0  0  0  0  0  0  0  0  0  0  0
   25.3516  -21.0666   -8.6898 C   0  0  0  0  0  0  0  0  0  0  0  0
   24.2812  -20.4101   -8.6140 O   0  0  0  0  0  0  0  0  0  0  0  0
   24.4411  -21.9642   -3.9769 C   0  0  0  0  0  0  0  0  0  0  0  0
   25.5031  -20.8952   -4.2069 C   0  0  1  0  0  0  0  0  0  0  0  0
   26.6971  -21.2788   -3.3501 C   0  0  0  0  0  0  0  0  0  0  0  0
   25.9348  -21.0260   -5.6515 C   0  0  0  0  0  0  0  0  0  0  0  0
   25.1197  -22.0289   -6.4166 C   0  0  2  0  0  0  0  0  0  0  0  0
   25.4936  -22.1550   -7.7927 N   0  0  0  0  0  0  0  0  0  0  0  0
   23.6874  -21.6507   -6.2521 C   0  0  0  0  0  0  0  0  0  0  0  0
   22.8475  -22.3896   -5.6956 O   0  0  0  0  0  0  0  0  0  0  0  0
   23.2872  -20.4277   -6.7413 O   0  0  0  0  0  0  0  0  0  0  0  0
  2  1  1  0
  2  3  2  0
  4  2  1  0
  5  4  1  0
  6  7  1  1
  6  5  1  0
  8  6  1  0
  8 10  1  0
  9  8  2  0
 11 10  1  0
 12 13  1  0
 11 12  1  1
 13 18  2  0
 14 13  1  0
 14 15  2  0
 15 16  1  0
 16 17  2  0
 18 17  1  0
 19 11  1  0
 20 19  2  0
 22 21  1  6
 22 24  1  0
 23 22  1  0
 25 24  1  6
 25 26  1  0
 25 27  1  0
 26 19  1  0
 27 29  1  0
 28 27  2  0
M  END
$$$$
