QFL.pdb
     RDKit          3D

 29 29  0  0  1  0  0  0  0  0999 V2000
   27.5921  -17.1539  -14.4852 N   0  0  0  0  0  0  0  0  0  0  0  0
   27.5881  -18.4835  -15.0177 C   0  0  0  0  0  0  0  0  0  0  0  0
   28.6627  -18.9217  -15.5397 O   0  0  0  0  0  0  0  0  0  0  0  0
   26.3559  -19.3081  -14.9519 C   0  0  0  0  0  0  0  0  0  0  0  0
   26.0815  -19.6698  -13.5233 C   0  0  0  0  0  0  0  0  0  0  0  0
   27.0459  -20.7258  -13.0501 C   0  0  2  0  0  0  0  0  0  0  0  0
   26.9695  -21.9456  -13.8178 N   0  0  0  0  0  0  0  0  0  0  0  0
   26.8191  -21.0394  -11.6178 C   0  0  0  0  0  0  0  0  0  0  0  0
   25.9686  -21.8986  -11.2756 O   0  0  0  0  0  0  0  0  0  0  0  0
   27.5374  -20.3978  -10.5734 N   0  0  0  0  0  0  0  0  0  0  0  0
   27.2600  -20.6336   -9.1567 C   0  0  1  0  0  0  0  0  0  0  0  0
   28.4301  -20.1957   -8.3409 C   0  0  0  0  0  0  0  0  0  0  0  0
   28.1644  -20.1410   -6.8829 C   0  0  0  0  0  0  0  0  0  0  0  0
   27.5551  -19.0249   -6.2973 C   0  0  0  0  0  0  0  0  0  0  0  0
   27.2999  -18.9619   -4.9464 C   0  0  0  0  0  0  0  0  0  0  0  0
   27.6372  -20.0041   -4.1113 C   0  0  0  0  0  0  0  0  0  0  0  0
   28.2354  -21.1085   -4.6626 C   0  0  0  0  0  0  0  0  0  0  0  0
   28.4803  -21.1524   -6.0042 C   0  0  0  0  0  0  0  0  0  0  0  0
   25.9608  -20.0916   -8.7712 C   0  0  0  0  0  0  0  0  0  0  0  0
   25.6610  -18.9324   -9.1572 O   0  0  0  0  0  0  0  0  0  0  0  0
   21.4240  -19.3582  -10.2254 C   0  0  0  0  0  0  0  0  0  0  0  0
   21.6741  -20.8108   -9.8370 C   0  0  1  0  0  0  0  0  0  0  0  0
   21.3195  -21.6515  -11.0512 C   0  0  0  0  0  0  0  0  0  0  0  0
   23.1668  -20.9456   -9.6261 C   0  0  0  0  0  0  0  0  0  0  0  0
   23.5939  -20.5935   -8.2300 C   0  0  2  0  0  0  0  0  0  0  0  0
   24.9937  -20.7697   -7.9874 N   0  0  0  0  0  0  0  0  0  0  0  0
   22.7528  -21.3947   -7.2962 C   0  0  0  0  0  0  0  0  0  0  0  0
   23.1545  -22.4424   -6.7463 O   0  0  0  0  0  0  0  0  0  0  0  0
   21.4770  -20.9467   -7.0377 O   0  0  0  0  0  0  0  0  0  0  0  0
  2  1  1  0
  2  3  2  0
  4  2  1  0
  5  4  1  0
  6  7  1  6
  6  5  1  0
  8  6  1  0
  8 10  1  0
  9  8  2  0
 11 10  1  0
 12 13  1  0
 11 12  1  1
 13 18  2  0
 14 13  1  0
 14 15  2  0
 15 16  1  0
 16 17  2  0
 18 17  1  0
 19 11  1  0
 20 19  2  0
 22 21  1  6
 22 24  1  0
 23 22  1  0
 25 24  1  6
 25 26  1  0
 25 27  1  0
 26 19  1  0
 27 29  1  0
 28 27  2  0
M  END
$$$$
