QFL.pdb
     RDKit          3D

 29 29  0  0  1  0  0  0  0  0999 V2000
   25.1797  -19.2278  -19.1644 N   0  0  0  0  0  0  0  0  0  0  0  0
   26.2716  -19.1061  -20.0832 C   0  0  0  0  0  0  0  0  0  0  0  0
   26.0053  -19.0707  -21.3271 O   0  0  0  0  0  0  0  0  0  0  0  0
   27.6647  -19.0254  -19.5775 C   0  0  0  0  0  0  0  0  0  0  0  0
   27.6418  -18.9644  -18.0800 C   0  0  0  0  0  0  0  0  0  0  0  0
   28.1932  -20.2360  -17.4899 C   0  0  2  0  0  0  0  0  0  0  0  0
   28.2618  -21.3178  -18.4430 N   0  0  0  0  0  0  0  0  0  0  0  0
   27.3834  -20.6677  -16.3241 C   0  0  0  0  0  0  0  0  0  0  0  0
   26.4341  -21.4783  -16.4665 O   0  0  0  0  0  0  0  0  0  0  0  0
   27.6317  -20.1972  -15.0068 N   0  0  0  0  0  0  0  0  0  0  0  0
   26.7721  -20.5265  -13.8700 C   0  0  1  0  0  0  0  0  0  0  0  0
   27.4816  -20.2003  -12.5985 C   0  0  0  0  0  0  0  0  0  0  0  0
   26.6647  -20.4111  -11.3788 C   0  0  0  0  0  0  0  0  0  0  0  0
   26.3985  -19.3606  -10.4928 C   0  0  0  0  0  0  0  0  0  0  0  0
   25.6397  -19.5413   -9.3589 C   0  0  0  0  0  0  0  0  0  0  0  0
   25.1082  -20.7739   -9.0498 C   0  0  0  0  0  0  0  0  0  0  0  0
   25.3558  -21.8186   -9.9036 C   0  0  0  0  0  0  0  0  0  0  0  0
   26.1104  -21.6198  -11.0228 C   0  0  0  0  0  0  0  0  0  0  0  0
   25.4363  -19.9610  -14.0314 C   0  0  0  0  0  0  0  0  0  0  0  0
   25.3212  -18.8740  -14.6539 O   0  0  0  0  0  0  0  0  0  0  0  0
   20.3414  -20.8065  -15.5063 C   0  0  0  0  0  0  0  0  0  0  0  0
   21.3579  -19.7346  -15.8822 C   0  0  1  0  0  0  0  0  0  0  0  0
   21.0490  -18.5228  -15.0203 C   0  0  0  0  0  0  0  0  0  0  0  0
   22.7097  -20.2559  -15.4448 C   0  0  0  0  0  0  0  0  0  0  0  0
   22.9600  -20.0706  -13.9756 C   0  0  2  0  0  0  0  0  0  0  0  0
   24.2399  -20.5405  -13.5391 N   0  0  0  0  0  0  0  0  0  0  0  0
   21.8377  -20.7308  -13.2503 C   0  0  0  0  0  0  0  0  0  0  0  0
   21.7406  -21.9707  -13.1296 O   0  0  0  0  0  0  0  0  0  0  0  0
   20.8716  -19.9236  -12.6932 O   0  0  0  0  0  0  0  0  0  0  0  0
  2  1  1  0
  2  3  2  0
  4  2  1  0
  5  4  1  0
  6  7  1  6
  6  5  1  0
  8  6  1  0
  8 10  1  0
  9  8  2  0
 11 10  1  0
 12 13  1  0
 11 12  1  1
 13 18  2  0
 14 13  1  0
 14 15  2  0
 15 16  1  0
 16 17  2  0
 18 17  1  0
 19 11  1  0
 20 19  2  0
 22 21  1  1
 22 24  1  0
 23 22  1  0
 25 24  1  6
 25 26  1  0
 25 27  1  0
 26 19  1  0
 27 29  1  0
 28 27  2  0
M  END
$$$$
