PNL.pdb
     RDKit          3D

 24 24  0  0  1  0  0  0  0  0999 V2000
    8.9041  -14.9859   19.2623 N   0  0  0  0  0  0  0  0  0  0  0  0
    8.9725  -14.2502   17.9768 C   0  0  0  0  0  0  0  0  0  0  0  0
    7.6194  -13.5718   18.0254 C   0  0  0  0  0  0  0  0  0  0  0  0
    7.5866  -13.0343   19.4351 C   0  0  0  0  0  0  0  0  0  0  0  0
    8.5180  -13.9183   20.1896 C   0  0  1  0  0  0  0  0  0  0  0  0
    7.9454  -14.5448   21.3925 C   0  0  0  0  0  0  0  0  0  0  0  0
    7.2876  -13.7951   22.1827 O   0  0  0  0  0  0  0  0  0  0  0  0
    5.9444  -17.4858   24.8095 N   0  0  0  0  0  0  0  0  0  0  0  0
    6.7031  -18.4221   24.0553 C   0  0  0  0  0  0  0  0  0  0  0  0
    6.5999  -19.6480   24.3127 O   0  0  0  0  0  0  0  0  0  0  0  0
    7.5866  -17.9250   22.9955 C   0  0  0  0  0  0  0  0  0  0  0  0
    7.4942  -16.4156   22.9188 C   0  0  2  0  0  0  0  0  0  0  0  0
    8.0943  -15.9131   21.6985 N   0  0  0  0  0  0  0  0  0  0  0  0
    8.2892  -15.8932   24.0712 C   0  0  0  0  0  0  0  0  0  0  0  0
    9.5353  -15.8902   23.9668 O   0  0  0  0  0  0  0  0  0  0  0  0
    5.7095  -12.3610   27.2134 C   0  0  0  0  0  0  0  0  0  0  0  0
    6.7990  -12.9165   26.2333 C   0  0  1  0  0  0  0  0  0  0  0  0
    7.4196  -11.6644   25.6711 C   0  0  0  0  0  0  0  0  0  0  0  0
    7.6878  -13.8022   27.0098 C   0  0  0  0  0  0  0  0  0  0  0  0
    8.5021  -14.7950   26.2803 C   0  0  2  0  0  0  0  0  0  0  0  0
    7.6520  -15.4227   25.2298 N   0  0  0  0  0  0  0  0  0  0  0  0
    9.0623  -15.9348   27.0120 C   0  0  0  0  0  0  0  0  0  0  0  0
    8.6804  -17.1144   26.8800 O   0  0  0  0  0  0  0  0  0  0  0  0
   10.1059  -15.7607   27.9437 O   0  0  0  0  0  0  0  0  0  0  0  0
  1  5  1  0
  1  2  1  0
  3  2  1  0
  4  5  1  0
  4  3  1  0
  6  7  2  0
  5  6  1  1
  8  9  1  0
  9 11  1  0
  9 10  2  0
 12 11  1  6
 12 14  1  0
 12 13  1  0
 13  6  1  0
 14 21  1  0
 15 14  2  0
 17 16  1  1
 17 18  1  0
 20 19  1  1
 19 17  1  0
 20 22  1  0
 21 20  1  0
 22 23  2  0
 22 24  1  0
M  END
$$$$
