PNL.pdb
     RDKit          3D

 24 24  0  0  1  0  0  0  0  0999 V2000
    8.9110  -14.7920   18.4759 N   0  0  0  0  0  0  0  0  0  0  0  0
    8.5676  -13.8963   17.3454 C   0  0  0  0  0  0  0  0  0  0  0  0
    7.2131  -13.4217   17.8286 C   0  0  0  0  0  0  0  0  0  0  0  0
    7.4955  -13.0776   19.2705 C   0  0  0  0  0  0  0  0  0  0  0  0
    8.6751  -13.9144   19.6260 C   0  0  1  0  0  0  0  0  0  0  0  0
    8.5020  -14.7615   20.8175 C   0  0  0  0  0  0  0  0  0  0  0  0
    7.5121  -14.5059   21.5751 O   0  0  0  0  0  0  0  0  0  0  0  0
    9.0027  -19.5685   21.2505 N   0  0  0  0  0  0  0  0  0  0  0  0
   10.0245  -18.5830   21.3272 C   0  0  0  0  0  0  0  0  0  0  0  0
   10.8460  -18.4732   20.3823 O   0  0  0  0  0  0  0  0  0  0  0  0
   10.0876  -17.7216   22.5124 C   0  0  0  0  0  0  0  0  0  0  0  0
    9.1146  -16.5713   22.3610 C   0  0  2  0  0  0  0  0  0  0  0  0
    9.3712  -15.8217   21.1468 N   0  0  0  0  0  0  0  0  0  0  0  0
    9.3620  -15.6643   23.5224 C   0  0  0  0  0  0  0  0  0  0  0  0
   10.4042  -14.9734   23.5115 O   0  0  0  0  0  0  0  0  0  0  0  0
    6.0957  -11.6844   26.1881 C   0  0  0  0  0  0  0  0  0  0  0  0
    7.4480  -12.4378   26.4329 C   0  0  1  0  0  0  0  0  0  0  0  0
    7.4042  -12.7431   27.9072 C   0  0  0  0  0  0  0  0  0  0  0  0
    7.4847  -13.5965   25.5199 C   0  0  0  0  0  0  0  0  0  0  0  0
    8.6419  -14.5113   25.5921 C   0  0  2  0  0  0  0  0  0  0  0  0
    8.4505  -15.5949   24.5873 N   0  0  0  0  0  0  0  0  0  0  0  0
    8.9075  -15.2288   26.8422 C   0  0  0  0  0  0  0  0  0  0  0  0
    9.6683  -14.8207   27.7419 O   0  0  0  0  0  0  0  0  0  0  0  0
    8.2964  -16.4698   27.1141 O   0  0  0  0  0  0  0  0  0  0  0  0
  1  5  1  0
  1  2  1  0
  3  2  1  0
  4  5  1  0
  4  3  1  0
  6  7  2  0
  5  6  1  1
  8  9  1  0
  9 11  1  0
  9 10  2  0
 12 11  1  1
 12 14  1  0
 12 13  1  0
 13  6  1  0
 14 21  1  0
 15 14  2  0
 17 16  1  6
 17 18  1  0
 20 19  1  1
 19 17  1  0
 20 22  1  0
 21 20  1  0
 22 23  2  0
 22 24  1  0
M  END
$$$$
