PNL.pdb
     RDKit          3D

 24 24  0  0  1  0  0  0  0  0999 V2000
    8.0129  -14.6514   18.8959 N   0  0  0  0  0  0  0  0  0  0  0  0
    7.9041  -13.4785   17.9955 C   0  0  0  0  0  0  0  0  0  0  0  0
    7.3040  -12.4901   18.9735 C   0  0  0  0  0  0  0  0  0  0  0  0
    8.1736  -12.6842   20.1914 C   0  0  0  0  0  0  0  0  0  0  0  0
    8.7019  -14.0696   20.0515 C   0  0  1  0  0  0  0  0  0  0  0  0
    8.4670  -14.9462   21.2107 C   0  0  0  0  0  0  0  0  0  0  0  0
    7.2727  -15.0365   21.6403 O   0  0  0  0  0  0  0  0  0  0  0  0
    8.6002  -19.3907   22.0060 N   0  0  0  0  0  0  0  0  0  0  0  0
    9.7720  -18.5858   21.9930 C   0  0  0  0  0  0  0  0  0  0  0  0
   10.5580  -18.6586   21.0149 O   0  0  0  0  0  0  0  0  0  0  0  0
   10.0274  -17.6918   23.1271 C   0  0  0  0  0  0  0  0  0  0  0  0
    9.1486  -16.4635   23.0180 C   0  0  2  0  0  0  0  0  0  0  0  0
    9.4909  -15.6736   21.8515 N   0  0  0  0  0  0  0  0  0  0  0  0
    9.4356  -15.6400   24.2314 C   0  0  0  0  0  0  0  0  0  0  0  0
   10.5889  -15.1742   24.3609 O   0  0  0  0  0  0  0  0  0  0  0  0
    5.6701  -12.3189   26.4191 C   0  0  0  0  0  0  0  0  0  0  0  0
    6.9967  -12.8694   25.7919 C   0  0  1  0  0  0  0  0  0  0  0  0
    7.7683  -11.6152   25.4752 C   0  0  0  0  0  0  0  0  0  0  0  0
    7.6056  -13.7890   26.7722 C   0  0  0  0  0  0  0  0  0  0  0  0
    8.7984  -14.5592   26.3662 C   0  0  2  0  0  0  0  0  0  0  0  0
    8.4392  -15.4011   25.1904 N   0  0  0  0  0  0  0  0  0  0  0  0
    9.3927  -15.5068   27.3134 C   0  0  0  0  0  0  0  0  0  0  0  0
   10.0758  -15.1795   28.3038 O   0  0  0  0  0  0  0  0  0  0  0  0
    9.2215  -16.8974   27.1571 O   0  0  0  0  0  0  0  0  0  0  0  0
  1  5  1  0
  1  2  1  0
  3  2  1  0
  4  5  1  0
  4  3  1  0
  6  7  2  0
  5  6  1  1
  8  9  1  0
  9 11  1  0
  9 10  2  0
 12 11  1  1
 12 14  1  0
 12 13  1  0
 13  6  1  0
 14 21  1  0
 15 14  2  0
 17 16  1  1
 17 18  1  0
 20 19  1  1
 19 17  1  0
 20 22  1  0
 21 20  1  0
 22 23  2  0
 22 24  1  0
M  END
$$$$
