PNL.pdb
     RDKit          3D

 24 24  0  0  1  0  0  0  0  0999 V2000
    7.2291  -13.9915   20.7660 N   0  0  0  0  0  0  0  0  0  0  0  0
    6.6994  -13.2851   19.5748 C   0  0  0  0  0  0  0  0  0  0  0  0
    7.8078  -13.6152   18.5972 C   0  0  0  0  0  0  0  0  0  0  0  0
    7.9996  -15.0945   18.8258 C   0  0  0  0  0  0  0  0  0  0  0  0
    7.5131  -15.3200   20.2153 C   0  0  1  0  0  0  0  0  0  0  0  0
    8.4716  -15.9888   21.1104 C   0  0  0  0  0  0  0  0  0  0  0  0
    8.7684  -17.1979   20.8473 O   0  0  0  0  0  0  0  0  0  0  0  0
   12.9544  -17.3916   22.7229 N   0  0  0  0  0  0  0  0  0  0  0  0
   12.5630  -16.1266   23.2403 C   0  0  0  0  0  0  0  0  0  0  0  0
   13.1486  -15.6679   24.2534 O   0  0  0  0  0  0  0  0  0  0  0  0
   11.4830  -15.3935   22.5718 C   0  0  0  0  0  0  0  0  0  0  0  0
   10.1504  -16.0319   22.9029 C   0  0  2  0  0  0  0  0  0  0  0  0
    9.0610  -15.3572   22.2248 N   0  0  0  0  0  0  0  0  0  0  0  0
    9.9589  -15.8511   24.3737 C   0  0  0  0  0  0  0  0  0  0  0  0
   10.8570  -16.2724   25.1351 O   0  0  0  0  0  0  0  0  0  0  0  0
    5.9962  -12.4012   26.1706 C   0  0  0  0  0  0  0  0  0  0  0  0
    7.4016  -13.0221   25.8609 C   0  0  1  0  0  0  0  0  0  0  0  0
    8.3483  -11.8949   26.1802 C   0  0  0  0  0  0  0  0  0  0  0  0
    7.5366  -14.2472   26.6722 C   0  0  0  0  0  0  0  0  0  0  0  0
    8.6368  -15.1806   26.3572 C   0  0  2  0  0  0  0  0  0  0  0  0
    8.8066  -15.2282   24.8776 N   0  0  0  0  0  0  0  0  0  0  0  0
    8.5119  -16.5883   26.7458 C   0  0  0  0  0  0  0  0  0  0  0  0
    8.5661  -17.0033   27.9204 O   0  0  0  0  0  0  0  0  0  0  0  0
    8.3151  -17.5962   25.7800 O   0  0  0  0  0  0  0  0  0  0  0  0
  1  5  1  0
  1  2  1  0
  3  2  1  0
  4  5  1  0
  4  3  1  0
  6  7  2  0
  5  6  1  1
  8  9  1  0
  9 11  1  0
  9 10  2  0
 12 11  1  6
 12 14  1  0
 12 13  1  0
 13  6  1  0
 14 21  1  0
 15 14  2  0
 17 16  1  1
 17 18  1  0
 20 19  1  6
 19 17  1  0
 20 22  1  0
 21 20  1  0
 22 23  2  0
 22 24  1  0
M  END
$$$$
