PNL.pdb
     RDKit          3D

 24 24  0  0  1  0  0  0  0  0999 V2000
    8.9518  -14.6760   18.9429 N   0  0  0  0  0  0  0  0  0  0  0  0
    8.7844  -13.8836   17.7009 C   0  0  0  0  0  0  0  0  0  0  0  0
    7.3677  -13.3976   17.9249 C   0  0  0  0  0  0  0  0  0  0  0  0
    7.4179  -12.9301   19.3589 C   0  0  0  0  0  0  0  0  0  0  0  0
    8.5324  -13.7112   19.9636 C   0  0  1  0  0  0  0  0  0  0  0  0
    8.1798  -14.4602   21.1809 C   0  0  0  0  0  0  0  0  0  0  0  0
    7.2773  -13.9648   21.9287 O   0  0  0  0  0  0  0  0  0  0  0  0
   10.3577  -18.2503   20.8725 N   0  0  0  0  0  0  0  0  0  0  0  0
   10.1592  -17.8649   22.2265 C   0  0  0  0  0  0  0  0  0  0  0  0
   11.1557  -17.5840   22.9390 O   0  0  0  0  0  0  0  0  0  0  0  0
    8.7909  -17.8072   22.7511 C   0  0  0  0  0  0  0  0  0  0  0  0
    8.2871  -16.3798   22.7095 C   0  0  2  0  0  0  0  0  0  0  0  0
    8.7898  -15.6783   21.5446 N   0  0  0  0  0  0  0  0  0  0  0  0
    8.8414  -15.7096   23.9247 C   0  0  0  0  0  0  0  0  0  0  0  0
    9.9912  -15.2239   23.8497 O   0  0  0  0  0  0  0  0  0  0  0  0
    5.9584  -12.2848   26.8053 C   0  0  0  0  0  0  0  0  0  0  0  0
    7.1562  -12.9300   26.0272 C   0  0  1  0  0  0  0  0  0  0  0  0
    8.0746  -11.7604   25.7879 C   0  0  0  0  0  0  0  0  0  0  0  0
    7.6882  -14.0276   26.8577 C   0  0  0  0  0  0  0  0  0  0  0  0
    8.7021  -14.9257   26.2693 C   0  0  2  0  0  0  0  0  0  0  0  0
    8.0908  -15.6313   25.1080 N   0  0  0  0  0  0  0  0  0  0  0  0
    9.2598  -16.0060   27.0880 C   0  0  0  0  0  0  0  0  0  0  0  0
   10.0516  -15.8360   28.0360 O   0  0  0  0  0  0  0  0  0  0  0  0
    8.9222  -17.3531   26.8450 O   0  0  0  0  0  0  0  0  0  0  0  0
  1  5  1  0
  1  2  1  0
  3  2  1  0
  4  5  1  0
  4  3  1  0
  6  7  2  0
  5  6  1  1
  8  9  1  0
  9 11  1  0
  9 10  2  0
 12 11  1  6
 12 14  1  0
 12 13  1  0
 13  6  1  0
 14 21  1  0
 15 14  2  0
 17 16  1  1
 17 18  1  0
 20 19  1  1
 19 17  1  0
 20 22  1  0
 21 20  1  0
 22 23  2  0
 22 24  1  0
M  END
$$$$
