PNL.pdb
     RDKit          3D

 24 24  0  0  1  0  0  0  0  0999 V2000
    9.0068  -14.8892   18.7088 N   0  0  0  0  0  0  0  0  0  0  0  0
    8.9798  -14.1701   17.4124 C   0  0  0  0  0  0  0  0  0  0  0  0
    7.5445  -13.6882   17.4443 C   0  0  0  0  0  0  0  0  0  0  0  0
    7.4271  -13.1399   18.8453 C   0  0  0  0  0  0  0  0  0  0  0  0
    8.4683  -13.8730   19.6176 C   0  0  1  0  0  0  0  0  0  0  0  0
    7.9814  -14.5561   20.8275 C   0  0  0  0  0  0  0  0  0  0  0  0
    7.2853  -13.8708   21.6431 O   0  0  0  0  0  0  0  0  0  0  0  0
    6.0739  -17.8631   23.9838 N   0  0  0  0  0  0  0  0  0  0  0  0
    7.1223  -18.6197   23.3923 C   0  0  0  0  0  0  0  0  0  0  0  0
    7.2718  -19.8242   23.7184 O   0  0  0  0  0  0  0  0  0  0  0  0
    8.0002  -17.9669   22.4156 C   0  0  0  0  0  0  0  0  0  0  0  0
    7.6025  -16.5140   22.2614 C   0  0  2  0  0  0  0  0  0  0  0  0
    8.2505  -15.9102   21.1135 N   0  0  0  0  0  0  0  0  0  0  0  0
    8.0965  -15.8173   23.4876 C   0  0  0  0  0  0  0  0  0  0  0  0
    9.3198  -15.5699   23.5652 O   0  0  0  0  0  0  0  0  0  0  0  0
    8.0194  -11.5461   26.4144 C   0  0  0  0  0  0  0  0  0  0  0  0
    6.9185  -12.5401   26.9204 C   0  0  1  0  0  0  0  0  0  0  0  0
    5.7723  -11.6276   27.2701 C   0  0  0  0  0  0  0  0  0  0  0  0
    6.6761  -13.5220   25.8459 C   0  0  0  0  0  0  0  0  0  0  0  0
    7.7167  -14.5331   25.5703 C   0  0  2  0  0  0  0  0  0  0  0  0
    7.2112  -15.4552   24.5146 N   0  0  0  0  0  0  0  0  0  0  0  0
    8.1451  -15.4284   26.6487 C   0  0  0  0  0  0  0  0  0  0  0  0
    7.6098  -16.5236   26.9110 O   0  0  0  0  0  0  0  0  0  0  0  0
    9.2290  -15.0941   27.4860 O   0  0  0  0  0  0  0  0  0  0  0  0
  1  5  1  0
  1  2  1  0
  3  2  1  0
  4  5  1  0
  4  3  1  0
  6  7  2  0
  5  6  1  1
  8  9  1  0
  9 11  1  0
  9 10  2  0
 12 11  1  1
 12 14  1  0
 12 13  1  0
 13  6  1  0
 14 21  1  0
 15 14  2  0
 17 16  1  6
 17 18  1  0
 20 19  1  1
 19 17  1  0
 20 22  1  0
 21 20  1  0
 22 23  2  0
 22 24  1  0
M  END
$$$$
