PNL.pdb
     RDKit          3D

 24 24  0  0  1  0  0  0  0  0999 V2000
    9.0237  -14.4529   19.1018 N   0  0  0  0  0  0  0  0  0  0  0  0
    8.7883  -13.6384   17.8855 C   0  0  0  0  0  0  0  0  0  0  0  0
    7.3489  -13.2454   18.1443 C   0  0  0  0  0  0  0  0  0  0  0  0
    7.3946  -12.8153   19.5900 C   0  0  0  0  0  0  0  0  0  0  0  0
    8.5640  -13.5437   20.1557 C   0  0  1  0  0  0  0  0  0  0  0  0
    8.2773  -14.3458   21.3564 C   0  0  0  0  0  0  0  0  0  0  0  0
    7.4948  -13.8390   22.2224 O   0  0  0  0  0  0  0  0  0  0  0  0
    9.5665  -18.9086   20.6314 N   0  0  0  0  0  0  0  0  0  0  0  0
    8.5607  -18.4855   21.5427 C   0  0  0  0  0  0  0  0  0  0  0  0
    7.3554  -18.7351   21.2887 O   0  0  0  0  0  0  0  0  0  0  0  0
    8.9639  -17.7677   22.7563 C   0  0  0  0  0  0  0  0  0  0  0  0
    8.3790  -16.3710   22.7425 C   0  0  2  0  0  0  0  0  0  0  0  0
    8.8243  -15.6257   21.5813 N   0  0  0  0  0  0  0  0  0  0  0  0
    8.9114  -15.6872   23.9598 C   0  0  0  0  0  0  0  0  0  0  0  0
   10.1021  -15.3053   23.9407 O   0  0  0  0  0  0  0  0  0  0  0  0
    5.9214  -12.1819   26.7575 C   0  0  0  0  0  0  0  0  0  0  0  0
    7.0878  -12.8601   25.9601 C   0  0  1  0  0  0  0  0  0  0  0  0
    7.9636  -11.6941   25.5828 C   0  0  0  0  0  0  0  0  0  0  0  0
    7.6916  -13.8826   26.8361 C   0  0  0  0  0  0  0  0  0  0  0  0
    8.7000  -14.7946   26.2598 C   0  0  2  0  0  0  0  0  0  0  0  0
    8.0967  -15.4833   25.0842 N   0  0  0  0  0  0  0  0  0  0  0  0
    9.2253  -15.8888   27.0815 C   0  0  0  0  0  0  0  0  0  0  0  0
    9.9279  -15.7319   28.0995 O   0  0  0  0  0  0  0  0  0  0  0  0
    8.9581  -17.2350   26.7594 O   0  0  0  0  0  0  0  0  0  0  0  0
  1  5  1  0
  1  2  1  0
  3  2  1  0
  4  5  1  0
  4  3  1  0
  6  7  2  0
  5  6  1  1
  8  9  1  0
  9 11  1  0
  9 10  2  0
 12 11  1  6
 12 14  1  0
 12 13  1  0
 13  6  1  0
 14 21  1  0
 15 14  2  0
 17 16  1  1
 17 18  1  0
 20 19  1  1
 19 17  1  0
 20 22  1  0
 21 20  1  0
 22 23  2  0
 22 24  1  0
M  END
$$$$
