PNL.pdb
     RDKit          3D

 24 24  0  0  1  0  0  0  0  0999 V2000
    9.3400  -14.2272   19.1991 N   0  0  0  0  0  0  0  0  0  0  0  0
    9.0349  -13.3676   18.0301 C   0  0  0  0  0  0  0  0  0  0  0  0
    7.5284  -13.3086   18.1724 C   0  0  0  0  0  0  0  0  0  0  0  0
    7.3618  -13.0175   19.6438 C   0  0  0  0  0  0  0  0  0  0  0  0
    8.6105  -13.5375   20.2671 C   0  0  1  0  0  0  0  0  0  0  0  0
    8.4062  -14.4920   21.3692 C   0  0  0  0  0  0  0  0  0  0  0  0
    7.3709  -14.3342   22.0921 O   0  0  0  0  0  0  0  0  0  0  0  0
    9.0346  -19.4526   21.3256 N   0  0  0  0  0  0  0  0  0  0  0  0
    9.8600  -18.3051   21.4778 C   0  0  0  0  0  0  0  0  0  0  0  0
   10.5301  -17.8944   20.4970 O   0  0  0  0  0  0  0  0  0  0  0  0
    9.9033  -17.6339   22.7810 C   0  0  0  0  0  0  0  0  0  0  0  0
    8.9890  -16.4270   22.7652 C   0  0  2  0  0  0  0  0  0  0  0  0
    9.2933  -15.5510   21.6508 N   0  0  0  0  0  0  0  0  0  0  0  0
    9.2691  -15.6790   24.0281 C   0  0  0  0  0  0  0  0  0  0  0  0
   10.4142  -15.2003   24.1809 O   0  0  0  0  0  0  0  0  0  0  0  0
    5.5572  -12.5092   26.5129 C   0  0  0  0  0  0  0  0  0  0  0  0
    6.8895  -13.0059   25.8537 C   0  0  1  0  0  0  0  0  0  0  0  0
    7.6909  -11.7384   25.7119 C   0  0  0  0  0  0  0  0  0  0  0  0
    7.4569  -14.0510   26.7273 C   0  0  0  0  0  0  0  0  0  0  0  0
    8.6416  -14.7951   26.2544 C   0  0  2  0  0  0  0  0  0  0  0  0
    8.2752  -15.5223   25.0065 N   0  0  0  0  0  0  0  0  0  0  0  0
    9.2227  -15.8317   27.1122 C   0  0  0  0  0  0  0  0  0  0  0  0
    9.8412  -15.6062   28.1711 O   0  0  0  0  0  0  0  0  0  0  0  0
    9.1134  -17.1976   26.7806 O   0  0  0  0  0  0  0  0  0  0  0  0
  1  5  1  0
  1  2  1  0
  3  2  1  0
  4  5  1  0
  4  3  1  0
  6  7  2  0
  5  6  1  1
  8  9  1  0
  9 11  1  0
  9 10  2  0
 12 11  1  6
 12 14  1  0
 12 13  1  0
 13  6  1  0
 14 21  1  0
 15 14  2  0
 17 16  1  1
 17 18  1  0
 20 19  1  1
 19 17  1  0
 20 22  1  0
 21 20  1  0
 22 23  2  0
 22 24  1  0
M  END
$$$$
