PNL.pdb
     RDKit          3D

 24 24  0  0  1  0  0  0  0  0999 V2000
    8.9747  -14.9017   19.3393 N   0  0  0  0  0  0  0  0  0  0  0  0
    9.0633  -14.1573   18.0601 C   0  0  0  0  0  0  0  0  0  0  0  0
    7.6945  -13.5096   18.0732 C   0  0  0  0  0  0  0  0  0  0  0  0
    7.6093  -12.9809   19.4841 C   0  0  0  0  0  0  0  0  0  0  0  0
    8.5383  -13.8483   20.2605 C   0  0  1  0  0  0  0  0  0  0  0  0
    7.9458  -14.4942   21.4433 C   0  0  0  0  0  0  0  0  0  0  0  0
    7.3091  -13.7501   22.2558 O   0  0  0  0  0  0  0  0  0  0  0  0
    5.8367  -17.5265   24.7331 N   0  0  0  0  0  0  0  0  0  0  0  0
    6.7507  -18.4096   24.0959 C   0  0  0  0  0  0  0  0  0  0  0  0
    6.8350  -19.5993   24.4922 O   0  0  0  0  0  0  0  0  0  0  0  0
    7.5700  -17.9014   22.9908 C   0  0  0  0  0  0  0  0  0  0  0  0
    7.4594  -16.3927   22.9240 C   0  0  2  0  0  0  0  0  0  0  0  0
    8.0540  -15.8750   21.7073 N   0  0  0  0  0  0  0  0  0  0  0  0
    8.2474  -15.8683   24.0802 C   0  0  0  0  0  0  0  0  0  0  0  0
    9.4867  -15.7701   23.9451 O   0  0  0  0  0  0  0  0  0  0  0  0
    5.8907  -12.0192   26.9899 C   0  0  0  0  0  0  0  0  0  0  0  0
    6.9072  -12.8051   26.0925 C   0  0  1  0  0  0  0  0  0  0  0  0
    7.7481  -11.7089   25.4925 C   0  0  0  0  0  0  0  0  0  0  0  0
    7.6068  -13.7758   26.9561 C   0  0  0  0  0  0  0  0  0  0  0  0
    8.4334  -14.8183   26.3150 C   0  0  2  0  0  0  0  0  0  0  0  0
    7.6113  -15.4998   25.2757 N   0  0  0  0  0  0  0  0  0  0  0  0
    8.9560  -15.9173   27.1318 C   0  0  0  0  0  0  0  0  0  0  0  0
    8.5619  -17.0982   27.0609 O   0  0  0  0  0  0  0  0  0  0  0  0
    9.9739  -15.6986   28.0823 O   0  0  0  0  0  0  0  0  0  0  0  0
  1  5  1  0
  1  2  1  0
  3  2  1  0
  4  5  1  0
  4  3  1  0
  6  7  2  0
  5  6  1  1
  8  9  1  0
  9 11  1  0
  9 10  2  0
 12 11  1  6
 12 14  1  0
 12 13  1  0
 13  6  1  0
 14 21  1  0
 15 14  2  0
 17 16  1  1
 17 18  1  0
 20 19  1  1
 19 17  1  0
 20 22  1  0
 21 20  1  0
 22 23  2  0
 22 24  1  0
M  END
$$$$
