YWS.pdb
     RDKit          3D

 33 35  0  0  1  0  0  0  0  0999 V2000
   13.0093  -17.9401   13.8513 O   0  0  0  0  0  0  0  0  0  0  0  0
   12.6426  -17.4917   15.1100 C   0  0  0  0  0  0  0  0  0  0  0  0
   13.4496  -16.5597   15.7597 C   0  0  0  0  0  0  0  0  0  0  0  0
   13.1546  -16.0662   17.0090 C   0  0  0  0  0  0  0  0  0  0  0  0
   12.0036  -16.5134   17.6542 C   0  0  0  0  0  0  0  0  0  0  0  0
   11.7207  -15.9580   18.9969 C   0  0  0  0  0  0  0  0  0  0  0  0
   10.9408  -16.9827   19.8173 C   0  0  2  0  0  0  0  0  0  0  0  0
    9.7899  -17.4522   19.0744 N   0  0  0  0  0  0  0  0  0  0  0  0
   10.5161  -16.3865   21.1081 C   0  0  0  0  0  0  0  0  0  0  0  0
   11.3567  -15.8274   21.8801 O   0  0  0  0  0  0  0  0  0  0  0  0
   11.2086  -17.4363   17.0057 C   0  0  0  0  0  0  0  0  0  0  0  0
   11.5154  -17.9226   15.7547 C   0  0  0  0  0  0  0  0  0  0  0  0
    9.1730  -16.3937   21.5700 N   0  0  0  0  0  0  0  0  0  0  0  0
    8.8300  -15.9578   22.9014 C   0  0  1  0  0  0  0  0  0  0  0  0
    7.3868  -15.5282   22.9081 C   0  0  0  0  0  0  0  0  0  0  0  0
    6.9792  -15.0872   24.2841 C   0  0  0  0  0  0  0  0  0  0  0  0
    6.3429  -15.8467   25.2566 C   0  0  0  0  0  0  0  0  0  0  0  0
    6.1592  -15.0760   26.3425 N   0  0  0  0  0  0  0  0  0  0  0  0
    6.6412  -13.8376   26.1450 C   0  0  0  0  0  0  0  0  0  0  0  0
    6.7019  -12.6914   26.9266 C   0  0  0  0  0  0  0  0  0  0  0  0
    7.2882  -11.5581   26.3835 C   0  0  0  0  0  0  0  0  0  0  0  0
    7.8038  -11.5405   25.1090 C   0  0  0  0  0  0  0  0  0  0  0  0
    7.7231  -12.7004   24.3668 C   0  0  0  0  0  0  0  0  0  0  0  0
    7.1532  -13.8434   24.8603 C   0  0  0  0  0  0  0  0  0  0  0  0
    9.1394  -16.9669   23.9302 C   0  0  0  0  0  0  0  0  0  0  0  0
    8.7034  -18.1346   23.7625 O   0  0  0  0  0  0  0  0  0  0  0  0
   12.4816  -17.1223   25.7549 O   0  0  0  0  0  0  0  0  0  0  0  0
   11.6118  -18.1954   25.8121 C   0  0  0  0  0  0  0  0  0  0  0  0
   10.1812  -17.7073   26.0471 C   0  0  2  0  0  0  0  0  0  0  0  0
    9.9100  -16.6519   25.0918 N   0  0  0  0  0  0  0  0  0  0  0  0
   10.0872  -17.2408   27.4314 C   0  0  0  0  0  0  0  0  0  0  0  0
    9.7649  -16.0377   27.6281 O   0  0  0  0  0  0  0  0  0  0  0  0
   10.3287  -18.0344   28.5296 O   0  0  0  0  0  0  0  0  0  0  0  0
  2  1  1  0
  3  2  2  0
  4  3  1  0
  5 11  1  0
  5  4  2  0
  6  5  1  0
  7  6  1  0
  7  8  1  6
  9 13  1  0
  9  7  1  0
 10  9  2  0
 11 12  2  0
 12  2  1  0
 14 13  1  0
 14 15  1  6
 15 16  1  0
 16 17  2  0
 17 18  1  0
 19 18  1  0
 20 19  2  0
 21 20  1  0
 22 23  1  0
 22 21  2  0
 23 24  2  0
 24 16  1  0
 24 19  1  0
 25 14  1  0
 26 25  2  0
 27 28  1  0
 29 28  1  6
 29 30  1  0
 30 25  1  0
 31 33  1  0
 31 29  1  0
 32 31  2  0
M  END
$$$$
