YWS.pdb
     RDKit          3D

 33 35  0  0  1  0  0  0  0  0999 V2000
   11.4367  -15.5193   31.9798 O   0  0  0  0  0  0  0  0  0  0  0  0
   11.3774  -15.7777   30.6198 C   0  0  0  0  0  0  0  0  0  0  0  0
   10.9383  -14.7751   29.7574 C   0  0  0  0  0  0  0  0  0  0  0  0
   10.8512  -14.9531   28.3965 C   0  0  0  0  0  0  0  0  0  0  0  0
   11.2159  -16.1836   27.8544 C   0  0  0  0  0  0  0  0  0  0  0  0
   11.1088  -16.3353   26.3858 C   0  0  0  0  0  0  0  0  0  0  0  0
    9.9581  -17.2827   26.0546 C   0  0  2  0  0  0  0  0  0  0  0  0
   10.3135  -18.6448   26.3943 N   0  0  0  0  0  0  0  0  0  0  0  0
    9.6115  -17.1813   24.6154 C   0  0  0  0  0  0  0  0  0  0  0  0
    9.7809  -18.1655   23.8294 O   0  0  0  0  0  0  0  0  0  0  0  0
   11.6499  -17.1724   28.7136 C   0  0  0  0  0  0  0  0  0  0  0  0
   11.7324  -16.9814   30.0746 C   0  0  0  0  0  0  0  0  0  0  0  0
    9.0777  -16.0080   24.0189 N   0  0  0  0  0  0  0  0  0  0  0  0
    8.6376  -15.9923   22.6455 C   0  0  1  0  0  0  0  0  0  0  0  0
    7.6218  -14.8930   22.4804 C   0  0  0  0  0  0  0  0  0  0  0  0
    6.9111  -14.6390   23.7783 C   0  0  0  0  0  0  0  0  0  0  0  0
    6.1747  -15.5482   24.5258 C   0  0  0  0  0  0  0  0  0  0  0  0
    5.7068  -14.9182   25.6171 N   0  0  0  0  0  0  0  0  0  0  0  0
    6.0934  -13.6317   25.6372 C   0  0  0  0  0  0  0  0  0  0  0  0
    5.8865  -12.5770   26.5165 C   0  0  0  0  0  0  0  0  0  0  0  0
    6.4531  -11.3487   26.2116 C   0  0  0  0  0  0  0  0  0  0  0  0
    7.2041  -11.1508   25.0769 C   0  0  0  0  0  0  0  0  0  0  0  0
    7.3851  -12.2250   24.2305 C   0  0  0  0  0  0  0  0  0  0  0  0
    6.8453  -13.4563   24.4896 C   0  0  0  0  0  0  0  0  0  0  0  0
    9.7549  -15.8977   21.6889 C   0  0  0  0  0  0  0  0  0  0  0  0
   10.6243  -15.0096   21.8816 O   0  0  0  0  0  0  0  0  0  0  0  0
   12.2336  -18.3688   20.9033 O   0  0  0  0  0  0  0  0  0  0  0  0
   12.2632  -17.0290   20.5634 C   0  0  0  0  0  0  0  0  0  0  0  0
   11.0387  -16.6679   19.7207 C   0  0  2  0  0  0  0  0  0  0  0  0
    9.8686  -16.7777   20.5686 N   0  0  0  0  0  0  0  0  0  0  0  0
   10.9886  -17.5881   18.5835 C   0  0  0  0  0  0  0  0  0  0  0  0
    9.9980  -18.3631   18.4946 O   0  0  0  0  0  0  0  0  0  0  0  0
   11.9556  -17.6585   17.6066 O   0  0  0  0  0  0  0  0  0  0  0  0
  2  1  1  0
  3  2  2  0
  4  3  1  0
  5 11  1  0
  5  4  2  0
  6  5  1  0
  7  6  1  0
  7  8  1  6
  9 13  1  0
  9  7  1  0
 10  9  2  0
 11 12  2  0
 12  2  1  0
 14 13  1  0
 14 15  1  1
 15 16  1  0
 16 17  2  0
 17 18  1  0
 19 18  1  0
 20 19  2  0
 21 20  1  0
 22 23  1  0
 22 21  2  0
 23 24  2  0
 24 16  1  0
 24 19  1  0
 25 14  1  0
 26 25  2  0
 27 28  1  0
 29 28  1  1
 29 30  1  0
 30 25  1  0
 31 33  1  0
 31 29  1  0
 32 31  2  0
M  END
$$$$
