YWS.pdb
     RDKit          3D

 33 35  0  0  1  0  0  0  0  0999 V2000
    8.5019  -24.1420   17.0687 O   0  0  0  0  0  0  0  0  0  0  0  0
    8.7032  -23.1032   17.9633 C   0  0  0  0  0  0  0  0  0  0  0  0
    9.9025  -22.3950   17.9217 C   0  0  0  0  0  0  0  0  0  0  0  0
   10.1781  -21.3522   18.7748 C   0  0  0  0  0  0  0  0  0  0  0  0
    9.2223  -20.9859   19.7200 C   0  0  0  0  0  0  0  0  0  0  0  0
    9.5562  -19.8584   20.6192 C   0  0  0  0  0  0  0  0  0  0  0  0
    8.8520  -18.5940   20.1328 C   0  0  2  0  0  0  0  0  0  0  0  0
    9.3292  -18.2265   18.8159 N   0  0  0  0  0  0  0  0  0  0  0  0
    9.0746  -17.4844   21.0927 C   0  0  0  0  0  0  0  0  0  0  0  0
   10.1301  -16.7783   21.0451 O   0  0  0  0  0  0  0  0  0  0  0  0
    8.0366  -21.6910   19.7562 C   0  0  0  0  0  0  0  0  0  0  0  0
    7.7731  -22.7334   18.8962 C   0  0  0  0  0  0  0  0  0  0  0  0
    8.1505  -17.1338   22.1127 N   0  0  0  0  0  0  0  0  0  0  0  0
    8.4469  -16.1049   23.0790 C   0  0  1  0  0  0  0  0  0  0  0  0
    7.1506  -15.4928   23.5400 C   0  0  0  0  0  0  0  0  0  0  0  0
    7.4140  -14.2382   24.3216 C   0  0  0  0  0  0  0  0  0  0  0  0
    7.5699  -12.9527   23.8210 C   0  0  0  0  0  0  0  0  0  0  0  0
    7.7891  -12.1202   24.8535 N   0  0  0  0  0  0  0  0  0  0  0  0
    7.7878  -12.7851   26.0209 C   0  0  0  0  0  0  0  0  0  0  0  0
    7.9616  -12.4065   27.3455 C   0  0  0  0  0  0  0  0  0  0  0  0
    7.8940  -13.3886   28.3222 C   0  0  0  0  0  0  0  0  0  0  0  0
    7.6625  -14.7092   28.0170 C   0  0  0  0  0  0  0  0  0  0  0  0
    7.4953  -15.0422   26.6889 C   0  0  0  0  0  0  0  0  0  0  0  0
    7.5537  -14.1075   25.6900 C   0  0  0  0  0  0  0  0  0  0  0  0
    9.2866  -16.5891   24.1893 C   0  0  0  0  0  0  0  0  0  0  0  0
    8.8388  -17.5202   24.9064 O   0  0  0  0  0  0  0  0  0  0  0  0
   12.4840  -17.8913   23.8491 O   0  0  0  0  0  0  0  0  0  0  0  0
   11.8390  -17.9906   25.0680 C   0  0  0  0  0  0  0  0  0  0  0  0
   11.3637  -16.6122   25.5309 C   0  0  2  0  0  0  0  0  0  0  0  0
   10.5745  -16.0331   24.4624 N   0  0  0  0  0  0  0  0  0  0  0  0
   12.5477  -15.8104   25.8440 C   0  0  0  0  0  0  0  0  0  0  0  0
   12.7529  -14.7699   25.1621 O   0  0  0  0  0  0  0  0  0  0  0  0
   13.4489  -16.1227   26.8362 O   0  0  0  0  0  0  0  0  0  0  0  0
  2  1  1  0
  3  2  2  0
  4  3  1  0
  5 11  1  0
  5  4  2  0
  6  5  1  0
  7  6  1  0
  7  8  1  6
  9 13  1  0
  9  7  1  0
 10  9  2  0
 11 12  2  0
 12  2  1  0
 14 13  1  0
 14 15  1  1
 15 16  1  0
 16 17  2  0
 17 18  1  0
 19 18  1  0
 20 19  2  0
 21 20  1  0
 22 23  1  0
 22 21  2  0
 23 24  2  0
 24 16  1  0
 24 19  1  0
 25 14  1  0
 26 25  2  0
 27 28  1  0
 29 28  1  6
 29 30  1  0
 30 25  1  0
 31 33  1  0
 31 29  1  0
 32 31  2  0
M  END
$$$$
