YWS.pdb
     RDKit          3D

 33 35  0  0  1  0  0  0  0  0999 V2000
    7.6288  -13.2128   16.3790 O   0  0  0  0  0  0  0  0  0  0  0  0
    7.8477  -13.3994   17.7344 C   0  0  0  0  0  0  0  0  0  0  0  0
    9.1038  -13.8201   18.1670 C   0  0  0  0  0  0  0  0  0  0  0  0
    9.4001  -14.0278   19.4938 C   0  0  0  0  0  0  0  0  0  0  0  0
    8.4074  -13.8098   20.4467 C   0  0  0  0  0  0  0  0  0  0  0  0
    8.7658  -14.0436   21.8638 C   0  0  0  0  0  0  0  0  0  0  0  0
    9.2589  -15.4785   22.0340 C   0  0  2  0  0  0  0  0  0  0  0  0
    8.2294  -16.4155   21.6350 N   0  0  0  0  0  0  0  0  0  0  0  0
    9.6588  -15.7173   23.4428 C   0  0  0  0  0  0  0  0  0  0  0  0
   10.5838  -15.0358   23.9862 O   0  0  0  0  0  0  0  0  0  0  0  0
    7.1657  -13.3932   20.0121 C   0  0  0  0  0  0  0  0  0  0  0  0
    6.8819  -13.1890   18.6804 C   0  0  0  0  0  0  0  0  0  0  0  0
    9.0557  -16.6996   24.2726 N   0  0  0  0  0  0  0  0  0  0  0  0
    9.4978  -16.9179   25.6280 C   0  0  1  0  0  0  0  0  0  0  0  0
    8.3065  -16.8143   26.5432 C   0  0  0  0  0  0  0  0  0  0  0  0
    7.4424  -15.6523   26.1466 C   0  0  0  0  0  0  0  0  0  0  0  0
    6.2702  -15.6911   25.4036 C   0  0  0  0  0  0  0  0  0  0  0  0
    5.8097  -14.4350   25.2737 N   0  0  0  0  0  0  0  0  0  0  0  0
    6.6159  -13.5568   25.8931 C   0  0  0  0  0  0  0  0  0  0  0  0
    6.5945  -12.1778   26.0558 C   0  0  0  0  0  0  0  0  0  0  0  0
    7.6206  -11.5870   26.7774 C   0  0  0  0  0  0  0  0  0  0  0  0
    8.6445  -12.3210   27.3284 C   0  0  0  0  0  0  0  0  0  0  0  0
    8.6274  -13.6878   27.1432 C   0  0  0  0  0  0  0  0  0  0  0  0
    7.6356  -14.3157   26.4384 C   0  0  0  0  0  0  0  0  0  0  0  0
   10.2447  -18.1784   25.7890 C   0  0  0  0  0  0  0  0  0  0  0  0
    9.6231  -19.2590   25.6228 O   0  0  0  0  0  0  0  0  0  0  0  0
   14.2539  -18.4224   25.7187 O   0  0  0  0  0  0  0  0  0  0  0  0
   13.5375  -19.6043   25.6821 C   0  0  0  0  0  0  0  0  0  0  0  0
   12.2405  -19.4640   26.4809 C   0  0  2  0  0  0  0  0  0  0  0  0
   11.6341  -18.1974   26.1234 N   0  0  0  0  0  0  0  0  0  0  0  0
   12.5788  -19.5358   27.9033 C   0  0  0  0  0  0  0  0  0  0  0  0
   12.2910  -18.5457   28.6290 O   0  0  0  0  0  0  0  0  0  0  0  0
   13.1909  -20.6168   28.4957 O   0  0  0  0  0  0  0  0  0  0  0  0
  2  1  1  0
  3  2  2  0
  4  3  1  0
  5 11  1  0
  5  4  2  0
  6  5  1  0
  7  6  1  0
  7  8  1  1
  9 13  1  0
  9  7  1  0
 10  9  2  0
 11 12  2  0
 12  2  1  0
 14 13  1  0
 14 15  1  1
 15 16  1  0
 16 17  2  0
 17 18  1  0
 19 18  1  0
 20 19  2  0
 21 20  1  0
 22 23  1  0
 22 21  2  0
 23 24  2  0
 24 16  1  0
 24 19  1  0
 25 14  1  0
 26 25  2  0
 27 28  1  0
 29 28  1  6
 29 30  1  0
 30 25  1  0
 31 33  1  0
 31 29  1  0
 32 31  2  0
M  END
$$$$
