YWS.pdb
     RDKit          3D

 33 35  0  0  1  0  0  0  0  0999 V2000
    7.6244  -14.5300   12.8517 O   0  0  0  0  0  0  0  0  0  0  0  0
    7.9429  -14.3672   14.1904 C   0  0  0  0  0  0  0  0  0  0  0  0
    6.9371  -14.0177   15.0893 C   0  0  0  0  0  0  0  0  0  0  0  0
    7.1723  -13.8377   16.4323 C   0  0  0  0  0  0  0  0  0  0  0  0
    8.4668  -14.0110   16.9175 C   0  0  0  0  0  0  0  0  0  0  0  0
    8.6789  -13.8092   18.3685 C   0  0  0  0  0  0  0  0  0  0  0  0
    8.9538  -15.1552   19.0347 C   0  0  2  0  0  0  0  0  0  0  0  0
    7.9376  -16.1178   18.6635 N   0  0  0  0  0  0  0  0  0  0  0  0
    9.0015  -14.9948   20.5091 C   0  0  0  0  0  0  0  0  0  0  0  0
    9.8455  -14.2186   21.0571 O   0  0  0  0  0  0  0  0  0  0  0  0
    9.4584  -14.3572   16.0224 C   0  0  0  0  0  0  0  0  0  0  0  0
    9.2096  -14.5343   14.6799 C   0  0  0  0  0  0  0  0  0  0  0  0
    8.1312  -15.6777   21.3999 N   0  0  0  0  0  0  0  0  0  0  0  0
    8.2211  -15.4994   22.8283 C   0  0  1  0  0  0  0  0  0  0  0  0
    6.8277  -15.4942   23.3992 C   0  0  0  0  0  0  0  0  0  0  0  0
    6.8609  -15.1297   24.8553 C   0  0  0  0  0  0  0  0  0  0  0  0
    6.7449  -15.9884   25.9400 C   0  0  0  0  0  0  0  0  0  0  0  0
    6.8267  -15.2602   27.0669 N   0  0  0  0  0  0  0  0  0  0  0  0
    6.9916  -13.9559   26.7902 C   0  0  0  0  0  0  0  0  0  0  0  0
    7.1281  -12.8152   27.5703 C   0  0  0  0  0  0  0  0  0  0  0  0
    7.2856  -11.5967   26.9276 C   0  0  0  0  0  0  0  0  0  0  0  0
    7.3099  -11.4902   25.5569 C   0  0  0  0  0  0  0  0  0  0  0  0
    7.1712  -12.6479   24.8198 C   0  0  0  0  0  0  0  0  0  0  0  0
    7.0131  -13.8733   25.4098 C   0  0  0  0  0  0  0  0  0  0  0  0
    9.1078  -16.4853   23.4722 C   0  0  0  0  0  0  0  0  0  0  0  0
    8.7795  -17.6982   23.4198 O   0  0  0  0  0  0  0  0  0  0  0  0
   12.9256  -16.4690   23.2889 O   0  0  0  0  0  0  0  0  0  0  0  0
   12.5955  -16.6907   24.6130 C   0  0  0  0  0  0  0  0  0  0  0  0
   11.1360  -17.1339   24.7293 C   0  0  2  0  0  0  0  0  0  0  0  0
   10.3098  -16.0986   24.1415 N   0  0  0  0  0  0  0  0  0  0  0  0
   10.8410  -17.3412   26.1479 C   0  0  0  0  0  0  0  0  0  0  0  0
   11.5457  -18.1726   26.7819 O   0  0  0  0  0  0  0  0  0  0  0  0
    9.8426  -16.6845   26.8309 O   0  0  0  0  0  0  0  0  0  0  0  0
  2  1  1  0
  3  2  2  0
  4  3  1  0
  5 11  1  0
  5  4  2  0
  6  5  1  0
  7  6  1  0
  7  8  1  1
  9 13  1  0
  9  7  1  0
 10  9  2  0
 11 12  2  0
 12  2  1  0
 14 13  1  0
 14 15  1  1
 15 16  1  0
 16 17  2  0
 17 18  1  0
 19 18  1  0
 20 19  2  0
 21 20  1  0
 22 23  1  0
 22 21  2  0
 23 24  2  0
 24 16  1  0
 24 19  1  0
 25 14  1  0
 26 25  2  0
 27 28  1  0
 29 28  1  1
 29 30  1  0
 30 25  1  0
 31 33  1  0
 31 29  1  0
 32 31  2  0
M  END
$$$$
