YWS.pdb
     RDKit          3D

 33 35  0  0  1  0  0  0  0  0999 V2000
   11.7156  -20.7015   16.1711 O   0  0  0  0  0  0  0  0  0  0  0  0
   11.5421  -20.1984   17.4504 C   0  0  0  0  0  0  0  0  0  0  0  0
   12.6648  -19.9026   18.2209 C   0  0  0  0  0  0  0  0  0  0  0  0
   12.5765  -19.4008   19.4983 C   0  0  0  0  0  0  0  0  0  0  0  0
   11.3156  -19.1778   20.0476 C   0  0  0  0  0  0  0  0  0  0  0  0
   11.2626  -18.6364   21.4243 C   0  0  0  0  0  0  0  0  0  0  0  0
   10.7533  -17.1976   21.3860 C   0  0  2  0  0  0  0  0  0  0  0  0
   11.6736  -16.3569   20.6489 N   0  0  0  0  0  0  0  0  0  0  0  0
   10.5734  -16.6828   22.7661 C   0  0  0  0  0  0  0  0  0  0  0  0
   11.4414  -15.9243   23.3011 O   0  0  0  0  0  0  0  0  0  0  0  0
   10.2077  -19.4727   19.2795 C   0  0  0  0  0  0  0  0  0  0  0  0
   10.3100  -19.9749   18.0017 C   0  0  0  0  0  0  0  0  0  0  0  0
    9.4475  -16.9892   23.5758 N   0  0  0  0  0  0  0  0  0  0  0  0
    9.3165  -16.4693   24.9148 C   0  0  1  0  0  0  0  0  0  0  0  0
    7.8517  -16.3772   25.2519 C   0  0  0  0  0  0  0  0  0  0  0  0
    7.2924  -15.0606   24.7960 C   0  0  0  0  0  0  0  0  0  0  0  0
    6.8193  -14.7409   23.5305 C   0  0  0  0  0  0  0  0  0  0  0  0
    6.4082  -13.4611   23.5433 N   0  0  0  0  0  0  0  0  0  0  0  0
    6.5828  -12.9081   24.7551 C   0  0  0  0  0  0  0  0  0  0  0  0
    6.3294  -11.6500   25.2857 C   0  0  0  0  0  0  0  0  0  0  0  0
    6.6447  -11.4245   26.6171 C   0  0  0  0  0  0  0  0  0  0  0  0
    7.1940  -12.4008   27.4143 C   0  0  0  0  0  0  0  0  0  0  0  0
    7.4294  -13.6363   26.8477 C   0  0  0  0  0  0  0  0  0  0  0  0
    7.1348  -13.9057   25.5380 C   0  0  0  0  0  0  0  0  0  0  0  0
   10.0919  -17.2386   25.9045 C   0  0  0  0  0  0  0  0  0  0  0  0
   10.1096  -18.4915   25.7968 O   0  0  0  0  0  0  0  0  0  0  0  0
   11.2544  -15.6179   29.4370 O   0  0  0  0  0  0  0  0  0  0  0  0
   12.1823  -16.5143   28.9401 C   0  0  0  0  0  0  0  0  0  0  0  0
   11.5307  -17.4342   27.9060 C   0  0  2  0  0  0  0  0  0  0  0  0
   10.8105  -16.6022   26.9632 N   0  0  0  0  0  0  0  0  0  0  0  0
   10.6471  -18.3577   28.6195 C   0  0  0  0  0  0  0  0  0  0  0  0
   11.1652  -19.1333   29.4679 O   0  0  0  0  0  0  0  0  0  0  0  0
    9.2871  -18.4304   28.4210 O   0  0  0  0  0  0  0  0  0  0  0  0
  2  1  1  0
  3  2  2  0
  4  3  1  0
  5 11  1  0
  5  4  2  0
  6  5  1  0
  7  6  1  0
  7  8  1  6
  9 13  1  0
  9  7  1  0
 10  9  2  0
 11 12  2  0
 12  2  1  0
 14 13  1  0
 14 15  1  1
 15 16  1  0
 16 17  2  0
 17 18  1  0
 19 18  1  0
 20 19  2  0
 21 20  1  0
 22 23  1  0
 22 21  2  0
 23 24  2  0
 24 16  1  0
 24 19  1  0
 25 14  1  0
 26 25  2  0
 27 28  1  0
 29 28  1  1
 29 30  1  0
 30 25  1  0
 31 33  1  0
 31 29  1  0
 32 31  2  0
M  END
$$$$
