YWS.pdb
     RDKit          3D

 33 35  0  0  1  0  0  0  0  0999 V2000
    7.7690  -22.3809   15.6023 O   0  0  0  0  0  0  0  0  0  0  0  0
    8.2344  -21.6105   16.6558 C   0  0  0  0  0  0  0  0  0  0  0  0
    8.8846  -20.4089   16.3820 C   0  0  0  0  0  0  0  0  0  0  0  0
    9.3749  -19.5887   17.3711 C   0  0  0  0  0  0  0  0  0  0  0  0
    9.2170  -19.9710   18.7015 C   0  0  0  0  0  0  0  0  0  0  0  0
    9.7576  -19.0611   19.7365 C   0  0  0  0  0  0  0  0  0  0  0  0
    9.1224  -17.6812   19.5829 C   0  0  2  0  0  0  0  0  0  0  0  0
    9.7545  -16.9533   18.5024 N   0  0  0  0  0  0  0  0  0  0  0  0
    9.2348  -16.9232   20.8535 C   0  0  0  0  0  0  0  0  0  0  0  0
   10.2570  -16.2107   21.1036 O   0  0  0  0  0  0  0  0  0  0  0  0
    8.5722  -21.1620   18.9662 C   0  0  0  0  0  0  0  0  0  0  0  0
    8.0860  -21.9743   17.9664 C   0  0  0  0  0  0  0  0  0  0  0  0
    8.2359  -16.9341   21.8632 N   0  0  0  0  0  0  0  0  0  0  0  0
    8.3939  -16.1919   23.0897 C   0  0  1  0  0  0  0  0  0  0  0  0
    7.0327  -15.9702   23.6944 C   0  0  0  0  0  0  0  0  0  0  0  0
    7.1553  -15.2593   25.0111 C   0  0  0  0  0  0  0  0  0  0  0  0
    7.1547  -15.8285   26.2774 C   0  0  0  0  0  0  0  0  0  0  0  0
    7.2864  -14.8446   27.1837 N   0  0  0  0  0  0  0  0  0  0  0  0
    7.3751  -13.6444   26.5866 C   0  0  0  0  0  0  0  0  0  0  0  0
    7.5187  -12.3444   27.0533 C   0  0  0  0  0  0  0  0  0  0  0  0
    7.5773  -11.3171   26.1237 C   0  0  0  0  0  0  0  0  0  0  0  0
    7.4980  -11.5492   24.7707 C   0  0  0  0  0  0  0  0  0  0  0  0
    7.3560  -12.8552   24.3499 C   0  0  0  0  0  0  0  0  0  0  0  0
    7.2933  -13.9021   25.2302 C   0  0  0  0  0  0  0  0  0  0  0  0
    9.3460  -16.8236   24.0208 C   0  0  0  0  0  0  0  0  0  0  0  0
    9.2143  -18.0517   24.2578 O   0  0  0  0  0  0  0  0  0  0  0  0
   13.6873  -16.8905   24.9444 O   0  0  0  0  0  0  0  0  0  0  0  0
   12.6851  -16.0502   25.3925 C   0  0  0  0  0  0  0  0  0  0  0  0
   11.3545  -16.8015   25.4632 C   0  0  2  0  0  0  0  0  0  0  0  0
   10.3958  -16.0835   24.6475 N   0  0  0  0  0  0  0  0  0  0  0  0
   10.9494  -16.8668   26.8682 C   0  0  0  0  0  0  0  0  0  0  0  0
   11.6713  -17.5311   27.6603 O   0  0  0  0  0  0  0  0  0  0  0  0
    9.8301  -16.2479   27.3766 O   0  0  0  0  0  0  0  0  0  0  0  0
  2  1  1  0
  3  2  2  0
  4  3  1  0
  5 11  1  0
  5  4  2  0
  6  5  1  0
  7  6  1  0
  7  8  1  6
  9 13  1  0
  9  7  1  0
 10  9  2  0
 11 12  2  0
 12  2  1  0
 14 13  1  0
 14 15  1  1
 15 16  1  0
 16 17  2  0
 17 18  1  0
 19 18  1  0
 20 19  2  0
 21 20  1  0
 22 23  1  0
 22 21  2  0
 23 24  2  0
 24 16  1  0
 24 19  1  0
 25 14  1  0
 26 25  2  0
 27 28  1  0
 29 28  1  1
 29 30  1  0
 30 25  1  0
 31 33  1  0
 31 29  1  0
 32 31  2  0
M  END
$$$$
