YWS.pdb
     RDKit          3D

 33 35  0  0  1  0  0  0  0  0999 V2000
    7.0374  -20.0833   19.0588 O   0  0  0  0  0  0  0  0  0  0  0  0
    7.4382  -18.8013   18.7182 C   0  0  0  0  0  0  0  0  0  0  0  0
    6.6177  -18.0297   17.8978 C   0  0  0  0  0  0  0  0  0  0  0  0
    6.9444  -16.7498   17.5151 C   0  0  0  0  0  0  0  0  0  0  0  0
    8.1428  -16.1989   17.9638 C   0  0  0  0  0  0  0  0  0  0  0  0
    8.4580  -14.8189   17.5308 C   0  0  0  0  0  0  0  0  0  0  0  0
    7.9364  -13.8282   18.5688 C   0  0  2  0  0  0  0  0  0  0  0  0
    8.3138  -12.4770   18.2097 N   0  0  0  0  0  0  0  0  0  0  0  0
    8.4621  -14.1730   19.9129 C   0  0  0  0  0  0  0  0  0  0  0  0
    9.6565  -13.8900   20.2421 O   0  0  0  0  0  0  0  0  0  0  0  0
    8.9510  -16.9680   18.7761 C   0  0  0  0  0  0  0  0  0  0  0  0
    8.6122  -18.2485   19.1518 C   0  0  0  0  0  0  0  0  0  0  0  0
    7.6926  -14.8288   20.9104 N   0  0  0  0  0  0  0  0  0  0  0  0
    8.0638  -14.7812   22.3033 C   0  0  1  0  0  0  0  0  0  0  0  0
    6.8646  -14.3479   23.1043 C   0  0  0  0  0  0  0  0  0  0  0  0
    7.2244  -14.2205   24.5564 C   0  0  0  0  0  0  0  0  0  0  0  0
    7.9315  -15.1305   25.3306 C   0  0  0  0  0  0  0  0  0  0  0  0
    8.0371  -14.6350   26.5756 N   0  0  0  0  0  0  0  0  0  0  0  0
    7.4353  -13.4378   26.6734 C   0  0  0  0  0  0  0  0  0  0  0  0
    7.2616  -12.5284   27.7084 C   0  0  0  0  0  0  0  0  0  0  0  0
    6.5673  -11.3578   27.4427 C   0  0  0  0  0  0  0  0  0  0  0  0
    6.0536  -11.0783   26.1982 C   0  0  0  0  0  0  0  0  0  0  0  0
    6.2489  -12.0085   25.1985 C   0  0  0  0  0  0  0  0  0  0  0  0
    6.9276  -13.1780   25.4134 C   0  0  0  0  0  0  0  0  0  0  0  0
    8.6542  -16.0446   22.7805 C   0  0  0  0  0  0  0  0  0  0  0  0
    7.9572  -17.0887   22.7037 O   0  0  0  0  0  0  0  0  0  0  0  0
   12.4687  -16.7424   22.4806 O   0  0  0  0  0  0  0  0  0  0  0  0
   11.5735  -17.7817   22.6534 C   0  0  0  0  0  0  0  0  0  0  0  0
   10.5119  -17.4017   23.6871 C   0  0  2  0  0  0  0  0  0  0  0  0
    9.9769  -16.1065   23.3180 N   0  0  0  0  0  0  0  0  0  0  0  0
   11.1524  -17.3833   25.0032 C   0  0  0  0  0  0  0  0  0  0  0  0
   11.7366  -18.4317   25.3898 O   0  0  0  0  0  0  0  0  0  0  0  0
   11.1559  -16.2928   25.8428 O   0  0  0  0  0  0  0  0  0  0  0  0
  2  1  1  0
  3  2  2  0
  4  3  1  0
  5 11  1  0
  5  4  2  0
  6  5  1  0
  7  6  1  0
  7  8  1  6
  9 13  1  0
  9  7  1  0
 10  9  2  0
 11 12  2  0
 12  2  1  0
 14 13  1  0
 14 15  1  1
 15 16  1  0
 16 17  2  0
 17 18  1  0
 19 18  1  0
 20 19  2  0
 21 20  1  0
 22 23  1  0
 22 21  2  0
 23 24  2  0
 24 16  1  0
 24 19  1  0
 25 14  1  0
 26 25  2  0
 27 28  1  0
 29 28  1  6
 29 30  1  0
 30 25  1  0
 31 33  1  0
 31 29  1  0
 32 31  2  0
M  END
$$$$
