YWS.pdb
     RDKit          3D

 33 35  0  0  1  0  0  0  0  0999 V2000
    7.4978  -14.5861   14.8973 O   0  0  0  0  0  0  0  0  0  0  0  0
    7.9443  -14.6521   16.2073 C   0  0  0  0  0  0  0  0  0  0  0  0
    7.9123  -13.5021   16.9935 C   0  0  0  0  0  0  0  0  0  0  0  0
    8.3374  -13.4857   18.3014 C   0  0  0  0  0  0  0  0  0  0  0  0
    8.8198  -14.6642   18.8666 C   0  0  0  0  0  0  0  0  0  0  0  0
    9.2669  -14.6057   20.2765 C   0  0  0  0  0  0  0  0  0  0  0  0
    8.1536  -15.1216   21.1852 C   0  0  2  0  0  0  0  0  0  0  0  0
    7.0089  -14.2363   21.1316 N   0  0  0  0  0  0  0  0  0  0  0  0
    8.6482  -15.2450   22.5788 C   0  0  0  0  0  0  0  0  0  0  0  0
    9.2108  -14.2671   23.1637 O   0  0  0  0  0  0  0  0  0  0  0  0
    8.8489  -15.7997   18.0829 C   0  0  0  0  0  0  0  0  0  0  0  0
    8.4204  -15.8026   16.7745 C   0  0  0  0  0  0  0  0  0  0  0  0
    8.5348  -16.4338   23.3477 N   0  0  0  0  0  0  0  0  0  0  0  0
    9.0894  -16.5297   24.6757 C   0  0  1  0  0  0  0  0  0  0  0  0
    7.9558  -16.6096   25.6637 C   0  0  0  0  0  0  0  0  0  0  0  0
    7.1393  -15.3503   25.6252 C   0  0  0  0  0  0  0  0  0  0  0  0
    5.9202  -15.1576   24.9895 C   0  0  0  0  0  0  0  0  0  0  0  0
    5.5291  -13.8889   25.1997 N   0  0  0  0  0  0  0  0  0  0  0  0
    6.4265  -13.2223   25.9448 C   0  0  0  0  0  0  0  0  0  0  0  0
    6.4996  -11.9242   26.4327 C   0  0  0  0  0  0  0  0  0  0  0  0
    7.6053  -11.5703   27.1910 C   0  0  0  0  0  0  0  0  0  0  0  0
    8.6171  -12.4592   27.4683 C   0  0  0  0  0  0  0  0  0  0  0  0
    8.5049  -13.7384   26.9645 C   0  0  0  0  0  0  0  0  0  0  0  0
    7.4322  -14.1336   26.2110 C   0  0  0  0  0  0  0  0  0  0  0  0
   10.0564  -17.6337   24.8123 C   0  0  0  0  0  0  0  0  0  0  0  0
    9.6140  -18.7741   25.1044 O   0  0  0  0  0  0  0  0  0  0  0  0
   14.1319  -16.9707   24.7643 O   0  0  0  0  0  0  0  0  0  0  0  0
   13.7183  -18.1939   24.2702 C   0  0  0  0  0  0  0  0  0  0  0  0
   12.3482  -18.5619   24.8425 C   0  0  2  0  0  0  0  0  0  0  0  0
   11.4595  -17.4386   24.6230 N   0  0  0  0  0  0  0  0  0  0  0  0
   12.5214  -18.8632   26.2644 C   0  0  0  0  0  0  0  0  0  0  0  0
   13.3448  -19.7643   26.5807 O   0  0  0  0  0  0  0  0  0  0  0  0
   11.8413  -18.2236   27.2757 O   0  0  0  0  0  0  0  0  0  0  0  0
  2  1  1  0
  3  2  2  0
  4  3  1  0
  5 11  1  0
  5  4  2  0
  6  5  1  0
  7  6  1  0
  7  8  1  1
  9 13  1  0
  9  7  1  0
 10  9  2  0
 11 12  2  0
 12  2  1  0
 14 13  1  0
 14 15  1  1
 15 16  1  0
 16 17  2  0
 17 18  1  0
 19 18  1  0
 20 19  2  0
 21 20  1  0
 22 23  1  0
 22 21  2  0
 23 24  2  0
 24 16  1  0
 24 19  1  0
 25 14  1  0
 26 25  2  0
 27 28  1  0
 29 28  1  1
 29 30  1  0
 30 25  1  0
 31 33  1  0
 31 29  1  0
 32 31  2  0
M  END
$$$$
