YWS.pdb
     RDKit          3D

 33 35  0  0  1  0  0  0  0  0999 V2000
    7.2464  -13.5059   16.0687 O   0  0  0  0  0  0  0  0  0  0  0  0
    7.7160  -13.7047   17.3571 C   0  0  0  0  0  0  0  0  0  0  0  0
    7.0060  -13.1662   18.4284 C   0  0  0  0  0  0  0  0  0  0  0  0
    7.4062  -13.3191   19.7352 C   0  0  0  0  0  0  0  0  0  0  0  0
    8.5675  -14.0408   20.0029 C   0  0  0  0  0  0  0  0  0  0  0  0
    8.9642  -14.1836   21.4219 C   0  0  0  0  0  0  0  0  0  0  0  0
    9.2591  -15.6511   21.7226 C   0  0  2  0  0  0  0  0  0  0  0  0
    8.1032  -16.4694   21.4203 N   0  0  0  0  0  0  0  0  0  0  0  0
    9.6502  -15.8122   23.1449 C   0  0  0  0  0  0  0  0  0  0  0  0
   10.5993  -15.1309   23.6450 O   0  0  0  0  0  0  0  0  0  0  0  0
    9.2661  -14.5715   18.9378 C   0  0  0  0  0  0  0  0  0  0  0  0
    8.8546  -14.4111   17.6338 C   0  0  0  0  0  0  0  0  0  0  0  0
    9.0121  -16.7163   24.0352 N   0  0  0  0  0  0  0  0  0  0  0  0
    9.4331  -16.8474   25.4084 C   0  0  1  0  0  0  0  0  0  0  0  0
    8.2081  -16.8913   26.2831 C   0  0  0  0  0  0  0  0  0  0  0  0
    7.3422  -15.6911   26.0303 C   0  0  0  0  0  0  0  0  0  0  0  0
    6.1163  -15.6608   25.3792 C   0  0  0  0  0  0  0  0  0  0  0  0
    5.6751  -14.3911   25.3667 N   0  0  0  0  0  0  0  0  0  0  0  0
    6.5453  -13.5696   25.9773 C   0  0  0  0  0  0  0  0  0  0  0  0
    6.5668  -12.2043   26.2297 C   0  0  0  0  0  0  0  0  0  0  0  0
    7.6576  -11.6799   26.9065 C   0  0  0  0  0  0  0  0  0  0  0  0
    8.7040  -12.4661   27.3282 C   0  0  0  0  0  0  0  0  0  0  0  0
    8.6427  -13.8173   27.0570 C   0  0  0  0  0  0  0  0  0  0  0  0
    7.5865  -14.3801   26.3919 C   0  0  0  0  0  0  0  0  0  0  0  0
   10.3389  -17.9905   25.6214 C   0  0  0  0  0  0  0  0  0  0  0  0
   10.0517  -19.0830   25.0686 O   0  0  0  0  0  0  0  0  0  0  0  0
   13.9019  -18.5709   25.4305 O   0  0  0  0  0  0  0  0  0  0  0  0
   13.6283  -19.0007   26.7158 C   0  0  0  0  0  0  0  0  0  0  0  0
   12.1173  -19.1024   26.9312 C   0  0  2  0  0  0  0  0  0  0  0  0
   11.5143  -17.8848   26.4273 N   0  0  0  0  0  0  0  0  0  0  0  0
   11.8791  -19.2885   28.3634 C   0  0  0  0  0  0  0  0  0  0  0  0
   11.2038  -18.4120   28.9681 O   0  0  0  0  0  0  0  0  0  0  0  0
   12.3467  -20.3605   29.0890 O   0  0  0  0  0  0  0  0  0  0  0  0
  2  1  1  0
  3  2  2  0
  4  3  1  0
  5 11  1  0
  5  4  2  0
  6  5  1  0
  7  6  1  0
  7  8  1  1
  9 13  1  0
  9  7  1  0
 10  9  2  0
 11 12  2  0
 12  2  1  0
 14 13  1  0
 14 15  1  1
 15 16  1  0
 16 17  2  0
 17 18  1  0
 19 18  1  0
 20 19  2  0
 21 20  1  0
 22 23  1  0
 22 21  2  0
 23 24  2  0
 24 16  1  0
 24 19  1  0
 25 14  1  0
 26 25  2  0
 27 28  1  0
 29 28  1  1
 29 30  1  0
 30 25  1  0
 31 33  1  0
 31 29  1  0
 32 31  2  0
M  END
$$$$
