YWS.pdb
     RDKit          3D

 33 35  0  0  1  0  0  0  0  0999 V2000
   12.0160  -21.1896   15.0214 O   0  0  0  0  0  0  0  0  0  0  0  0
   11.7994  -20.4482   16.1718 C   0  0  0  0  0  0  0  0  0  0  0  0
   12.2684  -20.9346   17.3905 C   0  0  0  0  0  0  0  0  0  0  0  0
   12.0935  -20.2589   18.5755 C   0  0  0  0  0  0  0  0  0  0  0  0
   11.4211  -19.0388   18.5611 C   0  0  0  0  0  0  0  0  0  0  0  0
   11.2539  -18.3422   19.8565 C   0  0  0  0  0  0  0  0  0  0  0  0
   10.4367  -17.0694   19.6480 C   0  0  2  0  0  0  0  0  0  0  0  0
   11.1323  -16.1645   18.7568 N   0  0  0  0  0  0  0  0  0  0  0  0
   10.1742  -16.4120   20.9522 C   0  0  0  0  0  0  0  0  0  0  0  0
   11.0773  -15.7385   21.5403 O   0  0  0  0  0  0  0  0  0  0  0  0
   10.9591  -18.5625   17.3511 C   0  0  0  0  0  0  0  0  0  0  0  0
   11.1407  -19.2490   16.1716 C   0  0  0  0  0  0  0  0  0  0  0  0
    8.9268  -16.4819   21.6276 N   0  0  0  0  0  0  0  0  0  0  0  0
    8.7490  -15.9224   22.9450 C   0  0  1  0  0  0  0  0  0  0  0  0
    7.3151  -15.4863   23.0909 C   0  0  0  0  0  0  0  0  0  0  0  0
    7.0422  -15.0511   24.5017 C   0  0  0  0  0  0  0  0  0  0  0  0
    6.5341  -15.8244   25.5368 C   0  0  0  0  0  0  0  0  0  0  0  0
    6.4437  -15.0546   26.6351 N   0  0  0  0  0  0  0  0  0  0  0  0
    6.8663  -13.8038   26.3864 C   0  0  0  0  0  0  0  0  0  0  0  0
    6.9760  -12.6530   27.1557 C   0  0  0  0  0  0  0  0  0  0  0  0
    7.4689  -11.5058   26.5525 C   0  0  0  0  0  0  0  0  0  0  0  0
    7.8467  -11.4788   25.2306 C   0  0  0  0  0  0  0  0  0  0  0  0
    7.7216  -12.6438   24.5025 C   0  0  0  0  0  0  0  0  0  0  0  0
    7.2401  -13.8005   25.0548 C   0  0  0  0  0  0  0  0  0  0  0  0
    9.1899  -16.8333   24.0167 C   0  0  0  0  0  0  0  0  0  0  0  0
    8.8051  -18.0298   23.9707 O   0  0  0  0  0  0  0  0  0  0  0  0
   12.6482  -16.5711   25.6237 O   0  0  0  0  0  0  0  0  0  0  0  0
   11.9017  -17.7181   25.8195 C   0  0  0  0  0  0  0  0  0  0  0  0
   10.4383  -17.3603   26.0851 C   0  0  2  0  0  0  0  0  0  0  0  0
   10.0296  -16.3934   25.0861 N   0  0  0  0  0  0  0  0  0  0  0  0
   10.3459  -16.8266   27.4449 C   0  0  0  0  0  0  0  0  0  0  0  0
    9.9123  -15.6514   27.5894 O   0  0  0  0  0  0  0  0  0  0  0  0
   10.7028  -17.5285   28.5737 O   0  0  0  0  0  0  0  0  0  0  0  0
  2  1  1  0
  3  2  2  0
  4  3  1  0
  5 11  1  0
  5  4  2  0
  6  5  1  0
  7  6  1  0
  7  8  1  6
  9 13  1  0
  9  7  1  0
 10  9  2  0
 11 12  2  0
 12  2  1  0
 14 13  1  0
 14 15  1  1
 15 16  1  0
 16 17  2  0
 17 18  1  0
 19 18  1  0
 20 19  2  0
 21 20  1  0
 22 23  1  0
 22 21  2  0
 23 24  2  0
 24 16  1  0
 24 19  1  0
 25 14  1  0
 26 25  2  0
 27 28  1  0
 29 28  1  6
 29 30  1  0
 30 25  1  0
 31 33  1  0
 31 29  1  0
 32 31  2  0
M  END
$$$$
