SCD.pdb
     RDKit          3D

 21 20  0  0  1  0  0  0  0  0999 V2000
   21.7146  -11.0619  -20.7101 O   0  0  0  0  0  0  0  0  0  0  0  0
   21.0133  -10.4643  -19.6680 C   0  0  0  0  0  0  0  0  0  0  0  0
   21.1846  -11.2180  -18.3648 C   0  0  2  0  0  0  0  0  0  0  0  0
   20.2105  -12.3089  -18.4152 N   0  0  0  0  0  0  0  0  0  0  0  0
   20.9340  -10.3930  -17.1874 C   0  0  0  0  0  0  0  0  0  0  0  0
   19.7403  -10.0992  -16.8682 O   0  0  0  0  0  0  0  0  0  0  0  0
   21.9361   -9.8662  -16.3292 N   0  0  0  0  0  0  0  0  0  0  0  0
   21.6338   -9.0248  -15.1884 C   0  0  1  0  0  0  0  0  0  0  0  0
   22.6866   -9.4042  -14.1303 C   0  0  0  0  0  0  0  0  0  0  0  0
   22.4063   -8.5167  -12.5875 S   0  0  0  0  0  0  0  0  0  0  0  0
   21.8647   -7.5947  -15.4648 C   0  0  0  0  0  0  0  0  0  0  0  0
   22.9066   -7.2776  -16.1036 O   0  0  0  0  0  0  0  0  0  0  0  0
   20.9977   -6.5638  -15.0609 N   0  0  0  0  0  0  0  0  0  0  0  0
   21.1747   -5.1458  -15.3849 C   0  0  1  0  0  0  0  0  0  0  0  0
   19.8869   -4.5150  -15.7750 C   0  0  0  0  0  0  0  0  0  0  0  0
   20.0756   -3.0975  -16.1205 C   0  0  0  0  0  0  0  0  0  0  0  0
   21.1764   -2.5067  -16.2499 O   0  0  0  0  0  0  0  0  0  0  0  0
   21.6338   -4.5217  -14.0893 C   0  0  0  0  0  0  0  0  0  0  0  0
   22.2215   -3.2488  -14.1120 O   0  0  0  0  0  0  0  0  0  0  0  0
   18.9591   -2.2516  -16.3443 O   0  0  0  0  0  0  0  0  0  0  0  0
   21.4843   -5.1449  -13.0213 O   0  0  0  0  0  0  0  0  0  0  0  0
  2  1  1  0
  3  2  1  0
  3  5  1  0
  3  4  1  6
  5  6  2  0
  7  8  1  0
  7  5  1  0
  8  9  1  1
 10  9  1  0
 11  8  1  0
 11 13  1  0
 12 11  2  0
 14 13  1  0
 14 15  1  1
 15 16  1  0
 16 20  1  0
 17 16  2  0
 18 14  1  0
 19 18  1  0
 21 18  2  0
M  END
$$$$
