SCD.pdb
     RDKit          3D

 21 20  0  0  1  0  0  0  0  0999 V2000
   18.4500   -8.9022  -18.7413 O   0  0  0  0  0  0  0  0  0  0  0  0
   19.7826   -9.0595  -18.3750 C   0  0  0  0  0  0  0  0  0  0  0  0
   19.9267   -9.4596  -16.9207 C   0  0  2  0  0  0  0  0  0  0  0  0
   18.7721  -10.3124  -16.6355 N   0  0  0  0  0  0  0  0  0  0  0  0
   19.9293   -8.3198  -16.0093 C   0  0  0  0  0  0  0  0  0  0  0  0
   18.8338   -7.7501  -15.7121 O   0  0  0  0  0  0  0  0  0  0  0  0
   21.0849   -7.7640  -15.3978 N   0  0  0  0  0  0  0  0  0  0  0  0
   21.0512   -6.5494  -14.6077 C   0  0  1  0  0  0  0  0  0  0  0  0
   22.4144   -6.5081  -13.8922 C   0  0  0  0  0  0  0  0  0  0  0  0
   22.5156   -5.1041  -12.7675 S   0  0  0  0  0  0  0  0  0  0  0  0
   21.0181   -5.3339  -15.4421 C   0  0  0  0  0  0  0  0  0  0  0  0
   21.7848   -5.2846  -16.4441 O   0  0  0  0  0  0  0  0  0  0  0  0
   20.1869   -4.2277  -15.1908 N   0  0  0  0  0  0  0  0  0  0  0  0
   20.0882   -3.0430  -16.0473 C   0  0  1  0  0  0  0  0  0  0  0  0
   18.8604   -3.0808  -16.8838 C   0  0  0  0  0  0  0  0  0  0  0  0
   18.7080   -1.8379  -17.6561 C   0  0  0  0  0  0  0  0  0  0  0  0
   17.8193   -0.9663  -17.4891 O   0  0  0  0  0  0  0  0  0  0  0  0
   19.9653   -1.8916  -15.0787 C   0  0  0  0  0  0  0  0  0  0  0  0
   20.4659   -0.6334  -15.4425 O   0  0  0  0  0  0  0  0  0  0  0  0
   19.6094   -1.5215  -18.7047 O   0  0  0  0  0  0  0  0  0  0  0  0
   19.4222   -2.0755  -13.9730 O   0  0  0  0  0  0  0  0  0  0  0  0
  2  1  1  0
  3  2  1  0
  3  5  1  0
  3  4  1  1
  5  6  2  0
  7  8  1  0
  7  5  1  0
  8  9  1  1
 10  9  1  0
 11  8  1  0
 11 13  1  0
 12 11  2  0
 14 13  1  0
 14 15  1  6
 15 16  1  0
 16 20  1  0
 17 16  2  0
 18 14  1  0
 19 18  1  0
 21 18  2  0
M  END
$$$$
