SCD.pdb
     RDKit          3D

 21 20  0  0  1  0  0  0  0  0999 V2000
   21.9955  -13.0344  -14.0171 O   0  0  0  0  0  0  0  0  0  0  0  0
   22.4444  -11.7323  -14.2116 C   0  0  0  0  0  0  0  0  0  0  0  0
   23.0828  -11.5510  -15.5737 C   0  0  2  0  0  0  0  0  0  0  0  0
   24.3891  -12.2041  -15.4813 N   0  0  0  0  0  0  0  0  0  0  0  0
   23.2617  -10.1502  -15.9420 C   0  0  0  0  0  0  0  0  0  0  0  0
   24.3071   -9.5315  -15.5715 O   0  0  0  0  0  0  0  0  0  0  0  0
   22.3430   -9.3814  -16.7057 N   0  0  0  0  0  0  0  0  0  0  0  0
   22.5769   -7.9947  -17.0566 C   0  0  1  0  0  0  0  0  0  0  0  0
   22.1197   -7.8779  -18.5226 C   0  0  0  0  0  0  0  0  0  0  0  0
   22.3296   -6.1970  -19.1367 S   0  0  0  0  0  0  0  0  0  0  0  0
   21.7073   -7.0685  -16.3077 C   0  0  0  0  0  0  0  0  0  0  0  0
   20.5316   -7.4457  -16.0439 O   0  0  0  0  0  0  0  0  0  0  0  0
   22.1059   -5.7927  -15.8705 N   0  0  0  0  0  0  0  0  0  0  0  0
   21.2527   -4.8550  -15.1359 C   0  0  1  0  0  0  0  0  0  0  0  0
   22.0091   -3.6440  -14.7237 C   0  0  0  0  0  0  0  0  0  0  0  0
   21.1828   -2.7654  -13.8814 C   0  0  0  0  0  0  0  0  0  0  0  0
   20.0246   -3.0144  -13.4640 O   0  0  0  0  0  0  0  0  0  0  0  0
   20.2048   -4.4391  -16.1398 C   0  0  0  0  0  0  0  0  0  0  0  0
   18.8509   -4.6587  -15.8482 O   0  0  0  0  0  0  0  0  0  0  0  0
   21.6681   -1.5013  -13.4586 O   0  0  0  0  0  0  0  0  0  0  0  0
   20.5570   -3.9084  -17.2101 O   0  0  0  0  0  0  0  0  0  0  0  0
  2  1  1  0
  3  2  1  0
  3  5  1  0
  3  4  1  1
  5  6  2  0
  7  8  1  0
  7  5  1  0
  8  9  1  6
 10  9  1  0
 11  8  1  0
 11 13  1  0
 12 11  2  0
 14 13  1  0
 14 15  1  6
 15 16  1  0
 16 20  1  0
 17 16  2  0
 18 14  1  0
 19 18  1  0
 21 18  2  0
M  END
$$$$
