SCD.pdb
     RDKit          3D

 21 20  0  0  1  0  0  0  0  0999 V2000
   36.2094  -11.5238  -17.2595 O   0  0  0  0  0  0  0  0  0  0  0  0
   36.0771  -10.1391  -17.2541 C   0  0  0  0  0  0  0  0  0  0  0  0
   34.6382   -9.7070  -17.4502 C   0  0  2  0  0  0  0  0  0  0  0  0
   34.3230  -10.0243  -18.8436 N   0  0  0  0  0  0  0  0  0  0  0  0
   34.4296   -8.2820  -17.2144 C   0  0  0  0  0  0  0  0  0  0  0  0
   34.7481   -7.4429  -18.1129 O   0  0  0  0  0  0  0  0  0  0  0  0
   33.8823   -7.7204  -16.0297 N   0  0  0  0  0  0  0  0  0  0  0  0
   33.7001   -6.2944  -15.8451 C   0  0  1  0  0  0  0  0  0  0  0  0
   32.2240   -6.1367  -15.4351 C   0  0  0  0  0  0  0  0  0  0  0  0
   31.3411   -5.0662  -16.5845 S   0  0  0  0  0  0  0  0  0  0  0  0
   34.4740   -5.7694  -14.7049 C   0  0  0  0  0  0  0  0  0  0  0  0
   34.5638   -6.4886  -13.6710 O   0  0  0  0  0  0  0  0  0  0  0  0
   35.1167   -4.5185  -14.6976 N   0  0  0  0  0  0  0  0  0  0  0  0
   35.8864   -3.9792  -13.5735 C   0  0  1  0  0  0  0  0  0  0  0  0
   37.2806   -3.6593  -13.9762 C   0  0  0  0  0  0  0  0  0  0  0  0
   38.0203   -3.0327  -12.8696 C   0  0  0  0  0  0  0  0  0  0  0  0
   37.9354   -3.3390  -11.6545 O   0  0  0  0  0  0  0  0  0  0  0  0
   35.1859   -2.6875  -13.2273 C   0  0  0  0  0  0  0  0  0  0  0  0
   34.3684   -2.0727  -14.1864 O   0  0  0  0  0  0  0  0  0  0  0  0
   38.9345   -1.9764  -13.1157 O   0  0  0  0  0  0  0  0  0  0  0  0
   35.3438   -2.1877  -12.0975 O   0  0  0  0  0  0  0  0  0  0  0  0
  2  1  1  0
  3  2  1  0
  3  5  1  0
  3  4  1  6
  5  6  2  0
  7  8  1  0
  7  5  1  0
  8  9  1  1
 10  9  1  0
 11  8  1  0
 11 13  1  0
 12 11  2  0
 14 13  1  0
 14 15  1  6
 15 16  1  0
 16 20  1  0
 17 16  2  0
 18 14  1  0
 19 18  1  0
 21 18  2  0
M  END
$$$$
