SCD.pdb
     RDKit          3D

 21 20  0  0  1  0  0  0  0  0999 V2000
   15.3323  -11.3963  -16.5198 O   0  0  0  0  0  0  0  0  0  0  0  0
   16.2442  -11.0201  -15.5391 C   0  0  0  0  0  0  0  0  0  0  0  0
   17.5427  -11.7936  -15.6467 C   0  0  2  0  0  0  0  0  0  0  0  0
   17.3306  -13.0193  -14.8758 N   0  0  0  0  0  0  0  0  0  0  0  0
   18.6888  -11.0691  -15.1069 C   0  0  0  0  0  0  0  0  0  0  0  0
   18.9176  -11.0953  -13.8580 O   0  0  0  0  0  0  0  0  0  0  0  0
   19.6103  -10.3073  -15.8743 N   0  0  0  0  0  0  0  0  0  0  0  0
   20.7457   -9.6221  -15.2893 C   0  0  1  0  0  0  0  0  0  0  0  0
   21.9778  -10.2711  -15.9469 C   0  0  0  0  0  0  0  0  0  0  0  0
   23.5017   -9.4960  -15.3785 S   0  0  0  0  0  0  0  0  0  0  0  0
   20.8076   -8.2004  -15.6761 C   0  0  0  0  0  0  0  0  0  0  0  0
   20.6292   -7.9111  -16.8921 O   0  0  0  0  0  0  0  0  0  0  0  0
   21.0534   -7.1486  -14.7756 N   0  0  0  0  0  0  0  0  0  0  0  0
   21.0830   -5.7284  -15.1350 C   0  0  1  0  0  0  0  0  0  0  0  0
   20.6843   -4.8715  -13.9882 C   0  0  0  0  0  0  0  0  0  0  0  0
   20.5899   -3.4596  -14.3906 C   0  0  0  0  0  0  0  0  0  0  0  0
   20.7646   -3.0060  -15.5487 O   0  0  0  0  0  0  0  0  0  0  0  0
   22.5337   -5.4532  -15.4492 C   0  0  0  0  0  0  0  0  0  0  0  0
   22.8653   -4.8155  -16.6531 O   0  0  0  0  0  0  0  0  0  0  0  0
   20.2760   -2.4548  -13.4397 O   0  0  0  0  0  0  0  0  0  0  0  0
   23.4130   -5.7959  -14.6364 O   0  0  0  0  0  0  0  0  0  0  0  0
  2  1  1  0
  3  2  1  0
  3  5  1  0
  3  4  1  1
  5  6  2  0
  7  8  1  0
  7  5  1  0
  8  9  1  6
 10  9  1  0
 11  8  1  0
 11 13  1  0
 12 11  2  0
 14 13  1  0
 14 15  1  1
 15 16  1  0
 16 20  1  0
 17 16  2  0
 18 14  1  0
 19 18  1  0
 21 18  2  0
M  END
$$$$
