MSP.pdb
     RDKit          3D

 22 22  0  0  1  0  0  0  0  0999 V2000
   17.1358  -14.1395  -14.4826 C   0  0  0  0  0  0  0  0  0  0  0  0
   16.7056  -13.4031  -16.0485 S   0  0  0  0  0  0  0  0  0  0  0  0
   18.0674  -13.1178  -17.1722 C   0  0  0  0  0  0  0  0  0  0  0  0
   19.0073  -12.0687  -16.6875 C   0  0  0  0  0  0  0  0  0  0  0  0
   20.1362  -11.8528  -17.6512 C   0  0  2  0  0  0  0  0  0  0  0  0
   21.0041  -13.0124  -17.7266 N   0  0  0  0  0  0  0  0  0  0  0  0
   20.9692  -10.6862  -17.2009 C   0  0  0  0  0  0  0  0  0  0  0  0
   21.7377  -10.7990  -16.2074 O   0  0  0  0  0  0  0  0  0  0  0  0
   20.7577   -7.2853  -19.3065 O   0  0  0  0  0  0  0  0  0  0  0  0
   22.0217   -7.5581  -18.7223 C   0  0  0  0  0  0  0  0  0  0  0  0
   21.7250   -8.3186  -17.4419 C   0  0  2  0  0  0  0  0  0  0  0  0
   20.8993   -9.4619  -17.8815 N   0  0  0  0  0  0  0  0  0  0  0  0
   20.9392   -7.5542  -16.4639 C   0  0  0  0  0  0  0  0  0  0  0  0
   19.6578   -7.7014  -16.4682 O   0  0  0  0  0  0  0  0  0  0  0  0
   21.4529   -6.6544  -15.4958 N   0  0  0  0  0  0  0  0  0  0  0  0
   22.9091   -6.4488  -15.3202 C   0  0  0  0  0  0  0  0  0  0  0  0
   22.9246   -6.3273  -13.7864 C   0  0  0  0  0  0  0  0  0  0  0  0
   21.8450   -5.2866  -13.6265 C   0  0  0  0  0  0  0  0  0  0  0  0
   20.7521   -5.8337  -14.5582 C   0  0  1  0  0  0  0  0  0  0  0  0
   20.0443   -4.6999  -15.2083 C   0  0  0  0  0  0  0  0  0  0  0  0
   19.1304   -4.1308  -14.5917 O   0  0  0  0  0  0  0  0  0  0  0  0
   20.3873   -4.2787  -16.4725 O   0  0  0  0  0  0  0  0  0  0  0  0
  2  1  1  0
  3  2  1  0
  4  3  1  0
  4  5  1  0
  5  7  1  0
  5  6  1  1
  7  8  2  0
  9 10  1  0
 11 10  1  6
 11 13  1  0
 12 11  1  0
 12  7  1  0
 13 15  1  0
 14 13  2  0
 15 19  1  0
 15 16  1  0
 16 17  1  0
 18 17  1  0
 19 18  1  0
 20 22  1  0
 19 20  1  6
 21 20  2  0
M  END
$$$$
