MSP.pdb
     RDKit          3D

 22 22  0  0  1  0  0  0  0  0999 V2000
   26.6429  -25.5376  -15.7293 C   0  0  0  0  0  0  0  0  0  0  0  0
   26.7441  -25.9292  -17.4658 S   0  0  0  0  0  0  0  0  0  0  0  0
   27.4994  -24.6809  -18.5003 C   0  0  0  0  0  0  0  0  0  0  0  0
   27.1706  -23.2941  -18.0670 C   0  0  0  0  0  0  0  0  0  0  0  0
   28.4019  -22.5341  -17.6720 C   0  0  2  0  0  0  0  0  0  0  0  0
   29.5836  -23.3744  -17.7087 N   0  0  0  0  0  0  0  0  0  0  0  0
   28.2498  -22.0194  -16.2686 C   0  0  0  0  0  0  0  0  0  0  0  0
   28.8454  -22.5889  -15.3140 O   0  0  0  0  0  0  0  0  0  0  0  0
   26.2731  -18.4720  -15.5353 O   0  0  0  0  0  0  0  0  0  0  0  0
   27.4662  -18.8350  -14.8585 C   0  0  0  0  0  0  0  0  0  0  0  0
   27.3752  -20.3357  -14.6452 C   0  0  2  0  0  0  0  0  0  0  0  0
   27.4443  -20.9012  -16.0082 N   0  0  0  0  0  0  0  0  0  0  0  0
   26.1081  -20.7761  -14.0463 C   0  0  0  0  0  0  0  0  0  0  0  0
   25.1980  -21.2458  -14.8303 O   0  0  0  0  0  0  0  0  0  0  0  0
   25.7751  -20.7389  -12.6683 N   0  0  0  0  0  0  0  0  0  0  0  0
   26.7379  -20.2642  -11.6480 C   0  0  0  0  0  0  0  0  0  0  0  0
   26.3930  -21.2759  -10.5412 C   0  0  0  0  0  0  0  0  0  0  0  0
   24.8965  -21.0915  -10.5183 C   0  0  0  0  0  0  0  0  0  0  0  0
   24.5613  -21.1226  -12.0179 C   0  0  1  0  0  0  0  0  0  0  0  0
   23.4433  -20.1830  -12.2937 C   0  0  0  0  0  0  0  0  0  0  0  0
   23.7028  -19.0613  -12.7559 O   0  0  0  0  0  0  0  0  0  0  0  0
   22.1376  -20.5392  -12.0449 O   0  0  0  0  0  0  0  0  0  0  0  0
  2  1  1  0
  3  2  1  0
  4  3  1  0
  4  5  1  0
  5  7  1  0
  5  6  1  1
  7  8  2  0
  9 10  1  0
 11 10  1  6
 11 13  1  0
 12 11  1  0
 12  7  1  0
 13 15  1  0
 14 13  2  0
 15 19  1  0
 15 16  1  0
 16 17  1  0
 18 17  1  0
 19 18  1  0
 20 22  1  0
 19 20  1  1
 21 20  2  0
M  END
$$$$
