MSP.pdb
     RDKit          3D

 22 22  0  0  1  0  0  0  0  0999 V2000
   31.0824  -21.4495  -10.1100 C   0  0  0  0  0  0  0  0  0  0  0  0
   29.7291  -22.0042   -9.0901 S   0  0  0  0  0  0  0  0  0  0  0  0
   28.1955  -21.1033   -9.2781 C   0  0  0  0  0  0  0  0  0  0  0  0
   27.6070  -21.2409  -10.6396 C   0  0  0  0  0  0  0  0  0  0  0  0
   26.3825  -20.3894  -10.7989 C   0  0  2  0  0  0  0  0  0  0  0  0
   25.2448  -20.9523  -10.0972 N   0  0  0  0  0  0  0  0  0  0  0  0
   26.0204  -20.2918  -12.2538 C   0  0  0  0  0  0  0  0  0  0  0  0
   24.8783  -20.6505  -12.6506 O   0  0  0  0  0  0  0  0  0  0  0  0
   27.2656  -17.3025  -14.6602 O   0  0  0  0  0  0  0  0  0  0  0  0
   27.6153  -18.6023  -15.1093 C   0  0  0  0  0  0  0  0  0  0  0  0
   26.5346  -19.5247  -14.5738 C   0  0  2  0  0  0  0  0  0  0  0  0
   26.9491  -19.8010  -13.1831 N   0  0  0  0  0  0  0  0  0  0  0  0
   26.4498  -20.8127  -15.2753 C   0  0  0  0  0  0  0  0  0  0  0  0
   27.2812  -21.7406  -14.9416 O   0  0  0  0  0  0  0  0  0  0  0  0
   25.5300  -21.1492  -16.3008 N   0  0  0  0  0  0  0  0  0  0  0  0
   24.5259  -20.1788  -16.7943 C   0  0  0  0  0  0  0  0  0  0  0  0
   23.3560  -21.1599  -16.9856 C   0  0  0  0  0  0  0  0  0  0  0  0
   24.0669  -22.2100  -17.8018 C   0  0  0  0  0  0  0  0  0  0  0  0
   25.3733  -22.3803  -17.0105 C   0  0  1  0  0  0  0  0  0  0  0  0
   26.4915  -22.6426  -17.9538 C   0  0  0  0  0  0  0  0  0  0  0  0
   27.2611  -21.7140  -18.2446 O   0  0  0  0  0  0  0  0  0  0  0  0
   26.6808  -23.8903  -18.5024 O   0  0  0  0  0  0  0  0  0  0  0  0
  2  1  1  0
  3  2  1  0
  4  3  1  0
  4  5  1  0
  5  7  1  0
  5  6  1  1
  7  8  2  0
  9 10  1  0
 11 10  1  6
 11 13  1  0
 12 11  1  0
 12  7  1  0
 13 15  1  0
 14 13  2  0
 15 19  1  0
 15 16  1  0
 16 17  1  0
 18 17  1  0
 19 18  1  0
 20 22  1  0
 19 20  1  6
 21 20  2  0
M  END
$$$$
