MSP.pdb
     RDKit          3D

 22 22  0  0  1  0  0  0  0  0999 V2000
   31.0196  -20.9566   -6.9042 C   0  0  0  0  0  0  0  0  0  0  0  0
   31.9806  -22.1206   -7.8532 S   0  0  0  0  0  0  0  0  0  0  0  0
   31.3466  -22.5062   -9.4805 C   0  0  0  0  0  0  0  0  0  0  0  0
   30.0761  -21.7930   -9.7903 C   0  0  0  0  0  0  0  0  0  0  0  0
   29.6264  -22.0548  -11.1970 C   0  0  2  0  0  0  0  0  0  0  0  0
   30.6923  -21.8182  -12.1518 N   0  0  0  0  0  0  0  0  0  0  0  0
   28.4893  -21.1360  -11.5436 C   0  0  0  0  0  0  0  0  0  0  0  0
   28.2653  -20.1096  -10.8458 O   0  0  0  0  0  0  0  0  0  0  0  0
   27.7731  -20.7468  -14.9755 O   0  0  0  0  0  0  0  0  0  0  0  0
   27.0357  -19.7832  -14.2398 C   0  0  0  0  0  0  0  0  0  0  0  0
   26.5560  -20.5014  -12.9909 C   0  0  2  0  0  0  0  0  0  0  0  0
   27.6671  -21.4117  -12.6459 N   0  0  0  0  0  0  0  0  0  0  0  0
   25.3575  -21.3246  -13.2008 C   0  0  0  0  0  0  0  0  0  0  0  0
   25.5197  -22.5418  -13.5954 O   0  0  0  0  0  0  0  0  0  0  0  0
   24.0140  -20.9125  -13.0100 N   0  0  0  0  0  0  0  0  0  0  0  0
   23.6786  -19.5543  -12.5241 C   0  0  0  0  0  0  0  0  0  0  0  0
   22.4973  -19.9376  -11.6157 C   0  0  0  0  0  0  0  0  0  0  0  0
   21.7057  -20.7597  -12.6015 C   0  0  0  0  0  0  0  0  0  0  0  0
   22.8032  -21.6449  -13.2129 C   0  0  1  0  0  0  0  0  0  0  0  0
   22.5082  -21.8745  -14.6514 C   0  0  0  0  0  0  0  0  0  0  0  0
   23.1578  -21.2497  -15.5039 O   0  0  0  0  0  0  0  0  0  0  0  0
   21.5333  -22.7626  -15.0442 O   0  0  0  0  0  0  0  0  0  0  0  0
  2  1  1  0
  3  2  1  0
  4  3  1  0
  4  5  1  0
  5  7  1  0
  5  6  1  6
  7  8  2  0
  9 10  1  0
 11 10  1  6
 11 13  1  0
 12 11  1  0
 12  7  1  0
 13 15  1  0
 14 13  2  0
 15 19  1  0
 15 16  1  0
 16 17  1  0
 18 17  1  0
 19 18  1  0
 20 22  1  0
 19 20  1  6
 21 20  2  0
M  END
$$$$
