ACR.pdb
     RDKit          3D

 23 22  0  0  1  0  0  0  0  0999 V2000
    5.5887  -19.4684   19.4472 C   0  0  0  0  0  0  0  0  0  0  0  0
    5.3553  -18.5465   20.6228 C   0  0  2  0  0  0  0  0  0  0  0  0
    4.0624  -17.9195   20.4337 N   0  0  0  0  0  0  0  0  0  0  0  0
    6.4501  -17.5256   20.6105 C   0  0  0  0  0  0  0  0  0  0  0  0
    7.6506  -17.8420   20.8101 O   0  0  0  0  0  0  0  0  0  0  0  0
    6.1906  -16.1470   20.3737 N   0  0  0  0  0  0  0  0  0  0  0  0
    7.2301  -15.1447   20.5022 C   0  0  1  0  0  0  0  0  0  0  0  0
    6.6952  -13.8475   19.9854 C   0  0  0  0  0  0  0  0  0  0  0  0
    7.7872  -12.4478   20.3497 S   0  0  0  0  0  0  0  0  0  0  0  0
    7.6912  -15.0518   21.9068 C   0  0  0  0  0  0  0  0  0  0  0  0
    6.9588  -14.7423   22.8637 O   0  0  0  0  0  0  0  0  0  0  0  0
    6.8674  -19.6462   27.7244 N   0  0  0  0  0  0  0  0  0  0  0  0
    7.2778  -19.6371   26.3725 C   0  0  0  0  0  0  0  0  0  0  0  0
    6.9133  -20.5859   25.5646 N   0  0  0  0  0  0  0  0  0  0  0  0
    8.0975  -18.6115   25.8243 N   0  0  0  0  0  0  0  0  0  0  0  0
    8.5057  -17.4954   26.6390 C   0  0  0  0  0  0  0  0  0  0  0  0
    9.3576  -16.5095   25.8331 C   0  0  0  0  0  0  0  0  0  0  0  0
    8.8457  -16.4064   24.4187 C   0  0  0  0  0  0  0  0  0  0  0  0
    9.5293  -15.3571   23.6063 C   0  0  2  0  0  0  0  0  0  0  0  0
    9.0669  -15.3290   22.2281 N   0  0  0  0  0  0  0  0  0  0  0  0
   10.9740  -15.7044   23.5660 C   0  0  0  0  0  0  0  0  0  0  0  0
   11.5489  -16.1520   22.5232 O   0  0  0  0  0  0  0  0  0  0  0  0
   11.7917  -15.5593   24.6765 O   0  0  0  0  0  0  0  0  0  0  0  0
  2  1  1  6
  2  3  1  0
  4  5  2  0
  4  2  1  0
  6  4  1  0
  7 10  1  0
  7  6  1  0
  7  8  1  1
  9  8  1  0
 10 20  1  0
 11 10  2  0
 12 13  1  0
 13 15  1  0
 13 14  2  0
 15 16  1  0
 17 16  1  0
 18 17  1  0
 19 18  1  1
 20 19  1  0
 21 23  1  0
 21 19  1  0
 22 21  2  0
M  END
$$$$
