ACR.pdb
     RDKit          3D

 23 22  0  0  1  0  0  0  0  0999 V2000
    7.1285  -14.7644   20.2003 C   0  0  0  0  0  0  0  0  0  0  0  0
    7.3436  -13.3316   20.6327 C   0  0  2  0  0  0  0  0  0  0  0  0
    8.1657  -12.6920   19.6249 N   0  0  0  0  0  0  0  0  0  0  0  0
    8.0490  -13.3672   21.9525 C   0  0  0  0  0  0  0  0  0  0  0  0
    9.3035  -13.4050   22.0302 O   0  0  0  0  0  0  0  0  0  0  0  0
    7.3391  -13.3606   23.1854 N   0  0  0  0  0  0  0  0  0  0  0  0
    8.0275  -13.4311   24.4594 C   0  0  1  0  0  0  0  0  0  0  0  0
    7.2088  -12.6988   25.4742 C   0  0  0  0  0  0  0  0  0  0  0  0
    5.5998  -13.4796   25.7675 S   0  0  0  0  0  0  0  0  0  0  0  0
    8.2764  -14.8413   24.8380 C   0  0  0  0  0  0  0  0  0  0  0  0
    7.4540  -15.7619   24.6832 O   0  0  0  0  0  0  0  0  0  0  0  0
   13.0189  -21.3142   23.8917 N   0  0  0  0  0  0  0  0  0  0  0  0
   12.5638  -20.5928   22.7653 C   0  0  0  0  0  0  0  0  0  0  0  0
   12.0249  -21.2105   21.7583 N   0  0  0  0  0  0  0  0  0  0  0  0
   12.6654  -19.1772   22.6659 N   0  0  0  0  0  0  0  0  0  0  0  0
   12.6456  -18.3629   23.8545 C   0  0  0  0  0  0  0  0  0  0  0  0
   11.2079  -18.0629   24.2909 C   0  0  0  0  0  0  0  0  0  0  0  0
   11.1956  -17.0166   25.3766 C   0  0  0  0  0  0  0  0  0  0  0  0
    9.8248  -16.5913   25.7868 C   0  0  2  0  0  0  0  0  0  0  0  0
    9.5370  -15.2124   25.4259 N   0  0  0  0  0  0  0  0  0  0  0  0
    9.7669  -16.6664   27.2702 C   0  0  0  0  0  0  0  0  0  0  0  0
    9.6646  -15.6376   28.0114 O   0  0  0  0  0  0  0  0  0  0  0  0
    9.8214  -17.8777   27.9432 O   0  0  0  0  0  0  0  0  0  0  0  0
  2  1  1  6
  2  3  1  0
  4  5  2  0
  4  2  1  0
  6  4  1  0
  7 10  1  0
  7  6  1  0
  7  8  1  1
  9  8  1  0
 10 20  1  0
 11 10  2  0
 12 13  1  0
 13 15  1  0
 13 14  2  0
 15 16  1  0
 17 16  1  0
 18 17  1  0
 19 18  1  1
 20 19  1  0
 21 23  1  0
 21 19  1  0
 22 21  2  0
M  END
$$$$
