ACR.pdb
     RDKit          3D

 23 22  0  0  1  0  0  0  0  0999 V2000
    6.7570  -14.3803   20.2152 C   0  0  0  0  0  0  0  0  0  0  0  0
    7.1000  -12.9937   20.7110 C   0  0  2  0  0  0  0  0  0  0  0  0
    8.0502  -12.4212   19.7783 N   0  0  0  0  0  0  0  0  0  0  0  0
    7.7114  -13.1463   22.0689 C   0  0  0  0  0  0  0  0  0  0  0  0
    8.9245  -13.4416   22.2177 O   0  0  0  0  0  0  0  0  0  0  0  0
    6.9538  -12.9662   23.2595 N   0  0  0  0  0  0  0  0  0  0  0  0
    7.5429  -13.1530   24.5710 C   0  0  1  0  0  0  0  0  0  0  0  0
    6.6189  -12.5615   25.5870 C   0  0  0  0  0  0  0  0  0  0  0  0
    7.1637  -12.8687   27.2880 S   0  0  0  0  0  0  0  0  0  0  0  0
    7.8180  -14.5874   24.8174 C   0  0  0  0  0  0  0  0  0  0  0  0
    7.0048  -15.5027   24.5967 O   0  0  0  0  0  0  0  0  0  0  0  0
   11.3001  -21.2071   25.4864 N   0  0  0  0  0  0  0  0  0  0  0  0
   11.9562  -21.0377   24.2466 C   0  0  0  0  0  0  0  0  0  0  0  0
   12.2082  -22.0600   23.4870 N   0  0  0  0  0  0  0  0  0  0  0  0
   12.3724  -19.7656   23.7641 N   0  0  0  0  0  0  0  0  0  0  0  0
   12.3316  -18.6130   24.6276 C   0  0  0  0  0  0  0  0  0  0  0  0
   10.9015  -18.3297   25.0986 C   0  0  0  0  0  0  0  0  0  0  0  0
   10.5159  -16.9068   24.7820 C   0  0  0  0  0  0  0  0  0  0  0  0
    9.3927  -16.3878   25.6170 C   0  0  2  0  0  0  0  0  0  0  0  0
    9.0951  -14.9906   25.3457 N   0  0  0  0  0  0  0  0  0  0  0  0
    9.8281  -16.4649   27.0361 C   0  0  0  0  0  0  0  0  0  0  0  0
   10.3799  -15.4932   27.6440 O   0  0  0  0  0  0  0  0  0  0  0  0
    9.6563  -17.6149   27.7917 O   0  0  0  0  0  0  0  0  0  0  0  0
  2  1  1  6
  2  3  1  0
  4  5  2  0
  4  2  1  0
  6  4  1  0
  7 10  1  0
  7  6  1  0
  7  8  1  1
  9  8  1  0
 10 20  1  0
 11 10  2  0
 12 13  1  0
 13 15  1  0
 13 14  2  0
 15 16  1  0
 17 16  1  0
 18 17  1  0
 19 18  1  6
 20 19  1  0
 21 23  1  0
 21 19  1  0
 22 21  2  0
M  END
$$$$
