ACR.pdb
     RDKit          3D

 23 22  0  0  1  0  0  0  0  0999 V2000
    7.8816  -12.5904   18.0911 C   0  0  0  0  0  0  0  0  0  0  0  0
    8.5117  -13.9574   18.2333 C   0  0  2  0  0  0  0  0  0  0  0  0
    7.4362  -14.9218   18.3516 N   0  0  0  0  0  0  0  0  0  0  0  0
    9.3466  -13.9345   19.4756 C   0  0  0  0  0  0  0  0  0  0  0  0
   10.4542  -13.3407   19.5162 O   0  0  0  0  0  0  0  0  0  0  0  0
    8.9321  -14.5821   20.6726 N   0  0  0  0  0  0  0  0  0  0  0  0
    9.7911  -14.6465   21.8387 C   0  0  1  0  0  0  0  0  0  0  0  0
    8.9366  -14.5016   23.0573 C   0  0  0  0  0  0  0  0  0  0  0  0
    7.7064  -15.8238   23.2080 S   0  0  0  0  0  0  0  0  0  0  0  0
   10.5743  -15.9037   21.8382 C   0  0  0  0  0  0  0  0  0  0  0  0
   10.1095  -17.0163   21.5319 O   0  0  0  0  0  0  0  0  0  0  0  0
   13.6387  -14.6926   17.0729 N   0  0  0  0  0  0  0  0  0  0  0  0
   14.4850  -14.5942   18.2000 C   0  0  0  0  0  0  0  0  0  0  0  0
   15.0448  -13.4643   18.5096 N   0  0  0  0  0  0  0  0  0  0  0  0
   14.7705  -15.7014   19.0466 N   0  0  0  0  0  0  0  0  0  0  0  0
   14.2146  -16.9988   18.7570 C   0  0  0  0  0  0  0  0  0  0  0  0
   13.2058  -17.4166   19.8317 C   0  0  0  0  0  0  0  0  0  0  0  0
   13.7792  -17.1893   21.2076 C   0  0  0  0  0  0  0  0  0  0  0  0
   12.7473  -17.1039   22.2829 C   0  0  2  0  0  0  0  0  0  0  0  0
   11.9650  -15.8805   22.2096 N   0  0  0  0  0  0  0  0  0  0  0  0
   13.4682  -17.0738   23.5824 C   0  0  0  0  0  0  0  0  0  0  0  0
   13.5237  -16.0378   24.3186 O   0  0  0  0  0  0  0  0  0  0  0  0
   14.1314  -18.1870   24.0761 O   0  0  0  0  0  0  0  0  0  0  0  0
  2  1  1  1
  2  3  1  0
  4  5  2  0
  4  2  1  0
  6  4  1  0
  7 10  1  0
  7  6  1  0
  7  8  1  1
  9  8  1  0
 10 20  1  0
 11 10  2  0
 12 13  1  0
 13 15  1  0
 13 14  2  0
 15 16  1  0
 17 16  1  0
 18 17  1  0
 19 18  1  6
 20 19  1  0
 21 23  1  0
 21 19  1  0
 22 21  2  0
M  END
$$$$
