ACR.pdb
     RDKit          3D

 23 22  0  0  1  0  0  0  0  0999 V2000
    5.0637  -23.3239   26.5434 C   0  0  0  0  0  0  0  0  0  0  0  0
    6.1081  -22.7796   25.5952 C   0  0  2  0  0  0  0  0  0  0  0  0
    7.3559  -23.4563   25.8877 N   0  0  0  0  0  0  0  0  0  0  0  0
    6.2238  -21.3104   25.8580 C   0  0  0  0  0  0  0  0  0  0  0  0
    5.2810  -20.5178   25.6046 O   0  0  0  0  0  0  0  0  0  0  0  0
    7.4036  -20.7348   26.4063 N   0  0  0  0  0  0  0  0  0  0  0  0
    7.5271  -19.3051   26.6122 C   0  0  1  0  0  0  0  0  0  0  0  0
    8.0695  -19.0759   27.9868 C   0  0  0  0  0  0  0  0  0  0  0  0
    8.5068  -17.3425   28.2842 S   0  0  0  0  0  0  0  0  0  0  0  0
    8.3728  -18.6995   25.5576 C   0  0  0  0  0  0  0  0  0  0  0  0
    9.4450  -19.1866   25.1564 O   0  0  0  0  0  0  0  0  0  0  0  0
    6.5743  -12.6200   19.1943 N   0  0  0  0  0  0  0  0  0  0  0  0
    7.9302  -12.9964   19.0675 C   0  0  0  0  0  0  0  0  0  0  0  0
    8.6077  -12.6795   18.0062 N   0  0  0  0  0  0  0  0  0  0  0  0
    8.6222  -13.7295   20.0715 N   0  0  0  0  0  0  0  0  0  0  0  0
    7.9112  -14.2441   21.2141 C   0  0  0  0  0  0  0  0  0  0  0  0
    8.8397  -15.0651   22.1148 C   0  0  0  0  0  0  0  0  0  0  0  0
    8.0570  -15.7026   23.2349 C   0  0  0  0  0  0  0  0  0  0  0  0
    8.7402  -16.8764   23.8542 C   0  0  2  0  0  0  0  0  0  0  0  0
    7.9645  -17.4690   24.9318 N   0  0  0  0  0  0  0  0  0  0  0  0
   10.0041  -16.3805   24.4592 C   0  0  0  0  0  0  0  0  0  0  0  0
   10.0944  -16.0233   25.6769 O   0  0  0  0  0  0  0  0  0  0  0  0
   11.1749  -16.2764   23.7235 O   0  0  0  0  0  0  0  0  0  0  0  0
  2  1  1  1
  2  3  1  0
  4  5  2  0
  4  2  1  0
  6  4  1  0
  7 10  1  0
  7  6  1  0
  7  8  1  1
  9  8  1  0
 10 20  1  0
 11 10  2  0
 12 13  1  0
 13 15  1  0
 13 14  2  0
 15 16  1  0
 17 16  1  0
 18 17  1  0
 19 18  1  1
 20 19  1  0
 21 23  1  0
 21 19  1  0
 22 21  2  0
M  END
$$$$
