ACR.pdb
     RDKit          3D

 23 22  0  0  1  0  0  0  0  0999 V2000
    7.7730  -12.6426   18.4031 C   0  0  0  0  0  0  0  0  0  0  0  0
    8.3340  -14.0304   18.6159 C   0  0  2  0  0  0  0  0  0  0  0  0
    7.2302  -14.9648   18.5217 N   0  0  0  0  0  0  0  0  0  0  0  0
    8.9416  -14.0587   19.9838 C   0  0  0  0  0  0  0  0  0  0  0  0
   10.0247  -13.4726   20.2377 O   0  0  0  0  0  0  0  0  0  0  0  0
    8.3275  -14.7490   21.0656 N   0  0  0  0  0  0  0  0  0  0  0  0
    8.9742  -14.8660   22.3578 C   0  0  1  0  0  0  0  0  0  0  0  0
    7.9291  -15.1944   23.3756 C   0  0  0  0  0  0  0  0  0  0  0  0
    8.4923  -14.9023   25.0732 S   0  0  0  0  0  0  0  0  0  0  0  0
   10.0573  -15.8752   22.3071 C   0  0  0  0  0  0  0  0  0  0  0  0
    9.9088  -17.0394   21.8942 O   0  0  0  0  0  0  0  0  0  0  0  0
   16.9585  -14.8210   19.5242 N   0  0  0  0  0  0  0  0  0  0  0  0
   16.0062  -14.3319   18.6022 C   0  0  0  0  0  0  0  0  0  0  0  0
   16.3232  -13.3989   17.7567 N   0  0  0  0  0  0  0  0  0  0  0  0
   14.6709  -14.8197   18.5438 N   0  0  0  0  0  0  0  0  0  0  0  0
   14.2408  -15.8660   19.4362 C   0  0  0  0  0  0  0  0  0  0  0  0
   13.2722  -15.3238   20.4921 C   0  0  0  0  0  0  0  0  0  0  0  0
   13.6404  -15.8427   21.8591 C   0  0  0  0  0  0  0  0  0  0  0  0
   12.4956  -16.4483   22.6013 C   0  0  2  0  0  0  0  0  0  0  0  0
   11.3806  -15.5277   22.7549 N   0  0  0  0  0  0  0  0  0  0  0  0
   12.9789  -16.7673   23.9703 C   0  0  0  0  0  0  0  0  0  0  0  0
   13.9118  -17.6018   24.1974 O   0  0  0  0  0  0  0  0  0  0  0  0
   12.4351  -16.1666   25.0957 O   0  0  0  0  0  0  0  0  0  0  0  0
  2  1  1  1
  2  3  1  0
  4  5  2  0
  4  2  1  0
  6  4  1  0
  7 10  1  0
  7  6  1  0
  7  8  1  1
  9  8  1  0
 10 20  1  0
 11 10  2  0
 12 13  1  0
 13 15  1  0
 13 14  2  0
 15 16  1  0
 17 16  1  0
 18 17  1  0
 19 18  1  6
 20 19  1  0
 21 23  1  0
 21 19  1  0
 22 21  2  0
M  END
$$$$
