ACR.pdb
     RDKit          3D

 23 22  0  0  1  0  0  0  0  0999 V2000
    7.0510  -14.1650   19.6580 C   0  0  0  0  0  0  0  0  0  0  0  0
    7.5621  -12.9636   20.4205 C   0  0  2  0  0  0  0  0  0  0  0  0
    8.6551  -12.3963   19.6563 N   0  0  0  0  0  0  0  0  0  0  0  0
    8.0400  -13.4532   21.7521 C   0  0  0  0  0  0  0  0  0  0  0  0
    9.2335  -13.8028   21.9377 O   0  0  0  0  0  0  0  0  0  0  0  0
    7.1711  -13.5489   22.8745 N   0  0  0  0  0  0  0  0  0  0  0  0
    7.6585  -13.9431   24.1817 C   0  0  1  0  0  0  0  0  0  0  0  0
    6.5753  -13.6888   25.1807 C   0  0  0  0  0  0  0  0  0  0  0  0
    6.4235  -11.9356   25.6140 S   0  0  0  0  0  0  0  0  0  0  0  0
    8.0996  -15.3571   24.1669 C   0  0  0  0  0  0  0  0  0  0  0  0
    7.3498  -16.3204   23.9272 O   0  0  0  0  0  0  0  0  0  0  0  0
   12.1637  -13.8768   20.5681 N   0  0  0  0  0  0  0  0  0  0  0  0
   12.6618  -14.9639   19.8158 C   0  0  0  0  0  0  0  0  0  0  0  0
   13.3608  -14.7589   18.7409 N   0  0  0  0  0  0  0  0  0  0  0  0
   12.4338  -16.3202   20.1801 N   0  0  0  0  0  0  0  0  0  0  0  0
   12.5141  -16.7241   21.5609 C   0  0  0  0  0  0  0  0  0  0  0  0
   11.1315  -16.7026   22.2207 C   0  0  0  0  0  0  0  0  0  0  0  0
   11.2184  -17.2051   23.6397 C   0  0  0  0  0  0  0  0  0  0  0  0
    9.9486  -17.0548   24.4101 C   0  0  2  0  0  0  0  0  0  0  0  0
    9.4751  -15.6804   24.4426 N   0  0  0  0  0  0  0  0  0  0  0  0
   10.2392  -17.4408   25.8157 C   0  0  0  0  0  0  0  0  0  0  0  0
   10.6174  -18.6090   26.1481 O   0  0  0  0  0  0  0  0  0  0  0  0
   10.1141  -16.5392   26.8619 O   0  0  0  0  0  0  0  0  0  0  0  0
  2  1  1  6
  2  3  1  0
  4  5  2  0
  4  2  1  0
  6  4  1  0
  7 10  1  0
  7  6  1  0
  7  8  1  1
  9  8  1  0
 10 20  1  0
 11 10  2  0
 12 13  1  0
 13 15  1  0
 13 14  2  0
 15 16  1  0
 17 16  1  0
 18 17  1  0
 19 18  1  6
 20 19  1  0
 21 23  1  0
 21 19  1  0
 22 21  2  0
M  END
$$$$
