ACR.pdb
     RDKit          3D

 23 22  0  0  1  0  0  0  0  0999 V2000
    7.9064  -12.0739   19.7308 C   0  0  0  0  0  0  0  0  0  0  0  0
    7.6232  -13.4084   20.3826 C   0  0  2  0  0  0  0  0  0  0  0  0
    6.1927  -13.6310   20.3141 N   0  0  0  0  0  0  0  0  0  0  0  0
    8.0808  -13.3139   21.8048 C   0  0  0  0  0  0  0  0  0  0  0  0
    9.3014  -13.2952   22.1061 O   0  0  0  0  0  0  0  0  0  0  0  0
    7.1610  -13.2409   22.8877 N   0  0  0  0  0  0  0  0  0  0  0  0
    7.6097  -13.2201   24.2662 C   0  0  1  0  0  0  0  0  0  0  0  0
    6.5704  -12.5242   25.0856 C   0  0  0  0  0  0  0  0  0  0  0  0
    6.8333  -12.7300   26.8669 S   0  0  0  0  0  0  0  0  0  0  0  0
    7.8854  -14.5950   24.7435 C   0  0  0  0  0  0  0  0  0  0  0  0
    7.0176  -15.4772   24.8718 O   0  0  0  0  0  0  0  0  0  0  0  0
   12.1069  -20.8850   21.3917 N   0  0  0  0  0  0  0  0  0  0  0  0
   11.8612  -21.3203   22.7132 C   0  0  0  0  0  0  0  0  0  0  0  0
   11.8339  -22.5868   22.9976 N   0  0  0  0  0  0  0  0  0  0  0  0
   11.6333  -20.4189   23.7902 N   0  0  0  0  0  0  0  0  0  0  0  0
   11.3174  -19.0381   23.5264 C   0  0  0  0  0  0  0  0  0  0  0  0
   11.1387  -18.2564   24.8319 C   0  0  0  0  0  0  0  0  0  0  0  0
   10.7288  -16.8348   24.5416 C   0  0  0  0  0  0  0  0  0  0  0  0
    9.5756  -16.3614   25.3627 C   0  0  2  0  0  0  0  0  0  0  0  0
    9.2294  -14.9753   25.0919 N   0  0  0  0  0  0  0  0  0  0  0  0
    9.9940  -16.4275   26.7874 C   0  0  0  0  0  0  0  0  0  0  0  0
   10.2198  -15.3919   27.4908 O   0  0  0  0  0  0  0  0  0  0  0  0
   10.1652  -17.6373   27.4433 O   0  0  0  0  0  0  0  0  0  0  0  0
  2  1  1  6
  2  3  1  0
  4  5  2  0
  4  2  1  0
  6  4  1  0
  7 10  1  0
  7  6  1  0
  7  8  1  1
  9  8  1  0
 10 20  1  0
 11 10  2  0
 12 13  1  0
 13 15  1  0
 13 14  2  0
 15 16  1  0
 17 16  1  0
 18 17  1  0
 19 18  1  6
 20 19  1  0
 21 23  1  0
 21 19  1  0
 22 21  2  0
M  END
$$$$
