ACR.pdb
     RDKit          3D

 23 22  0  0  1  0  0  0  0  0999 V2000
    7.7966  -20.0236   20.4243 C   0  0  0  0  0  0  0  0  0  0  0  0
    7.5944  -18.6472   19.8320 C   0  0  2  0  0  0  0  0  0  0  0  0
    8.2581  -18.6262   18.5438 N   0  0  0  0  0  0  0  0  0  0  0  0
    8.2207  -17.6635   20.7708 C   0  0  0  0  0  0  0  0  0  0  0  0
    9.2962  -17.9161   21.3711 O   0  0  0  0  0  0  0  0  0  0  0  0
    7.6331  -16.3946   21.0328 N   0  0  0  0  0  0  0  0  0  0  0  0
    8.2775  -15.4216   21.8929 C   0  0  1  0  0  0  0  0  0  0  0  0
    7.6240  -14.0952   21.6698 C   0  0  0  0  0  0  0  0  0  0  0  0
    8.1084  -12.8620   22.9065 S   0  0  0  0  0  0  0  0  0  0  0  0
    8.2153  -15.8568   23.3074 C   0  0  0  0  0  0  0  0  0  0  0  0
    7.1675  -16.1864   23.8916 O   0  0  0  0  0  0  0  0  0  0  0  0
   11.7577  -22.0501   28.0903 N   0  0  0  0  0  0  0  0  0  0  0  0
   11.2840  -21.1234   29.0458 C   0  0  0  0  0  0  0  0  0  0  0  0
   11.2592  -21.4292   30.3074 N   0  0  0  0  0  0  0  0  0  0  0  0
   10.8151  -19.8271   28.6936 N   0  0  0  0  0  0  0  0  0  0  0  0
   10.7227  -19.4402   27.3088 C   0  0  0  0  0  0  0  0  0  0  0  0
   10.1162  -18.0403   27.1689 C   0  0  0  0  0  0  0  0  0  0  0  0
   10.0241  -17.6501   25.7153 C   0  0  0  0  0  0  0  0  0  0  0  0
    9.3940  -16.3159   25.4891 C   0  0  2  0  0  0  0  0  0  0  0  0
    9.4212  -15.9157   24.0915 N   0  0  0  0  0  0  0  0  0  0  0  0
   10.2014  -15.3163   26.2363 C   0  0  0  0  0  0  0  0  0  0  0  0
   11.0827  -14.5853   25.6820 O   0  0  0  0  0  0  0  0  0  0  0  0
   10.0400  -15.1182   27.5993 O   0  0  0  0  0  0  0  0  0  0  0  0
  2  1  1  1
  2  3  1  0
  4  5  2  0
  4  2  1  0
  6  4  1  0
  7 10  1  0
  7  6  1  0
  7  8  1  1
  9  8  1  0
 10 20  1  0
 11 10  2  0
 12 13  1  0
 13 15  1  0
 13 14  2  0
 15 16  1  0
 17 16  1  0
 18 17  1  0
 19 18  1  6
 20 19  1  0
 21 23  1  0
 21 19  1  0
 22 21  2  0
M  END
$$$$
