NGE.pdb
     RDKit          3D

 22 21  0  0  1  0  0  0  0  0999 V2000
    9.2443  -18.2744   15.1507 N   0  0  0  0  0  0  0  0  0  0  0  0
    8.2071  -17.7579   15.9688 C   0  0  0  0  0  0  0  0  0  0  0  0
    7.0309  -18.0638   15.7005 O   0  0  0  0  0  0  0  0  0  0  0  0
    8.5694  -16.8789   17.1039 C   0  0  0  0  0  0  0  0  0  0  0  0
    8.5841  -17.6459   18.3956 C   0  0  2  0  0  0  0  0  0  0  0  0
    7.2446  -17.9185   18.8258 N   0  0  0  0  0  0  0  0  0  0  0  0
    9.3182  -16.8209   19.4224 C   0  0  0  0  0  0  0  0  0  0  0  0
   10.5706  -16.7172   19.3779 O   0  0  0  0  0  0  0  0  0  0  0  0
    8.6259  -16.1469   20.4552 N   0  0  0  0  0  0  0  0  0  0  0  0
    9.2604  -15.4468   21.5418 C   0  0  0  0  0  0  0  0  0  0  0  0
    9.8601  -16.3065   22.5713 C   0  0  0  0  0  0  0  0  0  0  0  0
    9.3845  -17.4806   22.7584 O   0  0  0  0  0  0  0  0  0  0  0  0
   10.9410  -15.9695   23.4042 N   0  0  0  0  0  0  0  0  0  0  0  0
   11.6271  -16.9592   24.2430 C   0  0  1  0  0  0  0  0  0  0  0  0
   13.0476  -17.0079   23.8191 C   0  0  0  0  0  0  0  0  0  0  0  0
   13.8985  -15.8508   24.2134 C   0  0  0  0  0  0  0  0  0  0  0  0
   15.2893  -15.9647   23.7632 C   0  0  0  0  0  0  0  0  0  0  0  0
   15.6284  -15.3680   22.6880 O   0  0  0  0  0  0  0  0  0  0  0  0
   11.4482  -16.6321   25.6769 C   0  0  0  0  0  0  0  0  0  0  0  0
   10.9887  -15.5197   26.0298 O   0  0  0  0  0  0  0  0  0  0  0  0
   16.2614  -16.6839   24.4373 O   0  0  0  0  0  0  0  0  0  0  0  0
   11.7759  -17.5292   26.6923 O   0  0  0  0  0  0  0  0  0  0  0  0
  1  2  1  0
  2  3  2  0
  4  2  1  0
  5  6  1  1
  5  4  1  0
  7  5  1  0
  8  7  2  0
  9  7  1  0
 10 11  1  0
 10  9  1  0
 11 13  1  0
 12 11  2  0
 13 14  1  0
 14 19  1  0
 14 15  1  6
 15 16  1  0
 16 17  1  0
 17 21  1  0
 18 17  2  0
 19 20  2  0
 19 22  1  0
M  END
$$$$
