NGE.pdb
     RDKit          3D

 22 21  0  0  1  0  0  0  0  0999 V2000
    9.1714  -13.2604   17.1697 N   0  0  0  0  0  0  0  0  0  0  0  0
    7.7780  -13.3446   17.4211 C   0  0  0  0  0  0  0  0  0  0  0  0
    6.9981  -13.3406   16.4511 O   0  0  0  0  0  0  0  0  0  0  0  0
    7.3139  -13.4330   18.8243 C   0  0  0  0  0  0  0  0  0  0  0  0
    8.4763  -13.5385   19.7703 C   0  0  2  0  0  0  0  0  0  0  0  0
    9.1759  -14.7715   19.5608 N   0  0  0  0  0  0  0  0  0  0  0  0
    7.9434  -13.4585   21.1787 C   0  0  0  0  0  0  0  0  0  0  0  0
    7.3098  -12.4422   21.5623 O   0  0  0  0  0  0  0  0  0  0  0  0
    8.1392  -14.5138   22.0996 N   0  0  0  0  0  0  0  0  0  0  0  0
    7.6850  -14.4999   23.4660 C   0  0  0  0  0  0  0  0  0  0  0  0
    7.9493  -15.7309   24.2231 C   0  0  0  0  0  0  0  0  0  0  0  0
    7.2368  -16.7698   23.9935 O   0  0  0  0  0  0  0  0  0  0  0  0
    8.9373  -15.9006   25.2084 N   0  0  0  0  0  0  0  0  0  0  0  0
    9.4919  -17.2159   25.5491 C   0  0  1  0  0  0  0  0  0  0  0  0
   10.5113  -17.5581   24.5275 C   0  0  0  0  0  0  0  0  0  0  0  0
   11.2781  -16.4207   23.9474 C   0  0  0  0  0  0  0  0  0  0  0  0
   12.3311  -16.8372   23.0158 C   0  0  0  0  0  0  0  0  0  0  0  0
   13.4964  -17.0654   23.4819 O   0  0  0  0  0  0  0  0  0  0  0  0
   10.0200  -17.2096   26.9334 C   0  0  0  0  0  0  0  0  0  0  0  0
   10.4290  -18.2669   27.4699 O   0  0  0  0  0  0  0  0  0  0  0  0
   12.1365  -16.9986   21.6547 O   0  0  0  0  0  0  0  0  0  0  0  0
   10.0886  -16.0470   27.6994 O   0  0  0  0  0  0  0  0  0  0  0  0
  1  2  1  0
  2  3  2  0
  4  2  1  0
  5  6  1  1
  5  4  1  0
  7  5  1  0
  8  7  2  0
  9  7  1  0
 10 11  1  0
 10  9  1  0
 11 13  1  0
 12 11  2  0
 13 14  1  0
 14 19  1  0
 14 15  1  6
 15 16  1  0
 16 17  1  0
 17 21  1  0
 18 17  2  0
 19 20  2  0
 19 22  1  0
M  END
$$$$
