NGE.pdb
     RDKit          3D

 22 21  0  0  1  0  0  0  0  0999 V2000
    7.4043  -13.1087   15.4942 N   0  0  0  0  0  0  0  0  0  0  0  0
    8.1623  -14.1412   16.1034 C   0  0  0  0  0  0  0  0  0  0  0  0
    9.1341  -14.6098   15.4828 O   0  0  0  0  0  0  0  0  0  0  0  0
    7.7642  -14.6151   17.4484 C   0  0  0  0  0  0  0  0  0  0  0  0
    8.2084  -13.6516   18.5121 C   0  0  2  0  0  0  0  0  0  0  0  0
    9.6366  -13.5339   18.5095 N   0  0  0  0  0  0  0  0  0  0  0  0
    7.7163  -14.1626   19.8427 C   0  0  0  0  0  0  0  0  0  0  0  0
    6.4855  -14.3180   20.0487 O   0  0  0  0  0  0  0  0  0  0  0  0
    8.6161  -14.4784   20.8872 N   0  0  0  0  0  0  0  0  0  0  0  0
    8.2250  -14.9905   22.1749 C   0  0  0  0  0  0  0  0  0  0  0  0
    9.3353  -15.3903   23.0500 C   0  0  0  0  0  0  0  0  0  0  0  0
   10.5284  -15.3880   22.5848 O   0  0  0  0  0  0  0  0  0  0  0  0
    9.2281  -15.7887   24.3936 N   0  0  0  0  0  0  0  0  0  0  0  0
   10.3987  -15.9429   25.2651 C   0  0  1  0  0  0  0  0  0  0  0  0
   10.0719  -15.3343   26.5776 C   0  0  0  0  0  0  0  0  0  0  0  0
   11.1310  -15.4007   27.6227 C   0  0  0  0  0  0  0  0  0  0  0  0
   10.7747  -14.7069   28.8644 C   0  0  0  0  0  0  0  0  0  0  0  0
    9.6314  -14.1459   28.9378 O   0  0  0  0  0  0  0  0  0  0  0  0
   10.7901  -17.3690   25.3549 C   0  0  0  0  0  0  0  0  0  0  0  0
   11.9965  -17.6999   25.4449 O   0  0  0  0  0  0  0  0  0  0  0  0
   11.6076  -14.6233   29.9670 O   0  0  0  0  0  0  0  0  0  0  0  0
    9.8529  -18.4010   25.3441 O   0  0  0  0  0  0  0  0  0  0  0  0
  1  2  1  0
  2  3  2  0
  4  2  1  0
  5  6  1  1
  5  4  1  0
  7  5  1  0
  8  7  2  0
  9  7  1  0
 10 11  1  0
 10  9  1  0
 11 13  1  0
 12 11  2  0
 13 14  1  0
 14 19  1  0
 14 15  1  1
 15 16  1  0
 16 17  1  0
 17 21  1  0
 18 17  2  0
 19 20  2  0
 19 22  1  0
M  END
$$$$
