NGE.pdb
     RDKit          3D

 22 21  0  0  1  0  0  0  0  0999 V2000
    9.7913  -18.9093   18.7605 N   0  0  0  0  0  0  0  0  0  0  0  0
   10.7643  -19.8643   18.3695 C   0  0  0  0  0  0  0  0  0  0  0  0
   10.6279  -21.0414   18.7502 O   0  0  0  0  0  0  0  0  0  0  0  0
   11.8978  -19.4189   17.5274 C   0  0  0  0  0  0  0  0  0  0  0  0
   13.2047  -19.5930   18.2477 C   0  0  2  0  0  0  0  0  0  0  0  0
   13.0673  -20.5580   19.2982 N   0  0  0  0  0  0  0  0  0  0  0  0
   13.6161  -18.2527   18.8031 C   0  0  0  0  0  0  0  0  0  0  0  0
   14.6040  -17.6410   18.3221 O   0  0  0  0  0  0  0  0  0  0  0  0
   12.9097  -17.6513   19.8706 N   0  0  0  0  0  0  0  0  0  0  0  0
   13.2696  -16.3999   20.4854 C   0  0  0  0  0  0  0  0  0  0  0  0
   14.2088  -16.5056   21.6102 C   0  0  0  0  0  0  0  0  0  0  0  0
   14.8650  -17.5928   21.7752 O   0  0  0  0  0  0  0  0  0  0  0  0
   14.4780  -15.5056   22.5605 N   0  0  0  0  0  0  0  0  0  0  0  0
   15.3460  -15.7355   23.7213 C   0  0  1  0  0  0  0  0  0  0  0  0
   14.7457  -16.8248   24.5294 C   0  0  0  0  0  0  0  0  0  0  0  0
   13.3524  -16.6060   25.0083 C   0  0  0  0  0  0  0  0  0  0  0  0
   12.8075  -17.7374   25.7654 C   0  0  0  0  0  0  0  0  0  0  0  0
   12.1130  -18.6058   25.1404 O   0  0  0  0  0  0  0  0  0  0  0  0
   16.7315  -16.0201   23.2804 C   0  0  0  0  0  0  0  0  0  0  0  0
   16.9727  -16.3575   22.0968 O   0  0  0  0  0  0  0  0  0  0  0  0
   13.0020  -17.9213   27.1237 O   0  0  0  0  0  0  0  0  0  0  0  0
   17.8219  -15.9293   24.1443 O   0  0  0  0  0  0  0  0  0  0  0  0
  1  2  1  0
  2  3  2  0
  4  2  1  0
  5  6  1  1
  5  4  1  0
  7  5  1  0
  8  7  2  0
  9  7  1  0
 10 11  1  0
 10  9  1  0
 11 13  1  0
 12 11  2  0
 13 14  1  0
 14 19  1  0
 14 15  1  6
 15 16  1  0
 16 17  1  0
 17 21  1  0
 18 17  2  0
 19 20  2  0
 19 22  1  0
M  END
$$$$
