NGE.pdb
     RDKit          3D

 22 21  0  0  1  0  0  0  0  0999 V2000
    8.6636  -13.6530   16.5694 N   0  0  0  0  0  0  0  0  0  0  0  0
    7.3650  -13.4592   17.1059 C   0  0  0  0  0  0  0  0  0  0  0  0
    6.4422  -13.1492   16.3304 O   0  0  0  0  0  0  0  0  0  0  0  0
    7.1653  -13.6337   18.5626 C   0  0  0  0  0  0  0  0  0  0  0  0
    8.4446  -14.0417   19.2363 C   0  0  2  0  0  0  0  0  0  0  0  0
    8.8756  -15.3191   18.7504 N   0  0  0  0  0  0  0  0  0  0  0  0
    8.1966  -14.0909   20.7229 C   0  0  0  0  0  0  0  0  0  0  0  0
    8.1466  -13.0291   21.3949 O   0  0  0  0  0  0  0  0  0  0  0  0
    8.0152  -15.3206   21.3975 N   0  0  0  0  0  0  0  0  0  0  0  0
    7.8360  -15.4528   22.8202 C   0  0  0  0  0  0  0  0  0  0  0  0
    9.0478  -15.8092   23.5704 C   0  0  0  0  0  0  0  0  0  0  0  0
   10.1501  -15.9655   22.9377 O   0  0  0  0  0  0  0  0  0  0  0  0
    9.1339  -16.0032   24.9599 N   0  0  0  0  0  0  0  0  0  0  0  0
   10.3992  -16.3159   25.6344 C   0  0  1  0  0  0  0  0  0  0  0  0
   10.2696  -15.9100   27.0551 C   0  0  0  0  0  0  0  0  0  0  0  0
    9.8932  -14.4914   27.3087 C   0  0  0  0  0  0  0  0  0  0  0  0
    9.7534  -14.1668   28.7319 C   0  0  0  0  0  0  0  0  0  0  0  0
    9.2894  -13.0216   29.0489 O   0  0  0  0  0  0  0  0  0  0  0  0
   10.7381  -17.7472   25.4563 C   0  0  0  0  0  0  0  0  0  0  0  0
    9.8679  -18.5728   25.0901 O   0  0  0  0  0  0  0  0  0  0  0  0
   10.0959  -15.0317   29.7571 O   0  0  0  0  0  0  0  0  0  0  0  0
   12.0212  -18.2429   25.6829 O   0  0  0  0  0  0  0  0  0  0  0  0
  1  2  1  0
  2  3  2  0
  4  2  1  0
  5  6  1  6
  5  4  1  0
  7  5  1  0
  8  7  2  0
  9  7  1  0
 10 11  1  0
 10  9  1  0
 11 13  1  0
 12 11  2  0
 13 14  1  0
 14 19  1  0
 14 15  1  1
 15 16  1  0
 16 17  1  0
 17 21  1  0
 18 17  2  0
 19 20  2  0
 19 22  1  0
M  END
$$$$
