NGE.pdb
     RDKit          3D

 22 21  0  0  1  0  0  0  0  0999 V2000
    7.8338  -12.8395   16.6686 N   0  0  0  0  0  0  0  0  0  0  0  0
    8.3707  -14.0680   17.1316 C   0  0  0  0  0  0  0  0  0  0  0  0
    9.0919  -14.7286   16.3620 O   0  0  0  0  0  0  0  0  0  0  0  0
    8.0495  -14.5092   18.5080 C   0  0  0  0  0  0  0  0  0  0  0  0
    8.6430  -13.5761   19.5249 C   0  0  2  0  0  0  0  0  0  0  0  0
   10.0656  -13.7409   19.5786 N   0  0  0  0  0  0  0  0  0  0  0  0
    8.0183  -13.8820   20.8629 C   0  0  0  0  0  0  0  0  0  0  0  0
    6.7713  -13.8181   21.0121 O   0  0  0  0  0  0  0  0  0  0  0  0
    8.8093  -14.2456   21.9775 N   0  0  0  0  0  0  0  0  0  0  0  0
    9.9703  -15.0949   21.9125 C   0  0  0  0  0  0  0  0  0  0  0  0
   10.1252  -16.0257   23.0386 C   0  0  0  0  0  0  0  0  0  0  0  0
   10.3798  -17.2576   22.7995 O   0  0  0  0  0  0  0  0  0  0  0  0
   10.0226  -15.6997   24.4020 N   0  0  0  0  0  0  0  0  0  0  0  0
   10.6165  -16.5292   25.4569 C   0  0  1  0  0  0  0  0  0  0  0  0
   10.8899  -15.6547   26.6233 C   0  0  0  0  0  0  0  0  0  0  0  0
    9.7240  -15.3124   27.4846 C   0  0  0  0  0  0  0  0  0  0  0  0
   10.0923  -14.6155   28.7211 C   0  0  0  0  0  0  0  0  0  0  0  0
   11.3250  -14.5696   29.0460 O   0  0  0  0  0  0  0  0  0  0  0  0
    9.7314  -17.6752   25.7709 C   0  0  0  0  0  0  0  0  0  0  0  0
    8.5151  -17.6501   25.4662 O   0  0  0  0  0  0  0  0  0  0  0  0
    9.1792  -14.0016   29.5612 O   0  0  0  0  0  0  0  0  0  0  0  0
   10.1970  -18.8227   26.4112 O   0  0  0  0  0  0  0  0  0  0  0  0
  1  2  1  0
  2  3  2  0
  4  2  1  0
  5  6  1  1
  5  4  1  0
  7  5  1  0
  8  7  2  0
  9  7  1  0
 10 11  1  0
 10  9  1  0
 11 13  1  0
 12 11  2  0
 13 14  1  0
 14 19  1  0
 14 15  1  1
 15 16  1  0
 16 17  1  0
 17 21  1  0
 18 17  2  0
 19 20  2  0
 19 22  1  0
M  END
$$$$
