NWY.pdb
     RDKit          3D

 35 37  0  0  1  0  0  0  0  0999 V2000
    8.3069  -18.4497   18.8922 N   0  0  0  0  0  0  0  0  0  0  0  0
    7.5688  -17.2729   19.1463 C   0  0  0  0  0  0  0  0  0  0  0  0
    6.6172  -16.9815   18.3905 O   0  0  0  0  0  0  0  0  0  0  0  0
    7.9086  -16.4119   20.2700 C   0  0  0  0  0  0  0  0  0  0  0  0
    9.1241  -16.8335   21.0603 C   0  0  2  0  0  0  0  0  0  0  0  0
    8.7982  -18.1760   21.5721 N   0  0  0  0  0  0  0  0  0  0  0  0
    9.4618  -15.9176   22.1683 C   0  0  0  0  0  0  0  0  0  0  0  0
    9.7167  -14.7133   21.9165 O   0  0  0  0  0  0  0  0  0  0  0  0
    9.5189  -16.3116   23.5236 N   0  0  0  0  0  0  0  0  0  0  0  0
    9.8767  -15.3770   24.6180 C   0  0  1  0  0  0  0  0  0  0  0  0
    8.9427  -15.6757   25.7257 C   0  0  0  0  0  0  0  0  0  0  0  0
    7.6201  -15.0430   25.7055 C   0  0  0  0  0  0  0  0  0  0  0  0
    6.3739  -15.6066   25.6832 C   0  0  0  0  0  0  0  0  0  0  0  0
    5.4622  -14.6258   25.6638 N   0  0  0  0  0  0  0  0  0  0  0  0
    6.0744  -13.4270   25.6733 C   0  0  0  0  0  0  0  0  0  0  0  0
    5.5825  -12.1189   25.6765 C   0  0  0  0  0  0  0  0  0  0  0  0
    6.4434  -11.0561   25.7058 C   0  0  0  0  0  0  0  0  0  0  0  0
    7.8133  -11.2698   25.7321 C   0  0  0  0  0  0  0  0  0  0  0  0
    8.2750  -12.5644   25.7279 C   0  0  0  0  0  0  0  0  0  0  0  0
    7.4207  -13.6634   25.6988 C   0  0  0  0  0  0  0  0  0  0  0  0
   11.2960  -15.4561   24.8371 C   0  0  0  0  0  0  0  0  0  0  0  0
   11.8439  -14.7353   25.7125 O   0  0  0  0  0  0  0  0  0  0  0  0
   10.9619  -17.4748   30.8216 O   0  0  0  0  0  0  0  0  0  0  0  0
   11.2290  -17.7565   29.4832 C   0  0  0  0  0  0  0  0  0  0  0  0
   10.9630  -18.9859   28.9217 C   0  0  0  0  0  0  0  0  0  0  0  0
   11.2592  -19.1753   27.5917 C   0  0  0  0  0  0  0  0  0  0  0  0
   11.8141  -18.1798   26.7938 C   0  0  0  0  0  0  0  0  0  0  0  0
   12.1285  -18.4142   25.3758 C   0  0  0  0  0  0  0  0  0  0  0  0
   13.0312  -17.2984   24.7943 C   0  0  2  0  0  0  0  0  0  0  0  0
   12.1708  -16.3384   24.1060 N   0  0  0  0  0  0  0  0  0  0  0  0
   13.9600  -17.8810   23.8188 C   0  0  0  0  0  0  0  0  0  0  0  0
   15.2546  -18.2837   24.1282 O   0  0  0  0  0  0  0  0  0  0  0  0
   12.0604  -16.9674   27.4087 C   0  0  0  0  0  0  0  0  0  0  0  0
   11.7849  -16.7225   28.7320 C   0  0  0  0  0  0  0  0  0  0  0  0
   13.6227  -18.0521   22.6067 O   0  0  0  0  0  0  0  0  0  0  0  0
  1  2  1  0
  2  4  1  0
  3  2  2  0
  4  5  1  0
  5  7  1  0
  5  6  1  1
  7  8  2  0
  9  7  1  0
  9 10  1  0
 10 11  1  1
 12 11  1  0
 13 12  2  0
 14 13  1  0
 15 14  1  0
 15 20  2  0
 16 15  1  0
 17 16  2  0
 17 18  1  0
 18 19  2  0
 19 20  1  0
 20 12  1  0
 21 22  2  0
 21 10  1  0
 23 24  1  0
 24 25  2  0
 25 26  1  0
 27 26  2  0
 27 28  1  0
 29 28  1  6
 29 30  1  0
 30 21  1  0
 31 32  1  0
 31 29  1  0
 33 27  1  0
 34 24  1  0
 34 33  2  0
 35 31  2  0
M  END
$$$$
