NWY.pdb
     RDKit          3D

 35 37  0  0  1  0  0  0  0  0999 V2000
    8.6064  -16.1924   16.7836 N   0  0  0  0  0  0  0  0  0  0  0  0
    7.8219  -16.5502   17.9021 C   0  0  0  0  0  0  0  0  0  0  0  0
    6.8995  -17.3801   17.7526 O   0  0  0  0  0  0  0  0  0  0  0  0
    8.0818  -15.9638   19.2090 C   0  0  0  0  0  0  0  0  0  0  0  0
    8.9435  -16.7955   20.1287 C   0  0  2  0  0  0  0  0  0  0  0  0
    8.0975  -17.9393   20.5113 N   0  0  0  0  0  0  0  0  0  0  0  0
    9.4140  -16.0680   21.3243 C   0  0  0  0  0  0  0  0  0  0  0  0
   10.0740  -15.0085   21.1811 O   0  0  0  0  0  0  0  0  0  0  0  0
    9.1671  -16.4912   22.6492 N   0  0  0  0  0  0  0  0  0  0  0  0
    9.7495  -15.8118   23.8318 C   0  0  1  0  0  0  0  0  0  0  0  0
    8.7888  -16.0284   24.9357 C   0  0  0  0  0  0  0  0  0  0  0  0
    7.5421  -15.2566   24.9300 C   0  0  0  0  0  0  0  0  0  0  0  0
    6.2786  -15.6259   24.5582 C   0  0  0  0  0  0  0  0  0  0  0  0
    5.4623  -14.5767   24.7197 N   0  0  0  0  0  0  0  0  0  0  0  0
    6.1544  -13.5221   25.1896 C   0  0  0  0  0  0  0  0  0  0  0  0
    5.7716  -12.2227   25.5336 C   0  0  0  0  0  0  0  0  0  0  0  0
    6.6941  -11.3341   26.0143 C   0  0  0  0  0  0  0  0  0  0  0  0
    8.0184  -11.7173   26.1637 C   0  0  0  0  0  0  0  0  0  0  0  0
    8.3727  -12.9997   25.8189 C   0  0  0  0  0  0  0  0  0  0  0  0
    7.4539  -13.9235   25.3278 C   0  0  0  0  0  0  0  0  0  0  0  0
   11.1146  -16.2412   23.9759 C   0  0  0  0  0  0  0  0  0  0  0  0
   11.4474  -17.4139   23.6598 O   0  0  0  0  0  0  0  0  0  0  0  0
    9.9290  -15.3884   30.5049 O   0  0  0  0  0  0  0  0  0  0  0  0
   10.6538  -15.8720   29.4173 C   0  0  0  0  0  0  0  0  0  0  0  0
   11.0905  -17.1765   29.3443 C   0  0  0  0  0  0  0  0  0  0  0  0
   11.7999  -17.5674   28.2323 C   0  0  0  0  0  0  0  0  0  0  0  0
   12.0927  -16.7026   27.1825 C   0  0  0  0  0  0  0  0  0  0  0  0
   12.8612  -17.1469   26.0092 C   0  0  0  0  0  0  0  0  0  0  0  0
   13.3392  -15.9519   25.1480 C   0  0  2  0  0  0  0  0  0  0  0  0
   12.1724  -15.3942   24.4675 N   0  0  0  0  0  0  0  0  0  0  0  0
   14.2900  -16.4286   24.1369 C   0  0  0  0  0  0  0  0  0  0  0  0
   15.5483  -16.9385   24.4378 O   0  0  0  0  0  0  0  0  0  0  0  0
   11.6308  -15.4067   27.3087 C   0  0  0  0  0  0  0  0  0  0  0  0
   10.9184  -14.9618   28.3956 C   0  0  0  0  0  0  0  0  0  0  0  0
   14.0075  -16.3991   22.8993 O   0  0  0  0  0  0  0  0  0  0  0  0
  1  2  1  0
  2  4  1  0
  3  2  2  0
  4  5  1  0
  5  7  1  0
  5  6  1  1
  7  8  2  0
  9  7  1  0
  9 10  1  0
 10 11  1  1
 12 11  1  0
 13 12  2  0
 14 13  1  0
 15 14  1  0
 15 20  2  0
 16 15  1  0
 17 16  2  0
 17 18  1  0
 18 19  2  0
 19 20  1  0
 20 12  1  0
 21 22  2  0
 21 10  1  0
 23 24  1  0
 24 25  2  0
 25 26  1  0
 27 26  2  0
 27 28  1  0
 29 28  1  1
 29 30  1  0
 30 21  1  0
 31 32  1  0
 31 29  1  0
 33 27  1  0
 34 24  1  0
 34 33  2  0
 35 31  2  0
M  END
$$$$
