NWY.pdb
     RDKit          3D

 35 37  0  0  1  0  0  0  0  0999 V2000
   14.1479  -17.7621   19.9548 N   0  0  0  0  0  0  0  0  0  0  0  0
   13.4644  -16.5268   19.9181 C   0  0  0  0  0  0  0  0  0  0  0  0
   13.5854  -15.7991   18.9093 O   0  0  0  0  0  0  0  0  0  0  0  0
   12.6316  -16.1060   21.0355 C   0  0  0  0  0  0  0  0  0  0  0  0
   11.6142  -17.1209   21.4990 C   0  0  2  0  0  0  0  0  0  0  0  0
   10.6377  -17.2099   20.3995 N   0  0  0  0  0  0  0  0  0  0  0  0
   10.9466  -16.7599   22.7656 C   0  0  0  0  0  0  0  0  0  0  0  0
   11.4658  -15.8914   23.5103 O   0  0  0  0  0  0  0  0  0  0  0  0
    9.7356  -17.3374   23.2077 N   0  0  0  0  0  0  0  0  0  0  0  0
    9.0915  -16.9700   24.4920 C   0  0  1  0  0  0  0  0  0  0  0  0
    7.6560  -16.7856   24.1857 C   0  0  0  0  0  0  0  0  0  0  0  0
    7.2170  -15.4787   23.6867 C   0  0  0  0  0  0  0  0  0  0  0  0
    7.0577  -15.0335   22.4031 C   0  0  0  0  0  0  0  0  0  0  0  0
    6.6422  -13.7611   22.4410 N   0  0  0  0  0  0  0  0  0  0  0  0
    6.5221  -13.3532   23.7182 C   0  0  0  0  0  0  0  0  0  0  0  0
    6.1162  -12.1420   24.2852 C   0  0  0  0  0  0  0  0  0  0  0  0
    6.0671  -11.9966   25.6447 C   0  0  0  0  0  0  0  0  0  0  0  0
    6.4211  -13.0522   26.4714 C   0  0  0  0  0  0  0  0  0  0  0  0
    6.8176  -14.2340   25.8923 C   0  0  0  0  0  0  0  0  0  0  0  0
    6.8760  -14.4083   24.5121 C   0  0  0  0  0  0  0  0  0  0  0  0
    9.4939  -17.9232   25.4911 C   0  0  0  0  0  0  0  0  0  0  0  0
   10.0156  -19.0175   25.1500 O   0  0  0  0  0  0  0  0  0  0  0  0
   12.9012  -12.9740   27.9760 O   0  0  0  0  0  0  0  0  0  0  0  0
   12.2029  -14.1419   28.2768 C   0  0  0  0  0  0  0  0  0  0  0  0
   10.8759  -14.1326   28.6463 C   0  0  0  0  0  0  0  0  0  0  0  0
   10.2662  -15.3338   28.9254 C   0  0  0  0  0  0  0  0  0  0  0  0
   10.9325  -16.5528   28.8498 C   0  0  0  0  0  0  0  0  0  0  0  0
   10.2564  -17.8215   29.1626 C   0  0  0  0  0  0  0  0  0  0  0  0
    9.9269  -18.6289   27.8829 C   0  0  2  0  0  0  0  0  0  0  0  0
    9.3454  -17.7079   26.9087 N   0  0  0  0  0  0  0  0  0  0  0  0
    8.9364  -19.6641   28.2007 C   0  0  0  0  0  0  0  0  0  0  0  0
    9.2219  -20.8069   28.9399 O   0  0  0  0  0  0  0  0  0  0  0  0
   12.2613  -16.5031   28.4749 C   0  0  0  0  0  0  0  0  0  0  0  0
   12.9204  -15.3332   28.1849 C   0  0  0  0  0  0  0  0  0  0  0  0
    7.7332  -19.5699   27.8060 O   0  0  0  0  0  0  0  0  0  0  0  0
  1  2  1  0
  2  4  1  0
  3  2  2  0
  4  5  1  0
  5  7  1  0
  5  6  1  6
  7  8  2  0
  9  7  1  0
  9 10  1  0
 10 11  1  6
 12 11  1  0
 13 12  2  0
 14 13  1  0
 15 14  1  0
 15 20  2  0
 16 15  1  0
 17 16  2  0
 17 18  1  0
 18 19  2  0
 19 20  1  0
 20 12  1  0
 21 22  2  0
 21 10  1  0
 23 24  1  0
 24 25  2  0
 25 26  1  0
 27 26  2  0
 27 28  1  0
 29 28  1  1
 29 30  1  0
 30 21  1  0
 31 32  1  0
 31 29  1  0
 33 27  1  0
 34 24  1  0
 34 33  2  0
 35 31  2  0
M  END
$$$$
