NWY.pdb
     RDKit          3D

 35 37  0  0  1  0  0  0  0  0999 V2000
    8.5384  -16.9474   16.3749 N   0  0  0  0  0  0  0  0  0  0  0  0
    8.3016  -15.5796   16.6345 C   0  0  0  0  0  0  0  0  0  0  0  0
    8.0469  -14.8181   15.6769 O   0  0  0  0  0  0  0  0  0  0  0  0
    8.3524  -15.0628   17.9946 C   0  0  0  0  0  0  0  0  0  0  0  0
    8.7918  -16.0547   19.0448 C   0  0  2  0  0  0  0  0  0  0  0  0
    7.7378  -17.0838   19.0607 N   0  0  0  0  0  0  0  0  0  0  0  0
    8.9679  -15.4634   20.3864 C   0  0  0  0  0  0  0  0  0  0  0  0
    9.8267  -14.5620   20.5548 O   0  0  0  0  0  0  0  0  0  0  0  0
    8.2192  -15.8507   21.5199 N   0  0  0  0  0  0  0  0  0  0  0  0
    8.6878  -15.6242   22.9086 C   0  0  1  0  0  0  0  0  0  0  0  0
    7.6965  -16.2887   23.7827 C   0  0  0  0  0  0  0  0  0  0  0  0
    6.9764  -15.4681   24.7615 C   0  0  0  0  0  0  0  0  0  0  0  0
    6.0412  -15.8256   25.6935 C   0  0  0  0  0  0  0  0  0  0  0  0
    5.6603  -14.7278   26.3590 N   0  0  0  0  0  0  0  0  0  0  0  0
    6.3209  -13.6524   25.8907 C   0  0  0  0  0  0  0  0  0  0  0  0
    6.2963  -12.3023   26.2508 C   0  0  0  0  0  0  0  0  0  0  0  0
    7.1003  -11.4004   25.6092 C   0  0  0  0  0  0  0  0  0  0  0  0
    7.9469  -11.8204   24.5945 C   0  0  0  0  0  0  0  0  0  0  0  0
    7.9546  -13.1526   24.2564 C   0  0  0  0  0  0  0  0  0  0  0  0
    7.1468  -14.0909   24.8935 C   0  0  0  0  0  0  0  0  0  0  0  0
   10.0748  -15.9967   22.9865 C   0  0  0  0  0  0  0  0  0  0  0  0
   10.8931  -15.5790   22.1251 O   0  0  0  0  0  0  0  0  0  0  0  0
   10.0562  -16.6956   30.8280 O   0  0  0  0  0  0  0  0  0  0  0  0
   10.4267  -16.2839   29.5492 C   0  0  0  0  0  0  0  0  0  0  0  0
   10.4848  -14.9551   29.1909 C   0  0  0  0  0  0  0  0  0  0  0  0
   10.8610  -14.6401   27.9056 C   0  0  0  0  0  0  0  0  0  0  0  0
   11.1840  -15.6051   26.9568 C   0  0  0  0  0  0  0  0  0  0  0  0
   11.5747  -15.2385   25.5866 C   0  0  0  0  0  0  0  0  0  0  0  0
   11.8573  -16.4871   24.7152 C   0  0  2  0  0  0  0  0  0  0  0  0
   10.6205  -16.8392   24.0211 N   0  0  0  0  0  0  0  0  0  0  0  0
   12.2467  -17.6073   25.5796 C   0  0  0  0  0  0  0  0  0  0  0  0
   13.5283  -17.7808   26.0908 O   0  0  0  0  0  0  0  0  0  0  0  0
   11.1083  -16.9211   27.3704 C   0  0  0  0  0  0  0  0  0  0  0  0
   10.7390  -17.2931   28.6401 C   0  0  0  0  0  0  0  0  0  0  0  0
   11.4119  -18.5033   25.9152 O   0  0  0  0  0  0  0  0  0  0  0  0
  1  2  1  0
  2  4  1  0
  3  2  2  0
  4  5  1  0
  5  7  1  0
  5  6  1  1
  7  8  2  0
  9  7  1  0
  9 10  1  0
 10 11  1  1
 12 11  1  0
 13 12  2  0
 14 13  1  0
 15 14  1  0
 15 20  2  0
 16 15  1  0
 17 16  2  0
 17 18  1  0
 18 19  2  0
 19 20  1  0
 20 12  1  0
 21 22  2  0
 21 10  1  0
 23 24  1  0
 24 25  2  0
 25 26  1  0
 27 26  2  0
 27 28  1  0
 29 28  1  1
 29 30  1  0
 30 21  1  0
 31 32  1  0
 31 29  1  0
 33 27  1  0
 34 24  1  0
 34 33  2  0
 35 31  2  0
M  END
$$$$
