NWY.pdb
     RDKit          3D

 35 37  0  0  1  0  0  0  0  0999 V2000
   11.2304  -19.1982   15.5038 N   0  0  0  0  0  0  0  0  0  0  0  0
   11.6562  -19.0937   16.8463 C   0  0  0  0  0  0  0  0  0  0  0  0
   12.3691  -20.0010   17.3264 O   0  0  0  0  0  0  0  0  0  0  0  0
   11.2727  -17.9487   17.6595 C   0  0  0  0  0  0  0  0  0  0  0  0
   10.4296  -18.2713   18.8698 C   0  0  2  0  0  0  0  0  0  0  0  0
    9.0887  -18.5612   18.3329 N   0  0  0  0  0  0  0  0  0  0  0  0
   10.3721  -17.1810   19.8639 C   0  0  0  0  0  0  0  0  0  0  0  0
   11.2136  -16.2498   19.8067 O   0  0  0  0  0  0  0  0  0  0  0  0
    9.4134  -17.1114   20.8990 N   0  0  0  0  0  0  0  0  0  0  0  0
    9.3881  -16.0166   21.8991 C   0  0  1  0  0  0  0  0  0  0  0  0
    7.9660  -15.8356   22.2639 C   0  0  0  0  0  0  0  0  0  0  0  0
    7.5151  -14.4943   22.6479 C   0  0  0  0  0  0  0  0  0  0  0  0
    7.3555  -13.3673   21.8893 C   0  0  0  0  0  0  0  0  0  0  0  0
    6.9268  -12.3765   22.6816 N   0  0  0  0  0  0  0  0  0  0  0  0
    6.7983  -12.8201   23.9460 C   0  0  0  0  0  0  0  0  0  0  0  0
    6.3782  -12.1967   25.1241 C   0  0  0  0  0  0  0  0  0  0  0  0
    6.3232  -12.8990   26.2969 C   0  0  0  0  0  0  0  0  0  0  0  0
    6.6853  -14.2373   26.3250 C   0  0  0  0  0  0  0  0  0  0  0  0
    7.0958  -14.8301   25.1549 C   0  0  0  0  0  0  0  0  0  0  0  0
    7.1605  -14.1384   23.9482 C   0  0  0  0  0  0  0  0  0  0  0  0
   10.3574  -16.3115   22.9200 C   0  0  0  0  0  0  0  0  0  0  0  0
   11.4484  -15.6837   22.9592 O   0  0  0  0  0  0  0  0  0  0  0  0
   11.2769  -14.6697   31.1983 O   0  0  0  0  0  0  0  0  0  0  0  0
   10.9448  -14.9099   29.8663 C   0  0  0  0  0  0  0  0  0  0  0  0
   11.1843  -13.9894   28.8697 C   0  0  0  0  0  0  0  0  0  0  0  0
   10.8235  -14.3113   27.5818 C   0  0  0  0  0  0  0  0  0  0  0  0
   10.2293  -15.5236   27.2460 C   0  0  0  0  0  0  0  0  0  0  0  0
    9.8462  -15.8367   25.8604 C   0  0  0  0  0  0  0  0  0  0  0  0
   10.6015  -17.0761   25.3205 C   0  0  2  0  0  0  0  0  0  0  0  0
   10.1623  -17.3055   23.9457 N   0  0  0  0  0  0  0  0  0  0  0  0
   10.2518  -18.2506   26.1280 C   0  0  0  0  0  0  0  0  0  0  0  0
   11.1081  -18.8349   27.0549 O   0  0  0  0  0  0  0  0  0  0  0  0
   10.0123  -16.4085   28.2845 C   0  0  0  0  0  0  0  0  0  0  0  0
   10.3520  -16.1401   29.5882 C   0  0  0  0  0  0  0  0  0  0  0  0
    9.1181  -18.8122   26.0199 O   0  0  0  0  0  0  0  0  0  0  0  0
  1  2  1  0
  2  4  1  0
  3  2  2  0
  4  5  1  0
  5  7  1  0
  5  6  1  6
  7  8  2  0
  9  7  1  0
  9 10  1  0
 10 11  1  1
 12 11  1  0
 13 12  2  0
 14 13  1  0
 15 14  1  0
 15 20  2  0
 16 15  1  0
 17 16  2  0
 17 18  1  0
 18 19  2  0
 19 20  1  0
 20 12  1  0
 21 22  2  0
 21 10  1  0
 23 24  1  0
 24 25  2  0
 25 26  1  0
 27 26  2  0
 27 28  1  0
 29 28  1  1
 29 30  1  0
 30 21  1  0
 31 32  1  0
 31 29  1  0
 33 27  1  0
 34 24  1  0
 34 33  2  0
 35 31  2  0
M  END
$$$$
