NWY.pdb
     RDKit          3D

 35 37  0  0  1  0  0  0  0  0999 V2000
    7.8020  -12.7582   18.0804 N   0  0  0  0  0  0  0  0  0  0  0  0
    7.2761  -13.8225   18.8453 C   0  0  0  0  0  0  0  0  0  0  0  0
    6.5204  -14.6492   18.2909 O   0  0  0  0  0  0  0  0  0  0  0  0
    7.6079  -13.9570   20.2564 C   0  0  0  0  0  0  0  0  0  0  0  0
    8.3827  -15.2007   20.6205 C   0  0  2  0  0  0  0  0  0  0  0  0
    7.3787  -16.2783   20.6538 N   0  0  0  0  0  0  0  0  0  0  0  0
    9.0917  -15.1044   21.9122 C   0  0  0  0  0  0  0  0  0  0  0  0
    9.9808  -14.2296   22.0636 O   0  0  0  0  0  0  0  0  0  0  0  0
    8.8327  -15.9480   23.0153 N   0  0  0  0  0  0  0  0  0  0  0  0
    9.6817  -15.9648   24.2312 C   0  0  1  0  0  0  0  0  0  0  0  0
    8.7602  -16.2022   25.3638 C   0  0  0  0  0  0  0  0  0  0  0  0
    7.5643  -15.3607   25.4714 C   0  0  0  0  0  0  0  0  0  0  0  0
    6.2644  -15.6305   25.1419 C   0  0  0  0  0  0  0  0  0  0  0  0
    5.5223  -14.5489   25.4119 N   0  0  0  0  0  0  0  0  0  0  0  0
    6.2991  -13.5700   25.9123 C   0  0  0  0  0  0  0  0  0  0  0  0
    6.0133  -12.2766   26.3579 C   0  0  0  0  0  0  0  0  0  0  0  0
    7.0100  -11.4772   26.8467 C   0  0  0  0  0  0  0  0  0  0  0  0
    8.3140  -11.9455   26.9032 C   0  0  0  0  0  0  0  0  0  0  0  0
    8.5725  -13.2204   26.4593 C   0  0  0  0  0  0  0  0  0  0  0  0
    7.5767  -14.0544   25.9578 C   0  0  0  0  0  0  0  0  0  0  0  0
   10.7830  -16.8615   24.0039 C   0  0  0  0  0  0  0  0  0  0  0  0
   10.5801  -18.0043   23.5152 O   0  0  0  0  0  0  0  0  0  0  0  0
   14.6699  -13.6550   19.2563 O   0  0  0  0  0  0  0  0  0  0  0  0
   14.2664  -14.7121   20.0699 C   0  0  0  0  0  0  0  0  0  0  0  0
   12.9733  -15.1870   20.0736 C   0  0  0  0  0  0  0  0  0  0  0  0
   12.6638  -16.2348   20.9095 C   0  0  0  0  0  0  0  0  0  0  0  0
   13.5998  -16.8323   21.7477 C   0  0  0  0  0  0  0  0  0  0  0  0
   13.2375  -17.9464   22.6377 C   0  0  0  0  0  0  0  0  0  0  0  0
   13.2254  -17.5145   24.1248 C   0  0  2  0  0  0  0  0  0  0  0  0
   12.1556  -16.5343   24.2986 N   0  0  0  0  0  0  0  0  0  0  0  0
   14.5050  -16.8781   24.4584 C   0  0  0  0  0  0  0  0  0  0  0  0
   14.6187  -15.5864   24.9612 O   0  0  0  0  0  0  0  0  0  0  0  0
   14.8804  -16.3158   21.7033 C   0  0  0  0  0  0  0  0  0  0  0  0
   15.2454  -15.2716   20.8888 C   0  0  0  0  0  0  0  0  0  0  0  0
   15.6070  -17.4888   24.3005 O   0  0  0  0  0  0  0  0  0  0  0  0
  1  2  1  0
  2  4  1  0
  3  2  2  0
  4  5  1  0
  5  7  1  0
  5  6  1  1
  7  8  2  0
  9  7  1  0
  9 10  1  0
 10 11  1  1
 12 11  1  0
 13 12  2  0
 14 13  1  0
 15 14  1  0
 15 20  2  0
 16 15  1  0
 17 16  2  0
 17 18  1  0
 18 19  2  0
 19 20  1  0
 20 12  1  0
 21 22  2  0
 21 10  1  0
 23 24  1  0
 24 25  2  0
 25 26  1  0
 27 26  2  0
 27 28  1  0
 29 28  1  6
 29 30  1  0
 30 21  1  0
 31 32  1  0
 31 29  1  0
 33 27  1  0
 34 24  1  0
 34 33  2  0
 35 31  2  0
M  END
$$$$
