NWY.pdb
     RDKit          3D

 35 37  0  0  1  0  0  0  0  0999 V2000
    8.7623  -16.0163   15.9659 N   0  0  0  0  0  0  0  0  0  0  0  0
   10.0168  -15.8778   16.5997 C   0  0  0  0  0  0  0  0  0  0  0  0
   11.0457  -16.2370   15.9880 O   0  0  0  0  0  0  0  0  0  0  0  0
   10.1124  -15.3256   17.9433 C   0  0  0  0  0  0  0  0  0  0  0  0
    8.7922  -15.0566   18.6249 C   0  0  2  0  0  0  0  0  0  0  0  0
    8.2371  -13.8828   17.9290 N   0  0  0  0  0  0  0  0  0  0  0  0
    8.9112  -14.7995   20.0741 C   0  0  0  0  0  0  0  0  0  0  0  0
    9.5984  -13.8263   20.4730 O   0  0  0  0  0  0  0  0  0  0  0  0
    8.2906  -15.5910   21.0659 N   0  0  0  0  0  0  0  0  0  0  0  0
    8.4080  -15.3012   22.5156 C   0  0  1  0  0  0  0  0  0  0  0  0
    7.0262  -15.3166   23.0437 C   0  0  0  0  0  0  0  0  0  0  0  0
    6.8367  -15.1788   24.4911 C   0  0  0  0  0  0  0  0  0  0  0  0
    6.4642  -16.1077   25.4236 C   0  0  0  0  0  0  0  0  0  0  0  0
    6.4179  -15.5138   26.6229 N   0  0  0  0  0  0  0  0  0  0  0  0
    6.7510  -14.2147   26.5072 C   0  0  0  0  0  0  0  0  0  0  0  0
    6.8673  -13.1856   27.4456 C   0  0  0  0  0  0  0  0  0  0  0  0
    7.2488  -11.9317   27.0536 C   0  0  0  0  0  0  0  0  0  0  0  0
    7.5229  -11.6722   25.7193 C   0  0  0  0  0  0  0  0  0  0  0  0
    7.4017  -12.6988   24.8135 C   0  0  0  0  0  0  0  0  0  0  0  0
    7.0158  -13.9837   25.1860 C   0  0  0  0  0  0  0  0  0  0  0  0
    9.3987  -16.1805   23.0759 C   0  0  0  0  0  0  0  0  0  0  0  0
    9.4546  -17.3855   22.7142 O   0  0  0  0  0  0  0  0  0  0  0  0
   13.8797  -14.6738   18.9231 O   0  0  0  0  0  0  0  0  0  0  0  0
   13.5746  -14.9408   20.2565 C   0  0  0  0  0  0  0  0  0  0  0  0
   12.6817  -14.1768   20.9753 C   0  0  0  0  0  0  0  0  0  0  0  0
   12.4408  -14.5134   22.2872 C   0  0  0  0  0  0  0  0  0  0  0  0
   13.0595  -15.5899   22.9150 C   0  0  0  0  0  0  0  0  0  0  0  0
   12.7886  -15.9209   24.3227 C   0  0  0  0  0  0  0  0  0  0  0  0
   11.4413  -16.6660   24.4896 C   0  0  2  0  0  0  0  0  0  0  0  0
   10.3746  -15.7675   24.0532 N   0  0  0  0  0  0  0  0  0  0  0  0
   11.2342  -16.9882   25.9063 C   0  0  0  0  0  0  0  0  0  0  0  0
   10.1700  -16.5075   26.6615 O   0  0  0  0  0  0  0  0  0  0  0  0
   13.9455  -16.3208   22.1473 C   0  0  0  0  0  0  0  0  0  0  0  0
   14.2241  -16.0303   20.8339 C   0  0  0  0  0  0  0  0  0  0  0  0
   12.0383  -17.7427   26.5360 O   0  0  0  0  0  0  0  0  0  0  0  0
  1  2  1  0
  2  4  1  0
  3  2  2  0
  4  5  1  0
  5  7  1  0
  5  6  1  6
  7  8  2  0
  9  7  1  0
  9 10  1  0
 10 11  1  1
 12 11  1  0
 13 12  2  0
 14 13  1  0
 15 14  1  0
 15 20  2  0
 16 15  1  0
 17 16  2  0
 17 18  1  0
 18 19  2  0
 19 20  1  0
 20 12  1  0
 21 22  2  0
 21 10  1  0
 23 24  1  0
 24 25  2  0
 25 26  1  0
 27 26  2  0
 27 28  1  0
 29 28  1  1
 29 30  1  0
 30 21  1  0
 31 32  1  0
 31 29  1  0
 33 27  1  0
 34 24  1  0
 34 33  2  0
 35 31  2  0
M  END
$$$$
