NWY.pdb
     RDKit          3D

 35 37  0  0  1  0  0  0  0  0999 V2000
   13.3361  -19.7471   19.5563 N   0  0  0  0  0  0  0  0  0  0  0  0
   13.8270  -18.4231   19.5817 C   0  0  0  0  0  0  0  0  0  0  0  0
   15.0161  -18.2133   19.2594 O   0  0  0  0  0  0  0  0  0  0  0  0
   12.9637  -17.3191   19.9758 C   0  0  0  0  0  0  0  0  0  0  0  0
   11.5851  -17.7156   20.4472 C   0  0  2  0  0  0  0  0  0  0  0  0
   10.7452  -17.6819   19.2373 N   0  0  0  0  0  0  0  0  0  0  0  0
   11.0350  -16.8297   21.4925 C   0  0  0  0  0  0  0  0  0  0  0  0
   11.4013  -15.6287   21.5382 O   0  0  0  0  0  0  0  0  0  0  0  0
   10.1030  -17.2495   22.4675 N   0  0  0  0  0  0  0  0  0  0  0  0
    9.4698  -16.3150   23.4294 C   0  0  1  0  0  0  0  0  0  0  0  0
    8.0126  -16.5412   23.3124 C   0  0  0  0  0  0  0  0  0  0  0  0
    7.3284  -16.0417   22.1157 C   0  0  0  0  0  0  0  0  0  0  0  0
    6.4427  -16.6668   21.2813 C   0  0  0  0  0  0  0  0  0  0  0  0
    6.0895  -15.8101   20.3146 N   0  0  0  0  0  0  0  0  0  0  0  0
    6.7192  -14.6332   20.4889 C   0  0  0  0  0  0  0  0  0  0  0  0
    6.6818  -13.4312   19.7768 C   0  0  0  0  0  0  0  0  0  0  0  0
    7.4246  -12.3591   20.1897 C   0  0  0  0  0  0  0  0  0  0  0  0
    8.2219  -12.4578   21.3200 C   0  0  0  0  0  0  0  0  0  0  0  0
    8.2438  -13.6494   22.0047 C   0  0  0  0  0  0  0  0  0  0  0  0
    7.4975  -14.7552   21.6061 C   0  0  0  0  0  0  0  0  0  0  0  0
   10.1181  -16.4670   24.7043 C   0  0  0  0  0  0  0  0  0  0  0  0
   10.7996  -17.4970   24.9506 O   0  0  0  0  0  0  0  0  0  0  0  0
    5.7746  -11.6255   27.2706 O   0  0  0  0  0  0  0  0  0  0  0  0
    6.9612  -12.3337   27.4515 C   0  0  0  0  0  0  0  0  0  0  0  0
    7.1186  -13.2633   28.4558 C   0  0  0  0  0  0  0  0  0  0  0  0
    8.3255  -13.9155   28.5599 C   0  0  0  0  0  0  0  0  0  0  0  0
    9.3889  -13.6757   27.6956 C   0  0  0  0  0  0  0  0  0  0  0  0
   10.6715  -14.3826   27.8367 C   0  0  0  0  0  0  0  0  0  0  0  0
   10.6803  -15.7202   27.0564 C   0  0  2  0  0  0  0  0  0  0  0  0
   10.0491  -15.4870   25.7592 N   0  0  0  0  0  0  0  0  0  0  0  0
    9.8930  -16.7181   27.7898 C   0  0  0  0  0  0  0  0  0  0  0  0
   10.2601  -17.2360   29.0271 O   0  0  0  0  0  0  0  0  0  0  0  0
    9.1758  -12.7336   26.7078 C   0  0  0  0  0  0  0  0  0  0  0  0
    7.9924  -12.0525   26.5572 C   0  0  0  0  0  0  0  0  0  0  0  0
    8.8053  -17.1755   27.3207 O   0  0  0  0  0  0  0  0  0  0  0  0
  1  2  1  0
  2  4  1  0
  3  2  2  0
  4  5  1  0
  5  7  1  0
  5  6  1  6
  7  8  2  0
  9  7  1  0
  9 10  1  0
 10 11  1  1
 12 11  1  0
 13 12  2  0
 14 13  1  0
 15 14  1  0
 15 20  2  0
 16 15  1  0
 17 16  2  0
 17 18  1  0
 18 19  2  0
 19 20  1  0
 20 12  1  0
 21 22  2  0
 21 10  1  0
 23 24  1  0
 24 25  2  0
 25 26  1  0
 27 26  2  0
 27 28  1  0
 29 28  1  1
 29 30  1  0
 30 21  1  0
 31 32  1  0
 31 29  1  0
 33 27  1  0
 34 24  1  0
 34 33  2  0
 35 31  2  0
M  END
$$$$
