NWY.pdb
     RDKit          3D

 35 37  0  0  1  0  0  0  0  0999 V2000
    9.4731  -13.1741   15.0979 N   0  0  0  0  0  0  0  0  0  0  0  0
    8.8550  -14.2818   15.7187 C   0  0  0  0  0  0  0  0  0  0  0  0
    8.5728  -15.2829   15.0259 O   0  0  0  0  0  0  0  0  0  0  0  0
    8.5509  -14.2604   17.1423 C   0  0  0  0  0  0  0  0  0  0  0  0
    9.4717  -15.0842   18.0103 C   0  0  2  0  0  0  0  0  0  0  0  0
    9.0872  -16.4828   17.7523 N   0  0  0  0  0  0  0  0  0  0  0  0
    9.3731  -14.7701   19.4497 C   0  0  0  0  0  0  0  0  0  0  0  0
    9.6977  -13.6259   19.8546 O   0  0  0  0  0  0  0  0  0  0  0  0
    8.9281  -15.6893   20.4257 N   0  0  0  0  0  0  0  0  0  0  0  0
    8.7981  -15.3382   21.8607 C   0  0  1  0  0  0  0  0  0  0  0  0
    7.3787  -15.5710   22.2064 C   0  0  0  0  0  0  0  0  0  0  0  0
    6.9240  -15.2015   23.5505 C   0  0  0  0  0  0  0  0  0  0  0  0
    6.5376  -15.9913   24.5984 C   0  0  0  0  0  0  0  0  0  0  0  0
    6.1978  -15.2019   25.6253 N   0  0  0  0  0  0  0  0  0  0  0  0
    6.3502  -13.9090   25.2830 C   0  0  0  0  0  0  0  0  0  0  0  0
    6.1494  -12.7188   25.9876 C   0  0  0  0  0  0  0  0  0  0  0  0
    6.4032  -11.5125   25.3945 C   0  0  0  0  0  0  0  0  0  0  0  0
    6.8621  -11.4620   24.0868 C   0  0  0  0  0  0  0  0  0  0  0  0
    7.0521  -12.6445   23.4126 C   0  0  0  0  0  0  0  0  0  0  0  0
    6.8018  -13.8852   23.9929 C   0  0  0  0  0  0  0  0  0  0  0  0
    9.8339  -16.0187   22.5905 C   0  0  0  0  0  0  0  0  0  0  0  0
   11.0444  -15.7425   22.3801 O   0  0  0  0  0  0  0  0  0  0  0  0
   10.6022  -15.1352   31.0882 O   0  0  0  0  0  0  0  0  0  0  0  0
   10.3033  -15.3303   29.7411 C   0  0  0  0  0  0  0  0  0  0  0  0
   10.7684  -16.4166   29.0330 C   0  0  0  0  0  0  0  0  0  0  0  0
   10.4234  -16.5287   27.7060 C   0  0  0  0  0  0  0  0  0  0  0  0
    9.6268  -15.5936   27.0527 C   0  0  0  0  0  0  0  0  0  0  0  0
    9.2811  -15.7355   25.6297 C   0  0  0  0  0  0  0  0  0  0  0  0
   10.0721  -16.8843   24.9570 C   0  0  2  0  0  0  0  0  0  0  0  0
    9.5794  -17.0272   23.5887 N   0  0  0  0  0  0  0  0  0  0  0  0
    9.8226  -18.1370   25.6798 C   0  0  0  0  0  0  0  0  0  0  0  0
   10.6952  -18.6749   26.6194 O   0  0  0  0  0  0  0  0  0  0  0  0
    9.1889  -14.5248   27.8106 C   0  0  0  0  0  0  0  0  0  0  0  0
    9.5023  -14.3623   29.1382 C   0  0  0  0  0  0  0  0  0  0  0  0
    8.7684  -18.8159   25.4796 O   0  0  0  0  0  0  0  0  0  0  0  0
  1  2  1  0
  2  4  1  0
  3  2  2  0
  4  5  1  0
  5  7  1  0
  5  6  1  1
  7  8  2  0
  9  7  1  0
  9 10  1  0
 10 11  1  1
 12 11  1  0
 13 12  2  0
 14 13  1  0
 15 14  1  0
 15 20  2  0
 16 15  1  0
 17 16  2  0
 17 18  1  0
 18 19  2  0
 19 20  1  0
 20 12  1  0
 21 22  2  0
 21 10  1  0
 23 24  1  0
 24 25  2  0
 25 26  1  0
 27 26  2  0
 27 28  1  0
 29 28  1  1
 29 30  1  0
 30 21  1  0
 31 32  1  0
 31 29  1  0
 33 27  1  0
 34 24  1  0
 34 33  2  0
 35 31  2  0
M  END
$$$$
