NWY.pdb
     RDKit          3D

 35 37  0  0  1  0  0  0  0  0999 V2000
   11.3583  -18.7053   17.7960 N   0  0  0  0  0  0  0  0  0  0  0  0
   12.1353  -18.9398   18.9517 C   0  0  0  0  0  0  0  0  0  0  0  0
   13.0040  -19.8378   18.9238 O   0  0  0  0  0  0  0  0  0  0  0  0
   11.9300  -18.1493   20.1569 C   0  0  0  0  0  0  0  0  0  0  0  0
   11.0015  -16.9686   20.0027 C   0  0  2  0  0  0  0  0  0  0  0  0
   11.7267  -16.0253   19.1341 N   0  0  0  0  0  0  0  0  0  0  0  0
   10.6345  -16.3281   21.2815 C   0  0  0  0  0  0  0  0  0  0  0  0
   11.4904  -15.6438   21.8961 O   0  0  0  0  0  0  0  0  0  0  0  0
    9.3570  -16.4341   21.8751 N   0  0  0  0  0  0  0  0  0  0  0  0
    9.0394  -15.8633   23.2065 C   0  0  1  0  0  0  0  0  0  0  0  0
    7.5967  -15.5377   23.1725 C   0  0  0  0  0  0  0  0  0  0  0  0
    6.9549  -15.1064   24.4183 C   0  0  0  0  0  0  0  0  0  0  0  0
    6.2482  -15.8275   25.3412 C   0  0  0  0  0  0  0  0  0  0  0  0
    5.8477  -14.9994   26.3143 N   0  0  0  0  0  0  0  0  0  0  0  0
    6.2723  -13.7479   26.0584 C   0  0  0  0  0  0  0  0  0  0  0  0
    6.1343  -12.5457   26.7576 C   0  0  0  0  0  0  0  0  0  0  0  0
    6.6919  -11.3948   26.2716 C   0  0  0  0  0  0  0  0  0  0  0  0
    7.3990  -11.4129   25.0789 C   0  0  0  0  0  0  0  0  0  0  0  0
    7.5218  -12.6060   24.4077 C   0  0  0  0  0  0  0  0  0  0  0  0
    6.9646  -13.7913   24.8804 C   0  0  0  0  0  0  0  0  0  0  0  0
    9.5492  -16.7526   24.2154 C   0  0  0  0  0  0  0  0  0  0  0  0
   10.2307  -17.7597   23.8876 O   0  0  0  0  0  0  0  0  0  0  0  0
   14.9747  -18.8739   30.4886 O   0  0  0  0  0  0  0  0  0  0  0  0
   14.1085  -18.2689   29.5798 C   0  0  0  0  0  0  0  0  0  0  0  0
   13.1991  -17.3058   29.9578 C   0  0  0  0  0  0  0  0  0  0  0  0
   12.3829  -16.7624   28.9929 C   0  0  0  0  0  0  0  0  0  0  0  0
   12.4385  -17.1442   27.6562 C   0  0  0  0  0  0  0  0  0  0  0  0
   11.5465  -16.5513   26.6474 C   0  0  0  0  0  0  0  0  0  0  0  0
   10.1645  -17.2495   26.6197 C   0  0  2  0  0  0  0  0  0  0  0  0
    9.3362  -16.5658   25.6288 N   0  0  0  0  0  0  0  0  0  0  0  0
    9.5265  -17.1210   27.9351 C   0  0  0  0  0  0  0  0  0  0  0  0
    9.5447  -18.1180   28.9044 O   0  0  0  0  0  0  0  0  0  0  0  0
   13.3683  -18.1137   27.3336 C   0  0  0  0  0  0  0  0  0  0  0  0
   14.2080  -18.6904   28.2551 C   0  0  0  0  0  0  0  0  0  0  0  0
    8.9057  -16.0644   28.2672 O   0  0  0  0  0  0  0  0  0  0  0  0
  1  2  1  0
  2  4  1  0
  3  2  2  0
  4  5  1  0
  5  7  1  0
  5  6  1  6
  7  8  2  0
  9  7  1  0
  9 10  1  0
 10 11  1  1
 12 11  1  0
 13 12  2  0
 14 13  1  0
 15 14  1  0
 15 20  2  0
 16 15  1  0
 17 16  2  0
 17 18  1  0
 18 19  2  0
 19 20  1  0
 20 12  1  0
 21 22  2  0
 21 10  1  0
 23 24  1  0
 24 25  2  0
 25 26  1  0
 27 26  2  0
 27 28  1  0
 29 28  1  1
 29 30  1  0
 30 21  1  0
 31 32  1  0
 31 29  1  0
 33 27  1  0
 34 24  1  0
 34 33  2  0
 35 31  2  0
M  END
$$$$
