NWY.pdb
     RDKit          3D

 35 37  0  0  1  0  0  0  0  0999 V2000
   11.3870  -18.2574   16.1267 N   0  0  0  0  0  0  0  0  0  0  0  0
   12.0948  -17.8822   17.2898 C   0  0  0  0  0  0  0  0  0  0  0  0
   13.2724  -18.2753   17.4335 O   0  0  0  0  0  0  0  0  0  0  0  0
   11.4654  -17.0509   18.3057 C   0  0  0  0  0  0  0  0  0  0  0  0
   11.2287  -17.7264   19.6352 C   0  0  2  0  0  0  0  0  0  0  0  0
   10.1221  -18.6679   19.3918 N   0  0  0  0  0  0  0  0  0  0  0  0
   10.8912  -16.7914   20.7271 C   0  0  0  0  0  0  0  0  0  0  0  0
   11.7016  -15.8807   21.0312 O   0  0  0  0  0  0  0  0  0  0  0  0
    9.6916  -16.8518   21.4704 N   0  0  0  0  0  0  0  0  0  0  0  0
    9.3865  -15.9182   22.5815 C   0  0  1  0  0  0  0  0  0  0  0  0
    7.9561  -15.5700   22.4352 C   0  0  0  0  0  0  0  0  0  0  0  0
    7.5296  -14.2202   22.8173 C   0  0  0  0  0  0  0  0  0  0  0  0
    7.3621  -13.0991   22.0516 C   0  0  0  0  0  0  0  0  0  0  0  0
    6.9647  -12.0960   22.8448 N   0  0  0  0  0  0  0  0  0  0  0  0
    6.8646  -12.5257   24.1165 C   0  0  0  0  0  0  0  0  0  0  0  0
    6.4819  -11.8862   25.2987 C   0  0  0  0  0  0  0  0  0  0  0  0
    6.4501  -12.5763   26.4796 C   0  0  0  0  0  0  0  0  0  0  0  0
    6.7987  -13.9181   26.5118 C   0  0  0  0  0  0  0  0  0  0  0  0
    7.1723  -14.5268   25.3375 C   0  0  0  0  0  0  0  0  0  0  0  0
    7.2128  -13.8477   24.1227 C   0  0  0  0  0  0  0  0  0  0  0  0
    9.8596  -16.5015   23.8081 C   0  0  0  0  0  0  0  0  0  0  0  0
    9.6729  -17.7248   24.0421 O   0  0  0  0  0  0  0  0  0  0  0  0
   11.9407  -17.1195   32.3809 O   0  0  0  0  0  0  0  0  0  0  0  0
   11.8023  -16.6824   31.0648 C   0  0  0  0  0  0  0  0  0  0  0  0
   12.6652  -17.0722   30.0643 C   0  0  0  0  0  0  0  0  0  0  0  0
   12.4526  -16.5912   28.7931 C   0  0  0  0  0  0  0  0  0  0  0  0
   11.4057  -15.7309   28.4780 C   0  0  0  0  0  0  0  0  0  0  0  0
   11.2082  -15.2256   27.1104 C   0  0  0  0  0  0  0  0  0  0  0  0
   10.8945  -16.3689   26.1142 C   0  0  2  0  0  0  0  0  0  0  0  0
   10.5653  -15.7634   24.8255 N   0  0  0  0  0  0  0  0  0  0  0  0
    9.7297  -17.1245   26.5897 C   0  0  0  0  0  0  0  0  0  0  0  0
    8.4194  -16.6695   26.4906 O   0  0  0  0  0  0  0  0  0  0  0  0
   10.5718  -15.3726   29.5196 C   0  0  0  0  0  0  0  0  0  0  0  0
   10.7366  -15.8220   30.8072 C   0  0  0  0  0  0  0  0  0  0  0  0
    9.8596  -18.2647   27.1332 O   0  0  0  0  0  0  0  0  0  0  0  0
  1  2  1  0
  2  4  1  0
  3  2  2  0
  4  5  1  0
  5  7  1  0
  5  6  1  6
  7  8  2  0
  9  7  1  0
  9 10  1  0
 10 11  1  1
 12 11  1  0
 13 12  2  0
 14 13  1  0
 15 14  1  0
 15 20  2  0
 16 15  1  0
 17 16  2  0
 17 18  1  0
 18 19  2  0
 19 20  1  0
 20 12  1  0
 21 22  2  0
 21 10  1  0
 23 24  1  0
 24 25  2  0
 25 26  1  0
 27 26  2  0
 27 28  1  0
 29 28  1  1
 29 30  1  0
 30 21  1  0
 31 32  1  0
 31 29  1  0
 33 27  1  0
 34 24  1  0
 34 33  2  0
 35 31  2  0
M  END
$$$$
