DMN.pdb
     RDKit          3D

 25 24  0  0  1  0  0  0  0  0999 V2000
    7.4212  -16.8214   21.2585 N   0  0  0  0  0  0  0  0  0  0  0  0
    8.7148  -16.1877   21.1273 C   0  0  1  0  0  0  0  0  0  0  0  0
    8.6811  -15.1566   20.0138 C   0  0  0  0  0  0  0  0  0  0  0  0
    8.6339  -15.8712   18.7230 C   0  0  0  0  0  0  0  0  0  0  0  0
    7.9464  -16.9127   18.6240 O   0  0  0  0  0  0  0  0  0  0  0  0
    9.0559  -15.5465   22.4188 C   0  0  0  0  0  0  0  0  0  0  0  0
   10.1598  -14.9847   22.5460 O   0  0  0  0  0  0  0  0  0  0  0  0
    9.3229  -15.4414   17.5971 O   0  0  0  0  0  0  0  0  0  0  0  0
    6.3302  -10.9519   25.3350 C   0  0  0  0  0  0  0  0  0  0  0  0
    6.2313  -12.0807   26.7515 S   0  0  0  0  0  0  0  0  0  0  0  0
    7.4065  -13.4137   26.5226 C   0  0  0  0  0  0  0  0  0  0  0  0
    7.4501  -14.0230   25.1872 C   0  0  0  0  0  0  0  0  0  0  0  0
    8.5102  -15.0095   24.8412 C   0  0  2  0  0  0  0  0  0  0  0  0
    8.1484  -15.5698   23.4895 N   0  0  0  0  0  0  0  0  0  0  0  0
    8.5647  -16.1413   25.7465 C   0  0  0  0  0  0  0  0  0  0  0  0
    8.8132  -15.9185   26.9756 O   0  0  0  0  0  0  0  0  0  0  0  0
    5.6049  -19.9616   25.3503 N   0  0  0  0  0  0  0  0  0  0  0  0
    6.8573  -19.5847   24.7923 C   0  0  0  0  0  0  0  0  0  0  0  0
    6.8225  -19.0401   23.6591 O   0  0  0  0  0  0  0  0  0  0  0  0
    8.1061  -19.8355   25.5336 C   0  0  0  0  0  0  0  0  0  0  0  0
    8.5568  -18.5854   26.3392 C   0  0  2  0  0  0  0  0  0  0  0  0
    8.3542  -17.4932   25.4019 N   0  0  0  0  0  0  0  0  0  0  0  0
    9.8988  -18.7527   26.8448 C   0  0  0  0  0  0  0  0  0  0  0  0
   10.1914  -19.1122   28.0045 O   0  0  0  0  0  0  0  0  0  0  0  0
   10.9712  -18.5029   25.9997 O   0  0  0  0  0  0  0  0  0  0  0  0
  2  1  1  1
  2  6  1  0
  2  3  1  0
  3  4  1  0
  4  5  2  0
  4  8  1  0
  6  7  2  0
  9 10  1  0
 10 11  1  0
 11 12  1  0
 13 12  1  1
 13 14  1  0
 14  6  1  0
 15 13  1  0
 16 15  2  0
 17 18  1  0
 18 20  1  0
 19 18  2  0
 21 20  1  6
 21 22  1  0
 21 23  1  0
 22 15  1  0
 23 25  1  0
 24 23  2  0
M  END
$$$$
