DMN.pdb
     RDKit          3D

 25 24  0  0  1  0  0  0  0  0999 V2000
    9.3028  -15.4683   19.3469 N   0  0  0  0  0  0  0  0  0  0  0  0
    9.0732  -16.4589   20.3756 C   0  0  1  0  0  0  0  0  0  0  0  0
   10.0532  -17.6079   20.2227 C   0  0  0  0  0  0  0  0  0  0  0  0
    9.8606  -18.2055   18.8867 C   0  0  0  0  0  0  0  0  0  0  0  0
    8.6982  -18.3848   18.4575 O   0  0  0  0  0  0  0  0  0  0  0  0
    9.2368  -15.8091   21.6971 C   0  0  0  0  0  0  0  0  0  0  0  0
   10.3671  -15.4233   22.0494 O   0  0  0  0  0  0  0  0  0  0  0  0
   10.9173  -18.5842   18.0702 O   0  0  0  0  0  0  0  0  0  0  0  0
    6.9142  -11.8157   27.6345 C   0  0  0  0  0  0  0  0  0  0  0  0
    7.3464  -12.3173   25.9457 S   0  0  0  0  0  0  0  0  0  0  0  0
    6.6937  -13.9569   25.6355 C   0  0  0  0  0  0  0  0  0  0  0  0
    6.9293  -14.5103   24.2958 C   0  0  0  0  0  0  0  0  0  0  0  0
    8.2811  -14.9982   23.9069 C   0  0  2  0  0  0  0  0  0  0  0  0
    8.1332  -15.6282   22.5457 N   0  0  0  0  0  0  0  0  0  0  0  0
    8.7942  -16.0369   24.7796 C   0  0  0  0  0  0  0  0  0  0  0  0
    8.1333  -17.1209   24.8796 O   0  0  0  0  0  0  0  0  0  0  0  0
   12.9053  -16.7724   23.9449 N   0  0  0  0  0  0  0  0  0  0  0  0
   12.2074  -17.6153   24.8528 C   0  0  0  0  0  0  0  0  0  0  0  0
   11.8732  -18.7477   24.4192 O   0  0  0  0  0  0  0  0  0  0  0  0
   11.9110  -17.1503   26.2195 C   0  0  0  0  0  0  0  0  0  0  0  0
   10.3817  -17.0215   26.4634 C   0  0  2  0  0  0  0  0  0  0  0  0
    9.9829  -15.9748   25.5372 N   0  0  0  0  0  0  0  0  0  0  0  0
   10.0995  -16.7813   27.8588 C   0  0  0  0  0  0  0  0  0  0  0  0
    9.4926  -15.7872   28.3097 O   0  0  0  0  0  0  0  0  0  0  0  0
   10.5220  -17.7105   28.7994 O   0  0  0  0  0  0  0  0  0  0  0  0
  2  1  1  6
  2  6  1  0
  2  3  1  0
  3  4  1  0
  4  5  2  0
  4  8  1  0
  6  7  2  0
  9 10  1  0
 10 11  1  0
 11 12  1  0
 13 12  1  1
 13 14  1  0
 14  6  1  0
 15 13  1  0
 16 15  2  0
 17 18  1  0
 18 20  1  0
 19 18  2  0
 21 20  1  1
 21 22  1  0
 21 23  1  0
 22 15  1  0
 23 25  1  0
 24 23  2  0
M  END
$$$$
