DMN.pdb
     RDKit          3D

 25 24  0  0  1  0  0  0  0  0999 V2000
    6.7966  -15.3748   20.2890 N   0  0  0  0  0  0  0  0  0  0  0  0
    8.1249  -14.8023   20.2705 C   0  0  1  0  0  0  0  0  0  0  0  0
    8.1066  -13.4626   19.5572 C   0  0  0  0  0  0  0  0  0  0  0  0
    8.0423  -13.7131   18.1039 C   0  0  0  0  0  0  0  0  0  0  0  0
    7.9465  -14.8903   17.6887 O   0  0  0  0  0  0  0  0  0  0  0  0
    8.5847  -14.6397   21.6696 C   0  0  0  0  0  0  0  0  0  0  0  0
    9.7316  -14.2059   21.8862 O   0  0  0  0  0  0  0  0  0  0  0  0
    8.0832  -12.6957   17.1604 O   0  0  0  0  0  0  0  0  0  0  0  0
    6.7439  -10.7661   27.0554 C   0  0  0  0  0  0  0  0  0  0  0  0
    7.2611  -12.4928   26.8523 S   0  0  0  0  0  0  0  0  0  0  0  0
    6.6192  -13.1189   25.3011 C   0  0  0  0  0  0  0  0  0  0  0  0
    6.9633  -14.5065   24.9650 C   0  0  0  0  0  0  0  0  0  0  0  0
    8.1866  -14.8108   24.1728 C   0  0  2  0  0  0  0  0  0  0  0  0
    7.7409  -14.9697   22.7418 N   0  0  0  0  0  0  0  0  0  0  0  0
    8.8174  -16.0637   24.5414 C   0  0  0  0  0  0  0  0  0  0  0  0
    8.1087  -17.1218   24.5288 O   0  0  0  0  0  0  0  0  0  0  0  0
   11.5791  -18.0615   22.5664 N   0  0  0  0  0  0  0  0  0  0  0  0
   12.3379  -17.2608   23.4637 C   0  0  0  0  0  0  0  0  0  0  0  0
   13.1103  -16.4164   22.9419 O   0  0  0  0  0  0  0  0  0  0  0  0
   12.1977  -17.4410   24.9196 C   0  0  0  0  0  0  0  0  0  0  0  0
   10.7059  -17.5153   25.3483 C   0  0  2  0  0  0  0  0  0  0  0  0
   10.1683  -16.2384   24.9091 N   0  0  0  0  0  0  0  0  0  0  0  0
   10.5870  -17.8079   26.7571 C   0  0  0  0  0  0  0  0  0  0  0  0
   10.6741  -18.9452   27.2659 O   0  0  0  0  0  0  0  0  0  0  0  0
   10.3585  -16.7642   27.6432 O   0  0  0  0  0  0  0  0  0  0  0  0
  2  1  1  1
  2  6  1  0
  2  3  1  0
  3  4  1  0
  4  5  2  0
  4  8  1  0
  6  7  2  0
  9 10  1  0
 10 11  1  0
 11 12  1  0
 13 12  1  1
 13 14  1  0
 14  6  1  0
 15 13  1  0
 16 15  2  0
 17 18  1  0
 18 20  1  0
 19 18  2  0
 21 20  1  1
 21 22  1  0
 21 23  1  0
 22 15  1  0
 23 25  1  0
 24 23  2  0
M  END
$$$$
