DMN.pdb
     RDKit          3D

 25 24  0  0  1  0  0  0  0  0999 V2000
    5.4074  -39.1396  -50.6036 N   0  0  0  0  0  0  0  0  0  0  0  0
    5.6198  -39.4418  -52.0022 C   0  0  1  0  0  0  0  0  0  0  0  0
    6.7477  -38.5900  -52.5554 C   0  0  0  0  0  0  0  0  0  0  0  0
    7.9095  -39.4660  -52.8043 C   0  0  0  0  0  0  0  0  0  0  0  0
    7.7860  -40.4426  -53.5779 O   0  0  0  0  0  0  0  0  0  0  0  0
    5.9470  -40.8815  -52.1262 C   0  0  0  0  0  0  0  0  0  0  0  0
    5.1579  -41.7266  -51.6638 O   0  0  0  0  0  0  0  0  0  0  0  0
    9.1498  -39.2595  -52.2161 O   0  0  0  0  0  0  0  0  0  0  0  0
   11.4008  -43.0931  -55.6726 C   0  0  0  0  0  0  0  0  0  0  0  0
   11.2761  -42.0333  -54.2058 S   0  0  0  0  0  0  0  0  0  0  0  0
    9.6234  -42.1644  -53.5262 C   0  0  0  0  0  0  0  0  0  0  0  0
    8.5200  -42.1950  -54.4949 C   0  0  0  0  0  0  0  0  0  0  0  0
    7.1078  -42.0913  -54.0349 C   0  0  2  0  0  0  0  0  0  0  0  0
    7.1318  -41.2931  -52.7566 N   0  0  0  0  0  0  0  0  0  0  0  0
    6.5129  -43.3712  -53.7012 C   0  0  0  0  0  0  0  0  0  0  0  0
    7.1882  -44.4270  -53.9273 O   0  0  0  0  0  0  0  0  0  0  0  0
    6.5745  -43.0807  -51.8517 N   0  0  0  0  0  0  0  0  0  0  0  0
    6.4478  -44.3022  -51.1350 C   0  0  0  0  0  0  0  0  0  0  0  0
    7.1047  -44.3933  -50.0663 O   0  0  0  0  0  0  0  0  0  0  0  0
    5.5830  -45.3788  -51.6497 C   0  0  0  0  0  0  0  0  0  0  0  0
    4.7066  -44.8932  -52.8375 C   0  0  2  0  0  0  0  0  0  0  0  0
    5.2395  -43.5725  -53.1277 N   0  0  0  0  0  0  0  0  0  0  0  0
    3.3033  -44.9566  -52.5039 C   0  0  0  0  0  0  0  0  0  0  0  0
    2.3714  -44.5564  -53.2328 O   0  0  0  0  0  0  0  0  0  0  0  0
    2.9266  -45.5008  -51.2838 O   0  0  0  0  0  0  0  0  0  0  0  0
  2  1  1  1
  2  6  1  0
  2  3  1  0
  3  4  1  0
  4  5  2  0
  4  8  1  0
  6  7  2  0
  9 10  1  0
 10 11  1  0
 11 12  1  0
 13 12  1  1
 13 14  1  0
 14  6  1  0
 15 13  1  0
 16 15  2  0
 17 18  1  0
 18 20  1  0
 19 18  2  0
 21 20  1  1
 21 22  1  0
 21 23  1  0
 22 15  1  0
 23 25  1  0
 24 23  2  0
M  END
$$$$
