DMN.pdb
     RDKit          3D

 25 24  0  0  1  0  0  0  0  0999 V2000
    7.1675  -16.5651   20.2280 N   0  0  0  0  0  0  0  0  0  0  0  0
    8.5058  -16.0201   20.1614 C   0  0  1  0  0  0  0  0  0  0  0  0
    8.5537  -14.8716   19.1702 C   0  0  0  0  0  0  0  0  0  0  0  0
    8.4204  -15.4288   17.8098 C   0  0  0  0  0  0  0  0  0  0  0  0
    8.1089  -14.6694   16.8645 O   0  0  0  0  0  0  0  0  0  0  0  0
    8.8902  -15.5548   21.5146 C   0  0  0  0  0  0  0  0  0  0  0  0
   10.0387  -15.1116   21.7019 O   0  0  0  0  0  0  0  0  0  0  0  0
    8.6255  -16.7710   17.5208 O   0  0  0  0  0  0  0  0  0  0  0  0
    6.6017  -10.8125   26.5022 C   0  0  0  0  0  0  0  0  0  0  0  0
    6.4015  -12.6095   26.3567 S   0  0  0  0  0  0  0  0  0  0  0  0
    7.2378  -13.1750   24.8765 C   0  0  0  0  0  0  0  0  0  0  0  0
    7.2213  -14.6227   24.6304 C   0  0  0  0  0  0  0  0  0  0  0  0
    8.3864  -15.2936   23.9910 C   0  0  2  0  0  0  0  0  0  0  0  0
    7.9738  -15.6113   22.5765 N   0  0  0  0  0  0  0  0  0  0  0  0
    8.7328  -16.5609   24.6054 C   0  0  0  0  0  0  0  0  0  0  0  0
    8.3544  -17.6326   24.0308 O   0  0  0  0  0  0  0  0  0  0  0  0
   12.3128  -19.9597   24.1555 N   0  0  0  0  0  0  0  0  0  0  0  0
   12.4405  -18.7196   24.8395 C   0  0  0  0  0  0  0  0  0  0  0  0
   13.5083  -18.5427   25.4802 O   0  0  0  0  0  0  0  0  0  0  0  0
   11.3579  -17.7218   24.7760 C   0  0  0  0  0  0  0  0  0  0  0  0
   10.3974  -17.8382   25.9920 C   0  0  2  0  0  0  0  0  0  0  0  0
    9.4727  -16.7344   25.7941 N   0  0  0  0  0  0  0  0  0  0  0  0
   11.1337  -17.8399   27.2339 C   0  0  0  0  0  0  0  0  0  0  0  0
   11.3437  -18.8450   27.9449 O   0  0  0  0  0  0  0  0  0  0  0  0
   11.6643  -16.6457   27.7020 O   0  0  0  0  0  0  0  0  0  0  0  0
  2  1  1  1
  2  6  1  0
  2  3  1  0
  3  4  1  0
  4  5  2  0
  4  8  1  0
  6  7  2  0
  9 10  1  0
 10 11  1  0
 11 12  1  0
 13 12  1  1
 13 14  1  0
 14  6  1  0
 15 13  1  0
 16 15  2  0
 17 18  1  0
 18 20  1  0
 19 18  2  0
 21 20  1  6
 21 22  1  0
 21 23  1  0
 22 15  1  0
 23 25  1  0
 24 23  2  0
M  END
$$$$
