DMN.pdb
     RDKit          3D

 25 24  0  0  1  0  0  0  0  0999 V2000
    8.8613  -16.9773   21.0950 N   0  0  0  0  0  0  0  0  0  0  0  0
   10.1376  -16.7881   21.7490 C   0  0  1  0  0  0  0  0  0  0  0  0
   11.1100  -16.1002   20.8082 C   0  0  0  0  0  0  0  0  0  0  0  0
   11.3367  -16.9854   19.6490 C   0  0  0  0  0  0  0  0  0  0  0  0
   10.9428  -16.6252   18.5165 O   0  0  0  0  0  0  0  0  0  0  0  0
    9.9242  -15.9692   22.9653 C   0  0  0  0  0  0  0  0  0  0  0  0
   10.9040  -15.6556   23.6668 O   0  0  0  0  0  0  0  0  0  0  0  0
   11.9735  -18.2147   19.7516 O   0  0  0  0  0  0  0  0  0  0  0  0
    7.0552  -11.5096   27.6563 C   0  0  0  0  0  0  0  0  0  0  0  0
    7.0738  -11.8094   25.8674 S   0  0  0  0  0  0  0  0  0  0  0  0
    6.3907  -13.4327   25.5375 C   0  0  0  0  0  0  0  0  0  0  0  0
    6.9984  -14.1840   24.4318 C   0  0  0  0  0  0  0  0  0  0  0  0
    8.3983  -14.6803   24.5352 C   0  0  2  0  0  0  0  0  0  0  0  0
    8.6343  -15.5496   23.3267 N   0  0  0  0  0  0  0  0  0  0  0  0
    8.6286  -15.5246   25.6918 C   0  0  0  0  0  0  0  0  0  0  0  0
    9.0113  -14.9730   26.7740 O   0  0  0  0  0  0  0  0  0  0  0  0
    7.3070  -21.1249   27.9237 N   0  0  0  0  0  0  0  0  0  0  0  0
    8.0195  -19.8945   27.9044 C   0  0  0  0  0  0  0  0  0  0  0  0
    8.7759  -19.6718   28.8843 O   0  0  0  0  0  0  0  0  0  0  0  0
    7.8533  -18.9579   26.7788 C   0  0  0  0  0  0  0  0  0  0  0  0
    8.7640  -17.7082   26.9322 C   0  0  2  0  0  0  0  0  0  0  0  0
    8.4573  -16.9240   25.7475 N   0  0  0  0  0  0  0  0  0  0  0  0
   10.1450  -18.0930   27.1037 C   0  0  0  0  0  0  0  0  0  0  0  0
   10.8849  -18.5399   26.2022 O   0  0  0  0  0  0  0  0  0  0  0  0
   10.7267  -17.9676   28.3577 O   0  0  0  0  0  0  0  0  0  0  0  0
  2  1  1  6
  2  6  1  0
  2  3  1  0
  3  4  1  0
  4  5  2  0
  4  8  1  0
  6  7  2  0
  9 10  1  0
 10 11  1  0
 11 12  1  0
 13 12  1  1
 13 14  1  0
 14  6  1  0
 15 13  1  0
 16 15  2  0
 17 18  1  0
 18 20  1  0
 19 18  2  0
 21 20  1  6
 21 22  1  0
 21 23  1  0
 22 15  1  0
 23 25  1  0
 24 23  2  0
M  END
$$$$
