DMN.pdb
     RDKit          3D

 25 24  0  0  1  0  0  0  0  0999 V2000
    7.6124  -15.8312   19.3087 N   0  0  0  0  0  0  0  0  0  0  0  0
    7.9624  -16.7543   20.3659 C   0  0  1  0  0  0  0  0  0  0  0  0
    8.8867  -17.8337   19.8326 C   0  0  0  0  0  0  0  0  0  0  0  0
    8.3600  -18.2927   18.5323 C   0  0  0  0  0  0  0  0  0  0  0  0
    7.1244  -18.4313   18.3862 O   0  0  0  0  0  0  0  0  0  0  0  0
    8.6238  -15.9940   21.4521 C   0  0  0  0  0  0  0  0  0  0  0  0
    9.8202  -15.6719   21.3276 O   0  0  0  0  0  0  0  0  0  0  0  0
    9.1763  -18.5828   17.4476 O   0  0  0  0  0  0  0  0  0  0  0  0
    6.6271  -11.2005   27.4422 C   0  0  0  0  0  0  0  0  0  0  0  0
    6.1221  -12.4194   26.1974 S   0  0  0  0  0  0  0  0  0  0  0  0
    7.5841  -13.1061   25.4218 C   0  0  0  0  0  0  0  0  0  0  0  0
    7.3562  -14.0416   24.3130 C   0  0  0  0  0  0  0  0  0  0  0  0
    8.5039  -14.7120   23.6421 C   0  0  2  0  0  0  0  0  0  0  0  0
    7.9142  -15.6387   22.6100 N   0  0  0  0  0  0  0  0  0  0  0  0
    9.2880  -15.5456   24.5331 C   0  0  0  0  0  0  0  0  0  0  0  0
    9.8967  -14.9862   25.5018 O   0  0  0  0  0  0  0  0  0  0  0  0
   12.3836  -18.9960   26.6291 N   0  0  0  0  0  0  0  0  0  0  0  0
   12.7588  -18.0130   25.6726 C   0  0  0  0  0  0  0  0  0  0  0  0
   13.9927  -17.8175   25.5274 O   0  0  0  0  0  0  0  0  0  0  0  0
   11.7272  -17.2846   24.9128 C   0  0  0  0  0  0  0  0  0  0  0  0
   10.2940  -17.7037   25.3429 C   0  0  2  0  0  0  0  0  0  0  0  0
    9.4404  -16.9454   24.4435 N   0  0  0  0  0  0  0  0  0  0  0  0
   10.0922  -17.4804   26.7550 C   0  0  0  0  0  0  0  0  0  0  0  0
    9.7950  -16.3845   27.2751 O   0  0  0  0  0  0  0  0  0  0  0  0
   10.2312  -18.5484   27.6307 O   0  0  0  0  0  0  0  0  0  0  0  0
  2  1  1  6
  2  6  1  0
  2  3  1  0
  3  4  1  0
  4  5  2  0
  4  8  1  0
  6  7  2  0
  9 10  1  0
 10 11  1  0
 11 12  1  0
 13 12  1  1
 13 14  1  0
 14  6  1  0
 15 13  1  0
 16 15  2  0
 17 18  1  0
 18 20  1  0
 19 18  2  0
 21 20  1  6
 21 22  1  0
 21 23  1  0
 22 15  1  0
 23 25  1  0
 24 23  2  0
M  END
$$$$
