DMN.pdb
     RDKit          3D

 25 24  0  0  1  0  0  0  0  0999 V2000
    9.8540  -15.5772   20.2851 N   0  0  0  0  0  0  0  0  0  0  0  0
    8.6827  -15.8858   21.0756 C   0  0  1  0  0  0  0  0  0  0  0  0
    8.4099  -17.3787   21.0450 C   0  0  0  0  0  0  0  0  0  0  0  0
    8.2502  -17.7909   19.6366 C   0  0  0  0  0  0  0  0  0  0  0  0
    8.5956  -17.0051   18.7253 O   0  0  0  0  0  0  0  0  0  0  0  0
    8.9214  -15.4297   22.4650 C   0  0  0  0  0  0  0  0  0  0  0  0
   10.0695  -15.0863   22.8035 O   0  0  0  0  0  0  0  0  0  0  0  0
    7.7290  -19.0229   19.2656 O   0  0  0  0  0  0  0  0  0  0  0  0
    7.1282  -10.6699   25.5388 C   0  0  0  0  0  0  0  0  0  0  0  0
    7.5360  -11.9674   26.7389 S   0  0  0  0  0  0  0  0  0  0  0  0
    6.5659  -13.4291   26.3750 C   0  0  0  0  0  0  0  0  0  0  0  0
    6.7780  -14.0417   25.0573 C   0  0  0  0  0  0  0  0  0  0  0  0
    8.0453  -14.7621   24.7543 C   0  0  2  0  0  0  0  0  0  0  0  0
    7.8688  -15.3838   23.3926 N   0  0  0  0  0  0  0  0  0  0  0  0
    8.3207  -15.8561   25.6657 C   0  0  0  0  0  0  0  0  0  0  0  0
    8.4700  -15.5879   26.9016 O   0  0  0  0  0  0  0  0  0  0  0  0
   13.1139  -17.7432   24.7898 N   0  0  0  0  0  0  0  0  0  0  0  0
   11.8927  -18.4537   24.9505 C   0  0  0  0  0  0  0  0  0  0  0  0
   11.9853  -19.6346   25.3733 O   0  0  0  0  0  0  0  0  0  0  0  0
   10.6089  -17.8058   24.6284 C   0  0  0  0  0  0  0  0  0  0  0  0
    9.5481  -18.0501   25.7374 C   0  0  2  0  0  0  0  0  0  0  0  0
    8.4309  -17.2195   25.3195 N   0  0  0  0  0  0  0  0  0  0  0  0
   10.0947  -17.7748   27.0450 C   0  0  0  0  0  0  0  0  0  0  0  0
   10.7094  -16.7355   27.3640 O   0  0  0  0  0  0  0  0  0  0  0  0
    9.9410  -18.7199   28.0500 O   0  0  0  0  0  0  0  0  0  0  0  0
  2  1  1  6
  2  6  1  0
  2  3  1  0
  3  4  1  0
  4  5  2  0
  4  8  1  0
  6  7  2  0
  9 10  1  0
 10 11  1  0
 11 12  1  0
 13 12  1  1
 13 14  1  0
 14  6  1  0
 15 13  1  0
 16 15  2  0
 17 18  1  0
 18 20  1  0
 19 18  2  0
 21 20  1  6
 21 22  1  0
 21 23  1  0
 22 15  1  0
 23 25  1  0
 24 23  2  0
M  END
$$$$
