DMN.pdb
     RDKit          3D

 25 24  0  0  1  0  0  0  0  0999 V2000
    7.9810  -16.3715   20.2927 N   0  0  0  0  0  0  0  0  0  0  0  0
    9.3091  -16.6412   20.7982 C   0  0  1  0  0  0  0  0  0  0  0  0
   10.3484  -16.2967   19.7470 C   0  0  0  0  0  0  0  0  0  0  0  0
   10.2388  -17.2774   18.6493 C   0  0  0  0  0  0  0  0  0  0  0  0
    9.5222  -18.2923   18.8037 O   0  0  0  0  0  0  0  0  0  0  0  0
    9.5186  -15.8312   22.0210 C   0  0  0  0  0  0  0  0  0  0  0  0
   10.3149  -14.8744   21.9876 O   0  0  0  0  0  0  0  0  0  0  0  0
   10.8991  -17.1299   17.4371 O   0  0  0  0  0  0  0  0  0  0  0  0
    6.3599  -10.9317   25.3941 C   0  0  0  0  0  0  0  0  0  0  0  0
    6.8302  -12.5613   26.0371 S   0  0  0  0  0  0  0  0  0  0  0  0
    7.1677  -13.6595   24.6622 C   0  0  0  0  0  0  0  0  0  0  0  0
    7.7387  -14.9700   24.9987 C   0  0  0  0  0  0  0  0  0  0  0  0
    9.0763  -15.3672   24.4793 C   0  0  2  0  0  0  0  0  0  0  0  0
    8.8299  -16.1349   23.2059 N   0  0  0  0  0  0  0  0  0  0  0  0
    9.7953  -16.2666   25.3611 C   0  0  0  0  0  0  0  0  0  0  0  0
    9.3565  -17.4542   25.4988 O   0  0  0  0  0  0  0  0  0  0  0  0
   11.0737  -15.2946   30.6505 N   0  0  0  0  0  0  0  0  0  0  0  0
   10.4685  -16.2071   29.7432 C   0  0  0  0  0  0  0  0  0  0  0  0
   10.1384  -17.3259   30.2135 O   0  0  0  0  0  0  0  0  0  0  0  0
   10.2566  -15.8243   28.3360 C   0  0  0  0  0  0  0  0  0  0  0  0
   11.2577  -16.5418   27.3886 C   0  0  2  0  0  0  0  0  0  0  0  0
   10.9640  -15.9597   26.0896 N   0  0  0  0  0  0  0  0  0  0  0  0
   11.1278  -17.9762   27.4899 C   0  0  0  0  0  0  0  0  0  0  0  0
   10.0564  -18.6105   27.3917 O   0  0  0  0  0  0  0  0  0  0  0  0
   12.2652  -18.7398   27.7131 O   0  0  0  0  0  0  0  0  0  0  0  0
  2  1  1  6
  2  6  1  0
  2  3  1  0
  3  4  1  0
  4  5  2  0
  4  8  1  0
  6  7  2  0
  9 10  1  0
 10 11  1  0
 11 12  1  0
 13 12  1  1
 13 14  1  0
 14  6  1  0
 15 13  1  0
 16 15  2  0
 17 18  1  0
 18 20  1  0
 19 18  2  0
 21 20  1  1
 21 22  1  0
 21 23  1  0
 22 15  1  0
 23 25  1  0
 24 23  2  0
M  END
$$$$
