DMN.pdb
     RDKit          3D

 25 24  0  0  1  0  0  0  0  0999 V2000
    8.4038  -17.0551   19.6992 N   0  0  0  0  0  0  0  0  0  0  0  0
    9.7935  -16.9475   20.0856 C   0  0  1  0  0  0  0  0  0  0  0  0
   10.5772  -16.2071   19.0172 C   0  0  0  0  0  0  0  0  0  0  0  0
   10.4158  -16.9303   17.7406 C   0  0  0  0  0  0  0  0  0  0  0  0
   11.3403  -17.6704   17.3344 O   0  0  0  0  0  0  0  0  0  0  0  0
    9.8661  -16.2253   21.3774 C   0  0  0  0  0  0  0  0  0  0  0  0
   10.9746  -15.8500   21.8028 O   0  0  0  0  0  0  0  0  0  0  0  0
    9.2750  -16.8304   16.9559 O   0  0  0  0  0  0  0  0  0  0  0  0
    7.3430  -12.1470   27.1443 C   0  0  0  0  0  0  0  0  0  0  0  0
    8.0465  -12.7311   25.5777 S   0  0  0  0  0  0  0  0  0  0  0  0
    7.0408  -14.0731   24.9470 C   0  0  0  0  0  0  0  0  0  0  0  0
    7.4247  -14.6168   23.6380 C   0  0  0  0  0  0  0  0  0  0  0  0
    8.7546  -15.2585   23.4471 C   0  0  2  0  0  0  0  0  0  0  0  0
    8.7016  -15.9649   22.1167 N   0  0  0  0  0  0  0  0  0  0  0  0
    9.0517  -16.2783   24.4348 C   0  0  0  0  0  0  0  0  0  0  0  0
    8.2293  -17.2407   24.5735 O   0  0  0  0  0  0  0  0  0  0  0  0
   11.1530  -18.9152   28.4326 N   0  0  0  0  0  0  0  0  0  0  0  0
   11.7128  -17.6091   28.3812 C   0  0  0  0  0  0  0  0  0  0  0  0
   12.4700  -17.2884   29.3329 O   0  0  0  0  0  0  0  0  0  0  0  0
   11.3985  -16.7102   27.2565 C   0  0  0  0  0  0  0  0  0  0  0  0
   10.3959  -17.3614   26.2637 C   0  0  2  0  0  0  0  0  0  0  0  0
   10.1892  -16.3226   25.2684 N   0  0  0  0  0  0  0  0  0  0  0  0
    9.2166  -17.8295   26.9528 C   0  0  0  0  0  0  0  0  0  0  0  0
    8.2772  -17.1059   27.3449 O   0  0  0  0  0  0  0  0  0  0  0  0
    9.0858  -19.1863   27.2149 O   0  0  0  0  0  0  0  0  0  0  0  0
  2  1  1  6
  2  6  1  0
  2  3  1  0
  3  4  1  0
  4  5  2  0
  4  8  1  0
  6  7  2  0
  9 10  1  0
 10 11  1  0
 11 12  1  0
 13 12  1  1
 13 14  1  0
 14  6  1  0
 15 13  1  0
 16 15  2  0
 17 18  1  0
 18 20  1  0
 19 18  2  0
 21 20  1  1
 21 22  1  0
 21 23  1  0
 22 15  1  0
 23 25  1  0
 24 23  2  0
M  END
$$$$
