MYN.pdb
     RDKit          3D

 29 29  0  0  1  0  0  0  0  0999 V2000
    7.7780  -12.3659   16.9087 C   0  0  0  0  0  0  0  0  0  0  0  0
    6.8881  -13.9210   16.9194 S   0  0  0  0  0  0  0  0  0  0  0  0
    7.4636  -15.1674   18.0261 C   0  0  0  0  0  0  0  0  0  0  0  0
    8.8485  -15.0879   18.5573 C   0  0  0  0  0  0  0  0  0  0  0  0
    9.2866  -16.0754   19.5682 C   0  0  2  0  0  0  0  0  0  0  0  0
    8.5154  -17.2785   19.6406 N   0  0  0  0  0  0  0  0  0  0  0  0
    9.3702  -15.5117   20.9404 C   0  0  0  0  0  0  0  0  0  0  0  0
   10.3260  -14.8071   21.3137 O   0  0  0  0  0  0  0  0  0  0  0  0
    6.9252  -12.0385   28.6384 O   0  0  0  0  0  0  0  0  0  0  0  0
    6.9147  -12.7317   27.4302 C   0  0  0  0  0  0  0  0  0  0  0  0
    7.0742  -14.0961   27.3930 C   0  0  0  0  0  0  0  0  0  0  0  0
    7.0665  -14.8109   26.1865 C   0  0  0  0  0  0  0  0  0  0  0  0
    6.8981  -14.1753   24.9845 C   0  0  0  0  0  0  0  0  0  0  0  0
    6.8630  -14.8498   23.6528 C   0  0  0  0  0  0  0  0  0  0  0  0
    8.2473  -15.2851   23.1958 C   0  0  2  0  0  0  0  0  0  0  0  0
    8.3258  -15.7811   21.8667 N   0  0  0  0  0  0  0  0  0  0  0  0
    8.8141  -16.1532   24.2416 C   0  0  0  0  0  0  0  0  0  0  0  0
    8.0610  -16.9581   24.8431 O   0  0  0  0  0  0  0  0  0  0  0  0
    6.7362  -12.7782   25.0371 C   0  0  0  0  0  0  0  0  0  0  0  0
    6.7453  -12.0865   26.2240 C   0  0  0  0  0  0  0  0  0  0  0  0
    9.2480  -19.4775   25.3225 N   0  0  0  0  0  0  0  0  0  0  0  0
   10.0645  -19.4989   24.1467 C   0  0  0  0  0  0  0  0  0  0  0  0
   10.0139  -20.4406   23.3427 O   0  0  0  0  0  0  0  0  0  0  0  0
   10.9897  -18.3581   23.8980 C   0  0  0  0  0  0  0  0  0  0  0  0
   10.9377  -17.3113   24.9549 C   0  0  2  0  0  0  0  0  0  0  0  0
   10.1910  -16.1372   24.6218 N   0  0  0  0  0  0  0  0  0  0  0  0
   12.3430  -16.8936   25.2563 C   0  0  0  0  0  0  0  0  0  0  0  0
   13.1981  -17.7226   25.6713 O   0  0  0  0  0  0  0  0  0  0  0  0
   12.7684  -15.5768   25.0929 O   0  0  0  0  0  0  0  0  0  0  0  0
  2  1  1  0
  3  2  1  0
  4  3  1  0
  5  4  1  0
  5  6  1  1
  7 16  1  0
  7  5  1  0
  8  7  2  0
  9 10  1  0
 10 11  2  0
 11 12  1  0
 13 12  2  0
 13 14  1  0
 15 14  1  1
 15 16  1  0
 17 15  1  0
 17 26  1  0
 18 17  2  0
 19 13  1  0
 20 10  1  0
 20 19  2  0
 21 22  1  0
 22 24  1  0
 23 22  2  0
 25 24  1  6
 25 26  1  0
 25 27  1  0
 27 28  2  0
 27 29  1  0
M  END
$$$$
