MYN.pdb
     RDKit          3D

 29 29  0  0  1  0  0  0  0  0999 V2000
    7.6057  -11.2868   18.7499 C   0  0  0  0  0  0  0  0  0  0  0  0
    6.8236  -12.8254   18.2690 S   0  0  0  0  0  0  0  0  0  0  0  0
    7.4020  -14.2976   19.0485 C   0  0  0  0  0  0  0  0  0  0  0  0
    8.4931  -14.2107   20.0526 C   0  0  0  0  0  0  0  0  0  0  0  0
    8.9460  -15.4465   20.7284 C   0  0  2  0  0  0  0  0  0  0  0  0
    7.9566  -16.4673   20.8909 N   0  0  0  0  0  0  0  0  0  0  0  0
    9.5568  -15.1963   22.0596 C   0  0  0  0  0  0  0  0  0  0  0  0
   10.5161  -14.4188   22.2165 O   0  0  0  0  0  0  0  0  0  0  0  0
   10.9168  -14.9879   30.7853 O   0  0  0  0  0  0  0  0  0  0  0  0
   10.3367  -15.1459   29.5287 C   0  0  0  0  0  0  0  0  0  0  0  0
   10.0175  -16.3922   29.0458 C   0  0  0  0  0  0  0  0  0  0  0  0
    9.4332  -16.5709   27.7835 C   0  0  0  0  0  0  0  0  0  0  0  0
    9.1531  -15.5031   26.9719 C   0  0  0  0  0  0  0  0  0  0  0  0
    8.5223  -15.5919   25.6215 C   0  0  0  0  0  0  0  0  0  0  0  0
    9.5539  -15.7841   24.5200 C   0  0  2  0  0  0  0  0  0  0  0  0
    9.0334  -15.8642   23.2004 N   0  0  0  0  0  0  0  0  0  0  0  0
   10.4479  -16.8810   24.9273 C   0  0  0  0  0  0  0  0  0  0  0  0
   10.0068  -18.0567   24.9409 O   0  0  0  0  0  0  0  0  0  0  0  0
    9.4854  -14.2328   27.4788 C   0  0  0  0  0  0  0  0  0  0  0  0
   10.0578  -14.0677   28.7166 C   0  0  0  0  0  0  0  0  0  0  0  0
   14.5066  -15.5188   23.1901 N   0  0  0  0  0  0  0  0  0  0  0  0
   14.0581  -16.8591   23.4185 C   0  0  0  0  0  0  0  0  0  0  0  0
   13.6281  -17.5623   22.4932 O   0  0  0  0  0  0  0  0  0  0  0  0
   14.1155  -17.4059   24.8030 C   0  0  0  0  0  0  0  0  0  0  0  0
   12.7781  -17.7406   25.3642 C   0  0  2  0  0  0  0  0  0  0  0  0
   11.8094  -16.6888   25.3147 N   0  0  0  0  0  0  0  0  0  0  0  0
   12.9661  -18.1269   26.7980 C   0  0  0  0  0  0  0  0  0  0  0  0
   13.7551  -19.0536   27.1287 O   0  0  0  0  0  0  0  0  0  0  0  0
   12.2817  -17.4836   27.8273 O   0  0  0  0  0  0  0  0  0  0  0  0
  2  1  1  0
  3  2  1  0
  4  3  1  0
  5  4  1  0
  5  6  1  1
  7 16  1  0
  7  5  1  0
  8  7  2  0
  9 10  1  0
 10 11  2  0
 11 12  1  0
 13 12  2  0
 13 14  1  0
 15 14  1  1
 15 16  1  0
 17 15  1  0
 17 26  1  0
 18 17  2  0
 19 13  1  0
 20 10  1  0
 20 19  2  0
 21 22  1  0
 22 24  1  0
 23 22  2  0
 25 24  1  1
 25 26  1  0
 25 27  1  0
 27 28  2  0
 27 29  1  0
M  END
$$$$
