MYN.pdb
     RDKit          3D

 29 29  0  0  1  0  0  0  0  0999 V2000
    7.4925  -11.2217   27.7640 C   0  0  0  0  0  0  0  0  0  0  0  0
    6.2948  -11.7479   26.5398 S   0  0  0  0  0  0  0  0  0  0  0  0
    6.0098  -13.4815   26.3893 C   0  0  0  0  0  0  0  0  0  0  0  0
    6.5117  -14.2017   25.1912 C   0  0  0  0  0  0  0  0  0  0  0  0
    7.6412  -15.1453   25.3424 C   0  0  2  0  0  0  0  0  0  0  0  0
    8.7816  -14.6456   26.0475 N   0  0  0  0  0  0  0  0  0  0  0  0
    8.1193  -15.6991   24.0492 C   0  0  0  0  0  0  0  0  0  0  0  0
    7.4015  -16.4122   23.3242 O   0  0  0  0  0  0  0  0  0  0  0  0
    5.7158  -12.9327   18.8416 O   0  0  0  0  0  0  0  0  0  0  0  0
    6.8684  -13.4104   19.4610 C   0  0  0  0  0  0  0  0  0  0  0  0
    7.6961  -12.5698   20.1658 C   0  0  0  0  0  0  0  0  0  0  0  0
    8.8604  -13.0325   20.7958 C   0  0  0  0  0  0  0  0  0  0  0  0
    9.2252  -14.3518   20.7356 C   0  0  0  0  0  0  0  0  0  0  0  0
   10.4358  -14.9394   21.3827 C   0  0  0  0  0  0  0  0  0  0  0  0
   10.0743  -15.9475   22.4632 C   0  0  2  0  0  0  0  0  0  0  0  0
    9.4423  -15.4095   23.6163 N   0  0  0  0  0  0  0  0  0  0  0  0
   11.2591  -16.7863   22.7105 C   0  0  0  0  0  0  0  0  0  0  0  0
   11.7854  -17.4001   21.7497 O   0  0  0  0  0  0  0  0  0  0  0  0
    8.3688  -15.2013   20.0105 C   0  0  0  0  0  0  0  0  0  0  0  0
    7.2303  -14.7389   19.3965 C   0  0  0  0  0  0  0  0  0  0  0  0
   13.8929  -15.8965   22.0780 N   0  0  0  0  0  0  0  0  0  0  0  0
   14.8222  -16.2803   23.0973 C   0  0  0  0  0  0  0  0  0  0  0  0
   16.0454  -16.1786   22.9270 O   0  0  0  0  0  0  0  0  0  0  0  0
   14.2923  -16.8113   24.3844 C   0  0  0  0  0  0  0  0  0  0  0  0
   13.0797  -17.6590   24.2216 C   0  0  2  0  0  0  0  0  0  0  0  0
   11.8581  -16.9487   23.9972 N   0  0  0  0  0  0  0  0  0  0  0  0
   12.9178  -18.4718   25.4680 C   0  0  0  0  0  0  0  0  0  0  0  0
   13.1084  -17.9676   26.6082 O   0  0  0  0  0  0  0  0  0  0  0  0
   12.5509  -19.8154   25.4256 O   0  0  0  0  0  0  0  0  0  0  0  0
  2  1  1  0
  3  2  1  0
  4  3  1  0
  5  4  1  0
  5  6  1  6
  7 16  1  0
  7  5  1  0
  8  7  2  0
  9 10  1  0
 10 11  2  0
 11 12  1  0
 13 12  2  0
 13 14  1  0
 15 14  1  6
 15 16  1  0
 17 15  1  0
 17 26  1  0
 18 17  2  0
 19 13  1  0
 20 10  1  0
 20 19  2  0
 21 22  1  0
 22 24  1  0
 23 22  2  0
 25 24  1  1
 25 26  1  0
 25 27  1  0
 27 28  2  0
 27 29  1  0
M  END
$$$$
