MYN.pdb
     RDKit          3D

 29 29  0  0  1  0  0  0  0  0999 V2000
    7.7714  -12.1428   19.4821 C   0  0  0  0  0  0  0  0  0  0  0  0
    7.7628  -13.1091   17.9733 S   0  0  0  0  0  0  0  0  0  0  0  0
    8.6292  -14.6447   17.9988 C   0  0  0  0  0  0  0  0  0  0  0  0
    7.9752  -15.8412   18.5877 C   0  0  0  0  0  0  0  0  0  0  0  0
    8.7009  -16.6239   19.6124 C   0  0  2  0  0  0  0  0  0  0  0  0
    8.0977  -17.8642   19.9932 N   0  0  0  0  0  0  0  0  0  0  0  0
    8.9708  -15.8550   20.8548 C   0  0  0  0  0  0  0  0  0  0  0  0
    9.9030  -15.0347   20.9408 O   0  0  0  0  0  0  0  0  0  0  0  0
    7.3405  -11.4295   28.2839 O   0  0  0  0  0  0  0  0  0  0  0  0
    7.2475  -12.3499   27.2425 C   0  0  0  0  0  0  0  0  0  0  0  0
    7.6641  -13.6494   27.4041 C   0  0  0  0  0  0  0  0  0  0  0  0
    7.5783  -14.5899   26.3674 C   0  0  0  0  0  0  0  0  0  0  0  0
    7.0714  -14.2513   25.1403 C   0  0  0  0  0  0  0  0  0  0  0  0
    6.9284  -15.1831   23.9824 C   0  0  0  0  0  0  0  0  0  0  0  0
    8.2355  -15.3567   23.2233 C   0  0  2  0  0  0  0  0  0  0  0  0
    8.1398  -16.0567   21.9907 N   0  0  0  0  0  0  0  0  0  0  0  0
    9.2436  -15.8584   24.1722 C   0  0  0  0  0  0  0  0  0  0  0  0
    9.4257  -15.2448   25.2526 O   0  0  0  0  0  0  0  0  0  0  0  0
    6.6487  -12.9174   24.9885 C   0  0  0  0  0  0  0  0  0  0  0  0
    6.7369  -12.0031   26.0100 C   0  0  0  0  0  0  0  0  0  0  0  0
   13.3621  -15.1897   22.6683 N   0  0  0  0  0  0  0  0  0  0  0  0
   12.9524  -16.4420   23.2284 C   0  0  0  0  0  0  0  0  0  0  0  0
   13.0869  -17.5036   22.6034 O   0  0  0  0  0  0  0  0  0  0  0  0
   12.3535  -16.4533   24.5924 C   0  0  0  0  0  0  0  0  0  0  0  0
   11.1871  -17.3691   24.7202 C   0  0  2  0  0  0  0  0  0  0  0  0
   10.0417  -17.0196   23.9372 N   0  0  0  0  0  0  0  0  0  0  0  0
   10.7738  -17.3873   26.1586 C   0  0  0  0  0  0  0  0  0  0  0  0
   10.9539  -18.4066   26.8791 O   0  0  0  0  0  0  0  0  0  0  0  0
   10.1743  -16.2847   26.7641 O   0  0  0  0  0  0  0  0  0  0  0  0
  2  1  1  0
  3  2  1  0
  4  3  1  0
  5  4  1  0
  5  6  1  1
  7 16  1  0
  7  5  1  0
  8  7  2  0
  9 10  1  0
 10 11  2  0
 11 12  1  0
 13 12  2  0
 13 14  1  0
 15 14  1  1
 15 16  1  0
 17 15  1  0
 17 26  1  0
 18 17  2  0
 19 13  1  0
 20 10  1  0
 20 19  2  0
 21 22  1  0
 22 24  1  0
 23 22  2  0
 25 24  1  1
 25 26  1  0
 25 27  1  0
 27 28  2  0
 27 29  1  0
M  END
$$$$
