MYN.pdb
     RDKit          3D

 29 29  0  0  1  0  0  0  0  0999 V2000
    7.7486  -11.7910   19.0148 C   0  0  0  0  0  0  0  0  0  0  0  0
    7.2473  -13.0888   17.8858 S   0  0  0  0  0  0  0  0  0  0  0  0
    7.7211  -14.7369   18.2964 C   0  0  0  0  0  0  0  0  0  0  0  0
    9.0837  -14.9926   18.8294 C   0  0  0  0  0  0  0  0  0  0  0  0
    9.2884  -16.1222   19.7628 C   0  0  2  0  0  0  0  0  0  0  0  0
    8.2535  -17.1101   19.7834 N   0  0  0  0  0  0  0  0  0  0  0  0
    9.5243  -15.6890   21.1643 C   0  0  0  0  0  0  0  0  0  0  0  0
   10.6029  -15.1899   21.5343 O   0  0  0  0  0  0  0  0  0  0  0  0
    7.8602  -12.3472   29.1105 O   0  0  0  0  0  0  0  0  0  0  0  0
    7.7009  -13.0030   27.8920 C   0  0  0  0  0  0  0  0  0  0  0  0
    7.3600  -14.3333   27.8409 C   0  0  0  0  0  0  0  0  0  0  0  0
    7.1953  -15.0102   26.6239 C   0  0  0  0  0  0  0  0  0  0  0  0
    7.3680  -14.3699   25.4250 C   0  0  0  0  0  0  0  0  0  0  0  0
    7.2028  -15.0008   24.0818 C   0  0  0  0  0  0  0  0  0  0  0  0
    8.5358  -15.4147   23.4766 C   0  0  2  0  0  0  0  0  0  0  0  0
    8.4869  -15.8461   22.1238 N   0  0  0  0  0  0  0  0  0  0  0  0
    9.1934  -16.3326   24.4218 C   0  0  0  0  0  0  0  0  0  0  0  0
    8.6834  -17.4602   24.6346 O   0  0  0  0  0  0  0  0  0  0  0  0
    7.7172  -13.0081   25.4919 C   0  0  0  0  0  0  0  0  0  0  0  0
    7.8765  -12.3534   26.6890 C   0  0  0  0  0  0  0  0  0  0  0  0
   13.8421  -15.3808   24.1434 N   0  0  0  0  0  0  0  0  0  0  0  0
   13.2674  -16.6262   24.5536 C   0  0  0  0  0  0  0  0  0  0  0  0
   13.2887  -17.6212   23.8153 O   0  0  0  0  0  0  0  0  0  0  0  0
   12.6341  -16.7124   25.8993 C   0  0  0  0  0  0  0  0  0  0  0  0
   11.1700  -16.9761   25.8496 C   0  0  2  0  0  0  0  0  0  0  0  0
   10.3961  -16.0157   25.1245 N   0  0  0  0  0  0  0  0  0  0  0  0
   10.6621  -17.0091   27.2572 C   0  0  0  0  0  0  0  0  0  0  0  0
   10.6954  -18.0683   27.9409 O   0  0  0  0  0  0  0  0  0  0  0  0
   10.1319  -15.8771   27.8730 O   0  0  0  0  0  0  0  0  0  0  0  0
  2  1  1  0
  3  2  1  0
  4  3  1  0
  5  4  1  0
  5  6  1  1
  7 16  1  0
  7  5  1  0
  8  7  2  0
  9 10  1  0
 10 11  2  0
 11 12  1  0
 13 12  2  0
 13 14  1  0
 15 14  1  1
 15 16  1  0
 17 15  1  0
 17 26  1  0
 18 17  2  0
 19 13  1  0
 20 10  1  0
 20 19  2  0
 21 22  1  0
 22 24  1  0
 23 22  2  0
 25 24  1  1
 25 26  1  0
 25 27  1  0
 27 28  2  0
 27 29  1  0
M  END
$$$$
