MYN.pdb
     RDKit          3D

 29 29  0  0  1  0  0  0  0  0999 V2000
    6.3524  -10.9397   25.9288 C   0  0  0  0  0  0  0  0  0  0  0  0
    6.9074  -12.1681   24.7483 S   0  0  0  0  0  0  0  0  0  0  0  0
    5.6966  -13.2907   24.1292 C   0  0  0  0  0  0  0  0  0  0  0  0
    6.0907  -14.3017   23.1149 C   0  0  0  0  0  0  0  0  0  0  0  0
    6.9420  -15.4388   23.5290 C   0  0  2  0  0  0  0  0  0  0  0  0
    6.5169  -16.1428   24.6998 N   0  0  0  0  0  0  0  0  0  0  0  0
    8.3669  -15.0643   23.7221 C   0  0  0  0  0  0  0  0  0  0  0  0
    9.0062  -14.4172   22.8725 O   0  0  0  0  0  0  0  0  0  0  0  0
   10.0131  -18.6818   30.6732 O   0  0  0  0  0  0  0  0  0  0  0  0
   10.1020  -17.6735   29.7162 C   0  0  0  0  0  0  0  0  0  0  0  0
    9.0622  -17.4188   28.8545 C   0  0  0  0  0  0  0  0  0  0  0  0
    9.1335  -16.4081   27.8849 C   0  0  0  0  0  0  0  0  0  0  0  0
   10.2505  -15.6255   27.7542 C   0  0  0  0  0  0  0  0  0  0  0  0
   10.4147  -14.5203   26.7638 C   0  0  0  0  0  0  0  0  0  0  0  0
   10.3195  -15.0189   25.3296 C   0  0  2  0  0  0  0  0  0  0  0  0
    9.0317  -15.4545   24.9167 N   0  0  0  0  0  0  0  0  0  0  0  0
   11.4221  -15.9698   25.1097 C   0  0  0  0  0  0  0  0  0  0  0  0
   12.6013  -15.6019   25.3351 O   0  0  0  0  0  0  0  0  0  0  0  0
   11.3077  -15.8973   28.6427 C   0  0  0  0  0  0  0  0  0  0  0  0
   11.2287  -16.8897   29.5894 C   0  0  0  0  0  0  0  0  0  0  0  0
   14.4383  -19.6391   23.2577 N   0  0  0  0  0  0  0  0  0  0  0  0
   14.1940  -18.4109   22.5637 C   0  0  0  0  0  0  0  0  0  0  0  0
   14.8975  -18.0598   21.6058 O   0  0  0  0  0  0  0  0  0  0  0  0
   13.0669  -17.5473   23.0142 C   0  0  0  0  0  0  0  0  0  0  0  0
   12.2853  -18.1311   24.1384 C   0  0  2  0  0  0  0  0  0  0  0  0
   11.2316  -17.3081   24.6479 N   0  0  0  0  0  0  0  0  0  0  0  0
   13.2352  -18.4108   25.2607 C   0  0  0  0  0  0  0  0  0  0  0  0
   13.1095  -17.8461   26.3814 O   0  0  0  0  0  0  0  0  0  0  0  0
   14.2960  -19.3032   25.1194 O   0  0  0  0  0  0  0  0  0  0  0  0
  2  1  1  0
  3  2  1  0
  4  3  1  0
  5  4  1  0
  5  6  1  1
  7 16  1  0
  7  5  1  0
  8  7  2  0
  9 10  1  0
 10 11  2  0
 11 12  1  0
 13 12  2  0
 13 14  1  0
 15 14  1  1
 15 16  1  0
 17 15  1  0
 17 26  1  0
 18 17  2  0
 19 13  1  0
 20 10  1  0
 20 19  2  0
 21 22  1  0
 22 24  1  0
 23 22  2  0
 25 24  1  6
 25 26  1  0
 25 27  1  0
 27 28  2  0
 27 29  1  0
M  END
$$$$
