MYN.pdb
     RDKit          3D

 29 29  0  0  1  0  0  0  0  0999 V2000
    8.6894  -12.2516   19.3903 C   0  0  0  0  0  0  0  0  0  0  0  0
    7.6966  -13.1573   18.2052 S   0  0  0  0  0  0  0  0  0  0  0  0
    8.1717  -14.8211   17.8653 C   0  0  0  0  0  0  0  0  0  0  0  0
    9.4930  -15.3122   18.3334 C   0  0  0  0  0  0  0  0  0  0  0  0
    9.5424  -16.2976   19.4359 C   0  0  2  0  0  0  0  0  0  0  0  0
    8.4970  -17.2746   19.4470 N   0  0  0  0  0  0  0  0  0  0  0  0
    9.5850  -15.6696   20.7818 C   0  0  0  0  0  0  0  0  0  0  0  0
   10.5044  -14.9070   21.1318 O   0  0  0  0  0  0  0  0  0  0  0  0
    7.0435  -12.0739   28.3846 O   0  0  0  0  0  0  0  0  0  0  0  0
    7.0513  -12.7265   27.1540 C   0  0  0  0  0  0  0  0  0  0  0  0
    7.6817  -12.1776   26.0632 C   0  0  0  0  0  0  0  0  0  0  0  0
    7.7001  -12.8197   24.8166 C   0  0  0  0  0  0  0  0  0  0  0  0
    7.0864  -14.0306   24.6314 C   0  0  0  0  0  0  0  0  0  0  0  0
    7.0629  -14.7952   23.3491 C   0  0  0  0  0  0  0  0  0  0  0  0
    8.4233  -15.3867   23.0110 C   0  0  2  0  0  0  0  0  0  0  0  0
    8.5429  -15.9435   21.7093 N   0  0  0  0  0  0  0  0  0  0  0  0
    8.8225  -16.2627   24.1253 C   0  0  0  0  0  0  0  0  0  0  0  0
    8.3495  -17.4241   24.1901 O   0  0  0  0  0  0  0  0  0  0  0  0
    6.4446  -14.5812   25.7565 C   0  0  0  0  0  0  0  0  0  0  0  0
    6.4317  -13.9446   26.9738 C   0  0  0  0  0  0  0  0  0  0  0  0
   10.9762  -18.3501   28.3083 N   0  0  0  0  0  0  0  0  0  0  0  0
    9.6316  -18.5268   27.8494 C   0  0  0  0  0  0  0  0  0  0  0  0
    8.8794  -19.3668   28.3634 O   0  0  0  0  0  0  0  0  0  0  0  0
    9.1407  -17.6756   26.7298 C   0  0  0  0  0  0  0  0  0  0  0  0
   10.1687  -16.7360   26.2045 C   0  0  2  0  0  0  0  0  0  0  0  0
    9.7300  -15.8677   25.1554 N   0  0  0  0  0  0  0  0  0  0  0  0
   11.3100  -17.5509   25.6813 C   0  0  0  0  0  0  0  0  0  0  0  0
   12.4928  -17.1138   25.7066 O   0  0  0  0  0  0  0  0  0  0  0  0
   11.1188  -18.8227   25.1451 O   0  0  0  0  0  0  0  0  0  0  0  0
  2  1  1  0
  3  2  1  0
  4  3  1  0
  5  4  1  0
  5  6  1  1
  7 16  1  0
  7  5  1  0
  8  7  2  0
  9 10  1  0
 10 11  2  0
 11 12  1  0
 13 12  2  0
 13 14  1  0
 15 14  1  1
 15 16  1  0
 17 15  1  0
 17 26  1  0
 18 17  2  0
 19 13  1  0
 20 10  1  0
 20 19  2  0
 21 22  1  0
 22 24  1  0
 23 22  2  0
 25 24  1  6
 25 26  1  0
 25 27  1  0
 27 28  2  0
 27 29  1  0
M  END
$$$$
