TEE.pdb
     RDKit          3D

 26 25  0  0  1  0  0  0  0  0999 V2000
   26.7366  -10.5868  -15.1667 C   0  0  0  0  0  0  0  0  0  0  0  0
   26.7580  -11.2486  -16.5265 C   0  0  1  0  0  0  0  0  0  0  0  0
   27.8330  -12.1077  -16.6135 O   0  0  0  0  0  0  0  0  0  0  0  0
   25.4382  -11.9797  -16.7230 C   0  0  2  0  0  0  0  0  0  0  0  0
   25.4859  -12.6991  -18.0022 N   0  0  0  0  0  0  0  0  0  0  0  0
   24.3474  -10.9863  -16.7707 C   0  0  0  0  0  0  0  0  0  0  0  0
   24.3541  -10.1595  -17.7194 O   0  0  0  0  0  0  0  0  0  0  0  0
   23.3092  -10.9273  -15.8063 N   0  0  0  0  0  0  0  0  0  0  0  0
   22.2091   -9.9675  -16.0016 C   0  0  1  0  0  0  0  0  0  0  0  0
   20.9186  -10.5949  -15.5448 C   0  0  0  0  0  0  0  0  0  0  0  0
   19.8032   -9.5992  -15.6012 C   0  0  0  0  0  0  0  0  0  0  0  0
   18.5290  -10.1847  -15.0686 C   0  0  0  0  0  0  0  0  0  0  0  0
   17.9998   -9.7477  -14.0366 O   0  0  0  0  0  0  0  0  0  0  0  0
   22.5503   -8.6846  -15.3456 C   0  0  0  0  0  0  0  0  0  0  0  0
   22.9841   -8.6266  -14.1957 O   0  0  0  0  0  0  0  0  0  0  0  0
   17.9663  -11.2267  -15.7675 O   0  0  0  0  0  0  0  0  0  0  0  0
   22.3767   -7.4518  -16.0572 N   0  0  0  0  0  0  0  0  0  0  0  0
   22.5239   -6.1472  -15.4743 C   0  0  1  0  0  0  0  0  0  0  0  0
   22.6587   -5.0208  -16.4287 C   0  0  0  0  0  0  0  0  0  0  0  0
   22.8937   -3.6676  -15.8793 C   0  0  0  0  0  0  0  0  0  0  0  0
   23.0345   -2.6178  -16.9069 C   0  0  0  0  0  0  0  0  0  0  0  0
   23.0240   -2.8464  -18.1258 O   0  0  0  0  0  0  0  0  0  0  0  0
   21.4694   -5.9118  -14.4722 C   0  0  0  0  0  0  0  0  0  0  0  0
   20.3321   -6.4016  -14.6400 O   0  0  0  0  0  0  0  0  0  0  0  0
   23.1908   -1.2733  -16.5168 O   0  0  0  0  0  0  0  0  0  0  0  0
   21.7011   -5.1588  -13.3410 O   0  0  0  0  0  0  0  0  0  0  0  0
  2  1  1  1
  2  4  1  0
  2  3  1  0
  4  5  1  6
  6  4  1  0
  7  6  2  0
  8  6  1  0
  9  8  1  0
  9 10  1  1
 11 10  1  0
 12 11  1  0
 12 13  2  0
 14 15  2  0
 14  9  1  0
 16 12  1  0
 17 14  1  0
 18 17  1  0
 18 19  1  6
 20 21  1  0
 20 19  1  0
 21 22  2  0
 23 18  1  0
 24 23  2  0
 25 21  1  0
 26 23  1  0
M  END
$$$$
