TEE.pdb
     RDKit          3D

 26 25  0  0  1  0  0  0  0  0999 V2000
   26.7034  -12.9308  -18.2354 C   0  0  0  0  0  0  0  0  0  0  0  0
   25.4880  -12.0320  -18.1851 C   0  0  1  0  0  0  0  0  0  0  0  0
   24.3399  -12.7892  -18.2831 O   0  0  0  0  0  0  0  0  0  0  0  0
   25.5305  -11.2432  -16.8846 C   0  0  2  0  0  0  0  0  0  0  0  0
   25.4691  -12.1866  -15.7611 N   0  0  0  0  0  0  0  0  0  0  0  0
   24.3538  -10.3536  -16.8301 C   0  0  0  0  0  0  0  0  0  0  0  0
   24.2938   -9.4156  -17.6670 O   0  0  0  0  0  0  0  0  0  0  0  0
   23.3053  -10.5109  -15.8881 N   0  0  0  0  0  0  0  0  0  0  0  0
   22.1424   -9.6096  -15.9593 C   0  0  1  0  0  0  0  0  0  0  0  0
   20.9373  -10.3117  -15.3913 C   0  0  0  0  0  0  0  0  0  0  0  0
   19.7508   -9.4001  -15.3933 C   0  0  0  0  0  0  0  0  0  0  0  0
   18.5221  -10.1117  -14.9094 C   0  0  0  0  0  0  0  0  0  0  0  0
   18.3859  -10.4272  -13.7187 O   0  0  0  0  0  0  0  0  0  0  0  0
   22.4779   -8.3185  -15.3164 C   0  0  0  0  0  0  0  0  0  0  0  0
   23.1151   -8.2505  -14.2662 O   0  0  0  0  0  0  0  0  0  0  0  0
   17.5486  -10.4028  -15.8360 O   0  0  0  0  0  0  0  0  0  0  0  0
   22.0548   -7.0895  -15.9222 N   0  0  0  0  0  0  0  0  0  0  0  0
   22.3241   -5.7835  -15.3884 C   0  0  1  0  0  0  0  0  0  0  0  0
   22.1545   -4.6499  -16.3286 C   0  0  0  0  0  0  0  0  0  0  0  0
   22.4116   -3.2831  -15.8243 C   0  0  0  0  0  0  0  0  0  0  0  0
   22.1581   -2.2193  -16.8151 C   0  0  0  0  0  0  0  0  0  0  0  0
   21.8708   -2.4418  -18.0009 O   0  0  0  0  0  0  0  0  0  0  0  0
   21.5875   -5.5833  -14.1278 C   0  0  0  0  0  0  0  0  0  0  0  0
   20.4222   -6.0196  -14.0130 O   0  0  0  0  0  0  0  0  0  0  0  0
   22.2383   -0.8677  -16.4266 O   0  0  0  0  0  0  0  0  0  0  0  0
   22.1506   -4.9215  -13.0576 O   0  0  0  0  0  0  0  0  0  0  0  0
  2  1  1  1
  2  4  1  0
  2  3  1  0
  4  5  1  1
  6  4  1  0
  7  6  2  0
  8  6  1  0
  9  8  1  0
  9 10  1  1
 11 10  1  0
 12 11  1  0
 12 13  2  0
 14 15  2  0
 14  9  1  0
 16 12  1  0
 17 14  1  0
 18 17  1  0
 18 19  1  6
 20 21  1  0
 20 19  1  0
 21 22  2  0
 23 18  1  0
 24 23  2  0
 25 21  1  0
 26 23  1  0
M  END
$$$$
