TEE.pdb
     RDKit          3D

 26 25  0  0  1  0  0  0  0  0999 V2000
   14.3167  -12.8627  -17.8796 C   0  0  0  0  0  0  0  0  0  0  0  0
   15.0351  -11.6889  -17.2523 C   0  0  1  0  0  0  0  0  0  0  0  0
   14.1683  -10.9869  -16.4416 O   0  0  0  0  0  0  0  0  0  0  0  0
   16.2276  -12.2206  -16.4710 C   0  0  2  0  0  0  0  0  0  0  0  0
   15.7316  -12.9911  -15.3237 N   0  0  0  0  0  0  0  0  0  0  0  0
   17.0191  -11.0771  -15.9760 C   0  0  0  0  0  0  0  0  0  0  0  0
   16.6684  -10.5546  -14.8862 O   0  0  0  0  0  0  0  0  0  0  0  0
   18.1406  -10.5525  -16.6678 N   0  0  0  0  0  0  0  0  0  0  0  0
   18.9230   -9.4731  -16.0413 C   0  0  1  0  0  0  0  0  0  0  0  0
   20.3725   -9.8784  -15.9911 C   0  0  0  0  0  0  0  0  0  0  0  0
   21.2094   -8.7640  -15.4463 C   0  0  0  0  0  0  0  0  0  0  0  0
   22.4765   -9.2877  -14.8378 C   0  0  0  0  0  0  0  0  0  0  0  0
   23.4831   -9.5029  -15.5281 O   0  0  0  0  0  0  0  0  0  0  0  0
   18.6519   -8.1964  -16.7406 C   0  0  0  0  0  0  0  0  0  0  0  0
   18.5312   -8.1265  -17.9630 O   0  0  0  0  0  0  0  0  0  0  0  0
   22.4826   -9.5216  -13.4828 O   0  0  0  0  0  0  0  0  0  0  0  0
   18.5213   -6.9840  -15.9859 N   0  0  0  0  0  0  0  0  0  0  0  0
   18.2840   -5.6889  -16.5600 C   0  0  1  0  0  0  0  0  0  0  0  0
   17.0997   -4.9587  -16.0481 C   0  0  0  0  0  0  0  0  0  0  0  0
   16.8669   -3.5816  -16.5358 C   0  0  0  0  0  0  0  0  0  0  0  0
   15.7409   -2.8926  -15.8762 C   0  0  0  0  0  0  0  0  0  0  0  0
   15.1900   -3.3111  -14.8469 O   0  0  0  0  0  0  0  0  0  0  0  0
   19.5111   -4.8742  -16.5115 C   0  0  0  0  0  0  0  0  0  0  0  0
   20.4793   -5.2499  -15.8166 O   0  0  0  0  0  0  0  0  0  0  0  0
   15.2403   -1.6928  -16.4185 O   0  0  0  0  0  0  0  0  0  0  0  0
   19.6259   -3.6958  -17.2175 O   0  0  0  0  0  0  0  0  0  0  0  0
  2  1  1  1
  2  4  1  0
  2  3  1  0
  4  5  1  1
  6  4  1  0
  7  6  2  0
  8  6  1  0
  9  8  1  0
  9 10  1  6
 11 10  1  0
 12 11  1  0
 12 13  2  0
 14 15  2  0
 14  9  1  0
 16 12  1  0
 17 14  1  0
 18 17  1  0
 18 19  1  1
 20 21  1  0
 20 19  1  0
 21 22  2  0
 23 18  1  0
 24 23  2  0
 25 21  1  0
 26 23  1  0
M  END
$$$$
