TEE.pdb
     RDKit          3D

 26 25  0  0  1  0  0  0  0  0999 V2000
   15.4002   -7.9809  -15.7919 C   0  0  0  0  0  0  0  0  0  0  0  0
   15.5273   -9.4140  -15.3255 C   0  0  1  0  0  0  0  0  0  0  0  0
   14.3234  -10.0674  -15.4830 O   0  0  0  0  0  0  0  0  0  0  0  0
   16.6363  -10.0805  -16.1262 C   0  0  2  0  0  0  0  0  0  0  0  0
   16.5364  -11.5344  -15.9466 N   0  0  0  0  0  0  0  0  0  0  0  0
   17.9393   -9.6205  -15.6070 C   0  0  0  0  0  0  0  0  0  0  0  0
   17.9496   -9.0444  -14.4882 O   0  0  0  0  0  0  0  0  0  0  0  0
   19.1600   -9.7990  -16.3067 N   0  0  0  0  0  0  0  0  0  0  0  0
   20.4073   -9.3012  -15.7017 C   0  0  1  0  0  0  0  0  0  0  0  0
   21.5730  -10.0640  -16.2737 C   0  0  0  0  0  0  0  0  0  0  0  0
   22.8648   -9.5020  -15.7695 C   0  0  0  0  0  0  0  0  0  0  0  0
   24.0323  -10.3034  -16.2645 C   0  0  0  0  0  0  0  0  0  0  0  0
   24.9307   -9.7840  -16.9421 O   0  0  0  0  0  0  0  0  0  0  0  0
   20.4807   -7.8307  -15.8600 C   0  0  0  0  0  0  0  0  0  0  0  0
   20.2684   -7.2716  -16.9352 O   0  0  0  0  0  0  0  0  0  0  0  0
   24.0713  -11.6389  -15.9393 O   0  0  0  0  0  0  0  0  0  0  0  0
   20.8097   -7.0080  -14.7325 N   0  0  0  0  0  0  0  0  0  0  0  0
   20.9375   -5.5780  -14.7775 C   0  0  1  0  0  0  0  0  0  0  0  0
   19.6794   -4.8084  -14.6270 C   0  0  0  0  0  0  0  0  0  0  0  0
   19.7658   -3.3318  -14.6006 C   0  0  0  0  0  0  0  0  0  0  0  0
   18.4577   -2.6547  -14.5089 C   0  0  0  0  0  0  0  0  0  0  0  0
   18.3289   -1.4279  -14.3809 O   0  0  0  0  0  0  0  0  0  0  0  0
   21.9868   -5.1277  -13.8458 C   0  0  0  0  0  0  0  0  0  0  0  0
   22.3718   -5.8860  -12.9302 O   0  0  0  0  0  0  0  0  0  0  0  0
   17.2719   -3.4128  -14.5663 O   0  0  0  0  0  0  0  0  0  0  0  0
   22.5642   -3.8807  -13.9540 O   0  0  0  0  0  0  0  0  0  0  0  0
  2  1  1  6
  2  4  1  0
  2  3  1  0
  4  5  1  1
  6  4  1  0
  7  6  2  0
  8  6  1  0
  9  8  1  0
  9 10  1  6
 11 10  1  0
 12 11  1  0
 12 13  2  0
 14 15  2  0
 14  9  1  0
 16 12  1  0
 17 14  1  0
 18 17  1  0
 18 19  1  1
 20 21  1  0
 20 19  1  0
 21 22  2  0
 23 18  1  0
 24 23  2  0
 25 21  1  0
 26 23  1  0
M  END
$$$$
