TEE.pdb
     RDKit          3D

 26 25  0  0  1  0  0  0  0  0999 V2000
   13.3574  -12.6313  -14.0853 C   0  0  0  0  0  0  0  0  0  0  0  0
   14.4526  -11.6471  -14.4309 C   0  0  1  0  0  0  0  0  0  0  0  0
   15.1022  -11.2455  -13.2830 O   0  0  0  0  0  0  0  0  0  0  0  0
   15.4056  -12.3170  -15.4098 C   0  0  2  0  0  0  0  0  0  0  0  0
   16.1030  -13.4065  -14.7150 N   0  0  0  0  0  0  0  0  0  0  0  0
   16.3981  -11.3225  -15.8624 C   0  0  0  0  0  0  0  0  0  0  0  0
   17.5801  -11.4503  -15.4497 O   0  0  0  0  0  0  0  0  0  0  0  0
   16.0785  -10.2466  -16.7294 N   0  0  0  0  0  0  0  0  0  0  0  0
   17.1534   -9.3375  -17.1629 C   0  0  1  0  0  0  0  0  0  0  0  0
   16.8893   -8.8996  -18.5793 C   0  0  0  0  0  0  0  0  0  0  0  0
   17.9999   -8.0272  -19.0736 C   0  0  0  0  0  0  0  0  0  0  0  0
   17.7514   -7.5842  -20.4850 C   0  0  0  0  0  0  0  0  0  0  0  0
   16.7205   -7.9090  -21.0914 O   0  0  0  0  0  0  0  0  0  0  0  0
   17.2958   -8.2375  -16.1818 C   0  0  0  0  0  0  0  0  0  0  0  0
   16.3431   -7.8013  -15.5371 O   0  0  0  0  0  0  0  0  0  0  0  0
   18.7105   -6.8025  -21.0850 O   0  0  0  0  0  0  0  0  0  0  0  0
   18.5818   -7.6436  -15.9586 N   0  0  0  0  0  0  0  0  0  0  0  0
   18.8522   -6.6326  -14.9748 C   0  0  1  0  0  0  0  0  0  0  0  0
   20.2599   -6.5269  -14.5220 C   0  0  0  0  0  0  0  0  0  0  0  0
   20.5952   -5.4821  -13.5298 C   0  0  0  0  0  0  0  0  0  0  0  0
   22.0135   -5.4734  -13.1221 C   0  0  0  0  0  0  0  0  0  0  0  0
   22.7358   -4.4668  -13.1769 O   0  0  0  0  0  0  0  0  0  0  0  0
   18.3021   -5.3359  -15.4080 C   0  0  0  0  0  0  0  0  0  0  0  0
   18.2702   -5.0494  -16.6239 O   0  0  0  0  0  0  0  0  0  0  0  0
   22.6103   -6.6548  -12.6402 O   0  0  0  0  0  0  0  0  0  0  0  0
   17.8154   -4.4173  -14.5026 O   0  0  0  0  0  0  0  0  0  0  0  0
  2  1  1  1
  2  4  1  0
  2  3  1  0
  4  5  1  1
  6  4  1  0
  7  6  2  0
  8  6  1  0
  9  8  1  0
  9 10  1  6
 11 10  1  0
 12 11  1  0
 12 13  2  0
 14 15  2  0
 14  9  1  0
 16 12  1  0
 17 14  1  0
 18 17  1  0
 18 19  1  6
 20 21  1  0
 20 19  1  0
 21 22  2  0
 23 18  1  0
 24 23  2  0
 25 21  1  0
 26 23  1  0
M  END
$$$$
