TEE.pdb
     RDKit          3D

 26 25  0  0  1  0  0  0  0  0999 V2000
   21.5950  -11.0946  -19.9281 C   0  0  0  0  0  0  0  0  0  0  0  0
   22.0480  -11.9173  -18.7427 C   0  0  1  0  0  0  0  0  0  0  0  0
   23.1385  -11.3204  -18.1463 O   0  0  0  0  0  0  0  0  0  0  0  0
   20.8802  -12.0456  -17.7758 C   0  0  2  0  0  0  0  0  0  0  0  0
   19.7781  -12.7343  -18.4594 N   0  0  0  0  0  0  0  0  0  0  0  0
   20.4343  -10.6931  -17.3872 C   0  0  0  0  0  0  0  0  0  0  0  0
   19.9421   -9.9619  -18.2855 O   0  0  0  0  0  0  0  0  0  0  0  0
   20.5365  -10.1928  -16.0641 N   0  0  0  0  0  0  0  0  0  0  0  0
   19.9441   -8.8811  -15.7506 C   0  0  1  0  0  0  0  0  0  0  0  0
   18.7982   -9.0725  -14.7925 C   0  0  0  0  0  0  0  0  0  0  0  0
   17.6213   -9.6711  -15.4964 C   0  0  0  0  0  0  0  0  0  0  0  0
   16.4281   -9.7410  -14.5900 C   0  0  0  0  0  0  0  0  0  0  0  0
   15.4911   -8.9364  -14.6933 O   0  0  0  0  0  0  0  0  0  0  0  0
   21.0047   -7.9586  -15.2849 C   0  0  0  0  0  0  0  0  0  0  0  0
   22.0055   -8.3521  -14.6873 O   0  0  0  0  0  0  0  0  0  0  0  0
   16.4097  -10.7324  -13.6373 O   0  0  0  0  0  0  0  0  0  0  0  0
   20.8820   -6.5507  -15.5280 N   0  0  0  0  0  0  0  0  0  0  0  0
   21.8266   -5.5626  -15.0868 C   0  0  1  0  0  0  0  0  0  0  0  0
   21.6741   -4.2102  -15.6744 C   0  0  0  0  0  0  0  0  0  0  0  0
   21.7282   -4.0811  -17.1471 C   0  0  0  0  0  0  0  0  0  0  0  0
   21.4812   -2.7123  -17.6401 C   0  0  0  0  0  0  0  0  0  0  0  0
   20.5989   -2.4299  -18.4646 O   0  0  0  0  0  0  0  0  0  0  0  0
   21.8866   -5.5325  -13.6147 C   0  0  0  0  0  0  0  0  0  0  0  0
   20.9429   -6.0035  -12.9445 O   0  0  0  0  0  0  0  0  0  0  0  0
   22.2719   -1.6458  -17.1694 O   0  0  0  0  0  0  0  0  0  0  0  0
   22.9647   -4.9943  -12.9451 O   0  0  0  0  0  0  0  0  0  0  0  0
  2  1  1  6
  2  4  1  0
  2  3  1  0
  4  5  1  6
  6  4  1  0
  7  6  2  0
  8  6  1  0
  9  8  1  0
  9 10  1  1
 11 10  1  0
 12 11  1  0
 12 13  2  0
 14 15  2  0
 14  9  1  0
 16 12  1  0
 17 14  1  0
 18 17  1  0
 18 19  1  1
 20 21  1  0
 20 19  1  0
 21 22  2  0
 23 18  1  0
 24 23  2  0
 25 21  1  0
 26 23  1  0
M  END
$$$$
