TEE.pdb
     RDKit          3D

 26 25  0  0  1  0  0  0  0  0999 V2000
   20.9118  -20.8196  -12.1752 C   0  0  0  0  0  0  0  0  0  0  0  0
   20.1365  -20.2153  -13.3245 C   0  0  1  0  0  0  0  0  0  0  0  0
   20.4630  -18.8827  -13.4618 O   0  0  0  0  0  0  0  0  0  0  0  0
   20.4578  -21.0044  -14.5851 C   0  0  2  0  0  0  0  0  0  0  0  0
   19.7045  -20.4268  -15.7054 N   0  0  0  0  0  0  0  0  0  0  0  0
   20.0320  -22.4044  -14.3907 C   0  0  0  0  0  0  0  0  0  0  0  0
   18.7992  -22.6265  -14.2701 O   0  0  0  0  0  0  0  0  0  0  0  0
   20.9414  -23.4913  -14.3353 N   0  0  0  0  0  0  0  0  0  0  0  0
   20.4102  -24.8585  -14.2006 C   0  0  1  0  0  0  0  0  0  0  0  0
   21.3690  -25.8268  -14.8418 C   0  0  0  0  0  0  0  0  0  0  0  0
   20.8525  -27.2267  -14.7303 C   0  0  0  0  0  0  0  0  0  0  0  0
   21.8217  -28.2085  -15.3192 C   0  0  0  0  0  0  0  0  0  0  0  0
   21.5638  -29.4197  -15.3681 O   0  0  0  0  0  0  0  0  0  0  0  0
   20.1005  -25.1304  -12.7783 C   0  0  0  0  0  0  0  0  0  0  0  0
   20.4775  -24.3931  -11.8685 O   0  0  0  0  0  0  0  0  0  0  0  0
   23.0103  -27.7163  -15.8048 O   0  0  0  0  0  0  0  0  0  0  0  0
   19.3344  -26.2900  -12.4247 N   0  0  0  0  0  0  0  0  0  0  0  0
   18.4518  -26.3694  -11.2943 C   0  0  1  0  0  0  0  0  0  0  0  0
   17.4820  -25.2577  -11.1482 C   0  0  0  0  0  0  0  0  0  0  0  0
   17.7675  -24.2130  -10.1404 C   0  0  0  0  0  0  0  0  0  0  0  0
   16.5935  -23.4000   -9.7683 C   0  0  0  0  0  0  0  0  0  0  0  0
   16.6396  -22.4593   -8.9615 O   0  0  0  0  0  0  0  0  0  0  0  0
   17.8034  -27.6917  -11.2424 C   0  0  0  0  0  0  0  0  0  0  0  0
   17.3636  -28.2097  -12.2910 O   0  0  0  0  0  0  0  0  0  0  0  0
   15.3378  -23.6807  -10.3416 O   0  0  0  0  0  0  0  0  0  0  0  0
   17.6650  -28.3839  -10.0583 O   0  0  0  0  0  0  0  0  0  0  0  0
  2  1  1  1
  2  4  1  0
  2  3  1  0
  4  5  1  6
  6  4  1  0
  7  6  2  0
  8  6  1  0
  9  8  1  0
  9 10  1  1
 11 10  1  0
 12 11  1  0
 12 13  2  0
 14 15  2  0
 14  9  1  0
 16 12  1  0
 17 14  1  0
 18 17  1  0
 18 19  1  6
 20 21  1  0
 20 19  1  0
 21 22  2  0
 23 18  1  0
 24 23  2  0
 25 21  1  0
 26 23  1  0
M  END
$$$$
