TEE.pdb
     RDKit          3D

 26 25  0  0  1  0  0  0  0  0999 V2000
   22.5327  -11.5263  -17.7584 C   0  0  0  0  0  0  0  0  0  0  0  0
   21.3071  -12.2782  -18.2273 C   0  0  1  0  0  0  0  0  0  0  0  0
   21.6382  -13.5869  -18.5082 O   0  0  0  0  0  0  0  0  0  0  0  0
   20.2465  -12.1887  -17.1400 C   0  0  2  0  0  0  0  0  0  0  0  0
   19.0825  -12.9829  -17.5530 N   0  0  0  0  0  0  0  0  0  0  0  0
   19.8374  -10.7784  -16.9903 C   0  0  0  0  0  0  0  0  0  0  0  0
   19.4802  -10.1625  -18.0281 O   0  0  0  0  0  0  0  0  0  0  0  0
   19.8306  -10.1006  -15.7446 N   0  0  0  0  0  0  0  0  0  0  0  0
   19.3627   -8.7047  -15.6955 C   0  0  1  0  0  0  0  0  0  0  0  0
   18.1777   -8.6128  -14.7707 C   0  0  0  0  0  0  0  0  0  0  0  0
   18.4847   -9.2651  -13.4595 C   0  0  0  0  0  0  0  0  0  0  0  0
   17.2843   -9.2609  -12.5600 C   0  0  0  0  0  0  0  0  0  0  0  0
   17.1709   -8.4395  -11.6389 O   0  0  0  0  0  0  0  0  0  0  0  0
   20.4962   -7.8154  -15.3538 C   0  0  0  0  0  0  0  0  0  0  0  0
   21.4860   -8.2139  -14.7412 O   0  0  0  0  0  0  0  0  0  0  0  0
   16.3106  -10.2034  -12.7936 O   0  0  0  0  0  0  0  0  0  0  0  0
   20.4610   -6.4350  -15.7409 N   0  0  0  0  0  0  0  0  0  0  0  0
   21.4932   -5.4803  -15.4474 C   0  0  1  0  0  0  0  0  0  0  0  0
   21.5227   -4.2714  -16.3050 C   0  0  0  0  0  0  0  0  0  0  0  0
   22.5063   -3.2141  -15.9838 C   0  0  0  0  0  0  0  0  0  0  0  0
   22.4438   -2.0428  -16.8793 C   0  0  0  0  0  0  0  0  0  0  0  0
   21.6920   -1.9719  -17.8630 O   0  0  0  0  0  0  0  0  0  0  0  0
   21.4931   -5.1507  -14.0110 C   0  0  0  0  0  0  0  0  0  0  0  0
   22.5151   -4.6595  -13.4861 O   0  0  0  0  0  0  0  0  0  0  0  0
   23.2690   -0.9283  -16.6321 O   0  0  0  0  0  0  0  0  0  0  0  0
   20.3869   -5.3702  -13.2183 O   0  0  0  0  0  0  0  0  0  0  0  0
  2  1  1  1
  2  4  1  0
  2  3  1  0
  4  5  1  6
  6  4  1  0
  7  6  2  0
  8  6  1  0
  9  8  1  0
  9 10  1  1
 11 10  1  0
 12 11  1  0
 12 13  2  0
 14 15  2  0
 14  9  1  0
 16 12  1  0
 17 14  1  0
 18 17  1  0
 18 19  1  6
 20 21  1  0
 20 19  1  0
 21 22  2  0
 23 18  1  0
 24 23  2  0
 25 21  1  0
 26 23  1  0
M  END
$$$$
