TEE.pdb
     RDKit          3D

 26 25  0  0  1  0  0  0  0  0999 V2000
   23.9492  -11.4677  -16.1479 C   0  0  0  0  0  0  0  0  0  0  0  0
   23.5404  -11.6758  -17.5891 C   0  0  1  0  0  0  0  0  0  0  0  0
   24.2676  -12.7105  -18.1386 O   0  0  0  0  0  0  0  0  0  0  0  0
   22.0459  -11.9591  -17.6259 C   0  0  2  0  0  0  0  0  0  0  0  0
   21.6522  -12.2237  -19.0155 N   0  0  0  0  0  0  0  0  0  0  0  0
   21.3243  -10.7662  -17.1408 C   0  0  0  0  0  0  0  0  0  0  0  0
   21.3952   -9.7200  -17.8365 O   0  0  0  0  0  0  0  0  0  0  0  0
   20.5667  -10.7521  -15.9419 N   0  0  0  0  0  0  0  0  0  0  0  0
   19.8184   -9.5341  -15.5864 C   0  0  1  0  0  0  0  0  0  0  0  0
   18.7297   -9.8905  -14.6088 C   0  0  0  0  0  0  0  0  0  0  0  0
   17.6227  -10.6213  -15.3012 C   0  0  0  0  0  0  0  0  0  0  0  0
   16.5677  -11.0530  -14.3261 C   0  0  0  0  0  0  0  0  0  0  0  0
   16.4581  -12.2368  -13.9759 O   0  0  0  0  0  0  0  0  0  0  0  0
   20.7625   -8.4920  -15.1223 C   0  0  0  0  0  0  0  0  0  0  0  0
   21.6988   -8.7406  -14.3640 O   0  0  0  0  0  0  0  0  0  0  0  0
   15.7234  -10.0863  -13.8324 O   0  0  0  0  0  0  0  0  0  0  0  0
   20.5988   -7.1362  -15.5598 N   0  0  0  0  0  0  0  0  0  0  0  0
   21.4559   -6.0484  -15.1787 C   0  0  1  0  0  0  0  0  0  0  0  0
   21.3655   -4.8269  -16.0139 C   0  0  0  0  0  0  0  0  0  0  0  0
   22.1439   -3.6399  -15.5974 C   0  0  0  0  0  0  0  0  0  0  0  0
   21.9179   -2.4478  -16.4375 C   0  0  0  0  0  0  0  0  0  0  0  0
   22.4021   -1.3333  -16.1897 O   0  0  0  0  0  0  0  0  0  0  0  0
   21.3079   -5.7587  -13.7413 C   0  0  0  0  0  0  0  0  0  0  0  0
   22.2657   -5.2710  -13.1039 O   0  0  0  0  0  0  0  0  0  0  0  0
   21.1142   -2.5463  -17.5901 O   0  0  0  0  0  0  0  0  0  0  0  0
   20.1312   -6.0121  -13.0694 O   0  0  0  0  0  0  0  0  0  0  0  0
  2  1  1  1
  2  4  1  0
  2  3  1  0
  4  5  1  6
  6  4  1  0
  7  6  2  0
  8  6  1  0
  9  8  1  0
  9 10  1  1
 11 10  1  0
 12 11  1  0
 12 13  2  0
 14 15  2  0
 14  9  1  0
 16 12  1  0
 17 14  1  0
 18 17  1  0
 18 19  1  6
 20 21  1  0
 20 19  1  0
 21 22  2  0
 23 18  1  0
 24 23  2  0
 25 21  1  0
 26 23  1  0
M  END
$$$$
