TEE.pdb
     RDKit          3D

 26 25  0  0  1  0  0  0  0  0999 V2000
   24.0214  -11.6102  -15.1481 C   0  0  0  0  0  0  0  0  0  0  0  0
   23.6929  -12.3034  -16.4515 C   0  0  1  0  0  0  0  0  0  0  0  0
   24.2833  -13.5490  -16.4826 O   0  0  0  0  0  0  0  0  0  0  0  0
   22.1792  -12.3968  -16.5749 C   0  0  2  0  0  0  0  0  0  0  0  0
   21.8522  -13.0921  -17.8262 N   0  0  0  0  0  0  0  0  0  0  0  0
   21.6215  -11.0310  -16.6241 C   0  0  0  0  0  0  0  0  0  0  0  0
   22.1914  -10.1960  -17.3737 O   0  0  0  0  0  0  0  0  0  0  0  0
   20.4878  -10.6285  -15.8730 N   0  0  0  0  0  0  0  0  0  0  0  0
   20.0489   -9.2241  -15.9428 C   0  0  1  0  0  0  0  0  0  0  0  0
   18.5798   -9.1487  -15.6205 C   0  0  0  0  0  0  0  0  0  0  0  0
   17.7776   -9.8620  -16.6629 C   0  0  0  0  0  0  0  0  0  0  0  0
   16.3086   -9.7623  -16.3759 C   0  0  0  0  0  0  0  0  0  0  0  0
   15.4667  -10.2514  -17.1427 O   0  0  0  0  0  0  0  0  0  0  0  0
   20.9231   -8.3901  -15.0867 C   0  0  0  0  0  0  0  0  0  0  0  0
   21.3501   -8.7809  -14.0010 O   0  0  0  0  0  0  0  0  0  0  0  0
   15.9272   -9.1074  -15.2286 O   0  0  0  0  0  0  0  0  0  0  0  0
   21.2989   -7.0753  -15.5184 N   0  0  0  0  0  0  0  0  0  0  0  0
   22.2178   -6.2203  -14.8199 C   0  0  1  0  0  0  0  0  0  0  0  0
   23.5151   -5.9731  -15.4934 C   0  0  0  0  0  0  0  0  0  0  0  0
   23.5214   -5.1150  -16.6983 C   0  0  0  0  0  0  0  0  0  0  0  0
   24.8516   -4.9585  -17.3179 C   0  0  0  0  0  0  0  0  0  0  0  0
   25.7875   -4.3437  -16.7849 O   0  0  0  0  0  0  0  0  0  0  0  0
   21.5484   -4.9718  -14.4138 C   0  0  0  0  0  0  0  0  0  0  0  0
   20.4868   -4.6252  -14.9744 O   0  0  0  0  0  0  0  0  0  0  0  0
   25.1056   -5.5252  -18.5822 O   0  0  0  0  0  0  0  0  0  0  0  0
   22.0630   -4.1641  -13.4223 O   0  0  0  0  0  0  0  0  0  0  0  0
  2  1  1  1
  2  4  1  0
  2  3  1  0
  4  5  1  6
  6  4  1  0
  7  6  2  0
  8  6  1  0
  9  8  1  0
  9 10  1  1
 11 10  1  0
 12 11  1  0
 12 13  2  0
 14 15  2  0
 14  9  1  0
 16 12  1  0
 17 14  1  0
 18 17  1  0
 18 19  1  6
 20 21  1  0
 20 19  1  0
 21 22  2  0
 23 18  1  0
 24 23  2  0
 25 21  1  0
 26 23  1  0
M  END
$$$$
