TEE.pdb
     RDKit          3D

 26 25  0  0  1  0  0  0  0  0999 V2000
   28.2391  -18.5948  -13.8256 C   0  0  0  0  0  0  0  0  0  0  0  0
   26.9249  -18.9447  -14.4872 C   0  0  1  0  0  0  0  0  0  0  0  0
   26.8260  -18.3025  -15.7034 O   0  0  0  0  0  0  0  0  0  0  0  0
   26.8563  -20.4566  -14.6440 C   0  0  2  0  0  0  0  0  0  0  0  0
   27.8031  -20.8636  -15.6900 N   0  0  0  0  0  0  0  0  0  0  0  0
   25.4902  -20.8295  -15.0606 C   0  0  0  0  0  0  0  0  0  0  0  0
   25.2158  -20.7585  -16.2868 O   0  0  0  0  0  0  0  0  0  0  0  0
   24.4910  -21.2577  -14.1498 N   0  0  0  0  0  0  0  0  0  0  0  0
   23.1448  -21.5658  -14.6621 C   0  0  1  0  0  0  0  0  0  0  0  0
   22.6436  -22.8264  -14.0083 C   0  0  0  0  0  0  0  0  0  0  0  0
   23.5633  -23.9697  -14.3014 C   0  0  0  0  0  0  0  0  0  0  0  0
   23.0410  -25.2474  -13.7141 C   0  0  0  0  0  0  0  0  0  0  0  0
   22.0568  -25.2565  -12.9609 O   0  0  0  0  0  0  0  0  0  0  0  0
   22.2704  -20.3822  -14.4966 C   0  0  0  0  0  0  0  0  0  0  0  0
   22.3499  -19.6343  -13.5229 O   0  0  0  0  0  0  0  0  0  0  0  0
   23.6943  -26.4122  -14.0415 O   0  0  0  0  0  0  0  0  0  0  0  0
   21.2874  -20.0771  -15.4951 N   0  0  0  0  0  0  0  0  0  0  0  0
   20.3260  -19.0147  -15.3936 C   0  0  1  0  0  0  0  0  0  0  0  0
   19.9631  -18.3435  -16.6646 C   0  0  0  0  0  0  0  0  0  0  0  0
   18.9269  -17.2885  -16.6233 C   0  0  0  0  0  0  0  0  0  0  0  0
   18.6655  -16.6513  -17.9285 C   0  0  0  0  0  0  0  0  0  0  0  0
   19.2529  -16.9661  -18.9744 O   0  0  0  0  0  0  0  0  0  0  0  0
   19.1435  -19.4641  -14.6376 C   0  0  0  0  0  0  0  0  0  0  0  0
   18.7278  -20.6348  -14.7726 O   0  0  0  0  0  0  0  0  0  0  0  0
   17.7034  -15.6272  -18.0270 O   0  0  0  0  0  0  0  0  0  0  0  0
   18.4731  -18.6231  -13.7753 O   0  0  0  0  0  0  0  0  0  0  0  0
  2  1  1  6
  2  4  1  0
  2  3  1  0
  4  5  1  6
  6  4  1  0
  7  6  2  0
  8  6  1  0
  9  8  1  0
  9 10  1  1
 11 10  1  0
 12 11  1  0
 12 13  2  0
 14 15  2  0
 14  9  1  0
 16 12  1  0
 17 14  1  0
 18 17  1  0
 18 19  1  6
 20 21  1  0
 20 19  1  0
 21 22  2  0
 23 18  1  0
 24 23  2  0
 25 21  1  0
 26 23  1  0
M  END
$$$$
