DII.pdb
     RDKit          3D

 25 24  0  0  1  0  0  0  0  0999 V2000
   12.2745  -16.9210   18.9783 N   0  0  0  0  0  0  0  0  0  0  0  0
   11.5052  -17.4939   20.0541 C   0  0  1  0  0  0  0  0  0  0  0  0
   12.2537  -18.5838   20.6900 C   0  0  0  0  0  0  0  0  0  0  0  0
   12.7990  -19.5597   19.7256 C   0  0  0  0  0  0  0  0  0  0  0  0
   12.0394  -20.0627   18.8705 O   0  0  0  0  0  0  0  0  0  0  0  0
   11.0001  -16.4170   20.9223 C   0  0  0  0  0  0  0  0  0  0  0  0
   11.7764  -15.4457   21.1252 O   0  0  0  0  0  0  0  0  0  0  0  0
   14.1228  -19.9205   19.7536 O   0  0  0  0  0  0  0  0  0  0  0  0
    6.6445  -13.6561   20.0087 C   0  0  0  0  0  0  0  0  0  0  0  0
    7.9669  -14.0687   20.5649 C   0  0  0  0  0  0  0  0  0  0  0  0
    7.8377  -14.9020   21.8594 C   0  0  2  0  0  0  0  0  0  0  0  0
    7.2700  -13.8833   22.8404 C   0  0  0  0  0  0  0  0  0  0  0  0
    9.1892  -15.3379   22.3524 C   0  0  2  0  0  0  0  0  0  0  0  0
    9.7537  -16.3891   21.5236 N   0  0  0  0  0  0  0  0  0  0  0  0
    9.1184  -15.8169   23.7353 C   0  0  0  0  0  0  0  0  0  0  0  0
    8.9943  -17.0986   23.9420 O   0  0  0  0  0  0  0  0  0  0  0  0
   10.5159  -13.6549   29.4142 C   0  0  0  0  0  0  0  0  0  0  0  0
   10.3969  -14.7346   28.4213 C   0  0  0  0  0  0  0  0  0  0  0  0
   10.0551  -14.4621   27.0315 C   0  0  2  0  0  0  0  0  0  0  0  0
    8.9489  -13.4080   26.8890 C   0  0  0  0  0  0  0  0  0  0  0  0
    9.6192  -15.6154   26.1835 C   0  0  2  0  0  0  0  0  0  0  0  0
    9.1807  -15.0089   24.8615 N   0  0  0  0  0  0  0  0  0  0  0  0
    8.4986  -16.3923   26.6613 C   0  0  0  0  0  0  0  0  0  0  0  0
    8.5314  -17.5356   27.4531 O   0  0  0  0  0  0  0  0  0  0  0  0
    7.2988  -16.0479   26.3497 O   0  0  0  0  0  0  0  0  0  0  0  0
  2  3  1  0
  2  1  1  6
  3  4  1  0
  4  8  1  0
  4  5  2  0
  6  2  1  0
  7  6  2  0
  9 10  1  0
 10 11  1  0
 11 13  1  0
 11 12  1  1
 13 14  1  6
 14  6  1  0
 15 22  1  0
 15 13  1  0
 16 15  2  0
 18 17  1  0
 19 21  1  0
 19 18  1  0
 19 20  1  1
 21 22  1  6
 23 24  1  0
 23 21  1  0
 25 23  2  0
M  END
$$$$
