DII.pdb
     RDKit          3D

 25 24  0  0  1  0  0  0  0  0999 V2000
   12.7310  -16.9432   19.8549 N   0  0  0  0  0  0  0  0  0  0  0  0
   11.8714  -17.6337   20.7831 C   0  0  1  0  0  0  0  0  0  0  0  0
   12.5748  -18.7785   21.3722 C   0  0  0  0  0  0  0  0  0  0  0  0
   12.8874  -19.8395   20.3944 C   0  0  0  0  0  0  0  0  0  0  0  0
   12.1441  -20.8412   20.3219 O   0  0  0  0  0  0  0  0  0  0  0  0
   11.2635  -16.6594   21.7050 C   0  0  0  0  0  0  0  0  0  0  0  0
   11.9584  -15.6499   21.9969 O   0  0  0  0  0  0  0  0  0  0  0  0
   13.9775  -19.7420   19.5663 O   0  0  0  0  0  0  0  0  0  0  0  0
    6.4866  -14.5364   20.9885 C   0  0  0  0  0  0  0  0  0  0  0  0
    7.8796  -14.7360   21.4868 C   0  0  0  0  0  0  0  0  0  0  0  0
    7.9357  -15.5622   22.7911 C   0  0  2  0  0  0  0  0  0  0  0  0
    7.3322  -14.5989   23.8061 C   0  0  0  0  0  0  0  0  0  0  0  0
    9.3587  -15.8426   23.1861 C   0  0  2  0  0  0  0  0  0  0  0  0
   10.0030  -16.7651   22.2673 N   0  0  0  0  0  0  0  0  0  0  0  0
    9.4318  -16.3994   24.5394 C   0  0  0  0  0  0  0  0  0  0  0  0
    9.5368  -17.6925   24.6729 O   0  0  0  0  0  0  0  0  0  0  0  0
   10.5293  -12.6016   28.1846 C   0  0  0  0  0  0  0  0  0  0  0  0
   10.7643  -13.8940   27.5210 C   0  0  0  0  0  0  0  0  0  0  0  0
   10.0835  -15.1090   27.9489 C   0  0  2  0  0  0  0  0  0  0  0  0
   10.6871  -15.7079   29.2264 C   0  0  0  0  0  0  0  0  0  0  0  0
   10.0058  -16.2423   26.9747 C   0  0  2  0  0  0  0  0  0  0  0  0
    9.4057  -15.6539   25.7092 N   0  0  0  0  0  0  0  0  0  0  0  0
    9.1651  -17.3601   27.3369 C   0  0  0  0  0  0  0  0  0  0  0  0
    9.5510  -18.5595   27.9263 O   0  0  0  0  0  0  0  0  0  0  0  0
    7.8997  -17.3124   27.1093 O   0  0  0  0  0  0  0  0  0  0  0  0
  2  3  1  0
  2  1  1  1
  3  4  1  0
  4  8  1  0
  4  5  2  0
  6  2  1  0
  7  6  2  0
  9 10  1  0
 10 11  1  0
 11 13  1  0
 11 12  1  1
 13 14  1  6
 14  6  1  0
 15 22  1  0
 15 13  1  0
 16 15  2  0
 18 17  1  0
 19 21  1  0
 19 18  1  0
 19 20  1  1
 21 22  1  6
 23 24  1  0
 23 21  1  0
 25 23  2  0
M  END
$$$$
