DII.pdb
     RDKit          3D

 25 24  0  0  1  0  0  0  0  0999 V2000
   11.0769  -17.9850   19.7771 N   0  0  0  0  0  0  0  0  0  0  0  0
   12.0752  -17.3464   20.5974 C   0  0  1  0  0  0  0  0  0  0  0  0
   13.1301  -16.7689   19.7572 C   0  0  0  0  0  0  0  0  0  0  0  0
   13.9389  -17.7838   19.0532 C   0  0  0  0  0  0  0  0  0  0  0  0
   14.7050  -17.4239   18.1341 O   0  0  0  0  0  0  0  0  0  0  0  0
   11.4153  -16.4583   21.5692 C   0  0  0  0  0  0  0  0  0  0  0  0
   12.1694  -15.7512   22.2893 O   0  0  0  0  0  0  0  0  0  0  0  0
   13.8629  -19.1114   19.3926 O   0  0  0  0  0  0  0  0  0  0  0  0
    6.7446  -13.9437   20.2357 C   0  0  0  0  0  0  0  0  0  0  0  0
    8.0747  -14.2148   20.8567 C   0  0  0  0  0  0  0  0  0  0  0  0
    7.9753  -15.0922   22.1245 C   0  0  2  0  0  0  0  0  0  0  0  0
    7.3063  -14.1475   23.1157 C   0  0  0  0  0  0  0  0  0  0  0  0
    9.3427  -15.4390   22.6438 C   0  0  2  0  0  0  0  0  0  0  0  0
   10.0479  -16.3408   21.7492 N   0  0  0  0  0  0  0  0  0  0  0  0
    9.2635  -16.0587   23.9691 C   0  0  0  0  0  0  0  0  0  0  0  0
    9.0396  -17.3415   24.0414 O   0  0  0  0  0  0  0  0  0  0  0  0
    9.8542  -13.1096   28.8330 C   0  0  0  0  0  0  0  0  0  0  0  0
    9.3557  -14.0087   27.7799 C   0  0  0  0  0  0  0  0  0  0  0  0
    9.9915  -15.2902   27.5035 C   0  0  2  0  0  0  0  0  0  0  0  0
   11.4580  -15.1441   27.0755 C   0  0  0  0  0  0  0  0  0  0  0  0
    9.3603  -16.1713   26.4717 C   0  0  2  0  0  0  0  0  0  0  0  0
    9.4164  -15.3856   25.1727 N   0  0  0  0  0  0  0  0  0  0  0  0
    7.9729  -16.5219   26.6705 C   0  0  0  0  0  0  0  0  0  0  0  0
    7.4570  -17.5299   27.4785 O   0  0  0  0  0  0  0  0  0  0  0  0
    7.0510  -15.8712   26.0524 O   0  0  0  0  0  0  0  0  0  0  0  0
  2  3  1  0
  2  1  1  6
  3  4  1  0
  4  8  1  0
  4  5  2  0
  6  2  1  0
  7  6  2  0
  9 10  1  0
 10 11  1  0
 11 13  1  0
 11 12  1  1
 13 14  1  6
 14  6  1  0
 15 22  1  0
 15 13  1  0
 16 15  2  0
 18 17  1  0
 19 21  1  0
 19 18  1  0
 19 20  1  6
 21 22  1  6
 23 24  1  0
 23 21  1  0
 25 23  2  0
M  END
$$$$
