DII.pdb
     RDKit          3D

 25 24  0  0  1  0  0  0  0  0999 V2000
   11.8606  -17.2048   19.0911 N   0  0  0  0  0  0  0  0  0  0  0  0
   11.9928  -17.6120   20.4673 C   0  0  1  0  0  0  0  0  0  0  0  0
   13.3868  -17.9618   20.7622 C   0  0  0  0  0  0  0  0  0  0  0  0
   13.8894  -19.0924   19.9568 C   0  0  0  0  0  0  0  0  0  0  0  0
   13.1854  -19.5400   19.0266 O   0  0  0  0  0  0  0  0  0  0  0  0
   11.3410  -16.6181   21.3367 C   0  0  0  0  0  0  0  0  0  0  0  0
   11.9026  -15.4941   21.4276 O   0  0  0  0  0  0  0  0  0  0  0  0
   15.1141  -19.6564   20.2129 O   0  0  0  0  0  0  0  0  0  0  0  0
    6.4319  -15.0196   20.6816 C   0  0  0  0  0  0  0  0  0  0  0  0
    7.8521  -15.0700   21.1387 C   0  0  0  0  0  0  0  0  0  0  0  0
    8.0145  -15.7601   22.5114 C   0  0  2  0  0  0  0  0  0  0  0  0
    7.3420  -14.7661   23.4506 C   0  0  0  0  0  0  0  0  0  0  0  0
    9.4657  -15.8666   22.8884 C   0  0  2  0  0  0  0  0  0  0  0  0
   10.1730  -16.8205   22.0515 N   0  0  0  0  0  0  0  0  0  0  0  0
    9.6201  -16.2659   24.2896 C   0  0  0  0  0  0  0  0  0  0  0  0
    9.8351  -17.5244   24.5557 O   0  0  0  0  0  0  0  0  0  0  0  0
   10.8062  -13.5697   29.7935 C   0  0  0  0  0  0  0  0  0  0  0  0
   10.7494  -14.7297   28.8896 C   0  0  0  0  0  0  0  0  0  0  0  0
   10.3535  -14.5938   27.4941 C   0  0  2  0  0  0  0  0  0  0  0  0
    9.0644  -13.7794   27.3203 C   0  0  0  0  0  0  0  0  0  0  0  0
   10.1425  -15.8482   26.7058 C   0  0  2  0  0  0  0  0  0  0  0  0
    9.5631  -15.4023   25.3741 N   0  0  0  0  0  0  0  0  0  0  0  0
    9.2124  -16.8125   27.2468 C   0  0  0  0  0  0  0  0  0  0  0  0
    7.8695  -16.9745   26.9223 O   0  0  0  0  0  0  0  0  0  0  0  0
    9.6023  -17.6471   28.1448 O   0  0  0  0  0  0  0  0  0  0  0  0
  2  3  1  0
  2  1  1  6
  3  4  1  0
  4  8  1  0
  4  5  2  0
  6  2  1  0
  7  6  2  0
  9 10  1  0
 10 11  1  0
 11 13  1  0
 11 12  1  1
 13 14  1  6
 14  6  1  0
 15 22  1  0
 15 13  1  0
 16 15  2  0
 18 17  1  0
 19 21  1  0
 19 18  1  0
 19 20  1  1
 21 22  1  6
 23 24  1  0
 23 21  1  0
 25 23  2  0
M  END
$$$$
