DII.pdb
     RDKit          3D

 25 24  0  0  1  0  0  0  0  0999 V2000
   11.3678  -18.0107   20.2478 N   0  0  0  0  0  0  0  0  0  0  0  0
   12.2687  -17.1110   20.9233 C   0  0  1  0  0  0  0  0  0  0  0  0
   13.1857  -16.4917   19.9600 C   0  0  0  0  0  0  0  0  0  0  0  0
   13.8794  -17.4706   19.0996 C   0  0  0  0  0  0  0  0  0  0  0  0
   14.5467  -18.3844   19.6297 O   0  0  0  0  0  0  0  0  0  0  0  0
   11.4984  -16.2161   21.8033 C   0  0  0  0  0  0  0  0  0  0  0  0
   12.1562  -15.3577   22.4495 O   0  0  0  0  0  0  0  0  0  0  0  0
   13.8017  -17.3929   17.7316 O   0  0  0  0  0  0  0  0  0  0  0  0
    6.4900  -14.3987   20.4174 C   0  0  0  0  0  0  0  0  0  0  0  0
    7.8531  -14.4389   21.0245 C   0  0  0  0  0  0  0  0  0  0  0  0
    7.9048  -15.2729   22.3240 C   0  0  2  0  0  0  0  0  0  0  0  0
    7.1168  -14.4017   23.2948 C   0  0  0  0  0  0  0  0  0  0  0  0
    9.3162  -15.3924   22.8273 C   0  0  2  0  0  0  0  0  0  0  0  0
   10.1248  -16.2440   21.9720 N   0  0  0  0  0  0  0  0  0  0  0  0
    9.3479  -15.9296   24.1901 C   0  0  0  0  0  0  0  0  0  0  0  0
    9.5409  -17.2098   24.3476 O   0  0  0  0  0  0  0  0  0  0  0  0
   10.5300  -12.2456   27.7987 C   0  0  0  0  0  0  0  0  0  0  0  0
   10.6248  -13.5989   27.2283 C   0  0  0  0  0  0  0  0  0  0  0  0
    9.7191  -14.6656   27.6339 C   0  0  2  0  0  0  0  0  0  0  0  0
   10.1172  -15.3045   28.9712 C   0  0  0  0  0  0  0  0  0  0  0  0
    9.5230  -15.8085   26.6881 C   0  0  2  0  0  0  0  0  0  0  0  0
    9.1945  -15.1774   25.3458 N   0  0  0  0  0  0  0  0  0  0  0  0
    8.4413  -16.7210   26.9794 C   0  0  0  0  0  0  0  0  0  0  0  0
    8.5210  -17.9682   27.5902 O   0  0  0  0  0  0  0  0  0  0  0  0
    7.2351  -16.4112   26.6563 O   0  0  0  0  0  0  0  0  0  0  0  0
  2  3  1  0
  2  1  1  6
  3  4  1  0
  4  8  1  0
  4  5  2  0
  6  2  1  0
  7  6  2  0
  9 10  1  0
 10 11  1  0
 11 13  1  0
 11 12  1  1
 13 14  1  6
 14  6  1  0
 15 22  1  0
 15 13  1  0
 16 15  2  0
 18 17  1  0
 19 21  1  0
 19 18  1  0
 19 20  1  1
 21 22  1  6
 23 24  1  0
 23 21  1  0
 25 23  2  0
M  END
$$$$
