DII.pdb
     RDKit          3D

 25 24  0  0  1  0  0  0  0  0999 V2000
   10.8773  -16.8877   19.6157 N   0  0  0  0  0  0  0  0  0  0  0  0
   10.7529  -17.4893   20.9195 C   0  0  1  0  0  0  0  0  0  0  0  0
   11.8048  -18.4923   21.1190 C   0  0  0  0  0  0  0  0  0  0  0  0
   11.8501  -19.5128   20.0531 C   0  0  0  0  0  0  0  0  0  0  0  0
   10.8341  -20.2036   19.8258 O   0  0  0  0  0  0  0  0  0  0  0  0
   10.6178  -16.4321   21.9357 C   0  0  0  0  0  0  0  0  0  0  0  0
   11.5312  -15.5652   21.9722 O   0  0  0  0  0  0  0  0  0  0  0  0
   12.9868  -19.7127   19.3105 O   0  0  0  0  0  0  0  0  0  0  0  0
    6.2063  -13.5574   22.5063 C   0  0  0  0  0  0  0  0  0  0  0  0
    7.6497  -13.9213   22.6192 C   0  0  0  0  0  0  0  0  0  0  0  0
    7.9513  -14.7948   23.8573 C   0  0  2  0  0  0  0  0  0  0  0  0
    7.7962  -13.7967   24.9984 C   0  0  0  0  0  0  0  0  0  0  0  0
    9.3741  -15.2792   23.8366 C   0  0  2  0  0  0  0  0  0  0  0  0
    9.5771  -16.3178   22.8413 N   0  0  0  0  0  0  0  0  0  0  0  0
    9.7748  -15.7991   25.1466 C   0  0  0  0  0  0  0  0  0  0  0  0
    9.8082  -17.0917   25.3169 O   0  0  0  0  0  0  0  0  0  0  0  0
   10.6676  -14.2982   30.9839 C   0  0  0  0  0  0  0  0  0  0  0  0
   11.2929  -14.9554   29.8251 C   0  0  0  0  0  0  0  0  0  0  0  0
   10.9426  -14.5925   28.4582 C   0  0  2  0  0  0  0  0  0  0  0  0
    9.7545  -13.6236   28.3883 C   0  0  0  0  0  0  0  0  0  0  0  0
   10.6112  -15.6999   27.5079 C   0  0  2  0  0  0  0  0  0  0  0  0
   10.1344  -15.0191   26.2362 N   0  0  0  0  0  0  0  0  0  0  0  0
    9.5554  -16.6049   27.9001 C   0  0  0  0  0  0  0  0  0  0  0  0
    8.1917  -16.4785   27.6562 O   0  0  0  0  0  0  0  0  0  0  0  0
    9.8366  -17.6711   28.5629 O   0  0  0  0  0  0  0  0  0  0  0  0
  2  3  1  0
  2  1  1  6
  3  4  1  0
  4  8  1  0
  4  5  2  0
  6  2  1  0
  7  6  2  0
  9 10  1  0
 10 11  1  0
 11 13  1  0
 11 12  1  1
 13 14  1  6
 14  6  1  0
 15 22  1  0
 15 13  1  0
 16 15  2  0
 18 17  1  0
 19 21  1  0
 19 18  1  0
 19 20  1  1
 21 22  1  6
 23 24  1  0
 23 21  1  0
 25 23  2  0
M  END
$$$$
