LST.pdb
     RDKit          3D

 22 21  0  0  1  0  0  0  0  0999 V2000
   16.0827  -12.5506  -16.1443 C   0  0  0  0  0  0  0  0  0  0  0  0
   17.3752  -13.3122  -15.9379 C   0  0  2  0  0  0  0  0  0  0  0  0
   17.1319  -14.5660  -15.1357 C   0  0  0  0  0  0  0  0  0  0  0  0
   18.4056  -12.3946  -15.3422 C   0  0  0  0  0  0  0  0  0  0  0  0
   18.6706  -11.1633  -16.1293 C   0  0  2  0  0  0  0  0  0  0  0  0
   19.1531  -11.3935  -17.4823 N   0  0  0  0  0  0  0  0  0  0  0  0
   19.6676  -10.3160  -15.3724 C   0  0  0  0  0  0  0  0  0  0  0  0
   19.5193   -9.9741  -14.1848 O   0  0  0  0  0  0  0  0  0  0  0  0
   24.2289   -8.4864  -15.4403 O   0  0  0  0  0  0  0  0  0  0  0  0
   23.2435   -9.3435  -15.8821 C   0  0  0  0  0  0  0  0  0  0  0  0
   21.8538   -9.0034  -15.4681 C   0  0  2  0  0  0  0  0  0  0  0  0
   20.8609   -9.8699  -16.0469 N   0  0  0  0  0  0  0  0  0  0  0  0
   21.4970   -7.5656  -15.5468 C   0  0  0  0  0  0  0  0  0  0  0  0
   21.3632   -7.0103  -16.6706 O   0  0  0  0  0  0  0  0  0  0  0  0
   18.6814   -5.3603  -15.2043 C   0  0  0  0  0  0  0  0  0  0  0  0
   19.7178   -4.8431  -14.2299 C   0  0  1  0  0  0  0  0  0  0  0  0
   19.2709   -5.2500  -12.9486 O   0  0  0  0  0  0  0  0  0  0  0  0
   21.0963   -5.3079  -14.5030 C   0  0  2  0  0  0  0  0  0  0  0  0
   21.2901   -6.7457  -14.4056 N   0  0  0  0  0  0  0  0  0  0  0  0
   22.0459   -4.5781  -13.6063 C   0  0  0  0  0  0  0  0  0  0  0  0
   22.6883   -5.2604  -12.7569 O   0  0  0  0  0  0  0  0  0  0  0  0
   22.2486   -3.2361  -13.6611 O   0  0  0  0  0  0  0  0  0  0  0  0
  2  1  1  1
  2  3  1  0
  4  2  1  0
  4  5  1  0
  5  6  1  6
  7  8  2  0
  7  5  1  0
  9 10  1  0
 11 10  1  6
 11 12  1  0
 11 13  1  0
 12  7  1  0
 13 19  1  0
 14 13  2  0
 16 17  1  0
 16 15  1  6
 18 16  1  0
 18 19  1  1
 20 18  1  0
 20 22  1  0
 21 20  2  0
M  END
$$$$
