LST.pdb
     RDKit          3D

 22 21  0  0  1  0  0  0  0  0999 V2000
   27.5654  -19.5495  -18.5957 C   0  0  0  0  0  0  0  0  0  0  0  0
   27.6114  -21.0628  -18.6322 C   0  0  2  0  0  0  0  0  0  0  0  0
   27.2979  -21.5715  -20.0170 C   0  0  0  0  0  0  0  0  0  0  0  0
   26.7156  -21.6154  -17.5596 C   0  0  0  0  0  0  0  0  0  0  0  0
   27.0219  -21.1380  -16.1870 C   0  0  2  0  0  0  0  0  0  0  0  0
   28.3251  -21.5356  -15.6770 N   0  0  0  0  0  0  0  0  0  0  0  0
   25.9398  -21.6329  -15.2548 C   0  0  0  0  0  0  0  0  0  0  0  0
   26.1106  -22.5438  -14.4237 O   0  0  0  0  0  0  0  0  0  0  0  0
   23.2554  -20.9514  -11.8924 O   0  0  0  0  0  0  0  0  0  0  0  0
   24.1645  -20.8512  -12.9240 C   0  0  0  0  0  0  0  0  0  0  0  0
   23.6328  -21.1302  -14.2870 C   0  0  2  0  0  0  0  0  0  0  0  0
   24.6324  -21.0294  -15.3179 N   0  0  0  0  0  0  0  0  0  0  0  0
   22.3629  -20.4448  -14.6307 C   0  0  0  0  0  0  0  0  0  0  0  0
   22.3316  -19.1883  -14.7284 O   0  0  0  0  0  0  0  0  0  0  0  0
   19.8555  -21.2184  -17.6239 C   0  0  0  0  0  0  0  0  0  0  0  0
   19.1281  -21.0900  -16.3028 C   0  0  1  0  0  0  0  0  0  0  0  0
   18.7518  -22.4086  -15.9466 O   0  0  0  0  0  0  0  0  0  0  0  0
   19.9168  -20.4372  -15.2339 C   0  0  2  0  0  0  0  0  0  0  0  0
   21.1407  -21.1297  -14.8637 N   0  0  0  0  0  0  0  0  0  0  0  0
   19.0410  -20.2235  -14.0398 C   0  0  0  0  0  0  0  0  0  0  0  0
   19.3990  -20.7564  -12.9501 O   0  0  0  0  0  0  0  0  0  0  0  0
   17.8958  -19.4936  -14.0702 O   0  0  0  0  0  0  0  0  0  0  0  0
  2  1  1  6
  2  3  1  0
  4  2  1  0
  4  5  1  0
  5  6  1  1
  7  8  2  0
  7  5  1  0
  9 10  1  0
 11 10  1  1
 11 12  1  0
 11 13  1  0
 12  7  1  0
 13 19  1  0
 14 13  2  0
 16 17  1  0
 16 15  1  6
 18 16  1  0
 18 19  1  1
 20 18  1  0
 20 22  1  0
 21 20  2  0
M  END
$$$$
