LST.pdb
     RDKit          3D

 22 21  0  0  1  0  0  0  0  0999 V2000
   19.4833  -13.2825  -19.2113 C   0  0  0  0  0  0  0  0  0  0  0  0
   18.1308  -13.0805  -18.5607 C   0  0  2  0  0  0  0  0  0  0  0  0
   17.0216  -13.3079  -19.5571 C   0  0  0  0  0  0  0  0  0  0  0  0
   18.0920  -11.7320  -17.8984 C   0  0  0  0  0  0  0  0  0  0  0  0
   19.2078  -11.4713  -16.9535 C   0  0  2  0  0  0  0  0  0  0  0  0
   19.2280  -12.3286  -15.7783 N   0  0  0  0  0  0  0  0  0  0  0  0
   19.1437  -10.0234  -16.5241 C   0  0  0  0  0  0  0  0  0  0  0  0
   19.1877   -9.0668  -17.3193 O   0  0  0  0  0  0  0  0  0  0  0  0
   18.7261   -8.9674  -12.2294 O   0  0  0  0  0  0  0  0  0  0  0  0
   18.1636   -8.3182  -13.3077 C   0  0  0  0  0  0  0  0  0  0  0  0
   18.9355   -8.3838  -14.5798 C   0  0  2  0  0  0  0  0  0  0  0  0
   19.0257   -9.7146  -15.1211 N   0  0  0  0  0  0  0  0  0  0  0  0
   20.2305   -7.6602  -14.5800 C   0  0  0  0  0  0  0  0  0  0  0  0
   21.3086   -8.2981  -14.4379 O   0  0  0  0  0  0  0  0  0  0  0  0
   23.2335   -3.9740  -15.7795 C   0  0  0  0  0  0  0  0  0  0  0  0
   21.8558   -4.6010  -15.7837 C   0  0  1  0  0  0  0  0  0  0  0  0
   21.7220   -5.2154  -17.0532 O   0  0  0  0  0  0  0  0  0  0  0  0
   21.6200   -5.5612  -14.6822 C   0  0  2  0  0  0  0  0  0  0  0  0
   20.3418   -6.2526  -14.7335 N   0  0  0  0  0  0  0  0  0  0  0  0
   21.7956   -4.8578  -13.3734 C   0  0  0  0  0  0  0  0  0  0  0  0
   20.7867   -4.2715  -12.8855 O   0  0  0  0  0  0  0  0  0  0  0  0
   22.9708   -4.8206  -12.6932 O   0  0  0  0  0  0  0  0  0  0  0  0
  2  1  1  6
  2  3  1  0
  4  2  1  0
  4  5  1  0
  5  6  1  1
  7  8  2  0
  7  5  1  0
  9 10  1  0
 11 10  1  1
 11 12  1  0
 11 13  1  0
 12  7  1  0
 13 19  1  0
 14 13  2  0
 16 17  1  0
 16 15  1  1
 18 16  1  0
 18 19  1  1
 20 18  1  0
 20 22  1  0
 21 20  2  0
M  END
$$$$
