LST.pdb
     RDKit          3D

 22 21  0  0  1  0  0  0  0  0999 V2000
   24.0550  -21.2947   -9.1505 C   0  0  0  0  0  0  0  0  0  0  0  0
   25.5421  -21.0084   -9.1342 C   0  0  2  0  0  0  0  0  0  0  0  0
   25.9435  -20.3524   -7.8368 C   0  0  0  0  0  0  0  0  0  0  0  0
   25.9121  -20.2201  -10.3590 C   0  0  0  0  0  0  0  0  0  0  0  0
   25.4909  -20.8341  -11.6440 C   0  0  2  0  0  0  0  0  0  0  0  0
   25.9533  -22.1977  -11.8518 N   0  0  0  0  0  0  0  0  0  0  0  0
   25.9744  -19.9565  -12.7758 C   0  0  0  0  0  0  0  0  0  0  0  0
   25.6434  -18.7644  -12.9123 O   0  0  0  0  0  0  0  0  0  0  0  0
   29.3382  -21.3101  -15.0928 O   0  0  0  0  0  0  0  0  0  0  0  0
   28.9464  -19.9971  -14.9407 C   0  0  0  0  0  0  0  0  0  0  0  0
   27.4793  -19.7665  -14.8278 C   0  0  2  0  0  0  0  0  0  0  0  0
   26.8677  -20.5137  -13.7603 N   0  0  0  0  0  0  0  0  0  0  0  0
   26.7216  -19.8336  -16.1014 C   0  0  0  0  0  0  0  0  0  0  0  0
   26.6717  -20.9143  -16.7486 O   0  0  0  0  0  0  0  0  0  0  0  0
   23.1038  -19.7844  -17.0144 C   0  0  0  0  0  0  0  0  0  0  0  0
   23.7989  -18.6476  -17.7326 C   0  0  1  0  0  0  0  0  0  0  0  0
   23.4920  -17.4829  -16.9866 O   0  0  0  0  0  0  0  0  0  0  0  0
   25.2594  -18.8290  -17.8902 C   0  0  2  0  0  0  0  0  0  0  0  0
   26.0271  -18.7274  -16.6595 N   0  0  0  0  0  0  0  0  0  0  0  0
   25.7646  -17.8650  -18.9169 C   0  0  0  0  0  0  0  0  0  0  0  0
   26.6389  -17.0276  -18.5514 O   0  0  0  0  0  0  0  0  0  0  0  0
   25.3352  -17.8478  -20.2055 O   0  0  0  0  0  0  0  0  0  0  0  0
  2  1  1  1
  2  3  1  0
  4  2  1  0
  4  5  1  0
  5  6  1  6
  7  8  2  0
  7  5  1  0
  9 10  1  0
 11 10  1  6
 11 12  1  0
 11 13  1  0
 12  7  1  0
 13 19  1  0
 14 13  2  0
 16 17  1  0
 16 15  1  1
 18 16  1  0
 18 19  1  1
 20 18  1  0
 20 22  1  0
 21 20  2  0
M  END
$$$$
