LST.pdb
     RDKit          3D

 22 21  0  0  1  0  0  0  0  0999 V2000
   23.2651  -13.2551  -15.1322 C   0  0  0  0  0  0  0  0  0  0  0  0
   23.7479  -12.3503  -16.2466 C   0  0  2  0  0  0  0  0  0  0  0  0
   25.2538  -12.2646  -16.2477 C   0  0  0  0  0  0  0  0  0  0  0  0
   23.0589  -11.0189  -16.1425 C   0  0  0  0  0  0  0  0  0  0  0  0
   21.5758  -11.0812  -16.1894 C   0  0  2  0  0  0  0  0  0  0  0  0
   21.0243  -11.6198  -17.4231 N   0  0  0  0  0  0  0  0  0  0  0  0
   21.0300   -9.6913  -15.9541 C   0  0  0  0  0  0  0  0  0  0  0  0
   20.9920   -8.8090  -16.8313 O   0  0  0  0  0  0  0  0  0  0  0  0
   19.3784   -8.6654  -12.0112 O   0  0  0  0  0  0  0  0  0  0  0  0
   18.9433   -8.1538  -13.2152 C   0  0  0  0  0  0  0  0  0  0  0  0
   19.9674   -8.0712  -14.2935 C   0  0  2  0  0  0  0  0  0  0  0  0
   20.5222   -9.3510  -14.6488 N   0  0  0  0  0  0  0  0  0  0  0  0
   20.9930   -7.0134  -14.1215 C   0  0  0  0  0  0  0  0  0  0  0  0
   22.0705   -7.2722  -13.5203 O   0  0  0  0  0  0  0  0  0  0  0  0
   23.3369   -5.2332  -16.3719 C   0  0  0  0  0  0  0  0  0  0  0  0
   22.4988   -4.1899  -15.6646 C   0  0  1  0  0  0  0  0  0  0  0  0
   21.5411   -3.7623  -16.6171 O   0  0  0  0  0  0  0  0  0  0  0  0
   21.8579   -4.6657  -14.4181 C   0  0  2  0  0  0  0  0  0  0  0  0
   20.8384   -5.6860  -14.6027 N   0  0  0  0  0  0  0  0  0  0  0  0
   21.3104   -3.4915  -13.6698 C   0  0  0  0  0  0  0  0  0  0  0  0
   20.0616   -3.4554  -13.4727 O   0  0  0  0  0  0  0  0  0  0  0  0
   22.0805   -2.4771  -13.1978 O   0  0  0  0  0  0  0  0  0  0  0  0
  2  1  1  1
  2  3  1  0
  4  2  1  0
  4  5  1  0
  5  6  1  6
  7  8  2  0
  7  5  1  0
  9 10  1  0
 11 10  1  1
 11 12  1  0
 11 13  1  0
 12  7  1  0
 13 19  1  0
 14 13  2  0
 16 17  1  0
 16 15  1  6
 18 16  1  0
 18 19  1  6
 20 18  1  0
 20 22  1  0
 21 20  2  0
M  END
$$$$
