LST.pdb
     RDKit          3D

 22 21  0  0  1  0  0  0  0  0999 V2000
   17.9670  -14.3470  -17.7118 C   0  0  0  0  0  0  0  0  0  0  0  0
   18.8142  -14.4530  -16.4610 C   0  0  2  0  0  0  0  0  0  0  0  0
   18.3242  -15.5747  -15.5798 C   0  0  0  0  0  0  0  0  0  0  0  0
   18.8651  -13.1154  -15.7779 C   0  0  0  0  0  0  0  0  0  0  0  0
   19.3489  -11.9999  -16.6308 C   0  0  2  0  0  0  0  0  0  0  0  0
   20.7163  -12.1416  -17.1067 N   0  0  0  0  0  0  0  0  0  0  0  0
   19.2129  -10.7097  -15.8550 C   0  0  0  0  0  0  0  0  0  0  0  0
   18.1693  -10.3640  -15.2713 O   0  0  0  0  0  0  0  0  0  0  0  0
   21.7464   -7.0802  -13.7358 O   0  0  0  0  0  0  0  0  0  0  0  0
   21.6545   -8.2918  -14.3871 C   0  0  0  0  0  0  0  0  0  0  0  0
   20.3545   -8.5712  -15.0580 C   0  0  2  0  0  0  0  0  0  0  0  0
   20.3430   -9.8183  -15.7767 N   0  0  0  0  0  0  0  0  0  0  0  0
   19.7776   -7.4431  -15.8294 C   0  0  0  0  0  0  0  0  0  0  0  0
   20.1927   -7.1991  -16.9945 O   0  0  0  0  0  0  0  0  0  0  0  0
   16.3279   -6.6119  -17.2464 C   0  0  0  0  0  0  0  0  0  0  0  0
   16.7824   -5.4920  -16.3351 C   0  0  1  0  0  0  0  0  0  0  0  0
   16.0484   -5.6576  -15.1347 O   0  0  0  0  0  0  0  0  0  0  0  0
   18.2412   -5.4629  -16.0863 C   0  0  2  0  0  0  0  0  0  0  0  0
   18.7574   -6.5913  -15.3282 N   0  0  0  0  0  0  0  0  0  0  0  0
   18.6002   -4.1677  -15.4290 C   0  0  0  0  0  0  0  0  0  0  0  0
   19.1251   -4.2220  -14.2796 O   0  0  0  0  0  0  0  0  0  0  0  0
   18.3929   -2.9532  -16.0009 O   0  0  0  0  0  0  0  0  0  0  0  0
  2  1  1  6
  2  3  1  0
  4  2  1  0
  4  5  1  0
  5  6  1  1
  7  8  2  0
  7  5  1  0
  9 10  1  0
 11 10  1  6
 11 12  1  0
 11 13  1  0
 12  7  1  0
 13 19  1  0
 14 13  2  0
 16 17  1  0
 16 15  1  6
 18 16  1  0
 18 19  1  1
 20 18  1  0
 20 22  1  0
 21 20  2  0
M  END
$$$$
