LST.pdb
     RDKit          3D

 22 21  0  0  1  0  0  0  0  0999 V2000
   18.9343  -13.3599  -19.5654 C   0  0  0  0  0  0  0  0  0  0  0  0
   17.7845  -13.2677  -18.5841 C   0  0  2  0  0  0  0  0  0  0  0  0
   16.5098  -13.7778  -19.2084 C   0  0  0  0  0  0  0  0  0  0  0  0
   17.6891  -11.8634  -18.0575 C   0  0  0  0  0  0  0  0  0  0  0  0
   18.9447  -11.3348  -17.4661 C   0  0  2  0  0  0  0  0  0  0  0  0
   19.4631  -12.1015  -16.3437 N   0  0  0  0  0  0  0  0  0  0  0  0
   18.7075   -9.9049  -17.0371 C   0  0  0  0  0  0  0  0  0  0  0  0
   18.3152   -9.0106  -17.8090 O   0  0  0  0  0  0  0  0  0  0  0  0
   17.3442   -6.8954  -13.6488 O   0  0  0  0  0  0  0  0  0  0  0  0
   17.4968   -8.0811  -14.3353 C   0  0  0  0  0  0  0  0  0  0  0  0
   18.7534   -8.2179  -15.1231 C   0  0  2  0  0  0  0  0  0  0  0  0
   18.9439   -9.5384  -15.6632 N   0  0  0  0  0  0  0  0  0  0  0  0
   19.9719   -7.6627  -14.4847 C   0  0  0  0  0  0  0  0  0  0  0  0
   20.5560   -8.3090  -13.5734 O   0  0  0  0  0  0  0  0  0  0  0  0
   23.4282   -7.2805  -15.4550 C   0  0  0  0  0  0  0  0  0  0  0  0
   22.9543   -5.8994  -15.0560 C   0  0  1  0  0  0  0  0  0  0  0  0
   22.7448   -5.2036  -16.2722 O   0  0  0  0  0  0  0  0  0  0  0  0
   21.7432   -5.8931  -14.2050 C   0  0  2  0  0  0  0  0  0  0  0  0
   20.5430   -6.4120  -14.8411 N   0  0  0  0  0  0  0  0  0  0  0  0
   21.5172   -4.5085  -13.6851 C   0  0  0  0  0  0  0  0  0  0  0  0
   20.4362   -3.9343  -14.0037 O   0  0  0  0  0  0  0  0  0  0  0  0
   22.4053   -3.8484  -12.8973 O   0  0  0  0  0  0  0  0  0  0  0  0
  2  1  1  6
  2  3  1  0
  4  2  1  0
  4  5  1  0
  5  6  1  1
  7  8  2  0
  7  5  1  0
  9 10  1  0
 11 10  1  1
 11 12  1  0
 11 13  1  0
 12  7  1  0
 13 19  1  0
 14 13  2  0
 16 17  1  0
 16 15  1  6
 18 16  1  0
 18 19  1  6
 20 18  1  0
 20 22  1  0
 21 20  2  0
M  END
$$$$
