KSV.pdb
     RDKit          3D

 23 22  0  0  1  0  0  0  0  0999 V2000
   19.1084  -11.4656  -17.7854 N   0  0  0  0  0  0  0  0  0  0  0  0
   18.4672  -10.1903  -17.5440 C   0  0  1  0  0  0  0  0  0  0  0  0
   16.9790  -10.3505  -17.3240 C   0  0  0  0  0  0  0  0  0  0  0  0
   16.5121  -11.7566  -17.5859 C   0  0  0  0  0  0  0  0  0  0  0  0
   15.4764  -11.8563  -18.6657 C   0  0  0  0  0  0  0  0  0  0  0  0
   14.9502  -13.2722  -18.7723 C   0  0  0  0  0  0  0  0  0  0  0  0
   13.8585  -13.3729  -19.7165 N   0  0  0  0  0  0  0  0  0  0  0  0
   19.1332   -9.5581  -16.3847 C   0  0  0  0  0  0  0  0  0  0  0  0
   18.4562   -8.8726  -15.5875 O   0  0  0  0  0  0  0  0  0  0  0  0
   23.1407   -9.0748  -13.7443 O   0  0  0  0  0  0  0  0  0  0  0  0
   22.5067   -9.7347  -14.7877 C   0  0  0  0  0  0  0  0  0  0  0  0
   21.2163   -8.9645  -15.0858 C   0  0  2  0  0  0  0  0  0  0  0  0
   20.5263   -9.6919  -16.1259 N   0  0  0  0  0  0  0  0  0  0  0  0
   21.5149   -7.5676  -15.4784 C   0  0  0  0  0  0  0  0  0  0  0  0
   22.0058   -7.3382  -16.6068 O   0  0  0  0  0  0  0  0  0  0  0  0
   19.3231   -4.8767  -16.0371 C   0  0  0  0  0  0  0  0  0  0  0  0
   20.2101   -4.3884  -14.9179 C   0  0  1  0  0  0  0  0  0  0  0  0
   19.4397   -4.4833  -13.6276 C   0  0  0  0  0  0  0  0  0  0  0  0
   21.5222   -5.1233  -14.8641 C   0  0  2  0  0  0  0  0  0  0  0  0
   21.2410   -6.5174  -14.5736 N   0  0  0  0  0  0  0  0  0  0  0  0
   22.3844   -4.5036  -13.8475 C   0  0  0  0  0  0  0  0  0  0  0  0
   22.9717   -3.2838  -14.1424 O   0  0  0  0  0  0  0  0  0  0  0  0
   22.6248   -5.0103  -12.7228 O   0  0  0  0  0  0  0  0  0  0  0  0
  2  1  1  1
  2  8  1  0
  3  2  1  0
  4  5  1  0
  4  3  1  0
  5  6  1  0
  6  7  1  0
  8 13  1  0
  8  9  2  0
 10 11  1  0
 12 11  1  6
 12 14  1  0
 13 12  1  0
 14 20  1  0
 14 15  2  0
 17 16  1  6
 17 19  1  0
 17 18  1  0
 19 21  1  0
 19 20  1  1
 21 22  1  0
 23 21  2  0
M  END
$$$$
