KSV.pdb
     RDKit          3D

 23 22  0  0  1  0  0  0  0  0999 V2000
   21.3225  -23.9164  -11.7558 N   0  0  0  0  0  0  0  0  0  0  0  0
   20.5000  -22.7358  -11.9162 C   0  0  1  0  0  0  0  0  0  0  0  0
   19.8333  -22.3435  -10.6161 C   0  0  0  0  0  0  0  0  0  0  0  0
   19.1479  -23.5072   -9.9530 C   0  0  0  0  0  0  0  0  0  0  0  0
   18.4183  -23.1400   -8.6955 C   0  0  0  0  0  0  0  0  0  0  0  0
   17.7974  -24.3664   -8.0605 C   0  0  0  0  0  0  0  0  0  0  0  0
   18.7331  -25.0642   -7.2054 N   0  0  0  0  0  0  0  0  0  0  0  0
   21.3561  -21.6534  -12.4480 C   0  0  0  0  0  0  0  0  0  0  0  0
   20.8652  -20.5182  -12.6326 O   0  0  0  0  0  0  0  0  0  0  0  0
   25.1195  -22.1723  -12.4085 O   0  0  0  0  0  0  0  0  0  0  0  0
   24.9454  -21.4175  -13.5600 C   0  0  0  0  0  0  0  0  0  0  0  0
   23.5041  -20.8984  -13.5410 C   0  0  2  0  0  0  0  0  0  0  0  0
   22.7308  -21.8404  -12.7653 N   0  0  0  0  0  0  0  0  0  0  0  0
   22.9825  -20.7407  -14.9186 C   0  0  0  0  0  0  0  0  0  0  0  0
   22.6494  -21.7568  -15.5694 O   0  0  0  0  0  0  0  0  0  0  0  0
   21.3357  -17.3352  -15.4241 C   0  0  0  0  0  0  0  0  0  0  0  0
   21.1692  -18.2266  -16.6305 C   0  0  1  0  0  0  0  0  0  0  0  0
   20.9751  -17.3528  -17.8415 C   0  0  0  0  0  0  0  0  0  0  0  0
   22.3114  -19.1931  -16.7912 C   0  0  2  0  0  0  0  0  0  0  0  0
   22.8693  -19.4470  -15.4754 N   0  0  0  0  0  0  0  0  0  0  0  0
   23.3013  -18.6251  -17.7176 C   0  0  0  0  0  0  0  0  0  0  0  0
   23.0515  -18.7138  -19.0776 O   0  0  0  0  0  0  0  0  0  0  0  0
   24.3646  -18.0615  -17.3552 O   0  0  0  0  0  0  0  0  0  0  0  0
  2  1  1  1
  2  8  1  0
  3  2  1  0
  4  5  1  0
  4  3  1  0
  5  6  1  0
  6  7  1  0
  8 13  1  0
  8  9  2  0
 10 11  1  0
 12 11  1  6
 12 14  1  0
 13 12  1  0
 14 20  1  0
 14 15  2  0
 17 16  1  1
 17 19  1  0
 17 18  1  0
 19 21  1  0
 19 20  1  1
 21 22  1  0
 23 21  2  0
M  END
$$$$
