KSV.pdb
     RDKit          3D

 23 22  0  0  1  0  0  0  0  0999 V2000
   20.1216  -28.4369  -10.5446 N   0  0  0  0  0  0  0  0  0  0  0  0
   19.7391  -27.0466  -10.6738 C   0  0  1  0  0  0  0  0  0  0  0  0
   19.2326  -26.7376  -12.0654 C   0  0  0  0  0  0  0  0  0  0  0  0
   20.2520  -27.0528  -13.1262 C   0  0  0  0  0  0  0  0  0  0  0  0
   21.3358  -26.0234  -13.2451 C   0  0  0  0  0  0  0  0  0  0  0  0
   22.2025  -26.2976  -14.4562 C   0  0  0  0  0  0  0  0  0  0  0  0
   23.2129  -25.2781  -14.6391 N   0  0  0  0  0  0  0  0  0  0  0  0
   18.7243  -26.7555   -9.6380 C   0  0  0  0  0  0  0  0  0  0  0  0
   17.6460  -27.3886   -9.6412 O   0  0  0  0  0  0  0  0  0  0  0  0
   19.3583  -23.6059   -7.2377 O   0  0  0  0  0  0  0  0  0  0  0  0
   18.5524  -24.5433   -6.6071 C   0  0  0  0  0  0  0  0  0  0  0  0
   17.8748  -25.3644   -7.7089 C   0  0  2  0  0  0  0  0  0  0  0  0
   18.9151  -25.7769   -8.6224 N   0  0  0  0  0  0  0  0  0  0  0  0
   16.8166  -24.5741   -8.3800 C   0  0  0  0  0  0  0  0  0  0  0  0
   17.1318  -23.7704   -9.2864 O   0  0  0  0  0  0  0  0  0  0  0  0
   13.6778  -25.9253   -9.9920 C   0  0  0  0  0  0  0  0  0  0  0  0
   13.2741  -24.9573   -8.9068 C   0  0  1  0  0  0  0  0  0  0  0  0
   12.8117  -25.7503   -7.7131 C   0  0  0  0  0  0  0  0  0  0  0  0
   14.3728  -23.9868   -8.5667 C   0  0  2  0  0  0  0  0  0  0  0  0
   15.4697  -24.7401   -7.9867 N   0  0  0  0  0  0  0  0  0  0  0  0
   13.8504  -22.9643   -7.6488 C   0  0  0  0  0  0  0  0  0  0  0  0
   14.2812  -22.9849   -6.3321 O   0  0  0  0  0  0  0  0  0  0  0  0
   13.0345  -22.0682   -7.9819 O   0  0  0  0  0  0  0  0  0  0  0  0
  2  1  1  6
  2  8  1  0
  3  2  1  0
  4  5  1  0
  4  3  1  0
  5  6  1  0
  6  7  1  0
  8 13  1  0
  8  9  2  0
 10 11  1  0
 12 11  1  1
 12 14  1  0
 13 12  1  0
 14 20  1  0
 14 15  2  0
 17 16  1  6
 17 19  1  0
 17 18  1  0
 19 21  1  0
 19 20  1  1
 21 22  1  0
 23 21  2  0
M  END
$$$$
