KSV.pdb
     RDKit          3D

 23 22  0  0  1  0  0  0  0  0999 V2000
   26.0027  -33.8783  -13.0190 N   0  0  0  0  0  0  0  0  0  0  0  0
   25.0074  -33.8616  -11.9678 C   0  0  1  0  0  0  0  0  0  0  0  0
   24.3432  -35.2118  -11.8113 C   0  0  0  0  0  0  0  0  0  0  0  0
   23.0700  -35.3164  -12.6063 C   0  0  0  0  0  0  0  0  0  0  0  0
   22.6159  -34.0124  -13.1909 C   0  0  0  0  0  0  0  0  0  0  0  0
   21.1789  -34.1081  -13.6585 C   0  0  0  0  0  0  0  0  0  0  0  0
   20.7203  -32.8704  -14.2514 N   0  0  0  0  0  0  0  0  0  0  0  0
   25.6700  -33.4227  -10.7205 C   0  0  0  0  0  0  0  0  0  0  0  0
   26.8404  -33.7945  -10.4846 O   0  0  0  0  0  0  0  0  0  0  0  0
   23.5154  -31.9853   -7.5674 O   0  0  0  0  0  0  0  0  0  0  0  0
   24.6675  -31.2511   -7.8117 C   0  0  0  0  0  0  0  0  0  0  0  0
   25.6534  -32.1875   -8.5176 C   0  0  2  0  0  0  0  0  0  0  0  0
   25.0343  -32.5863   -9.7605 N   0  0  0  0  0  0  0  0  0  0  0  0
   25.9877  -33.3465   -7.6576 C   0  0  0  0  0  0  0  0  0  0  0  0
   25.3344  -34.4077   -7.7756 O   0  0  0  0  0  0  0  0  0  0  0  0
   28.9380  -32.7653   -4.5559 C   0  0  0  0  0  0  0  0  0  0  0  0
   28.8103  -34.0503   -5.3371 C   0  0  1  0  0  0  0  0  0  0  0  0
   29.3499  -35.1737   -4.4920 C   0  0  0  0  0  0  0  0  0  0  0  0
   27.4011  -34.3009   -5.8020 C   0  0  2  0  0  0  0  0  0  0  0  0
   27.0377  -33.2357   -6.7186 N   0  0  0  0  0  0  0  0  0  0  0  0
   26.5089  -34.3628   -4.6353 C   0  0  0  0  0  0  0  0  0  0  0  0
   25.9252  -33.1860   -4.1944 O   0  0  0  0  0  0  0  0  0  0  0  0
   26.2396  -35.4183   -4.0085 O   0  0  0  0  0  0  0  0  0  0  0  0
  2  1  1  6
  2  8  1  0
  3  2  1  0
  4  5  1  0
  4  3  1  0
  5  6  1  0
  6  7  1  0
  8 13  1  0
  8  9  2  0
 10 11  1  0
 12 11  1  1
 12 14  1  0
 13 12  1  0
 14 20  1  0
 14 15  2  0
 17 16  1  1
 17 19  1  0
 17 18  1  0
 19 21  1  0
 19 20  1  6
 21 22  1  0
 23 21  2  0
M  END
$$$$
