KSV.pdb
     RDKit          3D

 23 22  0  0  1  0  0  0  0  0999 V2000
   18.5199  -11.7846  -15.8957 N   0  0  0  0  0  0  0  0  0  0  0  0
   18.9795  -10.9040  -16.9489 C   0  0  1  0  0  0  0  0  0  0  0  0
   18.0816  -10.9771  -18.1643 C   0  0  0  0  0  0  0  0  0  0  0  0
   18.0281  -12.3615  -18.7511 C   0  0  0  0  0  0  0  0  0  0  0  0
   18.2463  -12.3961  -20.2342 C   0  0  0  0  0  0  0  0  0  0  0  0
   18.0756  -13.8033  -20.7667 C   0  0  0  0  0  0  0  0  0  0  0  0
   19.1163  -14.6900  -20.2930 N   0  0  0  0  0  0  0  0  0  0  0  0
   19.0534   -9.5340  -16.3968 C   0  0  0  0  0  0  0  0  0  0  0  0
   19.5313   -8.6155  -17.0980 O   0  0  0  0  0  0  0  0  0  0  0  0
   18.2639   -8.8628  -12.4461 O   0  0  0  0  0  0  0  0  0  0  0  0
   17.7935   -7.8604  -13.2827 C   0  0  0  0  0  0  0  0  0  0  0  0
   18.6775   -7.8705  -14.5340 C   0  0  2  0  0  0  0  0  0  0  0  0
   18.6018   -9.2023  -15.0886 N   0  0  0  0  0  0  0  0  0  0  0  0
   20.0664   -7.4770  -14.2013 C   0  0  0  0  0  0  0  0  0  0  0  0
   20.8350   -8.3170  -13.6812 O   0  0  0  0  0  0  0  0  0  0  0  0
   22.5499   -5.9080  -16.5250 C   0  0  0  0  0  0  0  0  0  0  0  0
   22.3846   -4.9760  -15.3495 C   0  0  1  0  0  0  0  0  0  0  0  0
   21.5397   -3.8085  -15.7862 C   0  0  0  0  0  0  0  0  0  0  0  0
   21.8262   -5.6738  -14.1388 C   0  0  2  0  0  0  0  0  0  0  0  0
   20.5011   -6.1609  -14.4762 N   0  0  0  0  0  0  0  0  0  0  0  0
   21.8055   -4.7378  -13.0055 C   0  0  0  0  0  0  0  0  0  0  0  0
   23.0106   -4.4087  -12.4061 O   0  0  0  0  0  0  0  0  0  0  0  0
   20.7612   -4.2140  -12.5423 O   0  0  0  0  0  0  0  0  0  0  0  0
  2  1  1  1
  2  8  1  0
  3  2  1  0
  4  5  1  0
  4  3  1  0
  5  6  1  0
  6  7  1  0
  8 13  1  0
  8  9  2  0
 10 11  1  0
 12 11  1  1
 12 14  1  0
 13 12  1  0
 14 20  1  0
 14 15  2  0
 17 16  1  6
 17 19  1  0
 17 18  1  0
 19 21  1  0
 19 20  1  6
 21 22  1  0
 23 21  2  0
M  END
$$$$
