KSV.pdb
     RDKit          3D

 23 22  0  0  1  0  0  0  0  0999 V2000
   20.1331  -12.1606  -16.2009 N   0  0  0  0  0  0  0  0  0  0  0  0
   19.5237  -11.0239  -16.8585 C   0  0  1  0  0  0  0  0  0  0  0  0
   18.1732  -11.3784  -17.4409 C   0  0  0  0  0  0  0  0  0  0  0  0
   18.2915  -12.1946  -18.6994 C   0  0  0  0  0  0  0  0  0  0  0  0
   18.0241  -13.6560  -18.4971 C   0  0  0  0  0  0  0  0  0  0  0  0
   18.1909  -14.4147  -19.7969 C   0  0  0  0  0  0  0  0  0  0  0  0
   18.0244  -15.8406  -19.6152 N   0  0  0  0  0  0  0  0  0  0  0  0
   19.4305   -9.9244  -15.8738 C   0  0  0  0  0  0  0  0  0  0  0  0
   18.3222   -9.6510  -15.3632 O   0  0  0  0  0  0  0  0  0  0  0  0
   20.6308   -7.7316  -12.1740 O   0  0  0  0  0  0  0  0  0  0  0  0
   20.6511   -8.7500  -13.1165 C   0  0  0  0  0  0  0  0  0  0  0  0
   20.4824   -8.0922  -14.4898 C   0  0  2  0  0  0  0  0  0  0  0  0
   20.5545   -9.1496  -15.4715 N   0  0  0  0  0  0  0  0  0  0  0  0
   21.5142   -7.0515  -14.7062 C   0  0  0  0  0  0  0  0  0  0  0  0
   22.6850   -7.3957  -14.9846 O   0  0  0  0  0  0  0  0  0  0  0  0
   21.7017   -4.6190  -17.2344 C   0  0  0  0  0  0  0  0  0  0  0  0
   21.6886   -3.8021  -15.9655 C   0  0  1  0  0  0  0  0  0  0  0  0
   20.3190   -3.1965  -15.8064 C   0  0  0  0  0  0  0  0  0  0  0  0
   22.1104   -4.6033  -14.7635 C   0  0  2  0  0  0  0  0  0  0  0  0
   21.1606   -5.6880  -14.5948 N   0  0  0  0  0  0  0  0  0  0  0  0
   22.1668   -3.7222  -13.5882 C   0  0  0  0  0  0  0  0  0  0  0  0
   23.2201   -2.8273  -13.4909 O   0  0  0  0  0  0  0  0  0  0  0  0
   21.3181   -3.7275  -12.6613 O   0  0  0  0  0  0  0  0  0  0  0  0
  2  1  1  1
  2  8  1  0
  3  2  1  0
  4  5  1  0
  4  3  1  0
  5  6  1  0
  6  7  1  0
  8 13  1  0
  8  9  2  0
 10 11  1  0
 12 11  1  1
 12 14  1  0
 13 12  1  0
 14 20  1  0
 14 15  2  0
 17 16  1  6
 17 19  1  0
 17 18  1  0
 19 21  1  0
 19 20  1  1
 21 22  1  0
 23 21  2  0
M  END
$$$$
