KSV.pdb
     RDKit          3D

 23 22  0  0  1  0  0  0  0  0999 V2000
   18.9308  -11.9011  -15.4842 N   0  0  0  0  0  0  0  0  0  0  0  0
   18.8835  -10.7989  -16.4217 C   0  0  1  0  0  0  0  0  0  0  0  0
   17.7514  -10.9611  -17.4119 C   0  0  0  0  0  0  0  0  0  0  0  0
   17.9296  -12.1709  -18.2884 C   0  0  0  0  0  0  0  0  0  0  0  0
   16.8893  -12.2964  -19.3610 C   0  0  0  0  0  0  0  0  0  0  0  0
   17.1625  -13.5048  -20.2317 C   0  0  0  0  0  0  0  0  0  0  0  0
   16.1253  -13.7033  -21.2209 N   0  0  0  0  0  0  0  0  0  0  0  0
   18.7646   -9.5458  -15.6453 C   0  0  0  0  0  0  0  0  0  0  0  0
   17.6852   -9.2793  -15.0729 O   0  0  0  0  0  0  0  0  0  0  0  0
   21.3663   -7.7672  -13.0952 O   0  0  0  0  0  0  0  0  0  0  0  0
   21.1518   -7.0576  -14.2684 C   0  0  0  0  0  0  0  0  0  0  0  0
   19.7349   -7.3956  -14.7431 C   0  0  2  0  0  0  0  0  0  0  0  0
   19.8318   -8.6134  -15.5142 N   0  0  0  0  0  0  0  0  0  0  0  0
   19.1606   -6.2771  -15.5265 C   0  0  0  0  0  0  0  0  0  0  0  0
   19.5319   -6.1009  -16.7088 O   0  0  0  0  0  0  0  0  0  0  0  0
   15.3832   -5.1160  -14.6916 C   0  0  0  0  0  0  0  0  0  0  0  0
   16.1505   -4.7285  -15.9321 C   0  0  1  0  0  0  0  0  0  0  0  0
   15.3824   -3.6474  -16.6454 C   0  0  0  0  0  0  0  0  0  0  0  0
   17.5681   -4.3262  -15.6269 C   0  0  2  0  0  0  0  0  0  0  0  0
   18.2036   -5.4277  -14.9271 N   0  0  0  0  0  0  0  0  0  0  0  0
   17.5614   -3.0892  -14.8327 C   0  0  0  0  0  0  0  0  0  0  0  0
   17.5347   -1.8788  -15.5065 O   0  0  0  0  0  0  0  0  0  0  0  0
   17.5784   -3.0575  -13.5765 O   0  0  0  0  0  0  0  0  0  0  0  0
  2  1  1  1
  2  8  1  0
  3  2  1  0
  4  5  1  0
  4  3  1  0
  5  6  1  0
  6  7  1  0
  8 13  1  0
  8  9  2  0
 10 11  1  0
 12 11  1  6
 12 14  1  0
 13 12  1  0
 14 20  1  0
 14 15  2  0
 17 16  1  1
 17 19  1  0
 17 18  1  0
 19 21  1  0
 19 20  1  1
 21 22  1  0
 23 21  2  0
M  END
$$$$
