REG.pdb
     RDKit          3D

 25 24  0  0  1  0  0  0  0  0999 V2000
    6.9263  -12.8548   18.0743 N   0  0  0  0  0  0  0  0  0  0  0  0
    8.1273  -13.1944   18.7752 C   0  0  0  0  0  0  0  0  0  0  0  0
    8.3640  -12.7204   19.9511 N   0  0  0  0  0  0  0  0  0  0  0  0
    9.0961  -14.0606   18.2038 N   0  0  0  0  0  0  0  0  0  0  0  0
   10.1868  -14.5521   18.9850 C   0  0  0  0  0  0  0  0  0  0  0  0
    9.8335  -15.5778   20.0106 C   0  0  0  0  0  0  0  0  0  0  0  0
   10.2909  -16.9354   19.4633 C   0  0  0  0  0  0  0  0  0  0  0  0
   11.7126  -16.8183   18.9581 C   0  0  2  0  0  0  0  0  0  0  0  0
   11.9227  -17.6271   17.7804 N   0  0  0  0  0  0  0  0  0  0  0  0
   12.6381  -17.2483   20.0609 C   0  0  0  0  0  0  0  0  0  0  0  0
   12.8489  -18.4759   20.2844 O   0  0  0  0  0  0  0  0  0  0  0  0
    9.1860  -12.9748   20.5213 N   0  0  0  0  0  0  0  0  0  0  0  0
   13.3012  -16.3196   20.8828 C   0  0  2  0  0  0  0  0  0  0  0  0
   14.2187  -16.7682   21.9606 C   0  0  0  0  0  0  0  0  0  0  0  0
   15.4549  -15.9048   21.8873 C   0  0  0  0  0  0  0  0  0  0  0  0
   16.4603  -16.1216   22.9608 C   0  0  0  0  0  0  0  0  0  0  0  0
   17.6293  -15.2251   22.7077 O   0  0  0  0  0  0  0  0  0  0  0  0
   18.5613  -15.6465   21.9972 C   0  0  0  0  0  0  0  0  0  0  0  0
   13.4821  -16.6461   23.2333 O   0  0  0  0  0  0  0  0  0  0  0  0
   12.7142  -15.6462   23.4512 O   0  0  0  0  0  0  0  0  0  0  0  0
   17.6996  -13.9581   23.2356 N   0  0  0  0  0  0  0  0  0  0  0  0
   13.5353  -17.5798   24.3073 C   0  0  0  0  0  0  0  0  0  0  0  0
   12.7805  -17.3917   25.5303 C   0  0  0  0  0  0  0  0  0  0  0  0
   12.8187  -18.5821   26.4029 O   0  0  0  0  0  0  0  0  0  0  0  0
   13.4342  -19.5905   25.9696 O   0  0  0  0  0  0  0  0  0  0  0  0
  2  3  2  0
  2  1  1  0
  4  2  1  0
  5  4  1  0
  6  5  1  0
  7  6  1  0
  8 10  1  0
  8  7  1  0
  8  9  1  6
 10 12  1  0
 11 10  2  0
 12 13  1  0
 13 14  1  6
 14 15  1  0
 16 17  2  0
 16 15  1  0
 18 13  1  0
 19 18  2  0
 20 16  1  0
 21 18  1  0
 22 21  1  0
 23 22  1  0
 24 23  2  0
 25 23  1  0
M  END
$$$$
