REG.pdb
     RDKit          3D

 25 24  0  0  1  0  0  0  0  0999 V2000
    9.2411  -23.5743   18.3002 N   0  0  0  0  0  0  0  0  0  0  0  0
    8.9645  -22.3399   17.6302 C   0  0  0  0  0  0  0  0  0  0  0  0
    7.7543  -22.0009   17.3403 N   0  0  0  0  0  0  0  0  0  0  0  0
   10.0070  -21.4493   17.2626 N   0  0  0  0  0  0  0  0  0  0  0  0
   11.0276  -21.0946   18.1974 C   0  0  0  0  0  0  0  0  0  0  0  0
   11.1699  -22.0056   19.3716 C   0  0  0  0  0  0  0  0  0  0  0  0
   12.3162  -21.4560   20.2294 C   0  0  0  0  0  0  0  0  0  0  0  0
   11.9275  -20.0988   20.7744 C   0  0  2  0  0  0  0  0  0  0  0  0
   12.0987  -19.0630   19.7830 N   0  0  0  0  0  0  0  0  0  0  0  0
   12.7798  -19.8168   21.9794 C   0  0  0  0  0  0  0  0  0  0  0  0
   13.0863  -20.7442   22.7840 O   0  0  0  0  0  0  0  0  0  0  0  0
    7.5014  -21.1313   16.8451 N   0  0  0  0  0  0  0  0  0  0  0  0
   13.2673  -18.5287   22.2633 C   0  0  1  0  0  0  0  0  0  0  0  0
   14.1678  -18.2875   23.4190 C   0  0  0  0  0  0  0  0  0  0  0  0
   15.1388  -17.2048   23.0145 C   0  0  0  0  0  0  0  0  0  0  0  0
   16.0477  -16.7175   24.0852 C   0  0  0  0  0  0  0  0  0  0  0  0
   17.0332  -15.7704   23.4801 O   0  0  0  0  0  0  0  0  0  0  0  0
   16.9768  -15.5530   22.2551 C   0  0  0  0  0  0  0  0  0  0  0  0
   13.3122  -17.9222   24.5642 O   0  0  0  0  0  0  0  0  0  0  0  0
   12.4007  -17.0328   24.4421 O   0  0  0  0  0  0  0  0  0  0  0  0
   17.9915  -15.1393   24.2366 N   0  0  0  0  0  0  0  0  0  0  0  0
   13.3956  -18.4903   25.8675 C   0  0  0  0  0  0  0  0  0  0  0  0
   12.5732  -18.0234   26.9660 C   0  0  0  0  0  0  0  0  0  0  0  0
   11.6939  -19.0827   27.4993 O   0  0  0  0  0  0  0  0  0  0  0  0
   11.5498  -20.1159   26.7956 O   0  0  0  0  0  0  0  0  0  0  0  0
  2  3  2  0
  2  1  1  0
  4  2  1  0
  5  4  1  0
  6  5  1  0
  7  6  1  0
  8 10  1  0
  8  7  1  0
  8  9  1  6
 10 12  1  0
 11 10  2  0
 12 13  1  0
 13 14  1  6
 14 15  1  0
 16 17  2  0
 16 15  1  0
 18 13  1  0
 19 18  2  0
 20 16  1  0
 21 18  1  0
 22 21  1  0
 23 22  1  0
 24 23  2  0
 25 23  1  0
M  END
$$$$
