REG.pdb
     RDKit          3D

 25 24  0  0  1  0  0  0  0  0999 V2000
    6.8025  -13.9520   14.3226 N   0  0  0  0  0  0  0  0  0  0  0  0
    7.4236  -14.2201   15.5841 C   0  0  0  0  0  0  0  0  0  0  0  0
    8.2671  -15.1871   15.7144 N   0  0  0  0  0  0  0  0  0  0  0  0
    7.1346  -13.4353   16.7312 N   0  0  0  0  0  0  0  0  0  0  0  0
    8.1837  -12.9820   17.5886 C   0  0  0  0  0  0  0  0  0  0  0  0
    8.0913  -13.4280   19.0104 C   0  0  0  0  0  0  0  0  0  0  0  0
    9.0363  -14.6255   19.1673 C   0  0  0  0  0  0  0  0  0  0  0  0
   10.3702  -14.2971   18.5324 C   0  0  2  0  0  0  0  0  0  0  0  0
   10.3900  -14.6506   17.1325 N   0  0  0  0  0  0  0  0  0  0  0  0
   11.4396  -15.0454   19.2769 C   0  0  0  0  0  0  0  0  0  0  0  0
   11.2805  -16.2627   19.5840 O   0  0  0  0  0  0  0  0  0  0  0  0
    8.7825  -15.3900   16.5854 N   0  0  0  0  0  0  0  0  0  0  0  0
   12.6472  -14.4356   19.6607 C   0  0  1  0  0  0  0  0  0  0  0  0
   13.7630  -15.2346   20.2276 C   0  0  0  0  0  0  0  0  0  0  0  0
   15.0379  -14.7487   19.5814 C   0  0  0  0  0  0  0  0  0  0  0  0
   15.1787  -15.0378   18.1299 C   0  0  0  0  0  0  0  0  0  0  0  0
   16.5190  -14.5568   17.6755 O   0  0  0  0  0  0  0  0  0  0  0  0
   17.0166  -15.0587   16.6500 C   0  0  0  0  0  0  0  0  0  0  0  0
   13.7285  -15.0472   21.6907 O   0  0  0  0  0  0  0  0  0  0  0  0
   13.7993  -13.8765   22.2020 O   0  0  0  0  0  0  0  0  0  0  0  0
   17.2093  -13.5826   18.3562 N   0  0  0  0  0  0  0  0  0  0  0  0
   13.6146  -16.0923   22.6513 C   0  0  0  0  0  0  0  0  0  0  0  0
   13.6214  -15.8327   24.0774 C   0  0  0  0  0  0  0  0  0  0  0  0
   13.4351  -17.0622   24.8732 O   0  0  0  0  0  0  0  0  0  0  0  0
   13.2279  -18.1292   24.2392 O   0  0  0  0  0  0  0  0  0  0  0  0
  2  3  2  0
  2  1  1  0
  4  2  1  0
  5  4  1  0
  6  5  1  0
  7  6  1  0
  8 10  1  0
  8  7  1  0
  8  9  1  6
 10 12  1  0
 11 10  2  0
 12 13  1  0
 13 14  1  1
 14 15  1  0
 16 17  2  0
 16 15  1  0
 18 13  1  0
 19 18  2  0
 20 16  1  0
 21 18  1  0
 22 21  1  0
 23 22  1  0
 24 23  2  0
 25 23  1  0
M  END
$$$$
