REG.pdb
     RDKit          3D

 25 24  0  0  1  0  0  0  0  0999 V2000
    5.4056  -12.9505   15.2655 N   0  0  0  0  0  0  0  0  0  0  0  0
    5.7796  -14.2017   15.8517 C   0  0  0  0  0  0  0  0  0  0  0  0
    5.6916  -15.2997   15.1805 N   0  0  0  0  0  0  0  0  0  0  0  0
    6.2581  -14.2787   17.1859 N   0  0  0  0  0  0  0  0  0  0  0  0
    7.3933  -13.5159   17.5993 C   0  0  0  0  0  0  0  0  0  0  0  0
    8.6211  -13.6864   16.7673 C   0  0  0  0  0  0  0  0  0  0  0  0
    9.4737  -14.7679   17.4421 C   0  0  0  0  0  0  0  0  0  0  0  0
    9.9736  -14.2525   18.7743 C   0  0  2  0  0  0  0  0  0  0  0  0
   10.1811  -12.8238   18.7435 N   0  0  0  0  0  0  0  0  0  0  0  0
   11.2582  -14.9617   19.0982 C   0  0  0  0  0  0  0  0  0  0  0  0
   11.2789  -16.2163   19.2617 O   0  0  0  0  0  0  0  0  0  0  0  0
    5.9160  -16.2308   15.5652 N   0  0  0  0  0  0  0  0  0  0  0  0
   12.4769  -14.2730   19.2328 C   0  0  1  0  0  0  0  0  0  0  0  0
   13.7440  -15.0017   19.4941 C   0  0  0  0  0  0  0  0  0  0  0  0
   14.7602  -14.5106   18.4915 C   0  0  0  0  0  0  0  0  0  0  0  0
   16.1345  -15.0572   18.6423 C   0  0  0  0  0  0  0  0  0  0  0  0
   17.0003  -14.4728   17.5731 O   0  0  0  0  0  0  0  0  0  0  0  0
   16.4586  -13.8464   16.6429 C   0  0  0  0  0  0  0  0  0  0  0  0
   14.1146  -14.7341   20.8970 O   0  0  0  0  0  0  0  0  0  0  0  0
   13.8911  -13.5907   21.4258 O   0  0  0  0  0  0  0  0  0  0  0  0
   18.3678  -14.6089   17.5919 N   0  0  0  0  0  0  0  0  0  0  0  0
   14.7279  -15.6695   21.7785 C   0  0  0  0  0  0  0  0  0  0  0  0
   15.0015  -15.3554   23.1668 C   0  0  0  0  0  0  0  0  0  0  0  0
   15.6671  -16.4674   23.8739 O   0  0  0  0  0  0  0  0  0  0  0  0
   15.7209  -17.5746   23.2782 O   0  0  0  0  0  0  0  0  0  0  0  0
  2  3  2  0
  2  1  1  0
  4  2  1  0
  5  4  1  0
  6  5  1  0
  7  6  1  0
  8 10  1  0
  8  7  1  0
  8  9  1  6
 10 12  1  0
 11 10  2  0
 12 13  1  0
 13 14  1  1
 14 15  1  0
 16 17  2  0
 16 15  1  0
 18 13  1  0
 19 18  2  0
 20 16  1  0
 21 18  1  0
 22 21  1  0
 23 22  1  0
 24 23  2  0
 25 23  1  0
M  END
$$$$
