REG.pdb
     RDKit          3D

 25 24  0  0  1  0  0  0  0  0999 V2000
    8.8475  -13.8415   17.7844 N   0  0  0  0  0  0  0  0  0  0  0  0
    8.6279  -12.8786   18.8206 C   0  0  0  0  0  0  0  0  0  0  0  0
    9.5506  -12.0405   19.1517 N   0  0  0  0  0  0  0  0  0  0  0  0
    7.3930  -12.8123   19.5176 N   0  0  0  0  0  0  0  0  0  0  0  0
    7.1760  -13.5934   20.6941 C   0  0  0  0  0  0  0  0  0  0  0  0
    6.5040  -14.9090   20.4785 C   0  0  0  0  0  0  0  0  0  0  0  0
    7.6115  -15.9552   20.3036 C   0  0  0  0  0  0  0  0  0  0  0  0
    8.0089  -16.4952   21.6603 C   0  0  2  0  0  0  0  0  0  0  0  0
    7.9098  -15.4801   22.6824 N   0  0  0  0  0  0  0  0  0  0  0  0
    9.4183  -17.0075   21.5655 C   0  0  0  0  0  0  0  0  0  0  0  0
    9.7202  -17.9159   20.7378 O   0  0  0  0  0  0  0  0  0  0  0  0
    9.4525  -11.3418   19.9051 N   0  0  0  0  0  0  0  0  0  0  0  0
   10.4497  -16.5085   22.3807 C   0  0  2  0  0  0  0  0  0  0  0  0
   11.8324  -17.0402   22.2789 C   0  0  0  0  0  0  0  0  0  0  0  0
   12.5384  -16.2540   21.2008 C   0  0  0  0  0  0  0  0  0  0  0  0
   13.9587  -16.6198   20.9578 C   0  0  0  0  0  0  0  0  0  0  0  0
   14.5054  -15.7275   19.8906 O   0  0  0  0  0  0  0  0  0  0  0  0
   14.5924  -14.5066   20.1205 C   0  0  0  0  0  0  0  0  0  0  0  0
   12.4467  -16.9044   23.6135 O   0  0  0  0  0  0  0  0  0  0  0  0
   12.7373  -15.7513   24.0855 O   0  0  0  0  0  0  0  0  0  0  0  0
   14.9107  -16.2178   18.6722 N   0  0  0  0  0  0  0  0  0  0  0  0
   12.7663  -17.9840   24.4855 C   0  0  0  0  0  0  0  0  0  0  0  0
   12.3972  -17.9780   25.8872 C   0  0  0  0  0  0  0  0  0  0  0  0
   12.9568  -19.1307   26.6206 O   0  0  0  0  0  0  0  0  0  0  0  0
   13.4779  -20.0480   25.9346 O   0  0  0  0  0  0  0  0  0  0  0  0
  2  3  2  0
  2  1  1  0
  4  2  1  0
  5  4  1  0
  6  5  1  0
  7  6  1  0
  8 10  1  0
  8  7  1  0
  8  9  1  1
 10 12  1  0
 11 10  2  0
 12 13  1  0
 13 14  1  6
 14 15  1  0
 16 17  2  0
 16 15  1  0
 18 13  1  0
 19 18  2  0
 20 16  1  0
 21 18  1  0
 22 21  1  0
 23 22  1  0
 24 23  2  0
 25 23  1  0
M  END
$$$$
