REG.pdb
     RDKit          3D

 25 24  0  0  1  0  0  0  0  0999 V2000
    8.4911  -12.4759   18.1176 N   0  0  0  0  0  0  0  0  0  0  0  0
    7.7869  -13.1950   19.1355 C   0  0  0  0  0  0  0  0  0  0  0  0
    6.5038  -13.3190   19.0911 N   0  0  0  0  0  0  0  0  0  0  0  0
    8.4720  -13.7942   20.2249 N   0  0  0  0  0  0  0  0  0  0  0  0
    9.8947  -13.7110   20.3270 C   0  0  0  0  0  0  0  0  0  0  0  0
   10.6590  -14.3860   19.2366 C   0  0  0  0  0  0  0  0  0  0  0  0
   12.1465  -14.2626   19.5888 C   0  0  0  0  0  0  0  0  0  0  0  0
   12.9710  -14.9668   18.5330 C   0  0  2  0  0  0  0  0  0  0  0  0
   12.1930  -15.9605   17.8313 N   0  0  0  0  0  0  0  0  0  0  0  0
   14.1501  -15.6065   19.2099 C   0  0  0  0  0  0  0  0  0  0  0  0
   14.0931  -16.8066   19.6071 O   0  0  0  0  0  0  0  0  0  0  0  0
    5.9561  -13.8926   19.7518 N   0  0  0  0  0  0  0  0  0  0  0  0
   15.3521  -14.9104   19.4298 C   0  0  2  0  0  0  0  0  0  0  0  0
   16.4911  -15.5514   20.1344 C   0  0  0  0  0  0  0  0  0  0  0  0
   17.7215  -14.7264   19.8440 C   0  0  0  0  0  0  0  0  0  0  0  0
   19.0142  -15.3163   20.2810 C   0  0  0  0  0  0  0  0  0  0  0  0
   20.1142  -14.3661   19.9326 O   0  0  0  0  0  0  0  0  0  0  0  0
   20.8602  -13.9577   20.8424 C   0  0  0  0  0  0  0  0  0  0  0  0
   16.1367  -15.6083   21.5655 O   0  0  0  0  0  0  0  0  0  0  0  0
   16.1493  -14.5504   22.2849 O   0  0  0  0  0  0  0  0  0  0  0  0
   20.3204  -13.9361   18.6435 N   0  0  0  0  0  0  0  0  0  0  0  0
   15.7563  -16.7845   22.2726 C   0  0  0  0  0  0  0  0  0  0  0  0
   16.6885  -17.5189   23.1050 C   0  0  0  0  0  0  0  0  0  0  0  0
   16.9109  -16.8660   24.4103 O   0  0  0  0  0  0  0  0  0  0  0  0
   17.9043  -16.0994   24.5056 O   0  0  0  0  0  0  0  0  0  0  0  0
  2  3  2  0
  2  1  1  0
  4  2  1  0
  5  4  1  0
  6  5  1  0
  7  6  1  0
  8 10  1  0
  8  7  1  0
  8  9  1  1
 10 12  1  0
 11 10  2  0
 12 13  1  0
 13 14  1  6
 14 15  1  0
 16 17  2  0
 16 15  1  0
 18 13  1  0
 19 18  2  0
 20 16  1  0
 21 18  1  0
 22 21  1  0
 23 22  1  0
 24 23  2  0
 25 23  1  0
M  END
$$$$
