REG.pdb
     RDKit          3D

 25 24  0  0  1  0  0  0  0  0999 V2000
    8.5331  -11.3153   19.9300 N   0  0  0  0  0  0  0  0  0  0  0  0
    7.9946  -12.6320   20.0886 C   0  0  0  0  0  0  0  0  0  0  0  0
    7.1905  -12.9058   21.0593 N   0  0  0  0  0  0  0  0  0  0  0  0
    8.3248  -13.6785   19.1881 N   0  0  0  0  0  0  0  0  0  0  0  0
    7.5641  -14.8877   19.1639 C   0  0  0  0  0  0  0  0  0  0  0  0
    7.8099  -15.8258   20.2989 C   0  0  0  0  0  0  0  0  0  0  0  0
    9.2501  -16.3334   20.1576 C   0  0  0  0  0  0  0  0  0  0  0  0
    9.5073  -17.4050   21.1948 C   0  0  2  0  0  0  0  0  0  0  0  0
    8.4262  -18.3609   21.2457 N   0  0  0  0  0  0  0  0  0  0  0  0
    9.6768  -16.7342   22.5286 C   0  0  0  0  0  0  0  0  0  0  0  0
   10.6585  -15.9652   22.7438 O   0  0  0  0  0  0  0  0  0  0  0  0
    6.7703  -13.8354   21.2160 N   0  0  0  0  0  0  0  0  0  0  0  0
    8.7660  -16.9284   23.5823 C   0  0  1  0  0  0  0  0  0  0  0  0
    8.9972  -16.3203   24.9170 C   0  0  0  0  0  0  0  0  0  0  0  0
    7.7299  -15.5997   25.3087 C   0  0  0  0  0  0  0  0  0  0  0  0
    7.9103  -14.3695   26.1238 C   0  0  0  0  0  0  0  0  0  0  0  0
    6.5658  -13.7760   26.3959 O   0  0  0  0  0  0  0  0  0  0  0  0
    5.5516  -14.4374   26.1041 C   0  0  0  0  0  0  0  0  0  0  0  0
    9.3659  -17.4167   25.8330 O   0  0  0  0  0  0  0  0  0  0  0  0
    9.1079  -18.6336   25.5338 O   0  0  0  0  0  0  0  0  0  0  0  0
    6.4231  -12.5288   26.9554 N   0  0  0  0  0  0  0  0  0  0  0  0
   10.0202  -17.2554   27.0876 C   0  0  0  0  0  0  0  0  0  0  0  0
   10.2418  -18.3679   27.9900 C   0  0  0  0  0  0  0  0  0  0  0  0
   10.9762  -17.9670   29.2064 O   0  0  0  0  0  0  0  0  0  0  0  0
   11.3284  -16.7619   29.2920 O   0  0  0  0  0  0  0  0  0  0  0  0
  2  3  2  0
  2  1  1  0
  4  2  1  0
  5  4  1  0
  6  5  1  0
  7  6  1  0
  8 10  1  0
  8  7  1  0
  8  9  1  1
 10 12  1  0
 11 10  2  0
 12 13  1  0
 13 14  1  1
 14 15  1  0
 16 17  2  0
 16 15  1  0
 18 13  1  0
 19 18  2  0
 20 16  1  0
 21 18  1  0
 22 21  1  0
 23 22  1  0
 24 23  2  0
 25 23  1  0
M  END
$$$$
