REG.pdb
     RDKit          3D

 25 24  0  0  1  0  0  0  0  0999 V2000
    8.1488  -12.8253   18.2471 N   0  0  0  0  0  0  0  0  0  0  0  0
    8.8748  -12.6075   19.4614 C   0  0  0  0  0  0  0  0  0  0  0  0
   10.1034  -12.2157   19.4369 N   0  0  0  0  0  0  0  0  0  0  0  0
    8.2717  -12.8143   20.7297 N   0  0  0  0  0  0  0  0  0  0  0  0
    7.0191  -13.4927   20.8405 C   0  0  0  0  0  0  0  0  0  0  0  0
    7.0086  -14.9071   20.3629 C   0  0  0  0  0  0  0  0  0  0  0  0
    7.8770  -15.7152   21.3349 C   0  0  0  0  0  0  0  0  0  0  0  0
    7.8185  -17.1800   20.9593 C   0  0  2  0  0  0  0  0  0  0  0  0
    6.5324  -17.7553   21.2756 N   0  0  0  0  0  0  0  0  0  0  0  0
    8.9103  -17.8974   21.7017 C   0  0  0  0  0  0  0  0  0  0  0  0
    8.6632  -18.5045   22.7841 O   0  0  0  0  0  0  0  0  0  0  0  0
   10.6714  -12.0440   20.2814 N   0  0  0  0  0  0  0  0  0  0  0  0
   10.2363  -17.9254   21.2342 C   0  0  2  0  0  0  0  0  0  0  0  0
   11.2792  -18.7171   21.9345 C   0  0  0  0  0  0  0  0  0  0  0  0
   12.3950  -18.9634   20.9480 C   0  0  0  0  0  0  0  0  0  0  0  0
   13.4369  -19.9328   21.3781 C   0  0  0  0  0  0  0  0  0  0  0  0
   14.4828  -20.0129   20.3133 O   0  0  0  0  0  0  0  0  0  0  0  0
   14.8544  -21.1365   19.9255 C   0  0  0  0  0  0  0  0  0  0  0  0
   11.6917  -17.9375   23.1173 O   0  0  0  0  0  0  0  0  0  0  0  0
   12.3425  -16.8439   22.9853 O   0  0  0  0  0  0  0  0  0  0  0  0
   15.0392  -18.8861   19.7568 N   0  0  0  0  0  0  0  0  0  0  0  0
   11.4238  -18.2918   24.4703 C   0  0  0  0  0  0  0  0  0  0  0  0
   12.1185  -19.3765   25.1352 C   0  0  0  0  0  0  0  0  0  0  0  0
   13.4126  -18.9500   25.7037 O   0  0  0  0  0  0  0  0  0  0  0  0
   13.5103  -18.9351   26.9582 O   0  0  0  0  0  0  0  0  0  0  0  0
  2  3  2  0
  2  1  1  0
  4  2  1  0
  5  4  1  0
  6  5  1  0
  7  6  1  0
  8 10  1  0
  8  7  1  0
  8  9  1  1
 10 12  1  0
 11 10  2  0
 12 13  1  0
 13 14  1  6
 14 15  1  0
 16 17  2  0
 16 15  1  0
 18 13  1  0
 19 18  2  0
 20 16  1  0
 21 18  1  0
 22 21  1  0
 23 22  1  0
 24 23  2  0
 25 23  1  0
M  END
$$$$
