REG.pdb
     RDKit          3D

 25 24  0  0  1  0  0  0  0  0999 V2000
    9.3780  -12.4865   18.3367 N   0  0  0  0  0  0  0  0  0  0  0  0
    8.1946  -12.9428   19.0003 C   0  0  0  0  0  0  0  0  0  0  0  0
    7.7750  -12.3673   20.0756 N   0  0  0  0  0  0  0  0  0  0  0  0
    7.4443  -14.0397   18.5012 N   0  0  0  0  0  0  0  0  0  0  0  0
    7.2678  -15.2206   19.2860 C   0  0  0  0  0  0  0  0  0  0  0  0
    8.3746  -15.5321   20.2382 C   0  0  0  0  0  0  0  0  0  0  0  0
    7.9686  -16.8006   20.9985 C   0  0  0  0  0  0  0  0  0  0  0  0
    8.0073  -16.5266   22.4863 C   0  0  2  0  0  0  0  0  0  0  0  0
    8.1649  -15.1175   22.7597 N   0  0  0  0  0  0  0  0  0  0  0  0
    9.1488  -17.3056   23.0760 C   0  0  0  0  0  0  0  0  0  0  0  0
    9.1618  -18.5699   23.0243 O   0  0  0  0  0  0  0  0  0  0  0  0
    6.9823  -12.7090   20.6416 N   0  0  0  0  0  0  0  0  0  0  0  0
   10.2375  -16.6741   23.7033 C   0  0  1  0  0  0  0  0  0  0  0  0
   11.3685  -17.4636   24.2531 C   0  0  0  0  0  0  0  0  0  0  0  0
   12.6440  -16.8384   23.7421 C   0  0  0  0  0  0  0  0  0  0  0  0
   13.9066  -17.4326   24.2546 C   0  0  0  0  0  0  0  0  0  0  0  0
   15.0596  -16.7136   23.6317 O   0  0  0  0  0  0  0  0  0  0  0  0
   15.3163  -15.5558   24.0120 C   0  0  0  0  0  0  0  0  0  0  0  0
   11.2398  -17.4367   25.7228 O   0  0  0  0  0  0  0  0  0  0  0  0
   10.9073  -16.3611   26.3306 O   0  0  0  0  0  0  0  0  0  0  0  0
   15.8363  -17.2945   22.6579 N   0  0  0  0  0  0  0  0  0  0  0  0
   11.4556  -18.5472   26.5878 C   0  0  0  0  0  0  0  0  0  0  0  0
   11.2944  -18.4476   28.0249 C   0  0  0  0  0  0  0  0  0  0  0  0
   11.5195  -19.7379   28.7063 O   0  0  0  0  0  0  0  0  0  0  0  0
   11.7705  -20.7337   27.9791 O   0  0  0  0  0  0  0  0  0  0  0  0
  2  3  2  0
  2  1  1  0
  4  2  1  0
  5  4  1  0
  6  5  1  0
  7  6  1  0
  8 10  1  0
  8  7  1  0
  8  9  1  6
 10 12  1  0
 11 10  2  0
 12 13  1  0
 13 14  1  6
 14 15  1  0
 16 17  2  0
 16 15  1  0
 18 13  1  0
 19 18  2  0
 20 16  1  0
 21 18  1  0
 22 21  1  0
 23 22  1  0
 24 23  2  0
 25 23  1  0
M  END
$$$$
