REG.pdb
     RDKit          3D

 25 24  0  0  1  0  0  0  0  0999 V2000
    9.2597  -11.8186   19.5737 N   0  0  0  0  0  0  0  0  0  0  0  0
    8.4071  -12.7029   18.8387 C   0  0  0  0  0  0  0  0  0  0  0  0
    8.7313  -13.1046   17.6567 N   0  0  0  0  0  0  0  0  0  0  0  0
    7.1802  -13.1669   19.3816 N   0  0  0  0  0  0  0  0  0  0  0  0
    7.0101  -14.5419   19.7307 C   0  0  0  0  0  0  0  0  0  0  0  0
    8.2671  -15.2915   20.0256 C   0  0  0  0  0  0  0  0  0  0  0  0
    7.9484  -16.2731   21.1599 C   0  0  0  0  0  0  0  0  0  0  0  0
    8.5572  -15.7640   22.4484 C   0  0  2  0  0  0  0  0  0  0  0  0
    9.7007  -14.9194   22.1946 N   0  0  0  0  0  0  0  0  0  0  0  0
    8.9567  -16.9512   23.2784 C   0  0  0  0  0  0  0  0  0  0  0  0
    8.1012  -17.8214   23.6133 O   0  0  0  0  0  0  0  0  0  0  0  0
    8.1579  -13.7475   17.0881 N   0  0  0  0  0  0  0  0  0  0  0  0
   10.2795  -17.1454   23.7143 C   0  0  1  0  0  0  0  0  0  0  0  0
   10.6467  -18.3160   24.5507 C   0  0  0  0  0  0  0  0  0  0  0  0
   12.0018  -18.7929   24.0869 C   0  0  0  0  0  0  0  0  0  0  0  0
   12.5699  -19.9491   24.8289 C   0  0  0  0  0  0  0  0  0  0  0  0
   13.9401  -20.2282   24.3010 O   0  0  0  0  0  0  0  0  0  0  0  0
   14.8265  -19.3674   24.4576 C   0  0  0  0  0  0  0  0  0  0  0  0
   10.6226  -17.8672   25.9561 O   0  0  0  0  0  0  0  0  0  0  0  0
   11.1709  -16.7634   26.2996 O   0  0  0  0  0  0  0  0  0  0  0  0
   14.2427  -21.4017   23.6527 N   0  0  0  0  0  0  0  0  0  0  0  0
   10.0151  -18.5718   27.0343 C   0  0  0  0  0  0  0  0  0  0  0  0
   10.0151  -18.0566   28.3891 C   0  0  0  0  0  0  0  0  0  0  0  0
   11.0061  -18.7347   29.2481 O   0  0  0  0  0  0  0  0  0  0  0  0
   11.7361  -19.6037   28.7046 O   0  0  0  0  0  0  0  0  0  0  0  0
  2  3  2  0
  2  1  1  0
  4  2  1  0
  5  4  1  0
  6  5  1  0
  7  6  1  0
  8 10  1  0
  8  7  1  0
  8  9  1  6
 10 12  1  0
 11 10  2  0
 12 13  1  0
 13 14  1  6
 14 15  1  0
 16 17  2  0
 16 15  1  0
 18 13  1  0
 19 18  2  0
 20 16  1  0
 21 18  1  0
 22 21  1  0
 23 22  1  0
 24 23  2  0
 25 23  1  0
M  END
$$$$
