REG.pdb
     RDKit          3D

 25 24  0  0  1  0  0  0  0  0999 V2000
    7.5814  -12.5932   20.0778 N   0  0  0  0  0  0  0  0  0  0  0  0
    7.5967  -13.4692   18.9458 C   0  0  0  0  0  0  0  0  0  0  0  0
    7.7789  -13.0086   17.7549 N   0  0  0  0  0  0  0  0  0  0  0  0
    7.4123  -14.8690   19.0925 N   0  0  0  0  0  0  0  0  0  0  0  0
    7.5245  -15.4896   20.3746 C   0  0  0  0  0  0  0  0  0  0  0  0
    8.6875  -15.0520   21.2021 C   0  0  0  0  0  0  0  0  0  0  0  0
    9.7121  -16.1928   21.1748 C   0  0  0  0  0  0  0  0  0  0  0  0
   10.0746  -16.5741   22.5937 C   0  0  2  0  0  0  0  0  0  0  0  0
    9.1851  -15.9579   23.5498 N   0  0  0  0  0  0  0  0  0  0  0  0
   11.4927  -16.1457   22.8456 C   0  0  0  0  0  0  0  0  0  0  0  0
   11.7490  -14.9824   23.2727 O   0  0  0  0  0  0  0  0  0  0  0  0
    7.7848  -13.5935   16.9044 N   0  0  0  0  0  0  0  0  0  0  0  0
   12.5827  -17.0053   22.6207 C   0  0  2  0  0  0  0  0  0  0  0  0
   13.9801  -16.5259   22.7691 C   0  0  0  0  0  0  0  0  0  0  0  0
   14.8241  -17.7143   23.1618 C   0  0  0  0  0  0  0  0  0  0  0  0
   14.4810  -18.3509   24.4606 C   0  0  0  0  0  0  0  0  0  0  0  0
   15.4001  -19.5087   24.6820 O   0  0  0  0  0  0  0  0  0  0  0  0
   15.0484  -20.6345   24.2821 C   0  0  0  0  0  0  0  0  0  0  0  0
   14.3680  -15.9201   21.4808 O   0  0  0  0  0  0  0  0  0  0  0  0
   13.5767  -15.9573   20.4761 O   0  0  0  0  0  0  0  0  0  0  0  0
   16.6134  -19.3620   25.3108 N   0  0  0  0  0  0  0  0  0  0  0  0
   15.6009  -15.2560   21.2222 C   0  0  0  0  0  0  0  0  0  0  0  0
   15.7744  -14.3651   20.0920 C   0  0  0  0  0  0  0  0  0  0  0  0
   17.1092  -13.7347   20.0732 O   0  0  0  0  0  0  0  0  0  0  0  0
   17.8128  -13.8517   21.1100 O   0  0  0  0  0  0  0  0  0  0  0  0
  2  3  2  0
  2  1  1  0
  4  2  1  0
  5  4  1  0
  6  5  1  0
  7  6  1  0
  8 10  1  0
  8  7  1  0
  8  9  1  1
 10 12  1  0
 11 10  2  0
 12 13  1  0
 13 14  1  1
 14 15  1  0
 16 17  2  0
 16 15  1  0
 18 13  1  0
 19 18  2  0
 20 16  1  0
 21 18  1  0
 22 21  1  0
 23 22  1  0
 24 23  2  0
 25 23  1  0
M  END
$$$$
