ENH.pdb
     RDKit          3D

 28 28  0  0  1  0  0  0  0  0999 V2000
    9.1032  -13.5374   18.4712 N   0  0  0  0  0  0  0  0  0  0  0  0
    9.6940  -14.7931   18.9777 C   0  0  1  0  0  0  0  0  0  0  0  0
   11.0716  -14.4444   19.4296 C   0  0  0  0  0  0  0  0  0  0  0  0
   12.1661  -14.6737   18.4513 C   0  0  0  0  0  0  0  0  0  0  0  0
   13.4954  -14.6084   19.0702 C   0  0  0  0  0  0  0  0  0  0  0  0
   14.2900  -13.6787   18.8640 O   0  0  0  0  0  0  0  0  0  0  0  0
    8.8203  -15.2401   20.0956 C   0  0  0  0  0  0  0  0  0  0  0  0
    8.0571  -14.4122   20.6490 O   0  0  0  0  0  0  0  0  0  0  0  0
   13.8907  -15.6463   19.9372 O   0  0  0  0  0  0  0  0  0  0  0  0
    6.3466  -18.3190   23.3658 N   0  0  0  0  0  0  0  0  0  0  0  0
    6.6998  -19.0633   22.2207 C   0  0  0  0  0  0  0  0  0  0  0  0
    6.2577  -20.2218   22.0528 O   0  0  0  0  0  0  0  0  0  0  0  0
    7.5972  -18.4874   21.2008 C   0  0  0  0  0  0  0  0  0  0  0  0
    7.9899  -17.0844   21.6045 C   0  0  2  0  0  0  0  0  0  0  0  0
    8.8241  -16.5617   20.5500 N   0  0  0  0  0  0  0  0  0  0  0  0
    8.5979  -17.0119   22.9296 C   0  0  0  0  0  0  0  0  0  0  0  0
    9.8344  -17.1992   23.0473 O   0  0  0  0  0  0  0  0  0  0  0  0
    7.8172  -16.7340   24.0828 N   0  0  0  0  0  0  0  0  0  0  0  0
    8.3922  -16.4328   25.3916 C   0  0  1  0  0  0  0  0  0  0  0  0
    7.3657  -15.6723   26.2234 C   0  0  0  0  0  0  0  0  0  0  0  0
    7.2930  -14.2437   25.8342 C   0  0  0  0  0  0  0  0  0  0  0  0
    8.1278  -13.5586   24.9540 C   0  0  0  0  0  0  0  0  0  0  0  0
    7.7439  -12.2739   24.8564 N   0  0  0  0  0  0  0  0  0  0  0  0
    6.6757  -12.1432   25.6665 C   0  0  0  0  0  0  0  0  0  0  0  0
    6.4002  -13.3208   26.2556 N   0  0  0  0  0  0  0  0  0  0  0  0
    8.9060  -17.6295   26.0572 C   0  0  0  0  0  0  0  0  0  0  0  0
    8.6637  -18.7580   25.5667 O   0  0  0  0  0  0  0  0  0  0  0  0
    9.6552  -17.5736   27.2153 O   0  0  0  0  0  0  0  0  0  0  0  0
  2  1  1  1
  2  3  1  0
  4  3  1  0
  5  6  2  0
  5  4  1  0
  7 15  1  0
  7  2  1  0
  8  7  2  0
  9  5  1  0
 11 10  1  0
 12 11  2  0
 14 13  1  6
 13 11  1  0
 14 15  1  0
 16 14  1  0
 17 16  2  0
 18 16  1  0
 19 20  1  1
 19 18  1  0
 20 21  1  0
 21 22  2  0
 22 23  1  0
 24 23  1  0
 25 21  1  0
 25 24  2  0
 26 19  1  0
 27 26  2  0
 28 26  1  0
M  END
$$$$
