ENH.pdb
     RDKit          3D

 28 28  0  0  1  0  0  0  0  0999 V2000
    8.4943  -20.6167   16.2199 N   0  0  0  0  0  0  0  0  0  0  0  0
    9.4471  -21.4075   17.0256 C   0  0  1  0  0  0  0  0  0  0  0  0
   10.8003  -21.0953   16.4825 C   0  0  0  0  0  0  0  0  0  0  0  0
   11.0036  -21.3432   15.0317 C   0  0  0  0  0  0  0  0  0  0  0  0
   12.4019  -21.1660   14.6221 C   0  0  0  0  0  0  0  0  0  0  0  0
   13.3446  -21.1593   15.4280 O   0  0  0  0  0  0  0  0  0  0  0  0
    9.2757  -20.9540   18.4320 C   0  0  0  0  0  0  0  0  0  0  0  0
    9.1226  -19.7317   18.6701 O   0  0  0  0  0  0  0  0  0  0  0  0
   12.6904  -20.9949   13.2537 O   0  0  0  0  0  0  0  0  0  0  0  0
    7.3373  -24.0098   22.4497 N   0  0  0  0  0  0  0  0  0  0  0  0
    7.5196  -23.2794   21.2567 C   0  0  0  0  0  0  0  0  0  0  0  0
    7.5080  -23.8582   20.1475 O   0  0  0  0  0  0  0  0  0  0  0  0
    7.7270  -21.8190   21.2972 C   0  0  0  0  0  0  0  0  0  0  0  0
    9.1478  -21.4969   20.8930 C   0  0  2  0  0  0  0  0  0  0  0  0
    9.2799  -21.8536   19.5014 N   0  0  0  0  0  0  0  0  0  0  0  0
   10.1496  -22.1122   21.7583 C   0  0  0  0  0  0  0  0  0  0  0  0
   10.5438  -23.2779   21.5062 O   0  0  0  0  0  0  0  0  0  0  0  0
   10.6834  -21.4169   22.8755 N   0  0  0  0  0  0  0  0  0  0  0  0
   11.6948  -21.9799   23.7666 C   0  0  1  0  0  0  0  0  0  0  0  0
   12.8617  -21.0047   23.8747 C   0  0  0  0  0  0  0  0  0  0  0  0
   13.7203  -21.0394   22.6667 C   0  0  0  0  0  0  0  0  0  0  0  0
   13.5659  -21.8392   21.5364 C   0  0  0  0  0  0  0  0  0  0  0  0
   14.5443  -21.5834   20.6506 N   0  0  0  0  0  0  0  0  0  0  0  0
   15.3133  -20.6304   21.2119 C   0  0  0  0  0  0  0  0  0  0  0  0
   14.8244  -20.2999   22.4208 N   0  0  0  0  0  0  0  0  0  0  0  0
   11.1367  -22.3620   25.0633 C   0  0  0  0  0  0  0  0  0  0  0  0
    9.9549  -22.0474   25.3409 O   0  0  0  0  0  0  0  0  0  0  0  0
   11.8598  -23.0624   26.0079 O   0  0  0  0  0  0  0  0  0  0  0  0
  2  1  1  6
  2  3  1  0
  4  3  1  0
  5  6  2  0
  5  4  1  0
  7 15  1  0
  7  2  1  0
  8  7  2  0
  9  5  1  0
 11 10  1  0
 12 11  2  0
 14 13  1  1
 13 11  1  0
 14 15  1  0
 16 14  1  0
 17 16  2  0
 18 16  1  0
 19 20  1  1
 19 18  1  0
 20 21  1  0
 21 22  2  0
 22 23  1  0
 24 23  1  0
 25 21  1  0
 25 24  2  0
 26 19  1  0
 27 26  2  0
 28 26  1  0
M  END
$$$$
