ENH.pdb
     RDKit          3D

 28 28  0  0  1  0  0  0  0  0999 V2000
   14.9501  -14.1916   15.4944 N   0  0  0  0  0  0  0  0  0  0  0  0
   14.7583  -15.2188   16.5387 C   0  0  1  0  0  0  0  0  0  0  0  0
   16.1266  -15.6566   16.9384 C   0  0  0  0  0  0  0  0  0  0  0  0
   17.0369  -14.5984   17.4475 C   0  0  0  0  0  0  0  0  0  0  0  0
   18.3694  -15.1161   17.7801 C   0  0  0  0  0  0  0  0  0  0  0  0
   19.3395  -15.0231   17.0129 O   0  0  0  0  0  0  0  0  0  0  0  0
   14.0243  -14.5505   17.6466 C   0  0  0  0  0  0  0  0  0  0  0  0
   14.6623  -13.8670   18.4833 O   0  0  0  0  0  0  0  0  0  0  0  0
   18.5593  -15.7481   19.0249 O   0  0  0  0  0  0  0  0  0  0  0  0
    9.5643  -16.3454   17.8495 N   0  0  0  0  0  0  0  0  0  0  0  0
   10.6284  -17.2688   17.7786 C   0  0  0  0  0  0  0  0  0  0  0  0
   10.4449  -18.4178   17.3182 O   0  0  0  0  0  0  0  0  0  0  0  0
   11.9768  -16.8947   18.2464 C   0  0  0  0  0  0  0  0  0  0  0  0
   11.9585  -15.4740   18.7634 C   0  0  2  0  0  0  0  0  0  0  0  0
   12.6380  -14.6616   17.7839 N   0  0  0  0  0  0  0  0  0  0  0  0
   12.4948  -15.3426   20.1146 C   0  0  0  0  0  0  0  0  0  0  0  0
   13.5647  -15.9314   20.4089 O   0  0  0  0  0  0  0  0  0  0  0  0
   11.8295  -14.5630   21.0975 N   0  0  0  0  0  0  0  0  0  0  0  0
   11.2597  -15.1233   22.3203 C   0  0  1  0  0  0  0  0  0  0  0  0
    9.9376  -15.8052   21.9867 C   0  0  0  0  0  0  0  0  0  0  0  0
    9.0120  -14.8909   21.2760 C   0  0  0  0  0  0  0  0  0  0  0  0
    9.2235  -13.5538   20.9470 C   0  0  0  0  0  0  0  0  0  0  0  0
    8.1519  -13.0602   20.3024 N   0  0  0  0  0  0  0  0  0  0  0  0
    7.2678  -14.0732   20.2222 C   0  0  0  0  0  0  0  0  0  0  0  0
    7.7775  -15.1738   20.8041 N   0  0  0  0  0  0  0  0  0  0  0  0
   12.2023  -15.9966   23.0186 C   0  0  0  0  0  0  0  0  0  0  0  0
   13.1806  -15.4908   23.6187 O   0  0  0  0  0  0  0  0  0  0  0  0
   12.0632  -17.3697   23.0485 O   0  0  0  0  0  0  0  0  0  0  0  0
  2  1  1  6
  2  3  1  0
  4  3  1  0
  5  6  2  0
  5  4  1  0
  7 15  1  0
  7  2  1  0
  8  7  2  0
  9  5  1  0
 11 10  1  0
 12 11  2  0
 14 13  1  6
 13 11  1  0
 14 15  1  0
 16 14  1  0
 17 16  2  0
 18 16  1  0
 19 20  1  6
 19 18  1  0
 20 21  1  0
 21 22  2  0
 22 23  1  0
 24 23  1  0
 25 21  1  0
 25 24  2  0
 26 19  1  0
 27 26  2  0
 28 26  1  0
M  END
$$$$
