ENH.pdb
     RDKit          3D

 28 28  0  0  1  0  0  0  0  0999 V2000
   13.1231  -15.0113   16.2063 N   0  0  0  0  0  0  0  0  0  0  0  0
   11.9598  -15.8053   16.6520 C   0  0  1  0  0  0  0  0  0  0  0  0
   12.4475  -17.2084   16.7823 C   0  0  0  0  0  0  0  0  0  0  0  0
   13.7028  -17.4030   17.5531 C   0  0  0  0  0  0  0  0  0  0  0  0
   14.1382  -18.8045   17.5730 C   0  0  0  0  0  0  0  0  0  0  0  0
   15.2354  -19.1631   18.0266 O   0  0  0  0  0  0  0  0  0  0  0  0
   11.5356  -15.2231   17.9535 C   0  0  0  0  0  0  0  0  0  0  0  0
   12.3925  -14.6850   18.6955 O   0  0  0  0  0  0  0  0  0  0  0  0
   13.2747  -19.7895   17.0540 O   0  0  0  0  0  0  0  0  0  0  0  0
    8.0725  -12.0559   19.0529 N   0  0  0  0  0  0  0  0  0  0  0  0
    8.0623  -13.3823   18.5726 C   0  0  0  0  0  0  0  0  0  0  0  0
    7.8960  -13.6174   17.3550 O   0  0  0  0  0  0  0  0  0  0  0  0
    8.2480  -14.5154   19.4992 C   0  0  0  0  0  0  0  0  0  0  0  0
    9.7235  -14.8038   19.6589 C   0  0  2  0  0  0  0  0  0  0  0  0
   10.2041  -15.2575   18.3766 N   0  0  0  0  0  0  0  0  0  0  0  0
   10.0192  -15.7180   20.7578 C   0  0  0  0  0  0  0  0  0  0  0  0
    9.7251  -16.9335   20.6394 O   0  0  0  0  0  0  0  0  0  0  0  0
   10.6316  -15.2573   21.9533 N   0  0  0  0  0  0  0  0  0  0  0  0
   10.9527  -16.1282   23.0814 C   0  0  1  0  0  0  0  0  0  0  0  0
   12.1988  -15.5975   23.7813 C   0  0  0  0  0  0  0  0  0  0  0  0
   13.4004  -15.7047   22.9197 C   0  0  0  0  0  0  0  0  0  0  0  0
   13.4799  -16.2336   21.6333 C   0  0  0  0  0  0  0  0  0  0  0  0
   14.7419  -16.1545   21.1769 N   0  0  0  0  0  0  0  0  0  0  0  0
   15.4580  -15.5810   22.1631 C   0  0  0  0  0  0  0  0  0  0  0  0
   14.6593  -15.3087   23.2109 N   0  0  0  0  0  0  0  0  0  0  0  0
    9.8142  -16.3074   23.9817 C   0  0  0  0  0  0  0  0  0  0  0  0
    8.7975  -15.5872   23.8384 O   0  0  0  0  0  0  0  0  0  0  0  0
    9.8066  -17.2450   24.9949 O   0  0  0  0  0  0  0  0  0  0  0  0
  2  1  1  1
  2  3  1  0
  4  3  1  0
  5  6  2  0
  5  4  1  0
  7 15  1  0
  7  2  1  0
  8  7  2  0
  9  5  1  0
 11 10  1  0
 12 11  2  0
 14 13  1  6
 13 11  1  0
 14 15  1  0
 16 14  1  0
 17 16  2  0
 18 16  1  0
 19 20  1  1
 19 18  1  0
 20 21  1  0
 21 22  2  0
 22 23  1  0
 24 23  1  0
 25 21  1  0
 25 24  2  0
 26 19  1  0
 27 26  2  0
 28 26  1  0
M  END
$$$$
