ENH.pdb
     RDKit          3D

 28 28  0  0  1  0  0  0  0  0999 V2000
   11.0213  -18.6297   18.7104 N   0  0  0  0  0  0  0  0  0  0  0  0
   11.2556  -17.3053   18.0994 C   0  0  1  0  0  0  0  0  0  0  0  0
   10.7689  -17.4110   16.6938 C   0  0  0  0  0  0  0  0  0  0  0  0
    9.3468  -17.8020   16.5144 C   0  0  0  0  0  0  0  0  0  0  0  0
    8.9407  -17.8123   15.1039 C   0  0  0  0  0  0  0  0  0  0  0  0
    9.7124  -17.5194   14.1783 O   0  0  0  0  0  0  0  0  0  0  0  0
   10.4702  -16.3328   18.9059 C   0  0  0  0  0  0  0  0  0  0  0  0
   10.5721  -15.1064   18.6614 O   0  0  0  0  0  0  0  0  0  0  0  0
    7.6162  -18.1694   14.7830 O   0  0  0  0  0  0  0  0  0  0  0  0
    7.0576  -15.6528   18.6577 N   0  0  0  0  0  0  0  0  0  0  0  0
    6.6067  -16.4049   19.7627 C   0  0  0  0  0  0  0  0  0  0  0  0
    5.4665  -16.9202   19.7597 O   0  0  0  0  0  0  0  0  0  0  0  0
    7.4733  -16.5969   20.9414 C   0  0  0  0  0  0  0  0  0  0  0  0
    8.7858  -15.8773   20.7288 C   0  0  2  0  0  0  0  0  0  0  0  0
    9.6175  -16.7467   19.9328 N   0  0  0  0  0  0  0  0  0  0  0  0
    9.4119  -15.4357   21.9713 C   0  0  0  0  0  0  0  0  0  0  0  0
    8.7444  -14.7467   22.7823 O   0  0  0  0  0  0  0  0  0  0  0  0
   10.7575  -15.7712   22.2766 N   0  0  0  0  0  0  0  0  0  0  0  0
   11.2128  -16.1367   23.6158 C   0  0  1  0  0  0  0  0  0  0  0  0
   10.4907  -17.4042   24.0586 C   0  0  0  0  0  0  0  0  0  0  0  0
    9.3030  -17.0974   24.8910 C   0  0  0  0  0  0  0  0  0  0  0  0
    8.7497  -15.8464   25.1548 C   0  0  0  0  0  0  0  0  0  0  0  0
    7.6747  -15.9739   25.9520 N   0  0  0  0  0  0  0  0  0  0  0  0
    7.5456  -17.2929   26.1928 C   0  0  0  0  0  0  0  0  0  0  0  0
    8.5189  -17.9721   25.5593 N   0  0  0  0  0  0  0  0  0  0  0  0
   12.6694  -16.2419   23.6938 C   0  0  0  0  0  0  0  0  0  0  0  0
   13.3320  -16.3982   22.6405 O   0  0  0  0  0  0  0  0  0  0  0  0
   13.3577  -16.1761   24.8886 O   0  0  0  0  0  0  0  0  0  0  0  0
  2  1  1  1
  2  3  1  0
  4  3  1  0
  5  6  2  0
  5  4  1  0
  7 15  1  0
  7  2  1  0
  8  7  2  0
  9  5  1  0
 11 10  1  0
 12 11  2  0
 14 13  1  1
 13 11  1  0
 14 15  1  0
 16 14  1  0
 17 16  2  0
 18 16  1  0
 19 20  1  6
 19 18  1  0
 20 21  1  0
 21 22  2  0
 22 23  1  0
 24 23  1  0
 25 21  1  0
 25 24  2  0
 26 19  1  0
 27 26  2  0
 28 26  1  0
M  END
$$$$
