ENH.pdb
     RDKit          3D

 28 28  0  0  1  0  0  0  0  0999 V2000
   11.6649  -16.0229   16.0333 N   0  0  0  0  0  0  0  0  0  0  0  0
   10.2338  -15.6601   16.0846 C   0  0  1  0  0  0  0  0  0  0  0  0
    9.6338  -16.1810   14.8228 C   0  0  0  0  0  0  0  0  0  0  0  0
   10.5557  -16.8841   13.8936 C   0  0  0  0  0  0  0  0  0  0  0  0
    9.8954  -17.2893   12.6469 C   0  0  0  0  0  0  0  0  0  0  0  0
    8.6625  -17.3469   12.5250 O   0  0  0  0  0  0  0  0  0  0  0  0
    9.6823  -16.3223   17.2972 C   0  0  0  0  0  0  0  0  0  0  0  0
    8.7051  -17.1009   17.1824 O   0  0  0  0  0  0  0  0  0  0  0  0
   10.6939  -17.6293   11.5371 O   0  0  0  0  0  0  0  0  0  0  0  0
   12.5591  -18.9997   20.3829 N   0  0  0  0  0  0  0  0  0  0  0  0
   12.9007  -18.5777   19.0808 C   0  0  0  0  0  0  0  0  0  0  0  0
   13.8940  -19.0624   18.4943 O   0  0  0  0  0  0  0  0  0  0  0  0
   12.0912  -17.5568   18.3882 C   0  0  0  0  0  0  0  0  0  0  0  0
   11.0091  -17.0522   19.3157 C   0  0  2  0  0  0  0  0  0  0  0  0
   10.2231  -16.1021   18.5668 N   0  0  0  0  0  0  0  0  0  0  0  0
   11.5252  -16.5283   20.5766 C   0  0  0  0  0  0  0  0  0  0  0  0
   12.3136  -17.2322   21.2555 O   0  0  0  0  0  0  0  0  0  0  0  0
   11.1522  -15.2411   21.0460 N   0  0  0  0  0  0  0  0  0  0  0  0
   10.4409  -15.0164   22.3021 C   0  0  1  0  0  0  0  0  0  0  0  0
    8.9480  -15.2238   22.0731 C   0  0  0  0  0  0  0  0  0  0  0  0
    8.4259  -14.3308   21.0111 C   0  0  0  0  0  0  0  0  0  0  0  0
    9.1318  -13.3813   20.2755 C   0  0  0  0  0  0  0  0  0  0  0  0
    8.3131  -12.7694   19.4021 N   0  0  0  0  0  0  0  0  0  0  0  0
    7.0987  -13.3242   19.5805 C   0  0  0  0  0  0  0  0  0  0  0  0
    7.1597  -14.2612   20.5438 N   0  0  0  0  0  0  0  0  0  0  0  0
   10.9783  -15.8283   23.3934 C   0  0  0  0  0  0  0  0  0  0  0  0
   11.6780  -16.8339   23.1249 O   0  0  0  0  0  0  0  0  0  0  0  0
   10.7482  -15.5351   24.7225 O   0  0  0  0  0  0  0  0  0  0  0  0
  2  1  1  6
  2  3  1  0
  4  3  1  0
  5  6  2  0
  5  4  1  0
  7 15  1  0
  7  2  1  0
  8  7  2  0
  9  5  1  0
 11 10  1  0
 12 11  2  0
 14 13  1  6
 13 11  1  0
 14 15  1  0
 16 14  1  0
 17 16  2  0
 18 16  1  0
 19 20  1  6
 19 18  1  0
 20 21  1  0
 21 22  2  0
 22 23  1  0
 24 23  1  0
 25 21  1  0
 25 24  2  0
 26 19  1  0
 27 26  2  0
 28 26  1  0
M  END
$$$$
