DRQ.pdb
     RDKit          3D

 29 28  0  0  1  0  0  0  0  0999 V2000
   18.4512  -23.8406  -12.8594 N   0  0  0  0  0  0  0  0  0  0  0  0
   18.1160  -22.4832  -12.5576 C   0  0  1  0  0  0  0  0  0  0  0  0
   17.8427  -22.2970  -11.0560 C   0  0  0  0  0  0  0  0  0  0  0  0
   16.5841  -22.9439  -10.6698 C   0  0  0  0  0  0  0  0  0  0  0  0
   15.8436  -23.5019  -11.4977 O   0  0  0  0  0  0  0  0  0  0  0  0
   19.1849  -21.5166  -12.8932 C   0  0  0  0  0  0  0  0  0  0  0  0
   19.1234  -20.3746  -12.3900 O   0  0  0  0  0  0  0  0  0  0  0  0
   16.2564  -22.9021   -9.3131 O   0  0  0  0  0  0  0  0  0  0  0  0
   27.1656  -23.1801  -16.2450 N   0  0  0  0  0  0  0  0  0  0  0  0
   27.0450  -21.7639  -16.1931 C   0  0  0  0  0  0  0  0  0  0  0  0
   28.0309  -21.0073  -16.5623 N   0  0  0  0  0  0  0  0  0  0  0  0
   25.8492  -21.1024  -15.7362 N   0  0  0  0  0  0  0  0  0  0  0  0
   24.6954  -21.8694  -15.3722 C   0  0  0  0  0  0  0  0  0  0  0  0
   23.6219  -20.8557  -14.9017 C   0  0  0  0  0  0  0  0  0  0  0  0
   22.4553  -21.6752  -14.4878 C   0  0  0  0  0  0  0  0  0  0  0  0
   21.2538  -20.8877  -14.0516 C   0  0  2  0  0  0  0  0  0  0  0  0
   20.2318  -21.8785  -13.7482 N   0  0  0  0  0  0  0  0  0  0  0  0
   20.8038  -20.0310  -15.1885 C   0  0  0  0  0  0  0  0  0  0  0  0
   20.1805  -20.5923  -16.1017 O   0  0  0  0  0  0  0  0  0  0  0  0
   27.9059  -19.9840  -16.4850 N   0  0  0  0  0  0  0  0  0  0  0  0
   17.8002  -14.7242  -15.0491 C   0  0  0  0  0  0  0  0  0  0  0  0
   17.3641  -15.8235  -15.8233 O   0  0  0  0  0  0  0  0  0  0  0  0
   16.1443  -15.8901  -16.2168 C   0  0  0  0  0  0  0  0  0  0  0  0
   18.2739  -16.8984  -16.2004 C   0  0  0  0  0  0  0  0  0  0  0  0
   19.6823  -16.7780  -15.7368 C   0  0  2  0  0  0  0  0  0  0  0  0
   20.5982  -17.8004  -16.2602 N   0  0  0  0  0  0  0  0  0  0  0  0
   21.0975  -18.6512  -15.1795 C   0  0  0  0  0  0  0  0  0  0  0  0
   21.7188  -17.4497  -17.1166 O   0  0  0  0  0  0  0  0  0  0  0  0
   21.5011  -17.0718  -18.4578 O   0  0  0  0  0  0  0  0  0  0  0  0
  2  3  1  0
  2  1  1  1
  4  8  1  0
  4  3  1  0
  5  4  2  0
  6  2  1  0
  7  6  2  0
 10  9  1  0
 10 12  1  0
 11 10  2  0
 13 12  1  0
 13 14  1  0
 15 14  1  0
 16 15  1  6
 16 17  1  0
 17  6  1  0
 18 19  2  0
 18 16  1  0
 21 22  2  0
 21 20  1  0
 23 21  1  0
 24 23  1  0
 25 24  1  6
 25 26  1  0
 26 18  1  0
 27 28  1  0
 27 25  1  0
 29 27  2  0
M  END
$$$$
