DRQ.pdb
     RDKit          3D

 29 28  0  0  1  0  0  0  0  0999 V2000
   21.0539  -20.0637  -14.5797 N   0  0  0  0  0  0  0  0  0  0  0  0
   20.7231  -18.6815  -14.7411 C   0  0  1  0  0  0  0  0  0  0  0  0
   19.9863  -18.1367  -13.5064 C   0  0  0  0  0  0  0  0  0  0  0  0
   18.8578  -19.0023  -13.1471 C   0  0  0  0  0  0  0  0  0  0  0  0
   18.5897  -20.0391  -13.7782 O   0  0  0  0  0  0  0  0  0  0  0  0
   21.9005  -17.8043  -14.9244 C   0  0  0  0  0  0  0  0  0  0  0  0
   21.7132  -16.5695  -14.9610 O   0  0  0  0  0  0  0  0  0  0  0  0
   18.0929  -18.6005  -12.0502 O   0  0  0  0  0  0  0  0  0  0  0  0
   29.1918  -19.9830  -17.4557 N   0  0  0  0  0  0  0  0  0  0  0  0
   28.3049  -20.3718  -16.4139 C   0  0  0  0  0  0  0  0  0  0  0  0
   28.0572  -21.6257  -16.1968 N   0  0  0  0  0  0  0  0  0  0  0  0
   27.6439  -19.4178  -15.5601 N   0  0  0  0  0  0  0  0  0  0  0  0
   27.6145  -18.0307  -15.9163 C   0  0  0  0  0  0  0  0  0  0  0  0
   26.7549  -17.3171  -14.8423 C   0  0  0  0  0  0  0  0  0  0  0  0
   25.5031  -18.1089  -14.7441 C   0  0  0  0  0  0  0  0  0  0  0  0
   24.2922  -17.4517  -15.3407 C   0  0  2  0  0  0  0  0  0  0  0  0
   23.1835  -18.3487  -15.0506 N   0  0  0  0  0  0  0  0  0  0  0  0
   24.4827  -17.3469  -16.8178 C   0  0  0  0  0  0  0  0  0  0  0  0
   24.0610  -18.2879  -17.5062 O   0  0  0  0  0  0  0  0  0  0  0  0
   27.3438  -21.8580  -15.4856 N   0  0  0  0  0  0  0  0  0  0  0  0
   20.3337  -15.4850  -18.9691 C   0  0  0  0  0  0  0  0  0  0  0  0
   21.1545  -14.9772  -20.0019 O   0  0  0  0  0  0  0  0  0  0  0  0
   20.6244  -14.4773  -21.0584 C   0  0  0  0  0  0  0  0  0  0  0  0
   22.6086  -14.9981  -19.8992 C   0  0  0  0  0  0  0  0  0  0  0  0
   23.1848  -15.5978  -18.6656 C   0  0  1  0  0  0  0  0  0  0  0  0
   24.6521  -15.6596  -18.6319 N   0  0  0  0  0  0  0  0  0  0  0  0
   25.1188  -16.2098  -17.3589 C   0  0  0  0  0  0  0  0  0  0  0  0
   25.4688  -14.5009  -18.9524 O   0  0  0  0  0  0  0  0  0  0  0  0
   26.1648  -14.4351  -20.1772 O   0  0  0  0  0  0  0  0  0  0  0  0
  2  3  1  0
  2  1  1  1
  4  8  1  0
  4  3  1  0
  5  4  2  0
  6  2  1  0
  7  6  2  0
 10  9  1  0
 10 12  1  0
 11 10  2  0
 13 12  1  0
 13 14  1  0
 15 14  1  0
 16 15  1  1
 16 17  1  0
 17  6  1  0
 18 19  2  0
 18 16  1  0
 21 22  2  0
 21 20  1  0
 23 21  1  0
 24 23  1  0
 25 24  1  6
 25 26  1  0
 26 18  1  0
 27 28  1  0
 27 25  1  0
 29 27  2  0
M  END
$$$$
