DRQ.pdb
     RDKit          3D

 29 28  0  0  1  0  0  0  0  0999 V2000
   26.5472  -23.0166  -15.9228 N   0  0  0  0  0  0  0  0  0  0  0  0
   26.6214  -21.8557  -15.0906 C   0  0  1  0  0  0  0  0  0  0  0  0
   26.2356  -20.5866  -15.8684 C   0  0  0  0  0  0  0  0  0  0  0  0
   27.2194  -20.2971  -16.9173 C   0  0  0  0  0  0  0  0  0  0  0  0
   28.4254  -20.5700  -16.7892 O   0  0  0  0  0  0  0  0  0  0  0  0
   25.7145  -21.9008  -13.9224 C   0  0  0  0  0  0  0  0  0  0  0  0
   24.6523  -22.5503  -14.0279 O   0  0  0  0  0  0  0  0  0  0  0  0
   26.7294  -19.6949  -18.0778 O   0  0  0  0  0  0  0  0  0  0  0  0
   30.4056  -20.7525   -8.0669 N   0  0  0  0  0  0  0  0  0  0  0  0
   30.1078  -21.3758   -9.3101 C   0  0  0  0  0  0  0  0  0  0  0  0
   31.0572  -21.8768  -10.0371 N   0  0  0  0  0  0  0  0  0  0  0  0
   28.7658  -21.4829   -9.8236 N   0  0  0  0  0  0  0  0  0  0  0  0
   27.6629  -20.9618   -9.0725 C   0  0  0  0  0  0  0  0  0  0  0  0
   26.3851  -21.6241   -9.6472 C   0  0  0  0  0  0  0  0  0  0  0  0
   25.7464  -20.5867  -10.4954 C   0  0  0  0  0  0  0  0  0  0  0  0
   25.0268  -21.1141  -11.7030 C   0  0  2  0  0  0  0  0  0  0  0  0
   26.0441  -21.2348  -12.7367 N   0  0  0  0  0  0  0  0  0  0  0  0
   23.9984  -20.1160  -12.1217 C   0  0  0  0  0  0  0  0  0  0  0  0
   24.3602  -19.2382  -12.9191 O   0  0  0  0  0  0  0  0  0  0  0  0
   30.7981  -22.2825  -10.9520 N   0  0  0  0  0  0  0  0  0  0  0  0
   22.0207  -23.0467  -15.7906 C   0  0  0  0  0  0  0  0  0  0  0  0
   20.8092  -22.3380  -15.6231 O   0  0  0  0  0  0  0  0  0  0  0  0
   19.8215  -22.5559  -16.4132 C   0  0  0  0  0  0  0  0  0  0  0  0
   20.6420  -21.3559  -14.5588 C   0  0  0  0  0  0  0  0  0  0  0  0
   21.7840  -21.1826  -13.6212 C   0  0  1  0  0  0  0  0  0  0  0  0
   21.5512  -20.2293  -12.5281 N   0  0  0  0  0  0  0  0  0  0  0  0
   22.6881  -20.2087  -11.6072 C   0  0  0  0  0  0  0  0  0  0  0  0
   20.3298  -20.2594  -11.7410 O   0  0  0  0  0  0  0  0  0  0  0  0
   20.3020  -20.9126  -10.4915 O   0  0  0  0  0  0  0  0  0  0  0  0
  2  3  1  0
  2  1  1  6
  4  8  1  0
  4  3  1  0
  5  4  2  0
  6  2  1  0
  7  6  2  0
 10  9  1  0
 10 12  1  0
 11 10  2  0
 13 12  1  0
 13 14  1  0
 15 14  1  0
 16 15  1  1
 16 17  1  0
 17  6  1  0
 18 19  2  0
 18 16  1  0
 21 22  2  0
 21 20  1  0
 23 21  1  0
 24 23  1  0
 25 24  1  6
 25 26  1  0
 26 18  1  0
 27 28  1  0
 27 25  1  0
 29 27  2  0
M  END
$$$$
