DRQ.pdb
     RDKit          3D

 29 28  0  0  1  0  0  0  0  0999 V2000
   20.6387  -20.4507  -14.8948 N   0  0  0  0  0  0  0  0  0  0  0  0
   20.2762  -19.2002  -15.4872 C   0  0  1  0  0  0  0  0  0  0  0  0
   19.2848  -18.4295  -14.5999 C   0  0  0  0  0  0  0  0  0  0  0  0
   18.1392  -19.2727  -14.2416 C   0  0  0  0  0  0  0  0  0  0  0  0
   18.1015  -20.4871  -14.5044 O   0  0  0  0  0  0  0  0  0  0  0  0
   21.4206  -18.2861  -15.6970 C   0  0  0  0  0  0  0  0  0  0  0  0
   21.1898  -17.1571  -16.1802 O   0  0  0  0  0  0  0  0  0  0  0  0
   17.0837  -18.6379  -13.5840 O   0  0  0  0  0  0  0  0  0  0  0  0
   26.4319  -20.6625  -12.7138 N   0  0  0  0  0  0  0  0  0  0  0  0
   27.1581  -20.6918  -13.9364 C   0  0  0  0  0  0  0  0  0  0  0  0
   27.4934  -21.8231  -14.4735 N   0  0  0  0  0  0  0  0  0  0  0  0
   27.5562  -19.4945  -14.6323 N   0  0  0  0  0  0  0  0  0  0  0  0
   27.2698  -18.2070  -14.0735 C   0  0  0  0  0  0  0  0  0  0  0  0
   26.2463  -17.5321  -15.0214 C   0  0  0  0  0  0  0  0  0  0  0  0
   24.9791  -18.2833  -14.8383 C   0  0  0  0  0  0  0  0  0  0  0  0
   23.8163  -17.7626  -15.6327 C   0  0  2  0  0  0  0  0  0  0  0  0
   22.7202  -18.6804  -15.3600 N   0  0  0  0  0  0  0  0  0  0  0  0
   24.1664  -17.8120  -17.0832 C   0  0  0  0  0  0  0  0  0  0  0  0
   24.0294  -18.9027  -17.6568 O   0  0  0  0  0  0  0  0  0  0  0  0
   28.0173  -21.7950  -15.3643 N   0  0  0  0  0  0  0  0  0  0  0  0
   20.4857  -17.5457  -20.5635 C   0  0  0  0  0  0  0  0  0  0  0  0
   21.4664  -17.0887  -21.4732 O   0  0  0  0  0  0  0  0  0  0  0  0
   21.1764  -16.9479  -22.7155 C   0  0  0  0  0  0  0  0  0  0  0  0
   22.8177  -16.7606  -21.0353 C   0  0  0  0  0  0  0  0  0  0  0  0
   23.1027  -16.8966  -19.5815 C   0  0  1  0  0  0  0  0  0  0  0  0
   24.4596  -16.5068  -19.1753 N   0  0  0  0  0  0  0  0  0  0  0  0
   24.6276  -16.6453  -17.7284 C   0  0  0  0  0  0  0  0  0  0  0  0
   25.0382  -15.2366  -19.5801 O   0  0  0  0  0  0  0  0  0  0  0  0
   25.4376  -15.0278  -20.9164 O   0  0  0  0  0  0  0  0  0  0  0  0
  2  3  1  0
  2  1  1  1
  4  8  1  0
  4  3  1  0
  5  4  2  0
  6  2  1  0
  7  6  2  0
 10  9  1  0
 10 12  1  0
 11 10  2  0
 13 12  1  0
 13 14  1  0
 15 14  1  0
 16 15  1  1
 16 17  1  0
 17  6  1  0
 18 19  2  0
 18 16  1  0
 21 22  2  0
 21 20  1  0
 23 21  1  0
 24 23  1  0
 25 24  1  6
 25 26  1  0
 26 18  1  0
 27 28  1  0
 27 25  1  0
 29 27  2  0
M  END
$$$$
