DRQ.pdb
     RDKit          3D

 29 28  0  0  1  0  0  0  0  0999 V2000
   16.6689  -12.5456  -16.4317 N   0  0  0  0  0  0  0  0  0  0  0  0
   16.6662  -12.1626  -15.0536 C   0  0  1  0  0  0  0  0  0  0  0  0
   16.5582  -13.3902  -14.1340 C   0  0  0  0  0  0  0  0  0  0  0  0
   15.2604  -14.0539  -14.2984 C   0  0  0  0  0  0  0  0  0  0  0  0
   15.1581  -15.2093  -14.7454 O   0  0  0  0  0  0  0  0  0  0  0  0
   17.8926  -11.4514  -14.6301 C   0  0  0  0  0  0  0  0  0  0  0  0
   18.1757  -11.4418  -13.4131 O   0  0  0  0  0  0  0  0  0  0  0  0
   14.1352  -13.3169  -13.9237 O   0  0  0  0  0  0  0  0  0  0  0  0
   25.6442  -12.1079  -16.1041 N   0  0  0  0  0  0  0  0  0  0  0  0
   25.6502  -10.6955  -15.9376 C   0  0  0  0  0  0  0  0  0  0  0  0
   26.7706  -10.0522  -15.8292 N   0  0  0  0  0  0  0  0  0  0  0  0
   24.4403   -9.9150  -15.8790 N   0  0  0  0  0  0  0  0  0  0  0  0
   23.1769  -10.5204  -16.1779 C   0  0  0  0  0  0  0  0  0  0  0  0
   22.1146   -9.3963  -16.0806 C   0  0  0  0  0  0  0  0  0  0  0  0
   20.8087  -10.0617  -16.3161 C   0  0  0  0  0  0  0  0  0  0  0  0
   19.9246  -10.1625  -15.1067 C   0  0  2  0  0  0  0  0  0  0  0  0
   18.7078  -10.8121  -15.5708 N   0  0  0  0  0  0  0  0  0  0  0  0
   19.6091   -8.7840  -14.6277 C   0  0  0  0  0  0  0  0  0  0  0  0
   18.8668   -8.0969  -15.3447 O   0  0  0  0  0  0  0  0  0  0  0  0
   26.7264   -9.0237  -15.7344 N   0  0  0  0  0  0  0  0  0  0  0  0
   17.1148   -7.0821   -9.5723 C   0  0  0  0  0  0  0  0  0  0  0  0
   16.6449   -6.7762  -10.8699 O   0  0  0  0  0  0  0  0  0  0  0  0
   15.3932   -6.5754  -11.0705 C   0  0  0  0  0  0  0  0  0  0  0  0
   17.5541   -6.6736  -12.0048 C   0  0  0  0  0  0  0  0  0  0  0  0
   18.9790   -7.0211  -11.7556 C   0  0  2  0  0  0  0  0  0  0  0  0
   19.8456   -6.9770  -12.9409 N   0  0  0  0  0  0  0  0  0  0  0  0
   20.1538   -8.3288  -13.4085 C   0  0  0  0  0  0  0  0  0  0  0  0
   21.0741   -6.2005  -12.9553 O   0  0  0  0  0  0  0  0  0  0  0  0
   22.2599   -6.7507  -13.4845 O   0  0  0  0  0  0  0  0  0  0  0  0
  2  3  1  0
  2  1  1  6
  4  8  1  0
  4  3  1  0
  5  4  2  0
  6  2  1  0
  7  6  2  0
 10  9  1  0
 10 12  1  0
 11 10  2  0
 13 12  1  0
 13 14  1  0
 15 14  1  0
 16 15  1  6
 16 17  1  0
 17  6  1  0
 18 19  2  0
 18 16  1  0
 21 22  2  0
 21 20  1  0
 23 21  1  0
 24 23  1  0
 25 24  1  6
 25 26  1  0
 26 18  1  0
 27 28  1  0
 27 25  1  0
 29 27  2  0
M  END
$$$$
