DRQ.pdb
     RDKit          3D

 29 28  0  0  1  0  0  0  0  0999 V2000
   19.2714  -12.8456  -18.3228 N   0  0  0  0  0  0  0  0  0  0  0  0
   19.3961  -12.4125  -16.9654 C   0  0  1  0  0  0  0  0  0  0  0  0
   20.8340  -11.9669  -16.6521 C   0  0  0  0  0  0  0  0  0  0  0  0
   21.7760  -13.0769  -16.8314 C   0  0  0  0  0  0  0  0  0  0  0  0
   21.5774  -14.2014  -16.3405 O   0  0  0  0  0  0  0  0  0  0  0  0
   18.5358  -11.2573  -16.6269 C   0  0  0  0  0  0  0  0  0  0  0  0
   18.2611  -10.4435  -17.5344 O   0  0  0  0  0  0  0  0  0  0  0  0
   22.9173  -12.8053  -17.5886 O   0  0  0  0  0  0  0  0  0  0  0  0
   11.4316  -11.8978  -11.9593 N   0  0  0  0  0  0  0  0  0  0  0  0
   11.5178  -10.5145  -12.2785 C   0  0  0  0  0  0  0  0  0  0  0  0
   10.5231   -9.7207  -12.0308 N   0  0  0  0  0  0  0  0  0  0  0  0
   12.6868   -9.9281  -12.8832 N   0  0  0  0  0  0  0  0  0  0  0  0
   13.8450  -10.7310  -13.1402 C   0  0  0  0  0  0  0  0  0  0  0  0
   14.8605   -9.8189  -13.8739 C   0  0  0  0  0  0  0  0  0  0  0  0
   15.9938  -10.7032  -14.2447 C   0  0  0  0  0  0  0  0  0  0  0  0
   17.0514  -10.0532  -15.0893 C   0  0  2  0  0  0  0  0  0  0  0  0
   18.0463  -11.0885  -15.3269 N   0  0  0  0  0  0  0  0  0  0  0  0
   17.6635   -8.9342  -14.3133 C   0  0  0  0  0  0  0  0  0  0  0  0
   18.2296   -9.2317  -13.2510 O   0  0  0  0  0  0  0  0  0  0  0  0
   10.6183   -8.7300  -12.3106 N   0  0  0  0  0  0  0  0  0  0  0  0
   22.4845   -6.2334  -14.9520 C   0  0  0  0  0  0  0  0  0  0  0  0
   21.8609   -5.3022  -14.0905 O   0  0  0  0  0  0  0  0  0  0  0  0
   22.5528   -4.3733  -13.5375 C   0  0  0  0  0  0  0  0  0  0  0  0
   20.4312   -5.3613  -13.8116 C   0  0  0  0  0  0  0  0  0  0  0  0
   19.6716   -6.4765  -14.4380 C   0  0  1  0  0  0  0  0  0  0  0  0
   18.2460   -6.5308  -14.0880 N   0  0  0  0  0  0  0  0  0  0  0  0
   17.5765   -7.6154  -14.8067 C   0  0  0  0  0  0  0  0  0  0  0  0
   17.4011   -5.3503  -14.1582 O   0  0  0  0  0  0  0  0  0  0  0  0
   17.6615   -4.2362  -13.3337 O   0  0  0  0  0  0  0  0  0  0  0  0
  2  3  1  0
  2  1  1  6
  4  8  1  0
  4  3  1  0
  5  4  2  0
  6  2  1  0
  7  6  2  0
 10  9  1  0
 10 12  1  0
 11 10  2  0
 13 12  1  0
 13 14  1  0
 15 14  1  0
 16 15  1  1
 16 17  1  0
 17  6  1  0
 18 19  2  0
 18 16  1  0
 21 22  2  0
 21 20  1  0
 23 21  1  0
 24 23  1  0
 25 24  1  1
 25 26  1  0
 26 18  1  0
 27 28  1  0
 27 25  1  0
 29 27  2  0
M  END
$$$$
