DRQ.pdb
     RDKit          3D

 29 28  0  0  1  0  0  0  0  0999 V2000
   27.2542  -21.1100  -17.7989 N   0  0  0  0  0  0  0  0  0  0  0  0
   27.0442  -20.2961  -16.6416 C   0  0  1  0  0  0  0  0  0  0  0  0
   26.3629  -18.9679  -17.0103 C   0  0  0  0  0  0  0  0  0  0  0  0
   27.3036  -18.0679  -17.6862 C   0  0  0  0  0  0  0  0  0  0  0  0
   28.4558  -18.4204  -17.9917 O   0  0  0  0  0  0  0  0  0  0  0  0
   26.1744  -20.9230  -15.6219 C   0  0  0  0  0  0  0  0  0  0  0  0
   25.1544  -21.5298  -16.0124 O   0  0  0  0  0  0  0  0  0  0  0  0
   26.8360  -16.7839  -17.9729 O   0  0  0  0  0  0  0  0  0  0  0  0
   28.4322  -20.9720   -7.6119 N   0  0  0  0  0  0  0  0  0  0  0  0
   27.2525  -20.2366   -7.9125 C   0  0  0  0  0  0  0  0  0  0  0  0
   26.9275  -19.1998   -7.2054 N   0  0  0  0  0  0  0  0  0  0  0  0
   26.3692  -20.5932   -8.9936 N   0  0  0  0  0  0  0  0  0  0  0  0
   26.4835  -21.8739   -9.6252 C   0  0  0  0  0  0  0  0  0  0  0  0
   25.5001  -21.8648  -10.8229 C   0  0  0  0  0  0  0  0  0  0  0  0
   26.2893  -21.3776  -11.9819 C   0  0  0  0  0  0  0  0  0  0  0  0
   25.5610  -21.3980  -13.2947 C   0  0  2  0  0  0  0  0  0  0  0  0
   26.4923  -20.8364  -14.2619 N   0  0  0  0  0  0  0  0  0  0  0  0
   24.3561  -20.5229  -13.1879 C   0  0  0  0  0  0  0  0  0  0  0  0
   24.5560  -19.3096  -13.0288 O   0  0  0  0  0  0  0  0  0  0  0  0
   26.0889  -18.6672   -7.4916 N   0  0  0  0  0  0  0  0  0  0  0  0
   21.4277  -18.4307  -17.2910 C   0  0  0  0  0  0  0  0  0  0  0  0
   20.4817  -18.1819  -16.2705 O   0  0  0  0  0  0  0  0  0  0  0  0
   19.4772  -17.4156  -16.4968 C   0  0  0  0  0  0  0  0  0  0  0  0
   20.6103  -18.7843  -14.9492 C   0  0  0  0  0  0  0  0  0  0  0  0
   21.8314  -19.5963  -14.6988 C   0  0  1  0  0  0  0  0  0  0  0  0
   21.8977  -20.2260  -13.3733 N   0  0  0  0  0  0  0  0  0  0  0  0
   23.0697  -21.0960  -13.2705 C   0  0  0  0  0  0  0  0  0  0  0  0
   20.7584  -20.9305  -12.8092 O   0  0  0  0  0  0  0  0  0  0  0  0
   20.7188  -22.3402  -12.8110 O   0  0  0  0  0  0  0  0  0  0  0  0
  2  3  1  0
  2  1  1  6
  4  8  1  0
  4  3  1  0
  5  4  2  0
  6  2  1  0
  7  6  2  0
 10  9  1  0
 10 12  1  0
 11 10  2  0
 13 12  1  0
 13 14  1  0
 15 14  1  0
 16 15  1  1
 16 17  1  0
 17  6  1  0
 18 19  2  0
 18 16  1  0
 21 22  2  0
 21 20  1  0
 23 21  1  0
 24 23  1  0
 25 24  1  1
 25 26  1  0
 26 18  1  0
 27 28  1  0
 27 25  1  0
 29 27  2  0
M  END
$$$$
