DRQ.pdb
     RDKit          3D

 29 28  0  0  1  0  0  0  0  0999 V2000
   28.6932  -22.0172  -18.0409 N   0  0  0  0  0  0  0  0  0  0  0  0
   28.4586  -20.6979  -17.5407 C   0  0  1  0  0  0  0  0  0  0  0  0
   28.3021  -19.6863  -18.6881 C   0  0  0  0  0  0  0  0  0  0  0  0
   29.5174  -19.6335  -19.5078 C   0  0  0  0  0  0  0  0  0  0  0  0
   29.6148  -18.8952  -20.5030 O   0  0  0  0  0  0  0  0  0  0  0  0
   27.2266  -20.5781  -16.7301 C   0  0  0  0  0  0  0  0  0  0  0  0
   26.2413  -21.2760  -17.0519 O   0  0  0  0  0  0  0  0  0  0  0  0
   30.5696  -20.4610  -19.1105 O   0  0  0  0  0  0  0  0  0  0  0  0
   26.0057  -22.1703  -10.5473 N   0  0  0  0  0  0  0  0  0  0  0  0
   25.6393  -20.8741  -10.0909 C   0  0  0  0  0  0  0  0  0  0  0  0
   24.6649  -20.7261   -9.2486 N   0  0  0  0  0  0  0  0  0  0  0  0
   26.3120  -19.6774  -10.5287 N   0  0  0  0  0  0  0  0  0  0  0  0
   27.4833  -19.7678  -11.3484 C   0  0  0  0  0  0  0  0  0  0  0  0
   27.0349  -20.3987  -12.6910 C   0  0  0  0  0  0  0  0  0  0  0  0
   26.3958  -19.2975  -13.4542 C   0  0  0  0  0  0  0  0  0  0  0  0
   25.9550  -19.6643  -14.8418 C   0  0  2  0  0  0  0  0  0  0  0  0
   27.1742  -19.7081  -15.6353 N   0  0  0  0  0  0  0  0  0  0  0  0
   25.0555  -18.5905  -15.3583 C   0  0  0  0  0  0  0  0  0  0  0  0
   25.5906  -17.5242  -15.6958 O   0  0  0  0  0  0  0  0  0  0  0  0
   24.4219  -19.7636   -8.9599 N   0  0  0  0  0  0  0  0  0  0  0  0
   24.5105  -17.0965  -20.0746 C   0  0  0  0  0  0  0  0  0  0  0  0
   23.4645  -18.0348  -19.9200 O   0  0  0  0  0  0  0  0  0  0  0  0
   23.0386  -18.6968  -20.9336 C   0  0  0  0  0  0  0  0  0  0  0  0
   22.8490  -18.2824  -18.6218 C   0  0  0  0  0  0  0  0  0  0  0  0
   23.4057  -17.5345  -17.4625 C   0  0  1  0  0  0  0  0  0  0  0  0
   22.8165  -17.8773  -16.1613 N   0  0  0  0  0  0  0  0  0  0  0  0
   23.6668  -18.8252  -15.4406 C   0  0  0  0  0  0  0  0  0  0  0  0
   21.4385  -18.3246  -16.0455 O   0  0  0  0  0  0  0  0  0  0  0  0
   21.1470  -19.6286  -15.5945 O   0  0  0  0  0  0  0  0  0  0  0  0
  2  3  1  0
  2  1  1  6
  4  8  1  0
  4  3  1  0
  5  4  2  0
  6  2  1  0
  7  6  2  0
 10  9  1  0
 10 12  1  0
 11 10  2  0
 13 12  1  0
 13 14  1  0
 15 14  1  0
 16 15  1  1
 16 17  1  0
 17  6  1  0
 18 19  2  0
 18 16  1  0
 21 22  2  0
 21 20  1  0
 23 21  1  0
 24 23  1  0
 25 24  1  1
 25 26  1  0
 26 18  1  0
 27 28  1  0
 27 25  1  0
 29 27  2  0
M  END
$$$$
