DRQ.pdb
     RDKit          3D

 29 28  0  0  1  0  0  0  0  0999 V2000
   21.9641  -27.5578  -16.8338 N   0  0  0  0  0  0  0  0  0  0  0  0
   21.5266  -26.4124  -16.0972 C   0  0  1  0  0  0  0  0  0  0  0  0
   20.9531  -25.3343  -17.0316 C   0  0  0  0  0  0  0  0  0  0  0  0
   20.5604  -24.1412  -16.2740 C   0  0  0  0  0  0  0  0  0  0  0  0
   21.0352  -23.8796  -15.1554 O   0  0  0  0  0  0  0  0  0  0  0  0
   20.4558  -26.7059  -15.1192 C   0  0  0  0  0  0  0  0  0  0  0  0
   19.3932  -27.2074  -15.5443 O   0  0  0  0  0  0  0  0  0  0  0  0
   19.6185  -23.3057  -16.8776 O   0  0  0  0  0  0  0  0  0  0  0  0
   22.5690  -30.4219   -8.1323 N   0  0  0  0  0  0  0  0  0  0  0  0
   22.1221  -31.1335   -9.2798 C   0  0  0  0  0  0  0  0  0  0  0  0
   22.2459  -32.4226   -9.3419 N   0  0  0  0  0  0  0  0  0  0  0  0
   21.5217  -30.4793  -10.4146 N   0  0  0  0  0  0  0  0  0  0  0  0
   21.1356  -29.1023  -10.3317 C   0  0  0  0  0  0  0  0  0  0  0  0
   20.5261  -28.7311  -11.7072 C   0  0  0  0  0  0  0  0  0  0  0  0
   20.1879  -27.2885  -11.6161 C   0  0  0  0  0  0  0  0  0  0  0  0
   19.5412  -26.7133  -12.8430 C   0  0  2  0  0  0  0  0  0  0  0  0
   20.6357  -26.4292  -13.7593 N   0  0  0  0  0  0  0  0  0  0  0  0
   18.8527  -25.4420  -12.4704 C   0  0  0  0  0  0  0  0  0  0  0  0
   19.5741  -24.4628  -12.2294 O   0  0  0  0  0  0  0  0  0  0  0  0
   21.9842  -32.8878  -10.2273 N   0  0  0  0  0  0  0  0  0  0  0  0
   18.0382  -21.0837  -15.0379 C   0  0  0  0  0  0  0  0  0  0  0  0
   16.9294  -20.8575  -14.1907 O   0  0  0  0  0  0  0  0  0  0  0  0
   16.2560  -19.7693  -14.2886 C   0  0  0  0  0  0  0  0  0  0  0  0
   16.5165  -21.8414  -13.1973 C   0  0  0  0  0  0  0  0  0  0  0  0
   17.2777  -23.1191  -13.1628 C   0  0  1  0  0  0  0  0  0  0  0  0
   16.7630  -24.1236  -12.2225 N   0  0  0  0  0  0  0  0  0  0  0  0
   17.4437  -25.4053  -12.4091 C   0  0  0  0  0  0  0  0  0  0  0  0
   15.3387  -24.3810  -12.0903 O   0  0  0  0  0  0  0  0  0  0  0  0
   14.5085  -23.4668  -11.4092 O   0  0  0  0  0  0  0  0  0  0  0  0
  2  3  1  0
  2  1  1  6
  4  8  1  0
  4  3  1  0
  5  4  2  0
  6  2  1  0
  7  6  2  0
 10  9  1  0
 10 12  1  0
 11 10  2  0
 13 12  1  0
 13 14  1  0
 15 14  1  0
 16 15  1  1
 16 17  1  0
 17  6  1  0
 18 19  2  0
 18 16  1  0
 21 22  2  0
 21 20  1  0
 23 21  1  0
 24 23  1  0
 25 24  1  1
 25 26  1  0
 26 18  1  0
 27 28  1  0
 27 25  1  0
 29 27  2  0
M  END
$$$$
