KTH.pdb
     RDKit          3D

 27 27  0  0  1  0  0  0  0  0999 V2000
   21.4388  -14.3980  -17.4243 N   0  0  0  0  0  0  0  0  0  0  0  0
   20.4253  -13.4448  -17.0140 C   0  0  1  0  0  0  0  0  0  0  0  0
   19.5060  -14.1262  -16.0245 C   0  0  0  0  0  0  0  0  0  0  0  0
   18.6428  -15.1485  -16.7115 C   0  0  0  0  0  0  0  0  0  0  0  0
   17.3373  -14.5360  -17.1797 C   0  0  0  0  0  0  0  0  0  0  0  0
   16.4623  -15.6196  -17.8109 C   0  0  0  0  0  0  0  0  0  0  0  0
   15.2659  -15.0736  -18.3908 N   0  0  0  0  0  0  0  0  0  0  0  0
   21.1104  -12.2842  -16.3605 C   0  0  0  0  0  0  0  0  0  0  0  0
   21.9225  -12.4790  -15.4260 O   0  0  0  0  0  0  0  0  0  0  0  0
   23.4421  -10.1611  -17.4977 C   0  0  0  0  0  0  0  0  0  0  0  0
   22.3774   -9.1164  -17.1592 C   0  0  1  0  0  0  0  0  0  0  0  0
   21.7373   -8.8195  -18.3603 O   0  0  0  0  0  0  0  0  0  0  0  0
   21.4075   -9.7674  -16.2357 C   0  0  2  0  0  0  0  0  0  0  0  0
   20.8360  -10.9538  -16.8047 N   0  0  0  0  0  0  0  0  0  0  0  0
   20.3442   -8.8741  -15.7318 C   0  0  0  0  0  0  0  0  0  0  0  0
   19.2059   -8.9685  -16.2074 O   0  0  0  0  0  0  0  0  0  0  0  0
   20.5501   -7.8834  -14.7052 N   0  0  0  0  0  0  0  0  0  0  0  0
   19.5113   -7.0271  -14.2434 C   0  0  1  0  0  0  0  0  0  0  0  0
   19.0358   -7.1742  -12.8635 C   0  0  0  0  0  0  0  0  0  0  0  0
   18.3363   -8.4242  -12.5037 C   0  0  0  0  0  0  0  0  0  0  0  0
   18.0936   -9.5018  -13.2897 C   0  0  0  0  0  0  0  0  0  0  0  0
   17.4425  -10.4309  -12.5240 N   0  0  0  0  0  0  0  0  0  0  0  0
   17.2948   -9.9285  -11.3035 C   0  0  0  0  0  0  0  0  0  0  0  0
   17.8326   -8.7089  -11.2730 N   0  0  0  0  0  0  0  0  0  0  0  0
   19.8971   -5.5876  -14.4760 C   0  0  0  0  0  0  0  0  0  0  0  0
   21.0491   -5.3089  -14.8857 O   0  0  0  0  0  0  0  0  0  0  0  0
   19.0192   -4.5389  -14.2532 O   0  0  0  0  0  0  0  0  0  0  0  0
  2  1  1  1
  2  3  1  0
  4  3  1  0
  4  5  1  0
  5  6  1  0
  7  6  1  0
  8  9  2  0
  8  2  1  0
 11 10  1  6
 11 13  1  0
 12 11  1  0
 13 14  1  6
 14  8  1  0
 15 13  1  0
 15 17  1  0
 16 15  2  0
 18 17  1  0
 18 25  1  0
 18 19  1  1
 20 19  1  0
 21 20  2  0
 22 23  1  0
 22 21  1  0
 23 24  2  0
 24 20  1  0
 25 27  1  0
 26 25  2  0
M  END
$$$$
