KTH.pdb
     RDKit          3D

 27 27  0  0  1  0  0  0  0  0999 V2000
   20.5768  -16.6593  -17.4940 N   0  0  0  0  0  0  0  0  0  0  0  0
   19.8497  -15.4049  -17.4532 C   0  0  1  0  0  0  0  0  0  0  0  0
   19.2542  -15.2464  -16.0715 C   0  0  0  0  0  0  0  0  0  0  0  0
   19.1987  -16.5687  -15.3572 C   0  0  0  0  0  0  0  0  0  0  0  0
   18.3296  -16.4845  -14.1177 C   0  0  0  0  0  0  0  0  0  0  0  0
   18.1714  -17.8784  -13.5093 C   0  0  0  0  0  0  0  0  0  0  0  0
   17.3707  -17.8559  -12.3160 N   0  0  0  0  0  0  0  0  0  0  0  0
   20.8166  -14.2935  -17.7242 C   0  0  0  0  0  0  0  0  0  0  0  0
   22.0430  -14.4672  -17.5334 O   0  0  0  0  0  0  0  0  0  0  0  0
   21.1896  -12.5088  -20.8302 C   0  0  0  0  0  0  0  0  0  0  0  0
   20.9330  -11.3614  -19.8518 C   0  0  1  0  0  0  0  0  0  0  0  0
   19.5863  -11.0334  -19.9917 O   0  0  0  0  0  0  0  0  0  0  0  0
   21.1662  -11.8974  -18.4823 C   0  0  2  0  0  0  0  0  0  0  0  0
   20.3376  -13.0341  -18.2010 N   0  0  0  0  0  0  0  0  0  0  0  0
   21.0505  -10.8959  -17.4024 C   0  0  0  0  0  0  0  0  0  0  0  0
   20.1402  -11.0110  -16.5723 O   0  0  0  0  0  0  0  0  0  0  0  0
   21.9438   -9.7748  -17.2504 N   0  0  0  0  0  0  0  0  0  0  0  0
   21.7379   -8.7533  -16.2812 C   0  0  1  0  0  0  0  0  0  0  0  0
   22.7710   -7.7265  -16.1068 C   0  0  0  0  0  0  0  0  0  0  0  0
   22.5051   -6.6353  -15.1477 C   0  0  0  0  0  0  0  0  0  0  0  0
   21.4979   -6.5436  -14.2447 C   0  0  0  0  0  0  0  0  0  0  0  0
   21.6691   -5.3735  -13.5555 N   0  0  0  0  0  0  0  0  0  0  0  0
   22.7539   -4.7713  -14.0290 C   0  0  0  0  0  0  0  0  0  0  0  0
   23.2752   -5.5245  -14.9977 N   0  0  0  0  0  0  0  0  0  0  0  0
   20.4132   -8.0758  -16.5291 C   0  0  0  0  0  0  0  0  0  0  0  0
   19.5906   -7.9520  -15.5906 O   0  0  0  0  0  0  0  0  0  0  0  0
   20.0572   -7.5745  -17.7708 O   0  0  0  0  0  0  0  0  0  0  0  0
  2  1  1  1
  2  3  1  0
  4  3  1  0
  4  5  1  0
  5  6  1  0
  7  6  1  0
  8  9  2  0
  8  2  1  0
 11 10  1  6
 11 13  1  0
 12 11  1  0
 13 14  1  1
 14  8  1  0
 15 13  1  0
 15 17  1  0
 16 15  2  0
 18 17  1  0
 18 25  1  0
 18 19  1  6
 20 19  1  0
 21 20  2  0
 22 23  1  0
 22 21  1  0
 23 24  2  0
 24 20  1  0
 25 27  1  0
 26 25  2  0
M  END
$$$$
