KTH.pdb
     RDKit          3D

 27 27  0  0  1  0  0  0  0  0999 V2000
   18.2955  -15.5388  -17.4901 N   0  0  0  0  0  0  0  0  0  0  0  0
   19.1387  -14.3672  -17.3471 C   0  0  1  0  0  0  0  0  0  0  0  0
   20.0319  -14.2741  -18.5645 C   0  0  0  0  0  0  0  0  0  0  0  0
   20.6595  -15.6059  -18.8716 C   0  0  0  0  0  0  0  0  0  0  0  0
   21.5293  -15.5277  -20.1111 C   0  0  0  0  0  0  0  0  0  0  0  0
   22.1521  -16.8970  -20.3850 C   0  0  0  0  0  0  0  0  0  0  0  0
   23.1436  -17.2421  -19.4034 N   0  0  0  0  0  0  0  0  0  0  0  0
   18.2550  -13.1605  -17.2673 C   0  0  0  0  0  0  0  0  0  0  0  0
   17.0862  -13.2069  -17.7172 O   0  0  0  0  0  0  0  0  0  0  0  0
   15.9929  -12.1192  -16.7644 C   0  0  0  0  0  0  0  0  0  0  0  0
   16.6422  -11.0208  -15.9210 C   0  0  1  0  0  0  0  0  0  0  0  0
   16.8036  -11.5617  -14.6473 O   0  0  0  0  0  0  0  0  0  0  0  0
   17.9824  -10.7534  -16.5123 C   0  0  2  0  0  0  0  0  0  0  0  0
   18.7475  -11.9557  -16.6769 N   0  0  0  0  0  0  0  0  0  0  0  0
   18.7760   -9.7314  -15.7993 C   0  0  0  0  0  0  0  0  0  0  0  0
   19.9944   -9.9020  -15.6678 O   0  0  0  0  0  0  0  0  0  0  0  0
   18.2138   -8.5288  -15.2377 N   0  0  0  0  0  0  0  0  0  0  0  0
   19.0166   -7.4656  -14.7370 C   0  0  1  0  0  0  0  0  0  0  0  0
   20.1177   -6.9617  -15.5649 C   0  0  0  0  0  0  0  0  0  0  0  0
   20.9763   -5.9006  -15.0008 C   0  0  0  0  0  0  0  0  0  0  0  0
   21.7541   -5.9568  -13.8917 C   0  0  0  0  0  0  0  0  0  0  0  0
   22.3893   -4.7501  -13.7736 N   0  0  0  0  0  0  0  0  0  0  0  0
   22.0059   -3.9817  -14.7867 C   0  0  0  0  0  0  0  0  0  0  0  0
   21.1468   -4.6652  -15.5432 N   0  0  0  0  0  0  0  0  0  0  0  0
   18.1364   -6.3075  -14.3378 C   0  0  0  0  0  0  0  0  0  0  0  0
   16.9069   -6.3452  -14.5822 O   0  0  0  0  0  0  0  0  0  0  0  0
   18.6345   -5.1822  -13.7009 O   0  0  0  0  0  0  0  0  0  0  0  0
  2  1  1  6
  2  3  1  0
  4  3  1  0
  4  5  1  0
  5  6  1  0
  7  6  1  0
  8  9  2  0
  8  2  1  0
 11 10  1  6
 11 13  1  0
 12 11  1  0
 13 14  1  1
 14  8  1  0
 15 13  1  0
 15 17  1  0
 16 15  2  0
 18 17  1  0
 18 25  1  0
 18 19  1  6
 20 19  1  0
 21 20  2  0
 22 23  1  0
 22 21  1  0
 23 24  2  0
 24 20  1  0
 25 27  1  0
 26 25  2  0
M  END
$$$$
