KTH.pdb
     RDKit          3D

 27 27  0  0  1  0  0  0  0  0999 V2000
   15.6918  -14.8870  -19.1410 N   0  0  0  0  0  0  0  0  0  0  0  0
   15.5381  -13.7217  -18.2911 C   0  0  1  0  0  0  0  0  0  0  0  0
   15.2734  -14.1959  -16.8791 C   0  0  0  0  0  0  0  0  0  0  0  0
   14.2897  -15.3335  -16.8717 C   0  0  0  0  0  0  0  0  0  0  0  0
   13.0135  -14.9481  -16.1494 C   0  0  0  0  0  0  0  0  0  0  0  0
   13.0599  -15.4747  -14.7145 C   0  0  0  0  0  0  0  0  0  0  0  0
   13.5270  -14.4772  -13.7913 N   0  0  0  0  0  0  0  0  0  0  0  0
   16.8130  -12.9369  -18.3366 C   0  0  0  0  0  0  0  0  0  0  0  0
   17.9077  -13.5254  -18.4979 O   0  0  0  0  0  0  0  0  0  0  0  0
   17.3012  -10.1279  -20.5890 C   0  0  0  0  0  0  0  0  0  0  0  0
   17.6810   -9.5205  -19.2376 C   0  0  1  0  0  0  0  0  0  0  0  0
   16.5635   -8.8059  -18.8119 O   0  0  0  0  0  0  0  0  0  0  0  0
   17.9215  -10.6547  -18.3032 C   0  0  2  0  0  0  0  0  0  0  0  0
   16.7786  -11.5150  -18.1958 N   0  0  0  0  0  0  0  0  0  0  0  0
   18.3940  -10.2560  -16.9615 C   0  0  0  0  0  0  0  0  0  0  0  0
   17.5805  -10.2005  -16.0309 O   0  0  0  0  0  0  0  0  0  0  0  0
   19.7637   -9.9219  -16.6611 N   0  0  0  0  0  0  0  0  0  0  0  0
   20.1997   -9.5668  -15.3537 C   0  0  1  0  0  0  0  0  0  0  0  0
   21.6056   -9.7823  -14.9952 C   0  0  0  0  0  0  0  0  0  0  0  0
   22.0464   -9.3666  -13.6482 C   0  0  0  0  0  0  0  0  0  0  0  0
   21.2805   -8.9491  -12.6103 C   0  0  0  0  0  0  0  0  0  0  0  0
   22.1175   -8.6974  -11.5570 N   0  0  0  0  0  0  0  0  0  0  0  0
   23.3602   -8.9567  -11.9471 C   0  0  0  0  0  0  0  0  0  0  0  0
   23.3358   -9.3649  -13.2160 N   0  0  0  0  0  0  0  0  0  0  0  0
   19.8379   -8.1304  -15.0689 C   0  0  0  0  0  0  0  0  0  0  0  0
   19.9624   -7.2657  -15.9687 O   0  0  0  0  0  0  0  0  0  0  0  0
   19.3651   -7.7151  -13.8344 O   0  0  0  0  0  0  0  0  0  0  0  0
  2  1  1  6
  2  3  1  0
  4  3  1  0
  4  5  1  0
  5  6  1  0
  7  6  1  0
  8  9  2  0
  8  2  1  0
 11 10  1  6
 11 13  1  0
 12 11  1  0
 13 14  1  1
 14  8  1  0
 15 13  1  0
 15 17  1  0
 16 15  2  0
 18 17  1  0
 18 25  1  0
 18 19  1  6
 20 19  1  0
 21 20  2  0
 22 23  1  0
 22 21  1  0
 23 24  2  0
 24 20  1  0
 25 27  1  0
 26 25  2  0
M  END
$$$$
