KTH.pdb
     RDKit          3D

 27 27  0  0  1  0  0  0  0  0999 V2000
   29.9570  -23.9969  -16.3438 N   0  0  0  0  0  0  0  0  0  0  0  0
   28.7733  -23.6161  -17.0906 C   0  0  1  0  0  0  0  0  0  0  0  0
   27.6281  -24.4997  -16.6473 C   0  0  0  0  0  0  0  0  0  0  0  0
   27.3632  -25.5809  -17.6585 C   0  0  0  0  0  0  0  0  0  0  0  0
   25.9464  -25.4957  -18.1917 C   0  0  0  0  0  0  0  0  0  0  0  0
   25.2826  -26.8702  -18.0997 C   0  0  0  0  0  0  0  0  0  0  0  0
   23.8812  -26.8118  -18.4130 N   0  0  0  0  0  0  0  0  0  0  0  0
   28.4640  -22.1838  -16.7808 C   0  0  0  0  0  0  0  0  0  0  0  0
   29.2655  -21.5008  -16.1011 O   0  0  0  0  0  0  0  0  0  0  0  0
   29.3375  -19.9530  -17.2185 C   0  0  0  0  0  0  0  0  0  0  0  0
   28.0181  -19.3361  -17.6854 C   0  0  1  0  0  0  0  0  0  0  0  0
   28.0353  -19.4039  -19.0768 O   0  0  0  0  0  0  0  0  0  0  0  0
   26.9247  -20.2039  -17.1668 C   0  0  2  0  0  0  0  0  0  0  0  0
   27.2527  -21.5972  -17.2618 N   0  0  0  0  0  0  0  0  0  0  0  0
   25.5987  -19.9449  -17.7645 C   0  0  0  0  0  0  0  0  0  0  0  0
   24.9728  -20.8866  -18.2668 O   0  0  0  0  0  0  0  0  0  0  0  0
   24.9765  -18.6452  -17.8010 N   0  0  0  0  0  0  0  0  0  0  0  0
   23.9121  -18.2774  -16.9308 C   0  0  1  0  0  0  0  0  0  0  0  0
   24.0727  -18.4917  -15.4886 C   0  0  0  0  0  0  0  0  0  0  0  0
   23.4130  -19.6685  -14.8875 C   0  0  0  0  0  0  0  0  0  0  0  0
   22.6421  -20.5990  -15.5025 C   0  0  0  0  0  0  0  0  0  0  0  0
   22.2719  -21.5163  -14.5565 N   0  0  0  0  0  0  0  0  0  0  0  0
   22.8060  -21.1508  -13.3968 C   0  0  0  0  0  0  0  0  0  0  0  0
   23.5033  -20.0293  -13.5794 N   0  0  0  0  0  0  0  0  0  0  0  0
   23.5324  -16.8375  -17.1711 C   0  0  0  0  0  0  0  0  0  0  0  0
   24.4277  -15.9786  -17.3540 O   0  0  0  0  0  0  0  0  0  0  0  0
   22.2138  -16.4127  -17.1995 O   0  0  0  0  0  0  0  0  0  0  0  0
  2  1  1  1
  2  3  1  0
  4  3  1  0
  4  5  1  0
  5  6  1  0
  7  6  1  0
  8  9  2  0
  8  2  1  0
 11 10  1  1
 11 13  1  0
 12 11  1  0
 13 14  1  6
 14  8  1  0
 15 13  1  0
 15 17  1  0
 16 15  2  0
 18 17  1  0
 18 25  1  0
 18 19  1  1
 20 19  1  0
 21 20  2  0
 22 23  1  0
 22 21  1  0
 23 24  2  0
 24 20  1  0
 25 27  1  0
 26 25  2  0
M  END
$$$$
