KTH.pdb
     RDKit          3D

 27 27  0  0  1  0  0  0  0  0999 V2000
   20.4492  -12.6393  -18.5953 N   0  0  0  0  0  0  0  0  0  0  0  0
   19.7830  -11.4714  -18.0512 C   0  0  1  0  0  0  0  0  0  0  0  0
   18.6790  -11.9412  -17.1298 C   0  0  0  0  0  0  0  0  0  0  0  0
   17.6579  -12.7471  -17.8846 C   0  0  0  0  0  0  0  0  0  0  0  0
   16.5303  -13.1918  -16.9738 C   0  0  0  0  0  0  0  0  0  0  0  0
   15.5498  -14.0610  -17.7621 C   0  0  0  0  0  0  0  0  0  0  0  0
   14.4958  -14.5721  -16.9293 N   0  0  0  0  0  0  0  0  0  0  0  0
   20.7893  -10.6746  -17.2793 C   0  0  0  0  0  0  0  0  0  0  0  0
   21.6071  -11.2549  -16.5275 O   0  0  0  0  0  0  0  0  0  0  0  0
   23.3443   -8.7943  -18.6083 C   0  0  0  0  0  0  0  0  0  0  0  0
   22.6403   -7.7049  -17.7977 C   0  0  1  0  0  0  0  0  0  0  0  0
   21.8227   -7.0260  -18.6985 O   0  0  0  0  0  0  0  0  0  0  0  0
   21.7895   -8.3948  -16.7889 C   0  0  2  0  0  0  0  0  0  0  0  0
   20.8151   -9.2508  -17.4019 N   0  0  0  0  0  0  0  0  0  0  0  0
   21.1427   -7.4950  -15.8119 C   0  0  0  0  0  0  0  0  0  0  0  0
   20.0335   -7.0166  -16.0796 O   0  0  0  0  0  0  0  0  0  0  0  0
   21.7295   -7.1323  -14.5462 N   0  0  0  0  0  0  0  0  0  0  0  0
   21.1109   -6.2213  -13.6447 C   0  0  1  0  0  0  0  0  0  0  0  0
   20.8278   -6.6651  -12.2755 C   0  0  0  0  0  0  0  0  0  0  0  0
   19.7874   -7.6959  -12.0849 C   0  0  0  0  0  0  0  0  0  0  0  0
   19.0408   -8.3146  -13.0325 C   0  0  0  0  0  0  0  0  0  0  0  0
   18.2291   -9.2132  -12.3943 N   0  0  0  0  0  0  0  0  0  0  0  0
   18.4784   -9.1411  -11.0919 C   0  0  0  0  0  0  0  0  0  0  0  0
   19.4234   -8.2236  -10.8855 N   0  0  0  0  0  0  0  0  0  0  0  0
   21.9070   -4.9413  -13.5882 C   0  0  0  0  0  0  0  0  0  0  0  0
   23.0249   -4.8766  -14.1529 O   0  0  0  0  0  0  0  0  0  0  0  0
   21.4502   -3.8120  -12.9279 O   0  0  0  0  0  0  0  0  0  0  0  0
  2  1  1  1
  2  3  1  0
  4  3  1  0
  4  5  1  0
  5  6  1  0
  7  6  1  0
  8  9  2  0
  8  2  1  0
 11 10  1  6
 11 13  1  0
 12 11  1  0
 13 14  1  6
 14  8  1  0
 15 13  1  0
 15 17  1  0
 16 15  2  0
 18 17  1  0
 18 25  1  0
 18 19  1  1
 20 19  1  0
 21 20  2  0
 22 23  1  0
 22 21  1  0
 23 24  2  0
 24 20  1  0
 25 27  1  0
 26 25  2  0
M  END
$$$$
