KTH.pdb
     RDKit          3D

 27 27  0  0  1  0  0  0  0  0999 V2000
   21.4045  -39.4558   -9.6236 N   0  0  0  0  0  0  0  0  0  0  0  0
   22.5446  -38.5662   -9.5108 C   0  0  1  0  0  0  0  0  0  0  0  0
   22.2454  -37.3095  -10.2982 C   0  0  0  0  0  0  0  0  0  0  0  0
   22.3609  -37.5631  -11.7761 C   0  0  0  0  0  0  0  0  0  0  0  0
   21.9969  -36.3259  -12.5734 C   0  0  0  0  0  0  0  0  0  0  0  0
   22.1583  -36.6146  -14.0662 C   0  0  0  0  0  0  0  0  0  0  0  0
   21.8135  -35.4767  -14.8736 N   0  0  0  0  0  0  0  0  0  0  0  0
   22.7356  -38.2299   -8.0638 C   0  0  0  0  0  0  0  0  0  0  0  0
   21.7438  -38.1446   -7.3024 O   0  0  0  0  0  0  0  0  0  0  0  0
   24.4359  -40.0929   -5.7080 C   0  0  0  0  0  0  0  0  0  0  0  0
   25.1979  -38.7751   -5.5596 C   0  0  1  0  0  0  0  0  0  0  0  0
   26.3687  -38.9249   -6.2995 O   0  0  0  0  0  0  0  0  0  0  0  0
   24.3581  -37.7147   -6.1822 C   0  0  2  0  0  0  0  0  0  0  0  0
   24.0516  -38.0065   -7.5529 N   0  0  0  0  0  0  0  0  0  0  0  0
   24.9019  -36.3468   -6.0560 C   0  0  0  0  0  0  0  0  0  0  0  0
   25.1163  -35.6894   -7.0821 O   0  0  0  0  0  0  0  0  0  0  0  0
   25.2038  -35.7181   -4.7946 N   0  0  0  0  0  0  0  0  0  0  0  0
   25.7220  -34.3960   -4.6988 C   0  0  1  0  0  0  0  0  0  0  0  0
   25.0387  -33.3157   -5.4184 C   0  0  0  0  0  0  0  0  0  0  0  0
   25.5499  -32.9438   -6.7532 C   0  0  0  0  0  0  0  0  0  0  0  0
   26.5705  -33.5087   -7.4442 C   0  0  0  0  0  0  0  0  0  0  0  0
   26.6665  -32.8552   -8.6430 N   0  0  0  0  0  0  0  0  0  0  0  0
   25.7267  -31.9175   -8.6776 C   0  0  0  0  0  0  0  0  0  0  0  0
   25.0382  -31.9570   -7.5367 N   0  0  0  0  0  0  0  0  0  0  0  0
   25.8582  -34.0065   -3.2480 C   0  0  0  0  0  0  0  0  0  0  0  0
   26.8291  -33.3034   -2.8793 O   0  0  0  0  0  0  0  0  0  0  0  0
   24.9413  -34.3978   -2.2855 O   0  0  0  0  0  0  0  0  0  0  0  0
  2  1  1  1
  2  3  1  0
  4  3  1  0
  4  5  1  0
  5  6  1  0
  7  6  1  0
  8  9  2  0
  8  2  1  0
 11 10  1  6
 11 13  1  0
 12 11  1  0
 13 14  1  6
 14  8  1  0
 15 13  1  0
 15 17  1  0
 16 15  2  0
 18 17  1  0
 18 25  1  0
 18 19  1  6
 20 19  1  0
 21 20  2  0
 22 23  1  0
 22 21  1  0
 23 24  2  0
 24 20  1  0
 25 27  1  0
 26 25  2  0
M  END
$$$$
