KTH.pdb
     RDKit          3D

 27 27  0  0  1  0  0  0  0  0999 V2000
   10.4841  -19.4848    0.6094 N   0  0  0  0  0  0  0  0  0  0  0  0
   11.8295  -18.9955    0.8428 C   0  0  1  0  0  0  0  0  0  0  0  0
   11.7516  -17.5125    1.1316 C   0  0  0  0  0  0  0  0  0  0  0  0
   10.3830  -16.9760    0.8138 C   0  0  0  0  0  0  0  0  0  0  0  0
   10.3010  -15.4878    1.0917 C   0  0  0  0  0  0  0  0  0  0  0  0
    8.9340  -14.9611    0.6534 C   0  0  0  0  0  0  0  0  0  0  0  0
    8.8110  -13.5449    0.8653 N   0  0  0  0  0  0  0  0  0  0  0  0
   12.3925  -19.7186    2.0274 C   0  0  0  0  0  0  0  0  0  0  0  0
   11.6483  -20.0258    2.9879 O   0  0  0  0  0  0  0  0  0  0  0  0
   14.1246  -22.8550    1.8935 C   0  0  0  0  0  0  0  0  0  0  0  0
   15.1491  -21.9799    2.6173 C   0  0  1  0  0  0  0  0  0  0  0  0
   16.0667  -21.5832    1.6471 O   0  0  0  0  0  0  0  0  0  0  0  0
   14.4204  -20.7826    3.1201 C   0  0  2  0  0  0  0  0  0  0  0  0
   13.7806  -20.0578    2.0604 N   0  0  0  0  0  0  0  0  0  0  0  0
   15.2349  -19.8707    3.9493 C   0  0  0  0  0  0  0  0  0  0  0  0
   15.9195  -19.0036    3.3921 O   0  0  0  0  0  0  0  0  0  0  0  0
   15.2849  -19.9264    5.3888 N   0  0  0  0  0  0  0  0  0  0  0  0
   16.1265  -19.0787    6.1625 C   0  0  1  0  0  0  0  0  0  0  0  0
   15.5108  -18.0275    6.9796 C   0  0  0  0  0  0  0  0  0  0  0  0
   14.8302  -16.9189    6.2802 C   0  0  0  0  0  0  0  0  0  0  0  0
   14.6954  -16.7314    4.9443 C   0  0  0  0  0  0  0  0  0  0  0  0
   13.9680  -15.5865    4.7612 N   0  0  0  0  0  0  0  0  0  0  0  0
   13.6689  -15.0927    5.9572 C   0  0  0  0  0  0  0  0  0  0  0  0
   14.1851  -15.8902    6.8926 N   0  0  0  0  0  0  0  0  0  0  0  0
   17.0243  -19.9156    7.0393 C   0  0  0  0  0  0  0  0  0  0  0  0
   16.9161  -21.1650    7.0307 O   0  0  0  0  0  0  0  0  0  0  0  0
   17.9818  -19.3556    7.8698 O   0  0  0  0  0  0  0  0  0  0  0  0
  2  1  1  1
  2  3  1  0
  4  3  1  0
  4  5  1  0
  5  6  1  0
  7  6  1  0
  8  9  2  0
  8  2  1  0
 11 10  1  6
 11 13  1  0
 12 11  1  0
 13 14  1  6
 14  8  1  0
 15 13  1  0
 15 17  1  0
 16 15  2  0
 18 17  1  0
 18 25  1  0
 18 19  1  1
 20 19  1  0
 21 20  2  0
 22 23  1  0
 22 21  1  0
 23 24  2  0
 24 20  1  0
 25 27  1  0
 26 25  2  0
M  END
$$$$
