KTH.pdb
     RDKit          3D

 27 27  0  0  1  0  0  0  0  0999 V2000
   25.5749  -15.6486  -19.1970 N   0  0  0  0  0  0  0  0  0  0  0  0
   24.4551  -15.1418  -19.9673 C   0  0  1  0  0  0  0  0  0  0  0  0
   24.9415  -14.8367  -21.3670 C   0  0  0  0  0  0  0  0  0  0  0  0
   26.0217  -13.7906  -21.3426 C   0  0  0  0  0  0  0  0  0  0  0  0
   26.5836  -13.5523  -22.7305 C   0  0  0  0  0  0  0  0  0  0  0  0
   27.7779  -12.6015  -22.6416 C   0  0  0  0  0  0  0  0  0  0  0  0
   28.3363  -12.3182  -23.9352 N   0  0  0  0  0  0  0  0  0  0  0  0
   23.3988  -16.2027  -20.0127 C   0  0  0  0  0  0  0  0  0  0  0  0
   22.3601  -16.0265  -20.6914 O   0  0  0  0  0  0  0  0  0  0  0  0
   23.9083  -19.6586  -20.9494 C   0  0  0  0  0  0  0  0  0  0  0  0
   23.2676  -19.8040  -19.5682 C   0  0  1  0  0  0  0  0  0  0  0  0
   24.3172  -20.0368  -18.6822 O   0  0  0  0  0  0  0  0  0  0  0  0
   22.6339  -18.4964  -19.2430 C   0  0  2  0  0  0  0  0  0  0  0  0
   23.5779  -17.4169  -19.2801 N   0  0  0  0  0  0  0  0  0  0  0  0
   21.8800  -18.4778  -17.9726 C   0  0  0  0  0  0  0  0  0  0  0  0
   22.4471  -18.0886  -16.9440 O   0  0  0  0  0  0  0  0  0  0  0  0
   20.5042  -18.8904  -17.8514 N   0  0  0  0  0  0  0  0  0  0  0  0
   19.7946  -18.8492  -16.6184 C   0  0  1  0  0  0  0  0  0  0  0  0
   19.0896  -17.6167  -16.2501 C   0  0  0  0  0  0  0  0  0  0  0  0
   19.2848  -17.0915  -14.8836 C   0  0  0  0  0  0  0  0  0  0  0  0
   20.1022  -17.5699  -13.9135 C   0  0  0  0  0  0  0  0  0  0  0  0
   19.9742  -16.7485  -12.8261 N   0  0  0  0  0  0  0  0  0  0  0  0
   19.1010  -15.7953  -13.1303 C   0  0  0  0  0  0  0  0  0  0  0  0
   18.6715  -15.9881  -14.3776 N   0  0  0  0  0  0  0  0  0  0  0  0
   18.8272  -20.0044  -16.5488 C   0  0  0  0  0  0  0  0  0  0  0  0
   18.1222  -20.2885  -17.5463 O   0  0  0  0  0  0  0  0  0  0  0  0
   18.6795  -20.7809  -15.4107 O   0  0  0  0  0  0  0  0  0  0  0  0
  2  1  1  1
  2  3  1  0
  4  3  1  0
  4  5  1  0
  5  6  1  0
  7  6  1  0
  8  9  2  0
  8  2  1  0
 11 10  1  6
 11 13  1  0
 12 11  1  0
 13 14  1  1
 14  8  1  0
 15 13  1  0
 15 17  1  0
 16 15  2  0
 18 17  1  0
 18 25  1  0
 18 19  1  6
 20 19  1  0
 21 20  2  0
 22 23  1  0
 22 21  1  0
 23 24  2  0
 24 20  1  0
 25 27  1  0
 26 25  2  0
M  END
$$$$
