KTH.pdb
     RDKit          3D

 27 27  0  0  1  0  0  0  0  0999 V2000
   24.7942  -20.6304   -8.2790 N   0  0  0  0  0  0  0  0  0  0  0  0
   25.9797  -20.0882   -8.9150 C   0  0  1  0  0  0  0  0  0  0  0  0
   27.1730  -20.4012   -8.0395 C   0  0  0  0  0  0  0  0  0  0  0  0
   27.0940  -19.6515   -6.7381 C   0  0  0  0  0  0  0  0  0  0  0  0
   28.2946  -19.9498   -5.8614 C   0  0  0  0  0  0  0  0  0  0  0  0
   28.1941  -19.1431   -4.5663 C   0  0  0  0  0  0  0  0  0  0  0  0
   29.2496  -19.4695   -3.6471 N   0  0  0  0  0  0  0  0  0  0  0  0
   26.1381  -20.7473  -10.2507 C   0  0  0  0  0  0  0  0  0  0  0  0
   26.0908  -21.9962  -10.3446 O   0  0  0  0  0  0  0  0  0  0  0  0
   25.1907  -22.4216  -12.0252 C   0  0  0  0  0  0  0  0  0  0  0  0
   25.2530  -21.3252  -13.0898 C   0  0  1  0  0  0  0  0  0  0  0  0
   24.0803  -20.5868  -12.9476 O   0  0  0  0  0  0  0  0  0  0  0  0
   26.4188  -20.4609  -12.7562 C   0  0  2  0  0  0  0  0  0  0  0  0
   26.3435  -19.9489  -11.4182 N   0  0  0  0  0  0  0  0  0  0  0  0
   26.6646  -19.3637  -13.7144 C   0  0  0  0  0  0  0  0  0  0  0  0
   26.3429  -18.2106  -13.4017 O   0  0  0  0  0  0  0  0  0  0  0  0
   27.2648  -19.5523  -15.0114 N   0  0  0  0  0  0  0  0  0  0  0  0
   27.5468  -18.4711  -15.8928 C   0  0  1  0  0  0  0  0  0  0  0  0
   28.9095  -18.3224  -16.4149 C   0  0  0  0  0  0  0  0  0  0  0  0
   29.1553  -17.2602  -17.4112 C   0  0  0  0  0  0  0  0  0  0  0  0
   28.2689  -16.3674  -17.9165 C   0  0  0  0  0  0  0  0  0  0  0  0
   28.9500  -15.5592  -18.7861 N   0  0  0  0  0  0  0  0  0  0  0  0
   30.2183  -15.9525  -18.8068 C   0  0  0  0  0  0  0  0  0  0  0  0
   30.3613  -16.9857  -17.9766 N   0  0  0  0  0  0  0  0  0  0  0  0
   26.5801  -18.4927  -17.0505 C   0  0  0  0  0  0  0  0  0  0  0  0
   26.6374  -17.5983  -17.9278 O   0  0  0  0  0  0  0  0  0  0  0  0
   25.6129  -19.4749  -17.1913 O   0  0  0  0  0  0  0  0  0  0  0  0
  2  1  1  1
  2  3  1  0
  4  3  1  0
  4  5  1  0
  5  6  1  0
  7  6  1  0
  8  9  2  0
  8  2  1  0
 11 10  1  1
 11 13  1  0
 12 11  1  0
 13 14  1  1
 14  8  1  0
 15 13  1  0
 15 17  1  0
 16 15  2  0
 18 17  1  0
 18 25  1  0
 18 19  1  6
 20 19  1  0
 21 20  2  0
 22 23  1  0
 22 21  1  0
 23 24  2  0
 24 20  1  0
 25 27  1  0
 26 25  2  0
M  END
$$$$
