KTH.pdb
     RDKit          3D

 27 27  0  0  1  0  0  0  0  0999 V2000
   25.3856  -19.3278  -19.4581 N   0  0  0  0  0  0  0  0  0  0  0  0
   25.0168  -18.8973  -18.1230 C   0  0  1  0  0  0  0  0  0  0  0  0
   23.5112  -18.7597  -18.0678 C   0  0  0  0  0  0  0  0  0  0  0  0
   23.0393  -17.6658  -18.9858 C   0  0  0  0  0  0  0  0  0  0  0  0
   21.5471  -17.4382  -18.8433 C   0  0  0  0  0  0  0  0  0  0  0  0
   21.1220  -16.2678  -19.7308 C   0  0  0  0  0  0  0  0  0  0  0  0
   21.7723  -15.0432  -19.3524 N   0  0  0  0  0  0  0  0  0  0  0  0
   25.4709  -19.9426  -17.1512 C   0  0  0  0  0  0  0  0  0  0  0  0
   25.9856  -21.0067  -17.5679 O   0  0  0  0  0  0  0  0  0  0  0  0
   28.0471  -19.0613  -14.8180 C   0  0  0  0  0  0  0  0  0  0  0  0
   27.5012  -20.4765  -15.0143 C   0  0  1  0  0  0  0  0  0  0  0  0
   28.1293  -21.2654  -14.0531 O   0  0  0  0  0  0  0  0  0  0  0  0
   26.0413  -20.4234  -14.7259 C   0  0  2  0  0  0  0  0  0  0  0  0
   25.3162  -19.7242  -15.7472 N   0  0  0  0  0  0  0  0  0  0  0  0
   25.6974  -19.8890  -13.3923 C   0  0  0  0  0  0  0  0  0  0  0  0
   25.1737  -18.7709  -13.3108 O   0  0  0  0  0  0  0  0  0  0  0  0
   25.9361  -20.5970  -12.1596 N   0  0  0  0  0  0  0  0  0  0  0  0
   25.0411  -20.5405  -11.0545 C   0  0  1  0  0  0  0  0  0  0  0  0
   23.7687  -21.2656  -11.1384 C   0  0  0  0  0  0  0  0  0  0  0  0
   22.7215  -20.7221  -12.0268 C   0  0  0  0  0  0  0  0  0  0  0  0
   22.7626  -19.5901  -12.7717 C   0  0  0  0  0  0  0  0  0  0  0  0
   21.5798  -19.5045  -13.4552 N   0  0  0  0  0  0  0  0  0  0  0  0
   20.8402  -20.5594  -13.1325 C   0  0  0  0  0  0  0  0  0  0  0  0
   21.5188  -21.3106  -12.2650 N   0  0  0  0  0  0  0  0  0  0  0  0
   25.7593  -20.9589   -9.7958 C   0  0  0  0  0  0  0  0  0  0  0  0
   26.8136  -21.6334   -9.8741 O   0  0  0  0  0  0  0  0  0  0  0  0
   25.2979  -20.6252   -8.5325 O   0  0  0  0  0  0  0  0  0  0  0  0
  2  1  1  6
  2  3  1  0
  4  3  1  0
  4  5  1  0
  5  6  1  0
  7  6  1  0
  8  9  2  0
  8  2  1  0
 11 10  1  1
 11 13  1  0
 12 11  1  0
 13 14  1  6
 14  8  1  0
 15 13  1  0
 15 17  1  0
 16 15  2  0
 18 17  1  0
 18 25  1  0
 18 19  1  6
 20 19  1  0
 21 20  2  0
 22 23  1  0
 22 21  1  0
 23 24  2  0
 24 20  1  0
 25 27  1  0
 26 25  2  0
M  END
$$$$
