KTH.pdb
     RDKit          3D

 27 27  0  0  1  0  0  0  0  0999 V2000
   26.3490  -19.7119  -15.6877 N   0  0  0  0  0  0  0  0  0  0  0  0
   25.3607  -19.0728  -16.5356 C   0  0  1  0  0  0  0  0  0  0  0  0
   24.2036  -20.0298  -16.7198 C   0  0  0  0  0  0  0  0  0  0  0  0
   24.5835  -21.1592  -17.6374 C   0  0  0  0  0  0  0  0  0  0  0  0
   25.2689  -22.2763  -16.8750 C   0  0  0  0  0  0  0  0  0  0  0  0
   25.7038  -23.3693  -17.8519 C   0  0  0  0  0  0  0  0  0  0  0  0
   26.3047  -24.4860  -17.1755 N   0  0  0  0  0  0  0  0  0  0  0  0
   24.8902  -17.8270  -15.8501 C   0  0  0  0  0  0  0  0  0  0  0  0
   25.0741  -17.6794  -14.6192 O   0  0  0  0  0  0  0  0  0  0  0  0
   25.8235  -15.9055  -14.6517 C   0  0  0  0  0  0  0  0  0  0  0  0
   25.1177  -14.8415  -15.4937 C   0  0  1  0  0  0  0  0  0  0  0  0
   26.0180  -14.4878  -16.4962 O   0  0  0  0  0  0  0  0  0  0  0  0
   23.9294  -15.4930  -16.1109 C   0  0  2  0  0  0  0  0  0  0  0  0
   24.2308  -16.8064  -16.6028 N   0  0  0  0  0  0  0  0  0  0  0  0
   23.2633  -14.6912  -17.1577 C   0  0  0  0  0  0  0  0  0  0  0  0
   23.1998  -15.1411  -18.3086 O   0  0  0  0  0  0  0  0  0  0  0  0
   22.6729  -13.3975  -16.9217 N   0  0  0  0  0  0  0  0  0  0  0  0
   21.3150  -13.1040  -17.2306 C   0  0  1  0  0  0  0  0  0  0  0  0
   20.2677  -14.0046  -16.7368 C   0  0  0  0  0  0  0  0  0  0  0  0
   19.9443  -15.1971  -17.5460 C   0  0  0  0  0  0  0  0  0  0  0  0
   20.4998  -15.5858  -18.7201 C   0  0  0  0  0  0  0  0  0  0  0  0
   19.9065  -16.7639  -19.0854 N   0  0  0  0  0  0  0  0  0  0  0  0
   19.0136  -17.0814  -18.1550 C   0  0  0  0  0  0  0  0  0  0  0  0
   19.0232  -16.1399  -17.2112 N   0  0  0  0  0  0  0  0  0  0  0  0
   20.9887  -11.6948  -16.8028 C   0  0  0  0  0  0  0  0  0  0  0  0
   19.8779  -11.1941  -17.0998 O   0  0  0  0  0  0  0  0  0  0  0  0
   21.8780  -10.9135  -16.0826 O   0  0  0  0  0  0  0  0  0  0  0  0
  2  1  1  1
  2  3  1  0
  4  3  1  0
  4  5  1  0
  5  6  1  0
  7  6  1  0
  8  9  2  0
  8  2  1  0
 11 10  1  1
 11 13  1  0
 12 11  1  0
 13 14  1  6
 14  8  1  0
 15 13  1  0
 15 17  1  0
 16 15  2  0
 18 17  1  0
 18 25  1  0
 18 19  1  1
 20 19  1  0
 21 20  2  0
 22 23  1  0
 22 21  1  0
 23 24  2  0
 24 20  1  0
 25 27  1  0
 26 25  2  0
M  END
$$$$
