KTH.pdb
     RDKit          3D

 27 27  0  0  1  0  0  0  0  0999 V2000
   35.2920  -11.1013  -16.8484 N   0  0  0  0  0  0  0  0  0  0  0  0
   34.4279  -10.6678  -17.9298 C   0  0  1  0  0  0  0  0  0  0  0  0
   33.8861  -11.8968  -18.6259 C   0  0  0  0  0  0  0  0  0  0  0  0
   35.0030  -12.8179  -19.0333 C   0  0  0  0  0  0  0  0  0  0  0  0
   34.4651  -14.0643  -19.7087 C   0  0  0  0  0  0  0  0  0  0  0  0
   35.6306  -14.9579  -20.1343 C   0  0  0  0  0  0  0  0  0  0  0  0
   35.1812  -16.2406  -20.6015 N   0  0  0  0  0  0  0  0  0  0  0  0
   33.3018   -9.8750  -17.3410 C   0  0  0  0  0  0  0  0  0  0  0  0
   33.2777   -9.6358  -16.1110 O   0  0  0  0  0  0  0  0  0  0  0  0
   32.9122   -7.6270  -16.2003 C   0  0  0  0  0  0  0  0  0  0  0  0
   31.8808   -7.1897  -17.2417 C   0  0  1  0  0  0  0  0  0  0  0  0
   32.6011   -6.5504  -18.2483 O   0  0  0  0  0  0  0  0  0  0  0  0
   31.2659   -8.4292  -17.7919 C   0  0  2  0  0  0  0  0  0  0  0  0
   32.2545   -9.3916  -18.1849 N   0  0  0  0  0  0  0  0  0  0  0  0
   30.3027   -8.2028  -18.8889 C   0  0  0  0  0  0  0  0  0  0  0  0
   30.1848   -9.0626  -19.7708 O   0  0  0  0  0  0  0  0  0  0  0  0
   29.4778   -7.0260  -19.0006 N   0  0  0  0  0  0  0  0  0  0  0  0
   28.3456   -6.9592  -19.8602 C   0  0  1  0  0  0  0  0  0  0  0  0
   27.2830   -7.9590  -19.7077 C   0  0  0  0  0  0  0  0  0  0  0  0
   26.1482   -7.9101  -20.6516 C   0  0  0  0  0  0  0  0  0  0  0  0
   26.0096   -7.1302  -21.7519 C   0  0  0  0  0  0  0  0  0  0  0  0
   24.8108   -7.4466  -22.3317 N   0  0  0  0  0  0  0  0  0  0  0  0
   24.2373   -8.3955  -21.6007 C   0  0  0  0  0  0  0  0  0  0  0  0
   25.0365   -8.6897  -20.5750 N   0  0  0  0  0  0  0  0  0  0  0  0
   27.7339   -5.5822  -19.7904 C   0  0  0  0  0  0  0  0  0  0  0  0
   27.8538   -4.8986  -18.7458 O   0  0  0  0  0  0  0  0  0  0  0  0
   27.0320   -5.0276  -20.8486 O   0  0  0  0  0  0  0  0  0  0  0  0
  2  1  1  1
  2  3  1  0
  4  3  1  0
  4  5  1  0
  5  6  1  0
  7  6  1  0
  8  9  2  0
  8  2  1  0
 11 10  1  1
 11 13  1  0
 12 11  1  0
 13 14  1  6
 14  8  1  0
 15 13  1  0
 15 17  1  0
 16 15  2  0
 18 17  1  0
 18 25  1  0
 18 19  1  1
 20 19  1  0
 21 20  2  0
 22 23  1  0
 22 21  1  0
 23 24  2  0
 24 20  1  0
 25 27  1  0
 26 25  2  0
M  END
$$$$
