SKQ.pdb
     RDKit          3D

 25 24  0  0  1  0  0  0  0  0999 V2000
   11.2384  -14.7083   18.1933 O   0  0  0  0  0  0  0  0  0  0  0  0
   10.8592  -14.8041   19.5271 C   0  0  0  0  0  0  0  0  0  0  0  0
    9.3502  -14.7766   19.5936 C   0  0  2  0  0  0  0  0  0  0  0  0
    8.8474  -13.5347   19.2179 N   0  0  0  0  0  0  0  0  0  0  0  0
    8.9048  -15.1845   20.9808 C   0  0  0  0  0  0  0  0  0  0  0  0
    8.6172  -14.3456   21.8372 O   0  0  0  0  0  0  0  0  0  0  0  0
    8.8261  -16.5350   21.2713 N   0  0  0  0  0  0  0  0  0  0  0  0
    8.4092  -17.2524   22.4067 C   0  0  1  0  0  0  0  0  0  0  0  0
    7.7423  -18.5770   22.2776 C   0  0  0  0  0  0  0  0  0  0  0  0
    7.4795  -19.2222   23.5946 C   0  0  0  0  0  0  0  0  0  0  0  0
    6.9311  -20.6509   23.4167 C   0  0  0  0  0  0  0  0  0  0  0  0
    6.6481  -21.2584   24.7841 C   0  0  0  0  0  0  0  0  0  0  0  0
    6.2906  -22.6590   24.6671 N   0  0  0  0  0  0  0  0  0  0  0  0
    9.3657  -17.0910   23.4922 C   0  0  0  0  0  0  0  0  0  0  0  0
   10.5744  -17.3196   23.2855 O   0  0  0  0  0  0  0  0  0  0  0  0
    8.7146  -13.5830   28.5319 N   0  0  0  0  0  0  0  0  0  0  0  0
    9.9565  -14.1722   28.8409 C   0  0  0  0  0  0  0  0  0  0  0  0
   10.5690  -13.8240   29.8659 O   0  0  0  0  0  0  0  0  0  0  0  0
   10.4928  -15.2172   27.8947 C   0  0  0  0  0  0  0  0  0  0  0  0
    9.5199  -15.4402   26.7873 C   0  0  0  0  0  0  0  0  0  0  0  0
    9.9678  -16.4632   25.8066 C   0  0  2  0  0  0  0  0  0  0  0  0
    8.9715  -16.6838   24.7716 N   0  0  0  0  0  0  0  0  0  0  0  0
   10.1989  -17.7568   26.4770 C   0  0  0  0  0  0  0  0  0  0  0  0
   11.3711  -18.1707   27.0798 O   0  0  0  0  0  0  0  0  0  0  0  0
    9.2289  -18.5874   26.5092 O   0  0  0  0  0  0  0  0  0  0  0  0
  2  1  1  0
  3  2  1  0
  3  4  1  1
  5  6  2  0
  5  3  1  0
  7  5  1  0
  8  7  1  0
  8  9  1  6
 10  9  1  0
 11 10  1  0
 12 11  1  0
 12 13  1  0
 14 22  1  0
 14  8  1  0
 15 14  2  0
 17 18  2  0
 17 16  1  0
 19 17  1  0
 21 20  1  1
 20 19  1  0
 21 23  1  0
 21 22  1  0
 23 24  1  0
 25 23  2  0
M  END
$$$$
