SKQ.pdb
     RDKit          3D

 25 24  0  0  1  0  0  0  0  0999 V2000
    6.2709  -20.4405   21.4530 O   0  0  0  0  0  0  0  0  0  0  0  0
    5.3014  -19.4819   21.1825 C   0  0  0  0  0  0  0  0  0  0  0  0
    5.7428  -18.6896   19.9744 C   0  0  2  0  0  0  0  0  0  0  0  0
    5.9383  -19.5135   18.8700 N   0  0  0  0  0  0  0  0  0  0  0  0
    6.9792  -17.8918   20.3258 C   0  0  0  0  0  0  0  0  0  0  0  0
    8.1069  -18.3831   20.2449 O   0  0  0  0  0  0  0  0  0  0  0  0
    6.8155  -16.5833   20.7450 N   0  0  0  0  0  0  0  0  0  0  0  0
    7.7093  -15.6037   21.2129 C   0  0  1  0  0  0  0  0  0  0  0  0
    7.3021  -14.1754   21.3122 C   0  0  0  0  0  0  0  0  0  0  0  0
    8.0106  -13.3033   20.3338 C   0  0  0  0  0  0  0  0  0  0  0  0
    7.5899  -13.6298   18.8881 C   0  0  0  0  0  0  0  0  0  0  0  0
    8.4490  -12.8298   17.9180 C   0  0  0  0  0  0  0  0  0  0  0  0
    8.1353  -13.1696   16.5436 N   0  0  0  0  0  0  0  0  0  0  0  0
    8.5354  -16.1372   22.2864 C   0  0  0  0  0  0  0  0  0  0  0  0
    8.0007  -16.4863   23.3579 O   0  0  0  0  0  0  0  0  0  0  0  0
   13.4167  -20.9994   24.0506 N   0  0  0  0  0  0  0  0  0  0  0  0
   12.7262  -20.1378   23.1756 C   0  0  0  0  0  0  0  0  0  0  0  0
   12.6292  -20.4275   21.9699 O   0  0  0  0  0  0  0  0  0  0  0  0
   12.1264  -18.8812   23.7556 C   0  0  0  0  0  0  0  0  0  0  0  0
   11.3435  -18.1669   22.7070 C   0  0  0  0  0  0  0  0  0  0  0  0
   10.6932  -16.9251   23.2010 C   0  0  2  0  0  0  0  0  0  0  0  0
    9.9218  -16.2734   22.1555 N   0  0  0  0  0  0  0  0  0  0  0  0
   11.7068  -15.9595   23.6659 C   0  0  0  0  0  0  0  0  0  0  0  0
   12.0856  -14.7953   23.0256 O   0  0  0  0  0  0  0  0  0  0  0  0
   12.3031  -16.2126   24.7669 O   0  0  0  0  0  0  0  0  0  0  0  0
  2  1  1  0
  3  2  1  0
  3  4  1  6
  5  6  2  0
  5  3  1  0
  7  5  1  0
  8  7  1  0
  8  9  1  1
 10  9  1  0
 11 10  1  0
 12 11  1  0
 12 13  1  0
 14 22  1  0
 14  8  1  0
 15 14  2  0
 17 18  2  0
 17 16  1  0
 19 17  1  0
 21 20  1  6
 20 19  1  0
 21 23  1  0
 21 22  1  0
 23 24  1  0
 25 23  2  0
M  END
$$$$
