SKQ.pdb
     RDKit          3D

 25 24  0  0  1  0  0  0  0  0999 V2000
   10.2301  -13.5387   19.9775 O   0  0  0  0  0  0  0  0  0  0  0  0
    9.2360  -14.0473   19.1496 C   0  0  0  0  0  0  0  0  0  0  0  0
    7.8953  -13.6395   19.7138 C   0  0  2  0  0  0  0  0  0  0  0  0
    7.7746  -12.2551   19.7875 N   0  0  0  0  0  0  0  0  0  0  0  0
    7.6945  -14.3089   21.0556 C   0  0  0  0  0  0  0  0  0  0  0  0
    7.6634  -13.6575   22.1018 O   0  0  0  0  0  0  0  0  0  0  0  0
    7.5449  -15.6842   21.0840 N   0  0  0  0  0  0  0  0  0  0  0  0
    7.4188  -16.6171   22.1287 C   0  0  1  0  0  0  0  0  0  0  0  0
    6.8676  -17.9778   21.8825 C   0  0  0  0  0  0  0  0  0  0  0  0
    6.8562  -18.8267   23.1068 C   0  0  0  0  0  0  0  0  0  0  0  0
    6.2241  -20.2034   22.8257 C   0  0  0  0  0  0  0  0  0  0  0  0
    6.0934  -20.9764   24.1312 C   0  0  0  0  0  0  0  0  0  0  0  0
    5.4685  -22.2664   23.9115 N   0  0  0  0  0  0  0  0  0  0  0  0
    8.5428  -16.5098   23.0475 C   0  0  0  0  0  0  0  0  0  0  0  0
    9.7072  -16.5709   22.6042 O   0  0  0  0  0  0  0  0  0  0  0  0
    8.7597  -13.3909   28.2953 N   0  0  0  0  0  0  0  0  0  0  0  0
    9.9663  -14.1011   28.4525 C   0  0  0  0  0  0  0  0  0  0  0  0
   10.6986  -13.8688   29.4306 O   0  0  0  0  0  0  0  0  0  0  0  0
   10.3176  -15.1291   27.4060 C   0  0  0  0  0  0  0  0  0  0  0  0
    9.2377  -15.1921   26.3800 C   0  0  0  0  0  0  0  0  0  0  0  0
    9.5092  -16.1746   25.2986 C   0  0  2  0  0  0  0  0  0  0  0  0
    8.3598  -16.3384   24.4241 N   0  0  0  0  0  0  0  0  0  0  0  0
    9.8199  -17.4993   25.8685 C   0  0  0  0  0  0  0  0  0  0  0  0
   11.0719  -17.9713   26.2128 O   0  0  0  0  0  0  0  0  0  0  0  0
    8.8452  -18.3008   26.0669 O   0  0  0  0  0  0  0  0  0  0  0  0
  2  1  1  0
  3  2  1  0
  3  4  1  1
  5  6  2  0
  5  3  1  0
  7  5  1  0
  8  7  1  0
  8  9  1  6
 10  9  1  0
 11 10  1  0
 12 11  1  0
 12 13  1  0
 14 22  1  0
 14  8  1  0
 15 14  2  0
 17 18  2  0
 17 16  1  0
 19 17  1  0
 21 20  1  1
 20 19  1  0
 21 23  1  0
 21 22  1  0
 23 24  1  0
 25 23  2  0
M  END
$$$$
