SKQ.pdb
     RDKit          3D

 25 24  0  0  1  0  0  0  0  0999 V2000
    9.2138  -12.2670   16.8868 O   0  0  0  0  0  0  0  0  0  0  0  0
    9.3792  -12.9847   18.0656 C   0  0  0  0  0  0  0  0  0  0  0  0
    8.0487  -13.5945   18.4395 C   0  0  2  0  0  0  0  0  0  0  0  0
    7.1910  -12.6459   18.9882 N   0  0  0  0  0  0  0  0  0  0  0  0
    8.2807  -14.7678   19.3661 C   0  0  0  0  0  0  0  0  0  0  0  0
    8.1863  -14.6504   20.5896 O   0  0  0  0  0  0  0  0  0  0  0  0
    8.6051  -15.9901   18.8043 N   0  0  0  0  0  0  0  0  0  0  0  0
    8.8837  -17.2561   19.3494 C   0  0  1  0  0  0  0  0  0  0  0  0
    8.7660  -18.4908   18.5263 C   0  0  0  0  0  0  0  0  0  0  0  0
    9.0459  -19.7314   19.3024 C   0  0  0  0  0  0  0  0  0  0  0  0
    7.8171  -20.6601   19.3325 C   0  0  0  0  0  0  0  0  0  0  0  0
    8.1427  -21.9040   20.1486 C   0  0  0  0  0  0  0  0  0  0  0  0
    7.0322  -22.8367   20.1405 N   0  0  0  0  0  0  0  0  0  0  0  0
   10.0033  -17.1777   20.2765 C   0  0  0  0  0  0  0  0  0  0  0  0
   11.0182  -16.5246   19.9610 O   0  0  0  0  0  0  0  0  0  0  0  0
   12.6806  -19.1759   26.9088 N   0  0  0  0  0  0  0  0  0  0  0  0
   11.6857  -19.0924   25.9148 C   0  0  0  0  0  0  0  0  0  0  0  0
   10.5811  -19.6341   26.0973 O   0  0  0  0  0  0  0  0  0  0  0  0
   12.0157  -18.3349   24.6528 C   0  0  0  0  0  0  0  0  0  0  0  0
   10.8721  -18.4217   23.7002 C   0  0  0  0  0  0  0  0  0  0  0  0
   11.1024  -17.6783   22.4341 C   0  0  2  0  0  0  0  0  0  0  0  0
    9.9792  -17.8156   21.5217 N   0  0  0  0  0  0  0  0  0  0  0  0
   12.2975  -18.1947   21.7405 C   0  0  0  0  0  0  0  0  0  0  0  0
   13.5551  -17.6226   21.7364 O   0  0  0  0  0  0  0  0  0  0  0  0
   12.1719  -19.2758   21.0717 O   0  0  0  0  0  0  0  0  0  0  0  0
  2  1  1  0
  3  2  1  0
  3  4  1  1
  5  6  2  0
  5  3  1  0
  7  5  1  0
  8  7  1  0
  8  9  1  6
 10  9  1  0
 11 10  1  0
 12 11  1  0
 12 13  1  0
 14 22  1  0
 14  8  1  0
 15 14  2  0
 17 18  2  0
 17 16  1  0
 19 17  1  0
 21 20  1  1
 20 19  1  0
 21 23  1  0
 21 22  1  0
 23 24  1  0
 25 23  2  0
M  END
$$$$
