SKQ.pdb
     RDKit          3D

 25 24  0  0  1  0  0  0  0  0999 V2000
    9.1306  -20.8695   18.8162 O   0  0  0  0  0  0  0  0  0  0  0  0
    7.8626  -20.3279   18.6403 C   0  0  0  0  0  0  0  0  0  0  0  0
    8.0035  -19.0286   17.8825 C   0  0  2  0  0  0  0  0  0  0  0  0
    8.7012  -19.2076   16.6919 N   0  0  0  0  0  0  0  0  0  0  0  0
    8.6484  -17.9954   18.7800 C   0  0  0  0  0  0  0  0  0  0  0  0
    9.8591  -17.7675   18.7329 O   0  0  0  0  0  0  0  0  0  0  0  0
    7.8410  -17.3034   19.6655 N   0  0  0  0  0  0  0  0  0  0  0  0
    8.0992  -16.3168   20.6337 C   0  0  1  0  0  0  0  0  0  0  0  0
    7.0053  -15.4629   21.1723 C   0  0  0  0  0  0  0  0  0  0  0  0
    7.3951  -14.0296   21.2884 C   0  0  0  0  0  0  0  0  0  0  0  0
    7.7504  -13.4346   19.9124 C   0  0  0  0  0  0  0  0  0  0  0  0
    8.1442  -11.9730   20.0793 C   0  0  0  0  0  0  0  0  0  0  0  0
    8.5160  -11.3859   18.8065 N   0  0  0  0  0  0  0  0  0  0  0  0
    9.1100  -16.7770   21.5748 C   0  0  0  0  0  0  0  0  0  0  0  0
    9.0457  -17.9377   22.0272 O   0  0  0  0  0  0  0  0  0  0  0  0
   14.8825  -14.7445   21.6667 N   0  0  0  0  0  0  0  0  0  0  0  0
   14.9623  -15.5867   22.7933 C   0  0  0  0  0  0  0  0  0  0  0  0
   16.0487  -15.7336   23.3808 O   0  0  0  0  0  0  0  0  0  0  0  0
   13.7011  -16.2827   23.2405 C   0  0  0  0  0  0  0  0  0  0  0  0
   12.5594  -15.8560   22.3820 C   0  0  0  0  0  0  0  0  0  0  0  0
   11.2759  -16.5152   22.7383 C   0  0  2  0  0  0  0  0  0  0  0  0
   10.1616  -15.9539   21.9926 N   0  0  0  0  0  0  0  0  0  0  0  0
   10.9810  -16.3333   24.1722 C   0  0  0  0  0  0  0  0  0  0  0  0
   10.1057  -15.4154   24.7200 O   0  0  0  0  0  0  0  0  0  0  0  0
   11.5893  -17.0910   25.0015 O   0  0  0  0  0  0  0  0  0  0  0  0
  2  1  1  0
  3  2  1  0
  3  4  1  6
  5  6  2  0
  5  3  1  0
  7  5  1  0
  8  7  1  0
  8  9  1  1
 10  9  1  0
 11 10  1  0
 12 11  1  0
 12 13  1  0
 14 22  1  0
 14  8  1  0
 15 14  2  0
 17 18  2  0
 17 16  1  0
 19 17  1  0
 21 20  1  6
 20 19  1  0
 21 23  1  0
 21 22  1  0
 23 24  1  0
 25 23  2  0
M  END
$$$$
