SKQ.pdb
     RDKit          3D

 25 24  0  0  1  0  0  0  0  0999 V2000
   10.6619  -12.9926   18.8381 O   0  0  0  0  0  0  0  0  0  0  0  0
    9.8505  -14.1209   18.8674 C   0  0  0  0  0  0  0  0  0  0  0  0
    8.4677  -13.6985   19.3051 C   0  0  2  0  0  0  0  0  0  0  0  0
    8.3210  -12.3154   19.2613 N   0  0  0  0  0  0  0  0  0  0  0  0
    8.1843  -14.2662   20.6785 C   0  0  0  0  0  0  0  0  0  0  0  0
    8.2321  -13.5614   21.6888 O   0  0  0  0  0  0  0  0  0  0  0  0
    7.8667  -15.6093   20.7778 N   0  0  0  0  0  0  0  0  0  0  0  0
    7.5269  -16.4403   21.8602 C   0  0  1  0  0  0  0  0  0  0  0  0
    6.8336  -17.7398   21.6442 C   0  0  0  0  0  0  0  0  0  0  0  0
    6.6487  -18.5124   22.9046 C   0  0  0  0  0  0  0  0  0  0  0  0
    5.9287  -19.8485   22.6398 C   0  0  0  0  0  0  0  0  0  0  0  0
    5.7778  -20.6104   23.9497 C   0  0  0  0  0  0  0  0  0  0  0  0
    5.0319  -21.8386   23.7540 N   0  0  0  0  0  0  0  0  0  0  0  0
    8.5650  -16.4005   22.8800 C   0  0  0  0  0  0  0  0  0  0  0  0
    9.7498  -16.6242   22.5603 O   0  0  0  0  0  0  0  0  0  0  0  0
    8.2439  -13.4948   28.3413 N   0  0  0  0  0  0  0  0  0  0  0  0
    9.4898  -14.1301   28.5116 C   0  0  0  0  0  0  0  0  0  0  0  0
   10.1409  -13.9466   29.5553 O   0  0  0  0  0  0  0  0  0  0  0  0
    9.9828  -15.0194   27.3974 C   0  0  0  0  0  0  0  0  0  0  0  0
    8.9291  -15.1451   26.3502 C   0  0  0  0  0  0  0  0  0  0  0  0
    9.3546  -15.9577   25.1809 C   0  0  2  0  0  0  0  0  0  0  0  0
    8.2761  -16.1165   24.2194 N   0  0  0  0  0  0  0  0  0  0  0  0
    9.7629  -17.3086   25.6102 C   0  0  0  0  0  0  0  0  0  0  0  0
    8.9449  -18.4164   25.7220 O   0  0  0  0  0  0  0  0  0  0  0  0
   10.9909  -17.4863   25.9138 O   0  0  0  0  0  0  0  0  0  0  0  0
  2  1  1  0
  3  2  1  0
  3  4  1  1
  5  6  2  0
  5  3  1  0
  7  5  1  0
  8  7  1  0
  8  9  1  6
 10  9  1  0
 11 10  1  0
 12 11  1  0
 12 13  1  0
 14 22  1  0
 14  8  1  0
 15 14  2  0
 17 18  2  0
 17 16  1  0
 19 17  1  0
 21 20  1  1
 20 19  1  0
 21 23  1  0
 21 22  1  0
 23 24  1  0
 25 23  2  0
M  END
$$$$
