SKQ.pdb
     RDKit          3D

 25 24  0  0  1  0  0  0  0  0999 V2000
   10.4719  -13.4940   19.7380 O   0  0  0  0  0  0  0  0  0  0  0  0
    9.5192  -14.0972   18.9252 C   0  0  0  0  0  0  0  0  0  0  0  0
    8.1505  -13.6828   19.4119 C   0  0  2  0  0  0  0  0  0  0  0  0
    7.9991  -12.2998   19.3863 N   0  0  0  0  0  0  0  0  0  0  0  0
    7.9137  -14.2643   20.7884 C   0  0  0  0  0  0  0  0  0  0  0  0
    7.9053  -13.5527   21.7951 O   0  0  0  0  0  0  0  0  0  0  0  0
    7.7042  -15.6279   20.8947 N   0  0  0  0  0  0  0  0  0  0  0  0
    7.5103  -16.4893   21.9893 C   0  0  1  0  0  0  0  0  0  0  0  0
    6.8941  -17.8326   21.8111 C   0  0  0  0  0  0  0  0  0  0  0  0
    6.8567  -18.6230   23.0735 C   0  0  0  0  0  0  0  0  0  0  0  0
    6.3458  -20.0544   22.8210 C   0  0  0  0  0  0  0  0  0  0  0  0
    6.2520  -20.7994   24.1458 C   0  0  0  0  0  0  0  0  0  0  0  0
    7.5222  -21.4079   24.4914 N   0  0  0  0  0  0  0  0  0  0  0  0
    8.6207  -16.3844   22.9247 C   0  0  0  0  0  0  0  0  0  0  0  0
    9.7895  -16.5133   22.5083 O   0  0  0  0  0  0  0  0  0  0  0  0
   10.7784  -13.5482   29.3109 N   0  0  0  0  0  0  0  0  0  0  0  0
    9.8232  -14.2796   28.5779 C   0  0  0  0  0  0  0  0  0  0  0  0
    8.6334  -14.2818   28.9405 O   0  0  0  0  0  0  0  0  0  0  0  0
   10.2998  -15.0395   27.3652 C   0  0  0  0  0  0  0  0  0  0  0  0
    9.1730  -15.2116   26.4043 C   0  0  0  0  0  0  0  0  0  0  0  0
    9.5581  -15.9442   25.1699 C   0  0  2  0  0  0  0  0  0  0  0  0
    8.4197  -16.1410   24.2879 N   0  0  0  0  0  0  0  0  0  0  0  0
   10.0906  -17.2786   25.5046 C   0  0  0  0  0  0  0  0  0  0  0  0
   11.4191  -17.6085   25.6922 O   0  0  0  0  0  0  0  0  0  0  0  0
    9.2525  -18.2337   25.6347 O   0  0  0  0  0  0  0  0  0  0  0  0
  2  1  1  0
  3  2  1  0
  3  4  1  1
  5  6  2  0
  5  3  1  0
  7  5  1  0
  8  7  1  0
  8  9  1  6
 10  9  1  0
 11 10  1  0
 12 11  1  0
 12 13  1  0
 14 22  1  0
 14  8  1  0
 15 14  2  0
 17 18  2  0
 17 16  1  0
 19 17  1  0
 21 20  1  1
 20 19  1  0
 21 23  1  0
 21 22  1  0
 23 24  1  0
 25 23  2  0
M  END
$$$$
