SKQ.pdb
     RDKit          3D

 25 24  0  0  1  0  0  0  0  0999 V2000
   10.5147  -17.7561   20.1216 O   0  0  0  0  0  0  0  0  0  0  0  0
    9.9669  -16.7952   19.2797 C   0  0  0  0  0  0  0  0  0  0  0  0
    8.4619  -16.8805   19.3795 C   0  0  2  0  0  0  0  0  0  0  0  0
    7.8430  -16.0806   18.4238 N   0  0  0  0  0  0  0  0  0  0  0  0
    8.0352  -16.5319   20.7885 C   0  0  0  0  0  0  0  0  0  0  0  0
    7.9361  -15.3606   21.1599 O   0  0  0  0  0  0  0  0  0  0  0  0
    7.7552  -17.5680   21.6619 N   0  0  0  0  0  0  0  0  0  0  0  0
    7.1988  -17.6149   22.9525 C   0  0  1  0  0  0  0  0  0  0  0  0
    5.9969  -18.4439   23.2424 C   0  0  0  0  0  0  0  0  0  0  0  0
    6.2970  -19.9028   23.2809 C   0  0  0  0  0  0  0  0  0  0  0  0
    5.0218  -20.7284   23.5375 C   0  0  0  0  0  0  0  0  0  0  0  0
    5.3934  -22.1962   23.7007 C   0  0  0  0  0  0  0  0  0  0  0  0
    4.2245  -22.9976   24.0079 N   0  0  0  0  0  0  0  0  0  0  0  0
    8.2474  -17.5858   23.9619 C   0  0  0  0  0  0  0  0  0  0  0  0
    9.3291  -18.1667   23.7415 O   0  0  0  0  0  0  0  0  0  0  0  0
    8.7584  -13.4254   28.5304 N   0  0  0  0  0  0  0  0  0  0  0  0
    9.8424  -14.2571   28.8741 C   0  0  0  0  0  0  0  0  0  0  0  0
   10.5354  -13.9905   29.8719 O   0  0  0  0  0  0  0  0  0  0  0  0
   10.1146  -15.4541   27.9975 C   0  0  0  0  0  0  0  0  0  0  0  0
    9.0271  -15.5959   26.9876 C   0  0  0  0  0  0  0  0  0  0  0  0
    9.2089  -16.7635   26.0863 C   0  0  2  0  0  0  0  0  0  0  0  0
    8.0817  -16.9217   25.1824 N   0  0  0  0  0  0  0  0  0  0  0  0
    9.3228  -18.0089   26.8687 C   0  0  0  0  0  0  0  0  0  0  0  0
    8.2786  -18.7964   27.3142 O   0  0  0  0  0  0  0  0  0  0  0  0
   10.4966  -18.4100   27.1738 O   0  0  0  0  0  0  0  0  0  0  0  0
  2  1  1  0
  3  2  1  0
  3  4  1  6
  5  6  2  0
  5  3  1  0
  7  5  1  0
  8  7  1  0
  8  9  1  6
 10  9  1  0
 11 10  1  0
 12 11  1  0
 12 13  1  0
 14 22  1  0
 14  8  1  0
 15 14  2  0
 17 18  2  0
 17 16  1  0
 19 17  1  0
 21 20  1  1
 20 19  1  0
 21 23  1  0
 21 22  1  0
 23 24  1  0
 25 23  2  0
M  END
$$$$
