VFE.pdb
     RDKit          3D

 28 28  0  0  1  0  0  0  0  0999 V2000
   27.8680  -22.9266  -18.1151 C   0  0  0  0  0  0  0  0  0  0  0  0
   27.0632  -23.1112  -16.8459 C   0  0  2  0  0  0  0  0  0  0  0  0
   25.8237  -23.8999  -17.2153 C   0  0  0  0  0  0  0  0  0  0  0  0
   26.5938  -21.7821  -16.2971 C   0  0  2  0  0  0  0  0  0  0  0  0
   27.7552  -20.9332  -16.1392 N   0  0  0  0  0  0  0  0  0  0  0  0
   25.8821  -21.9324  -14.9996 C   0  0  0  0  0  0  0  0  0  0  0  0
   24.8003  -22.5668  -14.8989 O   0  0  0  0  0  0  0  0  0  0  0  0
   26.4208  -21.3566  -13.8523 N   0  0  0  0  0  0  0  0  0  0  0  0
   25.7210  -21.2820  -12.5467 C   0  0  1  0  0  0  0  0  0  0  0  0
   26.7962  -20.8130  -11.6062 C   0  0  0  0  0  0  0  0  0  0  0  0
   26.2958  -20.5709  -10.2530 C   0  0  0  0  0  0  0  0  0  0  0  0
   25.6432  -21.5775   -9.5674 C   0  0  0  0  0  0  0  0  0  0  0  0
   25.1370  -21.3441   -8.2991 C   0  0  0  0  0  0  0  0  0  0  0  0
   25.2987  -20.0976   -7.7416 C   0  0  0  0  0  0  0  0  0  0  0  0
   25.9498  -19.0823   -8.4146 C   0  0  0  0  0  0  0  0  0  0  0  0
   26.4521  -19.3149   -9.6756 C   0  0  0  0  0  0  0  0  0  0  0  0
   24.5383  -20.4577  -12.6473 C   0  0  0  0  0  0  0  0  0  0  0  0
   24.6079  -19.2629  -13.0633 O   0  0  0  0  0  0  0  0  0  0  0  0
   23.2569  -20.9298  -12.3036 N   0  0  0  0  0  0  0  0  0  0  0  0
   22.1090  -20.0251  -12.4382 C   0  0  1  0  0  0  0  0  0  0  0  0
   21.5813  -20.1263  -13.8644 C   0  0  0  0  0  0  0  0  0  0  0  0
   20.3632  -19.2614  -13.9795 C   0  0  0  0  0  0  0  0  0  0  0  0
   19.8963  -19.1729  -15.4041 C   0  0  0  0  0  0  0  0  0  0  0  0
   20.5306  -19.8801  -16.2266 O   0  0  0  0  0  0  0  0  0  0  0  0
   21.0735  -20.4488  -11.5129 C   0  0  0  0  0  0  0  0  0  0  0  0
   20.9214  -21.6425  -11.2035 O   0  0  0  0  0  0  0  0  0  0  0  0
   18.8592  -18.3929  -15.8272 O   0  0  0  0  0  0  0  0  0  0  0  0
   20.2126  -19.4921  -10.9397 O   0  0  0  0  0  0  0  0  0  0  0  0
  2  3  1  6
  2  1  1  0
  4  2  1  0
  4  5  1  1
  6  4  1  0
  6  7  2  0
  8  6  1  0
  9  8  1  0
  9 10  1  1
 10 11  1  0
 11 12  2  0
 11 16  1  0
 12 13  1  0
 13 14  2  0
 15 14  1  0
 16 15  2  0
 17  9  1  0
 18 17  2  0
 19 17  1  0
 20 21  1  6
 20 19  1  0
 22 23  1  0
 22 21  1  0
 23 24  2  0
 25 28  1  0
 25 20  1  0
 26 25  2  0
 27 23  1  0
M  END
$$$$
