VFE.pdb
     RDKit          3D

 28 28  0  0  1  0  0  0  0  0999 V2000
   24.4338  -34.4824   -7.2765 C   0  0  0  0  0  0  0  0  0  0  0  0
   25.0254  -33.1050   -7.0634 C   0  0  2  0  0  0  0  0  0  0  0  0
   24.0063  -32.1006   -7.5607 C   0  0  0  0  0  0  0  0  0  0  0  0
   26.2761  -32.9124   -7.8921 C   0  0  2  0  0  0  0  0  0  0  0  0
   25.9338  -33.1642   -9.2755 N   0  0  0  0  0  0  0  0  0  0  0  0
   27.3784  -33.8126   -7.4593 C   0  0  0  0  0  0  0  0  0  0  0  0
   27.7261  -34.8170   -8.1325 O   0  0  0  0  0  0  0  0  0  0  0  0
   28.0548  -33.5453   -6.2722 N   0  0  0  0  0  0  0  0  0  0  0  0
   29.1000  -34.4218   -5.6899 C   0  0  1  0  0  0  0  0  0  0  0  0
   30.2933  -33.5131   -5.5874 C   0  0  0  0  0  0  0  0  0  0  0  0
   31.4700  -34.1869   -5.0383 C   0  0  0  0  0  0  0  0  0  0  0  0
   32.3834  -34.7830   -5.8865 C   0  0  0  0  0  0  0  0  0  0  0  0
   33.4817  -35.4520   -5.3713 C   0  0  0  0  0  0  0  0  0  0  0  0
   33.6417  -35.5078   -4.0067 C   0  0  0  0  0  0  0  0  0  0  0  0
   32.7376  -34.9156   -3.1469 C   0  0  0  0  0  0  0  0  0  0  0  0
   31.6458  -34.2513   -3.6598 C   0  0  0  0  0  0  0  0  0  0  0  0
   28.6343  -35.0266   -4.4629 C   0  0  0  0  0  0  0  0  0  0  0  0
   27.9843  -34.3537   -3.6083 O   0  0  0  0  0  0  0  0  0  0  0  0
   28.8631  -36.3812   -4.1539 N   0  0  0  0  0  0  0  0  0  0  0  0
   28.3828  -36.9060   -2.8701 C   0  0  1  0  0  0  0  0  0  0  0  0
   28.8184  -38.3618   -2.7520 C   0  0  0  0  0  0  0  0  0  0  0  0
   28.1451  -38.9604   -1.5549 C   0  0  0  0  0  0  0  0  0  0  0  0
   29.0446  -39.9459   -0.8658 C   0  0  0  0  0  0  0  0  0  0  0  0
   29.2311  -39.7433    0.3603 O   0  0  0  0  0  0  0  0  0  0  0  0
   28.9885  -36.1361   -1.7984 C   0  0  0  0  0  0  0  0  0  0  0  0
   30.2128  -35.9290   -1.7531 O   0  0  0  0  0  0  0  0  0  0  0  0
   29.6427  -41.0055   -1.4842 O   0  0  0  0  0  0  0  0  0  0  0  0
   28.1791  -35.6004   -0.7773 O   0  0  0  0  0  0  0  0  0  0  0  0
  2  3  1  6
  2  1  1  0
  4  2  1  0
  4  5  1  6
  6  4  1  0
  6  7  2  0
  8  6  1  0
  9  8  1  0
  9 10  1  1
 10 11  1  0
 11 12  2  0
 11 16  1  0
 12 13  1  0
 13 14  2  0
 15 14  1  0
 16 15  2  0
 17  9  1  0
 18 17  2  0
 19 17  1  0
 20 21  1  1
 20 19  1  0
 22 23  1  0
 22 21  1  0
 23 24  2  0
 25 28  1  0
 25 20  1  0
 26 25  2  0
 27 23  1  0
M  END
$$$$
