VFE.pdb
     RDKit          3D

 28 28  0  0  1  0  0  0  0  0999 V2000
   25.1033  -23.8797  -13.1308 C   0  0  0  0  0  0  0  0  0  0  0  0
   24.6921  -22.4539  -13.4317 C   0  0  2  0  0  0  0  0  0  0  0  0
   24.6692  -22.3055  -14.9391 C   0  0  0  0  0  0  0  0  0  0  0  0
   25.7116  -21.4677  -12.9063 C   0  0  2  0  0  0  0  0  0  0  0  0
   25.8060  -21.6493  -11.4736 N   0  0  0  0  0  0  0  0  0  0  0  0
   25.3471  -20.0616  -13.2270 C   0  0  0  0  0  0  0  0  0  0  0  0
   24.4175  -19.4584  -12.6314 O   0  0  0  0  0  0  0  0  0  0  0  0
   26.0504  -19.3806  -14.2168 N   0  0  0  0  0  0  0  0  0  0  0  0
   25.7889  -17.9750  -14.6114 C   0  0  1  0  0  0  0  0  0  0  0  0
   27.1542  -17.4592  -14.9723 C   0  0  0  0  0  0  0  0  0  0  0  0
   27.1071  -16.1615  -15.6460 C   0  0  0  0  0  0  0  0  0  0  0  0
   27.4209  -16.0682  -16.9885 C   0  0  0  0  0  0  0  0  0  0  0  0
   27.4112  -14.8373  -17.6240 C   0  0  0  0  0  0  0  0  0  0  0  0
   27.0834  -13.7188  -16.8944 C   0  0  0  0  0  0  0  0  0  0  0  0
   26.7665  -13.7970  -15.5524 C   0  0  0  0  0  0  0  0  0  0  0  0
   26.7769  -15.0209  -14.9212 C   0  0  0  0  0  0  0  0  0  0  0  0
   24.7761  -17.9131  -15.6402 C   0  0  0  0  0  0  0  0  0  0  0  0
   24.7409  -18.7678  -16.5749 O   0  0  0  0  0  0  0  0  0  0  0  0
   23.7776  -16.9203  -15.6588 N   0  0  0  0  0  0  0  0  0  0  0  0
   22.7310  -16.9871  -16.6856 C   0  0  1  0  0  0  0  0  0  0  0  0
   21.3760  -17.0326  -15.9894 C   0  0  0  0  0  0  0  0  0  0  0  0
   20.3055  -16.9918  -17.0369 C   0  0  0  0  0  0  0  0  0  0  0  0
   18.9392  -17.0191  -16.4141 C   0  0  0  0  0  0  0  0  0  0  0  0
   17.9760  -16.9891  -17.2206 O   0  0  0  0  0  0  0  0  0  0  0  0
   22.8086  -15.7914  -17.5056 C   0  0  0  0  0  0  0  0  0  0  0  0
   23.0862  -14.6821  -17.0197 O   0  0  0  0  0  0  0  0  0  0  0  0
   18.7066  -17.0728  -15.0703 O   0  0  0  0  0  0  0  0  0  0  0  0
   22.5686  -15.8760  -18.8913 O   0  0  0  0  0  0  0  0  0  0  0  0
  2  3  1  6
  2  1  1  0
  4  2  1  0
  4  5  1  1
  6  4  1  0
  6  7  2  0
  8  6  1  0
  9  8  1  0
  9 10  1  6
 10 11  1  0
 11 12  2  0
 11 16  1  0
 12 13  1  0
 13 14  2  0
 15 14  1  0
 16 15  2  0
 17  9  1  0
 18 17  2  0
 19 17  1  0
 20 21  1  1
 20 19  1  0
 22 23  1  0
 22 21  1  0
 23 24  2  0
 25 28  1  0
 25 20  1  0
 26 25  2  0
 27 23  1  0
M  END
$$$$
