VFE.pdb
     RDKit          3D

 28 28  0  0  1  0  0  0  0  0999 V2000
   18.9636   -8.5826  -19.7003 C   0  0  0  0  0  0  0  0  0  0  0  0
   20.3843   -8.0611  -19.6531 C   0  0  2  0  0  0  0  0  0  0  0  0
   21.0746   -8.5342  -20.9158 C   0  0  0  0  0  0  0  0  0  0  0  0
   21.1454   -8.6507  -18.4863 C   0  0  2  0  0  0  0  0  0  0  0  0
   21.1375  -10.0903  -18.6346 N   0  0  0  0  0  0  0  0  0  0  0  0
   20.5535   -8.2618  -17.1782 C   0  0  0  0  0  0  0  0  0  0  0  0
   19.7807   -9.0225  -16.5402 O   0  0  0  0  0  0  0  0  0  0  0  0
   20.8572   -7.0178  -16.6319 N   0  0  0  0  0  0  0  0  0  0  0  0
   20.2641   -6.4870  -15.3804 C   0  0  1  0  0  0  0  0  0  0  0  0
   21.4541   -6.3303  -14.4751 C   0  0  0  0  0  0  0  0  0  0  0  0
   21.8485   -7.5873  -13.8391 C   0  0  0  0  0  0  0  0  0  0  0  0
   21.2192   -8.0030  -12.6814 C   0  0  0  0  0  0  0  0  0  0  0  0
   21.6113   -9.1752  -12.0556 C   0  0  0  0  0  0  0  0  0  0  0  0
   22.6327   -9.9107  -12.6093 C   0  0  0  0  0  0  0  0  0  0  0  0
   23.2700   -9.5081  -13.7666 C   0  0  0  0  0  0  0  0  0  0  0  0
   22.8800   -8.3425  -14.3877 C   0  0  0  0  0  0  0  0  0  0  0  0
   19.4874   -5.2980  -15.6473 C   0  0  0  0  0  0  0  0  0  0  0  0
   20.0240   -4.2660  -16.1501 O   0  0  0  0  0  0  0  0  0  0  0  0
   18.1075   -5.2206  -15.3777 N   0  0  0  0  0  0  0  0  0  0  0  0
   17.3866   -3.9889  -15.7207 C   0  0  1  0  0  0  0  0  0  0  0  0
   15.8979   -4.2235  -15.4932 C   0  0  0  0  0  0  0  0  0  0  0  0
   15.6325   -5.6952  -15.5851 C   0  0  0  0  0  0  0  0  0  0  0  0
   14.2077   -6.0103  -15.2302 C   0  0  0  0  0  0  0  0  0  0  0  0
   13.5314   -5.0439  -14.7969 O   0  0  0  0  0  0  0  0  0  0  0  0
   17.8434   -2.9248  -14.8449 C   0  0  0  0  0  0  0  0  0  0  0  0
   18.4326   -3.1640  -13.7775 O   0  0  0  0  0  0  0  0  0  0  0  0
   13.6391   -7.2452  -15.3517 O   0  0  0  0  0  0  0  0  0  0  0  0
   17.6230   -1.5802  -15.2031 O   0  0  0  0  0  0  0  0  0  0  0  0
  2  3  1  6
  2  1  1  0
  4  2  1  0
  4  5  1  6
  6  4  1  0
  6  7  2  0
  8  6  1  0
  9  8  1  0
  9 10  1  1
 10 11  1  0
 11 12  2  0
 11 16  1  0
 12 13  1  0
 13 14  2  0
 15 14  1  0
 16 15  2  0
 17  9  1  0
 18 17  2  0
 19 17  1  0
 20 21  1  1
 20 19  1  0
 22 23  1  0
 22 21  1  0
 23 24  2  0
 25 28  1  0
 25 20  1  0
 26 25  2  0
 27 23  1  0
M  END
$$$$
