VFE.pdb
     RDKit          3D

 28 28  0  0  1  0  0  0  0  0999 V2000
   27.5767  -22.0024  -18.8280 C   0  0  0  0  0  0  0  0  0  0  0  0
   26.6484  -22.0104  -17.6318 C   0  0  2  0  0  0  0  0  0  0  0  0
   26.3240  -20.5661  -17.3100 C   0  0  0  0  0  0  0  0  0  0  0  0
   27.3307  -22.5919  -16.4134 C   0  0  2  0  0  0  0  0  0  0  0  0
   27.6574  -23.9713  -16.7049 N   0  0  0  0  0  0  0  0  0  0  0  0
   26.4751  -22.5078  -15.1995 C   0  0  0  0  0  0  0  0  0  0  0  0
   25.4082  -23.1649  -15.0854 O   0  0  0  0  0  0  0  0  0  0  0  0
   26.8569  -21.6784  -14.1486 N   0  0  0  0  0  0  0  0  0  0  0  0
   26.0781  -21.4998  -12.8991 C   0  0  1  0  0  0  0  0  0  0  0  0
   27.1094  -21.0188  -11.9165 C   0  0  0  0  0  0  0  0  0  0  0  0
   26.5394  -20.7143  -10.6041 C   0  0  0  0  0  0  0  0  0  0  0  0
   26.3364  -19.4006  -10.2270 C   0  0  0  0  0  0  0  0  0  0  0  0
   25.8289  -19.1047   -8.9723 C   0  0  0  0  0  0  0  0  0  0  0  0
   25.5328  -20.1403   -8.1176 C   0  0  0  0  0  0  0  0  0  0  0  0
   25.7293  -21.4580   -8.4814 C   0  0  0  0  0  0  0  0  0  0  0  0
   26.2344  -21.7514   -9.7285 C   0  0  0  0  0  0  0  0  0  0  0  0
   24.9409  -20.6372  -13.1246 C   0  0  0  0  0  0  0  0  0  0  0  0
   25.0894  -19.4686  -13.5912 O   0  0  0  0  0  0  0  0  0  0  0  0
   23.6198  -21.0420  -12.8527 N   0  0  0  0  0  0  0  0  0  0  0  0
   22.5381  -20.0573  -12.9731 C   0  0  1  0  0  0  0  0  0  0  0  0
   21.8324  -20.2783  -14.3058 C   0  0  0  0  0  0  0  0  0  0  0  0
   21.4373  -21.7207  -14.3971 C   0  0  0  0  0  0  0  0  0  0  0  0
   20.5351  -21.9602  -15.5735 C   0  0  0  0  0  0  0  0  0  0  0  0
   20.2009  -20.9339  -16.2171 O   0  0  0  0  0  0  0  0  0  0  0  0
   21.5947  -20.2697  -11.8902 C   0  0  0  0  0  0  0  0  0  0  0  0
   21.6996  -21.2316  -11.1107 O   0  0  0  0  0  0  0  0  0  0  0  0
   20.0814  -23.1886  -15.9584 O   0  0  0  0  0  0  0  0  0  0  0  0
   20.5286  -19.3678  -11.7033 O   0  0  0  0  0  0  0  0  0  0  0  0
  2  3  1  1
  2  1  1  0
  4  2  1  0
  4  5  1  6
  6  4  1  0
  6  7  2  0
  8  6  1  0
  9  8  1  0
  9 10  1  1
 10 11  1  0
 11 12  2  0
 11 16  1  0
 12 13  1  0
 13 14  2  0
 15 14  1  0
 16 15  2  0
 17  9  1  0
 18 17  2  0
 19 17  1  0
 20 21  1  6
 20 19  1  0
 22 23  1  0
 22 21  1  0
 23 24  2  0
 25 28  1  0
 25 20  1  0
 26 25  2  0
 27 23  1  0
M  END
$$$$
