VFE.pdb
     RDKit          3D

 28 28  0  0  1  0  0  0  0  0999 V2000
   37.1560   -8.4549   -8.7586 C   0  0  0  0  0  0  0  0  0  0  0  0
   37.6622   -7.0559   -8.4772 C   0  0  2  0  0  0  0  0  0  0  0  0
   36.6446   -6.3868   -7.5762 C   0  0  0  0  0  0  0  0  0  0  0  0
   37.7361   -6.2351   -9.7457 C   0  0  2  0  0  0  0  0  0  0  0  0
   38.5049   -6.9862  -10.7149 N   0  0  0  0  0  0  0  0  0  0  0  0
   38.3550   -4.9023   -9.5145 C   0  0  0  0  0  0  0  0  0  0  0  0
   39.5808   -4.7674   -9.2653 O   0  0  0  0  0  0  0  0  0  0  0  0
   37.5620   -3.7596   -9.5733 N   0  0  0  0  0  0  0  0  0  0  0  0
   38.0460   -2.3899   -9.2742 C   0  0  1  0  0  0  0  0  0  0  0  0
   37.6722   -1.6159  -10.5077 C   0  0  0  0  0  0  0  0  0  0  0  0
   36.3577   -0.9830  -10.3998 C   0  0  0  0  0  0  0  0  0  0  0  0
   35.2571   -1.5706  -10.9938 C   0  0  0  0  0  0  0  0  0  0  0  0
   34.0161   -0.9587  -10.9242 C   0  0  0  0  0  0  0  0  0  0  0  0
   33.9050    0.2371  -10.2546 C   0  0  0  0  0  0  0  0  0  0  0  0
   34.9959    0.8354   -9.6552 C   0  0  0  0  0  0  0  0  0  0  0  0
   36.2293    0.2270   -9.7253 C   0  0  0  0  0  0  0  0  0  0  0  0
   37.5039   -1.9189   -8.0202 C   0  0  0  0  0  0  0  0  0  0  0  0
   36.5033   -2.4847   -7.4871 O   0  0  0  0  0  0  0  0  0  0  0  0
   38.0533   -0.8261   -7.3225 N   0  0  0  0  0  0  0  0  0  0  0  0
   37.7474   -0.6705   -5.8954 C   0  0  1  0  0  0  0  0  0  0  0  0
   38.2623   -1.8999   -5.1561 C   0  0  0  0  0  0  0  0  0  0  0  0
   37.9775   -1.7260   -3.6955 C   0  0  0  0  0  0  0  0  0  0  0  0
   38.6038   -2.8266   -2.8883 C   0  0  0  0  0  0  0  0  0  0  0  0
   39.3004   -3.6457   -3.5386 O   0  0  0  0  0  0  0  0  0  0  0  0
   38.4336    0.5091   -5.3998 C   0  0  0  0  0  0  0  0  0  0  0  0
   37.8565    1.3532   -4.6939 O   0  0  0  0  0  0  0  0  0  0  0  0
   38.4568   -2.9711   -1.5390 O   0  0  0  0  0  0  0  0  0  0  0  0
   39.7909    0.7144   -5.7166 O   0  0  0  0  0  0  0  0  0  0  0  0
  2  3  1  1
  2  1  1  0
  4  2  1  0
  4  5  1  6
  6  4  1  0
  6  7  2  0
  8  6  1  0
  9  8  1  0
  9 10  1  6
 10 11  1  0
 11 12  2  0
 11 16  1  0
 12 13  1  0
 13 14  2  0
 15 14  1  0
 16 15  2  0
 17  9  1  0
 18 17  2  0
 19 17  1  0
 20 21  1  1
 20 19  1  0
 22 23  1  0
 22 21  1  0
 23 24  2  0
 25 28  1  0
 25 20  1  0
 26 25  2  0
 27 23  1  0
M  END
$$$$
