QNQ.pdb
     RDKit          3D

 27 26  0  0  1  0  0  0  0  0999 V2000
   27.4434  -25.0154  -15.4227 N   0  0  0  0  0  0  0  0  0  0  0  0
   27.6056  -24.8370  -16.8072 C   0  0  0  0  0  0  0  0  0  0  0  0
   28.2286  -25.6817  -17.4839 O   0  0  0  0  0  0  0  0  0  0  0  0
   27.0569  -23.6578  -17.5308 C   0  0  0  0  0  0  0  0  0  0  0  0
   26.2885  -22.7498  -16.6072 C   0  0  0  0  0  0  0  0  0  0  0  0
   25.8516  -21.5507  -17.3721 C   0  0  2  0  0  0  0  0  0  0  0  0
   26.9762  -20.7925  -17.8063 N   0  0  0  0  0  0  0  0  0  0  0  0
   24.7972  -20.7707  -16.6775 C   0  0  0  0  0  0  0  0  0  0  0  0
   24.7543  -20.8748  -15.4271 O   0  0  0  0  0  0  0  0  0  0  0  0
   24.7939  -17.5389  -16.0530 N   0  0  0  0  0  0  0  0  0  0  0  0
   23.7835  -17.0103  -16.8797 C   0  0  0  0  0  0  0  0  0  0  0  0
   23.8471  -15.8483  -17.3236 O   0  0  0  0  0  0  0  0  0  0  0  0
   22.6096  -17.8441  -17.2393 C   0  0  0  0  0  0  0  0  0  0  0  0
   22.7460  -19.2619  -16.7608 C   0  0  2  0  0  0  0  0  0  0  0  0
   23.8716  -19.9419  -17.3552 N   0  0  0  0  0  0  0  0  0  0  0  0
   21.4727  -19.9866  -16.8323 C   0  0  0  0  0  0  0  0  0  0  0  0
   21.0762  -20.5345  -17.8631 O   0  0  0  0  0  0  0  0  0  0  0  0
   18.5846  -21.7707  -11.6687 N   0  0  0  0  0  0  0  0  0  0  0  0
   19.0683  -22.8087  -12.5067 C   0  0  0  0  0  0  0  0  0  0  0  0
   19.1914  -23.9579  -12.0501 O   0  0  0  0  0  0  0  0  0  0  0  0
   19.4244  -22.5338  -13.9101 C   0  0  0  0  0  0  0  0  0  0  0  0
   19.1054  -21.1183  -14.2385 C   0  0  0  0  0  0  0  0  0  0  0  0
   19.3454  -20.7218  -15.6679 C   0  0  2  0  0  0  0  0  0  0  0  0
   20.6542  -20.0717  -15.6845 N   0  0  0  0  0  0  0  0  0  0  0  0
   18.3028  -19.8651  -16.2348 C   0  0  0  0  0  0  0  0  0  0  0  0
   17.2161  -20.3680  -16.9249 O   0  0  0  0  0  0  0  0  0  0  0  0
   18.3696  -18.6170  -16.1065 O   0  0  0  0  0  0  0  0  0  0  0  0
  2  3  2  0
  2  1  1  0
  4  2  1  0
  5  4  1  0
  6  5  1  0
  6  8  1  0
  6  7  1  1
  8 15  1  0
  8  9  2  0
 11 10  1  0
 12 11  2  0
 13 11  1  0
 14 13  1  6
 15 14  1  0
 16 14  1  0
 16 17  2  0
 18 19  1  0
 19 21  1  0
 20 19  2  0
 21 22  1  0
 23 22  1  1
 23 24  1  0
 24 16  1  0
 25 26  1  0
 25 23  1  0
 27 25  2  0
M  END
$$$$
