QNQ.pdb
     RDKit          3D

 27 26  0  0  1  0  0  0  0  0999 V2000
   17.6969  -15.4074  -14.7901 N   0  0  0  0  0  0  0  0  0  0  0  0
   18.2905  -16.4728  -15.4884 C   0  0  0  0  0  0  0  0  0  0  0  0
   17.8216  -17.6266  -15.3971 O   0  0  0  0  0  0  0  0  0  0  0  0
   19.4850  -16.2919  -16.3576 C   0  0  0  0  0  0  0  0  0  0  0  0
   19.9755  -14.8682  -16.3351 C   0  0  0  0  0  0  0  0  0  0  0  0
   19.3230  -14.1216  -17.4444 C   0  0  2  0  0  0  0  0  0  0  0  0
   19.6613  -14.6930  -18.7042 N   0  0  0  0  0  0  0  0  0  0  0  0
   19.5144  -12.6530  -17.3479 C   0  0  0  0  0  0  0  0  0  0  0  0
   20.5767  -12.1927  -17.8333 O   0  0  0  0  0  0  0  0  0  0  0  0
   17.0073   -7.3845  -17.0442 N   0  0  0  0  0  0  0  0  0  0  0  0
   17.5563   -8.2239  -16.0554 C   0  0  0  0  0  0  0  0  0  0  0  0
   18.1591   -7.7601  -15.0691 O   0  0  0  0  0  0  0  0  0  0  0  0
   17.4221   -9.6970  -16.1768 C   0  0  0  0  0  0  0  0  0  0  0  0
   18.7039  -10.3557  -16.6022 C   0  0  2  0  0  0  0  0  0  0  0  0
   18.5708  -11.7852  -16.7483 N   0  0  0  0  0  0  0  0  0  0  0  0
   19.8400   -9.9169  -15.7848 C   0  0  0  0  0  0  0  0  0  0  0  0
   20.0755  -10.3833  -14.6681 O   0  0  0  0  0  0  0  0  0  0  0  0
   25.0739   -9.3985  -18.1830 N   0  0  0  0  0  0  0  0  0  0  0  0
   25.4353   -8.7850  -16.9555 C   0  0  0  0  0  0  0  0  0  0  0  0
   26.6347   -8.5812  -16.7019 O   0  0  0  0  0  0  0  0  0  0  0  0
   24.4012   -8.3894  -15.9828 C   0  0  0  0  0  0  0  0  0  0  0  0
   23.0650   -8.8279  -16.4679 C   0  0  0  0  0  0  0  0  0  0  0  0
   21.9097   -8.4695  -15.5763 C   0  0  2  0  0  0  0  0  0  0  0  0
   20.7110   -8.9214  -16.2797 N   0  0  0  0  0  0  0  0  0  0  0  0
   21.8378   -7.0489  -15.2315 C   0  0  0  0  0  0  0  0  0  0  0  0
   22.4627   -6.5175  -14.1193 O   0  0  0  0  0  0  0  0  0  0  0  0
   21.1886   -6.2535  -15.9559 O   0  0  0  0  0  0  0  0  0  0  0  0
  2  3  2  0
  2  1  1  0
  4  2  1  0
  5  4  1  0
  6  5  1  0
  6  8  1  0
  6  7  1  6
  8 15  1  0
  8  9  2  0
 11 10  1  0
 12 11  2  0
 13 11  1  0
 14 13  1  1
 15 14  1  0
 16 14  1  0
 16 17  2  0
 18 19  1  0
 19 21  1  0
 20 19  2  0
 21 22  1  0
 23 22  1  6
 23 24  1  0
 24 16  1  0
 25 26  1  0
 25 23  1  0
 27 25  2  0
M  END
$$$$
