QNQ.pdb
     RDKit          3D

 27 26  0  0  1  0  0  0  0  0999 V2000
   19.0294  -15.3190  -15.0641 N   0  0  0  0  0  0  0  0  0  0  0  0
   18.5493  -15.2218  -16.3813 C   0  0  0  0  0  0  0  0  0  0  0  0
   17.4257  -15.6784  -16.6790 O   0  0  0  0  0  0  0  0  0  0  0  0
   19.3341  -14.5835  -17.4730 C   0  0  0  0  0  0  0  0  0  0  0  0
   20.6961  -14.1525  -16.9966 C   0  0  0  0  0  0  0  0  0  0  0  0
   20.7902  -12.6711  -17.0988 C   0  0  2  0  0  0  0  0  0  0  0  0
   20.8530  -12.2629  -18.4617 N   0  0  0  0  0  0  0  0  0  0  0  0
   21.8375  -12.0933  -16.2201 C   0  0  0  0  0  0  0  0  0  0  0  0
   21.9641  -12.6106  -15.0833 O   0  0  0  0  0  0  0  0  0  0  0  0
   25.7680   -9.4852  -14.2158 N   0  0  0  0  0  0  0  0  0  0  0  0
   26.1107  -10.4429  -15.1899 C   0  0  0  0  0  0  0  0  0  0  0  0
   27.2844  -10.8341  -15.3337 O   0  0  0  0  0  0  0  0  0  0  0  0
   25.0608  -11.0089  -16.0732 C   0  0  0  0  0  0  0  0  0  0  0  0
   23.7073  -10.4124  -15.8088 C   0  0  2  0  0  0  0  0  0  0  0  0
   22.6692  -11.0163  -16.6090 N   0  0  0  0  0  0  0  0  0  0  0  0
   23.7421   -8.9463  -15.8383 C   0  0  0  0  0  0  0  0  0  0  0  0
   24.5021   -8.2846  -15.1281 O   0  0  0  0  0  0  0  0  0  0  0  0
   21.6306   -5.2140  -20.3588 N   0  0  0  0  0  0  0  0  0  0  0  0
   22.6817   -4.5541  -19.6707 C   0  0  0  0  0  0  0  0  0  0  0  0
   23.1438   -3.4952  -20.1284 O   0  0  0  0  0  0  0  0  0  0  0  0
   23.2269   -5.1143  -18.4214 C   0  0  0  0  0  0  0  0  0  0  0  0
   22.4784   -6.3477  -18.0583 C   0  0  0  0  0  0  0  0  0  0  0  0
   22.6469   -6.8051  -16.6369 C   0  0  2  0  0  0  0  0  0  0  0  0
   22.8781   -8.2464  -16.7091 N   0  0  0  0  0  0  0  0  0  0  0  0
   21.5191   -6.4758  -15.7643 C   0  0  0  0  0  0  0  0  0  0  0  0
   21.5493   -5.4230  -14.8694 O   0  0  0  0  0  0  0  0  0  0  0  0
   20.4656   -7.1595  -15.8057 O   0  0  0  0  0  0  0  0  0  0  0  0
  2  3  2  0
  2  1  1  0
  4  2  1  0
  5  4  1  0
  6  5  1  0
  6  8  1  0
  6  7  1  6
  8 15  1  0
  8  9  2  0
 11 10  1  0
 12 11  2  0
 13 11  1  0
 14 13  1  6
 15 14  1  0
 16 14  1  0
 16 17  2  0
 18 19  1  0
 19 21  1  0
 20 19  2  0
 21 22  1  0
 23 22  1  6
 23 24  1  0
 24 16  1  0
 25 26  1  0
 25 23  1  0
 27 25  2  0
M  END
$$$$
