QNQ.pdb
     RDKit          3D

 27 26  0  0  1  0  0  0  0  0999 V2000
   28.0664  -18.1941  -15.7962 N   0  0  0  0  0  0  0  0  0  0  0  0
   28.5557  -18.5686  -17.0593 C   0  0  0  0  0  0  0  0  0  0  0  0
   29.5146  -17.9546  -17.5722 O   0  0  0  0  0  0  0  0  0  0  0  0
   27.9729  -19.6931  -17.8410 C   0  0  0  0  0  0  0  0  0  0  0  0
   26.8661  -20.3785  -17.0839 C   0  0  0  0  0  0  0  0  0  0  0  0
   27.4708  -21.2520  -16.0422 C   0  0  2  0  0  0  0  0  0  0  0  0
   28.1407  -22.3581  -16.6386 N   0  0  0  0  0  0  0  0  0  0  0  0
   26.5226  -21.6022  -14.9555 C   0  0  0  0  0  0  0  0  0  0  0  0
   25.4729  -22.1997  -15.2977 O   0  0  0  0  0  0  0  0  0  0  0  0
   24.0055  -21.0308  -10.4423 N   0  0  0  0  0  0  0  0  0  0  0  0
   25.3322  -20.6374  -10.1801 C   0  0  0  0  0  0  0  0  0  0  0  0
   25.7004  -20.3113   -9.0358 O   0  0  0  0  0  0  0  0  0  0  0  0
   26.3263  -20.6053  -11.2815 C   0  0  0  0  0  0  0  0  0  0  0  0
   25.7454  -21.0594  -12.5907 C   0  0  2  0  0  0  0  0  0  0  0  0
   26.7558  -21.2958  -13.5936 N   0  0  0  0  0  0  0  0  0  0  0  0
   24.6317  -20.2060  -13.0186 C   0  0  0  0  0  0  0  0  0  0  0  0
   24.8015  -19.0917  -13.5181 O   0  0  0  0  0  0  0  0  0  0  0  0
   22.9754  -19.6648  -17.5301 N   0  0  0  0  0  0  0  0  0  0  0  0
   21.6909  -19.2234  -17.1191 C   0  0  0  0  0  0  0  0  0  0  0  0
   20.8972  -18.7760  -17.9642 O   0  0  0  0  0  0  0  0  0  0  0  0
   21.2934  -19.2919  -15.7016 C   0  0  0  0  0  0  0  0  0  0  0  0
   22.3937  -19.8954  -14.9027 C   0  0  0  0  0  0  0  0  0  0  0  0
   22.1404  -19.9804  -13.4240 C   0  0  2  0  0  0  0  0  0  0  0  0
   23.3043  -20.6617  -12.8609 N   0  0  0  0  0  0  0  0  0  0  0  0
   20.8895  -20.6521  -13.0685 C   0  0  0  0  0  0  0  0  0  0  0  0
   20.8537  -21.8426  -12.3675 O   0  0  0  0  0  0  0  0  0  0  0  0
   19.7856  -20.1517  -13.4002 O   0  0  0  0  0  0  0  0  0  0  0  0
  2  3  2  0
  2  1  1  0
  4  2  1  0
  5  4  1  0
  6  5  1  0
  6  8  1  0
  6  7  1  6
  8 15  1  0
  8  9  2  0
 11 10  1  0
 12 11  2  0
 13 11  1  0
 14 13  1  1
 15 14  1  0
 16 14  1  0
 16 17  2  0
 18 19  1  0
 19 21  1  0
 20 19  2  0
 21 22  1  0
 23 22  1  6
 23 24  1  0
 24 16  1  0
 25 26  1  0
 25 23  1  0
 27 25  2  0
M  END
$$$$
