QNQ.pdb
     RDKit          3D

 27 26  0  0  1  0  0  0  0  0999 V2000
   22.7036  -20.9147  -10.7148 N   0  0  0  0  0  0  0  0  0  0  0  0
   23.4274  -20.8387   -9.5125 C   0  0  0  0  0  0  0  0  0  0  0  0
   22.8869  -21.1470   -8.4298 O   0  0  0  0  0  0  0  0  0  0  0  0
   24.8475  -20.3965   -9.4611 C   0  0  0  0  0  0  0  0  0  0  0  0
   25.3047  -19.8472  -10.7868 C   0  0  0  0  0  0  0  0  0  0  0  0
   25.6977  -20.9833  -11.6636 C   0  0  2  0  0  0  0  0  0  0  0  0
   26.7985  -21.6936  -11.1051 N   0  0  0  0  0  0  0  0  0  0  0  0
   25.8584  -20.5911  -13.0859 C   0  0  0  0  0  0  0  0  0  0  0  0
   25.4850  -19.4328  -13.3940 O   0  0  0  0  0  0  0  0  0  0  0  0
   29.0909  -21.1897  -17.9915 N   0  0  0  0  0  0  0  0  0  0  0  0
   27.8049  -21.5707  -17.5617 C   0  0  0  0  0  0  0  0  0  0  0  0
   26.8334  -21.5774  -18.3411 O   0  0  0  0  0  0  0  0  0  0  0  0
   27.5857  -21.9763  -16.1511 C   0  0  0  0  0  0  0  0  0  0  0  0
   26.5167  -21.1608  -15.4802 C   0  0  2  0  0  0  0  0  0  0  0  0
   26.4006  -21.4502  -14.0712 N   0  0  0  0  0  0  0  0  0  0  0  0
   25.2553  -21.1939  -16.2282 C   0  0  0  0  0  0  0  0  0  0  0  0
   24.7368  -22.2447  -16.6115 O   0  0  0  0  0  0  0  0  0  0  0  0
   21.5102  -21.3524  -13.1357 N   0  0  0  0  0  0  0  0  0  0  0  0
   20.5855  -20.8238  -14.0733 C   0  0  0  0  0  0  0  0  0  0  0  0
   19.3713  -20.8330  -13.8086 O   0  0  0  0  0  0  0  0  0  0  0  0
   21.0538  -20.2660  -15.3545 C   0  0  0  0  0  0  0  0  0  0  0  0
   22.5362  -20.3666  -15.4312 C   0  0  0  0  0  0  0  0  0  0  0  0
   23.1469  -19.8742  -16.7127 C   0  0  2  0  0  0  0  0  0  0  0  0
   24.5929  -19.9838  -16.5307 N   0  0  0  0  0  0  0  0  0  0  0  0
   22.7447  -18.5170  -17.0850 C   0  0  0  0  0  0  0  0  0  0  0  0
   21.6170  -18.2523  -17.8388 O   0  0  0  0  0  0  0  0  0  0  0  0
   23.4319  -17.5304  -16.7202 O   0  0  0  0  0  0  0  0  0  0  0  0
  2  3  2  0
  2  1  1  0
  4  2  1  0
  5  4  1  0
  6  5  1  0
  6  8  1  0
  6  7  1  1
  8 15  1  0
  8  9  2  0
 11 10  1  0
 12 11  2  0
 13 11  1  0
 14 13  1  6
 15 14  1  0
 16 14  1  0
 16 17  2  0
 18 19  1  0
 19 21  1  0
 20 19  2  0
 21 22  1  0
 23 22  1  1
 23 24  1  0
 24 16  1  0
 25 26  1  0
 25 23  1  0
 27 25  2  0
M  END
$$$$
