QNQ.pdb
     RDKit          3D

 27 26  0  0  1  0  0  0  0  0999 V2000
   24.6207  -20.6395   -9.8507 N   0  0  0  0  0  0  0  0  0  0  0  0
   23.4560  -21.2797  -10.3077 C   0  0  0  0  0  0  0  0  0  0  0  0
   22.6438  -21.7682   -9.4946 O   0  0  0  0  0  0  0  0  0  0  0  0
   23.1306  -21.4096  -11.7541 C   0  0  0  0  0  0  0  0  0  0  0  0
   24.2118  -20.8188  -12.6201 C   0  0  0  0  0  0  0  0  0  0  0  0
   23.5871  -19.8723  -13.5834 C   0  0  2  0  0  0  0  0  0  0  0  0
   22.4801  -20.4803  -14.2414 N   0  0  0  0  0  0  0  0  0  0  0  0
   24.5734  -19.2222  -14.4818 C   0  0  0  0  0  0  0  0  0  0  0  0
   25.6584  -18.8665  -13.9600 O   0  0  0  0  0  0  0  0  0  0  0  0
   28.8377  -18.4852  -17.4477 N   0  0  0  0  0  0  0  0  0  0  0  0
   27.5283  -18.8060  -17.8553 C   0  0  0  0  0  0  0  0  0  0  0  0
   27.1622  -18.6673  -19.0377 O   0  0  0  0  0  0  0  0  0  0  0  0
   26.5503  -19.3221  -16.8655 C   0  0  0  0  0  0  0  0  0  0  0  0
   25.2969  -18.4949  -16.8138 C   0  0  2  0  0  0  0  0  0  0  0  0
   24.3389  -18.9988  -15.8594 N   0  0  0  0  0  0  0  0  0  0  0  0
   24.7612  -18.2321  -18.1537 C   0  0  0  0  0  0  0  0  0  0  0  0
   24.2277  -19.1065  -18.8400 O   0  0  0  0  0  0  0  0  0  0  0  0
   21.3805  -15.8968  -15.5596 N   0  0  0  0  0  0  0  0  0  0  0  0
   20.8728  -15.2104  -16.6932 C   0  0  0  0  0  0  0  0  0  0  0  0
   19.7634  -14.6544  -16.6268 O   0  0  0  0  0  0  0  0  0  0  0  0
   21.6498  -15.1529  -17.9441 C   0  0  0  0  0  0  0  0  0  0  0  0
   22.8300  -16.0528  -17.8411 C   0  0  0  0  0  0  0  0  0  0  0  0
   23.6886  -16.1278  -19.0721 C   0  0  2  0  0  0  0  0  0  0  0  0
   24.8502  -16.9315  -18.6969 N   0  0  0  0  0  0  0  0  0  0  0  0
   24.0777  -14.8239  -19.6110 C   0  0  0  0  0  0  0  0  0  0  0  0
   25.1646  -14.1138  -19.1373 O   0  0  0  0  0  0  0  0  0  0  0  0
   23.4165  -14.3009  -20.5428 O   0  0  0  0  0  0  0  0  0  0  0  0
  2  3  2  0
  2  1  1  0
  4  2  1  0
  5  4  1  0
  6  5  1  0
  6  8  1  0
  6  7  1  6
  8 15  1  0
  8  9  2  0
 11 10  1  0
 12 11  2  0
 13 11  1  0
 14 13  1  6
 15 14  1  0
 16 14  1  0
 16 17  2  0
 18 19  1  0
 19 21  1  0
 20 19  2  0
 21 22  1  0
 23 22  1  1
 23 24  1  0
 24 16  1  0
 25 26  1  0
 25 23  1  0
 27 25  2  0
M  END
$$$$
