QNQ.pdb
     RDKit          3D

 27 26  0  0  1  0  0  0  0  0999 V2000
   10.7824  -11.8429   -9.8462 N   0  0  0  0  0  0  0  0  0  0  0  0
   11.9038  -12.5775  -10.2680 C   0  0  0  0  0  0  0  0  0  0  0  0
   11.8707  -13.8257  -10.2856 O   0  0  0  0  0  0  0  0  0  0  0  0
   13.1671  -11.9253  -10.7083 C   0  0  0  0  0  0  0  0  0  0  0  0
   13.1463  -10.4429  -10.4437 C   0  0  0  0  0  0  0  0  0  0  0  0
   14.4486   -9.8639  -10.8711 C   0  0  2  0  0  0  0  0  0  0  0  0
   15.5322  -10.5453  -10.2469 N   0  0  0  0  0  0  0  0  0  0  0  0
   14.4901   -8.3843  -10.7634 C   0  0  0  0  0  0  0  0  0  0  0  0
   13.5034   -7.7603  -11.2250 O   0  0  0  0  0  0  0  0  0  0  0  0
   15.0692   -7.2691   -6.8655 N   0  0  0  0  0  0  0  0  0  0  0  0
   14.9436   -6.1359   -7.6924 C   0  0  0  0  0  0  0  0  0  0  0  0
   13.9453   -5.3937   -7.6324 O   0  0  0  0  0  0  0  0  0  0  0  0
   16.0167   -5.8049   -8.6627 C   0  0  0  0  0  0  0  0  0  0  0  0
   15.6813   -6.2451  -10.0597 C   0  0  2  0  0  0  0  0  0  0  0  0
   15.5679   -7.6789  -10.1772 N   0  0  0  0  0  0  0  0  0  0  0  0
   16.5477   -5.6058  -11.0558 C   0  0  0  0  0  0  0  0  0  0  0  0
   17.7534   -5.8485  -11.1424 O   0  0  0  0  0  0  0  0  0  0  0  0
   14.7093   -6.7149  -15.1800 N   0  0  0  0  0  0  0  0  0  0  0  0
   16.1152   -6.8911  -15.2579 C   0  0  0  0  0  0  0  0  0  0  0  0
   16.5755   -7.9575  -15.6999 O   0  0  0  0  0  0  0  0  0  0  0  0
   17.0296   -5.8218  -14.8196 C   0  0  0  0  0  0  0  0  0  0  0  0
   16.2411   -4.6669  -14.3120 C   0  0  0  0  0  0  0  0  0  0  0  0
   16.7554   -4.0473  -13.0433 C   0  0  2  0  0  0  0  0  0  0  0  0
   15.9972   -4.6722  -11.9613 N   0  0  0  0  0  0  0  0  0  0  0  0
   16.6568   -2.5875  -13.0071 C   0  0  0  0  0  0  0  0  0  0  0  0
   17.6444   -1.7594  -13.5060 O   0  0  0  0  0  0  0  0  0  0  0  0
   15.6456   -2.0333  -12.5079 O   0  0  0  0  0  0  0  0  0  0  0  0
  2  3  2  0
  2  1  1  0
  4  2  1  0
  5  4  1  0
  6  5  1  0
  6  8  1  0
  6  7  1  1
  8 15  1  0
  8  9  2  0
 11 10  1  0
 12 11  2  0
 13 11  1  0
 14 13  1  1
 15 14  1  0
 16 14  1  0
 16 17  2  0
 18 19  1  0
 19 21  1  0
 20 19  2  0
 21 22  1  0
 23 22  1  6
 23 24  1  0
 24 16  1  0
 25 26  1  0
 25 23  1  0
 27 25  2  0
M  END
$$$$
