VER.pdb
     RDKit          3D

 28 27  0  0  1  0  0  0  0  0999 V2000
   11.4979  -19.7435   21.9529 C   0  0  0  0  0  0  0  0  0  0  0  0
   12.8752  -20.3094   22.0593 C   0  0  2  0  0  0  0  0  0  0  0  0
   12.8408  -21.7257   21.4746 C   0  0  0  0  0  0  0  0  0  0  0  0
   13.3334  -20.4273   23.5091 C   0  0  2  0  0  0  0  0  0  0  0  0
   14.7038  -20.9150   23.5674 N   0  0  0  0  0  0  0  0  0  0  0  0
   12.4561  -21.3336   24.2856 C   0  0  0  0  0  0  0  0  0  0  0  0
   11.2561  -21.0620   24.5167 O   0  0  0  0  0  0  0  0  0  0  0  0
   12.9442  -22.5709   24.8112 N   0  0  0  0  0  0  0  0  0  0  0  0
   12.1989  -23.4209   25.7047 C   0  0  1  0  0  0  0  0  0  0  0  0
   12.5787  -24.8481   25.4565 C   0  0  0  0  0  0  0  0  0  0  0  0
   12.0473  -25.3828   24.1543 C   0  0  0  0  0  0  0  0  0  0  0  0
   12.4456  -26.8016   23.9648 C   0  0  0  0  0  0  0  0  0  0  0  0
   13.4881  -27.0456   23.3091 O   0  0  0  0  0  0  0  0  0  0  0  0
   12.3825  -23.0104   27.1304 C   0  0  0  0  0  0  0  0  0  0  0  0
   13.3919  -22.3469   27.4684 O   0  0  0  0  0  0  0  0  0  0  0  0
   11.7264  -27.8730   24.4741 O   0  0  0  0  0  0  0  0  0  0  0  0
   15.0780  -18.2704   31.1999 N   0  0  0  0  0  0  0  0  0  0  0  0
   13.8076  -17.8362   31.6487 C   0  0  0  0  0  0  0  0  0  0  0  0
   13.6289  -16.7552   32.3246 N   0  0  0  0  0  0  0  0  0  0  0  0
   12.6567  -18.6117   31.3537 N   0  0  0  0  0  0  0  0  0  0  0  0
   12.6497  -19.6024   30.2739 C   0  0  0  0  0  0  0  0  0  0  0  0
   11.3274  -20.2318   30.1062 C   0  0  0  0  0  0  0  0  0  0  0  0
   11.2369  -21.3146   29.1343 C   0  0  0  0  0  0  0  0  0  0  0  0
   11.3577  -22.7499   29.4429 C   0  0  2  0  0  0  0  0  0  0  0  0
   11.4127  -23.3834   28.0533 N   0  0  0  0  0  0  0  0  0  0  0  0
   10.2178  -23.4554   30.0366 C   0  0  0  0  0  0  0  0  0  0  0  0
   10.0723  -23.4596   31.3085 O   0  0  0  0  0  0  0  0  0  0  0  0
    9.2414  -24.1358   29.3612 O   0  0  0  0  0  0  0  0  0  0  0  0
  2  1  1  1
  2  3  1  0
  4  2  1  0
  4  5  1  6
  6  7  2  0
  6  4  1  0
  8  6  1  0
  9  8  1  0
  9 10  1  1
 11 10  1  0
 12 11  1  0
 13 12  2  0
 14  9  1  0
 15 14  2  0
 16 12  1  0
 18 17  1  0
 19 18  2  0
 20 18  1  0
 21 20  1  0
 22 21  1  0
 23 22  1  0
 24 23  1  6
 24 25  1  0
 25 14  1  0
 26 28  1  0
 26 24  1  0
 27 26  2  0
M  END
$$$$
