VER.pdb
     RDKit          3D

 28 27  0  0  1  0  0  0  0  0999 V2000
    7.0608  -13.4933   21.3713 C   0  0  0  0  0  0  0  0  0  0  0  0
    8.1172  -13.3098   20.3326 C   0  0  2  0  0  0  0  0  0  0  0  0
    7.5479  -12.3852   19.2509 C   0  0  0  0  0  0  0  0  0  0  0  0
    8.4876  -14.6258   19.6567 C   0  0  2  0  0  0  0  0  0  0  0  0
    7.3511  -15.1484   18.9120 N   0  0  0  0  0  0  0  0  0  0  0  0
    8.9361  -15.6368   20.6419 C   0  0  0  0  0  0  0  0  0  0  0  0
    8.1513  -16.4760   21.1388 O   0  0  0  0  0  0  0  0  0  0  0  0
   10.2979  -15.7008   21.0740 N   0  0  0  0  0  0  0  0  0  0  0  0
   10.7845  -16.6045   22.0854 C   0  0  1  0  0  0  0  0  0  0  0  0
   12.2757  -16.6991   21.9838 C   0  0  0  0  0  0  0  0  0  0  0  0
   12.8708  -17.6965   22.9403 C   0  0  0  0  0  0  0  0  0  0  0  0
   14.3318  -17.8403   22.7114 C   0  0  0  0  0  0  0  0  0  0  0  0
   15.0634  -18.1255   23.6909 O   0  0  0  0  0  0  0  0  0  0  0  0
   10.3194  -16.2019   23.4480 C   0  0  0  0  0  0  0  0  0  0  0  0
   10.5640  -15.0504   23.8809 O   0  0  0  0  0  0  0  0  0  0  0  0
   14.9319  -17.6760   21.4714 O   0  0  0  0  0  0  0  0  0  0  0  0
    6.4564  -22.1170   24.5184 N   0  0  0  0  0  0  0  0  0  0  0  0
    6.6105  -21.8412   25.8984 C   0  0  0  0  0  0  0  0  0  0  0  0
    7.2956  -22.5850   26.6950 N   0  0  0  0  0  0  0  0  0  0  0  0
    5.9895  -20.6949   26.4583 N   0  0  0  0  0  0  0  0  0  0  0  0
    6.1281  -19.3683   25.8515 C   0  0  0  0  0  0  0  0  0  0  0  0
    7.4745  -18.8031   26.0532 C   0  0  0  0  0  0  0  0  0  0  0  0
    7.7099  -17.4673   25.5191 C   0  0  0  0  0  0  0  0  0  0  0  0
    8.9969  -16.7513   25.5492 C   0  0  2  0  0  0  0  0  0  0  0  0
    9.6186  -17.1322   24.2062 N   0  0  0  0  0  0  0  0  0  0  0  0
   10.0395  -17.1866   26.4836 C   0  0  0  0  0  0  0  0  0  0  0  0
   10.9070  -18.0478   26.1033 O   0  0  0  0  0  0  0  0  0  0  0  0
   10.2079  -16.7566   27.7717 O   0  0  0  0  0  0  0  0  0  0  0  0
  2  1  1  1
  2  3  1  0
  4  2  1  0
  4  5  1  1
  6  7  2  0
  6  4  1  0
  8  6  1  0
  9  8  1  0
  9 10  1  1
 11 10  1  0
 12 11  1  0
 13 12  2  0
 14  9  1  0
 15 14  2  0
 16 12  1  0
 18 17  1  0
 19 18  2  0
 20 18  1  0
 21 20  1  0
 22 21  1  0
 23 22  1  0
 24 23  1  1
 24 25  1  0
 25 14  1  0
 26 28  1  0
 26 24  1  0
 27 26  2  0
M  END
$$$$
