VER.pdb
     RDKit          3D

 28 27  0  0  1  0  0  0  0  0999 V2000
    6.8612  -19.4369   17.2632 C   0  0  0  0  0  0  0  0  0  0  0  0
    7.1099  -20.1720   18.5384 C   0  0  2  0  0  0  0  0  0  0  0  0
    6.0859  -21.3090   18.6252 C   0  0  0  0  0  0  0  0  0  0  0  0
    6.9052  -19.2818   19.7597 C   0  0  2  0  0  0  0  0  0  0  0  0
    5.6210  -18.6010   19.6787 N   0  0  0  0  0  0  0  0  0  0  0  0
    7.9863  -18.2775   19.8889 C   0  0  0  0  0  0  0  0  0  0  0  0
    9.1803  -18.6047   20.0742 O   0  0  0  0  0  0  0  0  0  0  0  0
    7.7128  -16.8761   19.8073 N   0  0  0  0  0  0  0  0  0  0  0  0
    8.6829  -15.8451   20.0761 C   0  0  1  0  0  0  0  0  0  0  0  0
    8.3351  -14.6238   19.2823 C   0  0  0  0  0  0  0  0  0  0  0  0
    8.6637  -14.7563   17.8200 C   0  0  0  0  0  0  0  0  0  0  0  0
    8.3183  -13.5112   17.0866 C   0  0  0  0  0  0  0  0  0  0  0  0
    8.9489  -12.4616   17.3640 O   0  0  0  0  0  0  0  0  0  0  0  0
    8.7990  -15.5721   21.5414 C   0  0  0  0  0  0  0  0  0  0  0  0
    7.7999  -15.1759   22.1879 O   0  0  0  0  0  0  0  0  0  0  0  0
    7.3348  -13.4458   16.1104 O   0  0  0  0  0  0  0  0  0  0  0  0
    6.4406  -20.8607   26.3825 N   0  0  0  0  0  0  0  0  0  0  0  0
    7.3481  -20.2315   27.2683 C   0  0  0  0  0  0  0  0  0  0  0  0
    7.6595  -20.7138   28.4205 N   0  0  0  0  0  0  0  0  0  0  0  0
    7.9593  -19.0072   26.8935 N   0  0  0  0  0  0  0  0  0  0  0  0
    8.3083  -18.7135   25.5009 C   0  0  0  0  0  0  0  0  0  0  0  0
    9.0941  -17.4726   25.3750 C   0  0  0  0  0  0  0  0  0  0  0  0
    9.4110  -17.0335   24.0215 C   0  0  0  0  0  0  0  0  0  0  0  0
   10.1621  -15.8149   23.6742 C   0  0  2  0  0  0  0  0  0  0  0  0
   10.0317  -15.7687   22.1523 N   0  0  0  0  0  0  0  0  0  0  0  0
   11.6188  -15.7972   23.8396 C   0  0  0  0  0  0  0  0  0  0  0  0
   12.3644  -16.2631   22.9090 O   0  0  0  0  0  0  0  0  0  0  0  0
   12.3088  -15.3128   24.9174 O   0  0  0  0  0  0  0  0  0  0  0  0
  2  1  1  6
  2  3  1  0
  4  2  1  0
  4  5  1  6
  6  7  2  0
  6  4  1  0
  8  6  1  0
  9  8  1  0
  9 10  1  6
 11 10  1  0
 12 11  1  0
 13 12  2  0
 14  9  1  0
 15 14  2  0
 16 12  1  0
 18 17  1  0
 19 18  2  0
 20 18  1  0
 21 20  1  0
 22 21  1  0
 23 22  1  0
 24 23  1  6
 24 25  1  0
 25 14  1  0
 26 28  1  0
 26 24  1  0
 27 26  2  0
M  END
$$$$
