VER.pdb
     RDKit          3D

 28 27  0  0  1  0  0  0  0  0999 V2000
    7.4211  -12.7791   18.0438 C   0  0  0  0  0  0  0  0  0  0  0  0
    7.6719  -13.8823   19.0178 C   0  0  2  0  0  0  0  0  0  0  0  0
    7.1374  -13.4279   20.3804 C   0  0  0  0  0  0  0  0  0  0  0  0
    9.1606  -14.1678   19.1858 C   0  0  2  0  0  0  0  0  0  0  0  0
    9.7431  -14.5755   17.9155 N   0  0  0  0  0  0  0  0  0  0  0  0
    9.4021  -15.2221   20.1978 C   0  0  0  0  0  0  0  0  0  0  0  0
    8.8770  -15.1875   21.3336 O   0  0  0  0  0  0  0  0  0  0  0  0
   10.2537  -16.3372   19.9209 N   0  0  0  0  0  0  0  0  0  0  0  0
   10.5379  -17.3916   20.8610 C   0  0  1  0  0  0  0  0  0  0  0  0
   11.5364  -18.3313   20.2587 C   0  0  0  0  0  0  0  0  0  0  0  0
   11.0314  -19.0129   19.0160 C   0  0  0  0  0  0  0  0  0  0  0  0
   11.9888  -18.8396   17.8932 C   0  0  0  0  0  0  0  0  0  0  0  0
   13.2013  -18.6610   18.1657 O   0  0  0  0  0  0  0  0  0  0  0  0
   10.9779  -16.8439   22.1806 C   0  0  0  0  0  0  0  0  0  0  0  0
   11.8326  -15.9271   22.2271 O   0  0  0  0  0  0  0  0  0  0  0  0
   11.6145  -18.8645   16.5576 O   0  0  0  0  0  0  0  0  0  0  0  0
    5.0113  -13.0883   26.2718 N   0  0  0  0  0  0  0  0  0  0  0  0
    6.2011  -12.3504   26.4815 C   0  0  0  0  0  0  0  0  0  0  0  0
    6.2115  -11.1156   26.8451 N   0  0  0  0  0  0  0  0  0  0  0  0
    7.4588  -12.9778   26.2881 N   0  0  0  0  0  0  0  0  0  0  0  0
    7.5803  -14.2693   25.6063 C   0  0  0  0  0  0  0  0  0  0  0  0
    8.9766  -14.7383   25.5496 C   0  0  0  0  0  0  0  0  0  0  0  0
    9.2371  -15.9202   24.7370 C   0  0  0  0  0  0  0  0  0  0  0  0
   10.5172  -16.6464   24.6735 C   0  0  2  0  0  0  0  0  0  0  0  0
   10.4169  -17.3769   23.3350 N   0  0  0  0  0  0  0  0  0  0  0  0
   10.7566  -17.7622   25.5940 C   0  0  0  0  0  0  0  0  0  0  0  0
   10.5022  -18.9580   25.2142 O   0  0  0  0  0  0  0  0  0  0  0  0
   11.2493  -17.6742   26.8675 O   0  0  0  0  0  0  0  0  0  0  0  0
  2  1  1  6
  2  3  1  0
  4  2  1  0
  4  5  1  6
  6  7  2  0
  6  4  1  0
  8  6  1  0
  9  8  1  0
  9 10  1  6
 11 10  1  0
 12 11  1  0
 13 12  2  0
 14  9  1  0
 15 14  2  0
 16 12  1  0
 18 17  1  0
 19 18  2  0
 20 18  1  0
 21 20  1  0
 22 21  1  0
 23 22  1  0
 24 23  1  1
 24 25  1  0
 25 14  1  0
 26 28  1  0
 26 24  1  0
 27 26  2  0
M  END
$$$$
