VER.pdb
     RDKit          3D

 28 27  0  0  1  0  0  0  0  0999 V2000
    6.8287  -13.6170   19.9271 C   0  0  0  0  0  0  0  0  0  0  0  0
    8.1982  -13.1697   19.5364 C   0  0  2  0  0  0  0  0  0  0  0  0
    8.0477  -12.1624   18.3912 C   0  0  0  0  0  0  0  0  0  0  0  0
    9.0493  -14.3239   19.0175 C   0  0  2  0  0  0  0  0  0  0  0  0
    8.4236  -14.9274   17.8498 N   0  0  0  0  0  0  0  0  0  0  0  0
    9.2533  -15.3601   20.0560 C   0  0  0  0  0  0  0  0  0  0  0  0
    9.8355  -15.1141   21.1366 O   0  0  0  0  0  0  0  0  0  0  0  0
    8.7905  -16.7005   19.8700 N   0  0  0  0  0  0  0  0  0  0  0  0
    8.9835  -17.7631   20.8239 C   0  0  1  0  0  0  0  0  0  0  0  0
    8.2412  -18.9791   20.3620 C   0  0  0  0  0  0  0  0  0  0  0  0
    8.4321  -20.1665   21.2661 C   0  0  0  0  0  0  0  0  0  0  0  0
    7.7400  -21.3624   20.7197 C   0  0  0  0  0  0  0  0  0  0  0  0
    8.3956  -22.1519   19.9965 O   0  0  0  0  0  0  0  0  0  0  0  0
   10.4355  -18.0252   21.0642 C   0  0  0  0  0  0  0  0  0  0  0  0
   11.1625  -18.4390   20.1296 O   0  0  0  0  0  0  0  0  0  0  0  0
    6.4063  -21.6538   20.9660 O   0  0  0  0  0  0  0  0  0  0  0  0
   17.4142  -14.4883   18.1277 N   0  0  0  0  0  0  0  0  0  0  0  0
   16.1060  -14.4661   18.6683 C   0  0  0  0  0  0  0  0  0  0  0  0
   15.2030  -13.6267   18.2979 N   0  0  0  0  0  0  0  0  0  0  0  0
   15.7449  -15.4037   19.6700 N   0  0  0  0  0  0  0  0  0  0  0  0
   14.4432  -15.3531   20.3412 C   0  0  0  0  0  0  0  0  0  0  0  0
   14.2465  -16.4903   21.2581 C   0  0  0  0  0  0  0  0  0  0  0  0
   12.9161  -16.6435   21.8343 C   0  0  0  0  0  0  0  0  0  0  0  0
   12.4486  -17.8101   22.6027 C   0  0  2  0  0  0  0  0  0  0  0  0
   10.9436  -17.7989   22.3377 N   0  0  0  0  0  0  0  0  0  0  0  0
   12.4840  -17.7664   24.0677 C   0  0  0  0  0  0  0  0  0  0  0  0
   11.4144  -17.4934   24.7161 O   0  0  0  0  0  0  0  0  0  0  0  0
   13.5733  -18.0007   24.8620 O   0  0  0  0  0  0  0  0  0  0  0  0
  2  1  1  6
  2  3  1  0
  4  2  1  0
  4  5  1  6
  6  7  2  0
  6  4  1  0
  8  6  1  0
  9  8  1  0
  9 10  1  6
 11 10  1  0
 12 11  1  0
 13 12  2  0
 14  9  1  0
 15 14  2  0
 16 12  1  0
 18 17  1  0
 19 18  2  0
 20 18  1  0
 21 20  1  0
 22 21  1  0
 23 22  1  0
 24 23  1  6
 24 25  1  0
 25 14  1  0
 26 28  1  0
 26 24  1  0
 27 26  2  0
M  END
$$$$
