VER.pdb
     RDKit          3D

 28 27  0  0  1  0  0  0  0  0999 V2000
    7.2648  -13.1567   20.6702 C   0  0  0  0  0  0  0  0  0  0  0  0
    8.4233  -12.9651   19.7483 C   0  0  2  0  0  0  0  0  0  0  0  0
    7.9548  -12.0713   18.5949 C   0  0  0  0  0  0  0  0  0  0  0  0
    8.8929  -14.2826   19.1404 C   0  0  2  0  0  0  0  0  0  0  0  0
    7.8024  -14.9230   18.4193 N   0  0  0  0  0  0  0  0  0  0  0  0
    9.4069  -15.2080   20.1765 C   0  0  0  0  0  0  0  0  0  0  0  0
    8.6916  -16.0998   20.6865 O   0  0  0  0  0  0  0  0  0  0  0  0
   10.7553  -15.1239   20.6455 N   0  0  0  0  0  0  0  0  0  0  0  0
   11.3136  -15.9794   21.6618 C   0  0  1  0  0  0  0  0  0  0  0  0
   12.8038  -15.8300   21.6659 C   0  0  0  0  0  0  0  0  0  0  0  0
   13.4399  -16.2180   20.3588 C   0  0  0  0  0  0  0  0  0  0  0  0
   14.9187  -16.0957   20.4349 C   0  0  0  0  0  0  0  0  0  0  0  0
   15.4897  -16.4233   21.5039 O   0  0  0  0  0  0  0  0  0  0  0  0
   10.6993  -15.7135   22.9985 C   0  0  0  0  0  0  0  0  0  0  0  0
   10.4445  -14.5368   23.3502 O   0  0  0  0  0  0  0  0  0  0  0  0
   15.7037  -15.6382   19.3866 O   0  0  0  0  0  0  0  0  0  0  0  0
    6.7804  -21.8840   25.5472 N   0  0  0  0  0  0  0  0  0  0  0  0
    6.3569  -21.2912   26.7610 C   0  0  0  0  0  0  0  0  0  0  0  0
    6.0192  -21.9728   27.7996 N   0  0  0  0  0  0  0  0  0  0  0  0
    6.2914  -19.8779   26.8661 N   0  0  0  0  0  0  0  0  0  0  0  0
    6.7197  -19.0020   25.7721 C   0  0  0  0  0  0  0  0  0  0  0  0
    7.9398  -18.2470   26.1102 C   0  0  0  0  0  0  0  0  0  0  0  0
    8.5373  -17.4566   25.0409 C   0  0  0  0  0  0  0  0  0  0  0  0
    9.7338  -16.6078   25.1742 C   0  0  2  0  0  0  0  0  0  0  0  0
   10.4253  -16.7969   23.8246 N   0  0  0  0  0  0  0  0  0  0  0  0
   10.7974  -17.0058   26.1016 C   0  0  0  0  0  0  0  0  0  0  0  0
   11.8044  -17.6622   25.6612 O   0  0  0  0  0  0  0  0  0  0  0  0
   10.8476  -16.7408   27.4431 O   0  0  0  0  0  0  0  0  0  0  0  0
  2  1  1  1
  2  3  1  0
  4  2  1  0
  4  5  1  1
  6  7  2  0
  6  4  1  0
  8  6  1  0
  9  8  1  0
  9 10  1  1
 11 10  1  0
 12 11  1  0
 13 12  2  0
 14  9  1  0
 15 14  2  0
 16 12  1  0
 18 17  1  0
 19 18  2  0
 20 18  1  0
 21 20  1  0
 22 21  1  0
 23 22  1  0
 24 23  1  6
 24 25  1  0
 25 14  1  0
 26 28  1  0
 26 24  1  0
 27 26  2  0
M  END
$$$$
