VER.pdb
     RDKit          3D

 28 27  0  0  1  0  0  0  0  0999 V2000
    9.3675  -12.4684   20.1592 C   0  0  0  0  0  0  0  0  0  0  0  0
    8.0887  -13.0321   19.6344 C   0  0  2  0  0  0  0  0  0  0  0  0
    7.3536  -13.6860   20.8096 C   0  0  0  0  0  0  0  0  0  0  0  0
    8.3293  -14.1163   18.5891 C   0  0  2  0  0  0  0  0  0  0  0  0
    7.0606  -14.6294   18.0926 N   0  0  0  0  0  0  0  0  0  0  0  0
    9.1302  -15.2345   19.1386 C   0  0  0  0  0  0  0  0  0  0  0  0
    8.6002  -16.2205   19.6990 O   0  0  0  0  0  0  0  0  0  0  0  0
   10.5578  -15.2387   19.0533 N   0  0  0  0  0  0  0  0  0  0  0  0
   11.3962  -16.2919   19.5672 C   0  0  1  0  0  0  0  0  0  0  0  0
   12.3598  -16.7170   18.5024 C   0  0  0  0  0  0  0  0  0  0  0  0
   11.7626  -17.6854   17.5178 C   0  0  0  0  0  0  0  0  0  0  0  0
   12.5616  -17.7248   16.2657 C   0  0  0  0  0  0  0  0  0  0  0  0
   13.8118  -17.7921   16.3583 O   0  0  0  0  0  0  0  0  0  0  0  0
   12.0747  -15.8816   20.8346 C   0  0  0  0  0  0  0  0  0  0  0  0
   12.5360  -14.7213   20.9533 O   0  0  0  0  0  0  0  0  0  0  0  0
   11.9996  -17.6911   14.9979 O   0  0  0  0  0  0  0  0  0  0  0  0
   10.6287  -19.4953   29.6914 N   0  0  0  0  0  0  0  0  0  0  0  0
   11.0078  -19.7249   28.3469 C   0  0  0  0  0  0  0  0  0  0  0  0
   11.0497  -20.8966   27.8153 N   0  0  0  0  0  0  0  0  0  0  0  0
   11.3647  -18.6275   27.5215 N   0  0  0  0  0  0  0  0  0  0  0  0
   11.6031  -18.7882   26.0846 C   0  0  0  0  0  0  0  0  0  0  0  0
   11.9782  -17.5175   25.4383 C   0  0  0  0  0  0  0  0  0  0  0  0
   12.4237  -17.5951   24.0524 C   0  0  0  0  0  0  0  0  0  0  0  0
   12.7903  -16.4446   23.2087 C   0  0  2  0  0  0  0  0  0  0  0  0
   12.1755  -16.8147   21.8595 N   0  0  0  0  0  0  0  0  0  0  0  0
   14.1949  -16.2427   22.8401 C   0  0  0  0  0  0  0  0  0  0  0  0
   14.7066  -16.9441   21.8992 O   0  0  0  0  0  0  0  0  0  0  0  0
   15.0627  -15.3471   23.4034 O   0  0  0  0  0  0  0  0  0  0  0  0
  2  1  1  1
  2  3  1  0
  4  2  1  0
  4  5  1  1
  6  7  2  0
  6  4  1  0
  8  6  1  0
  9  8  1  0
  9 10  1  6
 11 10  1  0
 12 11  1  0
 13 12  2  0
 14  9  1  0
 15 14  2  0
 16 12  1  0
 18 17  1  0
 19 18  2  0
 20 18  1  0
 21 20  1  0
 22 21  1  0
 23 22  1  0
 24 23  1  1
 24 25  1  0
 25 14  1  0
 26 28  1  0
 26 24  1  0
 27 26  2  0
M  END
$$$$
