VER.pdb
     RDKit          3D

 28 27  0  0  1  0  0  0  0  0999 V2000
    7.5334  -14.9395   18.4121 C   0  0  0  0  0  0  0  0  0  0  0  0
    7.7468  -13.7277   19.2574 C   0  0  2  0  0  0  0  0  0  0  0  0
    7.7697  -12.5109   18.3258 C   0  0  0  0  0  0  0  0  0  0  0  0
    9.0864  -13.7681   19.9852 C   0  0  2  0  0  0  0  0  0  0  0  0
   10.1768  -13.8955   19.0291 N   0  0  0  0  0  0  0  0  0  0  0  0
    9.1474  -14.8885   20.9521 C   0  0  0  0  0  0  0  0  0  0  0  0
    8.3141  -15.0153   21.8776 O   0  0  0  0  0  0  0  0  0  0  0  0
   10.1700  -15.8851   20.8715 N   0  0  0  0  0  0  0  0  0  0  0  0
   10.2970  -16.9902   21.7875 C   0  0  1  0  0  0  0  0  0  0  0  0
   11.4372  -17.8593   21.3542 C   0  0  0  0  0  0  0  0  0  0  0  0
   11.6753  -19.0243   22.2760 C   0  0  0  0  0  0  0  0  0  0  0  0
   12.8313  -19.8352   21.8137 C   0  0  0  0  0  0  0  0  0  0  0  0
   12.6366  -21.0421   21.5280 O   0  0  0  0  0  0  0  0  0  0  0  0
   10.4308  -16.5176   23.1995 C   0  0  0  0  0  0  0  0  0  0  0  0
   11.4649  -15.9078   23.5628 O   0  0  0  0  0  0  0  0  0  0  0  0
   14.1163  -19.3296   21.6806 O   0  0  0  0  0  0  0  0  0  0  0  0
    5.3912  -12.3314   28.0415 N   0  0  0  0  0  0  0  0  0  0  0  0
    6.0296  -11.5563   27.0437 C   0  0  0  0  0  0  0  0  0  0  0  0
    6.2549  -10.2947   27.1660 N   0  0  0  0  0  0  0  0  0  0  0  0
    6.4520  -12.1744   25.8386 N   0  0  0  0  0  0  0  0  0  0  0  0
    6.5286  -13.6317   25.7044 C   0  0  0  0  0  0  0  0  0  0  0  0
    7.9163  -14.1238   25.7759 C   0  0  0  0  0  0  0  0  0  0  0  0
    8.1094  -15.5606   25.6226 C   0  0  0  0  0  0  0  0  0  0  0  0
    9.4124  -16.2391   25.5127 C   0  0  2  0  0  0  0  0  0  0  0  0
    9.3873  -16.7731   24.0811 N   0  0  0  0  0  0  0  0  0  0  0  0
    9.6486  -17.4688   26.2754 C   0  0  0  0  0  0  0  0  0  0  0  0
    9.9195  -17.3935   27.5243 O   0  0  0  0  0  0  0  0  0  0  0  0
    9.6050  -18.7474   25.7900 O   0  0  0  0  0  0  0  0  0  0  0  0
  2  1  1  6
  2  3  1  0
  4  2  1  0
  4  5  1  6
  6  7  2  0
  6  4  1  0
  8  6  1  0
  9  8  1  0
  9 10  1  6
 11 10  1  0
 12 11  1  0
 13 12  2  0
 14  9  1  0
 15 14  2  0
 16 12  1  0
 18 17  1  0
 19 18  2  0
 20 18  1  0
 21 20  1  0
 22 21  1  0
 23 22  1  0
 24 23  1  1
 24 25  1  0
 25 14  1  0
 26 28  1  0
 26 24  1  0
 27 26  2  0
M  END
$$$$
