VER.pdb
     RDKit          3D

 28 27  0  0  1  0  0  0  0  0999 V2000
    7.6251  -13.1765   20.9514 C   0  0  0  0  0  0  0  0  0  0  0  0
    8.4372  -13.4525   19.7295 C   0  0  2  0  0  0  0  0  0  0  0  0
    7.9284  -12.5296   18.6166 C   0  0  0  0  0  0  0  0  0  0  0  0
    8.2668  -14.8878   19.2431 C   0  0  2  0  0  0  0  0  0  0  0  0
    6.8737  -15.1454   18.9081 N   0  0  0  0  0  0  0  0  0  0  0  0
    8.7159  -15.8650   20.2616 C   0  0  0  0  0  0  0  0  0  0  0  0
    7.9549  -16.2848   21.1625 O   0  0  0  0  0  0  0  0  0  0  0  0
   10.0510  -16.3778   20.2621 N   0  0  0  0  0  0  0  0  0  0  0  0
   10.5812  -17.2535   21.2762 C   0  0  1  0  0  0  0  0  0  0  0  0
   11.8540  -17.8670   20.7795 C   0  0  0  0  0  0  0  0  0  0  0  0
   11.6430  -18.8177   19.6325 C   0  0  0  0  0  0  0  0  0  0  0  0
   12.9423  -19.3340   19.1294 C   0  0  0  0  0  0  0  0  0  0  0  0
   13.4933  -18.7328   18.1749 O   0  0  0  0  0  0  0  0  0  0  0  0
   10.7496  -16.5415   22.5800 C   0  0  0  0  0  0  0  0  0  0  0  0
   11.1636  -15.3577   22.6007 O   0  0  0  0  0  0  0  0  0  0  0  0
   13.5802  -20.4464   19.6586 O   0  0  0  0  0  0  0  0  0  0  0  0
    4.9755  -13.0125   26.8970 N   0  0  0  0  0  0  0  0  0  0  0  0
    6.0812  -12.1419   26.7440 C   0  0  0  0  0  0  0  0  0  0  0  0
    6.0364  -10.8869   27.0271 N   0  0  0  0  0  0  0  0  0  0  0  0
    7.3124  -12.6507   26.2559 N   0  0  0  0  0  0  0  0  0  0  0  0
    7.4450  -14.0333   25.7888 C   0  0  0  0  0  0  0  0  0  0  0  0
    8.8246  -14.3508   25.3778 C   0  0  0  0  0  0  0  0  0  0  0  0
    9.0605  -15.6933   24.8609 C   0  0  0  0  0  0  0  0  0  0  0  0
   10.2811  -16.4888   25.0787 C   0  0  2  0  0  0  0  0  0  0  0  0
   10.4373  -17.2253   23.7488 N   0  0  0  0  0  0  0  0  0  0  0  0
   10.2502  -17.6073   26.0261 C   0  0  0  0  0  0  0  0  0  0  0  0
   10.1337  -17.3693   27.2785 O   0  0  0  0  0  0  0  0  0  0  0  0
   10.3275  -18.9378   25.7159 O   0  0  0  0  0  0  0  0  0  0  0  0
  2  1  1  1
  2  3  1  0
  4  2  1  0
  4  5  1  1
  6  7  2  0
  6  4  1  0
  8  6  1  0
  9  8  1  0
  9 10  1  6
 11 10  1  0
 12 11  1  0
 13 12  2  0
 14  9  1  0
 15 14  2  0
 16 12  1  0
 18 17  1  0
 19 18  2  0
 20 18  1  0
 21 20  1  0
 22 21  1  0
 23 22  1  0
 24 23  1  6
 24 25  1  0
 25 14  1  0
 26 28  1  0
 26 24  1  0
 27 26  2  0
M  END
$$$$
