PVF.pdb
     RDKit          3D

 26 27  0  0  1  0  0  0  0  0999 V2000
   24.6219  -17.6141  -16.3763 N   0  0  0  0  0  0  0  0  0  0  0  0
   24.5149  -16.8942  -17.6120 C   0  0  0  0  0  0  0  0  0  0  0  0
   24.1645  -17.8940  -18.6918 C   0  0  0  0  0  0  0  0  0  0  0  0
   24.6781  -19.1918  -18.0543 C   0  0  0  0  0  0  0  0  0  0  0  0
   24.2533  -18.9822  -16.6178 C   0  0  1  0  0  0  0  0  0  0  0  0
   24.9715  -19.9168  -15.6877 C   0  0  0  0  0  0  0  0  0  0  0  0
   24.5333  -21.0792  -15.6697 O   0  0  0  0  0  0  0  0  0  0  0  0
   29.0568  -21.2596  -13.3782 C   0  0  0  0  0  0  0  0  0  0  0  0
   28.2528  -20.4336  -14.3807 C   0  0  1  0  0  0  0  0  0  0  0  0
   28.2029  -21.3778  -15.6116 C   0  0  0  0  0  0  0  0  0  0  0  0
   26.8273  -20.2702  -13.9508 C   0  0  2  0  0  0  0  0  0  0  0  0
   26.0423  -19.5168  -14.9073 N   0  0  0  0  0  0  0  0  0  0  0  0
   26.5535  -19.7864  -12.6184 C   0  0  0  0  0  0  0  0  0  0  0  0
   26.6206  -18.5026  -12.4121 O   0  0  0  0  0  0  0  0  0  0  0  0
   26.2072  -20.5737  -11.4967 N   0  0  0  0  0  0  0  0  0  0  0  0
   26.0053  -19.9905  -10.1751 C   0  0  1  0  0  0  0  0  0  0  0  0
   24.7721  -19.1158  -10.3112 C   0  0  0  0  0  0  0  0  0  0  0  0
   23.5389  -19.8507  -10.5911 C   0  0  0  0  0  0  0  0  0  0  0  0
   23.1867  -20.2820  -11.8507 C   0  0  0  0  0  0  0  0  0  0  0  0
   22.0046  -20.9839  -12.0807 C   0  0  0  0  0  0  0  0  0  0  0  0
   21.1419  -21.2706  -11.0404 C   0  0  0  0  0  0  0  0  0  0  0  0
   21.4904  -20.8408   -9.7788 C   0  0  0  0  0  0  0  0  0  0  0  0
   22.6675  -20.1422   -9.5506 C   0  0  0  0  0  0  0  0  0  0  0  0
   25.8165  -21.0906   -9.2108 C   0  0  0  0  0  0  0  0  0  0  0  0
   25.6515  -20.9025   -7.8663 O   0  0  0  0  0  0  0  0  0  0  0  0
   25.8117  -22.2693   -9.6838 O   0  0  0  0  0  0  0  0  0  0  0  0
  1  2  1  0
  3  2  1  0
  4  5  1  0
  4  3  1  0
  5  6  1  1
  5  1  1  0
  6  7  2  0
  9  8  1  1
  9 10  1  0
  9 11  1  0
 11 12  1  6
 12  6  1  0
 13 11  1  0
 14 13  2  0
 15 13  1  0
 16 15  1  0
 16 24  1  0
 16 17  1  6
 18 17  1  0
 19 18  2  0
 20 19  1  0
 21 22  1  0
 21 20  2  0
 22 23  2  0
 23 18  1  0
 24 25  1  0
 26 24  2  0
M  END
$$$$
