PVF.pdb
     RDKit          3D

 26 27  0  0  1  0  0  0  0  0999 V2000
   14.9622  -22.1682    2.0886 N   0  0  0  0  0  0  0  0  0  0  0  0
   15.0009  -22.1167    0.6559 C   0  0  0  0  0  0  0  0  0  0  0  0
   16.2624  -21.3810    0.2614 C   0  0  0  0  0  0  0  0  0  0  0  0
   16.5310  -20.5733    1.5381 C   0  0  0  0  0  0  0  0  0  0  0  0
   16.1813  -21.5988    2.5937 C   0  0  1  0  0  0  0  0  0  0  0  0
   15.9740  -20.9601    3.9366 C   0  0  0  0  0  0  0  0  0  0  0  0
   14.8275  -20.5270    4.1407 O   0  0  0  0  0  0  0  0  0  0  0  0
   17.4299  -20.5629    8.6426 C   0  0  0  0  0  0  0  0  0  0  0  0
   17.5627  -21.1566    7.2413 C   0  0  1  0  0  0  0  0  0  0  0  0
   16.6162  -22.3844    7.3191 C   0  0  0  0  0  0  0  0  0  0  0  0
   16.9641  -20.2626    6.1991 C   0  0  2  0  0  0  0  0  0  0  0  0
   16.9824  -20.8596    4.8792 N   0  0  0  0  0  0  0  0  0  0  0  0
   17.4164  -18.8943    6.1132 C   0  0  0  0  0  0  0  0  0  0  0  0
   18.1025  -18.5457    5.0630 O   0  0  0  0  0  0  0  0  0  0  0  0
   17.1820  -17.8741    7.0629 N   0  0  0  0  0  0  0  0  0  0  0  0
   17.4447  -16.4695    6.7700 C   0  0  1  0  0  0  0  0  0  0  0  0
   16.4554  -16.0995    5.6797 C   0  0  0  0  0  0  0  0  0  0  0  0
   17.0722  -15.7213    4.4084 C   0  0  0  0  0  0  0  0  0  0  0  0
   16.8899  -16.4290    3.2411 C   0  0  0  0  0  0  0  0  0  0  0  0
   17.4904  -16.0374    2.0458 C   0  0  0  0  0  0  0  0  0  0  0  0
   18.2951  -14.9155    1.9963 C   0  0  0  0  0  0  0  0  0  0  0  0
   18.4801  -14.2048    3.1618 C   0  0  0  0  0  0  0  0  0  0  0  0
   17.8819  -14.5953    4.3515 C   0  0  0  0  0  0  0  0  0  0  0  0
   17.2394  -15.6951    8.0085 C   0  0  0  0  0  0  0  0  0  0  0  0
   17.6991  -14.4203    8.1925 O   0  0  0  0  0  0  0  0  0  0  0  0
   16.5961  -16.2698    8.9407 O   0  0  0  0  0  0  0  0  0  0  0  0
  1  2  1  0
  3  2  1  0
  4  5  1  0
  4  3  1  0
  5  6  1  1
  5  1  1  0
  6  7  2  0
  9  8  1  1
  9 10  1  0
  9 11  1  0
 11 12  1  6
 12  6  1  0
 13 11  1  0
 14 13  2  0
 15 13  1  0
 16 15  1  0
 16 24  1  0
 16 17  1  6
 18 17  1  0
 19 18  2  0
 20 19  1  0
 21 22  1  0
 21 20  2  0
 22 23  2  0
 23 18  1  0
 24 25  1  0
 26 24  2  0
M  END
$$$$
