PVF.pdb
     RDKit          3D

 26 27  0  0  1  0  0  0  0  0999 V2000
   28.2289  -20.4192  -15.1492 N   0  0  0  0  0  0  0  0  0  0  0  0
   28.5218  -20.2442  -16.5421 C   0  0  0  0  0  0  0  0  0  0  0  0
   28.6379  -18.7580  -16.7990 C   0  0  0  0  0  0  0  0  0  0  0  0
   27.8204  -18.2024  -15.6254 C   0  0  0  0  0  0  0  0  0  0  0  0
   28.2632  -19.1297  -14.5154 C   0  0  1  0  0  0  0  0  0  0  0  0
   27.3299  -19.0701  -13.3409 C   0  0  0  0  0  0  0  0  0  0  0  0
   27.2217  -17.9508  -12.8124 O   0  0  0  0  0  0  0  0  0  0  0  0
   23.2416  -20.9280  -11.3555 C   0  0  0  0  0  0  0  0  0  0  0  0
   24.3900  -20.9985  -12.3605 C   0  0  1  0  0  0  0  0  0  0  0  0
   23.8463  -20.1400  -13.5338 C   0  0  0  0  0  0  0  0  0  0  0  0
   25.6044  -20.2718  -11.8697 C   0  0  2  0  0  0  0  0  0  0  0  0
   26.6397  -20.1771  -12.8786 N   0  0  0  0  0  0  0  0  0  0  0  0
   26.1936  -20.6708  -10.6136 C   0  0  0  0  0  0  0  0  0  0  0  0
   26.8500  -21.7948  -10.5799 O   0  0  0  0  0  0  0  0  0  0  0  0
   26.1377  -19.9530   -9.3973 N   0  0  0  0  0  0  0  0  0  0  0  0
   26.7368  -20.4637   -8.1694 C   0  0  1  0  0  0  0  0  0  0  0  0
   27.4680  -19.2801   -7.5621 C   0  0  0  0  0  0  0  0  0  0  0  0
   28.0433  -19.5387   -6.2425 C   0  0  0  0  0  0  0  0  0  0  0  0
   27.3445  -19.3687   -5.0680 C   0  0  0  0  0  0  0  0  0  0  0  0
   27.9234  -19.6287   -3.8270 C   0  0  0  0  0  0  0  0  0  0  0  0
   29.2298  -20.0693   -3.7376 C   0  0  0  0  0  0  0  0  0  0  0  0
   29.9324  -20.2405   -4.9101 C   0  0  0  0  0  0  0  0  0  0  0  0
   29.3553  -19.9815   -6.1453 C   0  0  0  0  0  0  0  0  0  0  0  0
   25.6537  -20.9661   -7.3033 C   0  0  0  0  0  0  0  0  0  0  0  0
   25.8438  -21.8735   -6.2980 O   0  0  0  0  0  0  0  0  0  0  0  0
   24.4882  -20.5137   -7.5267 O   0  0  0  0  0  0  0  0  0  0  0  0
  1  2  1  0
  3  2  1  0
  4  5  1  0
  4  3  1  0
  5  6  1  1
  5  1  1  0
  6  7  2  0
  9  8  1  1
  9 10  1  0
  9 11  1  0
 11 12  1  6
 12  6  1  0
 13 11  1  0
 14 13  2  0
 15 13  1  0
 16 15  1  0
 16 24  1  0
 16 17  1  1
 18 17  1  0
 19 18  2  0
 20 19  1  0
 21 22  1  0
 21 20  2  0
 22 23  2  0
 23 18  1  0
 24 25  1  0
 26 24  2  0
M  END
$$$$
