PVF.pdb
     RDKit          3D

 26 27  0  0  1  0  0  0  0  0999 V2000
   22.9388  -12.0633  -19.0291 N   0  0  0  0  0  0  0  0  0  0  0  0
   22.9614  -13.3611  -18.4193 C   0  0  0  0  0  0  0  0  0  0  0  0
   22.0614  -13.3084  -17.2046 C   0  0  0  0  0  0  0  0  0  0  0  0
   22.0664  -11.8020  -16.9128 C   0  0  0  0  0  0  0  0  0  0  0  0
   21.9932  -11.2471  -18.3181 C   0  0  1  0  0  0  0  0  0  0  0  0
   22.3791   -9.7967  -18.3598 C   0  0  0  0  0  0  0  0  0  0  0  0
   23.5981   -9.5749  -18.2680 O   0  0  0  0  0  0  0  0  0  0  0  0
   21.3840   -5.2087  -19.7964 C   0  0  0  0  0  0  0  0  0  0  0  0
   21.1790   -6.7225  -19.7936 C   0  0  1  0  0  0  0  0  0  0  0  0
   22.2016   -7.1894  -20.8640 C   0  0  0  0  0  0  0  0  0  0  0  0
   21.6393   -7.3441  -18.5108 C   0  0  2  0  0  0  0  0  0  0  0  0
   21.4491   -8.7801  -18.4907 N   0  0  0  0  0  0  0  0  0  0  0  0
   21.1822   -6.7819  -17.2621 C   0  0  0  0  0  0  0  0  0  0  0  0
   19.9517   -7.0142  -16.9052 O   0  0  0  0  0  0  0  0  0  0  0  0
   21.9460   -5.9984  -16.3675 N   0  0  0  0  0  0  0  0  0  0  0  0
   21.3882   -5.4796  -15.1236 C   0  0  1  0  0  0  0  0  0  0  0  0
   22.1818   -6.1555  -14.0201 C   0  0  0  0  0  0  0  0  0  0  0  0
   21.8342   -7.5591  -13.7999 C   0  0  0  0  0  0  0  0  0  0  0  0
   20.6983   -7.9594  -13.1319 C   0  0  0  0  0  0  0  0  0  0  0  0
   20.3960   -9.3070  -12.9434 C   0  0  0  0  0  0  0  0  0  0  0  0
   21.2363  -10.2916  -13.4263 C   0  0  0  0  0  0  0  0  0  0  0  0
   22.3737   -9.8953  -14.0950 C   0  0  0  0  0  0  0  0  0  0  0  0
   22.6739   -8.5535  -14.2823 C   0  0  0  0  0  0  0  0  0  0  0  0
   21.5509   -4.0136  -15.1226 C   0  0  0  0  0  0  0  0  0  0  0  0
   21.0069   -3.1894  -14.1766 O   0  0  0  0  0  0  0  0  0  0  0  0
   22.2400   -3.5153  -16.0660 O   0  0  0  0  0  0  0  0  0  0  0  0
  1  2  1  0
  3  2  1  0
  4  5  1  0
  4  3  1  0
  5  6  1  1
  5  1  1  0
  6  7  2  0
  9  8  1  1
  9 10  1  0
  9 11  1  0
 11 12  1  6
 12  6  1  0
 13 11  1  0
 14 13  2  0
 15 13  1  0
 16 15  1  0
 16 24  1  0
 16 17  1  1
 18 17  1  0
 19 18  2  0
 20 19  1  0
 21 22  1  0
 21 20  2  0
 22 23  2  0
 23 18  1  0
 24 25  1  0
 26 24  2  0
M  END
$$$$
