PVF.pdb
     RDKit          3D

 26 27  0  0  1  0  0  0  0  0999 V2000
   31.1429  -20.9781  -11.8757 N   0  0  0  0  0  0  0  0  0  0  0  0
   31.9230  -21.4814  -10.7826 C   0  0  0  0  0  0  0  0  0  0  0  0
   31.0556  -22.4545  -10.0152 C   0  0  0  0  0  0  0  0  0  0  0  0
   29.6575  -21.9680  -10.4192 C   0  0  0  0  0  0  0  0  0  0  0  0
   29.8814  -21.6667  -11.8845 C   0  0  1  0  0  0  0  0  0  0  0  0
   28.7881  -20.8029  -12.4438 C   0  0  0  0  0  0  0  0  0  0  0  0
   28.8598  -19.6010  -12.1373 O   0  0  0  0  0  0  0  0  0  0  0  0
   25.4781  -19.8352  -15.8900 C   0  0  0  0  0  0  0  0  0  0  0  0
   26.6244  -20.6597  -15.3071 C   0  0  1  0  0  0  0  0  0  0  0  0
   27.8666  -19.8290  -15.7270 C   0  0  0  0  0  0  0  0  0  0  0  0
   26.6218  -20.6356  -13.8093 C   0  0  2  0  0  0  0  0  0  0  0  0
   27.7746  -21.3046  -13.2417 N   0  0  0  0  0  0  0  0  0  0  0  0
   25.4309  -21.0544  -13.1089 C   0  0  0  0  0  0  0  0  0  0  0  0
   25.2630  -22.3291  -12.9037 O   0  0  0  0  0  0  0  0  0  0  0  0
   24.4141  -20.2102  -12.6076 N   0  0  0  0  0  0  0  0  0  0  0  0
   23.3463  -20.7109  -11.7494 C   0  0  1  0  0  0  0  0  0  0  0  0
   23.2322  -19.6974  -10.6251 C   0  0  0  0  0  0  0  0  0  0  0  0
   24.1799  -19.9019   -9.5299 C   0  0  0  0  0  0  0  0  0  0  0  0
   23.8772  -20.6194   -8.3941 C   0  0  0  0  0  0  0  0  0  0  0  0
   24.8069  -20.7978   -7.3709 C   0  0  0  0  0  0  0  0  0  0  0  0
   26.0732  -20.2539   -7.4672 C   0  0  0  0  0  0  0  0  0  0  0  0
   26.3800  -19.5352   -8.6018 C   0  0  0  0  0  0  0  0  0  0  0  0
   25.4539  -19.3582   -9.6200 C   0  0  0  0  0  0  0  0  0  0  0  0
   22.1144  -20.8049  -12.5552 C   0  0  0  0  0  0  0  0  0  0  0  0
   21.0407  -21.5803  -12.2141 O   0  0  0  0  0  0  0  0  0  0  0  0
   22.0763  -20.1163  -13.6217 O   0  0  0  0  0  0  0  0  0  0  0  0
  1  2  1  0
  3  2  1  0
  4  5  1  0
  4  3  1  0
  5  6  1  1
  5  1  1  0
  6  7  2  0
  9  8  1  6
  9 10  1  0
  9 11  1  0
 11 12  1  1
 12  6  1  0
 13 11  1  0
 14 13  2  0
 15 13  1  0
 16 15  1  0
 16 24  1  0
 16 17  1  1
 18 17  1  0
 19 18  2  0
 20 19  1  0
 21 22  1  0
 21 20  2  0
 22 23  2  0
 23 18  1  0
 24 25  1  0
 26 24  2  0
M  END
$$$$
