PVF.pdb
     RDKit          3D

 26 27  0  0  1  0  0  0  0  0999 V2000
   15.4875  -19.4025    1.9171 N   0  0  0  0  0  0  0  0  0  0  0  0
   15.8216  -19.3575    0.5231 C   0  0  0  0  0  0  0  0  0  0  0  0
   17.3305  -19.3347    0.4180 C   0  0  0  0  0  0  0  0  0  0  0  0
   17.7031  -18.7819    1.8000 C   0  0  0  0  0  0  0  0  0  0  0  0
   16.7065  -19.5155    2.6699 C   0  0  1  0  0  0  0  0  0  0  0  0
   16.5781  -18.8758    4.0222 C   0  0  0  0  0  0  0  0  0  0  0  0
   15.7446  -17.9571    4.0914 O   0  0  0  0  0  0  0  0  0  0  0  0
   17.3107  -19.3450    8.9149 C   0  0  0  0  0  0  0  0  0  0  0  0
   17.2783  -19.8841    7.4859 C   0  0  1  0  0  0  0  0  0  0  0  0
   15.8396  -20.4589    7.3895 C   0  0  0  0  0  0  0  0  0  0  0  0
   17.3311  -18.7812    6.4737 C   0  0  2  0  0  0  0  0  0  0  0  0
   17.3303  -19.2771    5.1125 N   0  0  0  0  0  0  0  0  0  0  0  0
   18.3406  -17.7584    6.6112 C   0  0  0  0  0  0  0  0  0  0  0  0
   19.5007  -17.9713    6.0596 O   0  0  0  0  0  0  0  0  0  0  0  0
   18.1966  -16.5257    7.2875 N   0  0  0  0  0  0  0  0  0  0  0  0
   19.2762  -15.5469    7.3498 C   0  0  1  0  0  0  0  0  0  0  0  0
   18.6233  -14.2146    7.0287 C   0  0  0  0  0  0  0  0  0  0  0  0
   19.5215  -13.0641    7.1232 C   0  0  0  0  0  0  0  0  0  0  0  0
   19.6853  -12.3270    8.2749 C   0  0  0  0  0  0  0  0  0  0  0  0
   20.5536  -11.2381    8.3304 C   0  0  0  0  0  0  0  0  0  0  0  0
   21.2835  -10.8619    7.2194 C   0  0  0  0  0  0  0  0  0  0  0  0
   21.1225  -11.5966    6.0652 C   0  0  0  0  0  0  0  0  0  0  0  0
   20.2578  -12.6806    6.0108 C   0  0  0  0  0  0  0  0  0  0  0  0
   19.8526  -15.5833    8.7070 C   0  0  0  0  0  0  0  0  0  0  0  0
   21.1756  -15.3664    8.9767 O   0  0  0  0  0  0  0  0  0  0  0  0
   19.0517  -15.8333    9.6605 O   0  0  0  0  0  0  0  0  0  0  0  0
  1  2  1  0
  3  2  1  0
  4  5  1  0
  4  3  1  0
  5  6  1  1
  5  1  1  0
  6  7  2  0
  9  8  1  1
  9 10  1  0
  9 11  1  0
 11 12  1  6
 12  6  1  0
 13 11  1  0
 14 13  2  0
 15 13  1  0
 16 15  1  0
 16 24  1  0
 16 17  1  1
 18 17  1  0
 19 18  2  0
 20 19  1  0
 21 22  1  0
 21 20  2  0
 22 23  2  0
 23 18  1  0
 24 25  1  0
 26 24  2  0
M  END
$$$$
