PVF.pdb
     RDKit          3D

 26 27  0  0  1  0  0  0  0  0999 V2000
   30.6151  -19.6837   -4.0763 N   0  0  0  0  0  0  0  0  0  0  0  0
   32.0041  -19.3299   -4.1220 C   0  0  0  0  0  0  0  0  0  0  0  0
   32.1166  -17.8768   -3.7170 C   0  0  0  0  0  0  0  0  0  0  0  0
   30.7006  -17.3817   -4.0398 C   0  0  0  0  0  0  0  0  0  0  0  0
   29.8798  -18.5599   -3.5642 C   0  0  1  0  0  0  0  0  0  0  0  0
   28.4841  -18.5192   -4.1162 C   0  0  0  0  0  0  0  0  0  0  0  0
   27.9054  -17.4259   -4.0006 O   0  0  0  0  0  0  0  0  0  0  0  0
   24.8830  -20.6849   -6.7774 C   0  0  0  0  0  0  0  0  0  0  0  0
   26.3381  -20.6354   -6.3152 C   0  0  1  0  0  0  0  0  0  0  0  0
   27.0010  -19.7758   -7.4248 C   0  0  0  0  0  0  0  0  0  0  0  0
   26.4949  -19.8414   -5.0547 C   0  0  2  0  0  0  0  0  0  0  0  0
   27.8839  -19.6157   -4.7104 N   0  0  0  0  0  0  0  0  0  0  0  0
   25.7698  -20.2554   -3.8770 C   0  0  0  0  0  0  0  0  0  0  0  0
   26.3772  -21.0397   -3.0336 O   0  0  0  0  0  0  0  0  0  0  0  0
   24.4493  -19.8862   -3.5341 N   0  0  0  0  0  0  0  0  0  0  0  0
   23.8596  -20.2310   -2.2454 C   0  0  1  0  0  0  0  0  0  0  0  0
   24.4637  -19.2500   -1.2569 C   0  0  0  0  0  0  0  0  0  0  0  0
   23.9030  -17.9009   -1.3267 C   0  0  0  0  0  0  0  0  0  0  0  0
   22.8552  -17.4774   -0.5397 C   0  0  0  0  0  0  0  0  0  0  0  0
   22.3482  -16.1821   -0.6299 C   0  0  0  0  0  0  0  0  0  0  0  0
   22.8878  -15.2751   -1.5214 C   0  0  0  0  0  0  0  0  0  0  0  0
   23.9361  -15.6947   -2.3106 C   0  0  0  0  0  0  0  0  0  0  0  0
   24.4403  -16.9844   -2.2201 C   0  0  0  0  0  0  0  0  0  0  0  0
   22.3953  -20.0934   -2.3579 C   0  0  0  0  0  0  0  0  0  0  0  0
   21.5199  -20.4581   -1.3725 O   0  0  0  0  0  0  0  0  0  0  0  0
   21.9497  -19.6059   -3.4428 O   0  0  0  0  0  0  0  0  0  0  0  0
  1  2  1  0
  3  2  1  0
  4  5  1  0
  4  3  1  0
  5  6  1  6
  5  1  1  0
  6  7  2  0
  9  8  1  6
  9 10  1  0
  9 11  1  0
 11 12  1  1
 12  6  1  0
 13 11  1  0
 14 13  2  0
 15 13  1  0
 16 15  1  0
 16 24  1  0
 16 17  1  1
 18 17  1  0
 19 18  2  0
 20 19  1  0
 21 22  1  0
 21 20  2  0
 22 23  2  0
 23 18  1  0
 24 25  1  0
 26 24  2  0
M  END
$$$$
