PVF.pdb
     RDKit          3D

 26 27  0  0  1  0  0  0  0  0999 V2000
   21.4746  -20.7463  -13.8857 N   0  0  0  0  0  0  0  0  0  0  0  0
   20.0891  -20.4313  -14.0804 C   0  0  0  0  0  0  0  0  0  0  0  0
   19.6619  -19.5353  -12.9390 C   0  0  0  0  0  0  0  0  0  0  0  0
   20.7130  -19.9008  -11.8825 C   0  0  0  0  0  0  0  0  0  0  0  0
   21.9494  -20.0087  -12.7472 C   0  0  1  0  0  0  0  0  0  0  0  0
   23.0547  -20.7398  -12.0413 C   0  0  0  0  0  0  0  0  0  0  0  0
   22.7474  -21.8619  -11.6055 O   0  0  0  0  0  0  0  0  0  0  0  0
   27.7768  -21.7884  -11.8144 C   0  0  0  0  0  0  0  0  0  0  0  0
   26.5838  -21.0147  -12.3728 C   0  0  1  0  0  0  0  0  0  0  0  0
   25.9805  -22.0318  -13.3783 C   0  0  0  0  0  0  0  0  0  0  0  0
   25.5216  -20.8063  -11.3374 C   0  0  2  0  0  0  0  0  0  0  0  0
   24.3224  -20.2066  -11.8859 N   0  0  0  0  0  0  0  0  0  0  0  0
   25.8718  -20.1391  -10.1060 C   0  0  0  0  0  0  0  0  0  0  0  0
   25.7670  -18.8419  -10.0664 O   0  0  0  0  0  0  0  0  0  0  0  0
   26.3173  -20.7581   -8.9160 N   0  0  0  0  0  0  0  0  0  0  0  0
   27.1335  -20.0514   -7.9352 C   0  0  1  0  0  0  0  0  0  0  0  0
   26.7063  -20.6071   -6.5887 C   0  0  0  0  0  0  0  0  0  0  0  0
   27.4581  -20.0773   -5.4514 C   0  0  0  0  0  0  0  0  0  0  0  0
   27.2588  -18.8155   -4.9368 C   0  0  0  0  0  0  0  0  0  0  0  0
   27.9912  -18.3441   -3.8486 C   0  0  0  0  0  0  0  0  0  0  0  0
   28.9492  -19.1376   -3.2475 C   0  0  0  0  0  0  0  0  0  0  0  0
   29.1518  -20.4005   -3.7593 C   0  0  0  0  0  0  0  0  0  0  0  0
   28.4222  -20.8690   -4.8427 C   0  0  0  0  0  0  0  0  0  0  0  0
   28.5519  -20.3221   -8.2362 C   0  0  0  0  0  0  0  0  0  0  0  0
   29.5617  -19.4297   -8.0036 O   0  0  0  0  0  0  0  0  0  0  0  0
   28.8218  -21.4563   -8.7400 O   0  0  0  0  0  0  0  0  0  0  0  0
  1  2  1  0
  3  2  1  0
  4  5  1  0
  4  3  1  0
  5  6  1  1
  5  1  1  0
  6  7  2  0
  9  8  1  1
  9 10  1  0
  9 11  1  0
 11 12  1  6
 12  6  1  0
 13 11  1  0
 14 13  2  0
 15 13  1  0
 16 15  1  0
 16 24  1  0
 16 17  1  1
 18 17  1  0
 19 18  2  0
 20 19  1  0
 21 22  1  0
 21 20  2  0
 22 23  2  0
 23 18  1  0
 24 25  1  0
 26 24  2  0
M  END
$$$$
