PVF.pdb
     RDKit          3D

 26 27  0  0  1  0  0  0  0  0999 V2000
   28.1299  -19.9183  -15.2264 N   0  0  0  0  0  0  0  0  0  0  0  0
   28.3448  -19.7165  -16.6299 C   0  0  0  0  0  0  0  0  0  0  0  0
   28.2061  -18.2351  -16.9026 C   0  0  0  0  0  0  0  0  0  0  0  0
   27.3466  -17.8055  -15.7063 C   0  0  0  0  0  0  0  0  0  0  0  0
   27.9718  -18.6322  -14.6046 C   0  0  1  0  0  0  0  0  0  0  0  0
   27.0798  -18.7108  -13.3994 C   0  0  0  0  0  0  0  0  0  0  0  0
   26.7312  -17.6138  -12.9317 O   0  0  0  0  0  0  0  0  0  0  0  0
   24.0441  -20.6102  -13.6549 C   0  0  0  0  0  0  0  0  0  0  0  0
   24.5798  -21.0604  -12.2969 C   0  0  1  0  0  0  0  0  0  0  0  0
   25.2543  -22.4137  -12.6477 C   0  0  0  0  0  0  0  0  0  0  0  0
   25.6913  -20.1784  -11.8170 C   0  0  2  0  0  0  0  0  0  0  0  0
   26.6740  -19.9137  -12.8480 N   0  0  0  0  0  0  0  0  0  0  0  0
   26.3662  -20.5170  -10.5865 C   0  0  0  0  0  0  0  0  0  0  0  0
   27.3883  -21.3207  -10.6551 O   0  0  0  0  0  0  0  0  0  0  0  0
   26.0322  -20.0535   -9.2937 N   0  0  0  0  0  0  0  0  0  0  0  0
   26.7343  -20.5147   -8.1013 C   0  0  1  0  0  0  0  0  0  0  0  0
   27.5044  -19.3059   -7.6013 C   0  0  0  0  0  0  0  0  0  0  0  0
   28.1458  -19.4949   -6.3004 C   0  0  0  0  0  0  0  0  0  0  0  0
   27.6744  -18.9283   -5.1371 C   0  0  0  0  0  0  0  0  0  0  0  0
   28.3090  -19.1329   -3.9131 C   0  0  0  0  0  0  0  0  0  0  0  0
   29.4422  -19.9188   -3.8300 C   0  0  0  0  0  0  0  0  0  0  0  0
   29.9172  -20.4874   -4.9915 C   0  0  0  0  0  0  0  0  0  0  0  0
   29.2847  -20.2831   -6.2097 C   0  0  0  0  0  0  0  0  0  0  0  0
   25.7300  -20.9885   -7.1305 C   0  0  0  0  0  0  0  0  0  0  0  0
   26.0239  -21.7940   -6.0651 O   0  0  0  0  0  0  0  0  0  0  0  0
   24.5318  -20.6120   -7.3194 O   0  0  0  0  0  0  0  0  0  0  0  0
  1  2  1  0
  3  2  1  0
  4  5  1  0
  4  3  1  0
  5  6  1  1
  5  1  1  0
  6  7  2  0
  9  8  1  6
  9 10  1  0
  9 11  1  0
 11 12  1  6
 12  6  1  0
 13 11  1  0
 14 13  2  0
 15 13  1  0
 16 15  1  0
 16 24  1  0
 16 17  1  1
 18 17  1  0
 19 18  2  0
 20 19  1  0
 21 22  1  0
 21 20  2  0
 22 23  2  0
 23 18  1  0
 24 25  1  0
 26 24  2  0
M  END
$$$$
