TGE.pdb
     RDKit          3D

 21 20  0  0  1  0  0  0  0  0999 V2000
   13.9220   -6.6910  -10.3343 C   0  0  0  0  0  0  0  0  0  0  0  0
   13.6729   -8.0132   -9.6379 C   0  0  1  0  0  0  0  0  0  0  0  0
   12.4076   -8.4958   -9.8361 O   0  0  0  0  0  0  0  0  0  0  0  0
   14.7085   -9.0423  -10.0123 C   0  0  2  0  0  0  0  0  0  0  0  0
   14.4609  -10.2932   -9.3089 N   0  0  0  0  0  0  0  0  0  0  0  0
   16.0910   -8.6476   -9.7128 C   0  0  0  0  0  0  0  0  0  0  0  0
   16.5663   -8.6143   -8.5411 O   0  0  0  0  0  0  0  0  0  0  0  0
   16.9571   -8.2814  -10.7759 N   0  0  0  0  0  0  0  0  0  0  0  0
   18.3366   -7.9445  -10.5098 C   0  0  0  0  0  0  0  0  0  0  0  0
   19.1727   -7.7622  -11.6955 C   0  0  0  0  0  0  0  0  0  0  0  0
   18.8826   -8.4868  -12.7162 O   0  0  0  0  0  0  0  0  0  0  0  0
   20.2549   -6.8757  -11.8135 N   0  0  0  0  0  0  0  0  0  0  0  0
   20.8571   -6.5735  -13.1364 C   0  0  1  0  0  0  0  0  0  0  0  0
   19.7604   -6.0777  -14.0352 C   0  0  0  0  0  0  0  0  0  0  0  0
   19.1016   -4.8516  -13.4635 C   0  0  0  0  0  0  0  0  0  0  0  0
   18.0584   -4.3218  -14.3893 C   0  0  0  0  0  0  0  0  0  0  0  0
   16.9300   -4.8589  -14.4603 O   0  0  0  0  0  0  0  0  0  0  0  0
   21.9453   -5.5937  -12.9211 C   0  0  0  0  0  0  0  0  0  0  0  0
   22.0576   -5.0591  -11.7597 O   0  0  0  0  0  0  0  0  0  0  0  0
   18.3359   -3.2318  -15.1746 O   0  0  0  0  0  0  0  0  0  0  0  0
   22.8653   -5.1971  -13.8658 O   0  0  0  0  0  0  0  0  0  0  0  0
  2  1  1  6
  2  3  1  0
  4  2  1  0
  4  5  1  1
  6  4  1  0
  7  6  2  0
  8  6  1  0
  9 10  1  0
  9  8  1  0
 10 12  1  0
 11 10  2  0
 12 13  1  0
 13 18  1  0
 13 14  1  6
 15 14  1  0
 16 15  1  0
 17 16  2  0
 18 21  1  0
 19 18  2  0
 20 16  1  0
M  END
$$$$
