TGE.pdb
     RDKit          3D

 21 20  0  0  1  0  0  0  0  0999 V2000
   18.9932  -14.1862  -20.7592 C   0  0  0  0  0  0  0  0  0  0  0  0
   18.4955  -14.1207  -19.3299 C   0  0  1  0  0  0  0  0  0  0  0  0
   17.5733  -15.0884  -19.0362 O   0  0  0  0  0  0  0  0  0  0  0  0
   19.6346  -14.1426  -18.3431 C   0  0  2  0  0  0  0  0  0  0  0  0
   19.1306  -14.3105  -16.9872 N   0  0  0  0  0  0  0  0  0  0  0  0
   20.4626  -12.9297  -18.3464 C   0  0  0  0  0  0  0  0  0  0  0  0
   21.1157  -12.5363  -19.3555 O   0  0  0  0  0  0  0  0  0  0  0  0
   20.5493  -12.1418  -17.1689 N   0  0  0  0  0  0  0  0  0  0  0  0
   21.4295  -10.9973  -17.1203 C   0  0  0  0  0  0  0  0  0  0  0  0
   20.8292   -9.7721  -16.5939 C   0  0  0  0  0  0  0  0  0  0  0  0
   19.5606   -9.7988  -16.3916 O   0  0  0  0  0  0  0  0  0  0  0  0
   21.5107   -8.5815  -16.2962 N   0  0  0  0  0  0  0  0  0  0  0  0
   20.8185   -7.4477  -15.6332 C   0  0  1  0  0  0  0  0  0  0  0  0
   21.7611   -6.8679  -14.6174 C   0  0  0  0  0  0  0  0  0  0  0  0
   21.1219   -5.7286  -13.8707 C   0  0  0  0  0  0  0  0  0  0  0  0
   22.0668   -5.1410  -12.8769 C   0  0  0  0  0  0  0  0  0  0  0  0
   22.4911   -3.9706  -13.0078 O   0  0  0  0  0  0  0  0  0  0  0  0
   20.4106   -6.4922  -16.6873 C   0  0  0  0  0  0  0  0  0  0  0  0
   21.0788   -6.4782  -17.7830 O   0  0  0  0  0  0  0  0  0  0  0  0
   22.4784   -5.8901  -11.8040 O   0  0  0  0  0  0  0  0  0  0  0  0
   19.3624   -5.6035  -16.6016 O   0  0  0  0  0  0  0  0  0  0  0  0
  2  1  1  6
  2  3  1  0
  4  2  1  0
  4  5  1  1
  6  4  1  0
  7  6  2  0
  8  6  1  0
  9 10  1  0
  9  8  1  0
 10 12  1  0
 11 10  2  0
 12 13  1  0
 13 18  1  0
 13 14  1  1
 15 14  1  0
 16 15  1  0
 17 16  2  0
 18 21  1  0
 19 18  2  0
 20 16  1  0
M  END
$$$$
