TGE.pdb
     RDKit          3D

 21 20  0  0  1  0  0  0  0  0999 V2000
   17.5783  -13.5276  -17.5314 C   0  0  0  0  0  0  0  0  0  0  0  0
   17.9603  -12.5844  -16.4092 C   0  0  1  0  0  0  0  0  0  0  0  0
   18.8050  -13.1513  -15.4937 O   0  0  0  0  0  0  0  0  0  0  0  0
   18.5262  -11.2914  -16.9382 C   0  0  2  0  0  0  0  0  0  0  0  0
   19.7710  -11.5352  -17.6535 N   0  0  0  0  0  0  0  0  0  0  0  0
   18.8140  -10.2883  -15.9049 C   0  0  0  0  0  0  0  0  0  0  0  0
   17.9160   -9.7134  -15.2246 O   0  0  0  0  0  0  0  0  0  0  0  0
   20.1611   -9.9297  -15.6376 N   0  0  0  0  0  0  0  0  0  0  0  0
   20.4752   -9.0349  -14.5477 C   0  0  0  0  0  0  0  0  0  0  0  0
   21.0967   -7.7706  -14.9397 C   0  0  0  0  0  0  0  0  0  0  0  0
   21.6657   -7.7466  -16.0915 O   0  0  0  0  0  0  0  0  0  0  0  0
   21.1276   -6.5943  -14.1741 N   0  0  0  0  0  0  0  0  0  0  0  0
   21.7917   -5.3672  -14.6813 C   0  0  1  0  0  0  0  0  0  0  0  0
   20.7270   -4.4736  -15.2508 C   0  0  0  0  0  0  0  0  0  0  0  0
   19.6698   -4.1659  -14.2252 C   0  0  0  0  0  0  0  0  0  0  0  0
   18.6268   -3.2580  -14.7855 C   0  0  0  0  0  0  0  0  0  0  0  0
   17.4911   -3.6914  -15.0842 O   0  0  0  0  0  0  0  0  0  0  0  0
   22.5420   -4.7651  -13.5566 C   0  0  0  0  0  0  0  0  0  0  0  0
   23.3259   -3.7809  -13.8100 O   0  0  0  0  0  0  0  0  0  0  0  0
   18.9124   -1.9301  -14.9771 O   0  0  0  0  0  0  0  0  0  0  0  0
   22.4748   -5.1674  -12.2415 O   0  0  0  0  0  0  0  0  0  0  0  0
  2  1  1  6
  2  3  1  0
  4  2  1  0
  4  5  1  1
  6  4  1  0
  7  6  2  0
  8  6  1  0
  9 10  1  0
  9  8  1  0
 10 12  1  0
 11 10  2  0
 12 13  1  0
 13 18  1  0
 13 14  1  1
 15 14  1  0
 16 15  1  0
 17 16  2  0
 18 21  1  0
 19 18  2  0
 20 16  1  0
M  END
$$$$
