TGE.pdb
     RDKit          3D

 21 20  0  0  1  0  0  0  0  0999 V2000
   17.1902  -14.9187  -15.6594 C   0  0  0  0  0  0  0  0  0  0  0  0
   17.1208  -13.4565  -15.2691 C   0  0  1  0  0  0  0  0  0  0  0  0
   17.5573  -13.2185  -13.9940 O   0  0  0  0  0  0  0  0  0  0  0  0
   17.8449  -12.5817  -16.2602 C   0  0  2  0  0  0  0  0  0  0  0  0
   19.2738  -12.8620  -16.2381 N   0  0  0  0  0  0  0  0  0  0  0  0
   17.6863  -11.1407  -16.0256 C   0  0  0  0  0  0  0  0  0  0  0  0
   16.5669  -10.5522  -16.0439 O   0  0  0  0  0  0  0  0  0  0  0  0
   18.8332  -10.3471  -15.7621 N   0  0  0  0  0  0  0  0  0  0  0  0
   18.6939   -8.9405  -15.4633 C   0  0  0  0  0  0  0  0  0  0  0  0
   19.9471   -8.2312  -15.2083 C   0  0  0  0  0  0  0  0  0  0  0  0
   20.9811   -8.9605  -14.9853 O   0  0  0  0  0  0  0  0  0  0  0  0
   20.1161   -6.8378  -15.1837 N   0  0  0  0  0  0  0  0  0  0  0  0
   21.4624   -6.2319  -15.0285 C   0  0  1  0  0  0  0  0  0  0  0  0
   21.5199   -5.0148  -15.9073 C   0  0  0  0  0  0  0  0  0  0  0  0
   22.8164   -4.2733  -15.7246 C   0  0  0  0  0  0  0  0  0  0  0  0
   22.8420   -3.0272  -16.5448 C   0  0  0  0  0  0  0  0  0  0  0  0
   22.9496   -3.0804  -17.7907 O   0  0  0  0  0  0  0  0  0  0  0  0
   21.6622   -5.9436  -13.5907 C   0  0  0  0  0  0  0  0  0  0  0  0
   20.6254   -5.7166  -12.8691 O   0  0  0  0  0  0  0  0  0  0  0  0
   22.7466   -1.8053  -15.9288 O   0  0  0  0  0  0  0  0  0  0  0  0
   22.8767   -5.8976  -12.9435 O   0  0  0  0  0  0  0  0  0  0  0  0
  2  1  1  6
  2  3  1  0
  4  2  1  0
  4  5  1  1
  6  4  1  0
  7  6  2  0
  8  6  1  0
  9 10  1  0
  9  8  1  0
 10 12  1  0
 11 10  2  0
 12 13  1  0
 13 18  1  0
 13 14  1  6
 15 14  1  0
 16 15  1  0
 17 16  2  0
 18 21  1  0
 19 18  2  0
 20 16  1  0
M  END
$$$$
