TGE.pdb
     RDKit          3D

 21 20  0  0  1  0  0  0  0  0999 V2000
   19.6559  -12.2098  -19.7211 C   0  0  0  0  0  0  0  0  0  0  0  0
   19.3643  -13.3102  -18.7216 C   0  0  1  0  0  0  0  0  0  0  0  0
   19.7224  -14.5529  -19.1695 O   0  0  0  0  0  0  0  0  0  0  0  0
   19.9847  -13.0203  -17.3789 C   0  0  2  0  0  0  0  0  0  0  0  0
   19.7710  -14.1360  -16.4676 N   0  0  0  0  0  0  0  0  0  0  0  0
   19.4617  -11.8185  -16.7165 C   0  0  0  0  0  0  0  0  0  0  0  0
   18.2785  -11.7245  -16.2795 O   0  0  0  0  0  0  0  0  0  0  0  0
   20.3087  -10.6925  -16.5457 N   0  0  0  0  0  0  0  0  0  0  0  0
   19.7767   -9.4505  -16.0339 C   0  0  0  0  0  0  0  0  0  0  0  0
   20.7699   -8.4111  -15.7666 C   0  0  0  0  0  0  0  0  0  0  0  0
   22.0025   -8.7575  -15.8742 O   0  0  0  0  0  0  0  0  0  0  0  0
   20.4967   -7.0827  -15.4040 N   0  0  0  0  0  0  0  0  0  0  0  0
   21.5934   -6.1034  -15.1986 C   0  0  1  0  0  0  0  0  0  0  0  0
   21.2751   -4.8831  -16.0147 C   0  0  0  0  0  0  0  0  0  0  0  0
   22.2977   -3.8011  -15.7960 C   0  0  0  0  0  0  0  0  0  0  0  0
   21.9739   -2.5864  -16.5996 C   0  0  0  0  0  0  0  0  0  0  0  0
   21.4761   -1.5728  -16.0595 O   0  0  0  0  0  0  0  0  0  0  0  0
   21.6969   -5.8431  -13.7454 C   0  0  0  0  0  0  0  0  0  0  0  0
   22.7388   -5.2313  -13.3127 O   0  0  0  0  0  0  0  0  0  0  0  0
   22.2237   -2.5765  -17.9483 O   0  0  0  0  0  0  0  0  0  0  0  0
   20.7630   -6.2002  -12.7986 O   0  0  0  0  0  0  0  0  0  0  0  0
  2  1  1  6
  2  3  1  0
  4  2  1  0
  4  5  1  1
  6  4  1  0
  7  6  2  0
  8  6  1  0
  9 10  1  0
  9  8  1  0
 10 12  1  0
 11 10  2  0
 12 13  1  0
 13 18  1  0
 13 14  1  6
 15 14  1  0
 16 15  1  0
 17 16  2  0
 18 21  1  0
 19 18  2  0
 20 16  1  0
M  END
$$$$
