TGE.pdb
     RDKit          3D

 21 20  0  0  1  0  0  0  0  0999 V2000
   19.6208  -28.7078   -0.7012 C   0  0  0  0  0  0  0  0  0  0  0  0
   19.3785  -27.7229   -1.8266 C   0  0  1  0  0  0  0  0  0  0  0  0
   20.2558  -27.8681   -2.8670 O   0  0  0  0  0  0  0  0  0  0  0  0
   17.9523  -27.7728   -2.3115 C   0  0  2  0  0  0  0  0  0  0  0  0
   17.8303  -27.1123   -3.6037 N   0  0  0  0  0  0  0  0  0  0  0  0
   16.9833  -27.1358   -1.4105 C   0  0  0  0  0  0  0  0  0  0  0  0
   15.7308  -27.2563   -1.5390 O   0  0  0  0  0  0  0  0  0  0  0  0
   17.4522  -26.3403   -0.3327 N   0  0  0  0  0  0  0  0  0  0  0  0
   16.5178  -25.7392    0.5909 C   0  0  0  0  0  0  0  0  0  0  0  0
   17.1232  -24.9606    1.6705 C   0  0  0  0  0  0  0  0  0  0  0  0
   18.4017  -25.0305    1.7778 O   0  0  0  0  0  0  0  0  0  0  0  0
   16.4361  -24.1541    2.5915 N   0  0  0  0  0  0  0  0  0  0  0  0
   17.1663  -23.2288    3.4940 C   0  0  1  0  0  0  0  0  0  0  0  0
   16.2510  -22.0799    3.8083 C   0  0  0  0  0  0  0  0  0  0  0  0
   16.1238  -21.1490    2.6329 C   0  0  0  0  0  0  0  0  0  0  0  0
   15.8300  -19.7565    3.0806 C   0  0  0  0  0  0  0  0  0  0  0  0
   14.9068  -19.5242    3.8934 O   0  0  0  0  0  0  0  0  0  0  0  0
   17.5892  -24.0017    4.6832 C   0  0  0  0  0  0  0  0  0  0  0  0
   16.8166  -24.9364    5.1037 O   0  0  0  0  0  0  0  0  0  0  0  0
   16.5795  -18.7141    2.5975 O   0  0  0  0  0  0  0  0  0  0  0  0
   18.7545  -23.8099    5.3911 O   0  0  0  0  0  0  0  0  0  0  0  0
  2  1  1  1
  2  3  1  0
  4  2  1  0
  4  5  1  6
  6  4  1  0
  7  6  2  0
  8  6  1  0
  9 10  1  0
  9  8  1  0
 10 12  1  0
 11 10  2  0
 12 13  1  0
 13 18  1  0
 13 14  1  1
 15 14  1  0
 16 15  1  0
 17 16  2  0
 18 21  1  0
 19 18  2  0
 20 16  1  0
M  END
$$$$
