NPH.pdb
     RDKit          3D

 26 27  0  0  1  0  0  0  0  0999 V2000
    7.2274  -18.4605   15.8656 N   0  0  0  0  0  0  0  0  0  0  0  0
    6.8323  -18.5243   17.2235 C   0  0  0  0  0  0  0  0  0  0  0  0
    5.9299  -19.3322   17.5390 O   0  0  0  0  0  0  0  0  0  0  0  0
    7.4332  -17.6866   18.2744 C   0  0  0  0  0  0  0  0  0  0  0  0
    8.4644  -16.7211   17.7191 C   0  0  2  0  0  0  0  0  0  0  0  0
    9.4605  -17.4606   16.9278 N   0  0  0  0  0  0  0  0  0  0  0  0
    9.1372  -15.9628   18.7910 C   0  0  0  0  0  0  0  0  0  0  0  0
   10.3557  -16.2594   19.0408 O   0  0  0  0  0  0  0  0  0  0  0  0
    8.5304  -14.9339   19.5587 N   0  0  0  0  0  0  0  0  0  0  0  0
    7.1733  -14.4492   19.4658 C   0  0  0  0  0  0  0  0  0  0  0  0
    7.3580  -12.9444   19.6214 C   0  0  0  0  0  0  0  0  0  0  0  0
    8.6670  -12.7710   20.3312 C   0  0  0  0  0  0  0  0  0  0  0  0
    9.1675  -14.1504   20.5948 C   0  0  1  0  0  0  0  0  0  0  0  0
    8.8355  -14.6680   21.9384 C   0  0  0  0  0  0  0  0  0  0  0  0
    7.7299  -15.2562   22.0845 O   0  0  0  0  0  0  0  0  0  0  0  0
    9.6934  -14.5352   23.0585 N   0  0  0  0  0  0  0  0  0  0  0  0
    9.5070  -15.3421   24.2596 C   0  0  1  0  0  0  0  0  0  0  0  0
    8.0852  -15.7306   24.4552 C   0  0  0  0  0  0  0  0  0  0  0  0
    7.2926  -14.5795   24.9300 C   0  0  0  0  0  0  0  0  0  0  0  0
    7.7019  -13.2875   25.2435 C   0  0  0  0  0  0  0  0  0  0  0  0
    6.6692  -12.5459   25.6622 N   0  0  0  0  0  0  0  0  0  0  0  0
    5.5967  -13.3526   25.6204 C   0  0  0  0  0  0  0  0  0  0  0  0
    5.9497  -14.5712   25.1856 N   0  0  0  0  0  0  0  0  0  0  0  0
   10.4244  -16.5001   24.2645 C   0  0  0  0  0  0  0  0  0  0  0  0
   11.3105  -16.7278   23.1851 O   0  0  0  0  0  0  0  0  0  0  0  0
   10.5066  -17.3544   25.1782 O   0  0  0  0  0  0  0  0  0  0  0  0
  2  1  1  0
  3  2  2  0
  4  2  1  0
  5  4  1  0
  5  6  1  1
  7  5  1  0
  7  9  1  0
  8  7  2  0
  9 13  1  0
 10  9  1  0
 10 11  1  0
 11 12  1  0
 13 14  1  1
 13 12  1  0
 14 15  2  0
 16 17  1  0
 16 14  1  0
 17 18  1  6
 18 19  1  0
 19 23  1  0
 20 19  2  0
 20 21  1  0
 21 22  1  0
 23 22  2  0
 24 25  1  0
 24 17  1  0
 26 24  2  0
M  END
$$$$
