NPH.pdb
     RDKit          3D

 26 27  0  0  1  0  0  0  0  0999 V2000
    7.7466  -17.0308   22.1669 N   0  0  0  0  0  0  0  0  0  0  0  0
    6.4800  -16.4108   22.2906 C   0  0  0  0  0  0  0  0  0  0  0  0
    5.4694  -17.1439   22.3798 O   0  0  0  0  0  0  0  0  0  0  0  0
    6.3008  -14.9499   22.3187 C   0  0  0  0  0  0  0  0  0  0  0  0
    7.6248  -14.2085   22.2780 C   0  0  2  0  0  0  0  0  0  0  0  0
    8.4824  -14.7823   21.2290 N   0  0  0  0  0  0  0  0  0  0  0  0
    8.3202  -14.2585   23.5782 C   0  0  0  0  0  0  0  0  0  0  0  0
    9.5044  -14.7410   23.5897 O   0  0  0  0  0  0  0  0  0  0  0  0
    7.7703  -13.8112   24.8085 N   0  0  0  0  0  0  0  0  0  0  0  0
    6.4347  -13.3176   25.0488 C   0  0  0  0  0  0  0  0  0  0  0  0
    6.6876  -12.1578   26.0045 C   0  0  0  0  0  0  0  0  0  0  0  0
    8.0129  -12.4447   26.6435 C   0  0  0  0  0  0  0  0  0  0  0  0
    8.4560  -13.7525   26.0811 C   0  0  1  0  0  0  0  0  0  0  0  0
    8.1208  -14.9184   26.9246 C   0  0  0  0  0  0  0  0  0  0  0  0
    7.0964  -15.5879   26.6208 O   0  0  0  0  0  0  0  0  0  0  0  0
    8.8894  -15.3148   28.0472 N   0  0  0  0  0  0  0  0  0  0  0  0
    9.6370  -16.5677   28.0536 C   0  0  1  0  0  0  0  0  0  0  0  0
   10.3572  -16.7936   26.7726 C   0  0  0  0  0  0  0  0  0  0  0  0
    9.5989  -17.7169   25.9060 C   0  0  0  0  0  0  0  0  0  0  0  0
    8.4272  -18.4200   26.1667 C   0  0  0  0  0  0  0  0  0  0  0  0
    8.0755  -19.1716   25.1164 N   0  0  0  0  0  0  0  0  0  0  0  0
    9.0138  -18.9570   24.1803 C   0  0  0  0  0  0  0  0  0  0  0  0
    9.9319  -18.0910   24.6339 N   0  0  0  0  0  0  0  0  0  0  0  0
   10.5239  -16.6465   29.2325 C   0  0  0  0  0  0  0  0  0  0  0  0
   10.8989  -15.4783   29.9373 O   0  0  0  0  0  0  0  0  0  0  0  0
   11.0091  -17.7019   29.7037 O   0  0  0  0  0  0  0  0  0  0  0  0
  2  1  1  0
  3  2  2  0
  4  2  1  0
  5  4  1  0
  5  6  1  6
  7  5  1  0
  7  9  1  0
  8  7  2  0
  9 13  1  0
 10  9  1  0
 10 11  1  0
 11 12  1  0
 13 14  1  1
 13 12  1  0
 14 15  2  0
 16 17  1  0
 16 14  1  0
 17 18  1  6
 18 19  1  0
 19 23  1  0
 20 19  2  0
 20 21  1  0
 21 22  1  0
 23 22  2  0
 24 25  1  0
 24 17  1  0
 26 24  2  0
M  END
$$$$
