NPH.pdb
     RDKit          3D

 26 27  0  0  1  0  0  0  0  0999 V2000
   11.3708  -15.1742   17.4560 N   0  0  0  0  0  0  0  0  0  0  0  0
   11.8000  -14.4472   18.5923 C   0  0  0  0  0  0  0  0  0  0  0  0
   13.0253  -14.4168   18.8462 O   0  0  0  0  0  0  0  0  0  0  0  0
   10.8734  -13.7296   19.4832 C   0  0  0  0  0  0  0  0  0  0  0  0
    9.4204  -14.0231   19.1565 C   0  0  2  0  0  0  0  0  0  0  0  0
    8.8411  -12.8928   18.4136 N   0  0  0  0  0  0  0  0  0  0  0  0
    8.6276  -14.2833   20.3733 C   0  0  0  0  0  0  0  0  0  0  0  0
    8.2105  -13.2671   21.0278 O   0  0  0  0  0  0  0  0  0  0  0  0
    8.2977  -15.5741   20.8643 N   0  0  0  0  0  0  0  0  0  0  0  0
    8.7216  -16.8510   20.3398 C   0  0  0  0  0  0  0  0  0  0  0  0
    7.4523  -17.6857   20.4607 C   0  0  0  0  0  0  0  0  0  0  0  0
    6.6307  -17.0173   21.5215 C   0  0  0  0  0  0  0  0  0  0  0  0
    7.4498  -15.8668   21.9995 C   0  0  1  0  0  0  0  0  0  0  0  0
    8.2515  -16.1552   23.2067 C   0  0  0  0  0  0  0  0  0  0  0  0
    9.3629  -16.7297   23.0502 O   0  0  0  0  0  0  0  0  0  0  0  0
    7.8334  -15.8192   24.5184 N   0  0  0  0  0  0  0  0  0  0  0  0
    8.7977  -15.5836   25.5875 C   0  0  1  0  0  0  0  0  0  0  0  0
    8.2725  -14.6466   26.6155 C   0  0  0  0  0  0  0  0  0  0  0  0
    9.1945  -14.5668   27.7654 C   0  0  0  0  0  0  0  0  0  0  0  0
   10.3669  -15.2725   28.0150 C   0  0  0  0  0  0  0  0  0  0  0  0
   10.8987  -14.9179   29.1911 N   0  0  0  0  0  0  0  0  0  0  0  0
   10.0756  -13.9875   29.7009 C   0  0  0  0  0  0  0  0  0  0  0  0
    9.0521  -13.7648   28.8634 N   0  0  0  0  0  0  0  0  0  0  0  0
    9.2703  -16.8600   26.1621 C   0  0  0  0  0  0  0  0  0  0  0  0
    8.4546  -18.0157   26.1302 O   0  0  0  0  0  0  0  0  0  0  0  0
   10.3844  -17.0393   26.7081 O   0  0  0  0  0  0  0  0  0  0  0  0
  2  1  1  0
  3  2  2  0
  4  2  1  0
  5  4  1  0
  5  6  1  1
  7  5  1  0
  7  9  1  0
  8  7  2  0
  9 13  1  0
 10  9  1  0
 10 11  1  0
 11 12  1  0
 13 14  1  1
 13 12  1  0
 14 15  2  0
 16 17  1  0
 16 14  1  0
 17 18  1  1
 18 19  1  0
 19 23  1  0
 20 19  2  0
 20 21  1  0
 21 22  1  0
 23 22  2  0
 24 25  1  0
 24 17  1  0
 26 24  2  0
M  END
$$$$
