MSC.pdb
     RDKit          3D

 21 20  0  0  1  0  0  0  0  0999 V2000
    7.7302  -11.5418   20.7675 C   0  0  0  0  0  0  0  0  0  0  0  0
    8.2265  -12.7311   19.5065 S   0  0  0  0  0  0  0  0  0  0  0  0
    7.4419  -14.3255   19.7843 C   0  0  0  0  0  0  0  0  0  0  0  0
    7.7124  -14.8598   21.1720 C   0  0  0  0  0  0  0  0  0  0  0  0
    8.2631  -16.2690   21.1529 C   0  0  2  0  0  0  0  0  0  0  0  0
    7.3548  -17.2042   20.5354 N   0  0  0  0  0  0  0  0  0  0  0  0
    8.5607  -16.6285   22.5634 C   0  0  0  0  0  0  0  0  0  0  0  0
    7.5827  -16.6526   23.3529 O   0  0  0  0  0  0  0  0  0  0  0  0
   12.3348  -18.1050   23.6446 O   0  0  0  0  0  0  0  0  0  0  0  0
   11.1700  -18.4887   24.2761 C   0  0  0  0  0  0  0  0  0  0  0  0
   10.1440  -17.3954   24.3703 C   0  0  2  0  0  0  0  0  0  0  0  0
    9.8674  -16.9328   23.0231 N   0  0  0  0  0  0  0  0  0  0  0  0
   10.6313  -16.3018   25.2364 C   0  0  0  0  0  0  0  0  0  0  0  0
   11.3861  -15.4382   24.7211 O   0  0  0  0  0  0  0  0  0  0  0  0
   10.3015  -16.1664   26.6063 N   0  0  0  0  0  0  0  0  0  0  0  0
   11.0498  -15.2805   27.4919 C   0  0  1  0  0  0  0  0  0  0  0  0
   10.3389  -13.9566   27.6641 C   0  0  0  0  0  0  0  0  0  0  0  0
    8.6230  -14.2414   28.1048 S   0  0  0  0  0  0  0  0  0  0  0  0
   11.1968  -15.9822   28.7916 C   0  0  0  0  0  0  0  0  0  0  0  0
   11.9247  -15.4309   29.8444 O   0  0  0  0  0  0  0  0  0  0  0  0
   10.6677  -17.1046   28.9912 O   0  0  0  0  0  0  0  0  0  0  0  0
  2  1  1  0
  3  4  1  0
  3  2  1  0
  4  5  1  0
  5  7  1  0
  5  6  1  1
  7 12  1  0
  7  8  2  0
  9 10  1  0
 11 10  1  6
 11 13  1  0
 12 11  1  0
 13 15  1  0
 13 14  2  0
 15 16  1  0
 16 19  1  0
 16 17  1  1
 18 17  1  0
 19 20  1  0
 21 19  2  0
M  END
$$$$
