MSC.pdb
     RDKit          3D

 21 20  0  0  1  0  0  0  0  0999 V2000
    6.9714  -10.3357   25.4503 C   0  0  0  0  0  0  0  0  0  0  0  0
    6.5942  -12.0043   26.0199 S   0  0  0  0  0  0  0  0  0  0  0  0
    7.5358  -13.2260   25.0949 C   0  0  0  0  0  0  0  0  0  0  0  0
    6.6825  -13.9573   24.0841 C   0  0  0  0  0  0  0  0  0  0  0  0
    7.5064  -14.6160   22.9992 C   0  0  2  0  0  0  0  0  0  0  0  0
    6.6871  -15.1768   21.9529 N   0  0  0  0  0  0  0  0  0  0  0  0
    8.3421  -15.6471   23.6668 C   0  0  0  0  0  0  0  0  0  0  0  0
    7.7396  -16.4556   24.4176 O   0  0  0  0  0  0  0  0  0  0  0  0
   11.3061  -17.9580   22.0867 O   0  0  0  0  0  0  0  0  0  0  0  0
   11.6662  -17.1005   23.1054 C   0  0  0  0  0  0  0  0  0  0  0  0
   10.5505  -16.7982   24.0650 C   0  0  2  0  0  0  0  0  0  0  0  0
    9.7458  -15.7385   23.4860 N   0  0  0  0  0  0  0  0  0  0  0  0
   11.0927  -16.4160   25.3853 C   0  0  0  0  0  0  0  0  0  0  0  0
   11.2893  -15.1939   25.6066 O   0  0  0  0  0  0  0  0  0  0  0  0
   11.4034  -17.3378   26.4136 N   0  0  0  0  0  0  0  0  0  0  0  0
   11.4527  -16.9359   27.8154 C   0  0  1  0  0  0  0  0  0  0  0  0
   10.1734  -16.2422   28.2276 C   0  0  0  0  0  0  0  0  0  0  0  0
   10.5542  -14.8446   29.2864 S   0  0  0  0  0  0  0  0  0  0  0  0
   11.6770  -18.1654   28.6162 C   0  0  0  0  0  0  0  0  0  0  0  0
   12.4992  -18.1678   29.7414 O   0  0  0  0  0  0  0  0  0  0  0  0
   11.1310  -19.2544   28.3072 O   0  0  0  0  0  0  0  0  0  0  0  0
  2  1  1  0
  3  4  1  0
  3  2  1  0
  4  5  1  0
  5  7  1  0
  5  6  1  6
  7 12  1  0
  7  8  2  0
  9 10  1  0
 11 10  1  6
 11 13  1  0
 12 11  1  0
 13 15  1  0
 13 14  2  0
 15 16  1  0
 16 19  1  0
 16 17  1  1
 18 17  1  0
 19 20  1  0
 21 19  2  0
M  END
$$$$
