MSC.pdb
     RDKit          3D

 21 20  0  0  1  0  0  0  0  0999 V2000
    6.3736  -10.3441   26.2685 C   0  0  0  0  0  0  0  0  0  0  0  0
    7.1517  -11.9458   25.9856 S   0  0  0  0  0  0  0  0  0  0  0  0
    5.9187  -13.2014   25.6146 C   0  0  0  0  0  0  0  0  0  0  0  0
    6.5372  -14.5658   25.4137 C   0  0  0  0  0  0  0  0  0  0  0  0
    7.5847  -14.5717   24.3217 C   0  0  2  0  0  0  0  0  0  0  0  0
    7.0083  -14.7392   23.0101 N   0  0  0  0  0  0  0  0  0  0  0  0
    8.5399  -15.6598   24.6547 C   0  0  0  0  0  0  0  0  0  0  0  0
    8.2270  -16.4037   25.6186 O   0  0  0  0  0  0  0  0  0  0  0  0
   12.3425  -15.7989   22.9271 O   0  0  0  0  0  0  0  0  0  0  0  0
   11.7026  -16.9969   23.1676 C   0  0  0  0  0  0  0  0  0  0  0  0
   10.6852  -16.9290   24.2709 C   0  0  2  0  0  0  0  0  0  0  0  0
    9.7473  -15.8719   23.9415 N   0  0  0  0  0  0  0  0  0  0  0  0
   11.3464  -16.6903   25.5706 C   0  0  0  0  0  0  0  0  0  0  0  0
   11.8689  -15.5630   25.7639 O   0  0  0  0  0  0  0  0  0  0  0  0
   11.4273  -17.6491   26.6087 N   0  0  0  0  0  0  0  0  0  0  0  0
   12.1074  -17.3620   27.8673 C   0  0  1  0  0  0  0  0  0  0  0  0
   11.1500  -16.7766   28.8815 C   0  0  0  0  0  0  0  0  0  0  0  0
   10.5102  -15.2119   28.2801 S   0  0  0  0  0  0  0  0  0  0  0  0
   12.6871  -18.6391   28.3534 C   0  0  0  0  0  0  0  0  0  0  0  0
   13.4366  -18.7046   29.5265 O   0  0  0  0  0  0  0  0  0  0  0  0
   12.5225  -19.7131   27.7218 O   0  0  0  0  0  0  0  0  0  0  0  0
  2  1  1  0
  3  4  1  0
  3  2  1  0
  4  5  1  0
  5  7  1  0
  5  6  1  6
  7 12  1  0
  7  8  2  0
  9 10  1  0
 11 10  1  6
 11 13  1  0
 12 11  1  0
 13 15  1  0
 13 14  2  0
 15 16  1  0
 16 19  1  0
 16 17  1  1
 18 17  1  0
 19 20  1  0
 21 19  2  0
M  END
$$$$
