MSC.pdb
     RDKit          3D

 21 20  0  0  1  0  0  0  0  0999 V2000
    7.1724  -15.1056   43.9500 C   0  0  0  0  0  0  0  0  0  0  0  0
    8.1474  -13.6722   43.4544 S   0  0  0  0  0  0  0  0  0  0  0  0
    9.8359  -14.1500   43.0604 C   0  0  0  0  0  0  0  0  0  0  0  0
   10.6599  -12.9808   42.5719 C   0  0  0  0  0  0  0  0  0  0  0  0
   12.0962  -13.3630   42.2883 C   0  0  2  0  0  0  0  0  0  0  0  0
   12.7473  -13.9401   43.4387 N   0  0  0  0  0  0  0  0  0  0  0  0
   12.7798  -12.1297   41.8204 C   0  0  0  0  0  0  0  0  0  0  0  0
   13.2054  -11.3530   42.7125 O   0  0  0  0  0  0  0  0  0  0  0  0
   12.5373  -11.0161   37.8641 O   0  0  0  0  0  0  0  0  0  0  0  0
   13.7190  -10.6843   38.4935 C   0  0  0  0  0  0  0  0  0  0  0  0
   13.6067  -10.6050   39.9895 C   0  0  2  0  0  0  0  0  0  0  0  0
   12.9573  -11.8190   40.4480 N   0  0  0  0  0  0  0  0  0  0  0  0
   12.8555   -9.3968   40.3887 C   0  0  0  0  0  0  0  0  0  0  0  0
   11.5997   -9.4613   40.3899 O   0  0  0  0  0  0  0  0  0  0  0  0
   13.4603   -8.1750   40.7692 N   0  0  0  0  0  0  0  0  0  0  0  0
   12.6663   -7.0078   41.1385 C   0  0  1  0  0  0  0  0  0  0  0  0
   11.8753   -7.2657   42.4016 C   0  0  0  0  0  0  0  0  0  0  0  0
   10.8855   -5.8241   42.8034 S   0  0  0  0  0  0  0  0  0  0  0  0
   13.6092   -5.8757   41.3190 C   0  0  0  0  0  0  0  0  0  0  0  0
   14.9829   -6.0775   41.4395 O   0  0  0  0  0  0  0  0  0  0  0  0
   13.2013   -4.6880   41.3701 O   0  0  0  0  0  0  0  0  0  0  0  0
  2  1  1  0
  3  4  1  0
  3  2  1  0
  4  5  1  0
  5  7  1  0
  5  6  1  1
  7 12  1  0
  7  8  2  0
  9 10  1  0
 11 10  1  6
 11 13  1  0
 12 11  1  0
 13 15  1  0
 13 14  2  0
 15 16  1  0
 16 19  1  0
 16 17  1  1
 18 17  1  0
 19 20  1  0
 21 19  2  0
M  END
$$$$
