MSC.pdb
     RDKit          3D

 21 20  0  0  1  0  0  0  0  0999 V2000
    6.4865  -11.2857   25.7214 C   0  0  0  0  0  0  0  0  0  0  0  0
    6.1226  -13.0487   25.6200 S   0  0  0  0  0  0  0  0  0  0  0  0
    7.5260  -14.0265   26.1760 C   0  0  0  0  0  0  0  0  0  0  0  0
    7.1949  -15.4985   26.2666 C   0  0  0  0  0  0  0  0  0  0  0  0
    6.8209  -16.0915   24.9257 C   0  0  2  0  0  0  0  0  0  0  0  0
    5.8866  -17.1833   25.0505 N   0  0  0  0  0  0  0  0  0  0  0  0
    8.0899  -16.5141   24.2788 C   0  0  0  0  0  0  0  0  0  0  0  0
    8.7556  -17.3972   24.8765 O   0  0  0  0  0  0  0  0  0  0  0  0
    9.9056  -14.3630   21.1289 O   0  0  0  0  0  0  0  0  0  0  0  0
    9.8336  -15.7386   21.0563 C   0  0  0  0  0  0  0  0  0  0  0  0
    9.7659  -16.4130   22.3970 C   0  0  2  0  0  0  0  0  0  0  0  0
    8.5506  -15.9684   23.0535 N   0  0  0  0  0  0  0  0  0  0  0  0
   10.9679  -16.0972   23.1963 C   0  0  0  0  0  0  0  0  0  0  0  0
   10.9883  -15.0039   23.8171 O   0  0  0  0  0  0  0  0  0  0  0  0
   12.0944  -16.9472   23.3065 N   0  0  0  0  0  0  0  0  0  0  0  0
   13.2080  -16.6341   24.1959 C   0  0  1  0  0  0  0  0  0  0  0  0
   13.5236  -17.8019   25.1039 C   0  0  0  0  0  0  0  0  0  0  0  0
   12.2214  -17.9923   26.3234 S   0  0  0  0  0  0  0  0  0  0  0  0
   14.3709  -16.2929   23.3387 C   0  0  0  0  0  0  0  0  0  0  0  0
   14.3061  -16.3738   21.9490 O   0  0  0  0  0  0  0  0  0  0  0  0
   15.4615  -15.9169   23.8373 O   0  0  0  0  0  0  0  0  0  0  0  0
  2  1  1  0
  3  4  1  0
  3  2  1  0
  4  5  1  0
  5  7  1  0
  5  6  1  1
  7 12  1  0
  7  8  2  0
  9 10  1  0
 11 10  1  6
 11 13  1  0
 12 11  1  0
 13 15  1  0
 13 14  2  0
 15 16  1  0
 16 19  1  0
 16 17  1  6
 18 17  1  0
 19 20  1  0
 21 19  2  0
M  END
$$$$
