MSC.pdb
     RDKit          3D

 21 20  0  0  1  0  0  0  0  0999 V2000
    7.5074  -11.2808   25.9357 C   0  0  0  0  0  0  0  0  0  0  0  0
    5.9585  -12.0762   26.4037 S   0  0  0  0  0  0  0  0  0  0  0  0
    5.7449  -13.6312   25.5257 C   0  0  0  0  0  0  0  0  0  0  0  0
    7.0451  -14.3889   25.3839 C   0  0  0  0  0  0  0  0  0  0  0  0
    6.8765  -15.6935   24.6362 C   0  0  2  0  0  0  0  0  0  0  0  0
    5.8734  -16.5414   25.2324 N   0  0  0  0  0  0  0  0  0  0  0  0
    8.2121  -16.3435   24.6087 C   0  0  0  0  0  0  0  0  0  0  0  0
    8.4690  -17.1346   25.5513 O   0  0  0  0  0  0  0  0  0  0  0  0
   10.4837  -16.9855   21.1845 O   0  0  0  0  0  0  0  0  0  0  0  0
   11.1232  -16.3976   22.2560 C   0  0  0  0  0  0  0  0  0  0  0  0
   10.4876  -16.7034   23.5824 C   0  0  2  0  0  0  0  0  0  0  0  0
    9.1663  -16.1036   23.5871 N   0  0  0  0  0  0  0  0  0  0  0  0
   11.3253  -16.1933   24.6876 C   0  0  0  0  0  0  0  0  0  0  0  0
   11.7841  -15.0270   24.5850 O   0  0  0  0  0  0  0  0  0  0  0  0
   11.6421  -16.9340   25.8515 N   0  0  0  0  0  0  0  0  0  0  0  0
   11.7437  -16.2991   27.1613 C   0  0  1  0  0  0  0  0  0  0  0  0
   10.4928  -15.5115   27.4823 C   0  0  0  0  0  0  0  0  0  0  0  0
   10.7061  -14.6395   29.0358 S   0  0  0  0  0  0  0  0  0  0  0  0
   11.9665  -17.3785   28.1554 C   0  0  0  0  0  0  0  0  0  0  0  0
   12.7266  -17.1712   29.3050 O   0  0  0  0  0  0  0  0  0  0  0  0
   11.4756  -18.5244   27.9961 O   0  0  0  0  0  0  0  0  0  0  0  0
  2  1  1  0
  3  4  1  0
  3  2  1  0
  4  5  1  0
  5  7  1  0
  5  6  1  1
  7 12  1  0
  7  8  2  0
  9 10  1  0
 11 10  1  6
 11 13  1  0
 12 11  1  0
 13 15  1  0
 13 14  2  0
 15 16  1  0
 16 19  1  0
 16 17  1  1
 18 17  1  0
 19 20  1  0
 21 19  2  0
M  END
$$$$
