MSC.pdb
     RDKit          3D

 21 20  0  0  1  0  0  0  0  0999 V2000
    7.5087  -11.3661   26.5765 C   0  0  0  0  0  0  0  0  0  0  0  0
    6.5806  -12.3682   27.7535 S   0  0  0  0  0  0  0  0  0  0  0  0
    5.8949  -13.8262   26.9541 C   0  0  0  0  0  0  0  0  0  0  0  0
    6.8842  -14.4810   26.0175 C   0  0  0  0  0  0  0  0  0  0  0  0
    6.2941  -15.6699   25.2910 C   0  0  2  0  0  0  0  0  0  0  0  0
    6.0105  -16.7700   26.1798 N   0  0  0  0  0  0  0  0  0  0  0  0
    7.2650  -16.0450   24.2309 C   0  0  0  0  0  0  0  0  0  0  0  0
    8.0570  -16.9824   24.5037 O   0  0  0  0  0  0  0  0  0  0  0  0
    8.8707  -15.1068   19.6917 O   0  0  0  0  0  0  0  0  0  0  0  0
    8.0203  -14.8716   20.7520 C   0  0  0  0  0  0  0  0  0  0  0  0
    8.3144  -15.7123   21.9619 C   0  0  2  0  0  0  0  0  0  0  0  0
    7.3189  -15.3984   22.9698 N   0  0  0  0  0  0  0  0  0  0  0  0
    9.6863  -15.4575   22.4480 C   0  0  0  0  0  0  0  0  0  0  0  0
    9.8850  -14.4144   23.1217 O   0  0  0  0  0  0  0  0  0  0  0  0
   10.7875  -16.3126   22.2035 N   0  0  0  0  0  0  0  0  0  0  0  0
   12.1125  -16.0321   22.7465 C   0  0  1  0  0  0  0  0  0  0  0  0
   12.3111  -16.7204   24.0786 C   0  0  0  0  0  0  0  0  0  0  0  0
   11.3388  -15.8943   25.3401 S   0  0  0  0  0  0  0  0  0  0  0  0
   13.1042  -16.5030   21.7474 C   0  0  0  0  0  0  0  0  0  0  0  0
   12.7133  -17.1262   20.5638 O   0  0  0  0  0  0  0  0  0  0  0  0
   14.3384  -16.3561   21.9332 O   0  0  0  0  0  0  0  0  0  0  0  0
  2  1  1  0
  3  4  1  0
  3  2  1  0
  4  5  1  0
  5  7  1  0
  5  6  1  1
  7 12  1  0
  7  8  2  0
  9 10  1  0
 11 10  1  6
 11 13  1  0
 12 11  1  0
 13 15  1  0
 13 14  2  0
 15 16  1  0
 16 19  1  0
 16 17  1  1
 18 17  1  0
 19 20  1  0
 21 19  2  0
M  END
$$$$
