MSC.pdb
     RDKit          3D

 21 20  0  0  1  0  0  0  0  0999 V2000
    7.0667  -11.4100   26.3197 C   0  0  0  0  0  0  0  0  0  0  0  0
    7.5222  -12.8592   25.3484 S   0  0  0  0  0  0  0  0  0  0  0  0
    6.3479  -13.1318   24.0138 C   0  0  0  0  0  0  0  0  0  0  0  0
    6.6715  -14.3732   23.2145 C   0  0  0  0  0  0  0  0  0  0  0  0
    8.1224  -14.4254   22.7880 C   0  0  2  0  0  0  0  0  0  0  0  0
    8.2818  -14.2547   21.3646 N   0  0  0  0  0  0  0  0  0  0  0  0
    8.6568  -15.7299   23.2570 C   0  0  0  0  0  0  0  0  0  0  0  0
    7.8234  -16.6622   23.3863 O   0  0  0  0  0  0  0  0  0  0  0  0
   12.6650  -16.2036   24.5794 O   0  0  0  0  0  0  0  0  0  0  0  0
   12.0462  -17.1815   23.8287 C   0  0  0  0  0  0  0  0  0  0  0  0
   10.5536  -17.2189   23.9954 C   0  0  2  0  0  0  0  0  0  0  0  0
   10.0280  -15.9416   23.5506 N   0  0  0  0  0  0  0  0  0  0  0  0
   10.1968  -17.4992   25.4016 C   0  0  0  0  0  0  0  0  0  0  0  0
   10.1227  -16.5246   26.1928 O   0  0  0  0  0  0  0  0  0  0  0  0
    9.9335  -18.7930   25.9116 N   0  0  0  0  0  0  0  0  0  0  0  0
    9.6668  -19.0200   27.3281 C   0  0  1  0  0  0  0  0  0  0  0  0
    8.5492  -20.0216   27.5173 C   0  0  0  0  0  0  0  0  0  0  0  0
    7.0100  -19.3384   26.8979 S   0  0  0  0  0  0  0  0  0  0  0  0
   10.9294  -19.5049   27.9396 C   0  0  0  0  0  0  0  0  0  0  0  0
   11.0633  -19.6628   29.3178 O   0  0  0  0  0  0  0  0  0  0  0  0
   11.9286  -19.7922   27.2336 O   0  0  0  0  0  0  0  0  0  0  0  0
  2  1  1  0
  3  4  1  0
  3  2  1  0
  4  5  1  0
  5  7  1  0
  5  6  1  6
  7 12  1  0
  7  8  2  0
  9 10  1  0
 11 10  1  1
 11 13  1  0
 12 11  1  0
 13 15  1  0
 13 14  2  0
 15 16  1  0
 16 19  1  0
 16 17  1  6
 18 17  1  0
 19 20  1  0
 21 19  2  0
M  END
$$$$
