GYD.pdb
     RDKit          3D

 25 25  0  0  1  0  0  0  0  0999 V2000
   22.2329  -16.2246  -19.3515 N   0  0  0  0  0  0  0  0  0  0  0  0
   21.7199  -15.6845  -18.1335 C   0  0  0  0  0  0  0  0  0  0  0  0
   20.3688  -15.0481  -18.3334 C   0  0  0  0  0  0  0  0  0  0  0  0
   19.8736  -14.9426  -19.4795 O   0  0  0  0  0  0  0  0  0  0  0  0
   16.0683  -19.3406  -19.9681 O   0  0  0  0  0  0  0  0  0  0  0  0
   16.3567  -18.2103  -19.1838 C   0  0  0  0  0  0  0  0  0  0  0  0
   15.8405  -16.9970  -19.5324 C   0  0  0  0  0  0  0  0  0  0  0  0
   16.1212  -15.8828  -18.7648 C   0  0  0  0  0  0  0  0  0  0  0  0
   16.9160  -15.9518  -17.6416 C   0  0  0  0  0  0  0  0  0  0  0  0
   17.2234  -14.7868  -16.8215 C   0  0  0  0  0  0  0  0  0  0  0  0
   18.3293  -13.9136  -17.3232 C   0  0  2  0  0  0  0  0  0  0  0  0
   19.6227  -14.5529  -17.2356 N   0  0  0  0  0  0  0  0  0  0  0  0
   18.3592  -12.6779  -16.4829 C   0  0  0  0  0  0  0  0  0  0  0  0
   19.0348  -12.6487  -15.4252 O   0  0  0  0  0  0  0  0  0  0  0  0
   17.4319  -17.1825  -17.2990 C   0  0  0  0  0  0  0  0  0  0  0  0
   17.1535  -18.3151  -18.0699 C   0  0  0  0  0  0  0  0  0  0  0  0
   17.6423  -11.5057  -16.8328 N   0  0  0  0  0  0  0  0  0  0  0  0
   17.6639  -10.3653  -15.9645 C   0  0  1  0  0  0  0  0  0  0  0  0
   17.8086   -9.0624  -16.7211 C   0  0  0  0  0  0  0  0  0  0  0  0
   19.1906   -8.9942  -17.2401 C   0  0  0  0  0  0  0  0  0  0  0  0
   20.1791   -9.1026  -16.4863 O   0  0  0  0  0  0  0  0  0  0  0  0
   16.4670  -10.3480  -15.0933 C   0  0  0  0  0  0  0  0  0  0  0  0
   15.5914  -11.2308  -15.2242 O   0  0  0  0  0  0  0  0  0  0  0  0
   19.3931   -8.8063  -18.5914 O   0  0  0  0  0  0  0  0  0  0  0  0
   16.3461   -9.3484  -14.1504 O   0  0  0  0  0  0  0  0  0  0  0  0
  1  2  1  0
  3  4  2  0
  3  2  1  0
  6  5  1  0
  7  6  2  0
  8  7  1  0
  9  8  2  0
  9 15  1  0
 11 10  1  1
 10  9  1  0
 11 12  1  0
 12  3  1  0
 13 17  1  0
 13 11  1  0
 14 13  2  0
 15 16  2  0
 16  6  1  0
 18 22  1  0
 18 17  1  0
 18 19  1  6
 19 20  1  0
 20 21  2  0
 22 25  1  0
 23 22  2  0
 24 20  1  0
M  END
$$$$
