GYD.pdb
     RDKit          3D

 25 25  0  0  1  0  0  0  0  0999 V2000
   14.3913  -11.8581  -11.0055 N   0  0  0  0  0  0  0  0  0  0  0  0
   15.4246  -11.1776  -10.2929 C   0  0  0  0  0  0  0  0  0  0  0  0
   15.4675   -9.7122  -10.6412 C   0  0  0  0  0  0  0  0  0  0  0  0
   14.8138   -9.2651  -11.6121 O   0  0  0  0  0  0  0  0  0  0  0  0
   10.7581   -6.2724   -7.1226 O   0  0  0  0  0  0  0  0  0  0  0  0
   12.0900   -6.3418   -7.5664 C   0  0  0  0  0  0  0  0  0  0  0  0
   12.3738   -6.9380   -8.7599 C   0  0  0  0  0  0  0  0  0  0  0  0
   13.6816   -7.0090   -9.2005 C   0  0  0  0  0  0  0  0  0  0  0  0
   14.7276   -6.4916   -8.4681 C   0  0  0  0  0  0  0  0  0  0  0  0
   16.1126   -6.5590   -8.9170 C   0  0  0  0  0  0  0  0  0  0  0  0
   16.3589   -7.3838  -10.1402 C   0  0  2  0  0  0  0  0  0  0  0  0
   16.2452   -8.8017   -9.8840 N   0  0  0  0  0  0  0  0  0  0  0  0
   17.7483   -7.1030  -10.6143 C   0  0  0  0  0  0  0  0  0  0  0  0
   18.7258   -7.6927  -10.0923 O   0  0  0  0  0  0  0  0  0  0  0  0
   14.4290   -5.8918   -7.2643 C   0  0  0  0  0  0  0  0  0  0  0  0
   13.1089   -5.8156   -6.8104 C   0  0  0  0  0  0  0  0  0  0  0  0
   18.0222   -6.1779  -11.6534 N   0  0  0  0  0  0  0  0  0  0  0  0
   19.3318   -6.1170  -12.2331 C   0  0  1  0  0  0  0  0  0  0  0  0
   19.8059   -7.4625  -12.7386 C   0  0  0  0  0  0  0  0  0  0  0  0
   21.1338   -7.2686  -13.3577 C   0  0  0  0  0  0  0  0  0  0  0  0
   22.0735   -6.7313  -12.7367 O   0  0  0  0  0  0  0  0  0  0  0  0
   19.3835   -5.0950  -13.3031 C   0  0  0  0  0  0  0  0  0  0  0  0
   18.3384   -4.7829  -13.9141 O   0  0  0  0  0  0  0  0  0  0  0  0
   21.3399   -7.6920  -14.6540 O   0  0  0  0  0  0  0  0  0  0  0  0
   20.5952   -4.5076  -13.6026 O   0  0  0  0  0  0  0  0  0  0  0  0
  1  2  1  0
  3  4  2  0
  3  2  1  0
  6  5  1  0
  7  6  2  0
  8  7  1  0
  9  8  2  0
  9 15  1  0
 11 10  1  1
 10  9  1  0
 11 12  1  0
 12  3  1  0
 13 17  1  0
 13 11  1  0
 14 13  2  0
 15 16  2  0
 16  6  1  0
 18 22  1  0
 18 17  1  0
 18 19  1  6
 19 20  1  0
 20 21  2  0
 22 25  1  0
 23 22  2  0
 24 20  1  0
M  END
$$$$
