GYD.pdb
     RDKit          3D

 25 25  0  0  1  0  0  0  0  0999 V2000
   13.8144  -12.7403  -14.3835 N   0  0  0  0  0  0  0  0  0  0  0  0
   14.8429  -12.1767  -13.5692 C   0  0  0  0  0  0  0  0  0  0  0  0
   14.3481  -10.9806  -12.7977 C   0  0  0  0  0  0  0  0  0  0  0  0
   13.3090  -10.3759  -13.1505 O   0  0  0  0  0  0  0  0  0  0  0  0
    9.0777  -12.1960   -9.0047 O   0  0  0  0  0  0  0  0  0  0  0  0
   10.3546  -11.6184   -9.1126 C   0  0  0  0  0  0  0  0  0  0  0  0
   11.4438  -12.4179   -9.2988 C   0  0  0  0  0  0  0  0  0  0  0  0
   12.7013  -11.8549   -9.4053 C   0  0  0  0  0  0  0  0  0  0  0  0
   12.9002  -10.4937   -9.3295 C   0  0  0  0  0  0  0  0  0  0  0  0
   14.2193   -9.8832   -9.4384 C   0  0  0  0  0  0  0  0  0  0  0  0
   14.6094   -9.4208  -10.8063 C   0  0  2  0  0  0  0  0  0  0  0  0
   15.0408  -10.5075  -11.6561 N   0  0  0  0  0  0  0  0  0  0  0  0
   15.7446   -8.4593  -10.6623 C   0  0  0  0  0  0  0  0  0  0  0  0
   16.9036   -8.8799  -10.4268 O   0  0  0  0  0  0  0  0  0  0  0  0
   11.7928   -9.6960   -9.1414 C   0  0  0  0  0  0  0  0  0  0  0  0
   10.5168  -10.2568   -9.0323 C   0  0  0  0  0  0  0  0  0  0  0  0
   15.5703   -7.0572  -10.7826 N   0  0  0  0  0  0  0  0  0  0  0  0
   16.6965   -6.1802  -10.6507 C   0  0  1  0  0  0  0  0  0  0  0  0
   16.8568   -5.2584  -11.8404 C   0  0  0  0  0  0  0  0  0  0  0  0
   18.0319   -4.3982  -11.5885 C   0  0  0  0  0  0  0  0  0  0  0  0
   17.9108   -3.1826  -11.3339 O   0  0  0  0  0  0  0  0  0  0  0  0
   16.6176   -5.4134   -9.3867 C   0  0  0  0  0  0  0  0  0  0  0  0
   15.5115   -5.2530   -8.8263 O   0  0  0  0  0  0  0  0  0  0  0  0
   19.2939   -4.9527  -11.6357 O   0  0  0  0  0  0  0  0  0  0  0  0
   17.7772   -4.8895   -8.8541 O   0  0  0  0  0  0  0  0  0  0  0  0
  1  2  1  0
  3  4  2  0
  3  2  1  0
  6  5  1  0
  7  6  2  0
  8  7  1  0
  9  8  2  0
  9 15  1  0
 11 10  1  1
 10  9  1  0
 11 12  1  0
 12  3  1  0
 13 17  1  0
 13 11  1  0
 14 13  2  0
 15 16  2  0
 16  6  1  0
 18 22  1  0
 18 17  1  0
 18 19  1  6
 19 20  1  0
 20 21  2  0
 22 25  1  0
 23 22  2  0
 24 20  1  0
M  END
$$$$
