GYD.pdb
     RDKit          3D

 25 25  0  0  1  0  0  0  0  0999 V2000
   28.5819  -21.9416  -14.5618 N   0  0  0  0  0  0  0  0  0  0  0  0
   28.0268  -20.8323  -13.8547 C   0  0  0  0  0  0  0  0  0  0  0  0
   26.8425  -21.2429  -13.0183 C   0  0  0  0  0  0  0  0  0  0  0  0
   26.4194  -22.4220  -13.0422 O   0  0  0  0  0  0  0  0  0  0  0  0
   28.5186  -20.2405   -5.9648 O   0  0  0  0  0  0  0  0  0  0  0  0
   27.6103  -20.0872   -7.0265 C   0  0  0  0  0  0  0  0  0  0  0  0
   26.7896  -21.1217   -7.3677 C   0  0  0  0  0  0  0  0  0  0  0  0
   25.8951  -20.9760   -8.4109 C   0  0  0  0  0  0  0  0  0  0  0  0
   25.7988  -19.8058   -9.1316 C   0  0  0  0  0  0  0  0  0  0  0  0
   24.8623  -19.6354  -10.2353 C   0  0  0  0  0  0  0  0  0  0  0  0
   25.0161  -20.5965  -11.3711 C   0  0  2  0  0  0  0  0  0  0  0  0
   26.1764  -20.3113  -12.1844 N   0  0  0  0  0  0  0  0  0  0  0  0
   23.8007  -20.4893  -12.2343 C   0  0  0  0  0  0  0  0  0  0  0  0
   23.7468  -19.6285  -13.1465 O   0  0  0  0  0  0  0  0  0  0  0  0
   26.6328  -18.7677   -8.7781 C   0  0  0  0  0  0  0  0  0  0  0  0
   27.5410  -18.9061   -7.7243 C   0  0  0  0  0  0  0  0  0  0  0  0
   22.6758  -21.3364  -12.0681 N   0  0  0  0  0  0  0  0  0  0  0  0
   21.5778  -21.2598  -12.9866 C   0  0  1  0  0  0  0  0  0  0  0  0
   21.3083  -22.5778  -13.6801 C   0  0  0  0  0  0  0  0  0  0  0  0
   20.1424  -22.3891  -14.5684 C   0  0  0  0  0  0  0  0  0  0  0  0
   20.1256  -21.5037  -15.4476 O   0  0  0  0  0  0  0  0  0  0  0  0
   20.3628  -20.7536  -12.3089 C   0  0  0  0  0  0  0  0  0  0  0  0
   20.1722  -21.0135  -11.1009 O   0  0  0  0  0  0  0  0  0  0  0  0
   19.0453  -23.2122  -14.4223 O   0  0  0  0  0  0  0  0  0  0  0  0
   19.4623  -20.0013  -13.0342 O   0  0  0  0  0  0  0  0  0  0  0  0
  1  2  1  0
  3  4  2  0
  3  2  1  0
  6  5  1  0
  7  6  2  0
  8  7  1  0
  9  8  2  0
  9 15  1  0
 11 10  1  1
 10  9  1  0
 11 12  1  0
 12  3  1  0
 13 17  1  0
 13 11  1  0
 14 13  2  0
 15 16  2  0
 16  6  1  0
 18 22  1  0
 18 17  1  0
 18 19  1  1
 19 20  1  0
 20 21  2  0
 22 25  1  0
 23 22  2  0
 24 20  1  0
M  END
$$$$
