GYD.pdb
     RDKit          3D

 25 25  0  0  1  0  0  0  0  0999 V2000
   20.2441  -11.1829  -16.3316 N   0  0  0  0  0  0  0  0  0  0  0  0
   20.4365  -11.0323  -14.9250 C   0  0  0  0  0  0  0  0  0  0  0  0
   21.4025   -9.9189  -14.6123 C   0  0  0  0  0  0  0  0  0  0  0  0
   21.8198   -9.7419  -13.4442 O   0  0  0  0  0  0  0  0  0  0  0  0
   27.2138  -12.6475  -16.3183 O   0  0  0  0  0  0  0  0  0  0  0  0
   26.3968  -11.5043  -16.3569 C   0  0  0  0  0  0  0  0  0  0  0  0
   26.7212  -10.4168  -15.6004 C   0  0  0  0  0  0  0  0  0  0  0  0
   25.9211   -9.2906  -15.6347 C   0  0  0  0  0  0  0  0  0  0  0  0
   24.7893   -9.2231  -16.4174 C   0  0  0  0  0  0  0  0  0  0  0  0
   23.9336   -8.0442  -16.4645 C   0  0  0  0  0  0  0  0  0  0  0  0
   22.8412   -7.9939  -15.4440 C   0  0  2  0  0  0  0  0  0  0  0  0
   21.8647   -9.0438  -15.6261 N   0  0  0  0  0  0  0  0  0  0  0  0
   22.1452   -6.6780  -15.5772 C   0  0  0  0  0  0  0  0  0  0  0  0
   21.1575   -6.5596  -16.3430 O   0  0  0  0  0  0  0  0  0  0  0  0
   24.4716  -10.3275  -17.1773 C   0  0  0  0  0  0  0  0  0  0  0  0
   25.2749  -11.4713  -17.1486 C   0  0  0  0  0  0  0  0  0  0  0  0
   22.5579   -5.5262  -14.8604 N   0  0  0  0  0  0  0  0  0  0  0  0
   21.8392   -4.2945  -15.0063 C   0  0  1  0  0  0  0  0  0  0  0  0
   22.0458   -3.3596  -13.8341 C   0  0  0  0  0  0  0  0  0  0  0  0
   21.3150   -2.1077  -14.1223 C   0  0  0  0  0  0  0  0  0  0  0  0
   21.9142   -1.0333  -14.3318 O   0  0  0  0  0  0  0  0  0  0  0  0
   22.1866   -3.6341  -16.2850 C   0  0  0  0  0  0  0  0  0  0  0  0
   21.3081   -3.0118  -16.9208 O   0  0  0  0  0  0  0  0  0  0  0  0
   19.9365   -2.1272  -14.1609 O   0  0  0  0  0  0  0  0  0  0  0  0
   23.4830   -3.7233  -16.7479 O   0  0  0  0  0  0  0  0  0  0  0  0
  1  2  1  0
  3  4  2  0
  3  2  1  0
  6  5  1  0
  7  6  2  0
  8  7  1  0
  9  8  2  0
  9 15  1  0
 11 10  1  6
 10  9  1  0
 11 12  1  0
 12  3  1  0
 13 17  1  0
 13 11  1  0
 14 13  2  0
 15 16  2  0
 16  6  1  0
 18 22  1  0
 18 17  1  0
 18 19  1  1
 19 20  1  0
 20 21  2  0
 22 25  1  0
 23 22  2  0
 24 20  1  0
M  END
$$$$
