GYD.pdb
     RDKit          3D

 25 25  0  0  1  0  0  0  0  0999 V2000
   43.7268  -10.1128   -4.8528 N   0  0  0  0  0  0  0  0  0  0  0  0
   43.5657   -8.9203   -5.6214 C   0  0  0  0  0  0  0  0  0  0  0  0
   42.2038   -8.3083   -5.4186 C   0  0  0  0  0  0  0  0  0  0  0  0
   41.2483   -8.9982   -4.9930 O   0  0  0  0  0  0  0  0  0  0  0  0
   35.9694   -2.2188   -3.8847 O   0  0  0  0  0  0  0  0  0  0  0  0
   37.1639   -2.9383   -4.0621 C   0  0  0  0  0  0  0  0  0  0  0  0
   38.1842   -2.3865   -4.7795 C   0  0  0  0  0  0  0  0  0  0  0  0
   39.3604   -3.0898   -4.9570 C   0  0  0  0  0  0  0  0  0  0  0  0
   39.5450   -4.3484   -4.4278 C   0  0  0  0  0  0  0  0  0  0  0  0
   40.7781   -5.1047   -4.6063 C   0  0  0  0  0  0  0  0  0  0  0  0
   40.6981   -6.2631   -5.5492 C   0  0  2  0  0  0  0  0  0  0  0  0
   41.9655   -6.9409   -5.7022 N   0  0  0  0  0  0  0  0  0  0  0  0
   40.2808   -5.7419   -6.8864 C   0  0  0  0  0  0  0  0  0  0  0  0
   41.0977   -5.1139   -7.6035 O   0  0  0  0  0  0  0  0  0  0  0  0
   38.5076   -4.8957   -3.7050 C   0  0  0  0  0  0  0  0  0  0  0  0
   37.3139   -4.1916   -3.5206 C   0  0  0  0  0  0  0  0  0  0  0  0
   38.9713   -5.9282   -7.3976 N   0  0  0  0  0  0  0  0  0  0  0  0
   38.6030   -5.3483   -8.6558 C   0  0  1  0  0  0  0  0  0  0  0  0
   37.6642   -6.2315   -9.4492 C   0  0  0  0  0  0  0  0  0  0  0  0
   37.5657   -5.6726  -10.8138 C   0  0  0  0  0  0  0  0  0  0  0  0
   37.9018   -4.4976  -11.0658 O   0  0  0  0  0  0  0  0  0  0  0  0
   38.0303   -3.9970   -8.4617 C   0  0  0  0  0  0  0  0  0  0  0  0
   38.4408   -3.0432   -9.1581 O   0  0  0  0  0  0  0  0  0  0  0  0
   37.0906   -6.4694  -11.8344 O   0  0  0  0  0  0  0  0  0  0  0  0
   37.0492   -3.8221   -7.5079 O   0  0  0  0  0  0  0  0  0  0  0  0
  1  2  1  0
  3  4  2  0
  3  2  1  0
  6  5  1  0
  7  6  2  0
  8  7  1  0
  9  8  2  0
  9 15  1  0
 11 10  1  1
 10  9  1  0
 11 12  1  0
 12  3  1  0
 13 17  1  0
 13 11  1  0
 14 13  2  0
 15 16  2  0
 16  6  1  0
 18 22  1  0
 18 17  1  0
 18 19  1  1
 19 20  1  0
 20 21  2  0
 22 25  1  0
 23 22  2  0
 24 20  1  0
M  END
$$$$
