GYD.pdb
     RDKit          3D

 25 25  0  0  1  0  0  0  0  0999 V2000
   28.1973  -22.6292  -16.5402 N   0  0  0  0  0  0  0  0  0  0  0  0
   27.5598  -21.4468  -16.0564 C   0  0  0  0  0  0  0  0  0  0  0  0
   26.5855  -21.7543  -14.9487 C   0  0  0  0  0  0  0  0  0  0  0  0
   26.2441  -22.9351  -14.7054 O   0  0  0  0  0  0  0  0  0  0  0  0
   28.9469  -21.2617   -7.8598 O   0  0  0  0  0  0  0  0  0  0  0  0
   28.0467  -20.9187   -8.8835 C   0  0  0  0  0  0  0  0  0  0  0  0
   26.7426  -20.6619   -8.5777 C   0  0  0  0  0  0  0  0  0  0  0  0
   25.8536  -20.3245   -9.5805 C   0  0  0  0  0  0  0  0  0  0  0  0
   26.2410  -20.2360  -10.8997 C   0  0  0  0  0  0  0  0  0  0  0  0
   25.3166  -19.8829  -11.9699 C   0  0  0  0  0  0  0  0  0  0  0  0
   25.1341  -20.9154  -13.0366 C   0  0  2  0  0  0  0  0  0  0  0  0
   26.0301  -20.7214  -14.1540 N   0  0  0  0  0  0  0  0  0  0  0  0
   23.7298  -20.8168  -13.5390 C   0  0  0  0  0  0  0  0  0  0  0  0
   23.4092  -19.9106  -14.3463 O   0  0  0  0  0  0  0  0  0  0  0  0
   27.5606  -20.4975  -11.1967 C   0  0  0  0  0  0  0  0  0  0  0  0
   28.4670  -20.8398  -10.1887 C   0  0  0  0  0  0  0  0  0  0  0  0
   22.7156  -21.7225  -13.1369 N   0  0  0  0  0  0  0  0  0  0  0  0
   21.3867  -21.5889  -13.6576 C   0  0  1  0  0  0  0  0  0  0  0  0
   20.8007  -22.9126  -14.0997 C   0  0  0  0  0  0  0  0  0  0  0  0
   19.4550  -22.6479  -14.6503 C   0  0  0  0  0  0  0  0  0  0  0  0
   19.2809  -21.8628  -15.6045 O   0  0  0  0  0  0  0  0  0  0  0  0
   20.5058  -20.9146  -12.6774 C   0  0  0  0  0  0  0  0  0  0  0  0
   20.7665  -20.9863  -11.4567 O   0  0  0  0  0  0  0  0  0  0  0  0
   18.3643  -23.2846  -14.0960 O   0  0  0  0  0  0  0  0  0  0  0  0
   19.4084  -20.2180  -13.1394 O   0  0  0  0  0  0  0  0  0  0  0  0
  1  2  1  0
  3  4  2  0
  3  2  1  0
  6  5  1  0
  7  6  2  0
  8  7  1  0
  9  8  2  0
  9 15  1  0
 11 10  1  1
 10  9  1  0
 11 12  1  0
 12  3  1  0
 13 17  1  0
 13 11  1  0
 14 13  2  0
 15 16  2  0
 16  6  1  0
 18 22  1  0
 18 17  1  0
 18 19  1  1
 19 20  1  0
 20 21  2  0
 22 25  1  0
 23 22  2  0
 24 20  1  0
M  END
$$$$
