GYD.pdb
     RDKit          3D

 25 25  0  0  1  0  0  0  0  0999 V2000
   23.5722   -7.8923  -18.9906 N   0  0  0  0  0  0  0  0  0  0  0  0
   22.1670   -7.6481  -19.0554 C   0  0  0  0  0  0  0  0  0  0  0  0
   21.5387   -7.6514  -17.6859 C   0  0  0  0  0  0  0  0  0  0  0  0
   22.1293   -8.1722  -16.7113 O   0  0  0  0  0  0  0  0  0  0  0  0
   24.3590   -2.6846  -16.1960 O   0  0  0  0  0  0  0  0  0  0  0  0
   23.1705   -3.4202  -16.0470 C   0  0  0  0  0  0  0  0  0  0  0  0
   22.1218   -3.1862  -16.8872 C   0  0  0  0  0  0  0  0  0  0  0  0
   20.9512   -3.9065  -16.7446 C   0  0  0  0  0  0  0  0  0  0  0  0
   20.8003   -4.8684  -15.7699 C   0  0  0  0  0  0  0  0  0  0  0  0
   19.5725   -5.6362  -15.6045 C   0  0  0  0  0  0  0  0  0  0  0  0
   19.5845   -7.0130  -16.1891 C   0  0  2  0  0  0  0  0  0  0  0  0
   20.2672   -7.0681  -17.4618 N   0  0  0  0  0  0  0  0  0  0  0  0
   18.1669   -7.4378  -16.3987 C   0  0  0  0  0  0  0  0  0  0  0  0
   17.7275   -7.6235  -17.5598 O   0  0  0  0  0  0  0  0  0  0  0  0
   21.8661   -5.0961  -14.9270 C   0  0  0  0  0  0  0  0  0  0  0  0
   23.0542   -4.3720  -15.0636 C   0  0  0  0  0  0  0  0  0  0  0  0
   17.2709   -7.6471  -15.3198 N   0  0  0  0  0  0  0  0  0  0  0  0
   15.9568   -8.1634  -15.5681 C   0  0  1  0  0  0  0  0  0  0  0  0
   15.9834   -9.5147  -16.2493 C   0  0  0  0  0  0  0  0  0  0  0  0
   14.5865   -9.9006  -16.5390 C   0  0  0  0  0  0  0  0  0  0  0  0
   13.6839   -9.7809  -15.6856 O   0  0  0  0  0  0  0  0  0  0  0  0
   15.1678   -8.2108  -14.3163 C   0  0  0  0  0  0  0  0  0  0  0  0
   15.7410   -8.4447  -13.2300 O   0  0  0  0  0  0  0  0  0  0  0  0
   14.2723  -10.4053  -17.7835 O   0  0  0  0  0  0  0  0  0  0  0  0
   13.8070   -7.9944  -14.3803 O   0  0  0  0  0  0  0  0  0  0  0  0
  1  2  1  0
  3  4  2  0
  3  2  1  0
  6  5  1  0
  7  6  2  0
  8  7  1  0
  9  8  2  0
  9 15  1  0
 11 10  1  6
 10  9  1  0
 11 12  1  0
 12  3  1  0
 13 17  1  0
 13 11  1  0
 14 13  2  0
 15 16  2  0
 16  6  1  0
 18 22  1  0
 18 17  1  0
 18 19  1  1
 19 20  1  0
 20 21  2  0
 22 25  1  0
 23 22  2  0
 24 20  1  0
M  END
$$$$
