GYD.pdb
     RDKit          3D

 25 25  0  0  1  0  0  0  0  0999 V2000
   22.7631  -10.6818  -20.4019 N   0  0  0  0  0  0  0  0  0  0  0  0
   22.9691  -11.5591  -19.2945 C   0  0  0  0  0  0  0  0  0  0  0  0
   23.0376  -10.8038  -17.9925 C   0  0  0  0  0  0  0  0  0  0  0  0
   22.4936  -11.2577  -16.9591 O   0  0  0  0  0  0  0  0  0  0  0  0
   29.5402  -11.7113  -16.4608 O   0  0  0  0  0  0  0  0  0  0  0  0
   28.4527  -10.8209  -16.4824 C   0  0  0  0  0  0  0  0  0  0  0  0
   28.2226  -10.0632  -17.5928 C   0  0  0  0  0  0  0  0  0  0  0  0
   27.1549   -9.1862  -17.6190 C   0  0  0  0  0  0  0  0  0  0  0  0
   26.2995   -9.0458  -16.5482 C   0  0  0  0  0  0  0  0  0  0  0  0
   25.1698   -8.1249  -16.5582 C   0  0  0  0  0  0  0  0  0  0  0  0
   23.8210   -8.7542  -16.7070 C   0  0  2  0  0  0  0  0  0  0  0  0
   23.7164   -9.5637  -17.8999 N   0  0  0  0  0  0  0  0  0  0  0  0
   22.8076   -7.6589  -16.7934 C   0  0  0  0  0  0  0  0  0  0  0  0
   22.6304   -7.0451  -17.8739 O   0  0  0  0  0  0  0  0  0  0  0  0
   26.5417   -9.8163  -15.4320 C   0  0  0  0  0  0  0  0  0  0  0  0
   27.6196  -10.7059  -15.3965 C   0  0  0  0  0  0  0  0  0  0  0  0
   22.0154   -7.2701  -15.6835 N   0  0  0  0  0  0  0  0  0  0  0  0
   20.8597   -6.4451  -15.8808 C   0  0  1  0  0  0  0  0  0  0  0  0
   19.8339   -7.0904  -16.7875 C   0  0  0  0  0  0  0  0  0  0  0  0
   18.6887   -6.1635  -16.9032 C   0  0  0  0  0  0  0  0  0  0  0  0
   18.8383   -4.9810  -17.2726 O   0  0  0  0  0  0  0  0  0  0  0  0
   20.2609   -6.0639  -14.5816 C   0  0  0  0  0  0  0  0  0  0  0  0
   19.4399   -5.1224  -14.5292 O   0  0  0  0  0  0  0  0  0  0  0  0
   17.4229   -6.6165  -16.5954 O   0  0  0  0  0  0  0  0  0  0  0  0
   20.6277   -6.7630  -13.4504 O   0  0  0  0  0  0  0  0  0  0  0  0
  1  2  1  0
  3  4  2  0
  3  2  1  0
  6  5  1  0
  7  6  2  0
  8  7  1  0
  9  8  2  0
  9 15  1  0
 11 10  1  6
 10  9  1  0
 11 12  1  0
 12  3  1  0
 13 17  1  0
 13 11  1  0
 14 13  2  0
 15 16  2  0
 16  6  1  0
 18 22  1  0
 18 17  1  0
 18 19  1  6
 19 20  1  0
 20 21  2  0
 22 25  1  0
 23 22  2  0
 24 20  1  0
M  END
$$$$
