GYD.pdb
     RDKit          3D

 25 25  0  0  1  0  0  0  0  0999 V2000
   19.3782  -13.5189  -15.7167 N   0  0  0  0  0  0  0  0  0  0  0  0
   20.3046  -12.8030  -16.5339 C   0  0  0  0  0  0  0  0  0  0  0  0
   20.8307  -11.5767  -15.8341 C   0  0  0  0  0  0  0  0  0  0  0  0
   20.8226  -11.4998  -14.5835 O   0  0  0  0  0  0  0  0  0  0  0  0
   27.5685  -12.0770  -15.5021 O   0  0  0  0  0  0  0  0  0  0  0  0
   26.4595  -11.2547  -15.7661 C   0  0  0  0  0  0  0  0  0  0  0  0
   25.4354  -11.7279  -16.5327 C   0  0  0  0  0  0  0  0  0  0  0  0
   24.3430  -10.9233  -16.7954 C   0  0  0  0  0  0  0  0  0  0  0  0
   24.2471   -9.6398  -16.3041 C   0  0  0  0  0  0  0  0  0  0  0  0
   23.1033   -8.7773  -16.5724 C   0  0  0  0  0  0  0  0  0  0  0  0
   21.7993   -9.2310  -15.9970 C   0  0  2  0  0  0  0  0  0  0  0  0
   21.3473  -10.4800  -16.5671 N   0  0  0  0  0  0  0  0  0  0  0  0
   20.7751   -8.1832  -16.2918 C   0  0  0  0  0  0  0  0  0  0  0  0
   20.2504   -8.1143  -17.4301 O   0  0  0  0  0  0  0  0  0  0  0  0
   25.2874   -9.1725  -15.5311 C   0  0  0  0  0  0  0  0  0  0  0  0
   26.3967   -9.9792  -15.2604 C   0  0  0  0  0  0  0  0  0  0  0  0
   20.3562   -7.2383  -15.3210 N   0  0  0  0  0  0  0  0  0  0  0  0
   19.2985   -6.3193  -15.6238 C   0  0  1  0  0  0  0  0  0  0  0  0
   18.4155   -6.0362  -14.4275 C   0  0  0  0  0  0  0  0  0  0  0  0
   17.3645   -5.0903  -14.8574 C   0  0  0  0  0  0  0  0  0  0  0  0
   17.2498   -4.7362  -16.0485 O   0  0  0  0  0  0  0  0  0  0  0  0
   19.8412   -5.0667  -16.1966 C   0  0  0  0  0  0  0  0  0  0  0  0
   19.0814   -4.2827  -16.8058 O   0  0  0  0  0  0  0  0  0  0  0  0
   16.4883   -4.5865  -13.9190 O   0  0  0  0  0  0  0  0  0  0  0  0
   21.1846   -4.7936  -16.0431 O   0  0  0  0  0  0  0  0  0  0  0  0
  1  2  1  0
  3  4  2  0
  3  2  1  0
  6  5  1  0
  7  6  2  0
  8  7  1  0
  9  8  2  0
  9 15  1  0
 11 10  1  6
 10  9  1  0
 11 12  1  0
 12  3  1  0
 13 17  1  0
 13 11  1  0
 14 13  2  0
 15 16  2  0
 16  6  1  0
 18 22  1  0
 18 17  1  0
 18 19  1  1
 19 20  1  0
 20 21  2  0
 22 25  1  0
 23 22  2  0
 24 20  1  0
M  END
$$$$
