YCM.pdb
     RDKit          3D

 27 27  0  0  1  0  0  0  0  0999 V2000
   16.9300  -23.2161  -12.7498 O   0  0  0  0  0  0  0  0  0  0  0  0
   18.1884  -22.6395  -12.7833 C   0  0  0  0  0  0  0  0  0  0  0  0
   18.3036  -21.2711  -12.6275 C   0  0  0  0  0  0  0  0  0  0  0  0
   19.5424  -20.6769  -12.6573 C   0  0  0  0  0  0  0  0  0  0  0  0
   20.7152  -21.3996  -12.8407 C   0  0  0  0  0  0  0  0  0  0  0  0
   22.0427  -20.7247  -12.8703 C   0  0  0  0  0  0  0  0  0  0  0  0
   22.8339  -21.0534  -11.6058 C   0  0  2  0  0  0  0  0  0  0  0  0
   22.0889  -20.4654  -10.5026 N   0  0  0  0  0  0  0  0  0  0  0  0
   24.2065  -20.4906  -11.6830 C   0  0  0  0  0  0  0  0  0  0  0  0
   24.4432  -19.2633  -11.5659 O   0  0  0  0  0  0  0  0  0  0  0  0
   20.5910  -22.7672  -12.9955 C   0  0  0  0  0  0  0  0  0  0  0  0
   19.3499  -23.3585  -12.9652 C   0  0  0  0  0  0  0  0  0  0  0  0
   25.3273  -21.3339  -11.8963 N   0  0  0  0  0  0  0  0  0  0  0  0
   26.6836  -20.7704  -12.0342 C   0  0  1  0  0  0  0  0  0  0  0  0
   27.5184  -21.2373  -10.8606 C   0  0  0  0  0  0  0  0  0  0  0  0
   26.5337  -21.3802   -9.3681 S   0  0  0  0  0  0  0  0  0  0  0  0
   27.2473  -21.1473  -13.3402 C   0  0  0  0  0  0  0  0  0  0  0  0
   27.7412  -22.3065  -13.5068 O   0  0  0  0  0  0  0  0  0  0  0  0
   22.6603  -21.3660  -16.4485 C   0  0  0  0  0  0  0  0  0  0  0  0
   23.7566  -22.5817  -17.2522 S   0  0  0  0  0  0  0  0  0  0  0  0
   25.4736  -21.9304  -17.2510 C   0  0  0  0  0  0  0  0  0  0  0  0
   25.8174  -21.4306  -15.8865 C   0  0  0  0  0  0  0  0  0  0  0  0
   27.1525  -20.7337  -15.7951 C   0  0  2  0  0  0  0  0  0  0  0  0
   27.2464  -20.2415  -14.4193 N   0  0  0  0  0  0  0  0  0  0  0  0
   27.2020  -19.5830  -16.6985 C   0  0  0  0  0  0  0  0  0  0  0  0
   27.7975  -19.6208  -17.8134 O   0  0  0  0  0  0  0  0  0  0  0  0
   26.5881  -18.3948  -16.3564 O   0  0  0  0  0  0  0  0  0  0  0  0
  2  1  1  0
  2 12  2  0
  3  2  1  0
  4  3  2  0
  4  5  1  0
  5 11  2  0
  6  7  1  0
  6  5  1  0
  7  9  1  0
  7  8  1  1
  9 10  2  0
  9 13  1  0
 11 12  1  0
 13 14  1  0
 14 17  1  0
 14 15  1  1
 16 15  1  0
 17 18  2  0
 20 21  1  0
 20 19  1  0
 22 21  1  0
 23 22  1  1
 24 23  1  0
 24 17  1  0
 25 27  1  0
 25 23  1  0
 26 25  2  0
M  END
$$$$
