YCM.pdb
     RDKit          3D

 27 27  0  0  1  0  0  0  0  0999 V2000
   30.5203  -22.8864  -19.2292 O   0  0  0  0  0  0  0  0  0  0  0  0
   29.7796  -22.1930  -18.2870 C   0  0  0  0  0  0  0  0  0  0  0  0
   29.2571  -20.9580  -18.6209 C   0  0  0  0  0  0  0  0  0  0  0  0
   28.5188  -20.2517  -17.7019 C   0  0  0  0  0  0  0  0  0  0  0  0
   28.2641  -20.7276  -16.4213 C   0  0  0  0  0  0  0  0  0  0  0  0
   27.4616  -19.9360  -15.4476 C   0  0  0  0  0  0  0  0  0  0  0  0
   26.1544  -20.6575  -15.1258 C   0  0  2  0  0  0  0  0  0  0  0  0
   25.3018  -20.4816  -16.2920 N   0  0  0  0  0  0  0  0  0  0  0  0
   25.5218  -20.0832  -13.9107 C   0  0  0  0  0  0  0  0  0  0  0  0
   24.7590  -19.0868  -13.9503 O   0  0  0  0  0  0  0  0  0  0  0  0
   28.7901  -21.9633  -16.0956 C   0  0  0  0  0  0  0  0  0  0  0  0
   29.5284  -22.6673  -17.0177 C   0  0  0  0  0  0  0  0  0  0  0  0
   25.7587  -20.6484  -12.6311 N   0  0  0  0  0  0  0  0  0  0  0  0
   25.0995  -20.1041  -11.4290 C   0  0  1  0  0  0  0  0  0  0  0  0
   23.6021  -20.2556  -11.5931 C   0  0  0  0  0  0  0  0  0  0  0  0
   23.1632  -21.9092  -12.1322 S   0  0  0  0  0  0  0  0  0  0  0  0
   25.6272  -20.7716  -10.2283 C   0  0  0  0  0  0  0  0  0  0  0  0
   25.7306  -22.0381  -10.2008 O   0  0  0  0  0  0  0  0  0  0  0  0
   29.6957  -18.2881   -5.9583 C   0  0  0  0  0  0  0  0  0  0  0  0
   28.4186  -18.8583   -4.7879 S   0  0  0  0  0  0  0  0  0  0  0  0
   27.3679  -20.1162   -5.6163 C   0  0  0  0  0  0  0  0  0  0  0  0
   27.1703  -19.7381   -7.0473 C   0  0  0  0  0  0  0  0  0  0  0  0
   26.3218  -20.7043   -7.8367 C   0  0  2  0  0  0  0  0  0  0  0  0
   26.0267  -20.0271   -9.1010 N   0  0  0  0  0  0  0  0  0  0  0  0
   25.0558  -20.9663   -7.1502 C   0  0  0  0  0  0  0  0  0  0  0  0
   23.9592  -20.4690   -7.5361 O   0  0  0  0  0  0  0  0  0  0  0  0
   25.0165  -21.7810   -6.0365 O   0  0  0  0  0  0  0  0  0  0  0  0
  2  1  1  0
  2 12  2  0
  3  2  1  0
  4  3  2  0
  4  5  1  0
  5 11  2  0
  6  7  1  0
  6  5  1  0
  7  9  1  0
  7  8  1  6
  9 10  2  0
  9 13  1  0
 11 12  1  0
 13 14  1  0
 14 17  1  0
 14 15  1  6
 16 15  1  0
 17 18  2  0
 20 21  1  0
 20 19  1  0
 22 21  1  0
 23 22  1  1
 24 23  1  0
 24 17  1  0
 25 27  1  0
 25 23  1  0
 26 25  2  0
M  END
$$$$
