YCM.pdb
     RDKit          3D

 27 27  0  0  1  0  0  0  0  0999 V2000
   25.2900  -20.8193   -6.4523 O   0  0  0  0  0  0  0  0  0  0  0  0
   25.2854  -20.5720   -7.8147 C   0  0  0  0  0  0  0  0  0  0  0  0
   26.3831  -19.9596   -8.3890 C   0  0  0  0  0  0  0  0  0  0  0  0
   26.4007  -19.7042   -9.7392 C   0  0  0  0  0  0  0  0  0  0  0  0
   25.3445  -20.0386  -10.5783 C   0  0  0  0  0  0  0  0  0  0  0  0
   25.3939  -19.7460  -12.0379 C   0  0  0  0  0  0  0  0  0  0  0  0
   25.0741  -21.0040  -12.8429 C   0  0  2  0  0  0  0  0  0  0  0  0
   26.2388  -21.8674  -12.7169 N   0  0  0  0  0  0  0  0  0  0  0  0
   24.8119  -20.6657  -14.2654 C   0  0  0  0  0  0  0  0  0  0  0  0
   25.7267  -20.5776  -15.1207 O   0  0  0  0  0  0  0  0  0  0  0  0
   24.2509  -20.6508   -9.9959 C   0  0  0  0  0  0  0  0  0  0  0  0
   24.2366  -20.9048   -8.6446 C   0  0  0  0  0  0  0  0  0  0  0  0
   23.4913  -20.4239  -14.7240 N   0  0  0  0  0  0  0  0  0  0  0  0
   23.2197  -20.1717  -16.1518 C   0  0  1  0  0  0  0  0  0  0  0  0
   21.8206  -20.6569  -16.4667 C   0  0  0  0  0  0  0  0  0  0  0  0
   21.3331  -20.2198  -18.1368 S   0  0  0  0  0  0  0  0  0  0  0  0
   23.4263  -18.7460  -16.4521 C   0  0  0  0  0  0  0  0  0  0  0  0
   22.9196  -17.8590  -15.6959 O   0  0  0  0  0  0  0  0  0  0  0  0
   28.9076  -16.9011  -17.9142 C   0  0  0  0  0  0  0  0  0  0  0  0
   28.1894  -15.5010  -18.8360 S   0  0  0  0  0  0  0  0  0  0  0  0
   26.3718  -15.4830  -18.5744 C   0  0  0  0  0  0  0  0  0  0  0  0
   25.9243  -16.8209  -18.0848 C   0  0  0  0  0  0  0  0  0  0  0  0
   24.4442  -16.9216  -17.8093 C   0  0  2  0  0  0  0  0  0  0  0  0
   24.1843  -18.3424  -17.5689 N   0  0  0  0  0  0  0  0  0  0  0  0
   23.6677  -16.5043  -18.9779 C   0  0  0  0  0  0  0  0  0  0  0  0
   23.1538  -15.3531  -19.0751 O   0  0  0  0  0  0  0  0  0  0  0  0
   23.4665  -17.3711  -20.0332 O   0  0  0  0  0  0  0  0  0  0  0  0
  2  1  1  0
  2 12  2  0
  3  2  1  0
  4  3  2  0
  4  5  1  0
  5 11  2  0
  6  7  1  0
  6  5  1  0
  7  9  1  0
  7  8  1  6
  9 10  2  0
  9 13  1  0
 11 12  1  0
 13 14  1  0
 14 17  1  0
 14 15  1  1
 16 15  1  0
 17 18  2  0
 20 21  1  0
 20 19  1  0
 22 21  1  0
 23 22  1  6
 24 23  1  0
 24 17  1  0
 25 27  1  0
 25 23  1  0
 26 25  2  0
M  END
$$$$
