YCM.pdb
     RDKit          3D

 27 27  0  0  1  0  0  0  0  0999 V2000
   27.7120  -19.5850   -5.8293 O   0  0  0  0  0  0  0  0  0  0  0  0
   27.5401  -19.7907   -7.1877 C   0  0  0  0  0  0  0  0  0  0  0  0
   28.3036  -20.7519   -7.8225 C   0  0  0  0  0  0  0  0  0  0  0  0
   28.1502  -20.9734   -9.1701 C   0  0  0  0  0  0  0  0  0  0  0  0
   27.2436  -20.2624   -9.9472 C   0  0  0  0  0  0  0  0  0  0  0  0
   27.1031  -20.5253  -11.4066 C   0  0  0  0  0  0  0  0  0  0  0  0
   25.6986  -21.0364  -11.7214 C   0  0  2  0  0  0  0  0  0  0  0  0
   25.6685  -22.4230  -11.2807 N   0  0  0  0  0  0  0  0  0  0  0  0
   25.4146  -20.9323  -13.1758 C   0  0  0  0  0  0  0  0  0  0  0  0
   25.6764  -21.8556  -13.9851 O   0  0  0  0  0  0  0  0  0  0  0  0
   26.4840  -19.3032   -9.3046 C   0  0  0  0  0  0  0  0  0  0  0  0
   26.6402  -19.0842   -7.9561 C   0  0  0  0  0  0  0  0  0  0  0  0
   24.8244  -19.7622  -13.7195 N   0  0  0  0  0  0  0  0  0  0  0  0
   24.4832  -19.6821  -15.1524 C   0  0  1  0  0  0  0  0  0  0  0  0
   23.0638  -20.1758  -15.3358 C   0  0  0  0  0  0  0  0  0  0  0  0
   22.0734  -19.8912  -13.8675 S   0  0  0  0  0  0  0  0  0  0  0  0
   24.6921  -18.3081  -15.6363 C   0  0  0  0  0  0  0  0  0  0  0  0
   24.1396  -17.3337  -15.0358 O   0  0  0  0  0  0  0  0  0  0  0  0
   30.4555  -16.0542  -17.1149 C   0  0  0  0  0  0  0  0  0  0  0  0
   29.5133  -15.5361  -18.5879 S   0  0  0  0  0  0  0  0  0  0  0  0
   27.7390  -15.3847  -18.1394 C   0  0  0  0  0  0  0  0  0  0  0  0
   27.2508  -16.6831  -17.5864 C   0  0  0  0  0  0  0  0  0  0  0  0
   25.8072  -16.6714  -17.1477 C   0  0  2  0  0  0  0  0  0  0  0  0
   25.5025  -18.0499  -16.7594 N   0  0  0  0  0  0  0  0  0  0  0  0
   24.9285  -16.3027  -18.2588 C   0  0  0  0  0  0  0  0  0  0  0  0
   24.6997  -15.0992  -18.5723 O   0  0  0  0  0  0  0  0  0  0  0  0
   24.3081  -17.2759  -19.0161 O   0  0  0  0  0  0  0  0  0  0  0  0
  2  1  1  0
  2 12  2  0
  3  2  1  0
  4  3  2  0
  4  5  1  0
  5 11  2  0
  6  7  1  0
  6  5  1  0
  7  9  1  0
  7  8  1  6
  9 10  2  0
  9 13  1  0
 11 12  1  0
 13 14  1  0
 14 17  1  0
 14 15  1  1
 16 15  1  0
 17 18  2  0
 20 21  1  0
 20 19  1  0
 22 21  1  0
 23 22  1  6
 24 23  1  0
 24 17  1  0
 25 27  1  0
 25 23  1  0
 26 25  2  0
M  END
$$$$
