YCM.pdb
     RDKit          3D

 27 27  0  0  1  0  0  0  0  0999 V2000
   19.6721  -23.2579   -7.3360 O   0  0  0  0  0  0  0  0  0  0  0  0
   20.5528  -22.4908   -8.0797 C   0  0  0  0  0  0  0  0  0  0  0  0
   20.7595  -22.8063   -9.4093 C   0  0  0  0  0  0  0  0  0  0  0  0
   21.6289  -22.0590  -10.1669 C   0  0  0  0  0  0  0  0  0  0  0  0
   22.3290  -20.9746   -9.6518 C   0  0  0  0  0  0  0  0  0  0  0  0
   23.2662  -20.1861  -10.4994 C   0  0  0  0  0  0  0  0  0  0  0  0
   24.5678  -20.9570  -10.7107 C   0  0  2  0  0  0  0  0  0  0  0  0
   25.2412  -20.9677   -9.4206 N   0  0  0  0  0  0  0  0  0  0  0  0
   25.4068  -20.2993  -11.7452 C   0  0  0  0  0  0  0  0  0  0  0  0
   25.5539  -19.0540  -11.8072 O   0  0  0  0  0  0  0  0  0  0  0  0
   22.1165  -20.6659   -8.3216 C   0  0  0  0  0  0  0  0  0  0  0  0
   21.2457  -21.4158   -7.5665 C   0  0  0  0  0  0  0  0  0  0  0  0
   26.0890  -21.0668  -12.7242 N   0  0  0  0  0  0  0  0  0  0  0  0
   27.0014  -20.4247  -13.6892 C   0  0  1  0  0  0  0  0  0  0  0  0
   28.3931  -20.9817  -13.4770 C   0  0  0  0  0  0  0  0  0  0  0  0
   29.0303  -20.5597  -11.8541 S   0  0  0  0  0  0  0  0  0  0  0  0
   26.4949  -20.6204  -15.0570 C   0  0  0  0  0  0  0  0  0  0  0  0
   26.1234  -21.7751  -15.4363 O   0  0  0  0  0  0  0  0  0  0  0  0
   23.6128  -16.0175  -17.8325 C   0  0  0  0  0  0  0  0  0  0  0  0
   23.7435  -16.9377  -19.4016 S   0  0  0  0  0  0  0  0  0  0  0  0
   24.6806  -18.4894  -19.1079 C   0  0  0  0  0  0  0  0  0  0  0  0
   25.1530  -18.5274  -17.6918 C   0  0  0  0  0  0  0  0  0  0  0  0
   25.9398  -19.7627  -17.3292 C   0  0  2  0  0  0  0  0  0  0  0  0
   26.4098  -19.5424  -15.9600 N   0  0  0  0  0  0  0  0  0  0  0  0
   27.1090  -19.9088  -18.1977 C   0  0  0  0  0  0  0  0  0  0  0  0
   27.0489  -20.4750  -19.3268 O   0  0  0  0  0  0  0  0  0  0  0  0
   28.3403  -19.4238  -17.8051 O   0  0  0  0  0  0  0  0  0  0  0  0
  2  1  1  0
  2 12  2  0
  3  2  1  0
  4  3  2  0
  4  5  1  0
  5 11  2  0
  6  7  1  0
  6  5  1  0
  7  9  1  0
  7  8  1  1
  9 10  2  0
  9 13  1  0
 11 12  1  0
 13 14  1  0
 14 17  1  0
 14 15  1  6
 16 15  1  0
 17 18  2  0
 20 21  1  0
 20 19  1  0
 22 21  1  0
 23 22  1  6
 24 23  1  0
 24 17  1  0
 25 27  1  0
 25 23  1  0
 26 25  2  0
M  END
$$$$
