YCM.pdb
     RDKit          3D

 27 27  0  0  1  0  0  0  0  0999 V2000
   28.9457  -23.2423  -20.7785 O   0  0  0  0  0  0  0  0  0  0  0  0
   27.9213  -22.9387  -19.8977 C   0  0  0  0  0  0  0  0  0  0  0  0
   27.9067  -23.5393  -18.6531 C   0  0  0  0  0  0  0  0  0  0  0  0
   26.8999  -23.2531  -17.7626 C   0  0  0  0  0  0  0  0  0  0  0  0
   25.8694  -22.3683  -18.0567 C   0  0  0  0  0  0  0  0  0  0  0  0
   24.7914  -22.0813  -17.0697 C   0  0  0  0  0  0  0  0  0  0  0  0
   24.8383  -20.6154  -16.6432 C   0  0  2  0  0  0  0  0  0  0  0  0
   26.1005  -20.4428  -15.9396 N   0  0  0  0  0  0  0  0  0  0  0  0
   23.6875  -20.2864  -15.7633 C   0  0  0  0  0  0  0  0  0  0  0  0
   23.6904  -20.5170  -14.5292 O   0  0  0  0  0  0  0  0  0  0  0  0
   25.8917  -21.7720  -19.3032 C   0  0  0  0  0  0  0  0  0  0  0  0
   26.9006  -22.0607  -20.1918 C   0  0  0  0  0  0  0  0  0  0  0  0
   22.5156  -19.6867  -16.2924 N   0  0  0  0  0  0  0  0  0  0  0  0
   21.3597  -19.3891  -15.4256 C   0  0  1  0  0  0  0  0  0  0  0  0
   21.2831  -17.8903  -15.2263 C   0  0  0  0  0  0  0  0  0  0  0  0
   20.9559  -17.0372  -16.7699 S   0  0  0  0  0  0  0  0  0  0  0  0
   20.1387  -19.9649  -16.0115 C   0  0  0  0  0  0  0  0  0  0  0  0
   19.9857  -19.9770  -17.2731 O   0  0  0  0  0  0  0  0  0  0  0  0
   16.1775  -24.5843  -13.2731 C   0  0  0  0  0  0  0  0  0  0  0  0
   16.3423  -24.7459  -15.0821 S   0  0  0  0  0  0  0  0  0  0  0  0
   16.4693  -23.0701  -15.8225 C   0  0  0  0  0  0  0  0  0  0  0  0
   17.7230  -22.4095  -15.3515 C   0  0  0  0  0  0  0  0  0  0  0  0
   17.8712  -20.9716  -15.7839 C   0  0  2  0  0  0  0  0  0  0  0  0
   19.1296  -20.5107  -15.1938 N   0  0  0  0  0  0  0  0  0  0  0  0
   16.7846  -20.1516  -15.2458 C   0  0  0  0  0  0  0  0  0  0  0  0
   16.8960  -19.5005  -14.1675 O   0  0  0  0  0  0  0  0  0  0  0  0
   15.5784  -20.0602  -15.9108 O   0  0  0  0  0  0  0  0  0  0  0  0
  2  1  1  0
  2 12  2  0
  3  2  1  0
  4  3  2  0
  4  5  1  0
  5 11  2  0
  6  7  1  0
  6  5  1  0
  7  9  1  0
  7  8  1  1
  9 10  2  0
  9 13  1  0
 11 12  1  0
 13 14  1  0
 14 17  1  0
 14 15  1  6
 16 15  1  0
 17 18  2  0
 20 21  1  0
 20 19  1  0
 22 21  1  0
 23 22  1  1
 24 23  1  0
 24 17  1  0
 25 27  1  0
 25 23  1  0
 26 25  2  0
M  END
$$$$
