YCM.pdb
     RDKit          3D

 27 27  0  0  1  0  0  0  0  0999 V2000
   24.1379  -14.8977  -20.6431 O   0  0  0  0  0  0  0  0  0  0  0  0
   23.6064  -15.8548  -19.7952 C   0  0  0  0  0  0  0  0  0  0  0  0
   23.6938  -17.1877  -20.1496 C   0  0  0  0  0  0  0  0  0  0  0  0
   23.1734  -18.1550  -19.3237 C   0  0  0  0  0  0  0  0  0  0  0  0
   22.5477  -17.8541  -18.1198 C   0  0  0  0  0  0  0  0  0  0  0  0
   21.9918  -18.9264  -17.2481 C   0  0  0  0  0  0  0  0  0  0  0  0
   22.8513  -19.0920  -15.9963 C   0  0  2  0  0  0  0  0  0  0  0  0
   24.1051  -19.6784  -16.4456 N   0  0  0  0  0  0  0  0  0  0  0  0
   22.1757  -19.9702  -15.0068 C   0  0  0  0  0  0  0  0  0  0  0  0
   22.3530  -21.2125  -14.9710 O   0  0  0  0  0  0  0  0  0  0  0  0
   22.4647  -16.5189  -17.7730 C   0  0  0  0  0  0  0  0  0  0  0  0
   22.9865  -15.5537  -18.6018 C   0  0  0  0  0  0  0  0  0  0  0  0
   21.2852  -19.4298  -14.0434 N   0  0  0  0  0  0  0  0  0  0  0  0
   20.6780  -20.2877  -13.0084 C   0  0  1  0  0  0  0  0  0  0  0  0
   20.7623  -19.5681  -11.6791 C   0  0  0  0  0  0  0  0  0  0  0  0
   19.1350  -19.1341  -11.0615 S   0  0  0  0  0  0  0  0  0  0  0  0
   19.3028  -20.6380  -13.3981 C   0  0  0  0  0  0  0  0  0  0  0  0
   18.5957  -19.8041  -14.0461 O   0  0  0  0  0  0  0  0  0  0  0  0
   17.7757  -26.5986  -13.8775 C   0  0  0  0  0  0  0  0  0  0  0  0
   16.0426  -26.0645  -14.0698 S   0  0  0  0  0  0  0  0  0  0  0  0
   15.9396  -24.2541  -13.7796 C   0  0  0  0  0  0  0  0  0  0  0  0
   17.3119  -23.7023  -13.5734 C   0  0  0  0  0  0  0  0  0  0  0  0
   17.3643  -22.2027  -13.4149 C   0  0  2  0  0  0  0  0  0  0  0  0
   18.7522  -21.8918  -13.0671 N   0  0  0  0  0  0  0  0  0  0  0  0
   16.5060  -21.7654  -12.3127 C   0  0  0  0  0  0  0  0  0  0  0  0
   16.8962  -21.7607  -11.1099 O   0  0  0  0  0  0  0  0  0  0  0  0
   15.2168  -21.3355  -12.5546 O   0  0  0  0  0  0  0  0  0  0  0  0
  2  1  1  0
  2 12  2  0
  3  2  1  0
  4  3  2  0
  4  5  1  0
  5 11  2  0
  6  7  1  0
  6  5  1  0
  7  9  1  0
  7  8  1  6
  9 10  2  0
  9 13  1  0
 11 12  1  0
 13 14  1  0
 14 17  1  0
 14 15  1  1
 16 15  1  0
 17 18  2  0
 20 21  1  0
 20 19  1  0
 22 21  1  0
 23 22  1  1
 24 23  1  0
 24 17  1  0
 25 27  1  0
 25 23  1  0
 26 25  2  0
M  END
$$$$
