YWR.pdb
     RDKit          3D

 38 40  0  0  1  0  0  0  0  0999 V2000
   27.8781  -16.0735  -17.8430 O   0  0  0  0  0  0  0  0  0  0  0  0
   27.3629  -16.9926  -16.9050 C   0  0  0  0  0  0  0  0  0  0  0  0
   27.2219  -18.3187  -17.2556 C   0  0  0  0  0  0  0  0  0  0  0  0
   26.7151  -19.2281  -16.3348 C   0  0  0  0  0  0  0  0  0  0  0  0
   26.3362  -18.8696  -15.0603 C   0  0  0  0  0  0  0  0  0  0  0  0
   25.7962  -19.8227  -14.0664 C   0  0  0  0  0  0  0  0  0  0  0  0
   26.7954  -20.4277  -13.1505 C   0  0  2  0  0  0  0  0  0  0  0  0
   27.5502  -21.4970  -13.8120 N   0  0  0  0  0  0  0  0  0  0  0  0
   26.3383  -20.8650  -11.8392 C   0  0  0  0  0  0  0  0  0  0  0  0
   26.1680  -22.1171  -11.6252 O   0  0  0  0  0  0  0  0  0  0  0  0
   26.4892  -17.5173  -14.7282 C   0  0  0  0  0  0  0  0  0  0  0  0
   26.9934  -16.6091  -15.6415 C   0  0  0  0  0  0  0  0  0  0  0  0
   26.0532  -20.0133  -10.7249 N   0  0  0  0  0  0  0  0  0  0  0  0
   25.6312  -20.5369   -9.4652 C   0  0  1  0  0  0  0  0  0  0  0  0
   26.0538  -19.6500   -8.3076 C   0  0  0  0  0  0  0  0  0  0  0  0
   27.3623  -19.9920   -7.7480 C   0  0  0  0  0  0  0  0  0  0  0  0
   28.4540  -20.4867   -8.4294 C   0  0  0  0  0  0  0  0  0  0  0  0
   29.4795  -20.6824   -7.5811 N   0  0  0  0  0  0  0  0  0  0  0  0
   29.0833  -20.3207   -6.3267 C   0  0  0  0  0  0  0  0  0  0  0  0
   29.7294  -20.3181   -5.1100 C   0  0  0  0  0  0  0  0  0  0  0  0
   29.0910  -19.8898   -3.9612 C   0  0  0  0  0  0  0  0  0  0  0  0
   27.7944  -19.4692   -4.0794 C   0  0  0  0  0  0  0  0  0  0  0  0
   27.1191  -19.4604   -5.2862 C   0  0  0  0  0  0  0  0  0  0  0  0
   27.7566  -19.8879   -6.4321 C   0  0  0  0  0  0  0  0  0  0  0  0
   24.1576  -20.6553   -9.3532 C   0  0  0  0  0  0  0  0  0  0  0  0
   23.4434  -19.8243   -9.9612 O   0  0  0  0  0  0  0  0  0  0  0  0
   18.5859  -26.2450   -5.5857 N   0  0  0  0  0  0  0  0  0  0  0  0
   17.9089  -25.0017   -5.5636 C   0  0  0  0  0  0  0  0  0  0  0  0
   16.6579  -25.0284   -5.2268 N   0  0  0  0  0  0  0  0  0  0  0  0
   18.5166  -23.7749   -5.8847 N   0  0  0  0  0  0  0  0  0  0  0  0
   19.9699  -23.7641   -6.2420 C   0  0  0  0  0  0  0  0  0  0  0  0
   20.3823  -22.4045   -6.6242 C   0  0  0  0  0  0  0  0  0  0  0  0
   21.7082  -22.1770   -7.1408 C   0  0  0  0  0  0  0  0  0  0  0  0
   22.0310  -21.7725   -8.5176 C   0  0  2  0  0  0  0  0  0  0  0  0
   23.5079  -21.6450   -8.6060 N   0  0  0  0  0  0  0  0  0  0  0  0
   21.4803  -20.5753   -9.1109 C   0  0  0  0  0  0  0  0  0  0  0  0
   21.8608  -19.2640   -9.0336 O   0  0  0  0  0  0  0  0  0  0  0  0
   20.4255  -20.7357   -9.8592 O   0  0  0  0  0  0  0  0  0  0  0  0
  2  1  1  0
  2 12  2  0
  3  2  1  0
  4  3  2  0
  4  5  1  0
  5 11  2  0
  6  7  1  0
  6  5  1  0
  7  8  1  6
  9  7  1  0
  9 13  1  0
 10  9  2  0
 11 12  1  0
 14 25  1  0
 14 13  1  0
 14 15  1  1
 16 15  1  0
 16 24  1  0
 17 18  1  0
 17 16  2  0
 18 19  1  0
 19 24  2  0
 19 20  1  0
 20 21  2  0
 21 22  1  0
 23 22  2  0
 24 23  1  0
 25 26  2  0
 27 28  1  0
 28 29  2  0
 30 28  1  0
 30 31  1  0
 32 33  1  0
 32 31  1  0
 34 33  1  1
 34 36  1  0
 35 34  1  0
 35 25  1  0
 36 37  1  0
 38 36  2  0
M  END
$$$$
