YWR.pdb
     RDKit          3D

 38 40  0  0  1  0  0  0  0  0999 V2000
   30.6642  -15.8802  -19.1835 O   0  0  0  0  0  0  0  0  0  0  0  0
   29.8307  -16.8091  -18.5259 C   0  0  0  0  0  0  0  0  0  0  0  0
   29.5537  -18.0202  -19.1240 C   0  0  0  0  0  0  0  0  0  0  0  0
   28.7333  -18.9388  -18.4799 C   0  0  0  0  0  0  0  0  0  0  0  0
   28.1673  -18.7007  -17.2473 C   0  0  0  0  0  0  0  0  0  0  0  0
   27.2931  -19.6658  -16.5459 C   0  0  0  0  0  0  0  0  0  0  0  0
   27.9585  -20.5007  -15.5145 C   0  0  2  0  0  0  0  0  0  0  0  0
   28.6833  -21.6228  -16.1195 N   0  0  0  0  0  0  0  0  0  0  0  0
   27.1554  -20.9614  -14.3909 C   0  0  0  0  0  0  0  0  0  0  0  0
   26.7915  -22.1896  -14.3482 O   0  0  0  0  0  0  0  0  0  0  0  0
   28.4638  -17.4637  -16.6605 C   0  0  0  0  0  0  0  0  0  0  0  0
   29.2799  -16.5469  -17.2979 C   0  0  0  0  0  0  0  0  0  0  0  0
   26.7180  -20.1589  -13.2895 N   0  0  0  0  0  0  0  0  0  0  0  0
   25.9662  -20.7100  -12.2077 C   0  0  1  0  0  0  0  0  0  0  0  0
   26.2656  -20.0148  -10.8916 C   0  0  0  0  0  0  0  0  0  0  0  0
   27.4524  -20.5303  -10.2074 C   0  0  0  0  0  0  0  0  0  0  0  0
   28.5328  -21.1654  -10.7821 C   0  0  0  0  0  0  0  0  0  0  0  0
   29.4304  -21.4986   -9.8372 N   0  0  0  0  0  0  0  0  0  0  0  0
   28.9589  -21.0899   -8.6240 C   0  0  0  0  0  0  0  0  0  0  0  0
   29.4710  -21.1766   -7.3480 C   0  0  0  0  0  0  0  0  0  0  0  0
   28.7804  -20.6691   -6.2634 C   0  0  0  0  0  0  0  0  0  0  0  0
   27.5704  -20.0783   -6.5060 C   0  0  0  0  0  0  0  0  0  0  0  0
   27.0301  -19.9763   -7.7750 C   0  0  0  0  0  0  0  0  0  0  0  0
   27.7195  -20.4829   -8.8568 C   0  0  0  0  0  0  0  0  0  0  0  0
   24.5015  -20.5807  -12.3973 C   0  0  0  0  0  0  0  0  0  0  0  0
   24.0557  -19.5266  -12.9076 O   0  0  0  0  0  0  0  0  0  0  0  0
   17.9138  -24.5845  -10.4425 N   0  0  0  0  0  0  0  0  0  0  0  0
   17.4703  -24.6009  -11.7870 C   0  0  0  0  0  0  0  0  0  0  0  0
   16.1909  -24.5227  -11.9766 N   0  0  0  0  0  0  0  0  0  0  0  0
   18.3326  -24.6983  -12.8934 N   0  0  0  0  0  0  0  0  0  0  0  0
   19.8081  -24.5920  -12.6668 C   0  0  0  0  0  0  0  0  0  0  0  0
   20.1971  -23.1779  -12.5504 C   0  0  0  0  0  0  0  0  0  0  0  0
   21.5828  -22.8294  -12.3629 C   0  0  0  0  0  0  0  0  0  0  0  0
   22.1177  -21.4611  -12.2917 C   0  0  2  0  0  0  0  0  0  0  0  0
   23.5772  -21.5697  -12.0403 N   0  0  0  0  0  0  0  0  0  0  0  0
   21.6106  -20.4910  -11.3482 C   0  0  0  0  0  0  0  0  0  0  0  0
   20.5321  -19.6514  -11.3977 O   0  0  0  0  0  0  0  0  0  0  0  0
   22.2804  -20.3626  -10.2377 O   0  0  0  0  0  0  0  0  0  0  0  0
  2  1  1  0
  2 12  2  0
  3  2  1  0
  4  3  2  0
  4  5  1  0
  5 11  2  0
  6  7  1  0
  6  5  1  0
  7  8  1  6
  9  7  1  0
  9 13  1  0
 10  9  2  0
 11 12  1  0
 14 25  1  0
 14 13  1  0
 14 15  1  1
 16 15  1  0
 16 24  1  0
 17 18  1  0
 17 16  2  0
 18 19  1  0
 19 24  2  0
 19 20  1  0
 20 21  2  0
 21 22  1  0
 23 22  2  0
 24 23  1  0
 25 26  2  0
 27 28  1  0
 28 29  2  0
 30 28  1  0
 30 31  1  0
 32 33  1  0
 32 31  1  0
 34 33  1  1
 34 36  1  0
 35 34  1  0
 35 25  1  0
 36 37  1  0
 38 36  2  0
M  END
$$$$
