YWR.pdb
     RDKit          3D

 38 40  0  0  1  0  0  0  0  0999 V2000
   29.6240  -15.9783  -19.8799 O   0  0  0  0  0  0  0  0  0  0  0  0
   28.9851  -16.6812  -18.8370 C   0  0  0  0  0  0  0  0  0  0  0  0
   29.4899  -16.6087  -17.5559 C   0  0  0  0  0  0  0  0  0  0  0  0
   28.8637  -17.2993  -16.5250 C   0  0  0  0  0  0  0  0  0  0  0  0
   27.7395  -18.0713  -16.7165 C   0  0  0  0  0  0  0  0  0  0  0  0
   27.0587  -18.8121  -15.6324 C   0  0  0  0  0  0  0  0  0  0  0  0
   27.8315  -19.9312  -15.0378 C   0  0  2  0  0  0  0  0  0  0  0  0
   28.0762  -20.9937  -16.0185 N   0  0  0  0  0  0  0  0  0  0  0  0
   27.3535  -20.4971  -13.7844 C   0  0  0  0  0  0  0  0  0  0  0  0
   26.5540  -21.4982  -13.8185 O   0  0  0  0  0  0  0  0  0  0  0  0
   27.2460  -18.1287  -18.0263 C   0  0  0  0  0  0  0  0  0  0  0  0
   27.8659  -17.4429  -19.0550 C   0  0  0  0  0  0  0  0  0  0  0  0
   27.6983  -20.0384  -12.4732 N   0  0  0  0  0  0  0  0  0  0  0  0
   27.0443  -20.5355  -11.3052 C   0  0  1  0  0  0  0  0  0  0  0  0
   27.6072  -19.9274  -10.0331 C   0  0  0  0  0  0  0  0  0  0  0  0
   26.9909  -20.4416   -8.8091 C   0  0  0  0  0  0  0  0  0  0  0  0
   26.0393  -21.4345   -8.7116 C   0  0  0  0  0  0  0  0  0  0  0  0
   25.7101  -21.6353   -7.4229 N   0  0  0  0  0  0  0  0  0  0  0  0
   26.4376  -20.7797   -6.6482 C   0  0  0  0  0  0  0  0  0  0  0  0
   26.4913  -20.5718   -5.2874 C   0  0  0  0  0  0  0  0  0  0  0  0
   27.3355  -19.6234   -4.7409 C   0  0  0  0  0  0  0  0  0  0  0  0
   28.1144  -18.9004   -5.6027 C   0  0  0  0  0  0  0  0  0  0  0  0
   28.0827  -19.0858   -6.9728 C   0  0  0  0  0  0  0  0  0  0  0  0
   27.2401  -20.0322   -7.5176 C   0  0  0  0  0  0  0  0  0  0  0  0
   25.5940  -20.2286  -11.2804 C   0  0  0  0  0  0  0  0  0  0  0  0
   25.2265  -19.0580  -11.5352 O   0  0  0  0  0  0  0  0  0  0  0  0
   19.9823  -25.8149  -14.8659 N   0  0  0  0  0  0  0  0  0  0  0  0
   19.2403  -24.6293  -14.6455 C   0  0  0  0  0  0  0  0  0  0  0  0
   18.0492  -24.5877  -15.1537 N   0  0  0  0  0  0  0  0  0  0  0  0
   19.7269  -23.5258  -13.9224 N   0  0  0  0  0  0  0  0  0  0  0  0
   21.0900  -23.6114  -13.3105 C   0  0  0  0  0  0  0  0  0  0  0  0
   21.4272  -22.3373  -12.6566 C   0  0  0  0  0  0  0  0  0  0  0  0
   22.6931  -22.1906  -11.9839 C   0  0  0  0  0  0  0  0  0  0  0  0
   23.1626  -20.9748  -11.3022 C   0  0  2  0  0  0  0  0  0  0  0  0
   24.6009  -21.1713  -10.9889 N   0  0  0  0  0  0  0  0  0  0  0  0
   22.5420  -20.4908  -10.0901 C   0  0  0  0  0  0  0  0  0  0  0  0
   21.6383  -19.4884   -9.8686 O   0  0  0  0  0  0  0  0  0  0  0  0
   22.8854  -21.0930   -8.9867 O   0  0  0  0  0  0  0  0  0  0  0  0
  2  1  1  0
  2 12  2  0
  3  2  1  0
  4  3  2  0
  4  5  1  0
  5 11  2  0
  6  7  1  0
  6  5  1  0
  7  8  1  6
  9  7  1  0
  9 13  1  0
 10  9  2  0
 11 12  1  0
 14 25  1  0
 14 13  1  0
 14 15  1  1
 16 15  1  0
 16 24  1  0
 17 18  1  0
 17 16  2  0
 18 19  1  0
 19 24  2  0
 19 20  1  0
 20 21  2  0
 21 22  1  0
 23 22  2  0
 24 23  1  0
 25 26  2  0
 27 28  1  0
 28 29  2  0
 30 28  1  0
 30 31  1  0
 32 33  1  0
 32 31  1  0
 34 33  1  1
 34 36  1  0
 35 34  1  0
 35 25  1  0
 36 37  1  0
 38 36  2  0
M  END
$$$$
