YWR.pdb
     RDKit          3D

 38 40  0  0  1  0  0  0  0  0999 V2000
   29.5149  -30.0107  -18.9886 O   0  0  0  0  0  0  0  0  0  0  0  0
   28.5599  -29.2215  -18.3139 C   0  0  0  0  0  0  0  0  0  0  0  0
   27.3447  -28.9615  -18.9113 C   0  0  0  0  0  0  0  0  0  0  0  0
   26.4005  -28.1847  -18.2503 C   0  0  0  0  0  0  0  0  0  0  0  0
   26.6166  -27.6466  -17.0012 C   0  0  0  0  0  0  0  0  0  0  0  0
   25.6240  -26.8189  -16.2818 C   0  0  0  0  0  0  0  0  0  0  0  0
   25.5223  -25.4072  -16.7291 C   0  0  2  0  0  0  0  0  0  0  0  0
   26.7622  -24.6705  -16.4636 N   0  0  0  0  0  0  0  0  0  0  0  0
   24.3688  -24.6359  -16.2885 C   0  0  0  0  0  0  0  0  0  0  0  0
   24.4564  -23.9450  -15.2126 O   0  0  0  0  0  0  0  0  0  0  0  0
   27.8582  -27.9250  -16.4155 C   0  0  0  0  0  0  0  0  0  0  0  0
   28.8005  -28.6978  -17.0697 C   0  0  0  0  0  0  0  0  0  0  0  0
   23.1052  -24.5636  -16.9566 N   0  0  0  0  0  0  0  0  0  0  0  0
   22.0169  -23.8041  -16.4294 C   0  0  1  0  0  0  0  0  0  0  0  0
   21.2188  -23.1155  -17.5221 C   0  0  0  0  0  0  0  0  0  0  0  0
   20.1239  -22.2841  -17.0198 C   0  0  0  0  0  0  0  0  0  0  0  0
   20.2269  -21.1822  -16.1976 C   0  0  0  0  0  0  0  0  0  0  0  0
   19.0059  -20.6770  -15.9455 N   0  0  0  0  0  0  0  0  0  0  0  0
   18.0770  -21.4354  -16.5959 C   0  0  0  0  0  0  0  0  0  0  0  0
   16.7039  -21.3593  -16.6780 C   0  0  0  0  0  0  0  0  0  0  0  0
   15.9797  -22.2700  -17.4243 C   0  0  0  0  0  0  0  0  0  0  0  0
   16.6785  -23.2484  -18.0773 C   0  0  0  0  0  0  0  0  0  0  0  0
   18.0562  -23.3511  -18.0140 C   0  0  0  0  0  0  0  0  0  0  0  0
   18.7783  -22.4421  -17.2692 C   0  0  0  0  0  0  0  0  0  0  0  0
   21.0369  -24.6355  -15.6902 C   0  0  0  0  0  0  0  0  0  0  0  0
   20.6118  -25.6822  -16.2324 O   0  0  0  0  0  0  0  0  0  0  0  0
   19.2655  -24.9415   -6.9378 N   0  0  0  0  0  0  0  0  0  0  0  0
   18.3340  -25.8060   -7.5620 C   0  0  0  0  0  0  0  0  0  0  0  0
   17.6060  -26.5372   -6.7782 N   0  0  0  0  0  0  0  0  0  0  0  0
   18.1712  -25.9049   -8.9552 N   0  0  0  0  0  0  0  0  0  0  0  0
   19.0660  -25.0981   -9.8429 C   0  0  0  0  0  0  0  0  0  0  0  0
   18.8292  -25.4538  -11.2507 C   0  0  0  0  0  0  0  0  0  0  0  0
   19.5978  -24.8160  -12.2895 C   0  0  0  0  0  0  0  0  0  0  0  0
   19.4823  -25.0920  -13.7296 C   0  0  2  0  0  0  0  0  0  0  0  0
   20.5529  -24.3235  -14.4142 N   0  0  0  0  0  0  0  0  0  0  0  0
   18.2625  -24.8354  -14.4610 C   0  0  0  0  0  0  0  0  0  0  0  0
   17.5276  -25.6187  -15.3076 O   0  0  0  0  0  0  0  0  0  0  0  0
   17.7413  -23.6500  -14.3145 O   0  0  0  0  0  0  0  0  0  0  0  0
  2  1  1  0
  2 12  2  0
  3  2  1  0
  4  3  2  0
  4  5  1  0
  5 11  2  0
  6  7  1  0
  6  5  1  0
  7  8  1  1
  9  7  1  0
  9 13  1  0
 10  9  2  0
 11 12  1  0
 14 25  1  0
 14 13  1  0
 14 15  1  6
 16 15  1  0
 16 24  1  0
 17 18  1  0
 17 16  2  0
 18 19  1  0
 19 24  2  0
 19 20  1  0
 20 21  2  0
 21 22  1  0
 23 22  2  0
 24 23  1  0
 25 26  2  0
 27 28  1  0
 28 29  2  0
 30 28  1  0
 30 31  1  0
 32 33  1  0
 32 31  1  0
 34 33  1  1
 34 36  1  0
 35 34  1  0
 35 25  1  0
 36 37  1  0
 38 36  2  0
M  END
$$$$
