YWR.pdb
     RDKit          3D

 38 40  0  0  1  0  0  0  0  0999 V2000
   24.8639  -13.5505  -22.3004 O   0  0  0  0  0  0  0  0  0  0  0  0
   24.8342  -14.8142  -21.6741 C   0  0  0  0  0  0  0  0  0  0  0  0
   24.2581  -14.9449  -20.4282 C   0  0  0  0  0  0  0  0  0  0  0  0
   24.2262  -16.1880  -19.8073 C   0  0  0  0  0  0  0  0  0  0  0  0
   24.7511  -17.3245  -20.3812 C   0  0  0  0  0  0  0  0  0  0  0  0
   24.7255  -18.6556  -19.7369 C   0  0  0  0  0  0  0  0  0  0  0  0
   25.6484  -18.8288  -18.5873 C   0  0  2  0  0  0  0  0  0  0  0  0
   26.9535  -19.3387  -19.0203 N   0  0  0  0  0  0  0  0  0  0  0  0
   25.1669  -19.5782  -17.4358 C   0  0  0  0  0  0  0  0  0  0  0  0
   25.1486  -20.8586  -17.4899 O   0  0  0  0  0  0  0  0  0  0  0  0
   25.3304  -17.1658  -21.6467 C   0  0  0  0  0  0  0  0  0  0  0  0
   25.3641  -15.9306  -22.2682 C   0  0  0  0  0  0  0  0  0  0  0  0
   24.6991  -19.0148  -16.2061 N   0  0  0  0  0  0  0  0  0  0  0  0
   24.2031  -19.8306  -15.1443 C   0  0  1  0  0  0  0  0  0  0  0  0
   24.6227  -19.3109  -13.7809 C   0  0  0  0  0  0  0  0  0  0  0  0
   26.0676  -19.3542  -13.5508 C   0  0  0  0  0  0  0  0  0  0  0  0
   27.0402  -18.6634  -14.2421 C   0  0  0  0  0  0  0  0  0  0  0  0
   28.2564  -18.9580  -13.7486 N   0  0  0  0  0  0  0  0  0  0  0  0
   28.1081  -19.8469  -12.7243 C   0  0  0  0  0  0  0  0  0  0  0  0
   29.0123  -20.4636  -11.8875 C   0  0  0  0  0  0  0  0  0  0  0  0
   28.5949  -21.3413  -10.9046 C   0  0  0  0  0  0  0  0  0  0  0  0
   27.2509  -21.5735  -10.7953 C   0  0  0  0  0  0  0  0  0  0  0  0
   26.3192  -20.9702  -11.6202 C   0  0  0  0  0  0  0  0  0  0  0  0
   26.7363  -20.0945  -12.6008 C   0  0  0  0  0  0  0  0  0  0  0  0
   22.7222  -19.8897  -15.1047 C   0  0  0  0  0  0  0  0  0  0  0  0
   22.1079  -19.0335  -14.4265 O   0  0  0  0  0  0  0  0  0  0  0  0
   20.1499  -21.5294   -9.2352 N   0  0  0  0  0  0  0  0  0  0  0  0
   20.8362  -20.5582  -10.0036 C   0  0  0  0  0  0  0  0  0  0  0  0
   21.1461  -19.4543   -9.4000 N   0  0  0  0  0  0  0  0  0  0  0  0
   21.1835  -20.7332  -11.3549 N   0  0  0  0  0  0  0  0  0  0  0  0
   20.5729  -21.8700  -12.1130 C   0  0  0  0  0  0  0  0  0  0  0  0
   21.6261  -22.6512  -12.7802 C   0  0  0  0  0  0  0  0  0  0  0  0
   21.7336  -22.6278  -14.2170 C   0  0  0  0  0  0  0  0  0  0  0  0
   20.9788  -21.7415  -15.1160 C   0  0  2  0  0  0  0  0  0  0  0  0
   21.9602  -20.8485  -15.7828 N   0  0  0  0  0  0  0  0  0  0  0  0
   19.9138  -20.8920  -14.6338 C   0  0  0  0  0  0  0  0  0  0  0  0
   18.5637  -20.9137  -14.8510 O   0  0  0  0  0  0  0  0  0  0  0  0
   20.2677  -19.9132  -13.8495 O   0  0  0  0  0  0  0  0  0  0  0  0
  2  1  1  0
  2 12  2  0
  3  2  1  0
  4  3  2  0
  4  5  1  0
  5 11  2  0
  6  7  1  0
  6  5  1  0
  7  8  1  6
  9  7  1  0
  9 13  1  0
 10  9  2  0
 11 12  1  0
 14 25  1  0
 14 13  1  0
 14 15  1  1
 16 15  1  0
 16 24  1  0
 17 18  1  0
 17 16  2  0
 18 19  1  0
 19 24  2  0
 19 20  1  0
 20 21  2  0
 21 22  1  0
 23 22  2  0
 24 23  1  0
 25 26  2  0
 27 28  1  0
 28 29  2  0
 30 28  1  0
 30 31  1  0
 32 33  1  0
 32 31  1  0
 34 33  1  1
 34 36  1  0
 35 34  1  0
 35 25  1  0
 36 37  1  0
 38 36  2  0
M  END
$$$$
