YWR.pdb
     RDKit          3D

 38 40  0  0  1  0  0  0  0  0999 V2000
   27.6464  -14.8327  -19.1107 O   0  0  0  0  0  0  0  0  0  0  0  0
   27.4426  -15.7644  -18.0712 C   0  0  0  0  0  0  0  0  0  0  0  0
   26.6566  -16.8750  -18.2947 C   0  0  0  0  0  0  0  0  0  0  0  0
   26.4532  -17.7959  -17.2738 C   0  0  0  0  0  0  0  0  0  0  0  0
   27.0064  -17.6574  -16.0203 C   0  0  0  0  0  0  0  0  0  0  0  0
   26.8025  -18.6269  -14.9221 C   0  0  0  0  0  0  0  0  0  0  0  0
   27.9520  -19.5212  -14.6354 C   0  0  2  0  0  0  0  0  0  0  0  0
   28.2110  -20.4354  -15.7524 N   0  0  0  0  0  0  0  0  0  0  0  0
   27.9497  -20.2482  -13.3741 C   0  0  0  0  0  0  0  0  0  0  0  0
   27.2194  -21.2953  -13.2607 O   0  0  0  0  0  0  0  0  0  0  0  0
   27.8007  -16.5214  -15.8183 C   0  0  0  0  0  0  0  0  0  0  0  0
   28.0059  -15.6026  -16.8316 C   0  0  0  0  0  0  0  0  0  0  0  0
   28.7068  -19.9057  -12.2088 N   0  0  0  0  0  0  0  0  0  0  0  0
   28.3878  -20.4341  -10.9211 C   0  0  1  0  0  0  0  0  0  0  0  0
   29.3388  -19.9357   -9.8477 C   0  0  0  0  0  0  0  0  0  0  0  0
   29.0767  -20.4939   -8.5202 C   0  0  0  0  0  0  0  0  0  0  0  0
   29.1062  -21.8237   -8.1573 C   0  0  0  0  0  0  0  0  0  0  0  0
   28.8101  -21.9538   -6.8515 N   0  0  0  0  0  0  0  0  0  0  0  0
   28.5804  -20.7140   -6.3305 C   0  0  0  0  0  0  0  0  0  0  0  0
   28.2478  -20.2820   -5.0653 C   0  0  0  0  0  0  0  0  0  0  0  0
   28.0704  -18.9389   -4.7910 C   0  0  0  0  0  0  0  0  0  0  0  0
   28.2377  -18.0565   -5.8232 C   0  0  0  0  0  0  0  0  0  0  0  0
   28.5711  -18.4594   -7.1035 C   0  0  0  0  0  0  0  0  0  0  0  0
   28.7480  -19.7997   -7.3767 C   0  0  0  0  0  0  0  0  0  0  0  0
   27.0334  -20.0481  -10.4576 C   0  0  0  0  0  0  0  0  0  0  0  0
   26.6284  -18.8866  -10.6968 O   0  0  0  0  0  0  0  0  0  0  0  0
   22.3338  -23.7595  -14.1015 N   0  0  0  0  0  0  0  0  0  0  0  0
   23.5177  -24.2726  -13.5187 C   0  0  0  0  0  0  0  0  0  0  0  0
   24.2267  -25.0708  -14.2529 N   0  0  0  0  0  0  0  0  0  0  0  0
   23.9437  -23.9650  -12.2144 N   0  0  0  0  0  0  0  0  0  0  0  0
   23.2721  -22.8447  -11.4839 C   0  0  0  0  0  0  0  0  0  0  0  0
   24.0427  -21.6027  -11.6524 C   0  0  0  0  0  0  0  0  0  0  0  0
   23.9810  -20.5788  -10.6404 C   0  0  0  0  0  0  0  0  0  0  0  0
   24.7748  -20.5521   -9.4024 C   0  0  2  0  0  0  0  0  0  0  0  0
   26.1708  -20.9058   -9.7648 N   0  0  0  0  0  0  0  0  0  0  0  0
   24.4310  -21.3635   -8.2570 C   0  0  0  0  0  0  0  0  0  0  0  0
   24.9617  -22.5282   -7.7750 O   0  0  0  0  0  0  0  0  0  0  0  0
   23.4354  -20.9413   -7.5297 O   0  0  0  0  0  0  0  0  0  0  0  0
  2  1  1  0
  2 12  2  0
  3  2  1  0
  4  3  2  0
  4  5  1  0
  5 11  2  0
  6  7  1  0
  6  5  1  0
  7  8  1  6
  9  7  1  0
  9 13  1  0
 10  9  2  0
 11 12  1  0
 14 25  1  0
 14 13  1  0
 14 15  1  1
 16 15  1  0
 16 24  1  0
 17 18  1  0
 17 16  2  0
 18 19  1  0
 19 24  2  0
 19 20  1  0
 20 21  2  0
 21 22  1  0
 23 22  2  0
 24 23  1  0
 25 26  2  0
 27 28  1  0
 28 29  2  0
 30 28  1  0
 30 31  1  0
 32 33  1  0
 32 31  1  0
 34 33  1  6
 34 36  1  0
 35 34  1  0
 35 25  1  0
 36 37  1  0
 38 36  2  0
M  END
$$$$
