YWR.pdb
     RDKit          3D

 38 40  0  0  1  0  0  0  0  0999 V2000
   27.9992  -16.0711  -17.9640 O   0  0  0  0  0  0  0  0  0  0  0  0
   28.0193  -17.1229  -17.0242 C   0  0  0  0  0  0  0  0  0  0  0  0
   27.6009  -16.8907  -15.7311 C   0  0  0  0  0  0  0  0  0  0  0  0
   27.6186  -17.9239  -14.8017 C   0  0  0  0  0  0  0  0  0  0  0  0
   28.0416  -19.1982  -15.1078 C   0  0  0  0  0  0  0  0  0  0  0  0
   28.0664  -20.3105  -14.1332 C   0  0  0  0  0  0  0  0  0  0  0  0
   27.5296  -19.9939  -12.7860 C   0  0  2  0  0  0  0  0  0  0  0  0
   28.1648  -18.7976  -12.2239 N   0  0  0  0  0  0  0  0  0  0  0  0
   27.4973  -21.0634  -11.7986 C   0  0  0  0  0  0  0  0  0  0  0  0
   27.7477  -22.2634  -12.1725 O   0  0  0  0  0  0  0  0  0  0  0  0
   28.4614  -19.4088  -16.4275 C   0  0  0  0  0  0  0  0  0  0  0  0
   28.4451  -18.3835  -17.3556 C   0  0  0  0  0  0  0  0  0  0  0  0
   27.2086  -20.9081  -10.4054 N   0  0  0  0  0  0  0  0  0  0  0  0
   25.9646  -21.3265   -9.8428 C   0  0  1  0  0  0  0  0  0  0  0  0
   26.0092  -21.3680   -8.3257 C   0  0  0  0  0  0  0  0  0  0  0  0
   26.7268  -20.2430   -7.7244 C   0  0  0  0  0  0  0  0  0  0  0  0
   26.9447  -19.0018   -8.2838 C   0  0  0  0  0  0  0  0  0  0  0  0
   27.6451  -18.2280   -7.4352 N   0  0  0  0  0  0  0  0  0  0  0  0
   27.9014  -18.9438   -6.3024 C   0  0  0  0  0  0  0  0  0  0  0  0
   28.5677  -18.6360   -5.1365 C   0  0  0  0  0  0  0  0  0  0  0  0
   28.6873  -19.5596   -4.1150 C   0  0  0  0  0  0  0  0  0  0  0  0
   28.1191  -20.7894   -4.3066 C   0  0  0  0  0  0  0  0  0  0  0  0
   27.4444  -21.1282   -5.4653 C   0  0  0  0  0  0  0  0  0  0  0  0
   27.3254  -20.2062   -6.4842 C   0  0  0  0  0  0  0  0  0  0  0  0
   24.8434  -20.4166  -10.1792 C   0  0  0  0  0  0  0  0  0  0  0  0
   25.0548  -19.1814  -10.1767 O   0  0  0  0  0  0  0  0  0  0  0  0
   24.7655  -24.8057  -14.6812 N   0  0  0  0  0  0  0  0  0  0  0  0
   23.3509  -24.8646  -14.6853 C   0  0  0  0  0  0  0  0  0  0  0  0
   22.8174  -26.0103  -14.3993 N   0  0  0  0  0  0  0  0  0  0  0  0
   22.5237  -23.7665  -14.9806 N   0  0  0  0  0  0  0  0  0  0  0  0
   23.0259  -22.3880  -14.6857 C   0  0  0  0  0  0  0  0  0  0  0  0
   22.6602  -22.0037  -13.3133 C   0  0  0  0  0  0  0  0  0  0  0  0
   23.0141  -20.6980  -12.8169 C   0  0  0  0  0  0  0  0  0  0  0  0
   22.6759  -20.1691  -11.4867 C   0  0  2  0  0  0  0  0  0  0  0  0
   23.5533  -20.8532  -10.5030 N   0  0  0  0  0  0  0  0  0  0  0  0
   21.3335  -20.2386  -10.9558 C   0  0  0  0  0  0  0  0  0  0  0  0
   20.1898  -19.5642  -11.2835 O   0  0  0  0  0  0  0  0  0  0  0  0
   21.1415  -21.0845   -9.9833 O   0  0  0  0  0  0  0  0  0  0  0  0
  2  1  1  0
  2 12  2  0
  3  2  1  0
  4  3  2  0
  4  5  1  0
  5 11  2  0
  6  7  1  0
  6  5  1  0
  7  8  1  1
  9  7  1  0
  9 13  1  0
 10  9  2  0
 11 12  1  0
 14 25  1  0
 14 13  1  0
 14 15  1  1
 16 15  1  0
 16 24  1  0
 17 18  1  0
 17 16  2  0
 18 19  1  0
 19 24  2  0
 19 20  1  0
 20 21  2  0
 21 22  1  0
 23 22  2  0
 24 23  1  0
 25 26  2  0
 27 28  1  0
 28 29  2  0
 30 28  1  0
 30 31  1  0
 32 33  1  0
 32 31  1  0
 34 33  1  6
 34 36  1  0
 35 34  1  0
 35 25  1  0
 36 37  1  0
 38 36  2  0
M  END
$$$$
