HCC.pdb
     RDKit          3D

 23 23  0  0  1  0  0  0  0  0999 V2000
    8.2326  -17.6695   19.5154 N   0  0  0  0  0  0  0  0  0  0  0  0
    8.1828  -16.4594   20.2945 C   0  0  1  0  0  0  0  0  0  0  0  0
    7.0990  -15.5514   19.7418 C   0  0  0  0  0  0  0  0  0  0  0  0
    7.7454  -14.7003   18.6878 C   0  0  0  0  0  0  0  0  0  0  0  0
    9.0606  -14.7374   18.2698 C   0  0  0  0  0  0  0  0  0  0  0  0
    9.2173  -13.8077   17.3083 N   0  0  0  0  0  0  0  0  0  0  0  0
    8.0432  -13.1826   17.1037 C   0  0  0  0  0  0  0  0  0  0  0  0
    7.1588  -13.7320   17.9453 N   0  0  0  0  0  0  0  0  0  0  0  0
    7.9694  -16.7921   21.7065 C   0  0  0  0  0  0  0  0  0  0  0  0
    7.1102  -17.6336   22.1038 O   0  0  0  0  0  0  0  0  0  0  0  0
    8.7486  -16.1580   22.7132 N   0  0  0  0  0  0  0  0  0  0  0  0
    8.5806  -16.4481   24.1049 C   0  0  1  0  0  0  0  0  0  0  0  0
    9.5785  -17.5100   24.5837 C   0  0  0  0  0  0  0  0  0  0  0  0
    9.4575  -17.7075   26.3656 S   0  0  0  0  0  0  0  0  0  0  0  0
    8.8809  -15.2255   24.8903 C   0  0  0  0  0  0  0  0  0  0  0  0
    9.9941  -14.6866   24.7663 O   0  0  0  0  0  0  0  0  0  0  0  0
    7.9413  -14.6406   25.7853 N   0  0  0  0  0  0  0  0  0  0  0  0
    8.3089  -13.4668   26.5707 C   0  0  1  0  0  0  0  0  0  0  0  0
    7.1324  -12.4897   26.5024 C   0  0  0  0  0  0  0  0  0  0  0  0
    5.6455  -13.4159   26.9110 S   0  0  0  0  0  0  0  0  0  0  0  0
    8.4723  -13.9209   27.9772 C   0  0  0  0  0  0  0  0  0  0  0  0
    8.8746  -13.0679   28.8128 O   0  0  0  0  0  0  0  0  0  0  0  0
    8.2163  -15.1932   28.4170 O   0  0  0  0  0  0  0  0  0  0  0  0
  2  1  1  6
  2  3  1  0
  4  5  2  0
  4  3  1  0
  6  5  1  0
  7  8  2  0
  7  6  1  0
  8  4  1  0
  9  2  1  0
 10  9  2  0
 11  9  1  0
 12 11  1  0
 12 13  1  1
 14 13  1  0
 15 17  1  0
 15 12  1  0
 16 15  2  0
 18 19  1  1
 18 17  1  0
 19 20  1  0
 21 18  1  0
 21 23  1  0
 22 21  2  0
M  END
$$$$
