HCC.pdb
     RDKit          3D

 23 23  0  0  1  0  0  0  0  0999 V2000
    8.8356  -17.6684   21.1744 N   0  0  0  0  0  0  0  0  0  0  0  0
    9.2801  -16.3280   20.8923 C   0  0  1  0  0  0  0  0  0  0  0  0
    8.6482  -15.8524   19.5965 C   0  0  0  0  0  0  0  0  0  0  0  0
    9.4349  -16.4742   18.4795 C   0  0  0  0  0  0  0  0  0  0  0  0
   10.6079  -17.1952   18.5797 C   0  0  0  0  0  0  0  0  0  0  0  0
   10.9736  -17.5684   17.3385 N   0  0  0  0  0  0  0  0  0  0  0  0
   10.0695  -17.1066   16.4550 C   0  0  0  0  0  0  0  0  0  0  0  0
    9.1419  -16.4452   17.1580 N   0  0  0  0  0  0  0  0  0  0  0  0
    8.9595  -15.4550   22.0259 C   0  0  0  0  0  0  0  0  0  0  0  0
    9.3191  -14.2427   22.0977 O   0  0  0  0  0  0  0  0  0  0  0  0
    8.2067  -15.9590   23.1223 N   0  0  0  0  0  0  0  0  0  0  0  0
    7.9920  -15.1978   24.3155 C   0  0  1  0  0  0  0  0  0  0  0  0
    6.6478  -15.5418   24.9692 C   0  0  0  0  0  0  0  0  0  0  0  0
    6.3627  -14.4740   26.3861 S   0  0  0  0  0  0  0  0  0  0  0  0
    9.0317  -15.5602   25.3103 C   0  0  0  0  0  0  0  0  0  0  0  0
    9.7781  -16.5267   25.0784 O   0  0  0  0  0  0  0  0  0  0  0  0
    9.2108  -14.8427   26.5264 N   0  0  0  0  0  0  0  0  0  0  0  0
   10.2948  -15.1996   27.4359 C   0  0  1  0  0  0  0  0  0  0  0  0
   10.2216  -14.2401   28.6264 C   0  0  0  0  0  0  0  0  0  0  0  0
   11.9100  -13.7887   29.0521 S   0  0  0  0  0  0  0  0  0  0  0  0
   10.0199  -16.5798   27.9165 C   0  0  0  0  0  0  0  0  0  0  0  0
    8.8213  -16.9677   27.8933 O   0  0  0  0  0  0  0  0  0  0  0  0
   10.9763  -17.4461   28.3776 O   0  0  0  0  0  0  0  0  0  0  0  0
  2  1  1  1
  2  3  1  0
  4  5  2  0
  4  3  1  0
  6  5  1  0
  7  8  2  0
  7  6  1  0
  8  4  1  0
  9  2  1  0
 10  9  2  0
 11  9  1  0
 12 11  1  0
 12 13  1  1
 14 13  1  0
 15 17  1  0
 15 12  1  0
 16 15  2  0
 18 19  1  1
 18 17  1  0
 19 20  1  0
 21 18  1  0
 21 23  1  0
 22 21  2  0
M  END
$$$$
