HCC.pdb
     RDKit          3D

 23 23  0  0  1  0  0  0  0  0999 V2000
   10.3245  -16.7572   20.1085 N   0  0  0  0  0  0  0  0  0  0  0  0
   10.0492  -17.3468   21.3931 C   0  0  1  0  0  0  0  0  0  0  0  0
   11.1660  -18.3102   21.7524 C   0  0  0  0  0  0  0  0  0  0  0  0
   10.8423  -19.6145   21.0836 C   0  0  0  0  0  0  0  0  0  0  0  0
   11.3544  -20.0981   19.8963 C   0  0  0  0  0  0  0  0  0  0  0  0
   10.7971  -21.3017   19.6632 N   0  0  0  0  0  0  0  0  0  0  0  0
    9.9481  -21.5960   20.6651 C   0  0  0  0  0  0  0  0  0  0  0  0
    9.9839  -20.5663   21.5198 N   0  0  0  0  0  0  0  0  0  0  0  0
    9.8783  -16.2883   22.3934 C   0  0  0  0  0  0  0  0  0  0  0  0
   10.7039  -15.3419   22.5571 O   0  0  0  0  0  0  0  0  0  0  0  0
    8.7383  -16.2895   23.2438 N   0  0  0  0  0  0  0  0  0  0  0  0
    8.4826  -15.2369   24.1796 C   0  0  1  0  0  0  0  0  0  0  0  0
    7.0093  -15.2065   24.6050 C   0  0  0  0  0  0  0  0  0  0  0  0
    6.7080  -13.7953   25.6758 S   0  0  0  0  0  0  0  0  0  0  0  0
    9.2574  -15.4963   25.4183 C   0  0  0  0  0  0  0  0  0  0  0  0
    9.4136  -16.6696   25.7979 O   0  0  0  0  0  0  0  0  0  0  0  0
    9.8326  -14.4511   26.1945 N   0  0  0  0  0  0  0  0  0  0  0  0
   10.4487  -14.7486   27.4836 C   0  0  1  0  0  0  0  0  0  0  0  0
    9.9876  -13.6689   28.4659 C   0  0  0  0  0  0  0  0  0  0  0  0
   10.6756  -14.0832   30.0754 S   0  0  0  0  0  0  0  0  0  0  0  0
    9.9098  -16.0613   27.9283 C   0  0  0  0  0  0  0  0  0  0  0  0
    8.6854  -16.2780   27.7247 O   0  0  0  0  0  0  0  0  0  0  0  0
   10.6518  -17.0387   28.5382 O   0  0  0  0  0  0  0  0  0  0  0  0
  2  1  1  6
  2  3  1  0
  4  5  2  0
  4  3  1  0
  6  5  1  0
  7  8  2  0
  7  6  1  0
  8  4  1  0
  9  2  1  0
 10  9  2  0
 11  9  1  0
 12 11  1  0
 12 13  1  1
 14 13  1  0
 15 17  1  0
 15 12  1  0
 16 15  2  0
 18 19  1  1
 18 17  1  0
 19 20  1  0
 21 18  1  0
 21 23  1  0
 22 21  2  0
M  END
$$$$
