HCC.pdb
     RDKit          3D

 23 23  0  0  1  0  0  0  0  0999 V2000
   12.8352  -19.1389   16.0683 N   0  0  0  0  0  0  0  0  0  0  0  0
   12.9138  -20.1878   17.0519 C   0  0  1  0  0  0  0  0  0  0  0  0
   14.2945  -20.8170   17.0046 C   0  0  0  0  0  0  0  0  0  0  0  0
   14.4139  -21.4952   15.6708 C   0  0  0  0  0  0  0  0  0  0  0  0
   13.3940  -22.0188   14.9017 C   0  0  0  0  0  0  0  0  0  0  0  0
   13.9394  -22.5334   13.7831 N   0  0  0  0  0  0  0  0  0  0  0  0
   15.2724  -22.3524   13.8189 C   0  0  0  0  0  0  0  0  0  0  0  0
   15.5482  -21.7223   14.9674 N   0  0  0  0  0  0  0  0  0  0  0  0
   12.5895  -19.6461   18.3753 C   0  0  0  0  0  0  0  0  0  0  0  0
   12.8756  -18.4664   18.7366 O   0  0  0  0  0  0  0  0  0  0  0  0
   11.9186  -20.4570   19.3318 N   0  0  0  0  0  0  0  0  0  0  0  0
   11.5530  -19.9671   20.6263 C   0  0  1  0  0  0  0  0  0  0  0  0
   10.0310  -19.9561   20.8155 C   0  0  0  0  0  0  0  0  0  0  0  0
    9.3226  -21.4828   20.1859 S   0  0  0  0  0  0  0  0  0  0  0  0
   12.0837  -20.8925   21.6578 C   0  0  0  0  0  0  0  0  0  0  0  0
   12.6393  -21.9441   21.2968 O   0  0  0  0  0  0  0  0  0  0  0  0
   11.9821  -20.6241   23.0519 N   0  0  0  0  0  0  0  0  0  0  0  0
   12.9844  -21.1476   23.9745 C   0  0  1  0  0  0  0  0  0  0  0  0
   14.3143  -20.4729   23.6289 C   0  0  0  0  0  0  0  0  0  0  0  0
   15.5089  -20.9793   24.8749 S   0  0  0  0  0  0  0  0  0  0  0  0
   12.5760  -20.7275   25.3413 C   0  0  0  0  0  0  0  0  0  0  0  0
   12.0253  -19.6000   25.4549 O   0  0  0  0  0  0  0  0  0  0  0  0
   12.7586  -21.4802   26.4718 O   0  0  0  0  0  0  0  0  0  0  0  0
  2  1  1  6
  2  3  1  0
  4  5  2  0
  4  3  1  0
  6  5  1  0
  7  8  2  0
  7  6  1  0
  8  4  1  0
  9  2  1  0
 10  9  2  0
 11  9  1  0
 12 11  1  0
 12 13  1  6
 14 13  1  0
 15 17  1  0
 15 12  1  0
 16 15  2  0
 18 19  1  6
 18 17  1  0
 19 20  1  0
 21 18  1  0
 21 23  1  0
 22 21  2  0
M  END
$$$$
