HCC.pdb
     RDKit          3D

 23 23  0  0  1  0  0  0  0  0999 V2000
   10.4055  -17.2376   19.8586 N   0  0  0  0  0  0  0  0  0  0  0  0
   11.2274  -17.1980   21.0404 C   0  0  1  0  0  0  0  0  0  0  0  0
   12.5691  -16.5762   20.6975 C   0  0  0  0  0  0  0  0  0  0  0  0
   13.2436  -17.5099   19.7348 C   0  0  0  0  0  0  0  0  0  0  0  0
   13.5689  -18.8357   19.9406 C   0  0  0  0  0  0  0  0  0  0  0  0
   14.1605  -19.2966   18.8221 N   0  0  0  0  0  0  0  0  0  0  0  0
   14.2205  -18.3050   17.9142 C   0  0  0  0  0  0  0  0  0  0  0  0
   13.6619  -17.2273   18.4785 N   0  0  0  0  0  0  0  0  0  0  0  0
   10.5266  -16.4690   22.1023 C   0  0  0  0  0  0  0  0  0  0  0  0
   10.3377  -15.2168   22.0828 O   0  0  0  0  0  0  0  0  0  0  0  0
   10.0174  -17.1695   23.2304 N   0  0  0  0  0  0  0  0  0  0  0  0
    9.2880  -16.5122   24.2722 C   0  0  1  0  0  0  0  0  0  0  0  0
    8.0956  -17.3542   24.7431 C   0  0  0  0  0  0  0  0  0  0  0  0
    7.2019  -16.4841   26.0366 S   0  0  0  0  0  0  0  0  0  0  0  0
   10.1707  -16.3612   25.4553 C   0  0  0  0  0  0  0  0  0  0  0  0
   10.9571  -17.2798   25.7429 O   0  0  0  0  0  0  0  0  0  0  0  0
   10.1542  -15.2009   26.2796 N   0  0  0  0  0  0  0  0  0  0  0  0
   11.0538  -15.1017   27.4245 C   0  0  1  0  0  0  0  0  0  0  0  0
   10.8594  -13.7109   28.0338 C   0  0  0  0  0  0  0  0  0  0  0  0
    9.0877  -13.4280   28.1631 S   0  0  0  0  0  0  0  0  0  0  0  0
   10.6121  -16.1223   28.4117 C   0  0  0  0  0  0  0  0  0  0  0  0
    9.5270  -16.7175   28.1757 O   0  0  0  0  0  0  0  0  0  0  0  0
   11.3025  -16.4524   29.5485 O   0  0  0  0  0  0  0  0  0  0  0  0
  2  1  1  6
  2  3  1  0
  4  5  2  0
  4  3  1  0
  6  5  1  0
  7  8  2  0
  7  6  1  0
  8  4  1  0
  9  2  1  0
 10  9  2  0
 11  9  1  0
 12 11  1  0
 12 13  1  1
 14 13  1  0
 15 17  1  0
 15 12  1  0
 16 15  2  0
 18 19  1  1
 18 17  1  0
 19 20  1  0
 21 18  1  0
 21 23  1  0
 22 21  2  0
M  END
$$$$
