DGI.pdb
     RDKit          3D

 21 20  0  0  1  0  0  0  0  0999 V2000
   10.3060  -16.0438   18.6213 N   0  0  0  0  0  0  0  0  0  0  0  0
    9.2165  -16.9634   18.7122 C   0  0  1  0  0  0  0  0  0  0  0  0
    9.7232  -18.3545   18.9476 C   0  0  0  0  0  0  0  0  0  0  0  0
    8.5895  -19.3059   18.9084 C   0  0  0  0  0  0  0  0  0  0  0  0
    7.9727  -19.6298   17.8711 O   0  0  0  0  0  0  0  0  0  0  0  0
    8.2204  -16.5747   19.7465 C   0  0  0  0  0  0  0  0  0  0  0  0
    7.1119  -17.1462   19.7467 O   0  0  0  0  0  0  0  0  0  0  0  0
    8.1832  -19.8802   20.1184 O   0  0  0  0  0  0  0  0  0  0  0  0
    8.5500  -15.5729   20.6997 N   0  0  0  0  0  0  0  0  0  0  0  0
    7.6136  -15.1709   21.7266 C   0  0  0  0  0  0  0  0  0  0  0  0
    8.2517  -15.1227   23.0584 C   0  0  0  0  0  0  0  0  0  0  0  0
    9.4691  -15.4535   23.2424 O   0  0  0  0  0  0  0  0  0  0  0  0
    6.0565  -11.3441   26.1173 C   0  0  0  0  0  0  0  0  0  0  0  0
    6.9583  -12.2864   25.3628 C   0  0  0  0  0  0  0  0  0  0  0  0
    7.3578  -13.4409   26.2490 C   0  0  2  0  0  0  0  0  0  0  0  0
    8.0739  -12.9520   27.4670 C   0  0  0  0  0  0  0  0  0  0  0  0
    8.1781  -14.4354   25.4427 C   0  0  2  0  0  0  0  0  0  0  0  0
    7.5223  -14.7035   24.1799 N   0  0  0  0  0  0  0  0  0  0  0  0
    8.2305  -15.6882   26.2352 C   0  0  0  0  0  0  0  0  0  0  0  0
    7.2469  -16.4533   26.2925 O   0  0  0  0  0  0  0  0  0  0  0  0
    9.3808  -16.0258   26.9260 O   0  0  0  0  0  0  0  0  0  0  0  0
  2  1  1  1
  2  3  1  0
  3  4  1  0
  4  5  2  0
  4  8  1  0
  6  7  2  0
  6  2  1  0
  9  6  1  0
 10  9  1  0
 11 10  1  0
 11 18  1  0
 12 11  2  0
 13 14  1  0
 15 16  1  1
 15 14  1  0
 17 18  1  6
 17 15  1  0
 19 17  1  0
 20 19  2  0
 21 19  1  0
M  END
$$$$
