DGI.pdb
     RDKit          3D

 21 20  0  0  1  0  0  0  0  0999 V2000
    8.8952  -17.5600   18.8182 N   0  0  0  0  0  0  0  0  0  0  0  0
    9.5015  -18.2062   19.9389 C   0  0  1  0  0  0  0  0  0  0  0  0
   10.9636  -17.8818   20.0031 C   0  0  0  0  0  0  0  0  0  0  0  0
   11.7184  -18.8359   19.1594 C   0  0  0  0  0  0  0  0  0  0  0  0
   11.3882  -19.1724   18.0022 O   0  0  0  0  0  0  0  0  0  0  0  0
    8.8250  -17.8840   21.2240 C   0  0  0  0  0  0  0  0  0  0  0  0
    8.9186  -18.6984   22.1639 O   0  0  0  0  0  0  0  0  0  0  0  0
   12.8816  -19.3979   19.6982 O   0  0  0  0  0  0  0  0  0  0  0  0
    8.0961  -16.6701   21.3507 N   0  0  0  0  0  0  0  0  0  0  0  0
    7.3326  -16.3689   22.5420 C   0  0  0  0  0  0  0  0  0  0  0  0
    8.1535  -15.6740   23.5551 C   0  0  0  0  0  0  0  0  0  0  0  0
    9.4116  -15.5168   23.4208 O   0  0  0  0  0  0  0  0  0  0  0  0
    5.5814  -11.7704   26.0182 C   0  0  0  0  0  0  0  0  0  0  0  0
    6.6149  -12.6302   25.3378 C   0  0  0  0  0  0  0  0  0  0  0  0
    7.4223  -13.3816   26.3680 C   0  0  2  0  0  0  0  0  0  0  0  0
    8.1747  -12.4345   27.2466 C   0  0  0  0  0  0  0  0  0  0  0  0
    8.3285  -14.3817   25.6674 C   0  0  2  0  0  0  0  0  0  0  0  0
    7.5608  -15.1575   24.7159 N   0  0  0  0  0  0  0  0  0  0  0  0
    8.8558  -15.2885   26.7162 C   0  0  0  0  0  0  0  0  0  0  0  0
    8.1694  -16.2348   27.1512 O   0  0  0  0  0  0  0  0  0  0  0  0
   10.1261  -15.0935   27.2288 O   0  0  0  0  0  0  0  0  0  0  0  0
  2  1  1  6
  2  3  1  0
  3  4  1  0
  4  5  2  0
  4  8  1  0
  6  7  2  0
  6  2  1  0
  9  6  1  0
 10  9  1  0
 11 10  1  0
 11 18  1  0
 12 11  2  0
 13 14  1  0
 15 16  1  6
 15 14  1  0
 17 18  1  6
 17 15  1  0
 19 17  1  0
 20 19  2  0
 21 19  1  0
M  END
$$$$
