DGI.pdb
     RDKit          3D

 21 20  0  0  1  0  0  0  0  0999 V2000
    5.9815  -19.6204   20.0566 N   0  0  0  0  0  0  0  0  0  0  0  0
    6.8377  -18.5029   20.2995 C   0  0  1  0  0  0  0  0  0  0  0  0
    6.9559  -17.6559   19.0682 C   0  0  0  0  0  0  0  0  0  0  0  0
    7.8410  -18.3279   18.0900 C   0  0  0  0  0  0  0  0  0  0  0  0
    8.8727  -18.9656   18.3903 O   0  0  0  0  0  0  0  0  0  0  0  0
    6.4055  -17.6904   21.4682 C   0  0  0  0  0  0  0  0  0  0  0  0
    5.7515  -16.6495   21.2576 O   0  0  0  0  0  0  0  0  0  0  0  0
    7.4954  -18.2408   16.7365 O   0  0  0  0  0  0  0  0  0  0  0  0
    6.7432  -18.1131   22.7828 N   0  0  0  0  0  0  0  0  0  0  0  0
    6.3403  -17.3540   23.9466 C   0  0  0  0  0  0  0  0  0  0  0  0
    7.4137  -16.4484   24.4059 C   0  0  0  0  0  0  0  0  0  0  0  0
    8.5572  -16.4078   23.8436 O   0  0  0  0  0  0  0  0  0  0  0  0
    5.6489  -11.9141   26.5077 C   0  0  0  0  0  0  0  0  0  0  0  0
    6.5003  -12.8814   25.7268 C   0  0  0  0  0  0  0  0  0  0  0  0
    7.5670  -13.4685   26.6186 C   0  0  2  0  0  0  0  0  0  0  0  0
    8.5536  -12.4216   27.0258 C   0  0  0  0  0  0  0  0  0  0  0  0
    8.2176  -14.6499   25.9165 C   0  0  2  0  0  0  0  0  0  0  0  0
    7.2012  -15.5910   25.4946 N   0  0  0  0  0  0  0  0  0  0  0  0
    9.0997  -15.3061   26.9124 C   0  0  0  0  0  0  0  0  0  0  0  0
    8.6456  -16.1393   27.7219 O   0  0  0  0  0  0  0  0  0  0  0  0
   10.4481  -14.9989   26.9553 O   0  0  0  0  0  0  0  0  0  0  0  0
  2  1  1  6
  2  3  1  0
  3  4  1  0
  4  5  2  0
  4  8  1  0
  6  7  2  0
  6  2  1  0
  9  6  1  0
 10  9  1  0
 11 10  1  0
 11 18  1  0
 12 11  2  0
 13 14  1  0
 15 16  1  6
 15 14  1  0
 17 18  1  1
 17 15  1  0
 19 17  1  0
 20 19  2  0
 21 19  1  0
M  END
$$$$
