DGI.pdb
     RDKit          3D

 21 20  0  0  1  0  0  0  0  0999 V2000
    8.8759  -17.4647   18.8872 N   0  0  0  0  0  0  0  0  0  0  0  0
    9.0063  -18.4377   19.9251 C   0  0  1  0  0  0  0  0  0  0  0  0
   10.4445  -18.8188   20.1084 C   0  0  0  0  0  0  0  0  0  0  0  0
   11.0356  -19.1616   18.7950 C   0  0  0  0  0  0  0  0  0  0  0  0
   10.9579  -20.2862   18.2557 O   0  0  0  0  0  0  0  0  0  0  0  0
    8.4028  -17.9927   21.2099 C   0  0  0  0  0  0  0  0  0  0  0  0
    8.4505  -18.7665   22.1869 O   0  0  0  0  0  0  0  0  0  0  0  0
   11.7283  -18.1546   18.1132 O   0  0  0  0  0  0  0  0  0  0  0  0
    7.7928  -16.7115   21.2946 N   0  0  0  0  0  0  0  0  0  0  0  0
    7.1160  -16.2757   22.4966 C   0  0  0  0  0  0  0  0  0  0  0  0
    8.0459  -15.6200   23.4393 C   0  0  0  0  0  0  0  0  0  0  0  0
    9.3009  -15.5560   23.2239 O   0  0  0  0  0  0  0  0  0  0  0  0
    5.9062  -11.7503   26.8427 C   0  0  0  0  0  0  0  0  0  0  0  0
    6.4868  -13.0876   26.4620 C   0  0  0  0  0  0  0  0  0  0  0  0
    7.7995  -12.8957   25.7424 C   0  0  2  0  0  0  0  0  0  0  0  0
    7.6095  -12.0899   24.4976 C   0  0  0  0  0  0  0  0  0  0  0  0
    8.4313  -14.2527   25.4751 C   0  0  2  0  0  0  0  0  0  0  0  0
    7.5653  -15.0380   24.6207 N   0  0  0  0  0  0  0  0  0  0  0  0
    8.5584  -14.9312   26.7881 C   0  0  0  0  0  0  0  0  0  0  0  0
    9.3727  -14.5282   27.6428 O   0  0  0  0  0  0  0  0  0  0  0  0
    7.7685  -16.0283   27.0827 O   0  0  0  0  0  0  0  0  0  0  0  0
  2  1  1  6
  2  3  1  0
  3  4  1  0
  4  5  2  0
  4  8  1  0
  6  7  2  0
  6  2  1  0
  9  6  1  0
 10  9  1  0
 11 10  1  0
 11 18  1  0
 12 11  2  0
 13 14  1  0
 15 16  1  6
 15 14  1  0
 17 18  1  6
 17 15  1  0
 19 17  1  0
 20 19  2  0
 21 19  1  0
M  END
$$$$
