DGI.pdb
     RDKit          3D

 21 20  0  0  1  0  0  0  0  0999 V2000
    9.5356  -18.6345   19.8699 N   0  0  0  0  0  0  0  0  0  0  0  0
    9.4557  -17.2784   19.4275 C   0  0  1  0  0  0  0  0  0  0  0  0
    8.8428  -17.2083   18.0612 C   0  0  0  0  0  0  0  0  0  0  0  0
    9.8792  -17.4842   17.0405 C   0  0  0  0  0  0  0  0  0  0  0  0
   11.0818  -17.7083   17.2955 O   0  0  0  0  0  0  0  0  0  0  0  0
    8.7289  -16.4026   20.3854 C   0  0  0  0  0  0  0  0  0  0  0  0
    8.7477  -15.1704   20.1940 O   0  0  0  0  0  0  0  0  0  0  0  0
    9.4812  -17.4940   15.6987 O   0  0  0  0  0  0  0  0  0  0  0  0
    8.0377  -16.9824   21.4841 N   0  0  0  0  0  0  0  0  0  0  0  0
    7.2763  -16.1719   22.4095 C   0  0  0  0  0  0  0  0  0  0  0  0
    8.0954  -15.7452   23.5628 C   0  0  0  0  0  0  0  0  0  0  0  0
    9.3352  -16.0269   23.6588 O   0  0  0  0  0  0  0  0  0  0  0  0
    5.7494  -11.7591   26.3683 C   0  0  0  0  0  0  0  0  0  0  0  0
    6.8179  -12.4979   25.6048 C   0  0  0  0  0  0  0  0  0  0  0  0
    7.5045  -13.4933   26.5079 C   0  0  2  0  0  0  0  0  0  0  0  0
    8.3101  -12.7927   27.5546 C   0  0  0  0  0  0  0  0  0  0  0  0
    8.3356  -14.4487   25.6661 C   0  0  2  0  0  0  0  0  0  0  0  0
    7.5215  -15.0037   24.6051 N   0  0  0  0  0  0  0  0  0  0  0  0
    8.7688  -15.5453   26.5663 C   0  0  0  0  0  0  0  0  0  0  0  0
    8.0191  -16.5129   26.8064 O   0  0  0  0  0  0  0  0  0  0  0  0
   10.0202  -15.5073   27.1552 O   0  0  0  0  0  0  0  0  0  0  0  0
  2  1  1  1
  2  3  1  0
  3  4  1  0
  4  5  2  0
  4  8  1  0
  6  7  2  0
  6  2  1  0
  9  6  1  0
 10  9  1  0
 11 10  1  0
 11 18  1  0
 12 11  2  0
 13 14  1  0
 15 16  1  1
 15 14  1  0
 17 18  1  6
 17 15  1  0
 19 17  1  0
 20 19  2  0
 21 19  1  0
M  END
$$$$
