DGI.pdb
     RDKit          3D

 21 20  0  0  1  0  0  0  0  0999 V2000
    8.6652  -19.0110   19.9664 N   0  0  0  0  0  0  0  0  0  0  0  0
    8.9714  -17.6472   19.6714 C   0  0  1  0  0  0  0  0  0  0  0  0
    8.5425  -17.3036   18.2767 C   0  0  0  0  0  0  0  0  0  0  0  0
    9.5495  -17.8037   17.3134 C   0  0  0  0  0  0  0  0  0  0  0  0
   10.7808  -17.8278   17.5251 O   0  0  0  0  0  0  0  0  0  0  0  0
    8.3879  -16.7000   20.6591 C   0  0  0  0  0  0  0  0  0  0  0  0
    8.7017  -15.4954   20.5825 O   0  0  0  0  0  0  0  0  0  0  0  0
    9.0871  -18.2816   16.0819 O   0  0  0  0  0  0  0  0  0  0  0  0
    7.4968  -17.1829   21.6559 N   0  0  0  0  0  0  0  0  0  0  0  0
    6.8208  -16.2825   22.5643 C   0  0  0  0  0  0  0  0  0  0  0  0
    7.7323  -15.7790   23.6127 C   0  0  0  0  0  0  0  0  0  0  0  0
    8.9179  -16.2255   23.7559 O   0  0  0  0  0  0  0  0  0  0  0  0
    5.9078  -11.9905   27.5051 C   0  0  0  0  0  0  0  0  0  0  0  0
    6.3422  -13.1861   26.6976 C   0  0  0  0  0  0  0  0  0  0  0  0
    7.6415  -12.8879   25.9898 C   0  0  2  0  0  0  0  0  0  0  0  0
    7.4431  -11.8519   24.9303 C   0  0  0  0  0  0  0  0  0  0  0  0
    8.2284  -14.1812   25.4466 C   0  0  2  0  0  0  0  0  0  0  0  0
    7.3112  -14.7763   24.4973 N   0  0  0  0  0  0  0  0  0  0  0  0
    8.3881  -15.0968   26.6028 C   0  0  0  0  0  0  0  0  0  0  0  0
    7.6073  -16.0539   26.7764 O   0  0  0  0  0  0  0  0  0  0  0  0
    9.4139  -14.8982   27.5098 O   0  0  0  0  0  0  0  0  0  0  0  0
  2  1  1  1
  2  3  1  0
  3  4  1  0
  4  5  2  0
  4  8  1  0
  6  7  2  0
  6  2  1  0
  9  6  1  0
 10  9  1  0
 11 10  1  0
 11 18  1  0
 12 11  2  0
 13 14  1  0
 15 16  1  6
 15 14  1  0
 17 18  1  6
 17 15  1  0
 19 17  1  0
 20 19  2  0
 21 19  1  0
M  END
$$$$
