DGI.pdb
     RDKit          3D

 21 20  0  0  1  0  0  0  0  0999 V2000
    9.8281  -16.8890   18.8069 N   0  0  0  0  0  0  0  0  0  0  0  0
    9.8008  -17.8414   19.8715 C   0  0  1  0  0  0  0  0  0  0  0  0
   11.1843  -18.0795   20.3973 C   0  0  0  0  0  0  0  0  0  0  0  0
   11.9823  -18.7991   19.3788 C   0  0  0  0  0  0  0  0  0  0  0  0
   11.7135  -19.9398   18.9452 O   0  0  0  0  0  0  0  0  0  0  0  0
    8.8716  -17.4534   20.9666 C   0  0  0  0  0  0  0  0  0  0  0  0
    8.6568  -18.2743   21.8806 O   0  0  0  0  0  0  0  0  0  0  0  0
   13.1151  -18.1545   18.8687 O   0  0  0  0  0  0  0  0  0  0  0  0
    8.2570  -16.1717   20.9472 N   0  0  0  0  0  0  0  0  0  0  0  0
    7.4116  -15.7236   22.0322 C   0  0  0  0  0  0  0  0  0  0  0  0
    8.2065  -15.2811   23.1965 C   0  0  0  0  0  0  0  0  0  0  0  0
    9.4783  -15.3670   23.2248 O   0  0  0  0  0  0  0  0  0  0  0  0
    5.8964  -11.3387   25.9978 C   0  0  0  0  0  0  0  0  0  0  0  0
    6.8501  -12.2387   25.2556 C   0  0  0  0  0  0  0  0  0  0  0  0
    7.4904  -13.2150   26.2120 C   0  0  2  0  0  0  0  0  0  0  0  0
    8.2665  -12.4934   27.2666 C   0  0  0  0  0  0  0  0  0  0  0  0
    8.3391  -14.2048   25.4295 C   0  0  2  0  0  0  0  0  0  0  0  0
    7.5726  -14.7437   24.3256 N   0  0  0  0  0  0  0  0  0  0  0  0
    8.6813  -15.3058   26.3628 C   0  0  0  0  0  0  0  0  0  0  0  0
    7.8729  -16.2276   26.5922 O   0  0  0  0  0  0  0  0  0  0  0  0
    9.9118  -15.3233   26.9951 O   0  0  0  0  0  0  0  0  0  0  0  0
  2  1  1  6
  2  3  1  0
  3  4  1  0
  4  5  2  0
  4  8  1  0
  6  7  2  0
  6  2  1  0
  9  6  1  0
 10  9  1  0
 11 10  1  0
 11 18  1  0
 12 11  2  0
 13 14  1  0
 15 16  1  1
 15 14  1  0
 17 18  1  6
 17 15  1  0
 19 17  1  0
 20 19  2  0
 21 19  1  0
M  END
$$$$
