MCP.pdb
     RDKit          3D

 22 22  0  0  1  0  0  0  0  0999 V2000
   27.8931  -10.6416  -16.0237 C   0  0  0  0  0  0  0  0  0  0  0  0
   27.3598  -12.3734  -16.0178 S   0  0  0  0  0  0  0  0  0  0  0  0
   25.5650  -12.5026  -15.8152 C   0  0  0  0  0  0  0  0  0  0  0  0
   24.8585  -11.2546  -16.3290 C   0  0  0  0  0  0  0  0  0  0  0  0
   23.3771  -11.5310  -16.2293 C   0  0  2  0  0  0  0  0  0  0  0  0
   23.0559  -12.4826  -17.2714 N   0  0  0  0  0  0  0  0  0  0  0  0
   22.5497  -10.3370  -16.3850 C   0  0  0  0  0  0  0  0  0  0  0  0
   22.6201   -9.6943  -17.4648 O   0  0  0  0  0  0  0  0  0  0  0  0
   21.6657   -9.8264  -15.4281 N   0  0  0  0  0  0  0  0  0  0  0  0
   20.9029   -8.6194  -15.6514 C   0  0  1  0  0  0  0  0  0  0  0  0
   19.5269   -8.7065  -15.0507 C   0  0  0  0  0  0  0  0  0  0  0  0
   18.6659  -10.2004  -15.6907 S   0  0  0  0  0  0  0  0  0  0  0  0
   21.5920   -7.4398  -15.0853 C   0  0  0  0  0  0  0  0  0  0  0  0
   22.4362   -7.6925  -14.1549 O   0  0  0  0  0  0  0  0  0  0  0  0
   21.3509   -6.1336  -15.5266 N   0  0  0  0  0  0  0  0  0  0  0  0
   20.4547   -5.6366  -16.5255 C   0  0  0  0  0  0  0  0  0  0  0  0
   21.1539   -4.3945  -17.1129 C   0  0  0  0  0  0  0  0  0  0  0  0
   22.4199   -4.2599  -16.2961 C   0  0  0  0  0  0  0  0  0  0  0  0
   22.0329   -4.9565  -15.0083 C   0  0  1  0  0  0  0  0  0  0  0  0
   21.1432   -4.0565  -14.2535 C   0  0  0  0  0  0  0  0  0  0  0  0
   19.9007   -4.2777  -14.3302 O   0  0  0  0  0  0  0  0  0  0  0  0
   21.5321   -2.9965  -13.4718 O   0  0  0  0  0  0  0  0  0  0  0  0
  2  1  1  0
  3  4  1  0
  3  2  1  0
  4  5  1  0
  5  7  1  0
  5  6  1  6
  7  8  2  0
  9  7  1  0
  9 10  1  0
 10 13  1  0
 10 11  1  1
 12 11  1  0
 13 14  2  0
 13 15  1  0
 15 16  1  0
 16 17  1  0
 18 17  1  0
 19 15  1  0
 19 18  1  0
 19 20  1  1
 21 20  2  0
 22 20  1  0
M  END
$$$$
