MCP.pdb
     RDKit          3D

 22 22  0  0  1  0  0  0  0  0999 V2000
   32.1512  -30.4645  -18.5080 C   0  0  0  0  0  0  0  0  0  0  0  0
   31.1668  -31.9040  -18.0156 S   0  0  0  0  0  0  0  0  0  0  0  0
   29.6229  -31.3963  -17.2169 C   0  0  0  0  0  0  0  0  0  0  0  0
   29.0288  -30.1667  -17.8919 C   0  0  0  0  0  0  0  0  0  0  0  0
   27.8870  -29.7086  -17.0158 C   0  0  2  0  0  0  0  0  0  0  0  0
   26.8597  -30.7247  -17.0985 N   0  0  0  0  0  0  0  0  0  0  0  0
   27.3307  -28.4170  -17.4114 C   0  0  0  0  0  0  0  0  0  0  0  0
   26.6418  -28.3565  -18.4630 O   0  0  0  0  0  0  0  0  0  0  0  0
   27.4929  -27.2120  -16.7189 N   0  0  0  0  0  0  0  0  0  0  0  0
   27.0650  -25.9453  -17.2675 C   0  0  1  0  0  0  0  0  0  0  0  0
   26.0629  -25.2597  -16.3800 C   0  0  0  0  0  0  0  0  0  0  0  0
   24.6371  -26.3809  -16.0756 S   0  0  0  0  0  0  0  0  0  0  0  0
   28.2138  -25.0371  -17.4729 C   0  0  0  0  0  0  0  0  0  0  0  0
   29.1873  -25.1909  -16.6540 O   0  0  0  0  0  0  0  0  0  0  0  0
   28.2499  -24.0740  -18.4880 N   0  0  0  0  0  0  0  0  0  0  0  0
   27.2578  -23.6889  -19.4447 C   0  0  0  0  0  0  0  0  0  0  0  0
   28.0493  -23.2584  -20.6957 C   0  0  0  0  0  0  0  0  0  0  0  0
   29.4982  -23.3830  -20.2797 C   0  0  0  0  0  0  0  0  0  0  0  0
   29.4024  -23.2324  -18.7758 C   0  0  1  0  0  0  0  0  0  0  0  0
   29.1701  -21.8087  -18.4747 C   0  0  0  0  0  0  0  0  0  0  0  0
   27.9857  -21.4649  -18.1964 O   0  0  0  0  0  0  0  0  0  0  0  0
   30.1172  -20.8144  -18.4668 O   0  0  0  0  0  0  0  0  0  0  0  0
  2  1  1  0
  3  4  1  0
  3  2  1  0
  4  5  1  0
  5  7  1  0
  5  6  1  6
  7  8  2  0
  9  7  1  0
  9 10  1  0
 10 13  1  0
 10 11  1  1
 12 11  1  0
 13 14  2  0
 13 15  1  0
 15 16  1  0
 16 17  1  0
 18 17  1  0
 19 15  1  0
 19 18  1  0
 19 20  1  6
 21 20  2  0
 22 20  1  0
M  END
$$$$
