MCP.pdb
     RDKit          3D

 22 22  0  0  1  0  0  0  0  0999 V2000
   29.2011  -11.0043  -16.7329 C   0  0  0  0  0  0  0  0  0  0  0  0
   28.9034  -12.7726  -16.4714 S   0  0  0  0  0  0  0  0  0  0  0  0
   27.2122  -13.0716  -15.8973 C   0  0  0  0  0  0  0  0  0  0  0  0
   26.2628  -11.9830  -16.3811 C   0  0  0  0  0  0  0  0  0  0  0  0
   24.9010  -12.3263  -15.8255 C   0  0  2  0  0  0  0  0  0  0  0  0
   24.5291  -13.6079  -16.3860 N   0  0  0  0  0  0  0  0  0  0  0  0
   23.8749  -11.3365  -16.1445 C   0  0  0  0  0  0  0  0  0  0  0  0
   23.3563  -11.3573  -17.2910 O   0  0  0  0  0  0  0  0  0  0  0  0
   23.4013  -10.3443  -15.2791 N   0  0  0  0  0  0  0  0  0  0  0  0
   22.4475   -9.3446  -15.7028 C   0  0  1  0  0  0  0  0  0  0  0  0
   21.0427   -9.7057  -15.3054 C   0  0  0  0  0  0  0  0  0  0  0  0
   21.0239  -10.2895  -13.5614 S   0  0  0  0  0  0  0  0  0  0  0  0
   22.7742   -8.0196  -15.1330 C   0  0  0  0  0  0  0  0  0  0  0  0
   23.5716   -8.0359  -14.1300 O   0  0  0  0  0  0  0  0  0  0  0  0
   22.2579   -6.8234  -15.6447 N   0  0  0  0  0  0  0  0  0  0  0  0
   21.3065   -6.5881  -16.6873 C   0  0  0  0  0  0  0  0  0  0  0  0
   21.7250   -5.2460  -17.3201 C   0  0  0  0  0  0  0  0  0  0  0  0
   22.8992   -4.7905  -16.4824 C   0  0  0  0  0  0  0  0  0  0  0  0
   22.6372   -5.5003  -15.1705 C   0  0  1  0  0  0  0  0  0  0  0  0
   21.5417   -4.7951  -14.4822 C   0  0  0  0  0  0  0  0  0  0  0  0
   21.8218   -3.6895  -13.9366 O   0  0  0  0  0  0  0  0  0  0  0  0
   20.2410   -5.2223  -14.3742 O   0  0  0  0  0  0  0  0  0  0  0  0
  2  1  1  0
  3  4  1  0
  3  2  1  0
  4  5  1  0
  5  7  1  0
  5  6  1  6
  7  8  2  0
  9  7  1  0
  9 10  1  0
 10 13  1  0
 10 11  1  1
 12 11  1  0
 13 14  2  0
 13 15  1  0
 15 16  1  0
 16 17  1  0
 18 17  1  0
 19 15  1  0
 19 18  1  0
 19 20  1  6
 21 20  2  0
 22 20  1  0
M  END
$$$$
