MCP.pdb
     RDKit          3D

 22 22  0  0  1  0  0  0  0  0999 V2000
   14.6855  -10.1118  -18.9772 C   0  0  0  0  0  0  0  0  0  0  0  0
   15.8915  -10.1516  -20.3291 S   0  0  0  0  0  0  0  0  0  0  0  0
   17.3353  -11.1507  -19.8862 C   0  0  0  0  0  0  0  0  0  0  0  0
   17.6651  -11.0209  -18.4047 C   0  0  0  0  0  0  0  0  0  0  0  0
   18.8977  -11.8604  -18.1665 C   0  0  2  0  0  0  0  0  0  0  0  0
   18.4408  -13.1828  -17.7962 N   0  0  0  0  0  0  0  0  0  0  0  0
   19.7689  -11.3326  -17.1192 C   0  0  0  0  0  0  0  0  0  0  0  0
   19.5351  -11.6540  -15.9251 O   0  0  0  0  0  0  0  0  0  0  0  0
   20.8637  -10.4845  -17.3190 N   0  0  0  0  0  0  0  0  0  0  0  0
   21.6420   -9.9604  -16.2199 C   0  0  1  0  0  0  0  0  0  0  0  0
   23.1183  -10.1454  -16.4397 C   0  0  0  0  0  0  0  0  0  0  0  0
   24.0409   -9.5774  -14.9535 S   0  0  0  0  0  0  0  0  0  0  0  0
   21.3717   -8.5213  -16.0127 C   0  0  0  0  0  0  0  0  0  0  0  0
   21.1914   -7.8381  -17.0817 O   0  0  0  0  0  0  0  0  0  0  0  0
   21.3116   -7.9337  -14.7437 N   0  0  0  0  0  0  0  0  0  0  0  0
   21.5265   -8.4943  -13.4447 C   0  0  0  0  0  0  0  0  0  0  0  0
   20.5945   -7.7037  -12.5049 C   0  0  0  0  0  0  0  0  0  0  0  0
   19.9559   -6.6664  -13.4015 C   0  0  0  0  0  0  0  0  0  0  0  0
   20.9849   -6.5353  -14.5049 C   0  0  1  0  0  0  0  0  0  0  0  0
   22.1198   -5.7565  -13.9789 C   0  0  0  0  0  0  0  0  0  0  0  0
   23.1688   -6.3967  -13.6816 O   0  0  0  0  0  0  0  0  0  0  0  0
   22.1505   -4.3983  -13.7785 O   0  0  0  0  0  0  0  0  0  0  0  0
  2  1  1  0
  3  4  1  0
  3  2  1  0
  4  5  1  0
  5  7  1  0
  5  6  1  1
  7  8  2  0
  9  7  1  0
  9 10  1  0
 10 13  1  0
 10 11  1  6
 12 11  1  0
 13 14  2  0
 13 15  1  0
 15 16  1  0
 16 17  1  0
 18 17  1  0
 19 15  1  0
 19 18  1  0
 19 20  1  1
 21 20  2  0
 22 20  1  0
M  END
$$$$
