MCP.pdb
     RDKit          3D

 22 22  0  0  1  0  0  0  0  0999 V2000
   15.3700  -14.0726  -16.9557 C   0  0  0  0  0  0  0  0  0  0  0  0
   15.2765  -12.2775  -17.1851 S   0  0  0  0  0  0  0  0  0  0  0  0
   16.9018  -11.5073  -16.9743 C   0  0  0  0  0  0  0  0  0  0  0  0
   17.2361  -11.3144  -15.5007 C   0  0  0  0  0  0  0  0  0  0  0  0
   18.6105  -10.6901  -15.4528 C   0  0  2  0  0  0  0  0  0  0  0  0
   19.5611  -11.7749  -15.3336 N   0  0  0  0  0  0  0  0  0  0  0  0
   18.7891   -9.7586  -14.3416 C   0  0  0  0  0  0  0  0  0  0  0  0
   18.5156  -10.1524  -13.1780 O   0  0  0  0  0  0  0  0  0  0  0  0
   19.2455   -8.4402  -14.4474 N   0  0  0  0  0  0  0  0  0  0  0  0
   19.3764   -7.5763  -13.2963 C   0  0  1  0  0  0  0  0  0  0  0  0
   20.6058   -6.7139  -13.3792 C   0  0  0  0  0  0  0  0  0  0  0  0
   22.1074   -7.7759  -13.3804 S   0  0  0  0  0  0  0  0  0  0  0  0
   18.1939   -6.7006  -13.1486 C   0  0  0  0  0  0  0  0  0  0  0  0
   17.4563   -6.5954  -14.1912 O   0  0  0  0  0  0  0  0  0  0  0  0
   17.8882   -6.0295  -11.9589 N   0  0  0  0  0  0  0  0  0  0  0  0
   18.5805   -5.9869  -10.7073 C   0  0  0  0  0  0  0  0  0  0  0  0
   17.4780   -5.8253   -9.6417 C   0  0  0  0  0  0  0  0  0  0  0  0
   16.1999   -5.7167  -10.4433 C   0  0  0  0  0  0  0  0  0  0  0  0
   16.7102   -5.1953  -11.7704 C   0  0  1  0  0  0  0  0  0  0  0  0
   17.0319   -3.7668  -11.6050 C   0  0  0  0  0  0  0  0  0  0  0  0
   18.2499   -3.4652  -11.4497 O   0  0  0  0  0  0  0  0  0  0  0  0
   16.1354   -2.7265  -11.6026 O   0  0  0  0  0  0  0  0  0  0  0  0
  2  1  1  0
  3  4  1  0
  3  2  1  0
  4  5  1  0
  5  7  1  0
  5  6  1  1
  7  8  2  0
  9  7  1  0
  9 10  1  0
 10 13  1  0
 10 11  1  6
 12 11  1  0
 13 14  2  0
 13 15  1  0
 15 16  1  0
 16 17  1  0
 18 17  1  0
 19 15  1  0
 19 18  1  0
 19 20  1  1
 21 20  2  0
 22 20  1  0
M  END
$$$$
