FNM.pdb
     RDKit          3D

 28 28  0  0  1  0  0  0  0  0999 V2000
    6.2993  -16.8857   24.8412 N   0  0  0  0  0  0  0  0  0  0  0  0
    6.2839  -16.2967   23.5343 C   0  0  1  0  0  0  0  0  0  0  0  0
    5.8571  -14.8530   23.6862 C   0  0  0  0  0  0  0  0  0  0  0  0
    6.3783  -14.1921   24.8835 C   0  0  0  0  0  0  0  0  0  0  0  0
    6.8227  -14.9399   25.9698 C   0  0  0  0  0  0  0  0  0  0  0  0
    7.3076  -14.3084   27.0893 C   0  0  0  0  0  0  0  0  0  0  0  0
    7.3758  -12.9322   27.1893 C   0  0  0  0  0  0  0  0  0  0  0  0
    6.9391  -12.1898   26.1207 C   0  0  0  0  0  0  0  0  0  0  0  0
    6.4480  -12.8268   24.9861 C   0  0  0  0  0  0  0  0  0  0  0  0
    7.5900  -16.4170   22.8450 C   0  0  0  0  0  0  0  0  0  0  0  0
    7.9830  -17.5942   22.5363 O   0  0  0  0  0  0  0  0  0  0  0  0
    8.1678  -12.9848   19.8593 N   0  0  0  0  0  0  0  0  0  0  0  0
    8.8215  -14.2239   19.9588 C   0  0  0  0  0  0  0  0  0  0  0  0
    8.3359  -15.1631   19.2522 O   0  0  0  0  0  0  0  0  0  0  0  0
    9.9847  -14.5578   20.7722 C   0  0  0  0  0  0  0  0  0  0  0  0
    9.6831  -15.5842   21.8761 C   0  0  2  0  0  0  0  0  0  0  0  0
    8.4287  -15.3421   22.5044 N   0  0  0  0  0  0  0  0  0  0  0  0
   10.8224  -15.6683   22.8017 C   0  0  0  0  0  0  0  0  0  0  0  0
   11.7033  -14.7534   22.7962 O   0  0  0  0  0  0  0  0  0  0  0  0
   10.7693  -14.1406   29.3467 C   0  0  0  0  0  0  0  0  0  0  0  0
   10.0897  -13.9761   27.6573 S   0  0  0  0  0  0  0  0  0  0  0  0
    9.5186  -15.5577   27.0045 C   0  0  0  0  0  0  0  0  0  0  0  0
    9.7402  -15.7935   25.5625 C   0  0  0  0  0  0  0  0  0  0  0  0
   10.9302  -16.5427   25.1891 C   0  0  2  0  0  0  0  0  0  0  0  0
   11.0347  -16.7068   23.7293 N   0  0  0  0  0  0  0  0  0  0  0  0
   11.1490  -17.8082   25.8653 C   0  0  0  0  0  0  0  0  0  0  0  0
   11.7852  -17.8820   26.9362 O   0  0  0  0  0  0  0  0  0  0  0  0
   10.6520  -19.0007   25.3407 O   0  0  0  0  0  0  0  0  0  0  0  0
  2  1  1  1
  2  3  1  0
  3  4  1  0
  4  5  2  0
  5  6  1  0
  7  6  2  0
  8  7  1  0
  9  8  2  0
  9  4  1  0
 10 11  2  0
 10  2  1  0
 13 15  1  0
 13 12  1  0
 14 13  2  0
 16 15  1  6
 16 17  1  0
 17 10  1  0
 18 16  1  0
 18 25  1  0
 19 18  2  0
 21 20  1  0
 22 21  1  0
 23 22  1  0
 24 23  1  6
 24 25  1  0
 26 28  1  0
 26 24  1  0
 27 26  2  0
M  END
$$$$
