FNM.pdb
     RDKit          3D

 28 28  0  0  1  0  0  0  0  0999 V2000
    6.3343  -18.0003   21.5026 N   0  0  0  0  0  0  0  0  0  0  0  0
    7.0714  -16.9492   22.1403 C   0  0  1  0  0  0  0  0  0  0  0  0
    6.3530  -16.5984   23.4250 C   0  0  0  0  0  0  0  0  0  0  0  0
    6.7741  -15.3321   24.0258 C   0  0  0  0  0  0  0  0  0  0  0  0
    6.4786  -15.0449   25.3551 C   0  0  0  0  0  0  0  0  0  0  0  0
    6.8769  -13.8518   25.9076 C   0  0  0  0  0  0  0  0  0  0  0  0
    7.5737  -12.9009   25.1873 C   0  0  0  0  0  0  0  0  0  0  0  0
    7.8680  -13.1792   23.8759 C   0  0  0  0  0  0  0  0  0  0  0  0
    7.4661  -14.3864   23.3144 C   0  0  0  0  0  0  0  0  0  0  0  0
    8.4863  -17.3174   22.3815 C   0  0  0  0  0  0  0  0  0  0  0  0
    8.7107  -18.4439   22.9438 O   0  0  0  0  0  0  0  0  0  0  0  0
   12.3576  -17.2723   19.2727 N   0  0  0  0  0  0  0  0  0  0  0  0
   11.8393  -16.2870   20.1290 C   0  0  0  0  0  0  0  0  0  0  0  0
   11.1601  -15.3695   19.5685 O   0  0  0  0  0  0  0  0  0  0  0  0
   11.9875  -16.1932   21.5765 C   0  0  0  0  0  0  0  0  0  0  0  0
   10.9142  -16.9743   22.3518 C   0  0  2  0  0  0  0  0  0  0  0  0
    9.5984  -16.5282   22.0417 N   0  0  0  0  0  0  0  0  0  0  0  0
   11.2365  -16.9720   23.7864 C   0  0  0  0  0  0  0  0  0  0  0  0
   12.2652  -17.5923   24.1986 O   0  0  0  0  0  0  0  0  0  0  0  0
    9.4752  -12.4306   28.4822 C   0  0  0  0  0  0  0  0  0  0  0  0
    9.3638  -14.0454   29.3325 S   0  0  0  0  0  0  0  0  0  0  0  0
   10.2361  -15.3421   28.4316 C   0  0  0  0  0  0  0  0  0  0  0  0
   10.0809  -15.3414   26.9619 C   0  0  0  0  0  0  0  0  0  0  0  0
   10.8063  -16.3603   26.2187 C   0  0  2  0  0  0  0  0  0  0  0  0
   10.4835  -16.3204   24.7825 N   0  0  0  0  0  0  0  0  0  0  0  0
   10.7334  -17.7189   26.7241 C   0  0  0  0  0  0  0  0  0  0  0  0
    9.8915  -18.5360   26.2991 O   0  0  0  0  0  0  0  0  0  0  0  0
   11.6090  -18.1682   27.7119 O   0  0  0  0  0  0  0  0  0  0  0  0
  2  1  1  1
  2  3  1  0
  3  4  1  0
  4  5  2  0
  5  6  1  0
  7  6  2  0
  8  7  1  0
  9  8  2  0
  9  4  1  0
 10 11  2  0
 10  2  1  0
 13 15  1  0
 13 12  1  0
 14 13  2  0
 16 15  1  6
 16 17  1  0
 17 10  1  0
 18 16  1  0
 18 25  1  0
 19 18  2  0
 21 20  1  0
 22 21  1  0
 23 22  1  0
 24 23  1  1
 24 25  1  0
 26 28  1  0
 26 24  1  0
 27 26  2  0
M  END
$$$$
