FNM.pdb
     RDKit          3D

 28 28  0  0  1  0  0  0  0  0999 V2000
    8.1430  -15.6699   24.3549 N   0  0  0  0  0  0  0  0  0  0  0  0
    7.4405  -16.6938   23.6386 C   0  0  1  0  0  0  0  0  0  0  0  0
    6.5740  -16.0156   22.6000 C   0  0  0  0  0  0  0  0  0  0  0  0
    7.1240  -14.7634   22.0791 C   0  0  0  0  0  0  0  0  0  0  0  0
    7.5093  -14.6583   20.7459 C   0  0  0  0  0  0  0  0  0  0  0  0
    8.0267  -13.4785   20.2688 C   0  0  0  0  0  0  0  0  0  0  0  0
    8.1863  -12.3648   21.0704 C   0  0  0  0  0  0  0  0  0  0  0  0
    7.8076  -12.4628   22.3861 C   0  0  0  0  0  0  0  0  0  0  0  0
    7.2834  -13.6560   22.8714 C   0  0  0  0  0  0  0  0  0  0  0  0
    8.3560  -17.6876   23.0306 C   0  0  0  0  0  0  0  0  0  0  0  0
    8.0400  -18.1480   21.8801 O   0  0  0  0  0  0  0  0  0  0  0  0
   12.3689  -16.3231   20.7534 N   0  0  0  0  0  0  0  0  0  0  0  0
   11.9195  -15.9062   22.0170 C   0  0  0  0  0  0  0  0  0  0  0  0
   12.7355  -15.1979   22.6877 O   0  0  0  0  0  0  0  0  0  0  0  0
   10.6348  -16.1882   22.6464 C   0  0  0  0  0  0  0  0  0  0  0  0
   10.6958  -17.3315   23.6723 C   0  0  2  0  0  0  0  0  0  0  0  0
    9.5414  -18.1628   23.6171 N   0  0  0  0  0  0  0  0  0  0  0  0
   10.9924  -16.7878   25.0058 C   0  0  0  0  0  0  0  0  0  0  0  0
   12.1537  -16.9346   25.4984 O   0  0  0  0  0  0  0  0  0  0  0  0
    6.2403  -11.8877   25.6888 C   0  0  0  0  0  0  0  0  0  0  0  0
    7.9385  -11.9857   26.3593 S   0  0  0  0  0  0  0  0  0  0  0  0
    8.6129  -13.6547   26.2427 C   0  0  0  0  0  0  0  0  0  0  0  0
   10.0098  -13.8331   26.6907 C   0  0  0  0  0  0  0  0  0  0  0  0
   10.4628  -15.1966   26.9198 C   0  0  2  0  0  0  0  0  0  0  0  0
   10.0748  -16.0920   25.8169 N   0  0  0  0  0  0  0  0  0  0  0  0
   10.1359  -15.7906   28.2031 C   0  0  0  0  0  0  0  0  0  0  0  0
   10.4250  -15.2321   29.2808 O   0  0  0  0  0  0  0  0  0  0  0  0
    9.4799  -17.0185   28.2824 O   0  0  0  0  0  0  0  0  0  0  0  0
  2  1  1  6
  2  3  1  0
  3  4  1  0
  4  5  2  0
  5  6  1  0
  7  6  2  0
  8  7  1  0
  9  8  2  0
  9  4  1  0
 10 11  2  0
 10  2  1  0
 13 15  1  0
 13 12  1  0
 14 13  2  0
 16 15  1  6
 16 17  1  0
 17 10  1  0
 18 16  1  0
 18 25  1  0
 19 18  2  0
 21 20  1  0
 22 21  1  0
 23 22  1  0
 24 23  1  6
 24 25  1  0
 26 28  1  0
 26 24  1  0
 27 26  2  0
M  END
$$$$
