FNM.pdb
     RDKit          3D

 28 28  0  0  1  0  0  0  0  0999 V2000
    6.5200  -18.9660   22.2766 N   0  0  0  0  0  0  0  0  0  0  0  0
    7.1448  -17.6867   22.1091 C   0  0  1  0  0  0  0  0  0  0  0  0
    6.1570  -16.6311   22.5557 C   0  0  0  0  0  0  0  0  0  0  0  0
    6.5960  -15.2551   22.3198 C   0  0  0  0  0  0  0  0  0  0  0  0
    6.8236  -14.7951   21.0262 C   0  0  0  0  0  0  0  0  0  0  0  0
    7.2379  -13.5020   20.8173 C   0  0  0  0  0  0  0  0  0  0  0  0
    7.4442  -12.6159   21.8569 C   0  0  0  0  0  0  0  0  0  0  0  0
    7.2210  -13.0643   23.1347 C   0  0  0  0  0  0  0  0  0  0  0  0
    6.8013  -14.3728   23.3488 C   0  0  0  0  0  0  0  0  0  0  0  0
    8.4297  -17.5854   22.8401 C   0  0  0  0  0  0  0  0  0  0  0  0
    8.4479  -17.9940   24.0518 O   0  0  0  0  0  0  0  0  0  0  0  0
   12.2250  -17.3529   19.8151 N   0  0  0  0  0  0  0  0  0  0  0  0
   12.2467  -17.6333   21.1912 C   0  0  0  0  0  0  0  0  0  0  0  0
   12.4597  -18.8472   21.5045 O   0  0  0  0  0  0  0  0  0  0  0  0
   12.0550  -16.7014   22.2962 C   0  0  0  0  0  0  0  0  0  0  0  0
   10.7908  -16.9869   23.1229 C   0  0  2  0  0  0  0  0  0  0  0  0
    9.6270  -17.0772   22.3081 N   0  0  0  0  0  0  0  0  0  0  0  0
   10.6893  -16.0202   24.2261 C   0  0  0  0  0  0  0  0  0  0  0  0
   10.7956  -14.7782   23.9829 O   0  0  0  0  0  0  0  0  0  0  0  0
    8.9182  -10.7368   25.6522 C   0  0  0  0  0  0  0  0  0  0  0  0
    8.1757  -11.8726   26.8776 S   0  0  0  0  0  0  0  0  0  0  0  0
    9.3015  -13.2092   27.3251 C   0  0  0  0  0  0  0  0  0  0  0  0
    9.5629  -14.2259   26.2849 C   0  0  0  0  0  0  0  0  0  0  0  0
   10.3773  -15.3696   26.6664 C   0  0  2  0  0  0  0  0  0  0  0  0
   10.4755  -16.3559   25.5773 N   0  0  0  0  0  0  0  0  0  0  0  0
   10.0487  -16.0208   27.9211 C   0  0  0  0  0  0  0  0  0  0  0  0
    9.9834  -15.3882   28.9948 O   0  0  0  0  0  0  0  0  0  0  0  0
    9.7902  -17.3898   27.9763 O   0  0  0  0  0  0  0  0  0  0  0  0
  2  1  1  1
  2  3  1  0
  3  4  1  0
  4  5  2  0
  5  6  1  0
  7  6  2  0
  8  7  1  0
  9  8  2  0
  9  4  1  0
 10 11  2  0
 10  2  1  0
 13 15  1  0
 13 12  1  0
 14 13  2  0
 16 15  1  6
 16 17  1  0
 17 10  1  0
 18 16  1  0
 18 25  1  0
 19 18  2  0
 21 20  1  0
 22 21  1  0
 23 22  1  0
 24 23  1  6
 24 25  1  0
 26 28  1  0
 26 24  1  0
 27 26  2  0
M  END
$$$$
