KTP.pdb
     RDKit          3D

 24 24  0  0  1  0  0  0  0  0999 V2000
   23.4006  -21.5948  -14.7173 N   0  0  0  0  0  0  0  0  0  0  0  0
   24.7823  -21.8281  -14.6322 C   0  0  1  0  0  0  0  0  0  0  0  0
   25.3629  -23.0757  -15.1536 C   0  0  0  0  0  0  0  0  0  0  0  0
   24.5783  -24.1624  -15.7092 C   0  0  0  0  0  0  0  0  0  0  0  0
   25.0702  -25.3526  -16.3717 C   0  0  0  0  0  0  0  0  0  0  0  0
   24.2100  -26.3722  -16.9861 C   0  0  0  0  0  0  0  0  0  0  0  0
   25.1723  -27.3707  -17.5844 N   0  0  0  0  0  0  0  0  0  0  0  0
   25.4832  -20.6371  -15.2403 C   0  0  0  0  0  0  0  0  0  0  0  0
   26.7173  -20.7100  -15.4224 O   0  0  0  0  0  0  0  0  0  0  0  0
   27.0127  -19.9100  -17.2132 C   0  0  0  0  0  0  0  0  0  0  0  0
   26.0825  -18.7569  -17.4675 C   0  0  1  0  0  0  0  0  0  0  0  0
   24.9961  -19.2577  -18.2299 O   0  0  0  0  0  0  0  0  0  0  0  0
   25.4818  -18.2871  -16.1307 C   0  0  2  0  0  0  0  0  0  0  0  0
   24.7847  -19.4584  -15.6035 N   0  0  0  0  0  0  0  0  0  0  0  0
   24.5102  -17.1878  -16.4292 C   0  0  0  0  0  0  0  0  0  0  0  0
   23.5730  -17.4384  -17.2039 O   0  0  0  0  0  0  0  0  0  0  0  0
   24.6865  -15.9404  -15.8375 N   0  0  0  0  0  0  0  0  0  0  0  0
   25.6819  -15.6435  -14.7554 C   0  0  0  0  0  0  0  0  0  0  0  0
   26.3455  -14.4401  -15.3339 C   0  0  0  0  0  0  0  0  0  0  0  0
   25.3107  -13.7534  -16.1973 C   0  0  0  0  0  0  0  0  0  0  0  0
   24.0822  -14.6642  -16.0235 C   0  0  1  0  0  0  0  0  0  0  0  0
   23.1363  -14.4628  -17.1064 C   0  0  0  0  0  0  0  0  0  0  0  0
   21.9526  -13.7904  -17.1255 O   0  0  0  0  0  0  0  0  0  0  0  0
   23.4645  -15.0063  -18.2300 O   0  0  0  0  0  0  0  0  0  0  0  0
  2  1  1  6
  3  2  1  0
  4  3  1  0
  5  4  1  0
  5  6  1  0
  7  6  1  0
  8  2  1  0
  8  9  2  0
 11 10  1  1
 11 13  1  0
 11 12  1  0
 13 14  1  6
 14  8  1  0
 15 13  1  0
 16 15  2  0
 17 15  1  0
 17 18  1  0
 19 18  1  0
 20 21  1  0
 20 19  1  0
 21 17  1  0
 21 22  1  6
 23 22  1  0
 24 22  2  0
M  END
$$$$
