KTP.pdb
     RDKit          3D

 24 24  0  0  1  0  0  0  0  0999 V2000
   22.3786  -17.5455  -17.7405 N   0  0  0  0  0  0  0  0  0  0  0  0
   22.2738  -16.5993  -16.7088 C   0  0  1  0  0  0  0  0  0  0  0  0
   22.2863  -17.0251  -15.3003 C   0  0  0  0  0  0  0  0  0  0  0  0
   21.3092  -17.9268  -14.7194 C   0  0  0  0  0  0  0  0  0  0  0  0
   21.2404  -19.3653  -14.8721 C   0  0  0  0  0  0  0  0  0  0  0  0
   20.1373  -20.1977  -14.3750 C   0  0  0  0  0  0  0  0  0  0  0  0
   20.4590  -21.5886  -14.8679 N   0  0  0  0  0  0  0  0  0  0  0  0
   23.3357  -15.5517  -16.9424 C   0  0  0  0  0  0  0  0  0  0  0  0
   24.3740  -15.8910  -17.5493 O   0  0  0  0  0  0  0  0  0  0  0  0
   24.2867  -14.4235  -18.9920 C   0  0  0  0  0  0  0  0  0  0  0  0
   24.0560  -13.0669  -18.3869 C   0  0  1  0  0  0  0  0  0  0  0  0
   22.7154  -12.7041  -18.6753 O   0  0  0  0  0  0  0  0  0  0  0  0
   24.1461  -13.1746  -16.8543 C   0  0  2  0  0  0  0  0  0  0  0  0
   23.1837  -14.2148  -16.4968 N   0  0  0  0  0  0  0  0  0  0  0  0
   23.7316  -11.8556  -16.2799 C   0  0  0  0  0  0  0  0  0  0  0  0
   22.6068  -11.4225  -16.5777 O   0  0  0  0  0  0  0  0  0  0  0  0
   24.6068  -11.1688  -15.4436 N   0  0  0  0  0  0  0  0  0  0  0  0
   25.9292  -11.6988  -14.9740 C   0  0  0  0  0  0  0  0  0  0  0  0
   26.8097  -10.5455  -15.3172 C   0  0  0  0  0  0  0  0  0  0  0  0
   25.9454   -9.3069  -15.2344 C   0  0  0  0  0  0  0  0  0  0  0  0
   24.5800   -9.8869  -14.8237 C   0  0  1  0  0  0  0  0  0  0  0  0
   23.5115   -8.9548  -15.1357 C   0  0  0  0  0  0  0  0  0  0  0  0
   22.7614   -8.8239  -16.2643 O   0  0  0  0  0  0  0  0  0  0  0  0
   23.2250   -8.1147  -14.1988 O   0  0  0  0  0  0  0  0  0  0  0  0
  2  1  1  6
  3  2  1  0
  4  3  1  0
  5  4  1  0
  5  6  1  0
  7  6  1  0
  8  2  1  0
  8  9  2  0
 11 10  1  6
 11 13  1  0
 11 12  1  0
 13 14  1  1
 14  8  1  0
 15 13  1  0
 16 15  2  0
 17 15  1  0
 17 18  1  0
 19 18  1  0
 20 21  1  0
 20 19  1  0
 21 17  1  0
 21 22  1  6
 23 22  1  0
 24 22  2  0
M  END
$$$$
