KTP.pdb
     RDKit          3D

 24 24  0  0  1  0  0  0  0  0999 V2000
   18.6066  -13.0768  -16.9517 N   0  0  0  0  0  0  0  0  0  0  0  0
   19.8776  -12.5002  -16.7996 C   0  0  1  0  0  0  0  0  0  0  0  0
   21.0329  -13.0324  -17.5395 C   0  0  0  0  0  0  0  0  0  0  0  0
   21.5886  -14.3559  -17.3281 C   0  0  0  0  0  0  0  0  0  0  0  0
   20.9311  -15.5007  -16.7327 C   0  0  0  0  0  0  0  0  0  0  0  0
   21.4936  -16.8571  -16.7083 C   0  0  0  0  0  0  0  0  0  0  0  0
   20.4570  -17.6853  -15.9868 N   0  0  0  0  0  0  0  0  0  0  0  0
   19.7383  -11.0183  -17.0532 C   0  0  0  0  0  0  0  0  0  0  0  0
   19.1405  -10.6516  -18.0873 O   0  0  0  0  0  0  0  0  0  0  0  0
   17.7333   -9.3084  -16.9224 C   0  0  0  0  0  0  0  0  0  0  0  0
   18.5604   -8.3924  -16.0642 C   0  0  1  0  0  0  0  0  0  0  0  0
   18.3724   -8.7993  -14.7183 O   0  0  0  0  0  0  0  0  0  0  0  0
   20.0511   -8.6198  -16.3719 C   0  0  2  0  0  0  0  0  0  0  0  0
   20.2613  -10.0503  -16.1595 N   0  0  0  0  0  0  0  0  0  0  0  0
   20.8465   -7.8201  -15.3873 C   0  0  0  0  0  0  0  0  0  0  0  0
   20.7101   -8.0849  -14.1821 O   0  0  0  0  0  0  0  0  0  0  0  0
   21.6998   -6.8217  -15.8482 N   0  0  0  0  0  0  0  0  0  0  0  0
   22.0464   -6.5954  -17.2899 C   0  0  0  0  0  0  0  0  0  0  0  0
   21.7730   -5.1337  -17.3981 C   0  0  0  0  0  0  0  0  0  0  0  0
   22.0209   -4.5485  -16.0255 C   0  0  0  0  0  0  0  0  0  0  0  0
   22.4427   -5.7859  -15.2130 C   0  0  1  0  0  0  0  0  0  0  0  0
   22.2789   -5.5462  -13.7904 C   0  0  0  0  0  0  0  0  0  0  0  0
   21.2998   -5.9553  -12.9375 O   0  0  0  0  0  0  0  0  0  0  0  0
   23.2043   -4.8317  -13.2440 O   0  0  0  0  0  0  0  0  0  0  0  0
  2  1  1  6
  3  2  1  0
  4  3  1  0
  5  4  1  0
  5  6  1  0
  7  6  1  0
  8  2  1  0
  8  9  2  0
 11 10  1  6
 11 13  1  0
 11 12  1  0
 13 14  1  1
 14  8  1  0
 15 13  1  0
 16 15  2  0
 17 15  1  0
 17 18  1  0
 19 18  1  0
 20 21  1  0
 20 19  1  0
 21 17  1  0
 21 22  1  1
 23 22  1  0
 24 22  2  0
M  END
$$$$
