KTP.pdb
     RDKit          3D

 24 24  0  0  1  0  0  0  0  0999 V2000
   15.6713  -26.2512   -9.7591 N   0  0  0  0  0  0  0  0  0  0  0  0
   16.4740  -25.1389   -9.4605 C   0  0  1  0  0  0  0  0  0  0  0  0
   17.3959  -25.1689   -8.3139 C   0  0  0  0  0  0  0  0  0  0  0  0
   17.0351  -25.6647   -6.9990 C   0  0  0  0  0  0  0  0  0  0  0  0
   17.8896  -25.7715   -5.8346 C   0  0  0  0  0  0  0  0  0  0  0  0
   17.4489  -26.2806   -4.5294 C   0  0  0  0  0  0  0  0  0  0  0  0
   18.7011  -26.2956   -3.6850 N   0  0  0  0  0  0  0  0  0  0  0  0
   17.2234  -24.7679  -10.7177 C   0  0  0  0  0  0  0  0  0  0  0  0
   17.4786  -25.6735  -11.5399 O   0  0  0  0  0  0  0  0  0  0  0  0
   16.4867  -24.6760  -13.2673 C   0  0  0  0  0  0  0  0  0  0  0  0
   16.8293  -23.2136  -13.2065 C   0  0  1  0  0  0  0  0  0  0  0  0
   15.7610  -22.5624  -12.5381 O   0  0  0  0  0  0  0  0  0  0  0  0
   18.0684  -23.0209  -12.3142 C   0  0  2  0  0  0  0  0  0  0  0  0
   17.6365  -23.4379  -10.9818 N   0  0  0  0  0  0  0  0  0  0  0  0
   18.4135  -21.5640  -12.3226 C   0  0  0  0  0  0  0  0  0  0  0  0
   17.5142  -20.7547  -12.0438 O   0  0  0  0  0  0  0  0  0  0  0  0
   19.7109  -21.1707  -12.6373 N   0  0  0  0  0  0  0  0  0  0  0  0
   20.8811  -22.1027  -12.7468 C   0  0  0  0  0  0  0  0  0  0  0  0
   21.4178  -21.6932  -14.0762 C   0  0  0  0  0  0  0  0  0  0  0  0
   21.0587  -20.2346  -14.2527 C   0  0  0  0  0  0  0  0  0  0  0  0
   20.3176  -19.9185  -12.9411 C   0  0  1  0  0  0  0  0  0  0  0  0
   19.4934  -18.7326  -13.0901 C   0  0  0  0  0  0  0  0  0  0  0  0
   19.7242  -17.4478  -12.7035 O   0  0  0  0  0  0  0  0  0  0  0  0
   18.3613  -18.9217  -13.6802 O   0  0  0  0  0  0  0  0  0  0  0  0
  2  1  1  6
  3  2  1  0
  4  3  1  0
  5  4  1  0
  5  6  1  0
  7  6  1  0
  8  2  1  0
  8  9  2  0
 11 10  1  1
 11 13  1  0
 11 12  1  0
 13 14  1  1
 14  8  1  0
 15 13  1  0
 16 15  2  0
 17 15  1  0
 17 18  1  0
 19 18  1  0
 20 21  1  0
 20 19  1  0
 21 17  1  0
 21 22  1  6
 23 22  1  0
 24 22  2  0
M  END
$$$$
