KTP.pdb
     RDKit          3D

 24 24  0  0  1  0  0  0  0  0999 V2000
   16.2346  -11.3657  -16.5145 N   0  0  0  0  0  0  0  0  0  0  0  0
   17.4931  -11.2029  -15.9142 C   0  0  1  0  0  0  0  0  0  0  0  0
   18.4904  -12.2838  -15.9644 C   0  0  0  0  0  0  0  0  0  0  0  0
   18.2964  -13.5914  -15.3665 C   0  0  0  0  0  0  0  0  0  0  0  0
   17.4252  -14.6505  -15.8321 C   0  0  0  0  0  0  0  0  0  0  0  0
   17.3016  -15.9636  -15.1860 C   0  0  0  0  0  0  0  0  0  0  0  0
   16.3134  -16.7176  -16.0439 N   0  0  0  0  0  0  0  0  0  0  0  0
   18.0898   -9.9228  -16.4481 C   0  0  0  0  0  0  0  0  0  0  0  0
   17.9049   -9.6443  -17.6521 O   0  0  0  0  0  0  0  0  0  0  0  0
   17.0647   -7.6830  -17.2895 C   0  0  0  0  0  0  0  0  0  0  0  0
   17.9079   -6.9575  -16.2784 C   0  0  1  0  0  0  0  0  0  0  0  0
   17.2303   -7.0391  -15.0348 O   0  0  0  0  0  0  0  0  0  0  0  0
   19.2344   -7.7146  -16.0892 C   0  0  2  0  0  0  0  0  0  0  0  0
   18.8418   -9.0446  -15.6280 N   0  0  0  0  0  0  0  0  0  0  0  0
   20.0186   -7.0020  -15.0314 C   0  0  0  0  0  0  0  0  0  0  0  0
   19.4588   -6.7826  -13.9452 O   0  0  0  0  0  0  0  0  0  0  0  0
   21.3292   -6.6154  -15.2960 N   0  0  0  0  0  0  0  0  0  0  0  0
   22.1077   -7.0193  -16.5129 C   0  0  0  0  0  0  0  0  0  0  0  0
   22.5962   -5.6851  -16.9653 C   0  0  0  0  0  0  0  0  0  0  0  0
   22.7193   -4.8302  -15.7236 C   0  0  0  0  0  0  0  0  0  0  0  0
   22.2757   -5.7993  -14.6131 C   0  0  1  0  0  0  0  0  0  0  0  0
   21.8760   -5.0689  -13.4237 C   0  0  0  0  0  0  0  0  0  0  0  0
   20.6721   -4.5301  -13.0866 O   0  0  0  0  0  0  0  0  0  0  0  0
   22.8061   -4.8998  -12.5450 O   0  0  0  0  0  0  0  0  0  0  0  0
  2  1  1  6
  3  2  1  0
  4  3  1  0
  5  4  1  0
  5  6  1  0
  7  6  1  0
  8  2  1  0
  8  9  2  0
 11 10  1  6
 11 13  1  0
 11 12  1  0
 13 14  1  1
 14  8  1  0
 15 13  1  0
 16 15  2  0
 17 15  1  0
 17 18  1  0
 19 18  1  0
 20 21  1  0
 20 19  1  0
 21 17  1  0
 21 22  1  1
 23 22  1  0
 24 22  2  0
M  END
$$$$
