KTP.pdb
     RDKit          3D

 24 24  0  0  1  0  0  0  0  0999 V2000
   21.3199  -22.5157  -18.1384 N   0  0  0  0  0  0  0  0  0  0  0  0
   21.2259  -22.0763  -16.8084 C   0  0  1  0  0  0  0  0  0  0  0  0
   20.4813  -22.8630  -15.8124 C   0  0  0  0  0  0  0  0  0  0  0  0
   19.1579  -22.5137  -15.3312 C   0  0  0  0  0  0  0  0  0  0  0  0
   18.4751  -21.2451  -15.4790 C   0  0  0  0  0  0  0  0  0  0  0  0
   17.1315  -20.9635  -14.9571 C   0  0  0  0  0  0  0  0  0  0  0  0
   16.8552  -19.5370  -15.3693 N   0  0  0  0  0  0  0  0  0  0  0  0
   22.6287  -21.8124  -16.3161 C   0  0  0  0  0  0  0  0  0  0  0  0
   23.5314  -22.6062  -16.6571 O   0  0  0  0  0  0  0  0  0  0  0  0
   24.5947  -18.5876  -16.5022 C   0  0  0  0  0  0  0  0  0  0  0  0
   24.5207  -18.9827  -15.0537 C   0  0  1  0  0  0  0  0  0  0  0  0
   23.3614  -18.3697  -14.5130 O   0  0  0  0  0  0  0  0  0  0  0  0
   24.2838  -20.5001  -14.9546 C   0  0  2  0  0  0  0  0  0  0  0  0
   22.9393  -20.7030  -15.4903 N   0  0  0  0  0  0  0  0  0  0  0  0
   24.3343  -20.8753  -13.5061 C   0  0  0  0  0  0  0  0  0  0  0  0
   23.3277  -20.6509  -12.8148 O   0  0  0  0  0  0  0  0  0  0  0  0
   25.4897  -21.4547  -12.9899 N   0  0  0  0  0  0  0  0  0  0  0  0
   26.6311  -21.9645  -13.8191 C   0  0  0  0  0  0  0  0  0  0  0  0
   27.7715  -21.2862  -13.1390 C   0  0  0  0  0  0  0  0  0  0  0  0
   27.3607  -21.1010  -11.6951 C   0  0  0  0  0  0  0  0  0  0  0  0
   25.9546  -21.7268  -11.6715 C   0  0  1  0  0  0  0  0  0  0  0  0
   25.2001  -21.2512  -10.5259 C   0  0  0  0  0  0  0  0  0  0  0  0
   25.1796  -21.6982   -9.2402 O   0  0  0  0  0  0  0  0  0  0  0  0
   24.4235  -20.2470  -10.7588 O   0  0  0  0  0  0  0  0  0  0  0  0
  2  1  1  6
  3  2  1  0
  4  3  1  0
  5  4  1  0
  5  6  1  0
  7  6  1  0
  8  2  1  0
  8  9  2  0
 11 10  1  6
 11 13  1  0
 11 12  1  0
 13 14  1  1
 14  8  1  0
 15 13  1  0
 16 15  2  0
 17 15  1  0
 17 18  1  0
 19 18  1  0
 20 21  1  0
 20 19  1  0
 21 17  1  0
 21 22  1  1
 23 22  1  0
 24 22  2  0
M  END
$$$$
