KTP.pdb
     RDKit          3D

 24 24  0  0  1  0  0  0  0  0999 V2000
   27.0681  -22.1510  -12.1739 N   0  0  0  0  0  0  0  0  0  0  0  0
   25.9781  -21.2756  -12.0453 C   0  0  1  0  0  0  0  0  0  0  0  0
   26.0979  -20.0455  -11.2465 C   0  0  0  0  0  0  0  0  0  0  0  0
   26.1622  -20.0255   -9.7972 C   0  0  0  0  0  0  0  0  0  0  0  0
   25.5448  -20.9578   -8.8768 C   0  0  0  0  0  0  0  0  0  0  0  0
   25.5810  -20.8229   -7.4148 C   0  0  0  0  0  0  0  0  0  0  0  0
   24.3710  -19.9831   -7.0808 N   0  0  0  0  0  0  0  0  0  0  0  0
   25.4939  -20.9444  -13.4365 C   0  0  0  0  0  0  0  0  0  0  0  0
   26.2932  -20.3919  -14.2222 O   0  0  0  0  0  0  0  0  0  0  0  0
   24.4909  -23.2871  -15.7723 C   0  0  0  0  0  0  0  0  0  0  0  0
   23.3066  -22.3614  -15.7725 C   0  0  1  0  0  0  0  0  0  0  0  0
   22.3768  -22.8735  -14.8316 O   0  0  0  0  0  0  0  0  0  0  0  0
   23.7397  -20.9857  -15.2355 C   0  0  2  0  0  0  0  0  0  0  0  0
   24.1755  -21.2415  -13.8642 N   0  0  0  0  0  0  0  0  0  0  0  0
   22.5375  -20.0933  -15.2468 C   0  0  0  0  0  0  0  0  0  0  0  0
   21.5838  -20.3979  -14.5126 O   0  0  0  0  0  0  0  0  0  0  0  0
   22.5287  -18.9688  -16.0669 N   0  0  0  0  0  0  0  0  0  0  0  0
   23.7552  -18.3193  -16.6358 C   0  0  0  0  0  0  0  0  0  0  0  0
   23.3640  -18.2353  -18.0722 C   0  0  0  0  0  0  0  0  0  0  0  0
   21.8560  -18.1221  -18.0998 C   0  0  0  0  0  0  0  0  0  0  0  0
   21.4981  -18.1448  -16.6029 C   0  0  1  0  0  0  0  0  0  0  0  0
   20.1063  -18.5120  -16.4133 C   0  0  0  0  0  0  0  0  0  0  0  0
   19.0233  -17.7363  -16.1324 O   0  0  0  0  0  0  0  0  0  0  0  0
   19.8508  -19.7720  -16.5264 O   0  0  0  0  0  0  0  0  0  0  0  0
  2  1  1  6
  3  2  1  0
  4  3  1  0
  5  4  1  0
  5  6  1  0
  7  6  1  0
  8  2  1  0
  8  9  2  0
 11 10  1  1
 11 13  1  0
 11 12  1  0
 13 14  1  1
 14  8  1  0
 15 13  1  0
 16 15  2  0
 17 15  1  0
 17 18  1  0
 19 18  1  0
 20 21  1  0
 20 19  1  0
 21 17  1  0
 21 22  1  6
 23 22  1  0
 24 22  2  0
M  END
$$$$
