KTP.pdb
     RDKit          3D

 24 24  0  0  1  0  0  0  0  0999 V2000
   17.7299  -22.8071  -11.9907 N   0  0  0  0  0  0  0  0  0  0  0  0
   19.0025  -22.3768  -11.5834 C   0  0  1  0  0  0  0  0  0  0  0  0
   19.5433  -22.7772  -10.2747 C   0  0  0  0  0  0  0  0  0  0  0  0
   18.7206  -23.0882   -9.1207 C   0  0  0  0  0  0  0  0  0  0  0  0
   18.2977  -24.3979   -8.6698 C   0  0  0  0  0  0  0  0  0  0  0  0
   19.0228  -25.2058   -7.6806 C   0  0  0  0  0  0  0  0  0  0  0  0
   18.1465  -26.4166   -7.4632 N   0  0  0  0  0  0  0  0  0  0  0  0
   19.9771  -22.7378  -12.6786 C   0  0  0  0  0  0  0  0  0  0  0  0
   19.8083  -23.8175  -13.2846 O   0  0  0  0  0  0  0  0  0  0  0  0
   19.9058  -23.0234  -15.4024 C   0  0  0  0  0  0  0  0  0  0  0  0
   20.9636  -21.9555  -15.4035 C   0  0  1  0  0  0  0  0  0  0  0  0
   20.3072  -20.7180  -15.1798 O   0  0  0  0  0  0  0  0  0  0  0  0
   21.8959  -22.1654  -14.1971 C   0  0  2  0  0  0  0  0  0  0  0  0
   21.0605  -21.8937  -13.0291 N   0  0  0  0  0  0  0  0  0  0  0  0
   23.0024  -21.1617  -14.2965 C   0  0  0  0  0  0  0  0  0  0  0  0
   22.6917  -19.9747  -14.4860 O   0  0  0  0  0  0  0  0  0  0  0  0
   24.3226  -21.5854  -14.1748 N   0  0  0  0  0  0  0  0  0  0  0  0
   24.7469  -22.8859  -13.5594 C   0  0  0  0  0  0  0  0  0  0  0  0
   25.6469  -23.4007  -14.6310 C   0  0  0  0  0  0  0  0  0  0  0  0
   26.2240  -22.1874  -15.3256 C   0  0  0  0  0  0  0  0  0  0  0  0
   25.5782  -21.0265  -14.5481 C   0  0  1  0  0  0  0  0  0  0  0  0
   25.6220  -19.8009  -15.3252 C   0  0  0  0  0  0  0  0  0  0  0  0
   26.4180  -18.7044  -15.1928 O   0  0  0  0  0  0  0  0  0  0  0  0
   24.7728  -19.7353  -16.2950 O   0  0  0  0  0  0  0  0  0  0  0  0
  2  1  1  6
  3  2  1  0
  4  3  1  0
  5  4  1  0
  5  6  1  0
  7  6  1  0
  8  2  1  0
  8  9  2  0
 11 10  1  1
 11 13  1  0
 11 12  1  0
 13 14  1  1
 14  8  1  0
 15 13  1  0
 16 15  2  0
 17 15  1  0
 17 18  1  0
 19 18  1  0
 20 21  1  0
 20 19  1  0
 21 17  1  0
 21 22  1  6
 23 22  1  0
 24 22  2  0
M  END
$$$$
