KTP.pdb
     RDKit          3D

 24 24  0  0  1  0  0  0  0  0999 V2000
   20.3020  -16.3941  -19.1806 N   0  0  0  0  0  0  0  0  0  0  0  0
   19.9729  -15.6598  -18.0303 C   0  0  1  0  0  0  0  0  0  0  0  0
   19.7028  -16.3466  -16.7572 C   0  0  0  0  0  0  0  0  0  0  0  0
   18.6167  -17.2884  -16.5611 C   0  0  0  0  0  0  0  0  0  0  0  0
   18.1445  -17.8371  -15.3067 C   0  0  0  0  0  0  0  0  0  0  0  0
   18.6117  -19.1047  -14.7307 C   0  0  0  0  0  0  0  0  0  0  0  0
   17.8743  -19.2199  -13.4176 N   0  0  0  0  0  0  0  0  0  0  0  0
   21.0436  -14.6130  -17.8368 C   0  0  0  0  0  0  0  0  0  0  0  0
   22.1405  -14.7796  -18.4115 O   0  0  0  0  0  0  0  0  0  0  0  0
   22.2948  -12.9484  -19.3006 C   0  0  0  0  0  0  0  0  0  0  0  0
   21.9695  -11.8371  -18.3420 C   0  0  1  0  0  0  0  0  0  0  0  0
   20.6788  -11.3571  -18.6824 O   0  0  0  0  0  0  0  0  0  0  0  0
   21.8462  -12.4148  -16.9208 C   0  0  2  0  0  0  0  0  0  0  0  0
   20.8358  -13.4648  -17.0320 N   0  0  0  0  0  0  0  0  0  0  0  0
   21.3663  -11.3169  -16.0230 C   0  0  0  0  0  0  0  0  0  0  0  0
   20.2985  -10.7552  -16.3157 O   0  0  0  0  0  0  0  0  0  0  0  0
   22.1209  -10.9677  -14.9069 N   0  0  0  0  0  0  0  0  0  0  0  0
   23.3456  -11.6992  -14.4432 C   0  0  0  0  0  0  0  0  0  0  0  0
   24.2930  -10.5571  -14.2982 C   0  0  0  0  0  0  0  0  0  0  0  0
   23.4539   -9.3438  -13.9642 C   0  0  0  0  0  0  0  0  0  0  0  0
   22.0297   -9.9273  -13.9386 C   0  0  1  0  0  0  0  0  0  0  0  0
   21.0412   -8.8759  -14.0975 C   0  0  0  0  0  0  0  0  0  0  0  0
   20.2219   -8.2940  -13.1790 O   0  0  0  0  0  0  0  0  0  0  0  0
   20.9145   -8.4186  -15.2977 O   0  0  0  0  0  0  0  0  0  0  0  0
  2  1  1  6
  3  2  1  0
  4  3  1  0
  5  4  1  0
  5  6  1  0
  7  6  1  0
  8  2  1  0
  8  9  2  0
 11 10  1  6
 11 13  1  0
 11 12  1  0
 13 14  1  6
 14  8  1  0
 15 13  1  0
 16 15  2  0
 17 15  1  0
 17 18  1  0
 19 18  1  0
 20 21  1  0
 20 19  1  0
 21 17  1  0
 21 22  1  6
 23 22  1  0
 24 22  2  0
M  END
$$$$
