KTP.pdb
     RDKit          3D

 24 24  0  0  1  0  0  0  0  0999 V2000
   17.9136  -15.1621  -16.6052 N   0  0  0  0  0  0  0  0  0  0  0  0
   17.7938  -13.8672  -17.1341 C   0  0  1  0  0  0  0  0  0  0  0  0
   16.5112  -13.1489  -17.0684 C   0  0  0  0  0  0  0  0  0  0  0  0
   15.2318  -13.7463  -17.4021 C   0  0  0  0  0  0  0  0  0  0  0  0
   14.6608  -14.9616  -16.8595 C   0  0  0  0  0  0  0  0  0  0  0  0
   13.3225  -15.4668  -17.1925 C   0  0  0  0  0  0  0  0  0  0  0  0
   13.2504  -16.8198  -16.5253 N   0  0  0  0  0  0  0  0  0  0  0  0
   18.8906  -13.0249  -16.5279 C   0  0  0  0  0  0  0  0  0  0  0  0
   19.2597  -13.2882  -15.3635 O   0  0  0  0  0  0  0  0  0  0  0  0
   22.2585  -12.6800  -17.5804 C   0  0  0  0  0  0  0  0  0  0  0  0
   21.7446  -11.2676  -17.6059 C   0  0  1  0  0  0  0  0  0  0  0  0
   21.2190  -11.0385  -18.9034 O   0  0  0  0  0  0  0  0  0  0  0  0
   20.5543  -11.1448  -16.6382 C   0  0  2  0  0  0  0  0  0  0  0  0
   19.5007  -11.9607  -17.2381 N   0  0  0  0  0  0  0  0  0  0  0  0
   20.1458   -9.7049  -16.5991 C   0  0  0  0  0  0  0  0  0  0  0  0
   19.6540   -9.2149  -17.6285 O   0  0  0  0  0  0  0  0  0  0  0  0
   20.3273   -8.9743  -15.4285 N   0  0  0  0  0  0  0  0  0  0  0  0
   20.6071   -9.5760  -14.0832 C   0  0  0  0  0  0  0  0  0  0  0  0
   21.7961   -8.7720  -13.6796 C   0  0  0  0  0  0  0  0  0  0  0  0
   21.6545   -7.4273  -14.3573 C   0  0  0  0  0  0  0  0  0  0  0  0
   20.3276   -7.5836  -15.1217 C   0  0  1  0  0  0  0  0  0  0  0  0
   20.2333   -6.6068  -16.1917 C   0  0  0  0  0  0  0  0  0  0  0  0
   19.7523   -5.3333  -16.1789 O   0  0  0  0  0  0  0  0  0  0  0  0
   20.6721   -7.0047  -17.3383 O   0  0  0  0  0  0  0  0  0  0  0  0
  2  1  1  1
  3  2  1  0
  4  3  1  0
  5  4  1  0
  5  6  1  0
  7  6  1  0
  8  2  1  0
  8  9  2  0
 11 10  1  6
 11 13  1  0
 11 12  1  0
 13 14  1  6
 14  8  1  0
 15 13  1  0
 16 15  2  0
 17 15  1  0
 17 18  1  0
 19 18  1  0
 20 21  1  0
 20 19  1  0
 21 17  1  0
 21 22  1  6
 23 22  1  0
 24 22  2  0
M  END
$$$$
