YPK.pdb
     RDKit          3D

 29 30  0  0  1  0  0  0  0  0999 V2000
   19.8589  -17.1635  -18.7307 O   0  0  0  0  0  0  0  0  0  0  0  0
   19.8371  -18.0336  -17.6358 C   0  0  0  0  0  0  0  0  0  0  0  0
   19.4229  -19.3400  -17.7539 C   0  0  0  0  0  0  0  0  0  0  0  0
   19.4131  -20.1797  -16.6450 C   0  0  0  0  0  0  0  0  0  0  0  0
   19.8146  -19.7340  -15.4036 C   0  0  0  0  0  0  0  0  0  0  0  0
   19.8156  -20.6016  -14.2056 C   0  0  0  0  0  0  0  0  0  0  0  0
   21.2113  -20.9023  -13.7095 C   0  0  2  0  0  0  0  0  0  0  0  0
   21.9077  -21.6608  -14.7400 N   0  0  0  0  0  0  0  0  0  0  0  0
   21.0589  -21.7445  -12.4736 C   0  0  0  0  0  0  0  0  0  0  0  0
   20.8168  -22.9569  -12.6349 O   0  0  0  0  0  0  0  0  0  0  0  0
   20.2247  -18.4201  -15.3151 C   0  0  0  0  0  0  0  0  0  0  0  0
   20.2407  -17.5716  -16.4070 C   0  0  0  0  0  0  0  0  0  0  0  0
   21.1798  -21.2148  -11.1792 N   0  0  0  0  0  0  0  0  0  0  0  0
   22.1770  -20.1745  -10.7656 C   0  0  0  0  0  0  0  0  0  0  0  0
   21.2294  -19.1519  -10.1886 C   0  0  0  0  0  0  0  0  0  0  0  0
   20.0962  -20.0013   -9.5923 C   0  0  0  0  0  0  0  0  0  0  0  0
   20.5401  -21.4224   -9.9175 C   0  0  1  0  0  0  0  0  0  0  0  0
   19.4938  -22.3989   -9.7862 C   0  0  0  0  0  0  0  0  0  0  0  0
   18.5503  -22.6827  -10.5309 O   0  0  0  0  0  0  0  0  0  0  0  0
   19.5336  -23.2065   -8.5694 N   0  0  0  0  0  0  0  0  0  0  0  0
   18.4886  -24.1135   -8.2360 C   0  0  1  0  0  0  0  0  0  0  0  0
   18.8081  -24.7397   -6.8962 C   0  0  0  0  0  0  0  0  0  0  0  0
   17.8006  -25.8050   -6.5218 C   0  0  0  0  0  0  0  0  0  0  0  0
   18.2474  -26.4312   -5.2157 C   0  0  0  0  0  0  0  0  0  0  0  0
   17.2229  -27.4168   -4.6976 C   0  0  0  0  0  0  0  0  0  0  0  0
   17.7126  -27.8975   -3.4054 N   0  0  0  0  0  0  0  0  0  0  0  0
   17.1512  -23.4908   -8.1720 C   0  0  0  0  0  0  0  0  0  0  0  0
   16.0752  -24.2561   -8.6020 O   0  0  0  0  0  0  0  0  0  0  0  0
   16.9153  -22.3361   -7.7633 O   0  0  0  0  0  0  0  0  0  0  0  0
  2  3  2  0
  2  1  1  0
  4  3  1  0
  5  4  2  0
  6  5  1  0
  7  6  1  0
  7  8  1  6
  9  7  1  0
 10  9  2  0
 11  5  1  0
 11 12  2  0
 12  2  1  0
 13 17  1  0
 13  9  1  0
 14 15  1  0
 14 13  1  0
 15 16  1  0
 17 16  1  0
 18 20  1  0
 17 18  1  6
 19 18  2  0
 21 27  1  0
 21 20  1  0
 21 22  1  1
 23 22  1  0
 24 23  1  0
 25 24  1  0
 25 26  1  0
 27 28  1  0
 29 27  2  0
M  END
$$$$
