YPK.pdb
     RDKit          3D

 29 30  0  0  1  0  0  0  0  0999 V2000
   27.8454  -15.4845  -21.5856 O   0  0  0  0  0  0  0  0  0  0  0  0
   27.4335  -16.1781  -20.4429 C   0  0  0  0  0  0  0  0  0  0  0  0
   26.2077  -16.7984  -20.3718 C   0  0  0  0  0  0  0  0  0  0  0  0
   25.8281  -17.4802  -19.2204 C   0  0  0  0  0  0  0  0  0  0  0  0
   26.6602  -17.5557  -18.1237 C   0  0  0  0  0  0  0  0  0  0  0  0
   26.2858  -18.2725  -16.8852 C   0  0  0  0  0  0  0  0  0  0  0  0
   27.0269  -19.5803  -16.7265 C   0  0  2  0  0  0  0  0  0  0  0  0
   26.6785  -20.4406  -17.8492 N   0  0  0  0  0  0  0  0  0  0  0  0
   26.5443  -20.1978  -15.4437 C   0  0  0  0  0  0  0  0  0  0  0  0
   25.3114  -20.2971  -15.2858 O   0  0  0  0  0  0  0  0  0  0  0  0
   27.8826  -16.9246  -18.2235 C   0  0  0  0  0  0  0  0  0  0  0  0
   28.2760  -16.2424  -19.3602 C   0  0  0  0  0  0  0  0  0  0  0  0
   27.4224  -20.6535  -14.4476 N   0  0  0  0  0  0  0  0  0  0  0  0
   28.7098  -21.3784  -14.7024 C   0  0  0  0  0  0  0  0  0  0  0  0
   29.6467  -20.4765  -13.9372 C   0  0  0  0  0  0  0  0  0  0  0  0
   28.7902  -19.9718  -12.7655 C   0  0  0  0  0  0  0  0  0  0  0  0
   27.4493  -20.6503  -13.0181 C   0  0  1  0  0  0  0  0  0  0  0  0
   26.3621  -20.0769  -12.2731 C   0  0  0  0  0  0  0  0  0  0  0  0
   26.0735  -18.9001  -12.0340 O   0  0  0  0  0  0  0  0  0  0  0  0
   25.4244  -21.0327  -11.6889 N   0  0  0  0  0  0  0  0  0  0  0  0
   24.3809  -20.6208  -10.8130 C   0  0  1  0  0  0  0  0  0  0  0  0
   23.0778  -21.2044  -11.3135 C   0  0  0  0  0  0  0  0  0  0  0  0
   21.9015  -20.7433  -10.4807 C   0  0  0  0  0  0  0  0  0  0  0  0
   20.6461  -21.3607  -11.0643 C   0  0  0  0  0  0  0  0  0  0  0  0
   19.4097  -20.9024  -10.3222 C   0  0  0  0  0  0  0  0  0  0  0  0
   18.2728  -21.6044  -10.9184 N   0  0  0  0  0  0  0  0  0  0  0  0
   24.5830  -21.0247   -9.4071 C   0  0  0  0  0  0  0  0  0  0  0  0
   24.1999  -20.1189   -8.4267 O   0  0  0  0  0  0  0  0  0  0  0  0
   25.0689  -22.1116   -9.0347 O   0  0  0  0  0  0  0  0  0  0  0  0
  2  3  2  0
  2  1  1  0
  4  3  1  0
  5  4  2  0
  6  5  1  0
  7  6  1  0
  7  8  1  6
  9  7  1  0
 10  9  2  0
 11  5  1  0
 11 12  2  0
 12  2  1  0
 13 17  1  0
 13  9  1  0
 14 15  1  0
 14 13  1  0
 15 16  1  0
 17 16  1  0
 18 20  1  0
 17 18  1  1
 19 18  2  0
 21 27  1  0
 21 20  1  0
 21 22  1  6
 23 22  1  0
 24 23  1  0
 25 24  1  0
 25 26  1  0
 27 28  1  0
 29 27  2  0
M  END
$$$$
