YPK.pdb
     RDKit          3D

 29 30  0  0  1  0  0  0  0  0999 V2000
   21.1628  -12.7076  -22.6073 O   0  0  0  0  0  0  0  0  0  0  0  0
   20.6470  -12.2033  -21.4090 C   0  0  0  0  0  0  0  0  0  0  0  0
   20.8991  -10.9162  -20.9939 C   0  0  0  0  0  0  0  0  0  0  0  0
   20.3710  -10.4451  -19.7965 C   0  0  0  0  0  0  0  0  0  0  0  0
   19.5852  -11.2454  -18.9944 C   0  0  0  0  0  0  0  0  0  0  0  0
   19.0093  -10.7744  -17.7160 C   0  0  0  0  0  0  0  0  0  0  0  0
   20.0104  -10.8048  -16.5839 C   0  0  2  0  0  0  0  0  0  0  0  0
   20.4075  -12.1890  -16.3639 N   0  0  0  0  0  0  0  0  0  0  0  0
   19.3022  -10.2792  -15.3664 C   0  0  0  0  0  0  0  0  0  0  0  0
   18.1860  -10.7667  -15.0999 O   0  0  0  0  0  0  0  0  0  0  0  0
   19.3493  -12.5307  -19.4357 C   0  0  0  0  0  0  0  0  0  0  0  0
   19.8663  -13.0153  -20.6232 C   0  0  0  0  0  0  0  0  0  0  0  0
   19.8515   -9.2820  -14.5449 N   0  0  0  0  0  0  0  0  0  0  0  0
   21.3040   -9.1608  -14.1939 C   0  0  0  0  0  0  0  0  0  0  0  0
   21.5409   -7.7411  -14.6466 C   0  0  0  0  0  0  0  0  0  0  0  0
   20.1998   -7.0429  -14.3723 C   0  0  0  0  0  0  0  0  0  0  0  0
   19.3498   -8.1703  -13.7989 C   0  0  1  0  0  0  0  0  0  0  0  0
   17.9418   -7.8822  -13.7840 C   0  0  0  0  0  0  0  0  0  0  0  0
   17.1423   -7.6928  -14.7061 O   0  0  0  0  0  0  0  0  0  0  0  0
   17.3301   -7.7935  -12.4603 N   0  0  0  0  0  0  0  0  0  0  0  0
   15.9623   -7.4397  -12.2878 C   0  0  1  0  0  0  0  0  0  0  0  0
   15.4781   -8.0248  -10.9792 C   0  0  0  0  0  0  0  0  0  0  0  0
   13.9810   -7.8739  -10.8184 C   0  0  0  0  0  0  0  0  0  0  0  0
   13.5728   -8.5973   -9.5505 C   0  0  0  0  0  0  0  0  0  0  0  0
   12.0673   -8.6634   -9.4135 C   0  0  0  0  0  0  0  0  0  0  0  0
   11.7851   -9.4421   -8.2074 N   0  0  0  0  0  0  0  0  0  0  0  0
   15.7143   -5.9840  -12.2876 C   0  0  0  0  0  0  0  0  0  0  0  0
   14.5982   -5.5317  -12.9790 O   0  0  0  0  0  0  0  0  0  0  0  0
   16.4270   -5.1341  -11.7168 O   0  0  0  0  0  0  0  0  0  0  0  0
  2  3  2  0
  2  1  1  0
  4  3  1  0
  5  4  2  0
  6  5  1  0
  7  6  1  0
  7  8  1  1
  9  7  1  0
 10  9  2  0
 11  5  1  0
 11 12  2  0
 12  2  1  0
 13 17  1  0
 13  9  1  0
 14 15  1  0
 14 13  1  0
 15 16  1  0
 17 16  1  0
 18 20  1  0
 17 18  1  6
 19 18  2  0
 21 27  1  0
 21 20  1  0
 21 22  1  1
 23 22  1  0
 24 23  1  0
 25 24  1  0
 25 26  1  0
 27 28  1  0
 29 27  2  0
M  END
$$$$
