YPK.pdb
     RDKit          3D

 29 30  0  0  1  0  0  0  0  0999 V2000
   17.6020  -24.4099   -8.1111 O   0  0  0  0  0  0  0  0  0  0  0  0
   18.4858  -23.8607   -9.0458 C   0  0  0  0  0  0  0  0  0  0  0  0
   19.7799  -23.5309   -8.7157 C   0  0  0  0  0  0  0  0  0  0  0  0
   20.6339  -22.9863   -9.6690 C   0  0  0  0  0  0  0  0  0  0  0  0
   20.2149  -22.7615  -10.9632 C   0  0  0  0  0  0  0  0  0  0  0  0
   21.0983  -22.1839  -11.9995 C   0  0  0  0  0  0  0  0  0  0  0  0
   21.6152  -20.8146  -11.6221 C   0  0  2  0  0  0  0  0  0  0  0  0
   20.4854  -19.8960  -11.5823 N   0  0  0  0  0  0  0  0  0  0  0  0
   22.5705  -20.3992  -12.7061 C   0  0  0  0  0  0  0  0  0  0  0  0
   22.0917  -19.8064  -13.6930 O   0  0  0  0  0  0  0  0  0  0  0  0
   18.9128  -23.1018  -11.2654 C   0  0  0  0  0  0  0  0  0  0  0  0
   18.0505  -23.6441  -10.3302 C   0  0  0  0  0  0  0  0  0  0  0  0
   23.9492  -20.6542  -12.6362 N   0  0  0  0  0  0  0  0  0  0  0  0
   24.7875  -20.5162  -11.4009 C   0  0  0  0  0  0  0  0  0  0  0  0
   25.3804  -21.9030  -11.3590 C   0  0  0  0  0  0  0  0  0  0  0  0
   25.5191  -22.2846  -12.8410 C   0  0  0  0  0  0  0  0  0  0  0  0
   24.9705  -21.0542  -13.5533 C   0  0  1  0  0  0  0  0  0  0  0  0
   24.6551  -21.2803  -14.9372 C   0  0  0  0  0  0  0  0  0  0  0  0
   24.0060  -22.1764  -15.4859 O   0  0  0  0  0  0  0  0  0  0  0  0
   25.1835  -20.2919  -15.8743 N   0  0  0  0  0  0  0  0  0  0  0  0
   25.0014  -20.4181  -17.2802 C   0  0  1  0  0  0  0  0  0  0  0  0
   24.9690  -19.0315  -17.8848 C   0  0  0  0  0  0  0  0  0  0  0  0
   24.6701  -19.0743  -19.3676 C   0  0  0  0  0  0  0  0  0  0  0  0
   24.6688  -17.6493  -19.8845 C   0  0  0  0  0  0  0  0  0  0  0  0
   24.4184  -17.6038  -21.3761 C   0  0  0  0  0  0  0  0  0  0  0  0
   24.4151  -16.1927  -21.7626 N   0  0  0  0  0  0  0  0  0  0  0  0
   26.0483  -21.2140  -17.9520 C   0  0  0  0  0  0  0  0  0  0  0  0
   27.3034  -21.2389  -17.3584 O   0  0  0  0  0  0  0  0  0  0  0  0
   25.8921  -21.8622  -19.0062 O   0  0  0  0  0  0  0  0  0  0  0  0
  2  3  2  0
  2  1  1  0
  4  3  1  0
  5  4  2  0
  6  5  1  0
  7  6  1  0
  7  8  1  6
  9  7  1  0
 10  9  2  0
 11  5  1  0
 11 12  2  0
 12  2  1  0
 13 17  1  0
 13  9  1  0
 14 15  1  0
 14 13  1  0
 15 16  1  0
 17 16  1  0
 18 20  1  0
 17 18  1  6
 19 18  2  0
 21 27  1  0
 21 20  1  0
 21 22  1  6
 23 22  1  0
 24 23  1  0
 25 24  1  0
 25 26  1  0
 27 28  1  0
 29 27  2  0
M  END
$$$$
