YPK.pdb
     RDKit          3D

 29 30  0  0  1  0  0  0  0  0999 V2000
   19.8693  -17.5500  -22.3086 O   0  0  0  0  0  0  0  0  0  0  0  0
   19.8542  -16.5159  -21.3671 C   0  0  0  0  0  0  0  0  0  0  0  0
   18.8142  -16.3548  -20.4811 C   0  0  0  0  0  0  0  0  0  0  0  0
   18.8298  -15.3156  -19.5568 C   0  0  0  0  0  0  0  0  0  0  0  0
   19.8780  -14.4218  -19.4992 C   0  0  0  0  0  0  0  0  0  0  0  0
   19.9240  -13.3066  -18.5286 C   0  0  0  0  0  0  0  0  0  0  0  0
   20.7239  -13.6476  -17.2922 C   0  0  2  0  0  0  0  0  0  0  0  0
   20.0804  -14.7741  -16.6295 N   0  0  0  0  0  0  0  0  0  0  0  0
   20.6774  -12.4385  -16.4000 C   0  0  0  0  0  0  0  0  0  0  0  0
   19.5524  -11.9866  -16.1086 O   0  0  0  0  0  0  0  0  0  0  0  0
   20.9065  -14.6077  -20.3993 C   0  0  0  0  0  0  0  0  0  0  0  0
   20.9073  -15.6352  -21.3247 C   0  0  0  0  0  0  0  0  0  0  0  0
   21.8363  -11.8237  -15.9004 N   0  0  0  0  0  0  0  0  0  0  0  0
   23.0137  -12.5497  -15.3221 C   0  0  0  0  0  0  0  0  0  0  0  0
   24.1006  -11.9772  -16.1981 C   0  0  0  0  0  0  0  0  0  0  0  0
   23.6226  -10.5447  -16.4820 C   0  0  0  0  0  0  0  0  0  0  0  0
   22.2985  -10.4814  -15.7302 C   0  0  1  0  0  0  0  0  0  0  0  0
   21.4678   -9.3735  -16.1152 C   0  0  0  0  0  0  0  0  0  0  0  0
   21.1304   -8.9606  -17.2292 O   0  0  0  0  0  0  0  0  0  0  0  0
   20.9168   -8.5861  -15.0149 N   0  0  0  0  0  0  0  0  0  0  0  0
   20.1867   -7.3857  -15.2430 C   0  0  1  0  0  0  0  0  0  0  0  0
   18.7713   -7.5851  -14.7472 C   0  0  0  0  0  0  0  0  0  0  0  0
   17.8669   -6.4449  -15.1620 C   0  0  0  0  0  0  0  0  0  0  0  0
   16.4520   -6.7974  -14.7481 C   0  0  0  0  0  0  0  0  0  0  0  0
   15.4473   -5.8353  -15.3434 C   0  0  0  0  0  0  0  0  0  0  0  0
   14.1258   -6.2656  -14.8861 N   0  0  0  0  0  0  0  0  0  0  0  0
   20.7661   -6.1969  -14.5862 C   0  0  0  0  0  0  0  0  0  0  0  0
   20.3957   -4.9547  -15.0843 O   0  0  0  0  0  0  0  0  0  0  0  0
   21.5585   -6.2230  -13.6232 O   0  0  0  0  0  0  0  0  0  0  0  0
  2  3  2  0
  2  1  1  0
  4  3  1  0
  5  4  2  0
  6  5  1  0
  7  6  1  0
  7  8  1  1
  9  7  1  0
 10  9  2  0
 11  5  1  0
 11 12  2  0
 12  2  1  0
 13 17  1  0
 13  9  1  0
 14 15  1  0
 14 13  1  0
 15 16  1  0
 17 16  1  0
 18 20  1  0
 17 18  1  6
 19 18  2  0
 21 27  1  0
 21 20  1  0
 21 22  1  1
 23 22  1  0
 24 23  1  0
 25 24  1  0
 25 26  1  0
 27 28  1  0
 29 27  2  0
M  END
$$$$
