YPK.pdb
     RDKit          3D

 29 30  0  0  1  0  0  0  0  0999 V2000
   16.9400   -9.6970  -23.9334 O   0  0  0  0  0  0  0  0  0  0  0  0
   17.3796   -9.4859  -22.6225 C   0  0  0  0  0  0  0  0  0  0  0  0
   18.4759   -8.7040  -22.3407 C   0  0  0  0  0  0  0  0  0  0  0  0
   18.8873   -8.5141  -21.0257 C   0  0  0  0  0  0  0  0  0  0  0  0
   18.2162   -9.0978  -19.9721 C   0  0  0  0  0  0  0  0  0  0  0  0
   18.6286   -8.9154  -18.5634 C   0  0  0  0  0  0  0  0  0  0  0  0
   19.8941   -9.6710  -18.2281 C   0  0  2  0  0  0  0  0  0  0  0  0
   19.5762  -11.0916  -18.1753 N   0  0  0  0  0  0  0  0  0  0  0  0
   20.3336   -9.1974  -16.8707 C   0  0  0  0  0  0  0  0  0  0  0  0
   19.4995   -9.2602  -15.9460 O   0  0  0  0  0  0  0  0  0  0  0  0
   17.1212   -9.8761  -20.2845 C   0  0  0  0  0  0  0  0  0  0  0  0
   16.6983  -10.0756  -21.5860 C   0  0  0  0  0  0  0  0  0  0  0  0
   21.6236   -8.7010  -16.6252 N   0  0  0  0  0  0  0  0  0  0  0  0
   22.8898   -9.2900  -17.1708 C   0  0  0  0  0  0  0  0  0  0  0  0
   23.4547   -8.0617  -17.8408 C   0  0  0  0  0  0  0  0  0  0  0  0
   22.9830   -6.9076  -16.9426 C   0  0  0  0  0  0  0  0  0  0  0  0
   22.1877   -7.6311  -15.8626 C   0  0  1  0  0  0  0  0  0  0  0  0
   21.3399   -6.7643  -15.0909 C   0  0  0  0  0  0  0  0  0  0  0  0
   20.4731   -5.9563  -15.4389 O   0  0  0  0  0  0  0  0  0  0  0  0
   21.5171   -6.8347  -13.6425 N   0  0  0  0  0  0  0  0  0  0  0  0
   20.7331   -6.0492  -12.7513 C   0  0  1  0  0  0  0  0  0  0  0  0
   20.7525   -6.7080  -11.3894 C   0  0  0  0  0  0  0  0  0  0  0  0
   20.0031   -5.8893  -10.3608 C   0  0  0  0  0  0  0  0  0  0  0  0
   18.6974   -6.5987  -10.0612 C   0  0  0  0  0  0  0  0  0  0  0  0
   17.8643   -5.8229   -9.0644 C   0  0  0  0  0  0  0  0  0  0  0  0
   16.5380   -6.4404   -9.0486 N   0  0  0  0  0  0  0  0  0  0  0  0
   21.1932   -4.6523  -12.6192 C   0  0  0  0  0  0  0  0  0  0  0  0
   22.5597   -4.4241  -12.7132 O   0  0  0  0  0  0  0  0  0  0  0  0
   20.4520   -3.6668  -12.4305 O   0  0  0  0  0  0  0  0  0  0  0  0
  2  3  2  0
  2  1  1  0
  4  3  1  0
  5  4  2  0
  6  5  1  0
  7  6  1  0
  7  8  1  1
  9  7  1  0
 10  9  2  0
 11  5  1  0
 11 12  2  0
 12  2  1  0
 13 17  1  0
 13  9  1  0
 14 15  1  0
 14 13  1  0
 15 16  1  0
 17 16  1  0
 18 20  1  0
 17 18  1  6
 19 18  2  0
 21 27  1  0
 21 20  1  0
 21 22  1  1
 23 22  1  0
 24 23  1  0
 25 24  1  0
 25 26  1  0
 27 28  1  0
 29 27  2  0
M  END
$$$$
