YPK.pdb
     RDKit          3D

 29 30  0  0  1  0  0  0  0  0999 V2000
   17.7012  -24.2052   -7.0310 O   0  0  0  0  0  0  0  0  0  0  0  0
   18.5712  -23.6812   -7.9926 C   0  0  0  0  0  0  0  0  0  0  0  0
   19.8742  -23.3566   -7.6938 C   0  0  0  0  0  0  0  0  0  0  0  0
   20.7140  -22.8371   -8.6733 C   0  0  0  0  0  0  0  0  0  0  0  0
   20.2718  -22.6327   -9.9632 C   0  0  0  0  0  0  0  0  0  0  0  0
   21.1397  -22.0820  -11.0269 C   0  0  0  0  0  0  0  0  0  0  0  0
   21.3990  -20.6029  -10.8548 C   0  0  2  0  0  0  0  0  0  0  0  0
   20.1369  -19.8960  -11.0262 N   0  0  0  0  0  0  0  0  0  0  0  0
   22.3577  -20.2027  -11.9415 C   0  0  0  0  0  0  0  0  0  0  0  0
   21.8713  -19.8947  -13.0474 O   0  0  0  0  0  0  0  0  0  0  0  0
   18.9613  -22.9671  -10.2338 C   0  0  0  0  0  0  0  0  0  0  0  0
   18.1128  -23.4845   -9.2722 C   0  0  0  0  0  0  0  0  0  0  0  0
   23.7476  -20.1674  -11.7470 N   0  0  0  0  0  0  0  0  0  0  0  0
   24.4269  -19.8005  -10.4619 C   0  0  0  0  0  0  0  0  0  0  0  0
   25.2777  -21.0335  -10.2815 C   0  0  0  0  0  0  0  0  0  0  0  0
   25.6225  -21.4514  -11.7194 C   0  0  0  0  0  0  0  0  0  0  0  0
   24.9064  -20.3955  -12.5528 C   0  0  1  0  0  0  0  0  0  0  0  0
   24.7684  -20.7492  -13.9390 C   0  0  0  0  0  0  0  0  0  0  0  0
   24.5023  -21.8277  -14.4789 O   0  0  0  0  0  0  0  0  0  0  0  0
   24.9742  -19.6607  -14.8913 N   0  0  0  0  0  0  0  0  0  0  0  0
   24.7205  -19.8224  -16.2824 C   0  0  1  0  0  0  0  0  0  0  0  0
   23.6507  -18.8339  -16.6918 C   0  0  0  0  0  0  0  0  0  0  0  0
   23.2582  -19.0031  -18.1434 C   0  0  0  0  0  0  0  0  0  0  0  0
   22.1780  -17.9866  -18.4561 C   0  0  0  0  0  0  0  0  0  0  0  0
   21.7394  -18.0748  -19.9016 C   0  0  0  0  0  0  0  0  0  0  0  0
   20.7754  -16.9958  -20.1187 N   0  0  0  0  0  0  0  0  0  0  0  0
   25.9099  -19.6286  -17.1359 C   0  0  0  0  0  0  0  0  0  0  0  0
   26.8129  -18.6468  -16.7501 O   0  0  0  0  0  0  0  0  0  0  0  0
   26.1640  -20.2760  -18.1715 O   0  0  0  0  0  0  0  0  0  0  0  0
  2  3  2  0
  2  1  1  0
  4  3  1  0
  5  4  2  0
  6  5  1  0
  7  6  1  0
  7  8  1  6
  9  7  1  0
 10  9  2  0
 11  5  1  0
 11 12  2  0
 12  2  1  0
 13 17  1  0
 13  9  1  0
 14 15  1  0
 14 13  1  0
 15 16  1  0
 17 16  1  0
 18 20  1  0
 17 18  1  6
 19 18  2  0
 21 27  1  0
 21 20  1  0
 21 22  1  6
 23 22  1  0
 24 23  1  0
 25 24  1  0
 25 26  1  0
 27 28  1  0
 29 27  2  0
M  END
$$$$
