YPK.pdb
     RDKit          3D

 29 30  0  0  1  0  0  0  0  0999 V2000
   17.1191  -24.6974   -9.7338 O   0  0  0  0  0  0  0  0  0  0  0  0
   18.2340  -24.5899  -10.5714 C   0  0  0  0  0  0  0  0  0  0  0  0
   18.6471  -23.3801  -11.0797 C   0  0  0  0  0  0  0  0  0  0  0  0
   19.7604  -23.3073  -11.9102 C   0  0  0  0  0  0  0  0  0  0  0  0
   20.4791  -24.4345  -12.2477 C   0  0  0  0  0  0  0  0  0  0  0  0
   21.6668  -24.3903  -13.1283 C   0  0  0  0  0  0  0  0  0  0  0  0
   21.3774  -23.7327  -14.4582 C   0  0  2  0  0  0  0  0  0  0  0  0
   19.9392  -23.5247  -14.5603 N   0  0  0  0  0  0  0  0  0  0  0  0
   21.8293  -24.6930  -15.5229 C   0  0  0  0  0  0  0  0  0  0  0  0
   20.9545  -25.3947  -16.0678 O   0  0  0  0  0  0  0  0  0  0  0  0
   20.0420  -25.6332  -11.7236 C   0  0  0  0  0  0  0  0  0  0  0  0
   18.9375  -25.7237  -10.8965 C   0  0  0  0  0  0  0  0  0  0  0  0
   23.1736  -24.8152  -15.9084 N   0  0  0  0  0  0  0  0  0  0  0  0
   24.0743  -23.6698  -16.2614 C   0  0  0  0  0  0  0  0  0  0  0  0
   25.1998  -23.9449  -15.2949 C   0  0  0  0  0  0  0  0  0  0  0  0
   25.2269  -25.4780  -15.1945 C   0  0  0  0  0  0  0  0  0  0  0  0
   24.0903  -25.8915  -16.1216 C   0  0  1  0  0  0  0  0  0  0  0  0
   23.6652  -27.2529  -15.9431 C   0  0  0  0  0  0  0  0  0  0  0  0
   23.4667  -27.9136  -14.9187 O   0  0  0  0  0  0  0  0  0  0  0  0
   23.4200  -28.0034  -17.1723 N   0  0  0  0  0  0  0  0  0  0  0  0
   22.9692  -29.3532  -17.1502 C   0  0  1  0  0  0  0  0  0  0  0  0
   21.5074  -29.3758  -17.5398 C   0  0  0  0  0  0  0  0  0  0  0  0
   20.9368  -30.7766  -17.4914 C   0  0  0  0  0  0  0  0  0  0  0  0
   19.5177  -30.7207  -18.0212 C   0  0  0  0  0  0  0  0  0  0  0  0
   18.8433  -32.0725  -17.9353 C   0  0  0  0  0  0  0  0  0  0  0  0
   17.5572  -31.9491  -18.6220 N   0  0  0  0  0  0  0  0  0  0  0  0
   23.7225  -30.2523  -18.0472 C   0  0  0  0  0  0  0  0  0  0  0  0
   24.4093  -29.6650  -19.1016 O   0  0  0  0  0  0  0  0  0  0  0  0
   23.7887  -31.4925  -17.9309 O   0  0  0  0  0  0  0  0  0  0  0  0
  2  3  2  0
  2  1  1  0
  4  3  1  0
  5  4  2  0
  6  5  1  0
  7  6  1  0
  7  8  1  6
  9  7  1  0
 10  9  2  0
 11  5  1  0
 11 12  2  0
 12  2  1  0
 13 17  1  0
 13  9  1  0
 14 15  1  0
 14 13  1  0
 15 16  1  0
 17 16  1  0
 18 20  1  0
 17 18  1  1
 19 18  2  0
 21 27  1  0
 21 20  1  0
 21 22  1  6
 23 22  1  0
 24 23  1  0
 25 24  1  0
 25 26  1  0
 27 28  1  0
 29 27  2  0
M  END
$$$$
