VIS.pdb
     RDKit          3D

 22 21  0  0  1  0  0  0  0  0999 V2000
    6.2725  -16.3867   19.5478 C   0  0  0  0  0  0  0  0  0  0  0  0
    7.1321  -16.2247   20.7657 C   0  0  2  0  0  0  0  0  0  0  0  0
    6.5706  -17.0138   21.9281 C   0  0  0  0  0  0  0  0  0  0  0  0
    7.2720  -14.7926   21.2052 C   0  0  2  0  0  0  0  0  0  0  0  0
    7.7248  -13.9204   20.1643 N   0  0  0  0  0  0  0  0  0  0  0  0
    8.1151  -14.6300   22.3989 C   0  0  0  0  0  0  0  0  0  0  0  0
    9.3688  -14.6009   22.3788 O   0  0  0  0  0  0  0  0  0  0  0  0
    6.0067  -11.5775   26.1291 C   0  0  0  0  0  0  0  0  0  0  0  0
    7.0075  -12.2586   25.2503 C   0  0  0  0  0  0  0  0  0  0  0  0
    7.2952  -13.6339   25.8520 C   0  0  2  0  0  0  0  0  0  0  0  0
    7.8556  -13.4098   27.2118 C   0  0  0  0  0  0  0  0  0  0  0  0
    8.2349  -14.4027   24.9140 C   0  0  2  0  0  0  0  0  0  0  0  0
    7.4843  -14.4961   23.6637 N   0  0  0  0  0  0  0  0  0  0  0  0
    8.6258  -15.7127   25.4189 C   0  0  0  0  0  0  0  0  0  0  0  0
    7.7688  -16.5757   25.8280 O   0  0  0  0  0  0  0  0  0  0  0  0
   12.4408  -16.9485   25.0190 O   0  0  0  0  0  0  0  0  0  0  0  0
   11.5045  -17.9517   25.1765 C   0  0  0  0  0  0  0  0  0  0  0  0
   10.3071  -17.4725   25.9988 C   0  0  2  0  0  0  0  0  0  0  0  0
    9.9776  -16.1265   25.4918 N   0  0  0  0  0  0  0  0  0  0  0  0
   10.7393  -17.4033   27.4101 C   0  0  0  0  0  0  0  0  0  0  0  0
   11.1355  -18.5489   28.0503 O   0  0  0  0  0  0  0  0  0  0  0  0
   10.7524  -16.3195   28.0378 O   0  0  0  0  0  0  0  0  0  0  0  0
  2  1  1  6
  2  3  1  0
  4  2  1  0
  4  5  1  6
  4  6  1  0
  6 13  1  0
  6  7  2  0
  8  9  1  0
  9 10  1  0
 10 12  1  0
 10 11  1  1
 12 14  1  0
 12 13  1  6
 14 15  2  0
 16 17  1  0
 18 17  1  6
 18 20  1  0
 19 14  1  0
 19 18  1  0
 20 21  1  0
 22 20  2  0
M  END
$$$$
