VIS.pdb
     RDKit          3D

 22 21  0  0  1  0  0  0  0  0999 V2000
    6.1677  -14.8293   21.3825 C   0  0  0  0  0  0  0  0  0  0  0  0
    6.8672  -16.1521   21.2865 C   0  0  2  0  0  0  0  0  0  0  0  0
    6.0383  -17.1419   20.4977 C   0  0  0  0  0  0  0  0  0  0  0  0
    7.1628  -16.7642   22.6288 C   0  0  2  0  0  0  0  0  0  0  0  0
    5.9862  -17.0851   23.3785 N   0  0  0  0  0  0  0  0  0  0  0  0
    8.0758  -15.9545   23.4492 C   0  0  0  0  0  0  0  0  0  0  0  0
    9.2159  -15.5844   23.0800 O   0  0  0  0  0  0  0  0  0  0  0  0
    5.8773  -12.2027   26.2781 C   0  0  0  0  0  0  0  0  0  0  0  0
    6.8973  -12.9760   25.5039 C   0  0  0  0  0  0  0  0  0  0  0  0
    7.5751  -13.9482   26.4691 C   0  0  2  0  0  0  0  0  0  0  0  0
    8.2488  -13.1314   27.5141 C   0  0  0  0  0  0  0  0  0  0  0  0
    8.5299  -14.8524   25.6787 C   0  0  2  0  0  0  0  0  0  0  0  0
    7.6543  -15.5578   24.7455 N   0  0  0  0  0  0  0  0  0  0  0  0
    9.2958  -15.7694   26.5131 C   0  0  0  0  0  0  0  0  0  0  0  0
    8.7459  -16.5080   27.4069 O   0  0  0  0  0  0  0  0  0  0  0  0
   13.4128  -15.9076   26.3643 O   0  0  0  0  0  0  0  0  0  0  0  0
   12.7698  -17.1192   26.5268 C   0  0  0  0  0  0  0  0  0  0  0  0
   11.4017  -16.9403   27.1870 C   0  0  2  0  0  0  0  0  0  0  0  0
   10.6992  -15.9120   26.3955 N   0  0  0  0  0  0  0  0  0  0  0  0
   11.6352  -16.4633   28.5658 C   0  0  0  0  0  0  0  0  0  0  0  0
   12.2803  -17.2776   29.4602 O   0  0  0  0  0  0  0  0  0  0  0  0
   11.2567  -15.3290   28.9384 O   0  0  0  0  0  0  0  0  0  0  0  0
  2  1  1  1
  2  3  1  0
  4  2  1  0
  4  5  1  1
  4  6  1  0
  6 13  1  0
  6  7  2  0
  8  9  1  0
  9 10  1  0
 10 12  1  0
 10 11  1  1
 12 14  1  0
 12 13  1  6
 14 15  2  0
 16 17  1  0
 18 17  1  6
 18 20  1  0
 19 14  1  0
 19 18  1  0
 20 21  1  0
 22 20  2  0
M  END
$$$$
