VIS.pdb
     RDKit          3D

 22 21  0  0  1  0  0  0  0  0999 V2000
    7.8729  -20.1406   24.8740 C   0  0  0  0  0  0  0  0  0  0  0  0
    6.7321  -19.6076   25.6882 C   0  0  2  0  0  0  0  0  0  0  0  0
    5.8945  -20.7385   26.2438 C   0  0  0  0  0  0  0  0  0  0  0  0
    5.8213  -18.6994   24.9076 C   0  0  2  0  0  0  0  0  0  0  0  0
    5.1315  -19.3641   23.8438 N   0  0  0  0  0  0  0  0  0  0  0  0
    6.4973  -17.4984   24.3947 C   0  0  0  0  0  0  0  0  0  0  0  0
    6.7126  -17.2745   23.1796 O   0  0  0  0  0  0  0  0  0  0  0  0
    5.8494  -12.9246   26.9718 C   0  0  0  0  0  0  0  0  0  0  0  0
    6.1291  -13.8822   25.8571 C   0  0  0  0  0  0  0  0  0  0  0  0
    7.5773  -14.3502   25.9982 C   0  0  2  0  0  0  0  0  0  0  0  0
    8.4429  -13.1486   25.8560 C   0  0  0  0  0  0  0  0  0  0  0  0
    7.8540  -15.4397   24.9540 C   0  0  2  0  0  0  0  0  0  0  0  0
    6.9410  -16.5196   25.3223 N   0  0  0  0  0  0  0  0  0  0  0  0
    9.2422  -15.8818   24.9204 C   0  0  0  0  0  0  0  0  0  0  0  0
    9.8761  -16.2379   25.9778 O   0  0  0  0  0  0  0  0  0  0  0  0
   11.3666  -15.8804   21.4241 O   0  0  0  0  0  0  0  0  0  0  0  0
   11.5778  -16.9748   22.2398 C   0  0  0  0  0  0  0  0  0  0  0  0
   11.2931  -16.6412   23.7052 C   0  0  2  0  0  0  0  0  0  0  0  0
    9.9886  -15.9519   23.7197 N   0  0  0  0  0  0  0  0  0  0  0  0
   12.3638  -15.7341   24.1680 C   0  0  0  0  0  0  0  0  0  0  0  0
   13.6467  -16.2054   24.2745 O   0  0  0  0  0  0  0  0  0  0  0  0
   12.1268  -14.5410   24.4664 O   0  0  0  0  0  0  0  0  0  0  0  0
  2  1  1  6
  2  3  1  0
  4  2  1  0
  4  5  1  6
  4  6  1  0
  6 13  1  0
  6  7  2  0
  8  9  1  0
  9 10  1  0
 10 12  1  0
 10 11  1  6
 12 14  1  0
 12 13  1  1
 14 15  2  0
 16 17  1  0
 18 17  1  6
 18 20  1  0
 19 14  1  0
 19 18  1  0
 20 21  1  0
 22 20  2  0
M  END
$$$$
