VIS.pdb
     RDKit          3D

 22 21  0  0  1  0  0  0  0  0999 V2000
    6.8924  -18.7081   22.6061 C   0  0  0  0  0  0  0  0  0  0  0  0
    5.7821  -17.7004   22.6042 C   0  0  2  0  0  0  0  0  0  0  0  0
    4.6446  -18.1564   21.7168 C   0  0  0  0  0  0  0  0  0  0  0  0
    6.2182  -16.3399   22.1325 C   0  0  2  0  0  0  0  0  0  0  0  0
    6.5617  -16.3033   20.7433 N   0  0  0  0  0  0  0  0  0  0  0  0
    7.3097  -15.7682   22.9350 C   0  0  0  0  0  0  0  0  0  0  0  0
    8.4930  -15.6520   22.5359 O   0  0  0  0  0  0  0  0  0  0  0  0
    6.0205  -11.8742   26.1898 C   0  0  0  0  0  0  0  0  0  0  0  0
    6.8374  -12.7448   25.2884 C   0  0  0  0  0  0  0  0  0  0  0  0
    7.3584  -13.9165   26.1203 C   0  0  2  0  0  0  0  0  0  0  0  0
    8.2421  -13.3484   27.1737 C   0  0  0  0  0  0  0  0  0  0  0  0
    8.0638  -14.9136   25.1917 C   0  0  2  0  0  0  0  0  0  0  0  0
    7.0216  -15.3135   24.2487 N   0  0  0  0  0  0  0  0  0  0  0  0
    8.6424  -16.0557   25.8876 C   0  0  0  0  0  0  0  0  0  0  0  0
    7.9996  -16.7134   26.7826 O   0  0  0  0  0  0  0  0  0  0  0  0
   12.4481  -17.2531   25.0509 O   0  0  0  0  0  0  0  0  0  0  0  0
   11.5807  -18.2711   25.3958 C   0  0  0  0  0  0  0  0  0  0  0  0
   10.4370  -17.7564   26.2714 C   0  0  2  0  0  0  0  0  0  0  0  0
    9.9529  -16.5218   25.6244 N   0  0  0  0  0  0  0  0  0  0  0  0
   11.0009  -17.4564   27.6038 C   0  0  0  0  0  0  0  0  0  0  0  0
   11.5500  -18.4694   28.3465 O   0  0  0  0  0  0  0  0  0  0  0  0
   10.9893  -16.2951   28.0727 O   0  0  0  0  0  0  0  0  0  0  0  0
  2  1  1  6
  2  3  1  0
  4  2  1  0
  4  5  1  6
  4  6  1  0
  6 13  1  0
  6  7  2  0
  8  9  1  0
  9 10  1  0
 10 12  1  0
 10 11  1  1
 12 14  1  0
 12 13  1  6
 14 15  2  0
 16 17  1  0
 18 17  1  6
 18 20  1  0
 19 14  1  0
 19 18  1  0
 20 21  1  0
 22 20  2  0
M  END
$$$$
