VIS.pdb
     RDKit          3D

 22 21  0  0  1  0  0  0  0  0999 V2000
    7.5083  -17.1720   20.9842 C   0  0  0  0  0  0  0  0  0  0  0  0
    6.5472  -16.0221   21.0325 C   0  0  2  0  0  0  0  0  0  0  0  0
    5.6640  -16.0086   19.8041 C   0  0  0  0  0  0  0  0  0  0  0  0
    7.2292  -14.6841   21.1249 C   0  0  2  0  0  0  0  0  0  0  0  0
    7.9813  -14.3476   19.9543 N   0  0  0  0  0  0  0  0  0  0  0  0
    8.0721  -14.5421   22.3214 C   0  0  0  0  0  0  0  0  0  0  0  0
    9.3262  -14.5400   22.3050 O   0  0  0  0  0  0  0  0  0  0  0  0
    6.0795  -11.5752   26.2698 C   0  0  0  0  0  0  0  0  0  0  0  0
    7.0500  -12.2335   25.3411 C   0  0  0  0  0  0  0  0  0  0  0  0
    7.2523  -13.6703   25.8216 C   0  0  2  0  0  0  0  0  0  0  0  0
    7.7792  -13.5986   27.2111 C   0  0  0  0  0  0  0  0  0  0  0  0
    8.1834  -14.3978   24.8430 C   0  0  2  0  0  0  0  0  0  0  0  0
    7.4406  -14.3972   23.5846 N   0  0  0  0  0  0  0  0  0  0  0  0
    8.5442  -15.7446   25.2670 C   0  0  0  0  0  0  0  0  0  0  0  0
    7.6674  -16.6118   25.6217 O   0  0  0  0  0  0  0  0  0  0  0  0
   12.2810  -17.1207   24.6335 O   0  0  0  0  0  0  0  0  0  0  0  0
   11.2846  -18.0667   24.7748 C   0  0  0  0  0  0  0  0  0  0  0  0
   10.1835  -17.5801   25.7184 C   0  0  2  0  0  0  0  0  0  0  0  0
    9.8863  -16.1920   25.3155 N   0  0  0  0  0  0  0  0  0  0  0  0
   10.7297  -17.6158   27.0908 C   0  0  0  0  0  0  0  0  0  0  0  0
   10.8191  -16.4526   27.8108 O   0  0  0  0  0  0  0  0  0  0  0  0
   11.1144  -18.6867   27.6141 O   0  0  0  0  0  0  0  0  0  0  0  0
  2  1  1  6
  2  3  1  0
  4  2  1  0
  4  5  1  6
  4  6  1  0
  6 13  1  0
  6  7  2  0
  8  9  1  0
  9 10  1  0
 10 12  1  0
 10 11  1  1
 12 14  1  0
 12 13  1  6
 14 15  2  0
 16 17  1  0
 18 17  1  6
 18 20  1  0
 19 14  1  0
 19 18  1  0
 20 21  1  0
 22 20  2  0
M  END
$$$$
