VIS.pdb
     RDKit          3D

 22 21  0  0  1  0  0  0  0  0999 V2000
    8.1725  -19.7877   26.0101 C   0  0  0  0  0  0  0  0  0  0  0  0
    7.1125  -19.0907   26.8096 C   0  0  2  0  0  0  0  0  0  0  0  0
    6.4786  -20.0393   27.8033 C   0  0  0  0  0  0  0  0  0  0  0  0
    6.0145  -18.5119   25.9593 C   0  0  2  0  0  0  0  0  0  0  0  0
    5.3080  -19.4958   25.1963 N   0  0  0  0  0  0  0  0  0  0  0  0
    6.4712  -17.4263   25.0789 C   0  0  0  0  0  0  0  0  0  0  0  0
    6.5279  -17.5083   23.8286 O   0  0  0  0  0  0  0  0  0  0  0  0
    5.9419  -12.3350   26.7535 C   0  0  0  0  0  0  0  0  0  0  0  0
    6.0611  -13.4925   25.8134 C   0  0  0  0  0  0  0  0  0  0  0  0
    7.5243  -13.9344   25.8029 C   0  0  2  0  0  0  0  0  0  0  0  0
    8.3269  -12.7838   25.3078 C   0  0  0  0  0  0  0  0  0  0  0  0
    7.6581  -15.1982   24.9432 C   0  0  2  0  0  0  0  0  0  0  0  0
    6.8777  -16.1997   25.6667 N   0  0  0  0  0  0  0  0  0  0  0  0
    9.0364  -15.6224   24.7335 C   0  0  0  0  0  0  0  0  0  0  0  0
    9.8456  -15.8362   25.7063 O   0  0  0  0  0  0  0  0  0  0  0  0
   10.5069  -15.9750   20.9779 O   0  0  0  0  0  0  0  0  0  0  0  0
   10.9698  -16.9510   21.8386 C   0  0  0  0  0  0  0  0  0  0  0  0
   10.8898  -16.4929   23.2958 C   0  0  2  0  0  0  0  0  0  0  0  0
    9.5793  -15.8308   23.4430 N   0  0  0  0  0  0  0  0  0  0  0  0
   11.9861  -15.5272   23.5164 C   0  0  0  0  0  0  0  0  0  0  0  0
   13.2862  -15.9445   23.3946 O   0  0  0  0  0  0  0  0  0  0  0  0
   11.7555  -14.3323   23.8129 O   0  0  0  0  0  0  0  0  0  0  0  0
  2  1  1  6
  2  3  1  0
  4  2  1  0
  4  5  1  6
  4  6  1  0
  6 13  1  0
  6  7  2  0
  8  9  1  0
  9 10  1  0
 10 12  1  0
 10 11  1  6
 12 14  1  0
 12 13  1  1
 14 15  2  0
 16 17  1  0
 18 17  1  6
 18 20  1  0
 19 14  1  0
 19 18  1  0
 20 21  1  0
 22 20  2  0
M  END
$$$$
