SHL.pdb
     RDKit          3D

 25 25  0  0  1  0  0  0  0  0999 V2000
    9.8207  -12.0693   18.8583 O   0  0  0  0  0  0  0  0  0  0  0  0
    8.7151  -12.6186   19.5156 C   0  0  0  0  0  0  0  0  0  0  0  0
    8.7031  -14.1023   19.2339 C   0  0  2  0  0  0  0  0  0  0  0  0
    8.0215  -14.4075   17.9920 N   0  0  0  0  0  0  0  0  0  0  0  0
    8.1787  -14.8890   20.3681 C   0  0  0  0  0  0  0  0  0  0  0  0
    6.9467  -15.1474   20.4520 O   0  0  0  0  0  0  0  0  0  0  0  0
    9.0015  -15.3926   21.4100 N   0  0  0  0  0  0  0  0  0  0  0  0
    8.5389  -16.1248   22.5447 C   0  0  1  0  0  0  0  0  0  0  0  0
    8.8695  -17.5798   22.5111 C   0  0  0  0  0  0  0  0  0  0  0  0
   10.3196  -17.8351   22.3277 C   0  0  0  0  0  0  0  0  0  0  0  0
   11.1481  -17.2365   21.4047 C   0  0  0  0  0  0  0  0  0  0  0  0
   12.3773  -17.7414   21.5673 N   0  0  0  0  0  0  0  0  0  0  0  0
   12.3575  -18.6428   22.5649 C   0  0  0  0  0  0  0  0  0  0  0  0
   11.0969  -18.6956   23.0256 N   0  0  0  0  0  0  0  0  0  0  0  0
    8.9322  -15.5340   23.8318 C   0  0  0  0  0  0  0  0  0  0  0  0
   10.0495  -14.9728   23.9401 O   0  0  0  0  0  0  0  0  0  0  0  0
    7.9179  -11.8489   25.7085 C   0  0  0  0  0  0  0  0  0  0  0  0
    6.8582  -12.9184   25.9158 C   0  0  2  0  0  0  0  0  0  0  0  0
    5.5588  -12.3089   26.2805 C   0  0  0  0  0  0  0  0  0  0  0  0
    7.3266  -14.0861   26.6896 C   0  0  0  0  0  0  0  0  0  0  0  0
    8.4830  -14.8688   26.2001 C   0  0  2  0  0  0  0  0  0  0  0  0
    8.0806  -15.5790   24.9663 N   0  0  0  0  0  0  0  0  0  0  0  0
    9.0801  -15.8464   27.1052 C   0  0  0  0  0  0  0  0  0  0  0  0
    9.0745  -17.1957   26.7526 O   0  0  0  0  0  0  0  0  0  0  0  0
    9.5937  -15.5196   28.1797 O   0  0  0  0  0  0  0  0  0  0  0  0
  2  1  1  0
  3  2  1  0
  3  5  1  0
  3  4  1  6
  5  6  2  0
  5  7  1  0
  7  8  1  0
  8 15  1  0
  8  9  1  6
  9 10  1  0
 10 11  2  0
 10 14  1  0
 11 12  1  0
 12 13  1  0
 14 13  2  0
 15 22  1  0
 15 16  2  0
 18 17  1  1
 18 19  1  0
 18 20  1  0
 21 20  1  1
 21 23  1  0
 22 21  1  0
 23 24  1  0
 25 23  2  0
M  END
$$$$
