SHL.pdb
     RDKit          3D

 25 25  0  0  1  0  0  0  0  0999 V2000
    9.7445  -11.6786   19.9761 O   0  0  0  0  0  0  0  0  0  0  0  0
   10.2257  -12.9141   19.5311 C   0  0  0  0  0  0  0  0  0  0  0  0
    9.0333  -13.7939   19.2393 C   0  0  2  0  0  0  0  0  0  0  0  0
    8.0208  -13.0907   18.4775 N   0  0  0  0  0  0  0  0  0  0  0  0
    8.4821  -14.4214   20.4571 C   0  0  0  0  0  0  0  0  0  0  0  0
    7.3816  -14.0320   20.9352 O   0  0  0  0  0  0  0  0  0  0  0  0
    9.1346  -15.4742   21.1513 N   0  0  0  0  0  0  0  0  0  0  0  0
    8.6036  -16.1722   22.2777 C   0  0  1  0  0  0  0  0  0  0  0  0
    8.8793  -17.6390   22.2749 C   0  0  0  0  0  0  0  0  0  0  0  0
    8.1666  -18.3551   21.1883 C   0  0  0  0  0  0  0  0  0  0  0  0
    7.3616  -17.7911   20.2237 C   0  0  0  0  0  0  0  0  0  0  0  0
    6.9126  -18.7759   19.4357 N   0  0  0  0  0  0  0  0  0  0  0  0
    7.4063  -19.9494   19.8683 C   0  0  0  0  0  0  0  0  0  0  0  0
    8.1721  -19.6856   20.9399 N   0  0  0  0  0  0  0  0  0  0  0  0
    8.9727  -15.5784   23.5706 C   0  0  0  0  0  0  0  0  0  0  0  0
   10.1439  -15.1646   23.7504 O   0  0  0  0  0  0  0  0  0  0  0  0
    8.0945  -11.9525   26.1997 C   0  0  0  0  0  0  0  0  0  0  0  0
    6.9693  -12.9741   26.2045 C   0  0  2  0  0  0  0  0  0  0  0  0
    5.7346  -12.3952   26.7817 C   0  0  0  0  0  0  0  0  0  0  0  0
    7.3836  -14.3220   26.6440 C   0  0  0  0  0  0  0  0  0  0  0  0
    8.5062  -14.9994   25.9581 C   0  0  2  0  0  0  0  0  0  0  0  0
    8.0379  -15.4576   24.6316 N   0  0  0  0  0  0  0  0  0  0  0  0
    9.1327  -16.1349   26.6287 C   0  0  0  0  0  0  0  0  0  0  0  0
    9.9659  -15.9065   27.7235 O   0  0  0  0  0  0  0  0  0  0  0  0
    8.9504  -17.2991   26.2589 O   0  0  0  0  0  0  0  0  0  0  0  0
  2  1  1  0
  3  2  1  0
  3  5  1  0
  3  4  1  1
  5  6  2  0
  5  7  1  0
  7  8  1  0
  8 15  1  0
  8  9  1  1
  9 10  1  0
 10 11  2  0
 10 14  1  0
 11 12  1  0
 12 13  1  0
 14 13  2  0
 15 22  1  0
 15 16  2  0
 18 17  1  1
 18 19  1  0
 18 20  1  0
 21 20  1  1
 21 23  1  0
 22 21  1  0
 23 24  1  0
 25 23  2  0
M  END
$$$$
