SHL.pdb
     RDKit          3D

 25 25  0  0  1  0  0  0  0  0999 V2000
    5.7742  -14.9863   21.0936 O   0  0  0  0  0  0  0  0  0  0  0  0
    6.8791  -14.3689   20.4985 C   0  0  0  0  0  0  0  0  0  0  0  0
    7.8623  -15.4513   20.1204 C   0  0  2  0  0  0  0  0  0  0  0  0
    7.3133  -16.3521   19.1268 N   0  0  0  0  0  0  0  0  0  0  0  0
    8.3912  -16.1707   21.2964 C   0  0  0  0  0  0  0  0  0  0  0  0
    7.7589  -17.1455   21.7877 O   0  0  0  0  0  0  0  0  0  0  0  0
    9.6112  -15.8236   21.9348 N   0  0  0  0  0  0  0  0  0  0  0  0
   10.1745  -16.4994   23.0590 C   0  0  1  0  0  0  0  0  0  0  0  0
   11.5909  -16.9296   22.8682 C   0  0  0  0  0  0  0  0  0  0  0  0
   11.7511  -17.9031   21.7600 C   0  0  0  0  0  0  0  0  0  0  0  0
   11.2186  -19.1717   21.6984 C   0  0  0  0  0  0  0  0  0  0  0  0
   11.5961  -19.7200   20.5368 N   0  0  0  0  0  0  0  0  0  0  0  0
   12.3523  -18.8404   19.8568 C   0  0  0  0  0  0  0  0  0  0  0  0
   12.4435  -17.7317   20.6097 N   0  0  0  0  0  0  0  0  0  0  0  0
   10.0208  -15.7712   24.3263 C   0  0  0  0  0  0  0  0  0  0  0  0
   10.8153  -14.8409   24.6065 O   0  0  0  0  0  0  0  0  0  0  0  0
    8.2682  -12.3879   26.1095 C   0  0  0  0  0  0  0  0  0  0  0  0
    7.2680  -13.5115   25.8923 C   0  0  2  0  0  0  0  0  0  0  0  0
    5.8804  -12.9954   25.9249 C   0  0  0  0  0  0  0  0  0  0  0  0
    7.5756  -14.7437   26.6465 C   0  0  0  0  0  0  0  0  0  0  0  0
    8.9194  -15.3523   26.5320 C   0  0  2  0  0  0  0  0  0  0  0  0
    8.9930  -16.0900   25.2517 N   0  0  0  0  0  0  0  0  0  0  0  0
    9.3550  -16.2542   27.5942 C   0  0  0  0  0  0  0  0  0  0  0  0
    9.8658  -15.7198   28.7768 O   0  0  0  0  0  0  0  0  0  0  0  0
    9.2873  -17.4823   27.4827 O   0  0  0  0  0  0  0  0  0  0  0  0
  2  1  1  0
  3  2  1  0
  3  5  1  0
  3  4  1  6
  5  6  2  0
  5  7  1  0
  7  8  1  0
  8 15  1  0
  8  9  1  6
  9 10  1  0
 10 11  2  0
 10 14  1  0
 11 12  1  0
 12 13  1  0
 14 13  2  0
 15 22  1  0
 15 16  2  0
 18 17  1  1
 18 19  1  0
 18 20  1  0
 21 20  1  1
 21 23  1  0
 22 21  1  0
 23 24  1  0
 25 23  2  0
M  END
$$$$
