SHL.pdb
     RDKit          3D

 25 25  0  0  1  0  0  0  0  0999 V2000
    8.4580  -15.8871   19.7074 O   0  0  0  0  0  0  0  0  0  0  0  0
    8.6371  -17.2484   19.4410 C   0  0  0  0  0  0  0  0  0  0  0  0
    7.3946  -17.9741   19.8997 C   0  0  2  0  0  0  0  0  0  0  0  0
    6.3179  -17.8567   18.9369 N   0  0  0  0  0  0  0  0  0  0  0  0
    6.9762  -17.5755   21.2585 C   0  0  0  0  0  0  0  0  0  0  0  0
    6.0609  -16.7229   21.4217 O   0  0  0  0  0  0  0  0  0  0  0  0
    7.5589  -18.1095   22.4382 N   0  0  0  0  0  0  0  0  0  0  0  0
    7.1818  -17.7667   23.7717 C   0  0  1  0  0  0  0  0  0  0  0  0
    7.4144  -18.8501   24.7716 C   0  0  0  0  0  0  0  0  0  0  0  0
    6.5692  -20.0454   24.5302 C   0  0  0  0  0  0  0  0  0  0  0  0
    5.6593  -20.2150   23.5104 C   0  0  0  0  0  0  0  0  0  0  0  0
    5.1091  -21.4278   23.6479 N   0  0  0  0  0  0  0  0  0  0  0  0
    5.6401  -22.0357   24.7233 C   0  0  0  0  0  0  0  0  0  0  0  0
    6.5318  -21.1857   25.2584 N   0  0  0  0  0  0  0  0  0  0  0  0
    7.7539  -16.4970   24.2415 C   0  0  0  0  0  0  0  0  0  0  0  0
    8.1277  -15.6390   23.4053 O   0  0  0  0  0  0  0  0  0  0  0  0
    5.7619  -11.9948   26.7047 C   0  0  0  0  0  0  0  0  0  0  0  0
    7.1024  -12.5546   26.2579 C   0  0  2  0  0  0  0  0  0  0  0  0
    7.8120  -11.5903   25.3865 C   0  0  0  0  0  0  0  0  0  0  0  0
    7.0533  -13.9710   25.8420 C   0  0  0  0  0  0  0  0  0  0  0  0
    8.2407  -14.8311   26.0418 C   0  0  2  0  0  0  0  0  0  0  0  0
    7.8984  -16.2083   25.6235 N   0  0  0  0  0  0  0  0  0  0  0  0
    8.8182  -14.9002   27.3809 C   0  0  0  0  0  0  0  0  0  0  0  0
    9.9266  -14.1115   27.6879 O   0  0  0  0  0  0  0  0  0  0  0  0
    8.3574  -15.6372   28.2582 O   0  0  0  0  0  0  0  0  0  0  0  0
  2  1  1  0
  3  2  1  0
  3  5  1  0
  3  4  1  6
  5  6  2  0
  5  7  1  0
  7  8  1  0
  8 15  1  0
  8  9  1  1
  9 10  1  0
 10 11  2  0
 10 14  1  0
 11 12  1  0
 12 13  1  0
 14 13  2  0
 15 22  1  0
 15 16  2  0
 18 17  1  6
 18 19  1  0
 18 20  1  0
 21 20  1  1
 21 23  1  0
 22 21  1  0
 23 24  1  0
 25 23  2  0
M  END
$$$$
