SHL.pdb
     RDKit          3D

 25 25  0  0  1  0  0  0  0  0999 V2000
   12.8173  -14.0858   19.0891 O   0  0  0  0  0  0  0  0  0  0  0  0
   12.6793  -15.1761   19.9541 C   0  0  0  0  0  0  0  0  0  0  0  0
   11.5312  -16.0191   19.4519 C   0  0  2  0  0  0  0  0  0  0  0  0
   11.0311  -15.5413   18.1785 N   0  0  0  0  0  0  0  0  0  0  0  0
   10.4575  -16.1673   20.4547 C   0  0  0  0  0  0  0  0  0  0  0  0
    9.3180  -15.6661   20.2507 O   0  0  0  0  0  0  0  0  0  0  0  0
   10.6306  -16.8634   21.6802 N   0  0  0  0  0  0  0  0  0  0  0  0
    9.6108  -17.0821   22.6550 C   0  0  1  0  0  0  0  0  0  0  0  0
    9.6274  -18.4447   23.2636 C   0  0  0  0  0  0  0  0  0  0  0  0
    9.0742  -19.4838   22.3604 C   0  0  0  0  0  0  0  0  0  0  0  0
    8.5360  -19.2816   21.1090 C   0  0  0  0  0  0  0  0  0  0  0  0
    8.1539  -20.4714   20.6287 N   0  0  0  0  0  0  0  0  0  0  0  0
    8.4319  -21.4250   21.5350 C   0  0  0  0  0  0  0  0  0  0  0  0
    8.9942  -20.8150   22.5914 N   0  0  0  0  0  0  0  0  0  0  0  0
    9.5582  -16.0492   23.6993 C   0  0  0  0  0  0  0  0  0  0  0  0
   10.6234  -15.5253   24.1068 O   0  0  0  0  0  0  0  0  0  0  0  0
    5.2806  -12.5795   26.5572 C   0  0  0  0  0  0  0  0  0  0  0  0
    6.7505  -12.9491   26.4433 C   0  0  2  0  0  0  0  0  0  0  0  0
    7.6066  -11.7464   26.5596 C   0  0  0  0  0  0  0  0  0  0  0  0
    7.0447  -13.9178   25.3678 C   0  0  0  0  0  0  0  0  0  0  0  0
    8.3462  -14.6216   25.3566 C   0  0  2  0  0  0  0  0  0  0  0  0
    8.3295  -15.6220   24.2668 N   0  0  0  0  0  0  0  0  0  0  0  0
    8.7689  -15.2982   26.5792 C   0  0  0  0  0  0  0  0  0  0  0  0
    9.6472  -14.6518   27.4486 O   0  0  0  0  0  0  0  0  0  0  0  0
    8.3742  -16.4307   26.8739 O   0  0  0  0  0  0  0  0  0  0  0  0
  2  1  1  0
  3  2  1  0
  3  5  1  0
  3  4  1  6
  5  6  2  0
  5  7  1  0
  7  8  1  0
  8 15  1  0
  8  9  1  1
  9 10  1  0
 10 11  2  0
 10 14  1  0
 11 12  1  0
 12 13  1  0
 14 13  2  0
 15 22  1  0
 15 16  2  0
 18 17  1  6
 18 19  1  0
 18 20  1  0
 21 20  1  1
 21 23  1  0
 22 21  1  0
 23 24  1  0
 25 23  2  0
M  END
$$$$
