SHL.pdb
     RDKit          3D

 25 25  0  0  1  0  0  0  0  0999 V2000
   10.5594  -13.1479   19.9455 O   0  0  0  0  0  0  0  0  0  0  0  0
   10.0906  -14.0663   19.0006 C   0  0  0  0  0  0  0  0  0  0  0  0
    8.5812  -14.0440   19.0474 C   0  0  2  0  0  0  0  0  0  0  0  0
    8.0527  -12.7379   18.7087 N   0  0  0  0  0  0  0  0  0  0  0  0
    8.0476  -14.5487   20.3284 C   0  0  0  0  0  0  0  0  0  0  0  0
    7.3546  -13.8011   21.0716 O   0  0  0  0  0  0  0  0  0  0  0  0
    8.2722  -15.8704   20.7961 N   0  0  0  0  0  0  0  0  0  0  0  0
    7.7640  -16.4105   22.0159 C   0  0  1  0  0  0  0  0  0  0  0  0
    7.8366  -17.8987   22.1039 C   0  0  0  0  0  0  0  0  0  0  0  0
    7.3512  -18.4213   23.4051 C   0  0  0  0  0  0  0  0  0  0  0  0
    8.1194  -18.9735   24.4059 C   0  0  0  0  0  0  0  0  0  0  0  0
    7.3021  -19.3174   25.4090 N   0  0  0  0  0  0  0  0  0  0  0  0
    6.0376  -19.0016   25.0782 C   0  0  0  0  0  0  0  0  0  0  0  0
    6.0742  -18.4543   23.8522 N   0  0  0  0  0  0  0  0  0  0  0  0
    8.3347  -15.7922   23.2210 C   0  0  0  0  0  0  0  0  0  0  0  0
    9.5541  -15.4961   23.2470 O   0  0  0  0  0  0  0  0  0  0  0  0
    5.8523  -12.2064   27.2306 C   0  0  0  0  0  0  0  0  0  0  0  0
    7.0216  -12.7244   26.4094 C   0  0  2  0  0  0  0  0  0  0  0  0
    7.1816  -11.9370   25.1655 C   0  0  0  0  0  0  0  0  0  0  0  0
    7.0872  -14.1972   26.3201 C   0  0  0  0  0  0  0  0  0  0  0  0
    8.1603  -14.8323   25.5235 C   0  0  2  0  0  0  0  0  0  0  0  0
    7.5431  -15.5172   24.3664 N   0  0  0  0  0  0  0  0  0  0  0  0
    9.0365  -15.7880   26.1945 C   0  0  0  0  0  0  0  0  0  0  0  0
    8.7343  -17.1483   26.1372 O   0  0  0  0  0  0  0  0  0  0  0  0
   10.0432  -15.4330   26.8157 O   0  0  0  0  0  0  0  0  0  0  0  0
  2  1  1  0
  3  2  1  0
  3  5  1  0
  3  4  1  1
  5  6  2  0
  5  7  1  0
  7  8  1  0
  8 15  1  0
  8  9  1  1
  9 10  1  0
 10 11  2  0
 10 14  1  0
 11 12  1  0
 12 13  1  0
 14 13  2  0
 15 22  1  0
 15 16  2  0
 18 17  1  6
 18 19  1  0
 18 20  1  0
 21 20  1  1
 21 23  1  0
 22 21  1  0
 23 24  1  0
 25 23  2  0
M  END
$$$$
