SHL.pdb
     RDKit          3D

 25 25  0  0  1  0  0  0  0  0999 V2000
    6.2136  -18.1296   25.5180 O   0  0  0  0  0  0  0  0  0  0  0  0
    6.5286  -19.4203   25.0810 C   0  0  0  0  0  0  0  0  0  0  0  0
    6.4715  -19.4214   23.5717 C   0  0  2  0  0  0  0  0  0  0  0  0
    6.7515  -20.7339   23.0248 N   0  0  0  0  0  0  0  0  0  0  0  0
    7.3212  -18.3727   22.9730 C   0  0  0  0  0  0  0  0  0  0  0  0
    8.5779  -18.4817   22.9881 O   0  0  0  0  0  0  0  0  0  0  0  0
    6.7962  -17.2055   22.3580 N   0  0  0  0  0  0  0  0  0  0  0  0
    7.5670  -16.0854   21.9230 C   0  0  1  0  0  0  0  0  0  0  0  0
    6.8707  -15.2091   20.9357 C   0  0  0  0  0  0  0  0  0  0  0  0
    7.7378  -14.1197   20.4230 C   0  0  0  0  0  0  0  0  0  0  0  0
    9.0546  -13.8929   20.7564 C   0  0  0  0  0  0  0  0  0  0  0  0
    9.4708  -12.8163   20.0781 N   0  0  0  0  0  0  0  0  0  0  0  0
    8.4603  -12.3503   19.3233 C   0  0  0  0  0  0  0  0  0  0  0  0
    7.4037  -13.1512   19.5385 N   0  0  0  0  0  0  0  0  0  0  0  0
    8.1231  -15.2854   23.0235 C   0  0  0  0  0  0  0  0  0  0  0  0
    9.0040  -14.4252   22.7803 O   0  0  0  0  0  0  0  0  0  0  0  0
    6.0108  -11.9735   27.0414 C   0  0  0  0  0  0  0  0  0  0  0  0
    7.3095  -12.5615   26.5144 C   0  0  2  0  0  0  0  0  0  0  0  0
    7.9176  -11.6708   25.4996 C   0  0  0  0  0  0  0  0  0  0  0  0
    7.2404  -14.0084   26.2261 C   0  0  0  0  0  0  0  0  0  0  0  0
    8.3149  -14.6460   25.4334 C   0  0  2  0  0  0  0  0  0  0  0  0
    7.6915  -15.4570   24.3646 N   0  0  0  0  0  0  0  0  0  0  0  0
    9.2737  -15.4931   26.1368 C   0  0  0  0  0  0  0  0  0  0  0  0
   10.3793  -14.9070   26.7526 O   0  0  0  0  0  0  0  0  0  0  0  0
    9.1403  -16.7188   26.2068 O   0  0  0  0  0  0  0  0  0  0  0  0
  2  1  1  0
  3  2  1  0
  3  5  1  0
  3  4  1  6
  5  6  2  0
  5  7  1  0
  7  8  1  0
  8 15  1  0
  8  9  1  1
  9 10  1  0
 10 11  2  0
 10 14  1  0
 11 12  1  0
 12 13  1  0
 14 13  2  0
 15 22  1  0
 15 16  2  0
 18 17  1  6
 18 19  1  0
 18 20  1  0
 21 20  1  1
 21 23  1  0
 22 21  1  0
 23 24  1  0
 25 23  2  0
M  END
$$$$
