SHL.pdb
     RDKit          3D

 25 25  0  0  1  0  0  0  0  0999 V2000
    9.8375  -12.9500   20.2088 O   0  0  0  0  0  0  0  0  0  0  0  0
    9.5713  -14.1148   19.4818 C   0  0  0  0  0  0  0  0  0  0  0  0
    8.0779  -14.3390   19.5030 C   0  0  2  0  0  0  0  0  0  0  0  0
    7.3516  -13.1567   19.0850 N   0  0  0  0  0  0  0  0  0  0  0  0
    7.6024  -14.8580   20.8010 C   0  0  0  0  0  0  0  0  0  0  0  0
    6.8732  -14.1474   21.5458 O   0  0  0  0  0  0  0  0  0  0  0  0
    7.9246  -16.1539   21.2840 N   0  0  0  0  0  0  0  0  0  0  0  0
    7.6165  -16.6478   22.5874 C   0  0  1  0  0  0  0  0  0  0  0  0
    7.8283  -18.1161   22.7518 C   0  0  0  0  0  0  0  0  0  0  0  0
    7.4110  -18.6105   24.0871 C   0  0  0  0  0  0  0  0  0  0  0  0
    6.1653  -18.4774   24.6592 C   0  0  0  0  0  0  0  0  0  0  0  0
    6.2025  -19.0584   25.8647 N   0  0  0  0  0  0  0  0  0  0  0  0
    7.4327  -19.5572   26.0783 C   0  0  0  0  0  0  0  0  0  0  0  0
    8.1669  -19.2802   24.9882 N   0  0  0  0  0  0  0  0  0  0  0  0
    8.2727  -15.9053   23.6729 C   0  0  0  0  0  0  0  0  0  0  0  0
    9.4559  -15.5126   23.5277 O   0  0  0  0  0  0  0  0  0  0  0  0
    7.8717  -11.9160   25.4682 C   0  0  0  0  0  0  0  0  0  0  0  0
    6.8147  -12.8407   26.0495 C   0  0  2  0  0  0  0  0  0  0  0  0
    5.7777  -12.0679   26.7707 C   0  0  0  0  0  0  0  0  0  0  0  0
    7.3641  -14.0499   26.6957 C   0  0  0  0  0  0  0  0  0  0  0  0
    8.3304  -14.8947   25.9595 C   0  0  2  0  0  0  0  0  0  0  0  0
    7.6045  -15.6161   24.8911 N   0  0  0  0  0  0  0  0  0  0  0  0
    9.0995  -15.8757   26.7195 C   0  0  0  0  0  0  0  0  0  0  0  0
   10.1601  -15.4436   27.5154 O   0  0  0  0  0  0  0  0  0  0  0  0
    8.8433  -17.0833   26.6829 O   0  0  0  0  0  0  0  0  0  0  0  0
  2  1  1  0
  3  2  1  0
  3  5  1  0
  3  4  1  1
  5  6  2  0
  5  7  1  0
  7  8  1  0
  8 15  1  0
  8  9  1  6
  9 10  1  0
 10 11  2  0
 10 14  1  0
 11 12  1  0
 12 13  1  0
 14 13  2  0
 15 22  1  0
 15 16  2  0
 18 17  1  1
 18 19  1  0
 18 20  1  0
 21 20  1  1
 21 23  1  0
 22 21  1  0
 23 24  1  0
 25 23  2  0
M  END
$$$$
