SHL.pdb
     RDKit          3D

 25 25  0  0  1  0  0  0  0  0999 V2000
    9.3947  -14.1080   19.1151 O   0  0  0  0  0  0  0  0  0  0  0  0
    8.7600  -14.9360   18.1836 C   0  0  0  0  0  0  0  0  0  0  0  0
    8.9445  -16.3647   18.6375 C   0  0  2  0  0  0  0  0  0  0  0  0
    8.4453  -17.3081   17.6574 N   0  0  0  0  0  0  0  0  0  0  0  0
    8.3862  -16.6072   19.9828 C   0  0  0  0  0  0  0  0  0  0  0  0
    7.1379  -16.6196   20.1646 O   0  0  0  0  0  0  0  0  0  0  0  0
    9.1931  -16.8359   21.1286 N   0  0  0  0  0  0  0  0  0  0  0  0
    8.7025  -17.1186   22.4390 C   0  0  1  0  0  0  0  0  0  0  0  0
    9.1369  -18.4384   22.9841 C   0  0  0  0  0  0  0  0  0  0  0  0
    8.4663  -19.5829   22.3193 C   0  0  0  0  0  0  0  0  0  0  0  0
    8.8033  -20.1395   21.1055 C   0  0  0  0  0  0  0  0  0  0  0  0
    7.9557  -21.1479   20.8663 N   0  0  0  0  0  0  0  0  0  0  0  0
    7.0896  -21.2508   21.8896 C   0  0  0  0  0  0  0  0  0  0  0  0
    7.4068  -20.2914   22.7746 N   0  0  0  0  0  0  0  0  0  0  0  0
    8.9590  -16.0470   23.4117 C   0  0  0  0  0  0  0  0  0  0  0  0
   10.0803  -15.4835   23.4314 O   0  0  0  0  0  0  0  0  0  0  0  0
    5.7935  -12.2469   27.0806 C   0  0  0  0  0  0  0  0  0  0  0  0
    7.1664  -12.6992   26.6110 C   0  0  2  0  0  0  0  0  0  0  0  0
    8.0675  -11.5393   26.4229 C   0  0  0  0  0  0  0  0  0  0  0  0
    7.1302  -13.7366   25.5601 C   0  0  0  0  0  0  0  0  0  0  0  0
    8.3137  -14.5983   25.3452 C   0  0  2  0  0  0  0  0  0  0  0  0
    7.9695  -15.6258   24.3380 N   0  0  0  0  0  0  0  0  0  0  0  0
    8.8833  -15.2800   26.5038 C   0  0  0  0  0  0  0  0  0  0  0  0
    9.9438  -14.6892   27.1904 O   0  0  0  0  0  0  0  0  0  0  0  0
    8.4571  -16.3690   26.9009 O   0  0  0  0  0  0  0  0  0  0  0  0
  2  1  1  0
  3  2  1  0
  3  5  1  0
  3  4  1  6
  5  6  2  0
  5  7  1  0
  7  8  1  0
  8 15  1  0
  8  9  1  1
  9 10  1  0
 10 11  2  0
 10 14  1  0
 11 12  1  0
 12 13  1  0
 14 13  2  0
 15 22  1  0
 15 16  2  0
 18 17  1  6
 18 19  1  0
 18 20  1  0
 21 20  1  1
 21 23  1  0
 22 21  1  0
 23 24  1  0
 25 23  2  0
M  END
$$$$
